drugbank_target|P31040 Succinate dehydrogenase [ubiquinone] flavoprotein subunit, mitochondrial (DB04141; DB04657; DB04795; DB08689; DB09270)
 OpenBabel12092119253D

  0  0  0     0  0            999 V3000
M  V30 BEGIN CTAB
M  V30 COUNTS 10122 10228 0 0 0
M  V30 BEGIN ATOM
M  V30 1 H -0.908 1.98254 -0.117106 0
M  V30 2 N 0 1.576 0 0
M  V30 3 C 0.933 2.03868 1.02534 0
M  V30 4 C 1.911 0.928543 1.3348 0
M  V30 5 O 3.095 1.19667 1.45644 0
M  V30 6 C 0.222 2.43627 2.35294 0
M  V30 7 C -0.732 3.65373 2.2001 0
M  V30 8 S 0.101 5.13292 1.52614 0
M  V30 9 C 1.257 5.56322 2.86805 0
M  V30 10 H 1.49 2.90518 0.631377 0
M  V30 11 H -0.977 1.52953 0.210867 0
M  V30 12 H 0.981 2.67203 3.11629 0
M  V30 13 H -0.358 1.57376 2.7183 0
M  V30 14 H -1.165 3.90944 3.18086 0
M  V30 15 H -1.563 3.418 1.51819 0
M  V30 16 H 0.729 5.58782 3.83104 0
M  V30 17 H 1.672 6.56266 2.65933 0
M  V30 18 H 2.08 4.83886 2.90714 0
M  V30 19 N 1.4781 -0.272755 1.55222 0
M  V30 20 C 2.7031 -1.02683 1.80197 0
M  V30 21 C 3.1281 -1.79142 0.573551 0
M  V30 22 O 2.4861 -1.74917 -0.476849 0
M  V30 23 C 2.5341 -1.9609 3.02624 0
M  V30 24 O 1.6381 -3.04863 2.77727 0
M  V30 25 H 0.9791 -0.293557 0.595584 0
M  V30 26 H 3.5091 -0.30159 2.02365 0
M  V30 27 H 3.5191 -2.38039 3.31363 0
M  V30 28 H 2.1941 -1.39851 3.91682 0
M  V30 29 H 0.7711 -2.67228 2.60084 0
M  V30 30 N 2.9562 -1.48159 -0.537278 0
M  V30 31 C 4.2042 -1.55497 -1.29094 0
M  V30 32 C 4.5252 -0.227454 -1.93669 0
M  V30 33 O 3.7952 0.750386 -1.80959 0
M  V30 34 H 2.3752 -0.572832 -0.47945 0
M  V30 35 H 5.0372 -1.84579 -0.625818 0
M  V30 36 H 4.1332 -2.33216 -2.07405 0
M  V30 37 N 4.4343 0.785586 -1.36625 0
M  V30 38 C 5.6803 1.54591 -1.31261 0
M  V30 39 C 6.0133 1.93906 0.106823 0
M  V30 40 O 5.2883 1.63007 1.06108 0
M  V30 41 C 5.5713 2.82038 -2.23889 0
M  V30 42 C 5.4243 2.49066 -3.74548 0
M  V30 43 C 6.7433 3.83887 -2.15217 0
M  V30 44 H 3.8623 0.560846 -0.478143 0
M  V30 45 H 6.5043 0.902278 -1.67209 0
M  V30 46 H 4.6543 3.36961 -1.93363 0
M  V30 47 H 6.3263 2.00164 -4.15611 0
M  V30 48 H 4.5693 1.81954 -3.93796 0
M  V30 49 H 5.2403 3.40109 -4.34776 0
M  V30 50 H 7.7163 3.38421 -2.42096 0
M  V30 51 H 6.5923 4.70806 -2.82193 0
M  V30 52 H 6.8533 4.27131 -1.14068 0
M  V30 53 N 5.9124 1.20967 1.01018 0
M  V30 54 C 7.3284 0.965905 1.27053 0
M  V30 55 C 7.5284 -0.350785 1.98423 0
M  V30 56 O 6.5844 -1.07773 2.28344 0
M  V30 57 C 7.8974 2.15294 2.09926 0
M  V30 58 C 9.4454 2.19463 2.23171 0
M  V30 59 C 9.9204 3.3767 3.09424 0
M  V30 60 N 11.4114 3.37724 3.17012 0
M  V30 61 C 12.1464 4.25837 3.83993 0
M  V30 62 N 11.6424 5.24138 4.53047 0
M  V30 63 N 13.4354 4.1366 3.80581 0
M  V30 64 H 5.5864 2.0565 0.531194 0
M  V30 65 H 7.8494 0.90024 0.297106 0
M  V30 66 H 7.5554 3.10684 1.64828 0
M  V30 67 H 7.4294 2.13923 3.10672 0
M  V30 68 H 9.8164 1.24632 2.6749 0
M  V30 69 H 9.8974 2.2488 1.21912 0
M  V30 70 H 9.5414 4.32791 2.65808 0
M  V30 71 H 9.4714 3.29491 4.10784 0
M  V30 72 H 11.9624 2.6658 2.6785 0
M  V30 73 H 12.2754 5.87684 5.01844 0
M  V30 74 H 10.6204 5.28068 4.5185 0
M  V30 75 H 13.8114 3.36127 3.25785 0
M  V30 76 H 13.9844 4.82538 4.32505 0
M  V30 77 N 7.3905 -1.2043 1.01659 0
M  V30 78 C 8.6385 -1.89423 0.704522 0
M  V30 79 C 8.9595 -1.79231 -0.768197 0
M  V30 80 O 8.2295 -1.1947 -1.55254 0
M  V30 81 H 6.8095 -0.701178 0.257602 0
M  V30 82 H 9.4715 -1.4626 1.28818 0
M  V30 83 H 8.5675 -2.96052 0.987916 0
M  V30 84 N 8.8686 -0.792821 -1.36206 0
M  V30 85 C 9.7986 -0.207853 -2.32573 0
M  V30 86 C 10.7796 0.659055 -1.56813 0
M  V30 87 O 11.9646 0.592176 -1.84951 0
M  V30 88 C 9.0946 0.655449 -3.41059 0
M  V30 89 C 8.0486 -0.111842 -4.27854 0
M  V30 90 C 7.3746 0.872274 -5.27537 0
M  V30 91 C 8.6746 -1.30299 -5.05786 0
M  V30 92 H 10.3686 -1.01294 -2.81744 0
M  V30 93 H 7.9146 -0.48854 -1.3546 0
M  V30 94 H 9.8676 1.07464 -4.07467 0
M  V30 95 H 8.5916 1.49328 -2.90463 0
M  V30 96 H 7.2506 -0.512053 -3.63006 0
M  V30 97 H 6.8986 1.70523 -4.73214 0
M  V30 98 H 6.5986 0.363291 -5.86476 0
M  V30 99 H 8.1226 1.28996 -5.96818 0
M  V30 100 H 9.5366 -0.959379 -5.65216 0
M  V30 101 H 7.9336 -1.7455 -5.74154 0
M  V30 102 H 9.0036 -2.09663 -4.37229 0
M  V30 103 N 10.3467 1.47872 -0.545128 0
M  V30 104 C 11.5717 2.07391 -0.0190611 0
M  V30 105 C 11.9967 1.39688 1.25971 0
M  V30 106 O 11.3547 0.467816 1.7516 0
M  V30 107 C 11.4027 3.60188 0.172335 0
M  V30 108 O 10.5067 3.9339 1.23766 0
M  V30 109 H 9.8477 0.662411 -0.0459059 0
M  V30 110 H 12.3777 1.90066 -0.757365 0
M  V30 111 H 12.3877 4.06129 0.390305 0
M  V30 112 H 11.0627 4.08865 -0.761725 0
M  V30 113 H 9.6397 3.5921 1.00114 0
M  V30 114 N 11.8248 0.280983 1.55075 0
M  V30 115 C 13.2408 -0.0729964 1.59433 0
M  V30 116 C 13.4408 -1.5411 1.29817 0
M  V30 117 O 12.4968 -2.29086 1.06187 0
M  V30 118 C 13.8098 0.306921 2.9913 0
M  V30 119 C 15.3578 0.254023 3.11968 0
M  V30 120 C 15.8328 0.608467 4.5394 0
M  V30 121 N 17.3238 0.560241 4.59799 0
M  V30 122 C 18.0588 0.80722 5.6769 0
M  V30 123 N 17.5548 1.11912 6.83701 0
M  V30 124 N 19.3478 0.735623 5.57266 0
M  V30 125 H 11.4988 1.238 1.7259 0
M  V30 126 H 13.7618 0.500547 0.805082 0
M  V30 127 H 13.4678 1.32816 3.25657 0
M  V30 128 H 13.3418 -0.349363 3.75579 0
M  V30 129 H 15.7288 -0.75794 2.852 0
M  V30 130 H 15.8098 0.944649 2.37718 0
M  V30 131 H 15.4538 1.61814 4.81434 0
M  V30 132 H 15.3838 -0.104013 5.26497 0
M  V30 133 H 17.8748 0.329288 3.76463 0
M  V30 134 H 18.1878 1.29409 7.61888 0
M  V30 135 H 16.5328 1.15695 6.85303 0
M  V30 136 H 19.7238 0.491752 4.6551 0
M  V30 137 H 19.8968 0.931482 6.4127 0
M  V30 138 N 13.3029 -1.57598 0.00835791 0
M  V30 139 C 14.2329 -2.1198 -0.979113 0
M  V30 140 C 15.2139 -1.03091 -1.35301 0
M  V30 141 O 16.3989 -1.30818 -1.43528 0
M  V30 142 C 13.5289 -2.62995 -2.26828 0
M  V30 143 C 12.4829 -3.76485 -2.03576 0
M  V30 144 C 11.8089 -4.13846 -3.38579 0
M  V30 145 C 13.1089 -5.0342 -1.39161 0
M  V30 146 H 14.8029 -2.94738 -0.526281 0
M  V30 147 H 12.3489 -1.41783 -0.251704 0
M  V30 148 H 14.3019 -2.99669 -2.96271 0
M  V30 149 H 13.0259 -1.7737 -2.7424 0
M  V30 150 H 11.6849 -3.40217 -1.36557 0
M  V30 151 H 11.3329 -3.25232 -3.83709 0
M  V30 152 H 11.0329 -4.90312 -3.23834 0
M  V30 153 H 12.5569 -4.53086 -4.09323 0
M  V30 154 H 13.9709 -5.37812 -1.98573 0
M  V30 155 H 12.3679 -5.84746 -1.34878 0
M  V30 156 H 13.4379 -4.83548 -0.361868 0
M  V30 157 N 14.781 0.264519 -1.55364 0
M  V30 158 C 15.711 1.33121 -1.91836 0
M  V30 159 C 16.692 1.51101 -0.781192 0
M  V30 160 O 17.877 1.64003 -1.04003 0
M  V30 161 C 15.007 2.68921 -2.19769 0
M  V30 162 C 13.961 2.65661 -3.35571 0
M  V30 163 C 13.287 4.05093 -3.49004 0
M  V30 164 C 14.587 2.24187 -4.71739 0
M  V30 165 H 16.281 1.02844 -2.81182 0
M  V30 166 H 13.827 0.493286 -1.35287 0
M  V30 167 H 15.78 3.43663 -2.43872 0
M  V30 168 H 14.504 3.00799 -1.27231 0
M  V30 169 H 13.163 1.93377 -3.1145 0
M  V30 170 H 12.811 4.34206 -2.53917 0
M  V30 171 H 12.511 4.03804 -4.26868 0
M  V30 172 H 14.035 4.81561 -3.75408 0
M  V30 173 H 15.449 2.88654 -4.9533 0
M  V30 174 H 13.846 2.34044 -5.52579 0
M  V30 175 H 14.916 1.19327 -4.69988 0
M  V30 176 N 16.2591 1.48442 0.529413 0
M  V30 177 C 17.4841 1.60406 1.31471 0
M  V30 178 C 17.9091 0.264738 1.86228 0
M  V30 179 O 17.2671 -0.763668 1.64432 0
M  V30 180 C 17.3151 2.65419 2.44101 0
M  V30 181 O 16.4191 2.22618 3.47153 0
M  V30 182 H 15.7601 0.537863 0.389357 0
M  V30 183 H 18.2901 1.94432 0.636965 0
M  V30 184 H 18.3001 2.86709 2.90279 0
M  V30 185 H 16.9751 3.62652 2.03608 0
M  V30 186 H 15.5521 2.11543 3.0709 0
M  V30 187 N 17.7372 -0.778329 1.37039 0
M  V30 188 C 18.7002 -1.87301 1.32102 0
M  V30 189 C 19.7002 -1.59198 0.226405 0
M  V30 190 O 20.8902 -1.67403 0.481861 0
M  V30 191 C 18.0222 -3.24309 1.05055 0
M  V30 192 H 19.2152 -1.93093 2.29467 0
M  V30 193 H 16.7682 -0.977358 1.21973 0
M  V30 194 H 17.5032 -3.24196 0.0819373 0
M  V30 195 H 17.2882 -3.46098 1.84279 0
M  V30 196 H 18.7782 -4.04382 1.04234 0
M  V30 197 N 19.2153 -1.21501 -1.00376 0
M  V30 198 C 20.6313 -0.972629 -1.26539 0
M  V30 199 C 20.8313 0.340257 -1.98606 0
M  V30 200 O 19.8873 1.06561 -2.28913 0
M  V30 201 C 21.2003 -2.16404 -2.08781 0
M  V30 202 C 22.7483 -2.20643 -2.22004 0
M  V30 203 C 23.2233 -3.39306 -3.07629 0
M  V30 204 N 24.7143 -3.39401 -3.15217 0
M  V30 205 C 25.4493 -4.27867 -3.81729 0
M  V30 206 N 24.9453 -5.26533 -4.5026 0
M  V30 207 N 26.7383 -4.15672 -3.78382 0
M  V30 208 H 18.8893 -2.05929 -0.520281 0
M  V30 209 H 21.1523 -0.901803 -0.292328 0
M  V30 210 H 20.8583 -3.11554 -1.63178 0
M  V30 211 H 20.7323 -2.15567 -3.09533 0
M  V30 212 H 23.1193 -1.26048 -2.66825 0
M  V30 213 H 23.2003 -2.25523 -1.20718 0
M  V30 214 H 22.8443 -4.34195 -2.63509 0
M  V30 215 H 22.7743 -3.31665 -4.09031 0
M  V30 216 H 25.2653 -2.67997 -2.66432 0
M  V30 217 H 25.5783 -5.90337 -4.98721 0
M  V30 218 H 23.9233 -5.30457 -4.49044 0
M  V30 219 H 27.1143 -3.3785 -3.23998 0
M  V30 220 H 27.2873 -4.84825 -4.2994 0
M  V30 221 N 20.6934 1.19889 -1.02296 0
M  V30 222 C 22.1094 1.41462 -0.738954 0
M  V30 223 C 22.3094 1.89721 0.678846 0
M  V30 224 O 21.3654 2.07016 1.4457 0
M  V30 225 C 22.6784 2.43083 -1.77005 0
M  V30 226 C 24.2264 2.5684 -1.78892 0
M  V30 227 C 24.7014 3.61709 -2.80945 0
M  V30 228 N 26.1924 3.69199 -2.79725 0
M  V30 229 C 26.9274 4.50019 -3.55345 0
M  V30 230 N 26.4234 5.34592 -4.40662 0
M  V30 231 N 28.2164 4.44612 -3.43914 0
M  V30 232 H 20.3674 0.868827 -1.93817 0
M  V30 233 H 22.6304 0.44399 -0.837602 0
M  V30 234 H 22.3364 2.14636 -2.78612 0
M  V30 235 H 22.2104 3.4217 -1.58744 0
M  V30 236 H 24.5974 2.84614 -0.779674 0
M  V30 237 H 24.6784 1.57927 -2.01228 0
M  V30 238 H 24.3224 3.34678 -3.82038 0
M  V30 239 H 24.2524 4.60259 -2.5587 0
M  V30 240 H 26.7434 3.08794 -2.17842 0
M  V30 241 H 27.0564 5.93363 -4.95116 0
M  V30 242 H 25.4014 5.34073 -4.44737 0
M  V30 243 H 28.5924 3.7758 -2.76679 0
M  V30 244 H 28.7654 5.0736 -4.031 0
M  V30 245 N 22.1715 0.800033 1.35784 0
M  V30 246 C 23.1015 0.220184 2.3246 0
M  V30 247 C 24.0825 -0.65073 1.57161 0
M  V30 248 O 25.2675 -0.582359 1.85263 0
M  V30 249 C 22.3975 -0.637353 3.41402 0
M  V30 250 C 21.3515 0.134531 4.27789 0
M  V30 251 C 20.6775 -0.844285 5.27992 0
M  V30 252 C 21.9775 1.32979 5.05088 0
M  V30 253 H 23.6715 1.02787 2.81203 0
M  V30 254 H 21.2175 0.495717 1.35199 0
M  V30 255 H 23.1705 -1.05302 4.08031 0
M  V30 256 H 21.8945 -1.47785 2.91251 0
M  V30 257 H 20.5535 0.531296 3.6273 0
M  V30 258 H 20.2015 -1.68011 4.74111 0
M  V30 259 H 19.9015 -0.332184 5.8666 0
M  V30 260 H 21.4255 -1.2583 5.97494 0
M  V30 261 H 22.8395 0.98934 5.64699 0
M  V30 262 H 21.2365 1.77593 5.7322 0
M  V30 263 H 22.3065 2.11978 4.36111 0
M  V30 264 N 23.6496 -1.47581 0.552962 0
M  V30 265 C 24.6126 -2.28439 -0.186605 0
M  V30 266 C 25.6126 -1.36706 -0.84665 0
M  V30 267 O 26.8026 -1.59378 -0.703164 0
M  V30 268 C 23.9346 -3.16264 -1.2724 0
M  V30 269 H 25.1276 -2.95294 0.523609 0
M  V30 270 H 22.6806 -1.532 0.309745 0
M  V30 271 H 23.4156 -2.54091 -2.01514 0
M  V30 272 H 23.2006 -3.83769 -0.803968 0
M  V30 273 H 24.6906 -3.77198 -1.79196 0
M  V30 274 N 25.1277 -0.289203 -1.54924 0
M  V30 275 C 26.0577 0.58549 -2.2604 0
M  V30 276 C 27.0387 1.14753 -1.25562 0
M  V30 277 O 28.2237 1.17906 -1.54311 0
M  V30 278 C 25.3537 1.76305 -2.99222 0
M  V30 279 C 24.3077 1.33191 -4.06748 0
M  V30 280 C 23.6337 2.5937 -4.6758 0
M  V30 281 C 24.9337 0.471775 -5.20165 0
M  V30 282 H 26.6277 -0.00763532 -2.99399 0
M  V30 283 H 24.1737 -0.00511229 -1.43999 0
M  V30 284 H 26.1267 2.38097 -3.47689 0
M  V30 285 H 24.8507 2.38223 -2.23422 0
M  V30 286 H 23.5097 0.737121 -3.59113 0
M  V30 287 H 23.1577 3.19576 -3.88433 0
M  V30 288 H 22.8577 2.31228 -5.40192 0
M  V30 289 H 24.3817 3.21985 -5.18804 0
M  V30 290 H 25.7957 0.995056 -5.64599 0
M  V30 291 H 24.1927 0.284639 -5.99425 0
M  V30 292 H 25.2627 -0.506041 -4.82252 0
M  V30 293 N 26.6058 1.57591 -0.0167156 0
M  V30 294 C 27.5688 2.08393 0.954204 0
M  V30 295 C 28.5688 0.996531 1.26198 0
M  V30 296 O 29.7588 1.25858 1.20438 0
M  V30 297 C 26.8908 2.5394 2.27436 0
M  V30 298 H 28.0838 2.95455 0.514451 0
M  V30 299 H 25.6368 1.54582 0.231089 0
M  V30 300 H 26.3718 1.70171 2.76066 0
M  V30 301 H 26.1568 3.33371 2.06412 0
M  V30 302 H 27.6468 2.93512 2.97053 0
M  V30 303 N 28.0839 -0.256276 1.55502 0
M  V30 304 C 29.0309 -1.31714 1.89526 0
M  V30 305 C 30.0009 -1.4828 0.748479 0
M  V30 306 O 31.1859 -1.62416 1.00128 0
M  V30 307 C 28.3259 -2.66933 2.18725 0
M  V30 308 C 27.4389 -2.58452 3.4616 0
M  V30 309 C 26.5739 -3.85961 3.64976 0
M  V30 310 C 25.6129 -3.72059 4.86044 0
M  V30 311 N 24.7499 -4.9144 5.01429 0
M  V30 312 H 29.5899 -1.01998 2.80001 0
M  V30 313 H 27.1269 -0.492413 1.38613 0
M  V30 314 H 29.0849 -3.4563 2.33657 0
M  V30 315 H 27.7149 -2.94816 1.31466 0
M  V30 316 H 26.7669 -1.71374 3.3961 0
M  V30 317 H 28.0789 -2.44085 4.34999 0
M  V30 318 H 27.2329 -4.73101 3.79816 0
M  V30 319 H 25.9719 -4.03215 2.74353 0
M  V30 320 H 24.9769 -2.83302 4.7119 0
M  V30 321 H 26.2019 -3.56309 5.78118 0
M  V30 322 H 24.1479 -5.09072 4.13741 0
M  V30 323 H 24.0649 -4.79668 5.84341 0
M  V30 324 H 25.3329 -5.80104 5.20672 0
M  V30 325 N 29.562 -1.4872 -0.521534 0
M  V30 326 C 30.525 -1.63379 -1.60748 0
M  V30 327 C 31.525 -0.50661 -1.52611 0
M  V30 328 O 32.715 -0.772601 -1.5613 0
M  V30 329 C 29.847 -1.61192 -3.00383 0
M  V30 330 H 31.04 -2.60217 -1.49087 0
M  V30 331 H 28.593 -1.37444 -0.744235 0
M  V30 332 H 29.328 -0.65863 -3.17541 0
M  V30 333 H 29.113 -2.43032 -3.07698 0
M  V30 334 H 30.603 -1.7466 -3.7932 0
M  V30 335 N 31.0401 0.771051 -1.3745 0
M  V30 336 C 32.2861 1.53109 -1.339 0
M  V30 337 C 32.6411 1.9225 0.0758401 0
M  V30 338 O 31.9341 1.61264 1.03463 0
M  V30 339 C 32.1281 2.80676 -2.2126 0
M  V30 340 C 31.9571 2.54003 -3.71096 0
M  V30 341 C 30.7271 2.48097 -4.402 0
M  V30 342 C 32.9251 2.21953 -4.63941 0
M  V30 343 N 30.9071 2.13515 -5.75573 0
M  V30 344 C 32.2781 1.97516 -5.87697 0
M  V30 345 C 34.3331 2.08114 -4.5232 0
M  V30 346 C 33.0361 1.60638 -7.01133 0
M  V30 347 C 35.0621 1.72636 -5.65642 0
M  V30 348 C 34.4241 1.4906 -6.88448 0
M  V30 349 H 30.5231 0.56055 -0.54526 0
M  V30 350 H 33.1071 0.899472 -1.72678 0
M  V30 351 H 31.2781 3.41674 -1.84698 0
M  V30 352 H 33.0101 3.46578 -2.08963 0
M  V30 353 H 29.7651 2.63974 -3.93211 0
M  V30 354 H 30.1891 1.98919 -6.47117 0
M  V30 355 H 34.8311 2.25024 -3.57944 0
M  V30 356 H 32.5491 1.42467 -7.95443 0
M  V30 357 H 36.1351 1.62586 -5.58621 0
M  V30 358 H 35.0151 1.22014 -7.7465 0
M  V30 359 N 32.5182 1.22032 0.997298 0
M  V30 360 C 33.9292 1.0397 1.55071 0
M  V30 361 C 34.2802 -0.398192 1.92117 0
M  V30 362 O 33.4052 -1.28254 1.74298 0
M  V30 363 C 34.0002 1.88109 2.81781 0
M  V30 364 C 32.5592 1.74357 3.33581 0
M  V30 365 C 31.7062 1.84846 2.06706 0
M  V30 366 H 34.6572 1.35941 0.818883 0
M  V30 367 H 34.6782 1.39589 3.53971 0
M  V30 368 H 34.1902 2.92754 2.54787 0
M  V30 369 H 32.2912 0.72427 3.65493 0
M  V30 370 H 32.4042 2.56772 4.04481 0
M  V30 371 H 30.7682 1.28238 2.20062 0
M  V30 372 H 31.5512 2.91014 1.82114 0
M  V30 373 N 33.9963 -1.19345 1.0293 0
M  V30 374 C 35.2243 -1.92997 0.745644 0
M  V30 375 C 35.6393 -1.75519 -0.695589 0
M  V30 376 O 34.9963 -1.07737 -1.47306 0
M  V30 377 C 35.0473 -3.44741 1.08792 0
M  V30 378 O 34.7683 -3.61658 2.47256 0
M  V30 379 C 36.2693 -4.35515 0.827129 0
M  V30 380 H 33.4893 -0.613042 0.272801 0
M  V30 381 H 36.0333 -1.51473 1.3739 0
M  V30 382 H 34.1883 -3.84097 0.504832 0
M  V30 383 H 34.6023 -4.55514 2.60015 0
M  V30 384 H 36.0763 -5.40589 1.11658 0
M  V30 385 H 36.5533 -4.38552 -0.238436 0
M  V30 386 H 37.1593 -4.01841 1.39297 0
M  V30 387 N 35.4744 -0.807222 -1.35358 0
M  V30 388 C 36.7204 -0.388463 -1.99045 0
M  V30 389 C 37.0534 1.04184 -1.63888 0
M  V30 390 O 36.3284 1.72292 -0.902535 0
M  V30 391 C 36.6114 -0.572783 -3.55515 0
M  V30 392 C 36.4644 -2.04807 -4.00468 0
M  V30 393 C 37.7834 0.00114064 -4.401 0
M  V30 394 H 34.9024 -0.142619 -0.723069 0
M  V30 395 H 37.5444 -1.01687 -1.60498 0
M  V30 396 H 35.6944 -0.0378425 -3.88482 0
M  V30 397 H 37.3664 -2.64544 -3.77908 0
M  V30 398 H 35.6094 -2.54427 -3.51353 0
M  V30 399 H 36.2804 -2.12792 -5.09337 0
M  V30 400 H 38.7564 -0.455716 -4.13597 0
M  V30 401 H 37.6324 -0.157737 -5.48673 0
M  V30 402 H 37.8934 1.09488 -4.28328 0
M  V30 403 N 36.9525 1.47285 -0.560781 0
M  V30 404 C 37.8825 2.32857 0.173105 0
M  V30 405 C 38.8635 1.44009 0.905281 0
M  V30 406 O 40.0485 1.7286 0.885046 0
M  V30 407 C 37.1785 3.25861 1.20133 0
M  V30 408 C 36.1325 4.23978 0.585388 0
M  V30 409 C 35.4585 5.06332 1.7185 0
M  V30 410 C 36.7585 5.20242 -0.463178 0
M  V30 411 H 38.4525 2.94466 -0.541307 0
M  V30 412 H 35.9985 1.41601 -0.261764 0
M  V30 413 H 37.9515 3.84569 1.72293 0
M  V30 414 H 36.6755 2.62315 1.94573 0
M  V30 415 H 35.3345 3.66501 0.085054 0
M  V30 416 H 34.9825 4.39186 2.45203 0
M  V30 417 H 34.6825 5.72762 1.31213 0
M  V30 418 H 36.2065 5.67899 2.24329 0
M  V30 419 H 37.6205 5.73293 -0.027502 0
M  V30 420 H 36.0175 5.94896 -0.788627 0
M  V30 421 H 37.0875 4.65504 -1.35773 0
M  V30 422 N 38.4306 0.297415 1.54768 0
M  V30 423 C 39.3626 -0.613881 2.20826 0
M  V30 424 C 40.3756 -1.10032 1.19987 0
M  V30 425 O 41.5646 -1.01839 1.46598 0
M  V30 426 C 38.6646 -1.852 2.83821 0
M  V30 427 C 37.8376 -1.50865 4.10559 0
M  V30 428 C 36.8966 -2.60154 4.57391 0
M  V30 429 O 35.9226 -2.25398 5.2267 0
M  V30 430 N 37.1246 -3.90629 4.29406 0
M  V30 431 H 39.8896 -0.048389 2.99661 0
M  V30 432 H 37.4506 0.11946 1.61459 0
M  V30 433 H 39.4426 -2.57652 3.12086 0
M  V30 434 H 38.0126 -2.32597 2.08847 0
M  V30 435 H 37.2326 -0.616925 3.89343 0
M  V30 436 H 38.5206 -1.25458 4.9309 0
M  V30 437 H 37.9186 -4.21677 3.77101 0
M  V30 438 H 36.4756 -4.59391 4.62388 0
M  V30 439 N 39.9087 -1.5758 0.0250728 0
M  V30 440 C 41.1367 -1.9593 -0.664747 0
M  V30 441 C 41.5517 -0.901352 -1.65895 0
M  V30 442 O 40.9087 0.117255 -1.82123 0
M  V30 443 C 40.9597 -3.34342 -1.37468 0
M  V30 444 O 40.6807 -4.36079 -0.420324 0
M  V30 445 C 42.1817 -3.873 -2.1567 0
M  V30 446 H 39.4017 -0.645405 -0.183557 0
M  V30 447 H 41.9457 -2.04329 0.0836372 0
M  V30 448 H 40.1007 -3.27175 -2.0745 0
M  V30 449 H 40.5147 -5.16297 -0.923991 0
M  V30 450 H 41.9887 -4.86504 -2.60803 0
M  V30 451 H 42.4657 -3.21331 -2.99405 0
M  V30 452 H 43.0717 -3.97723 -1.50654 0
M  V30 453 N 41.3868 0.248026 -1.55636 0
M  V30 454 C 42.6348 0.974295 -1.77065 0
M  V30 455 C 42.9558 1.85897 -0.588849 0
M  V30 456 O 42.2258 1.91868 0.395407 0
M  V30 457 H 40.8058 0.362733 -0.653019 0
M  V30 458 H 43.4678 0.266244 -1.93073 0
M  V30 459 H 42.5638 1.59667 -2.68166 0
M  V30 460 N 42.8649 1.48995 0.513639 0
M  V30 461 C 44.0929 1.61531 1.29288 0
M  V30 462 C 44.5079 0.281801 1.86685 0
M  V30 463 O 43.8649 -0.731111 1.67215 0
M  V30 464 C 43.9159 2.67449 2.43215 0
M  V30 465 O 43.6369 3.95626 1.88179 0
M  V30 466 C 45.1379 2.90575 3.34785 0
M  V30 467 H 42.3579 0.544165 0.392588 0
M  V30 468 H 44.9019 1.9494 0.617956 0
M  V30 469 H 43.0569 2.36853 3.0656 0
M  V30 470 H 43.4709 4.53868 2.62876 0
M  V30 471 H 44.9449 3.68449 4.11035 0
M  V30 472 H 45.4219 2.00011 3.91015 0
M  V30 473 H 46.0279 3.22538 2.77218 0
M  V30 474 N 44.343 -0.763751 1.37857 0
M  V30 475 C 45.759 -1.06542 1.18832 0
M  V30 476 C 45.959 -2.01478 0.0299722 0
M  V30 477 O 45.015 -2.4458 -0.627447 0
M  V30 478 C 46.328 -1.65525 2.51042 0
M  V30 479 C 47.876 -1.77745 2.57635 0
M  V30 480 C 48.351 -2.4014 3.89996 0
M  V30 481 N 49.842 -2.47582 3.91481 0
M  V30 482 C 50.577 -2.96732 4.9065 0
M  V30 483 N 50.073 -3.45993 6.00217 0
M  V30 484 N 51.866 -2.95679 4.78048 0
M  V30 485 H 44.017 -0.133556 2.1198 0
M  V30 486 H 46.28 -0.121879 0.940133 0
M  V30 487 H 45.986 -1.03236 3.36207 0
M  V30 488 H 45.86 -2.64719 2.68707 0
M  V30 489 H 48.247 -2.39164 1.72872 0
M  V30 490 H 48.328 -0.772836 2.43846 0
M  V30 491 H 47.972 -1.79358 4.75177 0
M  V30 492 H 47.902 -3.41223 4.01092 0
M  V30 493 H 50.393 -2.1273 3.12337 0
M  V30 494 H 50.706 -3.81922 6.7183 0
M  V30 495 H 49.051 -3.44077 6.03851 0
M  V30 496 H 52.242 -2.56499 3.91568 0
M  V30 497 H 52.415 -3.33672 5.55488 0
M  V30 498 N 45.8211 -1.22559 -0.990812 0
M  V30 499 C 47.0691 -1.04933 -1.72724 0
M  V30 500 C 47.3901 0.416158 -1.90508 0
M  V30 501 O 46.6601 1.29918 -1.46622 0
M  V30 502 H 45.2401 -0.385296 -0.639965 0
M  V30 503 H 47.9021 -1.54105 -1.19322 0
M  V30 504 H 46.9981 -1.52886 -2.72089 0
M  V30 505 N 47.2992 1.18797 -1.03562 0
M  V30 506 C 48.5462 1.8865 -0.736023 0
M  V30 507 C 48.8742 1.80041 0.735889 0
M  V30 508 O 48.1292 1.19179 1.55225 0
M  V30 509 C 48.4282 3.38692 -1.14117 0
M  V30 510 C 48.0942 3.67504 -2.6125 0
M  V30 511 C 46.7562 3.75078 -3.01447 0
M  V30 512 C 49.1082 3.80293 -3.56408 0
M  V30 513 C 46.4362 3.92915 -4.35701 0
M  V30 514 C 48.7882 3.99645 -4.90374 0
M  V30 515 C 47.4522 4.05453 -5.30249 0
M  V30 516 H 46.7222 0.690321 -0.26933 0
M  V30 517 H 49.3692 1.40641 -1.29971 0
M  V30 518 H 47.6742 3.88645 -0.496202 0
M  V30 519 H 49.3712 3.91072 -0.886789 0
M  V30 520 H 45.9612 3.62223 -2.29113 0
M  V30 521 H 50.1452 3.73779 -3.26501 0
M  V30 522 H 45.4012 3.95653 -4.66121 0
M  V30 523 H 49.5752 4.08482 -5.64017 0
M  V30 524 H 47.2022 4.19027 -6.34288 0
M  V30 525 N 48.7773 0.814389 1.34928 0
M  V30 526 C 49.7273 0.202752 2.27097 0
M  V30 527 C 50.7113 -0.62799 1.48139 0
M  V30 528 O 51.9033 -0.483969 1.70255 0
M  V30 529 C 49.0323 -0.64146 3.37254 0
M  V30 530 C 48.1183 0.19944 4.23631 0
M  V30 531 N 48.5093 1.26628 4.89693 0
M  V30 532 C 46.8073 -0.0176433 4.45997 0
M  V30 533 C 47.5083 1.78031 5.53787 0
M  V30 534 N 46.4843 1.08553 5.32651 0
M  V30 535 H 50.2863 1.01893 2.75672 0
M  V30 536 H 47.8003 0.656332 1.48546 0
M  V30 537 H 49.7973 -1.09575 4.02243 0
M  V30 538 H 48.4573 -1.4559 2.9023 0
M  V30 539 H 49.4683 1.64901 4.90946 0
M  V30 540 H 46.1453 -0.800601 4.09752 0
M  V30 541 H 47.5353 2.67236 6.16469 0
M  V30 542 N 50.2554 -1.46986 0.568584 0
M  V30 543 C 51.5024 -2.02441 0.0487986 0
M  V30 544 C 51.8304 -1.44169 -1.30559 0
M  V30 545 O 51.0854 -0.591213 -1.86556 0
M  V30 546 C 51.3844 -3.57306 -0.081836 0
M  V30 547 C 51.0504 -4.34552 1.20313 0
M  V30 548 C 49.7124 -4.55376 1.5552 0
M  V30 549 C 52.0644 -4.79016 2.05411 0
M  V30 550 C 49.3924 -5.17913 2.7565 0
M  V30 551 C 51.7444 -5.42879 3.24754 0
M  V30 552 C 50.4084 -5.61933 3.60261 0
M  V30 553 H 49.6784 -0.740785 0.0178567 0
M  V30 554 H 52.3254 -1.76525 0.742384 0
M  V30 555 H 50.6304 -3.8228 -0.858463 0
M  V30 556 H 52.3274 -3.97876 -0.499546 0
M  V30 557 H 48.9174 -4.18631 0.919014 0
M  V30 558 H 53.1014 -4.62696 1.79516 0
M  V30 559 H 48.3574 -5.30858 3.03315 0
M  V30 560 H 52.5314 -5.76293 3.90973 0
M  V30 561 H 50.1584 -6.10161 4.53439 0
M  V30 562 N 51.7335 -0.305618 -1.54608 0
M  V30 563 C 52.9615 0.304775 -2.04643 0
M  V30 564 C 53.3765 1.47167 -1.18268 0
M  V30 565 O 52.7335 1.81296 -0.209328 0
M  V30 566 C 52.7845 0.756564 -3.53495 0
M  V30 567 O 52.5055 -0.36389 -4.36586 0
M  V30 568 C 54.0065 1.43163 -4.19546 0
M  V30 569 H 51.2265 0.0655481 -0.667791 0
M  V30 570 H 53.7705 -0.446592 -1.99564 0
M  V30 571 H 51.9255 1.45794 -3.58919 0
M  V30 572 H 52.3395 -0.0113121 -5.24499 0
M  V30 573 H 53.8135 1.69886 -5.25207 0
M  V30 574 H 54.2905 2.37318 -3.69563 0
M  V30 575 H 54.8965 0.773307 -4.18211 0
M  V30 576 N 53.2116 1.57565 -0.0334293 0
M  V30 577 C 54.4576 1.92262 0.645226 0
M  V30 578 C 54.7906 0.910543 1.71531 0
M  V30 579 O 54.0656 -0.066099 1.94388 0
M  V30 580 C 54.3486 3.37422 1.2577 0
M  V30 581 C 54.2016 4.49369 0.196891 0
M  V30 582 C 55.5206 3.82628 2.17449 0
M  V30 583 H 52.6396 0.699171 0.233085 0
M  V30 584 H 55.2816 1.89779 -0.0915694 0
M  V30 585 H 53.4316 3.39669 1.88566 0
M  V30 586 H 55.1036 4.59254 -0.433962 0
M  V30 587 H 53.3466 4.31168 -0.477137 0
M  V30 588 H 54.0176 5.47978 0.665124 0
M  V30 589 H 56.4936 3.82145 1.64634 0
M  V30 590 H 55.3696 4.84883 2.57254 0
M  V30 591 H 55.6306 3.18376 3.0674 0
M  V30 592 N 54.6897 -0.239769 1.55765 0
M  V30 593 C 55.9667 -0.990056 1.68693 0
M  V30 594 C 56.3467 -2.03107 0.5754 0
M  V30 595 O 55.6947 -2.24604 -0.42017 0
M  V30 596 C 55.9047 -1.61696 3.09282 0
M  V30 597 C 57.2527 -2.11613 3.6811 0
M  V30 598 O 58.2767 -1.71624 3.12127 0
M  V30 599 O 57.1357 -2.85057 4.66267 0
M  V30 600 H 54.2297 -0.461299 0.686391 0
M  V30 601 H 56.7757 -0.232991 1.68093 0
M  V30 602 H 55.5477 -0.864357 3.81634 0
M  V30 603 H 55.1707 -2.44005 3.13923 0
M  V30 604 N 56.1678 -1.49265 -0.50573 0
M  V30 605 C 57.4158 -1.582 -1.25766 0
M  V30 606 C 57.7368 -0.268482 -1.93143 0
M  V30 607 O 57.0068 0.711833 -1.8251 0
M  V30 608 H 55.5868 -0.582873 -0.467191 0
M  V30 609 H 58.2488 -1.85865 -0.586525 0
M  V30 610 H 57.3448 -2.37563 -2.02412 0
M  V30 611 N 57.6459 0.756429 -1.3826 0
M  V30 612 C 58.5939 1.89149 -1.35372 0
M  V30 613 C 59.5879 1.67691 -0.24004 0
M  V30 614 O 60.7939 1.75294 -0.408919 0
M  V30 615 H 57.1689 0.622271 -0.422236 0
M  V30 616 H 59.1399 1.88701 -2.31159 0
M  V30 617 C 57.8889 3.26599 -1.19284 0
M  V30 618 H 57.2119 3.43695 -2.0424 0
M  V30 619 H 58.6519 4.06274 -1.21316 0
M  V30 620 C 57.1109 3.3675 0.100454 0
M  V30 621 O 57.6409 3.86951 1.07851 0
M  V30 622 N 55.8469 2.90179 0.15633 0
M  V30 623 H 55.3939 2.49517 -0.640253 0
M  V30 624 H 55.3519 2.97352 1.02123 0
M  V30 625 N 59.124 1.23083 0.984299 0
M  V30 626 C 60.071 1.00854 2.07598 0
M  V30 627 C 61.041 -0.0726709 1.65941 0
M  V30 628 O 62.226 0.0786535 1.90638 0
M  V30 629 C 59.366 0.601645 3.39815 0
M  V30 630 C 58.479 1.75456 3.94765 0
M  V30 631 C 57.614 1.29482 5.15177 0
M  V30 632 C 56.653 2.41873 5.62284 0
M  V30 633 N 55.79 1.96885 6.73929 0
M  V30 634 H 60.63 1.943 2.25946 0
M  V30 635 H 58.167 0.968001 1.10762 0
M  V30 636 H 60.125 0.346854 4.15756 0
M  V30 637 H 58.755 -0.295803 3.21442 0
M  V30 638 H 57.807 2.12346 3.15616 0
M  V30 639 H 59.119 2.59965 4.25699 0
M  V30 640 H 58.273 0.997923 5.98437 0
M  V30 641 H 57.012 0.420046 4.85888 0
M  V30 642 H 56.017 2.72342 4.77608 0
M  V30 643 H 57.242 3.29881 5.93595 0
M  V30 644 H 55.188 1.11782 6.46406 0
M  V30 645 H 55.105 2.74956 7.04227 0
M  V30 646 H 56.373 1.70289 7.60672 0
M  V30 647 N 60.6021 -1.18246 1.0419 0
M  V30 648 C 62.0181 -1.40269 0.761366 0
M  V30 649 C 62.2181 -1.90777 -0.648578 0
M  V30 650 O 61.2741 -2.0929 -1.41258 0
M  V30 651 C 62.5871 -2.40237 1.8085 0
M  V30 652 C 64.1351 -2.53961 1.82955 0
M  V30 653 C 64.6101 -3.57194 2.86664 0
M  V30 654 N 66.1011 -3.64702 2.85563 0
M  V30 655 C 66.8361 -4.44309 3.6246 0
M  V30 656 N 66.3321 -5.27514 4.49111 0
M  V30 657 N 68.1251 -4.39084 3.50944 0
M  V30 658 H 60.2761 -0.837882 1.95175 0
M  V30 659 H 62.5391 -0.430608 0.84456 0
M  V30 660 H 62.2451 -2.10176 2.81991 0
M  V30 661 H 62.1191 -3.39601 1.64168 0
M  V30 662 H 64.5061 -2.83338 0.824855 0
M  V30 663 H 64.5871 -1.54706 2.03715 0
M  V30 664 H 64.2311 -3.28558 3.87314 0
M  V30 665 H 64.1611 -4.5613 2.6316 0
M  V30 666 H 66.6521 -3.05289 2.22727 0
M  V30 667 H 66.9651 -5.85411 5.04493 0
M  V30 668 H 65.3101 -5.2693 4.53178 0
M  V30 669 H 68.5011 -3.7313 2.82651 0
M  V30 670 H 68.6741 -5.00883 4.11121 0
M  V30 671 N 62.0802 -0.821533 -1.34494 0
M  V30 672 C 63.0432 -0.247847 -2.27856 0
M  V30 673 C 64.0432 0.573453 -1.50227 0
M  V30 674 O 65.2332 0.389759 -1.69784 0
M  V30 675 C 62.3652 0.652698 -3.34593 0
M  V30 676 H 63.5582 -1.07146 -2.80107 0
M  V30 677 H 61.1112 -0.593291 -1.44602 0
M  V30 678 H 61.8462 1.49943 -2.87555 0
M  V30 679 H 61.6312 0.065292 -3.92046 0
M  V30 680 H 63.1212 1.04793 -4.04238 0
M  V30 681 N 63.5583 1.46682 -0.576371 0
M  V30 682 C 64.7833 2.07304 -0.0630475 0
M  V30 683 C 65.2083 1.42329 1.2298 0
M  V30 684 O 64.5663 0.504865 1.74129 0
M  V30 685 C 64.6143 3.60472 0.095895 0
M  V30 686 O 63.7183 3.95927 1.15394 0
M  V30 687 H 63.0593 0.661288 -0.0599463 0
M  V30 688 H 65.5893 1.88417 -0.797511 0
M  V30 689 H 65.5993 4.06865 0.304071 0
M  V30 690 H 64.2743 4.07157 -0.84828 0
M  V30 691 H 62.8513 3.61252 0.924724 0
M  V30 692 N 65.0364 0.313813 1.54444 0
M  V30 693 C 65.9994 -0.54379 2.22656 0
M  V30 694 C 66.9994 -1.05124 1.21678 0
M  V30 695 O 68.1894 -0.945225 1.46325 0
M  V30 696 C 65.3214 -1.75427 2.92298 0
M  V30 697 H 66.5144 0.0523599 2.99854 0
M  V30 698 H 64.0674 0.0647834 1.56166 0
M  V30 699 H 64.8024 -2.38991 2.19211 0
M  V30 700 H 64.5874 -1.39791 3.66334 0
M  V30 701 H 66.0774 -2.36325 3.44297 0
M  V30 702 N 66.5145 -1.57545 0.0417849 0
M  V30 703 C 67.4615 -2.10977 -0.935805 0
M  V30 704 C 68.4315 -1.01486 -1.31491 0
M  V30 705 O 69.6165 -1.2898 -1.40602 0
M  V30 706 C 66.7565 -2.65169 -2.2086 0
M  V30 707 C 65.8695 -3.88714 -1.88482 0
M  V30 708 C 65.0045 -4.31254 -3.1015 0
M  V30 709 C 64.0435 -5.47524 -2.7365 0
M  V30 710 N 63.1805 -5.85162 -3.87982 0
M  V30 711 H 68.0205 -2.94218 -0.473249 0
M  V30 712 H 65.5575 -1.45415 -0.221981 0
M  V30 713 H 67.5155 -2.94685 -2.95325 0
M  V30 714 H 66.1455 -1.8474 -2.64709 0
M  V30 715 H 65.1975 -3.65849 -1.04205 0
M  V30 716 H 66.5095 -4.73245 -1.57608 0
M  V30 717 H 65.6635 -4.62273 -3.92923 0
M  V30 718 H 64.4025 -3.45516 -3.44195 0
M  V30 719 H 63.4075 -5.16187 -1.89291 0
M  V30 720 H 64.6325 -6.34971 -2.40807 0
M  V30 721 H 62.5785 -5.02377 -4.21846 0
M  V30 722 H 62.4955 -6.64362 -3.60775 0
M  V30 723 H 63.7635 -6.20791 -4.71422 0
M  V30 724 N 67.9926 0.231505 -1.5589 0
M  V30 725 C 69.2386 0.95877 -1.78705 0
M  V30 726 C 69.5716 1.8438 -0.609725 0
M  V30 727 O 68.8466 1.90521 0.391426 0
M  V30 728 C 69.1296 1.8062 -3.11526 0
M  V30 729 C 68.9826 0.948328 -4.39689 0
M  V30 730 C 70.3016 2.78585 -3.40703 0
M  V30 731 H 67.4206 0.347129 -0.650131 0
M  V30 732 H 70.0626 0.228259 -1.88624 0
M  V30 733 H 68.2126 2.42902 -3.03201 0
M  V30 734 H 69.8846 0.343016 -4.60023 0
M  V30 735 H 68.1276 0.253314 -4.3306 0
M  V30 736 H 68.7986 1.57543 -5.29041 0
M  V30 737 H 71.2746 2.26439 -3.49091 0
M  V30 738 H 70.1506 3.34988 -4.34826 0
M  V30 739 H 70.4116 3.55825 -2.62375 0
M  V30 740 N 69.4707 1.49531 0.497807 0
M  V30 741 C 70.6957 1.63159 1.28039 0
M  V30 742 C 71.1207 0.30418 1.85624 0
M  V30 743 O 70.4787 -0.728618 1.66015 0
M  V30 744 C 70.5267 2.70537 2.38416 0
M  V30 745 O 69.6307 2.29931 3.42353 0
M  V30 746 H 68.9717 0.546001 0.377861 0
M  V30 747 H 71.5017 1.9574 0.59558 0
M  V30 748 H 71.5117 2.92802 2.84132 0
M  V30 749 H 70.1867 3.6689 1.95869 0
M  V30 750 H 68.7637 2.18009 3.02533 0
M  V30 751 N 70.9488 -0.749086 1.3866 0
M  V30 752 C 72.2258 -1.4992 1.25632 0
M  V30 753 C 72.6058 -2.10633 -0.140317 0
M  V30 754 O 71.9538 -1.97437 -1.15025 0
M  V30 755 C 72.1638 -2.56195 2.36992 0
M  V30 756 C 73.5118 -3.22972 2.75634 0
M  V30 757 O 74.5358 -2.66502 2.36337 0
M  V30 758 O 73.3948 -4.25122 3.43415 0
M  V30 759 H 70.4888 -0.665067 0.491544 0
M  V30 760 H 73.0348 -0.784113 1.50498 0
M  V30 761 H 71.8068 -2.09612 3.30422 0
M  V30 762 H 71.4298 -3.35279 2.13714 0
M  V30 763 N 72.4269 -1.23603 -0.977757 0
M  V30 764 C 73.6519 -1.09735 -1.75991 0
M  V30 765 C 74.0769 0.346858 -1.84874 0
M  V30 766 O 73.4349 1.25093 -1.3123 0
M  V30 767 C 73.4829 -1.73051 -3.16363 0
M  V30 768 O 72.5869 -0.994452 -4.0023 0
M  V30 769 H 71.9279 -0.384476 -0.541364 0
M  V30 770 H 74.4579 -1.6371 -1.2272 0
M  V30 771 H 74.4679 -1.78398 -3.66931 0
M  V30 772 H 73.1429 -2.78137 -3.09213 0
M  V30 773 H 71.7199 -1.01812 -3.58732 0
M  V30 774 N 73.905 1.17692 -1.04816 0
M  V30 775 C 75.154 1.87192 -0.751132 0
M  V30 776 C 75.467 1.8169 0.724441 0
M  V30 777 O 76.673 2.46625 1.13527 0
M  V30 778 C 75.129 3.35857 -1.29338 0
M  V30 779 C 74.737 3.4987 -2.79812 0
M  V30 780 C 76.481 4.10709 -1.07322 0
M  V30 781 C 74.388 4.92536 -3.27356 0
M  V30 782 H 73.318 0.701162 -0.277288 0
M  V30 783 H 75.969 1.32932 -1.26496 0
M  V30 784 H 74.351 3.89631 -0.707376 0
M  V30 785 H 75.525 3.06332 -3.44235 0
M  V30 786 H 73.84 2.88433 -3.00325 0
M  V30 787 H 76.437 5.15952 -1.4035 0
M  V30 788 H 76.78 4.16299 -0.0108001 0
M  V30 789 H 77.313 3.6313 -1.62423 0
M  V30 790 H 74.052 4.92119 -4.33012 0
M  V30 791 H 73.572 5.3676 -2.67673 0
M  V30 792 H 75.251 5.61288 -3.21815 0
M  V30 793 N 75.3831 0.828654 1.34056 0
M  V30 794 C 76.6081 0.431637 2.02859 0
M  V30 795 C 77.0331 -0.956339 1.61975 0
M  V30 796 O 76.3911 -1.62338 0.807228 0
M  V30 797 C 76.4391 0.548323 3.56407 0
M  V30 798 O 75.5431 -0.429556 4.10157 0
M  V30 799 H 74.8841 0.176886 0.640006 0
M  V30 800 H 77.4141 1.12066 1.71179 0
M  V30 801 H 77.4241 0.426196 4.05768 0
M  V30 802 H 76.0991 1.5606 3.8551 0
M  V30 803 H 74.6761 -0.265836 3.71951 0
M  V30 804 N 76.8612 -1.46375 0.584142 0
M  V30 805 C 77.8242 -2.28784 -0.138108 0
M  V30 806 C 78.8242 -1.38471 -0.817462 0
M  V30 807 O 80.0142 -1.60833 -0.669199 0
M  V30 808 C 77.1462 -3.18892 -1.20503 0
M  V30 809 H 78.3392 -2.94117 0.586127 0
M  V30 810 H 75.8922 -1.52509 0.342171 0
M  V30 811 H 76.6272 -2.58309 -1.96079 0
M  V30 812 H 76.4122 -3.85388 -0.722384 0
M  V30 813 H 77.9022 -3.80914 -1.71155 0
M  V30 814 N 78.3393 -0.321999 -1.54275 0
M  V30 815 C 79.2713 0.578671 -2.21775 0
M  V30 816 C 80.2843 1.08109 -1.21722 0
M  V30 817 O 81.4733 0.994938 -1.482 0
M  V30 818 C 78.5733 1.80661 -2.86731 0
M  V30 819 C 77.7463 1.44314 -4.12907 0
M  V30 820 C 76.8053 2.52845 -4.61472 0
M  V30 821 O 75.8313 2.17054 -5.2619 0
M  V30 822 N 77.0333 3.83748 -4.35566 0
M  V30 823 H 79.7983 0.000709447 -2.997 0
M  V30 824 H 77.3593 -0.145132 -1.61248 0
M  V30 825 H 79.3513 2.52655 -3.16145 0
M  V30 826 H 77.9213 2.29245 -2.12521 0
M  V30 827 H 77.1413 0.554906 -3.90275 0
M  V30 828 H 78.4293 1.17598 -4.95023 0
M  V30 829 H 77.8273 4.15625 -3.83761 0
M  V30 830 H 76.3843 4.51977 -4.69638 0
M  V30 831 N 79.8174 1.5752 -0.0501392 0
M  V30 832 C 81.0474 1.96678 0.632573 0
M  V30 833 C 81.4554 0.926298 1.64974 0
M  V30 834 O 80.7984 -0.09802 1.83438 0
M  V30 835 C 80.8604 3.32068 1.37735 0
M  V30 836 C 80.5244 4.54076 0.516131 0
M  V30 837 C 81.5214 5.19445 -0.217357 0
M  V30 838 C 79.2064 5.00304 0.44736 0
M  V30 839 C 81.2004 6.29378 -1.00807 0
M  V30 840 C 78.8874 6.10114 -0.347038 0
M  V30 841 C 79.8854 6.74512 -1.07344 0
M  V30 842 O 79.5734 7.82211 -1.85477 0
M  V30 843 H 79.3054 0.652193 0.177821 0
M  V30 844 H 81.8594 2.05091 -0.112543 0
M  V30 845 H 80.0894 3.20206 2.16807 0
M  V30 846 H 81.7784 3.55981 1.95019 0
M  V30 847 H 82.5444 4.84689 -0.173688 0
M  V30 848 H 78.4234 4.49971 1.00235 0
M  V30 849 H 81.9674 6.79575 -1.57556 0
M  V30 850 H 77.8644 6.44307 -0.392349 0
M  V30 851 H 78.6324 7.98982 -1.77678 0
M  V30 852 N 81.2955 -0.223234 1.56011 0
M  V30 853 C 82.7065 -0.790368 1.69145 0
M  V30 854 C 83.0575 -1.85055 0.651845 0
M  V30 855 O 82.1825 -2.15498 -0.197359 0
M  V30 856 C 82.7775 -1.4404 3.06656 0
M  V30 857 C 81.3365 -1.95494 3.2165 0
M  V30 858 C 80.4835 -0.814506 2.65068 0
M  V30 859 H 83.4345 0.00139011 1.587 0
M  V30 860 H 83.4555 -2.30916 3.0242 0
M  V30 861 H 82.9675 -0.668543 3.82298 0
M  V30 862 H 81.0685 -2.75487 2.50874 0
M  V30 863 H 81.1815 -2.13607 4.28846 0
M  V30 864 H 79.5455 -1.22137 2.23505 0
M  V30 865 H 80.3285 -0.0553515 3.43255 0
M  V30 866 N 82.7736 -1.49793 -0.48987 0
M  V30 867 C 84.0196 -1.60078 -1.24511 0
M  V30 868 C 84.3526 -0.291608 -1.91998 0
M  V30 869 O 83.6276 0.705647 -1.81248 0
M  V30 870 C 83.9106 -2.76791 -2.30345 0
M  V30 871 C 83.7636 -4.17535 -1.67286 0
M  V30 872 C 85.0826 -2.89111 -3.31817 0
M  V30 873 H 82.2016 -0.582645 -0.451324 0
M  V30 874 H 84.8436 -1.82117 -0.541612 0
M  V30 875 H 82.9936 -2.5813 -2.90346 0
M  V30 876 H 84.6656 -4.4774 -1.11026 0
M  V30 877 H 82.9086 -4.22665 -0.976577 0
M  V30 878 H 83.5796 -4.95094 -2.44103 0
M  V30 879 H 86.0556 -3.06133 -2.81819 0
M  V30 880 H 84.9316 -3.72433 -4.03219 0
M  V30 881 H 85.1926 -1.9893 -3.94815 0
M  V30 882 N 84.2517 0.741722 -1.39055 0
M  V30 883 C 85.4977 1.50336 -1.36113 0
M  V30 884 C 85.8307 1.94148 0.0450796 0
M  V30 885 O 85.1057 1.66301 1.00868 0
M  V30 886 C 85.3887 2.74773 -2.32749 0
M  V30 887 C 85.2417 2.37023 -3.82283 0
M  V30 888 C 86.5607 3.76846 -2.27322 0
M  V30 889 H 83.6797 0.545351 -0.495743 0
M  V30 890 H 86.3217 0.848624 -1.69995 0
M  V30 891 H 84.4717 3.30639 -2.03986 0
M  V30 892 H 86.1437 1.8684 -4.21768 0
M  V30 893 H 84.3867 1.69334 -3.99385 0
M  V30 894 H 85.0577 3.26104 -4.45376 0
M  V30 895 H 87.5337 3.30548 -2.5274 0
M  V30 896 H 86.4097 4.6159 -2.97028 0
M  V30 897 H 86.6707 4.23286 -1.27599 0
M  V30 898 N 85.7298 1.2412 0.971189 0
M  V30 899 C 87.0068 0.986867 1.6888 0
M  V30 900 C 87.3868 -0.491857 2.0529 0
M  V30 901 O 86.7348 -1.46531 1.75331 0
M  V30 902 C 86.9448 1.9063 2.92338 0
M  V30 903 C 88.2928 2.17515 3.64654 0
M  V30 904 O 89.3168 1.88254 3.02388 0
M  V30 905 O 88.1758 2.6719 4.7673 0
M  V30 906 H 85.2698 0.372944 0.738134 0
M  V30 907 H 87.8158 1.35203 1.02559 0
M  V30 908 H 86.5878 2.90552 2.62097 0
M  V30 909 H 86.2108 1.54408 3.66393 0
M  V30 910 N 87.2079 -1.17134 1.05439 0
M  V30 911 C 88.1579 -2.1919 0.627675 0
M  V30 912 C 89.1419 -1.57328 -0.337147 0
M  V30 913 O 90.3339 -1.76329 -0.153976 0
M  V30 914 C 87.4629 -3.43299 0.00651435 0
M  V30 915 C 86.5489 -4.12255 0.995312 0
M  V30 916 N 86.9399 -4.56997 2.16765 0
M  V30 917 C 85.2379 -4.38316 0.824336 0
M  V30 918 C 85.9389 -5.10239 2.7934 0
M  V30 919 N 84.9149 -5.02595 2.07122 0
M  V30 920 H 88.7169 -2.5149 1.52086 0
M  V30 921 H 86.2309 -1.33491 0.924868 0
M  V30 922 H 88.2279 -4.15693 -0.316965 0
M  V30 923 H 86.8879 -3.1249 -0.882033 0
M  V30 924 H 87.8989 -4.51006 2.54587 0
M  V30 925 H 84.5759 -4.17498 -0.0129526 0
M  V30 926 H 85.9659 -5.54961 3.78772 0
M  V30 927 N 88.686 -0.835752 -1.33615 0
M  V30 928 C 89.596 -0.269088 -2.33052 0
M  V30 929 C 90.612 0.603251 -1.63208 0
M  V30 930 O 91.788 0.508112 -1.94885 0
M  V30 931 C 88.853 0.549091 -3.42324 0
M  V30 932 C 87.914 -0.347156 -4.27894 0
M  V30 933 C 87.147 0.43207 -5.31948 0
M  V30 934 O 87.37 1.66409 -5.45586 0
M  V30 935 O 86.304 -0.192298 -6.01593 0
M  V30 936 H 90.13 -1.09243 -2.83372 0
M  V30 937 H 87.715 -0.598198 -1.36901 0
M  V30 938 H 89.597 1.01414 -4.09015 0
M  V30 939 H 88.272 1.34955 -2.94226 0
M  V30 940 H 87.179 -0.859979 -3.64081 0
M  V30 941 H 88.512 -1.1123 -4.79467 0
M  V30 942 N 90.1641 1.46063 -0.591896 0
M  V30 943 C 91.4111 2.02338 -0.0809991 0
M  V30 944 C 91.7391 1.46228 1.28249 0
M  V30 945 O 90.9941 0.620818 1.85592 0
M  V30 946 C 91.2931 3.57391 0.0249813 0
M  V30 947 C 90.9591 4.32583 -1.27211 0
M  V30 948 C 89.6211 4.52844 -1.62745 0
M  V30 949 C 91.9731 4.75687 -2.13005 0
M  V30 950 C 89.3011 5.13462 -2.83855 0
M  V30 951 C 91.6531 5.37644 -3.3335 0
M  V30 952 C 90.3171 5.5613 -3.69155 0
M  V30 953 H 89.5871 0.740407 -0.0296397 0
M  V30 954 H 92.2341 1.75321 -0.770374 0
M  V30 955 H 90.5391 3.83597 0.797537 0
M  V30 956 H 92.2361 3.98621 0.436184 0
M  V30 957 H 88.8261 4.17116 -0.985499 0
M  V30 958 H 93.0101 4.59782 -1.86855 0
M  V30 959 H 88.2661 5.25965 -3.11722 0
M  V30 960 H 92.4401 5.7 -4.00092 0
M  V30 961 H 90.0671 6.0287 -4.63089 0
M  V30 962 N 91.6422 0.330177 1.54103 0
M  V30 963 C 92.9192 -0.325007 1.92881 0
M  V30 964 C 93.2992 -1.6934 1.26045 0
M  V30 965 O 92.6472 -2.24855 0.406526 0
M  V30 966 C 92.8572 -0.410634 3.46576 0
M  V30 967 C 94.2052 -0.667801 4.19316 0
M  V30 968 O 95.2292 -0.49329 3.52768 0
M  V30 969 O 94.0882 -1.00491 5.37181 0
M  V30 970 H 91.1822 -0.186873 0.80561 0
M  V30 971 H 93.7282 0.380376 1.65382 0
M  V30 972 H 92.5002 0.550164 3.87413 0
M  V30 973 H 92.1232 -1.16333 3.802 0
M  V30 974 N 93.1203 -1.57491 0.0584922 0
M  V30 975 C 94.0833 -2.1085 -0.898617 0
M  V30 976 C 95.0833 -1.02964 -1.23511 0
M  V30 977 O 96.2733 -1.29007 -1.17059 0
M  V30 978 C 93.4053 -2.59881 -2.20623 0
M  V30 979 H 94.5983 -2.96715 -0.435936 0
M  V30 980 H 92.1513 -1.55141 -0.190023 0
M  V30 981 H 92.8863 -1.77431 -2.71457 0
M  V30 982 H 92.6713 -3.38727 -1.97501 0
M  V30 983 H 94.1613 -3.01285 -2.89166 0
M  V30 984 N 94.5984 0.214957 -1.56127 0
M  V30 985 C 95.8444 0.939762 -1.79712 0
M  V30 986 C 96.1774 1.83723 -0.629247 0
M  V30 987 O 95.4524 1.90925 0.371197 0
M  V30 988 C 95.7354 1.77306 -3.13424 0
M  V30 989 C 95.5884 0.90164 -4.40671 0
M  V30 990 C 96.9074 2.74956 -3.43638 0
M  V30 991 H 94.0264 0.340214 -0.653776 0
M  V30 992 H 96.6684 0.20824 -1.88855 0
M  V30 993 H 94.8184 2.39673 -3.0576 0
M  V30 994 H 96.4904 0.294206 -4.60361 0
M  V30 995 H 94.7334 0.207368 -4.33304 0
M  V30 996 H 95.4044 1.51923 -5.30682 0
M  V30 997 H 97.8804 2.22724 -3.51473 0
M  V30 998 H 96.7564 3.30358 -4.38355 0
M  V30 999 H 97.0174 3.53023 -2.66134 0
M  V30 1000 N 96.0765 1.50051 0.48192 0
M  V30 1001 C 97.3225 1.60736 1.2366 0
M  V30 1002 C 97.6555 0.301786 1.91841 0
M  V30 1003 O 96.9305 -0.696025 1.8162 0
M  V30 1004 C 97.2135 2.78009 2.28874 0
M  V30 1005 C 97.0665 4.18416 1.65069 0
M  V30 1006 C 98.3855 2.90867 3.30279 0
M  V30 1007 H 95.5045 0.585031 0.448228 0
M  V30 1008 H 98.1465 1.82402 0.531946 0
M  V30 1009 H 96.2965 2.59667 2.88973 0
M  V30 1010 H 97.9685 4.48322 1.0865 0
M  V30 1011 H 96.2115 4.23177 0.954148 0
M  V30 1012 H 96.8825 4.96381 2.41474 0
M  V30 1013 H 99.3585 3.07623 2.80191 0
M  V30 1014 H 98.2345 3.74566 4.01238 0
M  V30 1015 H 98.4955 2.01021 3.93755 0
M  V30 1016 N 97.5546 -0.734337 1.39446 0
M  V30 1017 C 98.8006 -1.49613 1.36908 0
M  V30 1018 C 99.1336 -1.94169 -0.0347829 0
M  V30 1019 O 98.4086 -1.66833 -0.999847 0
M  V30 1020 C 98.6916 -2.73534 2.34203 0
M  V30 1021 C 98.5446 -2.34993 3.83534 0
M  V30 1022 C 99.8636 -3.75635 2.29317 0
M  V30 1023 H 96.9826 -0.542714 0.498629 0
M  V30 1024 H 99.6246 -0.839597 1.70443 0
M  V30 1025 H 97.7746 -3.29553 2.05736 0
M  V30 1026 H 99.4466 -1.84601 4.22753 0
M  V30 1027 H 97.6896 -1.67213 4.00278 0
M  V30 1028 H 98.3606 -3.23738 4.47099 0
M  V30 1029 H 100.837 -3.29203 2.54489 0
M  V30 1030 H 99.7126 -4.60008 2.99472 0
M  V30 1031 H 99.9736 -4.22603 1.29842 0
M  V30 1032 N 99.0327 -1.24633 -0.964593 0
M  V30 1033 C 100.281 -1.08573 -1.70459 0
M  V30 1034 C 100.602 0.375655 -1.91347 0
M  V30 1035 O 99.8717 1.26779 -1.49345 0
M  V30 1036 H 98.4517 -0.398784 -0.631649 0
M  V30 1037 H 101.114 -1.56601 -1.16026 0
M  V30 1038 H 100.21 -1.58623 -2.68785 0
M  V30 1039 N 100.511 1.16574 -1.06058 0
M  V30 1040 C 101.474 2.19085 -0.673392 0
M  V30 1041 C 102.474 1.5835 0.279648 0
M  V30 1042 O 103.664 1.74088 0.0623488 0
M  V30 1043 C 100.796 3.40899 0.00954234 0
M  V30 1044 H 101.989 2.54853 -1.58081 0
M  V30 1045 H 99.5418 1.30808 -0.855516 0
M  V30 1046 H 100.277 3.10684 0.929826 0
M  V30 1047 H 100.062 3.86233 -0.67573 0
M  V30 1048 H 101.552 4.1675 0.266245 0
M  V30 1049 N 101.989 0.842826 1.3317 0
M  V30 1050 C 103.237 0.439577 1.97262 0
M  V30 1051 C 103.558 -1.00548 1.67078 0
M  V30 1052 O 102.828 -1.70098 0.971779 0
M  V30 1053 H 101.408 0.159558 0.72976 0
M  V30 1054 H 104.07 1.07665 1.62463 0
M  V30 1055 H 103.166 0.574886 3.0676 0
M  V30 1056 N 103.467 -1.45747 0.599634 0
M  V30 1057 C 104.715 -2.01893 0.0915472 0
M  V30 1058 C 105.036 -1.47155 -1.27946 0
M  V30 1059 O 104.306 -0.66273 -1.84349 0
M  V30 1060 H 102.886 -0.746363 0.0308524 0
M  V30 1061 H 105.548 -1.78645 0.779237 0
M  V30 1062 H 104.644 -3.1208 0.0353086 0
M  V30 1063 N 104.945 -0.338344 -1.53925 0
M  V30 1064 C 105.908 0.508299 -2.23493 0
M  V30 1065 C 106.908 1.03175 -1.23335 0
M  V30 1066 O 108.098 0.921826 -1.47811 0
M  V30 1067 C 105.23 1.70754 -2.95052 0
M  V30 1068 H 106.423 -0.100058 -2.99733 0
M  V30 1069 H 103.976 -0.0896198 -1.56043 0
M  V30 1070 H 104.711 2.35474 -2.22986 0
M  V30 1071 H 104.496 1.33946 -3.68512 0
M  V30 1072 H 105.986 2.30818 -3.48013 0
M  V30 1073 N 106.423 1.57458 -0.0668435 0
M  V30 1074 C 107.671 1.92919 0.602214 0
M  V30 1075 C 107.992 0.947215 1.70449 0
M  V30 1076 O 107.262 -0.00544117 1.95899 0
M  V30 1077 H 105.842 0.71217 0.22544 0
M  V30 1078 H 108.504 1.94508 -0.123535 0
M  V30 1079 H 107.6 2.94589 1.03073 0
M  V30 1080 N 107.901 -0.206675 1.56239 0
M  V30 1081 C 108.831 -1.25909 1.96645 0
M  V30 1082 C 109.812 -1.48097 0.836734 0
M  V30 1083 O 110.997 -1.6003 1.10019 0
M  V30 1084 C 108.127 -2.6058 2.29599 0
M  V30 1085 C 107.081 -2.53024 3.452 0
M  V30 1086 C 106.407 -3.91861 3.63798 0
M  V30 1087 C 107.707 -2.06524 4.79734 0
M  V30 1088 H 109.401 -0.923369 2.84806 0
M  V30 1089 H 106.947 -0.442735 1.37025 0
M  V30 1090 H 108.9 -3.34375 2.56459 0
M  V30 1091 H 107.624 -2.95869 1.38307 0
M  V30 1092 H 106.283 -1.81684 3.18412 0
M  V30 1093 H 105.931 -4.24483 2.69857 0
M  V30 1094 H 105.631 -3.87683 4.4156 0
M  V30 1095 H 107.155 -4.67296 3.93022 0
M  V30 1096 H 108.569 -2.70072 5.05702 0
M  V30 1097 H 106.966 -2.13374 5.60885 0
M  V30 1098 H 108.036 -1.01802 4.74093 0
M  V30 1099 N 109.379 -1.50304 -0.473955 0
M  V30 1100 C 110.795 -1.37667 -0.807466 0
M  V30 1101 C 110.995 -0.430555 -1.96846 0
M  V30 1102 O 110.051 0.127874 -2.52176 0
M  V30 1103 C 111.364 -2.78974 -1.12223 0
M  V30 1104 C 112.912 -2.87868 -1.22885 0
M  V30 1105 C 113.387 -4.30003 -1.57676 0
M  V30 1106 N 114.878 -4.3294 -1.64673 0
M  V30 1107 C 115.613 -5.3991 -1.93091 0
M  V30 1108 N 115.109 -6.57092 -2.1955 0
M  V30 1109 N 116.902 -5.27351 -1.94569 0
M  V30 1110 H 109.053 -2.10394 0.291212 0
M  V30 1111 H 111.316 -0.945575 0.0677609 0
M  V30 1112 H 111.022 -3.50031 -0.342229 0
M  V30 1113 H 110.896 -3.16038 -2.05913 0
M  V30 1114 H 113.283 -2.17032 -1.99953 0
M  V30 1115 H 113.364 -2.54352 -0.271814 0
M  V30 1116 H 113.008 -5.01375 -0.81149 0
M  V30 1117 H 112.938 -4.61004 -2.54525 0
M  V30 1118 H 115.429 -3.48441 -1.46277 0
M  V30 1119 H 115.742 -7.34425 -2.405 0
M  V30 1120 H 114.087 -6.60272 -2.16948 0
M  V30 1121 H 117.278 -4.34801 -1.73394 0
M  V30 1122 H 117.451 -6.10805 -2.16381 0
M  V30 1123 N 110.857 0.726932 -1.39834 0
M  V30 1124 C 111.82 1.82269 -1.38962 0
M  V30 1125 C 112.82 1.58248 -0.285334 0
M  V30 1126 O 114.01 1.65499 -0.54366 0
M  V30 1127 C 111.142 3.20186 -1.17019 0
M  V30 1128 H 112.335 1.84443 -2.36476 0
M  V30 1129 H 109.888 0.931416 -1.25516 0
M  V30 1130 H 110.623 3.23669 -0.202204 0
M  V30 1131 H 110.408 3.3902 -1.96998 0
M  V30 1132 H 111.898 4.00235 -1.1917 0
M  V30 1133 N 112.336 1.25143 0.95797 0
M  V30 1134 C 113.299 1.05321 2.03569 0
M  V30 1135 C 114.299 0.007152 1.60798 0
M  V30 1136 O 115.489 0.24903 1.72411 0
M  V30 1137 C 112.621 0.598394 3.35607 0
M  V30 1138 H 113.814 2.00986 2.22586 0
M  V30 1139 H 111.367 1.07502 1.13459 0
M  V30 1140 H 112.102 -0.361014 3.22284 0
M  V30 1141 H 111.887 1.35351 3.67998 0
M  V30 1142 H 113.377 0.48104 4.1482 0
M  V30 1143 N 113.814 -1.1601 1.06675 0
M  V30 1144 C 115.061 -1.86633 0.785781 0
M  V30 1145 C 115.389 -1.81929 -0.687896 0
M  V30 1146 O 114.644 -1.23253 -1.52011 0
M  V30 1147 C 114.943 -3.35547 1.23057 0
M  V30 1148 C 114.609 -3.60448 2.70902 0
M  V30 1149 C 113.271 -3.66954 3.11285 0
M  V30 1150 C 115.623 -3.7071 3.66365 0
M  V30 1151 C 112.951 -3.81225 4.45965 0
M  V30 1152 C 115.303 -3.86503 5.00797 0
M  V30 1153 C 113.967 -3.91252 5.40813 0
M  V30 1154 H 113.237 -0.682937 0.287538 0
M  V30 1155 H 115.884 -1.37146 1.33654 0
M  V30 1156 H 114.189 -3.87193 0.59907 0
M  V30 1157 H 115.886 -3.88583 0.990163 0
M  V30 1158 H 112.476 -3.56021 2.38636 0
M  V30 1159 H 116.66 -3.64991 3.36296 0
M  V30 1160 H 111.916 -3.83155 4.76447 0
M  V30 1161 H 116.09 -3.93385 5.74649 0
M  V30 1162 H 113.717 -4.02062 6.45174 0
M  V30 1163 N 115.292 -0.849877 -1.32721 0
M  V30 1164 C 116.54 -0.450032 -1.97026 0
M  V30 1165 C 116.861 0.996604 -1.67609 0
M  V30 1166 O 116.131 1.6958 -0.980786 0
M  V30 1167 H 114.711 -0.163426 -0.728904 0
M  V30 1168 H 117.373 -1.08526 -1.6189 0
M  V30 1169 H 116.469 -0.591146 -3.0645 0
M  V30 1170 N 116.77 1.45427 -0.607355 0
M  V30 1171 C 117.7 2.3329 0.0989352 0
M  V30 1172 C 118.681 1.46816 0.859007 0
M  V30 1173 O 119.866 1.75588 0.829604 0
M  V30 1174 C 116.996 3.29518 1.09705 0
M  V30 1175 C 115.95 4.25626 0.450206 0
M  V30 1176 C 115.276 5.11542 1.55655 0
M  V30 1177 C 116.576 5.18505 -0.628455 0
M  V30 1178 H 118.27 2.92595 -0.634716 0
M  V30 1179 H 115.816 1.40696 -0.306681 0
M  V30 1180 H 117.769 3.89855 1.59971 0
M  V30 1181 H 116.493 2.68372 1.86129 0
M  V30 1182 H 115.152 3.66586 -0.0315886 0
M  V30 1183 H 114.8 4.46765 2.31107 0
M  V30 1184 H 114.5 5.76647 1.12925 0
M  V30 1185 H 116.024 5.74748 2.06148 0
M  V30 1186 H 117.438 5.72916 -0.209877 0
M  V30 1187 H 115.835 5.92085 -0.977489 0
M  V30 1188 H 116.905 4.60948 -1.50514 0
M  V30 1189 N 118.248 0.346503 1.53744 0
M  V30 1190 C 119.473 -0.253074 2.0585 0
M  V30 1191 C 119.898 -1.43202 1.21962 0
M  V30 1192 O 119.256 -1.79783 0.234073 0
M  V30 1193 C 119.304 -0.643193 3.54817 0
M  V30 1194 O 118.408 -1.74286 3.73762 0
M  V30 1195 H 117.749 -0.0413583 0.662711 0
M  V30 1196 H 120.279 0.501574 1.98357 0
M  V30 1197 H 120.289 -0.919526 3.97503 0
M  V30 1198 H 118.964 0.218966 4.15323 0
M  V30 1199 H 117.541 -1.46356 3.42979 0
M  V30 1200 N 119.726 -1.57421 0.075193 0
M  V30 1201 C 120.636 -2.1642 -0.905511 0
M  V30 1202 C 121.652 -1.12828 -1.32461 0
M  V30 1203 O 122.828 -1.45109 -1.39661 0
M  V30 1204 C 119.893 -2.71693 -2.15369 0
M  V30 1205 C 118.954 -3.90171 -1.79068 0
M  V30 1206 C 118.187 -4.42798 -2.97936 0
M  V30 1207 O 118.41 -3.94416 -4.12058 0
M  V30 1208 O 117.344 -5.34085 -2.77555 0
M  V30 1209 H 121.17 -3.00588 -0.433626 0
M  V30 1210 H 118.755 -1.48664 -0.148067 0
M  V30 1211 H 120.637 -3.07104 -2.88557 0
M  V30 1212 H 119.312 -1.90582 -2.61649 0
M  V30 1213 H 118.219 -3.59606 -1.03122 0
M  V30 1214 H 119.552 -4.72584 -1.37569 0
M  V30 1215 N 121.204 0.198386 -1.56346 0
M  V30 1216 C 122.167 1.22952 -1.93431 0
M  V30 1217 C 123.167 1.38611 -0.815092 0
M  V30 1218 O 124.357 1.36479 -1.08255 0
M  V30 1219 C 121.489 2.59946 -2.20546 0
M  V30 1220 H 122.682 0.912626 -2.85677 0
M  V30 1221 H 120.235 0.43977 -1.49986 0
M  V30 1222 H 120.97 2.96696 -1.30927 0
M  V30 1223 H 120.755 2.49953 -3.02102 0
M  V30 1224 H 122.245 3.3431 -2.50253 0
M  V30 1225 N 122.682 1.50554 0.465978 0
M  V30 1226 C 123.93 1.61479 1.21528 0
M  V30 1227 C 124.251 0.319596 1.92363 0
M  V30 1228 O 123.521 -0.663194 1.84333 0
M  V30 1229 H 122.101 0.595055 0.451573 0
M  V30 1230 H 124.763 1.87355 0.53704 0
M  V30 1231 H 123.859 2.42846 1.96042 0
M  V30 1232 N 124.16 -0.719506 1.40217 0
M  V30 1233 C 125.407 -1.47933 1.38283 0
M  V30 1234 C 125.735 -1.94493 -0.0161536 0
M  V30 1235 O 124.99 -1.68224 -0.999956 0
M  V30 1236 C 125.289 -2.72271 2.31524 0
M  V30 1237 C 124.955 -2.44496 3.78857 0
M  V30 1238 C 123.617 -2.36631 4.18998 0
M  V30 1239 C 125.969 -2.21104 4.71977 0
M  V30 1240 C 123.297 -2.03437 5.503 0
M  V30 1241 C 125.649 -1.89423 6.03574 0
M  V30 1242 C 124.313 -1.80038 6.42762 0
M  V30 1243 H 123.583 -0.541325 0.506012 0
M  V30 1244 H 126.23 -0.824502 1.72842 0
M  V30 1245 H 124.535 -3.42572 1.90137 0
M  V30 1246 H 126.232 -3.30348 2.27313 0
M  V30 1247 H 122.822 -2.51503 3.47051 0
M  V30 1248 H 127.006 -2.26139 4.41786 0
M  V30 1249 H 122.262 -1.94705 5.79569 0
M  V30 1250 H 126.436 -1.70336 6.75247 0
M  V30 1251 H 124.063 -1.54083 7.44421 0
M  V30 1252 N 125.638 -1.25649 -0.95132 0
M  V30 1253 C 126.586 -1.06118 -2.06982 0
M  V30 1254 C 127.58 0.00889169 -1.69398 0
M  V30 1255 O 128.786 -0.146988 -1.79399 0
M  V30 1256 H 125.161 -0.326248 -0.677544 0
M  V30 1257 H 127.132 -2.00932 -2.2061 0
M  V30 1258 C 125.881 -0.700145 -3.40578 0
M  V30 1259 H 125.204 -1.51537 -3.69968 0
M  V30 1260 H 126.644 -0.603211 -4.19687 0
M  V30 1261 C 125.103 0.59403 -3.31622 0
M  V30 1262 O 125.633 1.63522 -3.66911 0
M  V30 1263 N 123.839 0.58089 -2.84735 0
M  V30 1264 H 123.386 -0.266783 -2.56215 0
M  V30 1265 H 123.344 1.44695 -2.79125 0
M  V30 1266 N 127.117 1.15442 -1.07289 0
M  V30 1267 C 128.345 1.90096 -0.81676 0
M  V30 1268 C 128.76 1.7798 0.629966 0
M  V30 1269 O 128.117 1.1313 1.43206 0
M  V30 1270 C 128.168 3.40466 -1.21512 0
M  V30 1271 O 127.889 3.52232 -2.60508 0
M  V30 1272 C 129.39 4.32145 -0.988198 0
M  V30 1273 H 126.61 0.602495 -0.295366 0
M  V30 1274 H 129.154 1.4627 -1.42918 0
M  V30 1275 H 127.309 3.81958 -0.647039 0
M  V30 1276 H 127.723 4.45549 -2.76742 0
M  V30 1277 H 129.197 5.36072 -1.31645 0
M  V30 1278 H 129.674 4.39135 0.0755063 0
M  V30 1279 H 130.28 3.96395 -1.54115 0
M  V30 1280 N 128.595 0.856903 1.32268 0
M  V30 1281 C 129.558 0.308171 2.27119 0
M  V30 1282 C 130.558 -0.533421 1.51695 0
M  V30 1283 O 131.748 -0.344607 1.70757 0
M  V30 1284 C 128.88 -0.563757 3.36206 0
M  V30 1285 H 130.073 1.14535 2.77167 0
M  V30 1286 H 127.626 0.631421 1.42978 0
M  V30 1287 H 128.361 -1.42266 2.91429 0
M  V30 1288 H 128.146 0.0386749 3.92081 0
M  V30 1289 H 129.636 -0.940386 4.06874 0
M  V30 1290 N 130.073 -1.45103 0.615059 0
M  V30 1291 C 131.313 -2.04069 0.116282 0
M  V30 1292 C 131.677 -1.4721 -1.2326 0
M  V30 1293 O 132.878 -1.97577 -1.82255 0
M  V30 1294 C 131.149 -3.57298 0.085482 0
M  V30 1295 S 132.708 -4.37394 -0.351015 0
M  V30 1296 H 129.526 -0.709006 0.0532183 0
M  V30 1297 H 132.128 -1.77709 0.81484 0
M  V30 1298 H 130.832 -3.9619 1.0706 0
M  V30 1299 H 130.363 -3.88244 -0.634835 0
M  V30 1300 H 132.378 -4.69734 -1.59889 0
M  V30 1301 N 131.551 -0.354651 -1.53558 0
M  V30 1302 C 132.797 0.238797 -2.01389 0
M  V30 1303 C 133.13 1.49309 -1.2418 0
M  V30 1304 O 132.405 1.91638 -0.332457 0
M  V30 1305 C 132.688 0.541771 -3.56001 0
M  V30 1306 C 132.541 -0.725388 -4.43912 0
M  V30 1307 C 133.86 1.34685 -4.18984 0
M  V30 1308 H 130.979 0.0853177 -0.732045 0
M  V30 1309 H 133.621 -0.477384 -1.83905 0
M  V30 1310 H 131.771 1.15189 -3.71031 0
M  V30 1311 H 133.443 -1.36313 -4.407 0
M  V30 1312 H 131.686 -1.34801 -4.12324 0
M  V30 1313 H 132.357 -0.468505 -5.50008 0
M  V30 1314 H 134.833 0.830837 -4.07721 0
M  V30 1315 H 133.709 1.52759 -5.27215 0
M  V30 1316 H 133.97 2.35221 -3.74331 0
M  V30 1317 N 133.029 1.57378 -0.0835403 0
M  V30 1318 C 134.257 1.98263 0.59157 0
M  V30 1319 C 134.672 0.962302 1.62435 0
M  V30 1320 O 134.029 -0.049581 1.82433 0
M  V30 1321 C 134.08 3.39214 1.24965 0
M  V30 1322 O 133.801 4.37339 0.258186 0
M  V30 1323 C 135.302 3.95038 2.01147 0
M  V30 1324 H 132.522 0.651773 0.159477 0
M  V30 1325 H 135.066 2.03878 -0.159415 0
M  V30 1326 H 133.221 3.34649 1.95164 0
M  V30 1327 H 133.635 5.19371 0.731734 0
M  V30 1328 H 135.109 4.95848 2.42567 0
M  V30 1329 H 135.586 3.32222 2.87272 0
M  V30 1330 H 136.192 4.0304 1.35789 0
M  V30 1331 N 134.507 -0.190092 1.56449 0
M  V30 1332 C 135.454 -1.23557 1.94942 0
M  V30 1333 C 136.424 -1.44972 0.810696 0
M  V30 1334 O 137.609 -1.58023 1.06927 0
M  V30 1335 C 134.749 -2.57416 2.2985 0
M  V30 1336 C 133.862 -2.43537 3.5681 0
M  V30 1337 C 132.997 -3.70134 3.81017 0
M  V30 1338 C 132.036 -3.51109 5.01387 0
M  V30 1339 N 131.173 -4.6973 5.21822 0
M  V30 1340 H 136.013 -0.900304 2.84075 0
M  V30 1341 H 133.55 -0.43318 1.40577 0
M  V30 1342 H 135.508 -3.35409 2.48106 0
M  V30 1343 H 134.138 -2.88975 1.43852 0
M  V30 1344 H 133.19 -1.56816 3.46573 0
M  V30 1345 H 134.502 -2.25415 4.4496 0
M  V30 1346 H 133.656 -4.56566 3.9954 0
M  V30 1347 H 132.395 -3.91215 2.91207 0
M  V30 1348 H 131.4 -2.63063 4.82782 0
M  V30 1349 H 132.625 -3.31468 5.9271 0
M  V30 1350 H 130.571 -4.91065 4.34961 0
M  V30 1351 H 130.488 -4.54452 6.0416 0
M  V30 1352 H 131.756 -5.57499 5.44808 0
M  V30 1353 N 135.985 -1.50799 -0.457987 0
M  V30 1354 C 136.915 -1.73553 -1.5621 0
M  V30 1355 C 137.896 -0.584774 -1.59732 0
M  V30 1356 O 139.081 -0.825314 -1.7579 0
M  V30 1357 C 136.211 -1.84169 -2.94447 0
M  V30 1358 C 135.165 -2.99461 -3.0579 0
M  V30 1359 C 134.491 -2.95235 -4.45803 0
M  V30 1360 C 135.791 -4.39766 -2.81786 0
M  V30 1361 H 137.485 -2.66 -1.37421 0
M  V30 1362 H 135.031 -1.28002 -0.659662 0
M  V30 1363 H 136.984 -1.98672 -3.71628 0
M  V30 1364 H 135.708 -0.883545 -3.14422 0
M  V30 1365 H 134.367 -2.8463 -2.31044 0
M  V30 1366 H 134.015 -1.97239 -4.62715 0
M  V30 1367 H 133.715 -3.72642 -4.54326 0
M  V30 1368 H 135.239 -3.11803 -5.24987 0
M  V30 1369 H 136.653 -4.55054 -3.4871 0
M  V30 1370 H 135.05 -5.18722 -3.0174 0
M  V30 1371 H 136.12 -4.51229 -1.7754 0
M  V30 1372 N 137.463 0.71206 -1.40597 0
M  V30 1373 C 138.71 1.47197 -1.39065 0
M  V30 1374 C 139.038 1.94499 0.00583891 0
M  V30 1375 O 138.293 1.68752 0.99102 0
M  V30 1376 C 138.592 2.71039 -2.32965 0
M  V30 1377 C 138.258 2.42484 -3.80148 0
M  V30 1378 C 136.92 2.34406 -4.20247 0
M  V30 1379 C 139.272 2.18598 -4.73143 0
M  V30 1380 C 136.6 2.00516 -5.51371 0
M  V30 1381 C 138.952 1.8622 -6.0457 0
M  V30 1382 C 137.616 1.76626 -6.43708 0
M  V30 1383 H 136.886 0.538634 -0.508876 0
M  V30 1384 H 139.533 0.815325 -1.73276 0
M  V30 1385 H 137.838 3.41558 -1.91951 0
M  V30 1386 H 139.535 3.29138 -2.29061 0
M  V30 1387 H 136.125 2.49659 -3.4838 0
M  V30 1388 H 140.309 2.23793 -4.42979 0
M  V30 1389 H 135.565 1.91628 -5.80593 0
M  V30 1390 H 139.739 1.66752 -6.76141 0
M  V30 1391 H 137.366 1.50133 -7.45228 0
M  V30 1392 N 138.941 1.26152 0.944643 0
M  V30 1393 C 140.352 1.10454 1.50522 0
M  V30 1394 C 140.703 -0.31635 1.93633 0
M  V30 1395 O 139.828 -1.20746 1.79581 0
M  V30 1396 C 140.423 1.99891 2.73549 0
M  V30 1397 C 138.982 1.88348 3.25886 0
M  V30 1398 C 138.129 1.93447 1.9868 0
M  V30 1399 H 141.08 1.39292 0.760489 0
M  V30 1400 H 141.101 1.54477 3.47732 0
M  V30 1401 H 140.613 3.03297 2.42141 0
M  V30 1402 H 138.714 0.878636 3.62092 0
M  V30 1403 H 138.827 2.73696 3.93227 0
M  V30 1404 H 137.191 1.37456 2.14425 0
M  V30 1405 H 137.974 2.98476 1.69607 0
M  V30 1406 N 140.419 -1.14872 1.07899 0
M  V30 1407 C 141.647 -1.89661 0.82683 0
M  V30 1408 C 142.062 -1.78312 -0.620519 0
M  V30 1409 O 141.419 -1.13888 -1.42604 0
M  V30 1410 C 141.47 -3.39817 1.23316 0
M  V30 1411 O 141.191 -3.50845 2.62372 0
M  V30 1412 C 142.692 -4.31615 1.0111 0
M  V30 1413 H 139.912 -0.60092 0.298557 0
M  V30 1414 H 142.456 -1.4551 1.43691 0
M  V30 1415 H 140.611 -3.8161 0.667286 0
M  V30 1416 H 141.025 -4.44076 2.79101 0
M  V30 1417 H 142.499 -5.35367 1.34486 0
M  V30 1418 H 142.976 -4.39169 -0.0522168 0
M  V30 1419 H 143.582 -3.95572 1.56215 0
M  V30 1420 N 141.898 -0.863906 -1.31812 0
M  V30 1421 C 143.314 -0.555004 -1.49639 0
M  V30 1422 C 143.514 0.912266 -1.79666 0
M  V30 1423 O 142.57 1.69479 -1.87171 0
M  V30 1424 C 143.883 -1.44998 -2.63431 0
M  V30 1425 C 145.431 -1.45138 -2.77316 0
M  V30 1426 C 145.906 -2.33179 -3.94197 0
M  V30 1427 N 147.397 -2.31025 -4.01474 0
M  V30 1428 C 148.132 -2.95871 -4.9117 0
M  V30 1429 N 147.628 -3.69863 -5.8581 0
M  V30 1430 N 149.421 -2.85211 -4.84367 0
M  V30 1431 H 141.572 -1.81339 -1.10589 0
M  V30 1432 H 143.835 -0.77505 -0.545895 0
M  V30 1433 H 143.541 -2.49377 -2.48 0
M  V30 1434 H 143.415 -1.14409 -3.59431 0
M  V30 1435 H 145.802 -0.415201 -2.92164 0
M  V30 1436 H 145.883 -1.79747 -1.82001 0
M  V30 1437 H 145.527 -3.3687 -3.80107 0
M  V30 1438 H 145.457 -1.95897 -4.88807 0
M  V30 1439 H 147.948 -1.77238 -3.33759 0
M  V30 1440 H 148.261 -4.16486 -6.50968 0
M  V30 1441 H 146.606 -3.73971 -5.85808 0
M  V30 1442 H 149.797 -2.26948 -4.09405 0
M  V30 1443 H 149.97 -3.36027 -5.54066 0
M  V30 1444 N 143.376 1.44774 -0.622745 0
M  V30 1445 C 144.601 2.06999 -0.128968 0
M  V30 1446 C 145.026 1.4617 1.1839 0
M  V30 1447 O 144.384 0.560007 1.72434 0
M  V30 1448 C 144.432 3.60595 -0.0188351 0
M  V30 1449 O 143.536 3.99398 1.02739 0
M  V30 1450 H 142.877 0.659047 -0.0809544 0
M  V30 1451 H 145.407 1.85784 -0.85705 0
M  V30 1452 H 145.417 4.07627 0.174476 0
M  V30 1453 H 144.092 4.04252 -0.977384 0
M  V30 1454 H 142.669 3.64011 0.809326 0
M  V30 1455 N 144.854 0.36279 1.53368 0
M  V30 1456 C 145.804 -0.501391 2.22419 0
M  V30 1457 C 146.788 -1.0509 1.2184 0
M  V30 1458 O 147.98 -0.981404 1.47301 0
M  V30 1459 C 145.109 -1.64201 3.01484 0
M  V30 1460 C 144.195 -1.10552 4.09438 0
M  V30 1461 N 144.586 -0.291788 5.04958 0
M  V30 1462 C 142.884 -1.3806 4.24094 0
M  V30 1463 C 143.585 0.00162655 5.817 0
M  V30 1464 N 142.561 -0.595244 5.40331 0
M  V30 1465 H 146.363 0.127159 2.93625 0
M  V30 1466 H 143.877 0.170658 1.61501 0
M  V30 1467 H 145.874 -2.27326 3.49469 0
M  V30 1468 H 144.534 -2.27365 2.31809 0
M  V30 1469 H 145.545 0.0687731 5.17854 0
M  V30 1470 H 142.222 -2.01522 3.65644 0
M  V30 1471 H 143.612 0.659278 6.68658 0
M  V30 1472 N 146.332 -1.57332 0.0918853 0
M  V30 1473 C 147.56 -1.98574 -0.581048 0
M  V30 1474 C 147.975 -0.970903 -1.61923 0
M  V30 1475 O 147.332 0.0399054 -1.82456 0
M  V30 1476 C 147.383 -3.39872 -1.23164 0
M  V30 1477 O 147.104 -4.37469 -0.234989 0
M  V30 1478 C 148.605 -3.96099 -1.99049 0
M  V30 1479 H 145.825 -0.65261 -0.156018 0
M  V30 1480 H 148.369 -2.0379 0.170225 0
M  V30 1481 H 146.524 -3.35679 -1.93386 0
M  V30 1482 H 146.938 -5.19751 -0.70418 0
M  V30 1483 H 148.412 -4.97127 -2.39934 0
M  V30 1484 H 148.889 -3.3374 -2.85507 0
M  V30 1485 H 149.495 -4.03755 -1.3365 0
M  V30 1486 N 147.81 0.181792 -1.56548 0
M  V30 1487 C 149.056 0.901431 -1.81665 0
M  V30 1488 C 149.389 1.82347 -0.668075 0
M  V30 1489 O 148.664 1.91669 0.330615 0
M  V30 1490 C 148.947 1.70618 -3.17115 0
M  V30 1491 C 148.8 0.807964 -4.42484 0
M  V30 1492 C 150.119 2.67605 -3.49393 0
M  V30 1493 H 147.238 0.32627 -0.660846 0
M  V30 1494 H 149.88 0.168134 -1.89255 0
M  V30 1495 H 148.03 2.33133 -3.10775 0
M  V30 1496 H 149.702 0.19649 -4.60881 0
M  V30 1497 H 147.945 0.115411 -4.33646 0
M  V30 1498 H 148.616 1.40632 -5.33785 0
M  V30 1499 H 151.092 2.15218 -3.56118 0
M  V30 1500 H 149.968 3.20985 -4.45264 0
M  V30 1501 H 150.229 3.47298 -2.73563 0
M  V30 1502 N 149.288 1.51039 0.449983 0
M  V30 1503 C 150.251 1.70863 1.5277 0
M  V30 1504 C 151.251 0.578846 1.5002 0
M  V30 1505 O 152.441 0.846213 1.52266 0
M  V30 1506 C 149.573 1.75341 2.9235 0
M  V30 1507 H 150.766 2.67034 1.36502 0
M  V30 1508 H 148.319 1.40838 0.677812 0
M  V30 1509 H 149.054 0.809383 3.14037 0
M  V30 1510 H 148.839 2.57436 2.95752 0
M  V30 1511 H 150.329 1.92559 3.70555 0
M  V30 1512 N 150.766 -0.704594 1.40972 0
M  V30 1513 C 151.729 -1.80035 1.41845 0
M  V30 1514 C 152.729 -1.57774 0.310474 0
M  V30 1515 O 153.919 -1.64613 0.56992 0
M  V30 1516 C 151.051 -3.18284 1.22098 0
M  V30 1517 H 152.244 -1.80658 2.3938 0
M  V30 1518 H 149.797 -0.911329 1.26982 0
M  V30 1519 H 150.532 -3.23306 0.253672 0
M  V30 1520 H 150.317 -3.35843 2.02366 0
M  V30 1521 H 151.807 -3.98289 1.25522 0
M  V30 1522 N 152.244 -1.26651 -0.937939 0
M  V30 1523 C 153.176 -1.04283 -2.04102 0
M  V30 1524 C 154.189 -0.00221014 -1.628 0
M  V30 1525 O 155.378 -0.242645 -1.76843 0
M  V30 1526 C 152.478 -0.557846 -3.34277 0
M  V30 1527 C 151.651 -1.66843 -4.04329 0
M  V30 1528 C 150.71 -1.18095 -5.12777 0
M  V30 1529 O 149.736 -1.87865 -5.37304 0
M  V30 1530 N 150.938 -0.0311006 -5.80492 0
M  V30 1531 H 153.703 -1.9927 -2.23856 0
M  V30 1532 H 151.264 -1.1808 -1.10764 0
M  V30 1533 H 153.256 -0.215836 -4.04124 0
M  V30 1534 H 151.826 0.298523 -3.11171 0
M  V30 1535 H 151.046 -2.18123 -3.28353 0
M  V30 1536 H 152.334 -2.41408 -4.47883 0
M  V30 1537 H 151.732 0.551486 -5.63005 0
M  V30 1538 H 150.289 0.251809 -6.51313 0
M  V30 1539 N 153.722 1.14298 -1.08507 0
M  V30 1540 C 154.97 1.84993 -0.813763 0
M  V30 1541 C 155.291 1.83405 0.662393 0
M  V30 1542 O 154.561 1.28319 1.48024 0
M  V30 1543 H 153.141 0.684966 -0.298045 0
M  V30 1544 H 155.803 1.385 -1.37126 0
M  V30 1545 H 154.899 2.89788 -1.15884 0
M  V30 1546 N 155.201 0.870884 1.31352 0
M  V30 1547 C 156.449 0.48132 1.96285 0
M  V30 1548 C 156.77 -0.969813 1.69173 0
M  V30 1549 O 156.04 -1.67998 1.00764 0
M  V30 1550 H 154.62 0.175002 0.726212 0
M  V30 1551 H 157.282 1.11087 1.60143 0
M  V30 1552 H 156.378 0.639825 3.05471 0
M  V30 1553 N 156.679 -1.44442 0.630414 0
M  V30 1554 C 157.928 -2.01267 0.132073 0
M  V30 1555 C 158.241 -1.50172 -1.25331 0
M  V30 1556 O 159.447 -1.9912 -1.84562 0
M  V30 1557 C 157.903 -3.59422 0.185362 0
M  V30 1558 C 157.511 -4.19514 1.57201 0
M  V30 1559 C 159.255 -4.23724 -0.256553 0
M  V30 1560 C 157.162 -5.69891 1.58045 0
M  V30 1561 H 156.092 -0.752619 0.0456092 0
M  V30 1562 H 158.743 -1.65666 0.789106 0
M  V30 1563 H 157.125 -3.92318 -0.538759 0
M  V30 1564 H 158.299 -3.98156 2.31966 0
M  V30 1565 H 156.614 -3.67496 1.95795 0
M  V30 1566 H 159.211 -5.34019 -0.269767 0
M  V30 1567 H 159.554 -3.96013 -1.28372 0
M  V30 1568 H 160.087 -3.95629 0.41505 0
M  V30 1569 H 156.826 -6.02336 2.58597 0
M  V30 1570 H 156.346 -5.93373 0.875725 0
M  V30 1571 H 158.025 -6.33515 1.31408 0
M  V30 1572 N 158.157 -0.370918 -1.53173 0
M  V30 1573 C 159.105 0.488101 -2.27421 0
M  V30 1574 C 160.099 1.07884 -1.30604 0
M  V30 1575 O 161.305 1.02143 -1.48212 0
M  V30 1576 H 157.68 0.176134 -0.731082 0
M  V30 1577 H 159.651 -0.159815 -2.97972 0
M  V30 1578 C 158.4 1.61306 -3.08019 0
M  V30 1579 H 157.723 1.1678 -3.82364 0
M  V30 1580 H 159.163 2.18872 -3.63141 0
M  V30 1581 C 157.622 2.55848 -2.19188 0
M  V30 1582 O 158.152 3.58799 -1.80626 0
M  V30 1583 N 156.358 2.2516 -1.83715 0
M  V30 1584 H 155.905 1.41476 -2.15273 0
M  V30 1585 H 155.863 2.8867 -1.24567 0
M  V30 1586 N 159.635 1.57281 -0.100228 0
M  V30 1587 C 160.598 2.13158 0.842398 0
M  V30 1588 C 161.598 1.06202 1.20738 0
M  V30 1589 O 162.788 1.32066 1.13597 0
M  V30 1590 C 159.92 2.65639 2.13655 0
M  V30 1591 H 161.113 2.97766 0.357114 0
M  V30 1592 H 158.666 1.5559 0.148823 0
M  V30 1593 H 159.401 1.84566 2.66657 0
M  V30 1594 H 159.186 3.43844 1.88451 0
M  V30 1595 H 160.676 3.08846 2.81077 0
M  V30 1596 N 161.113 -0.173488 1.56642 0
M  V30 1597 C 162.076 -1.19859 1.95362 0
M  V30 1598 C 163.076 -1.37296 0.83704 0
M  V30 1599 O 164.266 -1.34739 1.10413 0
M  V30 1600 C 161.398 -2.56405 2.24654 0
M  V30 1601 H 162.591 -0.867062 2.87092 0
M  V30 1602 H 160.144 -0.415853 1.50666 0
M  V30 1603 H 160.879 -2.94576 1.35631 0
M  V30 1604 H 160.664 -2.45115 3.06041 0
M  V30 1605 H 162.154 -3.30287 2.5554 0
M  V30 1606 N 162.591 -1.51276 -0.441967 0
M  V30 1607 C 163.521 -1.752 -1.54361 0
M  V30 1608 C 164.502 -0.601682 -1.59103 0
M  V30 1609 O 165.687 -0.843913 -1.74905 0
M  V30 1610 C 162.817 -1.87282 -2.92477 0
M  V30 1611 C 161.771 -3.02687 -3.02596 0
M  V30 1612 C 161.097 -2.99947 -4.42647 0
M  V30 1613 C 162.397 -4.4273 -2.77106 0
M  V30 1614 H 164.091 -2.67442 -1.34592 0
M  V30 1615 H 161.637 -1.28694 -0.646048 0
M  V30 1616 H 163.59 -2.02602 -3.695 0
M  V30 1617 H 162.314 -0.916844 -3.13467 0
M  V30 1618 H 160.973 -2.87065 -2.28012 0
M  V30 1619 H 160.621 -2.02136 -4.60597 0
M  V30 1620 H 160.321 -3.77439 -4.50348 0
M  V30 1621 H 161.845 -3.17354 -5.2165 0
M  V30 1622 H 163.259 -4.58727 -3.43864 0
M  V30 1623 H 161.656 -5.21893 -2.96222 0
M  V30 1624 H 162.726 -4.53087 -1.72744 0
M  V30 1625 N 164.069 0.697108 -1.41344 0
M  V30 1626 C 165.317 1.45426 -1.40341 0
M  V30 1627 C 165.638 1.94996 -0.0128787 0
M  V30 1628 O 164.908 1.71599 0.945027 0
M  V30 1629 H 163.488 0.539594 -0.516573 0
M  V30 1630 H 166.15 0.825201 -1.76569 0
M  V30 1631 H 165.246 2.31817 -2.08967 0
M  V30 1632 N 165.547 1.27147 0.931209 0
M  V30 1633 C 166.495 1.09398 2.05268 0
M  V30 1634 C 167.489 0.0180591 1.6939 0
M  V30 1635 O 168.695 0.17551 1.79142 0
M  V30 1636 H 165.07 0.336986 0.672268 0
M  V30 1637 H 167.041 2.04416 2.17386 0
M  V30 1638 C 165.79 0.75424 3.39421 0
M  V30 1639 H 165.113 1.57404 3.67511 0
M  V30 1640 H 166.553 0.669903 4.18674 0
M  V30 1641 C 165.012 -0.541197 3.32525 0
M  V30 1642 O 165.542 -1.57664 3.69466 0
M  V30 1643 N 163.748 -0.535517 2.85623 0
M  V30 1644 H 163.295 0.307511 2.55758 0
M  V30 1645 H 163.253 -1.40236 2.81392 0
M  V30 1646 N 167.025 -1.13721 1.09112 0
M  V30 1647 C 167.958 -2.18094 0.67158 0
M  V30 1648 C 168.936 -1.59414 -0.320299 0
M  V30 1649 O 170.12 -1.87183 -0.222444 0
M  V30 1650 C 167.247 -3.38698 -0.0111189 0
M  V30 1651 C 166.293 -4.15966 0.942055 0
M  V30 1652 S 167.126 -4.7604 2.45246 0
M  V30 1653 C 168.282 -5.99994 1.78208 0
M  V30 1654 H 168.515 -2.53344 1.55577 0
M  V30 1655 H 166.048 -1.24967 0.906789 0
M  V30 1656 H 168.006 -4.08559 -0.398716 0
M  V30 1657 H 166.667 -3.01756 -0.871905 0
M  V30 1658 H 165.86 -5.02318 0.411396 0
M  V30 1659 H 165.462 -3.51745 1.2709 0
M  V30 1660 H 167.754 -6.68441 1.10424 0
M  V30 1661 H 168.697 -6.57662 2.62463 0
M  V30 1662 H 169.105 -5.50432 1.25238 0
M  V30 1663 N 168.503 -0.877838 -1.30888 0
M  V30 1664 C 169.413 -0.343096 -2.32078 0
M  V30 1665 C 170.429 0.551022 -1.65045 0
M  V30 1666 O 171.605 0.445854 -1.96403 0
M  V30 1667 C 168.67 0.439905 -3.43898 0
M  V30 1668 C 167.731 -0.483111 -4.26573 0
M  V30 1669 C 166.964 0.262616 -5.33053 0
M  V30 1670 O 167.187 1.48967 -5.50604 0
M  V30 1671 O 166.121 -0.383593 -6.00676 0
M  V30 1672 H 169.947 -1.18203 -2.79753 0
M  V30 1673 H 167.532 -0.64145 -1.34929 0
M  V30 1674 H 169.414 0.883504 -4.12034 0
M  V30 1675 H 168.089 1.25526 -2.98371 0
M  V30 1676 H 166.996 -0.975374 -3.61161 0
M  V30 1677 H 168.329 -1.26427 -4.75686 0
M  V30 1678 N 169.982 1.44106 -0.638065 0
M  V30 1679 C 170.892 2.34513 0.0637334 0
M  V30 1680 C 171.908 1.53018 0.828346 0
M  V30 1681 O 173.084 1.85723 0.779036 0
M  V30 1682 C 170.149 3.31095 1.02844 0
M  V30 1683 C 169.21 4.28497 0.26244 0
M  V30 1684 C 168.443 5.20465 1.1812 0
M  V30 1685 O 168.666 5.16514 2.42011 0
M  V30 1686 O 167.6 5.98251 0.661774 0
M  V30 1687 H 171.426 2.95989 -0.68003 0
M  V30 1688 H 169.011 1.43994 -0.398252 0
M  V30 1689 H 170.893 3.90526 1.58327 0
M  V30 1690 H 169.568 2.72144 1.7527 0
M  V30 1691 H 168.475 3.72592 -0.335602 0
M  V30 1692 H 169.808 4.90388 -0.421936 0
M  V30 1693 N 171.46 0.379036 1.52974 0
M  V30 1694 C 172.737 -0.263479 1.93817 0
M  V30 1695 C 173.117 -1.65244 1.31368 0
M  V30 1696 O 172.465 -2.23448 0.477856 0
M  V30 1697 C 172.675 -0.300166 3.47707 0
M  V30 1698 C 174.023 -0.534061 4.21228 0
M  V30 1699 O 175.047 -0.38081 3.54159 0
M  V30 1700 O 173.906 -0.833501 5.40106 0
M  V30 1701 H 171 -0.161149 0.811147 0
M  V30 1702 H 173.546 0.432798 1.64088 0
M  V30 1703 H 172.318 0.673138 3.85467 0
M  V30 1704 H 171.941 -1.04179 3.83709 0
M  V30 1705 N 172.938 -1.57226 0.108567 0
M  V30 1706 C 173.886 -2.16002 -0.862885 0
M  V30 1707 C 174.88 -1.10644 -1.28274 0
M  V30 1708 O 176.086 -1.28966 -1.2557 0
M  V30 1709 H 172.461 -0.691148 -0.296342 0
M  V30 1710 H 174.432 -2.96427 -0.342575 0
M  V30 1711 C 173.181 -2.76576 -2.10716 0
M  V30 1712 H 172.504 -3.5734 -1.793 0
M  V30 1713 H 173.944 -3.21253 -2.76717 0
M  V30 1714 C 172.403 -1.73137 -2.89007 0
M  V30 1715 O 172.933 -1.17842 -3.84026 0
M  V30 1716 N 171.139 -1.43317 -2.52801 0
M  V30 1717 H 170.686 -1.88473 -1.75601 0
M  V30 1718 H 170.644 -0.743485 -3.05483 0
M  V30 1719 N 174.416 0.165178 -1.56732 0
M  V30 1720 C 175.662 0.877389 -1.83503 0
M  V30 1721 C 176.017 1.79602 -0.689996 0
M  V30 1722 O 175.31 1.89023 0.313205 0
M  V30 1723 C 175.504 1.70405 -3.1416 0
M  V30 1724 C 175.333 0.866961 -4.41264 0
M  V30 1725 C 174.103 0.539646 -5.0241 0
M  V30 1726 C 176.301 0.205671 -5.13889 0
M  V30 1727 N 174.283 -0.312946 -6.13102 0
M  V30 1728 C 175.654 -0.507823 -6.17917 0
M  V30 1729 C 177.709 0.124468 -4.97744 0
M  V30 1730 C 176.412 -1.29483 -7.0755 0
M  V30 1731 C 178.438 -0.649222 -5.87826 0
M  V30 1732 C 177.8 -1.35106 -6.91322 0
M  V30 1733 H 173.899 0.299477 -0.722383 0
M  V30 1734 H 176.483 0.143949 -1.94167 0
M  V30 1735 H 174.654 2.40887 -3.04677 0
M  V30 1736 H 176.386 2.35804 -3.28905 0
M  V30 1737 H 173.141 0.871176 -4.65519 0
M  V30 1738 H 173.565 -0.729731 -6.73056 0
M  V30 1739 H 178.207 0.652724 -4.17731 0
M  V30 1740 H 175.925 -1.83441 -7.87004 0
M  V30 1741 H 179.511 -0.713804 -5.77405 0
M  V30 1742 H 178.391 -1.94013 -7.59821 0
M  V30 1743 N 175.894 1.51508 0.433938 0
M  V30 1744 C 177.31 1.39759 0.770682 0
M  V30 1745 C 177.51 0.482594 1.95636 0
M  V30 1746 O 176.566 -0.0609691 2.52426 0
M  V30 1747 C 177.879 2.81851 1.04787 0
M  V30 1748 C 179.427 2.91025 1.1521 0
M  V30 1749 C 179.902 4.34032 1.46219 0
M  V30 1750 N 181.393 4.37154 1.53136 0
M  V30 1751 C 182.128 5.4484 1.78709 0
M  V30 1752 N 181.624 6.62682 2.02051 0
M  V30 1753 N 183.417 5.32324 1.80519 0
M  V30 1754 H 175.568 2.09548 -0.346892 0
M  V30 1755 H 177.831 0.943446 -0.0928074 0
M  V30 1756 H 177.537 3.50815 0.249304 0
M  V30 1757 H 177.411 3.21386 1.97461 0
M  V30 1758 H 179.798 2.22257 1.94128 0
M  V30 1759 H 179.879 2.54983 0.204281 0
M  V30 1760 H 179.523 5.03351 0.678274 0
M  V30 1761 H 179.453 4.6759 2.42212 0
M  V30 1762 H 181.944 3.52197 1.36987 0
M  V30 1763 H 182.257 7.40543 2.20943 0
M  V30 1764 H 180.602 6.65791 1.99366 0
M  V30 1765 H 183.793 4.39246 1.61805 0
M  V30 1766 H 183.966 6.16328 2.00111 0
M  V30 1767 N 177.372 -0.689602 1.41712 0
M  V30 1768 C 178.618 -1.45041 1.42599 0
M  V30 1769 C 178.973 -1.92366 0.0363764 0
M  V30 1770 O 178.266 -1.67022 -0.938844 0
M  V30 1771 C 178.46 -2.67298 2.37247 0
M  V30 1772 C 178.289 -2.31935 3.85274 0
M  V30 1773 C 177.059 -2.2201 4.53916 0
M  V30 1774 C 179.257 -1.94526 4.76093 0
M  V30 1775 N 177.239 -1.79594 5.87043 0
M  V30 1776 C 178.61 -1.62915 5.98213 0
M  V30 1777 C 180.665 -1.81388 4.63684 0
M  V30 1778 C 179.368 -1.19486 7.09306 0
M  V30 1779 C 181.394 -1.39364 5.74745 0
M  V30 1780 C 180.756 -1.08668 6.95967 0
M  V30 1781 H 176.855 -0.527806 0.577014 0
M  V30 1782 H 179.439 -0.797266 1.77628 0
M  V30 1783 H 177.61 -3.30325 2.04304 0
M  V30 1784 H 179.342 -3.33806 2.28814 0
M  V30 1785 H 176.097 -2.406 4.07932 0
M  V30 1786 H 176.521 -1.60851 6.57614 0
M  V30 1787 H 181.163 -2.03772 3.70455 0
M  V30 1788 H 178.881 -0.958477 8.02396 0
M  V30 1789 H 182.467 -1.2974 5.6715 0
M  V30 1790 H 181.347 -0.766417 7.80446 0
M  V30 1791 N 178.85 -1.27639 -0.924453 0
M  V30 1792 C 179.8 -1.07295 -2.01176 0
M  V30 1793 C 180.784 5.77352e-05 -1.609 0
M  V30 1794 O 181.976 -0.218855 -1.75642 0
M  V30 1795 C 179.105 -0.725592 -3.35544 0
M  V30 1796 C 178.191 -1.83691 -3.82254 0
M  V30 1797 N 178.582 -3.07697 -4.01443 0
M  V30 1798 C 176.88 -1.72433 -4.11319 0
M  V30 1799 C 177.581 -3.80037 -4.40394 0
M  V30 1800 N 176.557 -3.0782 -4.48049 0
M  V30 1801 H 180.359 -2.01399 -2.14046 0
M  V30 1802 H 177.873 -1.18401 -1.11153 0
M  V30 1803 H 179.87 -0.560959 -4.13109 0
M  V30 1804 H 178.53 0.207782 -3.24034 0
M  V30 1805 H 179.541 -3.43424 -3.8766 0
M  V30 1806 H 176.218 -0.862005 -4.08504 0
M  V30 1807 H 177.608 -4.86632 -4.63291 0
M  V30 1808 N 180.328 1.1314 -1.09713 0
M  V30 1809 C 181.575 1.84484 -0.834987 0
M  V30 1810 C 181.903 1.83689 0.639418 0
M  V30 1811 O 181.158 1.2724 1.4869 0
M  V30 1812 C 181.457 3.32167 -1.3191 0
M  V30 1813 C 181.123 3.53139 -2.80363 0
M  V30 1814 C 179.785 3.58571 -3.20905 0
M  V30 1815 C 182.137 3.60866 -3.76065 0
M  V30 1816 C 179.465 3.69267 -4.55916 0
M  V30 1817 C 181.817 3.73089 -5.10869 0
M  V30 1818 C 180.481 3.76775 -5.50996 0
M  V30 1819 H 179.751 0.675073 -0.305544 0
M  V30 1820 H 182.398 1.33554 -1.37243 0
M  V30 1821 H 180.703 3.85469 -0.701517 0
M  V30 1822 H 182.4 3.85821 -1.09284 0
M  V30 1823 H 178.99 3.49569 -2.47991 0
M  V30 1824 H 183.174 3.55946 -3.45855 0
M  V30 1825 H 178.43 3.70388 -4.86438 0
M  V30 1826 H 182.604 3.78011 -5.84877 0
M  V30 1827 H 180.231 3.84815 -6.55608 0
M  V30 1828 N 181.806 0.884767 1.30421 0
M  V30 1829 C 183.036 0.517293 2.00019 0
M  V30 1830 C 183.444 -0.898632 1.66497 0
M  V30 1831 O 182.787 -1.60245 0.898181 0
M  V30 1832 C 182.849 0.612025 3.54252 0
M  V30 1833 C 182.513 1.99222 4.1129 0
M  V30 1834 C 183.51 2.9616 4.273 0
M  V30 1835 C 181.195 2.29755 4.46674 0
M  V30 1836 C 183.189 4.21764 4.77906 0
M  V30 1837 C 180.876 3.55606 4.96979 0
M  V30 1838 C 181.874 4.51425 5.12547 0
M  V30 1839 O 181.562 5.75043 5.61766 0
M  V30 1840 H 181.294 0.198529 0.64619 0
M  V30 1841 H 183.848 1.1919 1.67281 0
M  V30 1842 H 182.078 -0.119561 3.86515 0
M  V30 1843 H 183.767 0.255859 4.05093 0
M  V30 1844 H 184.533 2.73882 4.00267 0
M  V30 1845 H 180.412 1.55942 4.33824 0
M  V30 1846 H 183.956 4.96561 4.89972 0
M  V30 1847 H 179.853 3.7772 5.23448 0
M  V30 1848 H 180.621 5.77422 5.80109 0
M  V30 1849 N 183.284 -1.43765 0.645699 0
M  V30 1850 C 184.561 -1.9541 0.0862963 0
M  V30 1851 C 184.941 -1.58725 -1.39175 0
M  V30 1852 O 184.289 -0.868581 -2.11348 0
M  V30 1853 C 184.499 -3.47488 0.324565 0
M  V30 1854 C 185.847 -4.24001 0.225497 0
M  V30 1855 O 186.871 -3.55274 0.256715 0
M  V30 1856 O 185.73 -5.46313 0.142801 0
M  V30 1857 H 182.824 -0.826882 -0.0139483 0
M  V30 1858 H 185.37 -1.53743 0.718415 0
M  V30 1859 H 184.142 -3.67289 1.3496 0
M  V30 1860 H 183.765 -3.96135 -0.340987 0
M  V30 1861 N 184.763 -0.387143 -1.52771 0
M  V30 1862 C 185.991 0.195869 -2.05971 0
M  V30 1863 C 186.406 1.40691 -1.25903 0
M  V30 1864 O 185.763 1.79931 -0.305134 0
M  V30 1865 C 185.814 0.56812 -3.57008 0
M  V30 1866 O 185.535 -0.594803 -4.34043 0
M  V30 1867 C 187.036 1.20723 -4.26545 0
M  V30 1868 H 184.256 0.0300578 -0.670326 0
M  V30 1869 H 186.8 -0.551749 -1.96916 0
M  V30 1870 H 184.955 1.26564 -3.66143 0
M  V30 1871 H 185.369 -0.289322 -5.23701 0
M  V30 1872 H 186.843 1.41807 -5.33474 0
M  V30 1873 H 187.32 2.17395 -3.81623 0
M  V30 1874 H 187.926 0.550535 -4.21722 0
M  V30 1875 N 186.241 1.57166 -0.116904 0
M  V30 1876 C 187.487 1.95412 0.542405 0
M  V30 1877 C 187.82 1.00019 1.66463 0
M  V30 1878 O 187.095 0.0370346 1.94465 0
M  V30 1879 C 187.378 3.43615 1.07708 0
M  V30 1880 C 187.231 4.49781 -0.0415868 0
M  V30 1881 C 188.55 3.93616 1.96861 0
M  V30 1882 H 185.669 0.710543 0.195696 0
M  V30 1883 H 188.311 1.89027 -0.192038 0
M  V30 1884 H 186.461 3.49187 1.70296 0
M  V30 1885 H 188.133 4.56308 -0.676793 0
M  V30 1886 H 186.376 4.28033 -0.705019 0
M  V30 1887 H 187.047 5.50733 0.373717 0
M  V30 1888 H 189.523 3.90335 1.44146 0
M  V30 1889 H 188.399 4.97838 2.3119 0
M  V30 1890 H 188.66 3.34188 2.89432 0
M  V30 1891 N 187.719 -0.156864 1.56817 0
M  V30 1892 C 188.666 -1.19394 1.97519 0
M  V30 1893 C 189.636 -1.4322 0.841265 0
M  V30 1894 O 190.821 -1.55719 1.10255 0
M  V30 1895 C 187.961 -2.52483 2.35258 0
M  V30 1896 C 187.074 -2.35914 3.61896 0
M  V30 1897 C 186.209 -3.61969 3.88782 0
M  V30 1898 C 185.248 -3.40395 5.08722 0
M  V30 1899 N 184.385 -4.58556 5.31668 0
M  V30 1900 H 189.225 -0.839845 2.85921 0
M  V30 1901 H 186.762 -0.403264 1.41464 0
M  V30 1902 H 188.72 -3.30071 2.55165 0
M  V30 1903 H 187.35 -2.85859 1.49949 0
M  V30 1904 H 186.402 -1.49429 3.49821 0
M  V30 1905 H 187.714 -2.15926 4.49641 0
M  V30 1906 H 186.868 -4.47989 4.09135 0
M  V30 1907 H 185.607 -3.84951 2.9944 0
M  V30 1908 H 184.612 -2.52763 4.88253 0
M  V30 1909 H 185.837 -3.18822 5.99608 0
M  V30 1910 H 183.783 -4.81729 4.45279 0
M  V30 1911 H 183.7 -4.41535 6.13664 0
M  V30 1912 H 184.968 -5.45817 5.5651 0
M  V30 1913 N 189.197 -1.51736 -0.425897 0
M  V30 1914 C 190.445 -1.64644 -1.17204 0
M  V30 1915 C 190.766 -0.370486 -1.91448 0
M  V30 1916 O 190.036 0.614088 -1.86026 0
M  V30 1917 H 188.616 -0.606819 -0.435638 0
M  V30 1918 H 191.278 -1.88713 -0.487177 0
M  V30 1919 H 190.374 -2.47958 -1.89534 0
M  V30 1920 N 190.675 0.682077 -1.42076 0
M  V30 1921 C 191.9 1.47558 -1.45744 0
M  V30 1922 C 192.325 1.87977 -0.0680981 0
M  V30 1923 O 191.683 1.55522 0.9318 0
M  V30 1924 C 191.731 2.70575 -2.38373 0
M  V30 1925 O 190.835 3.68573 -1.85007 0
M  V30 1926 H 190.176 0.443585 -0.494093 0
M  V30 1927 H 192.706 0.837238 -1.86686 0
M  V30 1928 H 192.716 3.18729 -2.54707 0
M  V30 1929 H 191.391 2.40495 -3.39315 0
M  V30 1930 H 189.968 3.2757 -1.78192 0
M  V30 1931 N 192.153 1.28127 0.917671 0
M  V30 1932 C 193.43 1.05761 1.64542 0
M  V30 1933 C 193.81 -0.404344 2.07191 0
M  V30 1934 O 193.158 -1.38963 1.81388 0
M  V30 1935 C 193.368 2.02857 2.83989 0
M  V30 1936 C 194.716 2.32786 3.551 0
M  V30 1937 O 195.74 2.0091 2.94132 0
M  V30 1938 O 194.599 2.87169 4.64969 0
M  V30 1939 H 191.693 0.403916 0.721652 0
M  V30 1940 H 194.239 1.39431 0.967322 0
M  V30 1941 H 193.011 3.01407 2.49538 0
M  V30 1942 H 192.634 1.69809 3.59514 0
M  V30 1943 N 193.631 -1.12557 1.10312 0
M  V30 1944 C 194.877 -1.84515 0.855901 0
M  V30 1945 C 195.232 -1.82409 -0.611936 0
M  V30 1946 O 194.525 -1.25778 -1.44535 0
M  V30 1947 C 194.719 -3.31462 1.33669 0
M  V30 1948 C 194.548 -3.47879 2.84974 0
M  V30 1949 C 193.318 -3.61589 3.52961 0
M  V30 1950 C 195.516 -3.43152 3.83081 0
M  V30 1951 N 193.498 -3.66359 4.926 0
M  V30 1952 C 194.869 -3.54401 5.08724 0
M  V30 1953 C 196.924 -3.2661 3.75807 0
M  V30 1954 C 195.627 -3.50815 6.2795 0
M  V30 1955 C 197.653 -3.24335 4.94531 0
M  V30 1956 C 197.015 -3.36144 6.19021 0
M  V30 1957 H 193.114 -0.690967 0.366182 0
M  V30 1958 H 195.698 -1.34763 1.40524 0
M  V30 1959 H 193.869 -3.7976 0.814686 0
M  V30 1960 H 195.601 -3.91272 1.03385 0
M  V30 1961 H 192.356 -3.63652 3.03404 0
M  V30 1962 H 192.78 -3.72411 5.65366 0
M  V30 1963 H 197.422 -3.16375 2.80476 0
M  V30 1964 H 195.14 -3.5982 7.23571 0
M  V30 1965 H 198.726 -3.12719 4.9061 0
M  V30 1966 H 197.606 -3.34357 7.09348 0
M  V30 1967 N 195.109 -0.891671 -1.2995 0
M  V30 1968 C 196.039 -0.379797 -2.30391 0
M  V30 1969 C 197.02 0.540919 -1.6127 0
M  V30 1970 O 198.205 0.453352 -1.88834 0
M  V30 1971 C 195.335 0.400654 -3.44981 0
M  V30 1972 C 194.289 -0.428905 -4.25846 0
M  V30 1973 C 193.615 0.478557 -5.32554 0
M  V30 1974 C 194.915 -1.67458 -4.94727 0
M  V30 1975 H 196.609 -1.21914 -2.73454 0
M  V30 1976 H 194.155 -0.587675 -1.31462 0
M  V30 1977 H 196.108 0.769434 -4.14316 0
M  V30 1978 H 194.832 1.27371 -3.0074 0
M  V30 1979 H 193.491 -0.779911 -3.58208 0
M  V30 1980 H 193.139 1.34951 -4.84559 0
M  V30 1981 H 192.839 -0.0727433 -5.87555 0
M  V30 1982 H 194.363 0.843705 -6.04743 0
M  V30 1983 H 195.777 -1.376 -5.56542 0
M  V30 1984 H 194.174 -2.16659 -5.59624 0
M  V30 1985 H 195.244 -2.41518 -4.20473 0
M  V30 1986 N 196.587 1.43421 -0.653314 0
M  V30 1987 C 197.835 2.01414 -0.166415 0
M  V30 1988 C 198.156 1.51803 1.22397 0
M  V30 1989 O 197.426 0.730693 1.81763 0
M  V30 1990 H 196.006 0.744703 -0.0585319 0
M  V30 1991 H 198.668 1.75629 -0.845003 0
M  V30 1992 H 197.764 3.11734 -0.151111 0
M  V30 1993 N 198.065 0.39524 1.52563 0
M  V30 1994 C 199.342 -0.242908 1.94086 0
M  V30 1995 C 199.722 -1.63841 1.33114 0
M  V30 1996 O 199.07 -2.22928 0.501529 0
M  V30 1997 C 199.28 -0.26327 3.48006 0
M  V30 1998 C 200.628 -0.489354 4.21771 0
M  V30 1999 O 201.652 -0.343226 3.54543 0
M  V30 2000 O 200.511 -0.776169 5.4096 0
M  V30 2001 H 197.605 -0.152536 0.812811 0
M  V30 2002 H 200.151 0.450178 1.6362 0
M  V30 2003 H 198.923 0.713985 3.84731 0
M  V30 2004 H 198.546 -1.00103 3.84792 0
M  V30 2005 N 199.544 -1.57102 0.125237 0
M  V30 2006 C 200.476 -2.12726 -0.853237 0
M  V30 2007 C 201.489 -1.07145 -1.22571 0
M  V30 2008 O 202.678 -1.34497 -1.17358 0
M  V30 2009 C 199.778 -2.61709 -2.15317 0
M  V30 2010 C 198.951 -3.91456 -1.95143 0
M  V30 2011 C 198.01 -4.25973 -3.08923 0
M  V30 2012 O 197.036 -4.94682 -2.81564 0
M  V30 2013 N 198.238 -3.83795 -4.35524 0
M  V30 2014 H 201.003 -2.97307 -0.377964 0
M  V30 2015 H 198.564 -1.61792 -0.0590011 0
M  V30 2016 H 200.556 -2.81826 -2.90441 0
M  V30 2017 H 199.126 -1.81974 -2.54174 0
M  V30 2018 H 198.346 -3.80185 -1.04177 0
M  V30 2019 H 199.634 -4.76283 -1.78976 0
M  V30 2020 H 199.032 -3.2839 -4.60626 0
M  V30 2021 H 197.589 -4.09008 -5.07499 0
M  V30 2022 N 201.022 0.148545 -1.56898 0
M  V30 2023 C 202.299 0.890019 -1.74178 0
M  V30 2024 C 202.679 1.99407 -0.692839 0
M  V30 2025 O 202.027 2.26671 0.288505 0
M  V30 2026 C 202.237 1.43389 -3.18183 0
M  V30 2027 C 203.585 1.89791 -3.79822 0
M  V30 2028 O 204.609 1.53134 -3.21603 0
M  V30 2029 O 203.468 2.57387 -4.82093 0
M  V30 2030 H 200.562 0.420496 -0.712118 0
M  V30 2031 H 203.108 0.134591 -1.69165 0
M  V30 2032 H 201.88 0.640383 -3.86024 0
M  V30 2033 H 201.503 2.25287 -3.27615 0
M  V30 2034 N 202.5 1.5196 0.417844 0
M  V30 2035 C 203.463 1.74065 1.49111 0
M  V30 2036 C 204.463 0.610537 1.48758 0
M  V30 2037 O 205.653 0.87832 1.50437 0
M  V30 2038 C 202.785 1.81502 2.88565 0
M  V30 2039 H 203.978 2.69869 1.30807 0
M  V30 2040 H 201.531 1.42244 0.647785 0
M  V30 2041 H 202.266 0.875813 3.1225 0
M  V30 2042 H 202.051 2.63651 2.90225 0
M  V30 2043 H 203.541 2.00376 3.66387 0
M  V30 2044 N 203.978 -0.674533 1.42435 0
M  V30 2045 C 205.227 -1.43034 1.42212 0
M  V30 2046 C 205.54 -1.95555 0.0420788 0
M  V30 2047 O 206.746 -2.71374 -0.0827558 0
M  V30 2048 C 205.202 -2.58748 2.50155 0
M  V30 2049 C 204.81 -2.12925 3.94166 0
M  V30 2050 C 206.554 -3.36257 2.59098 0
M  V30 2051 C 204.461 -3.25723 4.93618 0
M  V30 2052 H 203.391 -0.537345 0.528939 0
M  V30 2053 H 206.042 -0.73024 1.68344 0
M  V30 2054 H 204.424 -3.31128 2.17188 0
M  V30 2055 H 205.598 -1.47697 4.36488 0
M  V30 2056 H 203.913 -1.48354 3.89076 0
M  V30 2057 H 206.51 -4.20264 3.30578 0
M  V30 2058 H 206.853 -3.82866 1.63461 0
M  V30 2059 H 207.386 -2.70947 2.9126 0
M  V30 2060 H 204.125 -2.84105 5.90732 0
M  V30 2061 H 203.645 -3.89732 4.55926 0
M  V30 2062 H 205.324 -3.91186 5.15347 0
M  V30 2063 N 205.456 -1.28612 -0.910864 0
M  V30 2064 C 206.406 -1.09423 -2.00026 0
M  V30 2065 C 207.39 -0.0170079 -1.60891 0
M  V30 2066 O 208.582 -0.237472 -1.754 0
M  V30 2067 C 205.711 -0.76114 -3.34756 0
M  V30 2068 C 204.797 -1.87735 -3.80285 0
M  V30 2069 N 205.188 -3.11938 -3.98156 0
M  V30 2070 C 203.486 -1.76786 -4.09467 0
M  V30 2071 C 204.187 -3.84687 -4.36338 0
M  V30 2072 N 203.163 -3.12555 -4.44759 0
M  V30 2073 H 206.965 -2.03658 -2.11898 0
M  V30 2074 H 204.479 -1.19573 -1.09891 0
M  V30 2075 H 206.476 -0.604743 -4.12491 0
M  V30 2076 H 205.136 0.173403 -3.24237 0
M  V30 2077 H 206.147 -3.47516 -3.83996 0
M  V30 2078 H 202.824 -0.905284 -4.07567 0
M  V30 2079 H 204.214 -4.91518 -4.58104 0
M  V30 2080 N 206.934 1.1197 -1.10907 0
M  V30 2081 C 208.164 1.8713 -0.875553 0
M  V30 2082 C 208.572 1.8016 0.577843 0
M  V30 2083 O 207.915 1.17699 1.41042 0
M  V30 2084 C 207.977 3.37005 -1.2517 0
M  V30 2085 C 207.641 3.67748 -2.71313 0
M  V30 2086 C 208.638 3.65698 -3.69542 0
M  V30 2087 C 206.323 3.96928 -3.07821 0
M  V30 2088 C 208.317 3.92395 -5.023 0
M  V30 2089 C 206.004 4.23284 -4.40765 0
M  V30 2090 C 207.002 4.21005 -5.37814 0
M  V30 2091 O 206.69 4.46704 -6.68364 0
M  V30 2092 H 206.422 0.598786 -0.313737 0
M  V30 2093 H 208.976 1.42568 -1.47863 0
M  V30 2094 H 207.206 3.82146 -0.591741 0
M  V30 2095 H 208.895 3.93519 -0.994877 0
M  V30 2096 H 209.661 3.43211 -3.42682 0
M  V30 2097 H 205.54 3.97841 -2.32902 0
M  V30 2098 H 209.084 3.90531 -5.78041 0
M  V30 2099 H 204.981 4.45246 -4.67361 0
M  V30 2100 H 205.749 4.64299 -6.74069 0
M  V30 2101 N 208.412 0.89855 1.29475 0
M  V30 2102 C 209.345 0.319981 2.25945 0
M  V30 2103 C 210.323 -0.567189 1.52387 0
M  V30 2104 O 211.507 -0.514254 1.8135 0
M  V30 2105 C 208.634 -0.544013 3.34303 0
M  V30 2106 C 207.68 0.275682 4.25608 0
M  V30 2107 S 208.513 1.67272 5.08704 0
M  V30 2108 C 209.669 0.815621 6.20563 0
M  V30 2109 H 209.902 1.13767 2.74671 0
M  V30 2110 H 207.435 0.69882 1.3768 0
M  V30 2111 H 209.393 -1.03673 3.97193 0
M  V30 2112 H 208.054 -1.33593 2.84274 0
M  V30 2113 H 207.247 -0.384263 5.02533 0
M  V30 2114 H 206.849 0.701496 3.67362 0
M  V30 2115 H 209.141 0.0385042 6.77489 0
M  V30 2116 H 210.084 1.55691 6.90772 0
M  V30 2117 H 210.492 0.370516 5.63283 0
M  V30 2118 N 209.89 -1.43072 0.660911 0
M  V30 2119 C 211.118 -2.06067 0.185422 0
M  V30 2120 C 211.533 -1.49582 -1.15198 0
M  V30 2121 O 210.89 -0.630134 -1.71276 0
M  V30 2122 C 210.941 -3.61371 0.0966523 0
M  V30 2123 O 210.662 -4.15758 1.38119 0
M  V30 2124 C 212.163 -4.41455 -0.403996 0
M  V30 2125 H 209.383 -0.664459 0.0934604 0
M  V30 2126 H 211.927 -1.83447 0.90373 0
M  V30 2127 H 210.082 -3.8315 -0.572259 0
M  V30 2128 H 210.496 -5.09499 1.24542 0
M  V30 2129 H 211.97 -5.50437 -0.415045 0
M  V30 2130 H 212.447 -4.15036 -1.43674 0
M  V30 2131 H 213.053 -4.24663 0.232691 0
M  V30 2132 N 211.368 -0.403325 -1.52352 0
M  V30 2133 C 212.278 0.432009 -2.30588 0
M  V30 2134 C 213.294 1.05884 -1.38075 0
M  V30 2135 O 214.47 1.06161 -1.71148 0
M  V30 2136 C 211.535 1.53669 -3.10784 0
M  V30 2137 C 210.596 0.933525 -4.19027 0
M  V30 2138 C 209.829 1.98557 -4.9539 0
M  V30 2139 O 210.052 3.20283 -4.71991 0
M  V30 2140 O 208.986 1.59504 -5.80381 0
M  V30 2141 H 212.812 -0.205739 -3.03002 0
M  V30 2142 H 210.397 -0.166675 -1.48467 0
M  V30 2143 H 212.279 2.17814 -3.60742 0
M  V30 2144 H 210.954 2.15915 -2.41169 0
M  V30 2145 H 209.861 0.254954 -3.7323 0
M  V30 2146 H 211.194 0.35508 -4.90918 0
M  V30 2147 N 212.846 1.57033 -0.133567 0
M  V30 2148 C 213.778 2.13176 0.841944 0
M  V30 2149 C 214.791 1.07794 1.22001 0
M  V30 2150 O 215.98 1.35117 1.16643 0
M  V30 2151 C 213.08 2.62847 2.13926 0
M  V30 2152 C 212.253 3.92486 1.93064 0
M  V30 2153 C 211.312 4.27605 3.0666 0
M  V30 2154 O 210.338 4.96168 2.78937 0
M  V30 2155 N 211.54 3.861 4.33483 0
M  V30 2156 H 214.305 2.97503 0.362192 0
M  V30 2157 H 211.866 1.61821 0.05042 0
M  V30 2158 H 213.858 2.83363 2.88942 0
M  V30 2159 H 212.428 1.83319 2.53205 0
M  V30 2160 H 211.648 3.80732 1.02159 0
M  V30 2161 H 212.936 4.77225 1.76447 0
M  V30 2162 H 212.334 3.30828 4.58878 0
M  V30 2163 H 210.891 4.11694 5.05323 0
M  V30 2164 N 214.325 -0.140222 1.56975 0
M  V30 2165 C 215.288 -1.15689 1.97861 0
M  V30 2166 C 216.288 -1.3549 0.865974 0
M  V30 2167 O 217.478 -1.32367 1.13246 0
M  V30 2168 C 214.61 -2.51582 2.30042 0
M  V30 2169 H 215.803 -0.805971 2.88867 0
M  V30 2170 H 213.356 -0.383801 1.51515 0
M  V30 2171 H 214.091 -2.91632 1.41849 0
M  V30 2172 H 213.876 -2.38569 3.11171 0
M  V30 2173 H 215.366 -3.24792 2.62488 0
M  V30 2174 N 215.803 -1.52179 -0.40978 0
M  V30 2175 C 217.214 -1.58377 -0.988615 0
M  V30 2176 C 217.565 -0.423879 -1.91566 0
M  V30 2177 O 216.69 0.455844 -2.11544 0
M  V30 2178 C 217.285 -2.87044 -1.79976 0
M  V30 2179 C 215.844 -2.95722 -2.32863 0
M  V30 2180 C 214.991 -2.53309 -1.12828 0
M  V30 2181 H 217.942 -1.57558 -0.190039 0
M  V30 2182 H 217.963 -2.7236 -2.65707 0
M  V30 2183 H 217.475 -3.71444 -1.12478 0
M  V30 2184 H 215.576 -2.15814 -3.03735 0
M  V30 2185 H 215.689 -3.99951 -2.63773 0
M  V30 2186 H 214.053 -2.07142 -1.48204 0
M  V30 2187 H 214.836 -3.40082 -0.46897 0
M  V30 2188 N 217.281 0.66697 -1.42791 0
M  V30 2189 C 218.244 1.76211 -1.46568 0
M  V30 2190 C 219.244 1.56896 -0.352196 0
M  V30 2191 O 220.434 1.63044 -0.613364 0
M  V30 2192 C 217.566 3.14935 -1.30494 0
M  V30 2193 H 218.759 1.74247 -2.44086 0
M  V30 2194 H 216.312 0.877342 -1.29354 0
M  V30 2195 H 217.047 3.2252 -0.339301 0
M  V30 2196 H 216.832 3.30359 -2.11199 0
M  V30 2197 H 218.322 3.94821 -1.36038 0
M  V30 2198 N 218.759 1.29093 0.90403 0
M  V30 2199 C 219.722 1.1386 1.98919 0
M  V30 2200 C 220.722 0.0753457 1.60623 0
M  V30 2201 O 221.912 0.321931 1.71199 0
M  V30 2202 C 219.044 0.740198 3.32767 0
M  V30 2203 H 220.237 2.10246 2.13861 0
M  V30 2204 H 217.79 1.12218 1.08797 0
M  V30 2205 H 218.525 -0.223997 3.23525 0
M  V30 2206 H 218.31 1.50838 3.61926 0
M  V30 2207 H 219.8 0.656546 4.12407 0
M  V30 2208 N 220.237 -1.11381 1.11499 0
M  V30 2209 C 221.483 -1.83403 0.865512 0
M  V30 2210 C 221.816 -1.84459 -0.607329 0
M  V30 2211 O 221.091 -1.29811 -1.44842 0
M  V30 2212 C 221.374 -3.30552 1.42855 0
M  V30 2213 C 221.227 -3.37886 2.96906 0
M  V30 2214 C 222.546 -4.26643 1.08 0
M  V30 2215 H 219.665 -0.665879 0.31587 0
M  V30 2216 H 222.307 -1.30601 1.37998 0
M  V30 2217 H 220.457 -3.75648 0.990985 0
M  V30 2218 H 222.129 -3.01343 3.49271 0
M  V30 2219 H 220.372 -2.78088 3.32941 0
M  V30 2220 H 221.043 -4.41458 3.31389 0
M  V30 2221 H 223.519 -3.89729 1.45775 0
M  V30 2222 H 222.395 -5.27986 1.50072 0
M  V30 2223 H 222.656 -4.42099 -0.00915037 0
M  V30 2224 N 221.715 -0.905404 -1.28997 0
M  V30 2225 C 222.961 -0.535039 -1.95615 0
M  V30 2226 C 223.294 0.917404 -1.71165 0
M  V30 2227 O 222.569 1.65123 -1.02785 0
M  V30 2228 C 222.852 -0.834918 -3.50287 0
M  V30 2229 C 222.705 -2.33948 -3.84172 0
M  V30 2230 C 224.024 -0.325318 -4.38896 0
M  V30 2231 H 221.143 -0.195861 -0.710498 0
M  V30 2232 H 223.785 -1.13313 -1.52513 0
M  V30 2233 H 221.935 -0.325904 -3.87131 0
M  V30 2234 H 223.607 -2.91847 -3.57243 0
M  V30 2235 H 221.85 -2.79789 -3.31513 0
M  V30 2236 H 222.521 -2.49987 -4.92149 0
M  V30 2237 H 224.997 -0.761256 -4.09077 0
M  V30 2238 H 223.873 -0.564295 -5.45992 0
M  V30 2239 H 224.134 0.774144 -4.35269 0
M  V30 2240 N 223.193 1.4272 -0.668489 0
M  V30 2241 C 224.103 2.34596 0.0139753 0
M  V30 2242 C 225.119 1.5474 0.795703 0
M  V30 2243 O 226.295 1.87334 0.739466 0
M  V30 2244 C 223.36 3.33202 0.957982 0
M  V30 2245 C 222.421 4.28957 0.17149 0
M  V30 2246 C 221.654 5.22853 1.07053 0
M  V30 2247 O 221.877 5.21531 2.31001 0
M  V30 2248 O 220.811 5.9952 0.534727 0
M  V30 2249 H 224.637 2.9448 -0.742661 0
M  V30 2250 H 222.222 1.43117 -0.428705 0
M  V30 2251 H 224.104 3.93796 1.50008 0
M  V30 2252 H 222.779 2.758 1.69458 0
M  V30 2253 H 221.686 3.71796 -0.414558 0
M  V30 2254 H 223.019 4.89383 -0.52586 0
M  V30 2255 N 224.671 0.411399 1.52136 0
M  V30 2256 C 225.601 -0.404015 2.29978 0
M  V30 2257 C 226.582 -1.04412 1.34284 0
M  V30 2258 O 227.767 -1.0527 1.63192 0
M  V30 2259 C 224.897 -1.5197 3.12286 0
M  V30 2260 C 223.851 -1.00448 4.16046 0
M  V30 2261 C 223.177 -2.21393 4.86712 0
M  V30 2262 C 224.477 -0.0569336 5.22269 0
M  V30 2263 H 226.171 0.245529 2.98392 0
M  V30 2264 H 223.717 0.119525 1.43503 0
M  V30 2265 H 225.67 -2.09715 3.6551 0
M  V30 2266 H 224.394 -2.19716 2.41646 0
M  V30 2267 H 223.053 -0.449421 3.63835 0
M  V30 2268 H 222.701 -2.87699 4.12599 0
M  V30 2269 H 222.401 -1.87571 5.56858 0
M  V30 2270 H 223.925 -2.7974 5.4275 0
M  V30 2271 H 225.339 -0.54325 5.7072 0
M  V30 2272 H 223.736 0.192594 5.99791 0
M  V30 2273 H 224.806 0.887663 4.76706 0
M  V30 2274 N 226.149 -1.5696 0.141893 0
M  V30 2275 C 227.059 -2.20066 -0.812905 0
M  V30 2276 C 228.075 -1.18344 -1.27557 0
M  V30 2277 O 229.251 -1.50902 -1.33381 0
M  V30 2278 C 226.316 -2.80583 -2.03652 0
M  V30 2279 C 225.377 -3.97414 -1.62359 0
M  V30 2280 C 224.61 -4.55036 -2.78887 0
M  V30 2281 O 224.833 -4.11538 -3.94959 0
M  V30 2282 O 223.767 -5.45376 -2.54653 0
M  V30 2283 H 227.593 -3.02157 -0.305746 0
M  V30 2284 H 225.178 -1.49159 -0.0848799 0
M  V30 2285 H 227.06 -3.19067 -2.75272 0
M  V30 2286 H 225.735 -2.01508 -2.5333 0
M  V30 2287 H 224.642 -3.63656 -0.877775 0
M  V30 2288 H 225.975 -4.77994 -1.17401 0
M  V30 2289 N 227.627 0.131896 -1.57047 0
M  V30 2290 C 228.575 1.18146 -2.0036 0
M  V30 2291 C 229.569 1.43614 -0.898406 0
M  V30 2292 O 230.775 1.43729 -1.08361 0
M  V30 2293 H 227.15 0.398042 -0.638018 0
M  V30 2294 H 229.121 0.789564 -2.87765 0
M  V30 2295 C 227.87 2.50341 -2.41298 0
M  V30 2296 H 227.193 2.31578 -3.25902 0
M  V30 2297 H 228.633 3.22371 -2.75414 0
M  V30 2298 C 227.092 3.11984 -1.27153 0
M  V30 2299 O 227.622 3.97484 -0.580459 0
M  V30 2300 N 225.828 2.71662 -1.03189 0
M  V30 2301 H 225.375 2.02231 -1.59564 0
M  V30 2302 H 225.333 3.13238 -0.270077 0
M  V30 2303 N 229.106 1.52395 0.401703 0
M  V30 2304 C 230.336 1.70429 1.1678 0
M  V30 2305 C 230.744 0.416702 1.84554 0
M  V30 2306 O 230.087 -0.617697 1.73003 0
M  V30 2307 C 230.149 2.78919 2.26814 0
M  V30 2308 C 229.813 4.20437 1.79113 0
M  V30 2309 C 230.81 5.04028 1.27482 0
M  V30 2310 C 228.495 4.66704 1.85722 0
M  V30 2311 C 230.489 6.31961 0.830913 0
M  V30 2312 C 228.176 5.94625 1.40942 0
M  V30 2313 C 229.174 6.77082 0.897128 0
M  V30 2314 O 228.862 8.02607 0.455822 0
M  V30 2315 H 228.594 0.574272 0.356634 0
M  V30 2316 H 231.148 1.99767 0.477724 0
M  V30 2317 H 229.378 2.44973 2.99207 0
M  V30 2318 H 231.067 2.8548 2.88541 0
M  V30 2319 H 231.833 4.69471 1.21744 0
M  V30 2320 H 227.712 4.0262 2.24539 0
M  V30 2321 H 231.256 6.96271 0.430368 0
M  V30 2322 H 227.153 6.28688 1.46362 0
M  V30 2323 H 227.921 8.16453 0.578457 0
M  V30 2324 N 230.584 -0.659388 1.43143 0
M  V30 2325 C 231.832 -1.41654 1.44147 0
M  V30 2326 C 232.153 -1.94893 0.0645739 0
M  V30 2327 O 231.423 -1.74044 -0.899198 0
M  V30 2328 H 230.003 -0.525708 0.530697 0
M  V30 2329 H 232.665 -0.778097 1.78694 0
M  V30 2330 H 231.761 -2.26195 2.1504 0
M  V30 2331 N 232.062 -1.29571 -0.897171 0
M  V30 2332 C 232.995 -1.0924 -2.00354 0
M  V30 2333 C 233.973 -0.00354011 -1.626 0
M  V30 2334 O 235.157 -0.15473 -1.87864 0
M  V30 2335 C 232.284 -0.66352 -3.32137 0
M  V30 2336 C 231.33 -1.75146 -3.88878 0
M  V30 2337 S 232.163 -3.35124 -4.17674 0
M  V30 2338 C 233.319 -2.9411 -5.52494 0
M  V30 2339 H 233.552 -2.02907 -2.17292 0
M  V30 2340 H 231.085 -1.13746 -1.04408 0
M  V30 2341 H 233.043 -0.422791 -4.08317 0
M  V30 2342 H 231.704 0.253588 -3.13075 0
M  V30 2343 H 230.897 -1.40337 -4.84068 0
M  V30 2344 H 230.499 -1.94584 -3.19395 0
M  V30 2345 H 232.791 -2.41312 -6.33068 0
M  V30 2346 H 233.734 -3.88161 -5.9223 0
M  V30 2347 H 234.142 -2.32332 -5.14473 0
M  V30 2348 N 233.54 1.10788 -1.12088 0
M  V30 2349 C 234.951 1.64181 -0.88891 0
M  V30 2350 C 235.302 1.87508 0.577498 0
M  V30 2351 O 234.427 1.61434 1.44112 0
M  V30 2352 C 235.022 2.98257 -1.60712 0
M  V30 2353 C 233.581 3.4853 -1.42139 0
M  V30 2354 C 232.728 2.23208 -1.6454 0
M  V30 2355 H 235.679 0.943368 -1.27618 0
M  V30 2356 H 235.7 3.65552 -1.05604 0
M  V30 2357 H 235.212 2.81246 -2.67436 0
M  V30 2358 H 233.313 3.70692 -0.376552 0
M  V30 2359 H 233.426 4.26882 -2.17505 0
M  V30 2360 H 231.79 2.31169 -1.06925 0
M  V30 2361 H 232.573 2.08733 -2.72554 0
M  V30 2362 N 235.018 0.912232 1.28515 0
M  V30 2363 C 236.265 0.544599 1.95039 0
M  V30 2364 C 236.593 -0.911435 1.71823 0
M  V30 2365 O 235.848 -1.66317 1.03137 0
M  V30 2366 C 236.147 0.798392 3.48368 0
M  V30 2367 C 235.813 2.23374 3.91682 0
M  V30 2368 C 234.475 2.62617 4.03219 0
M  V30 2369 C 236.827 3.16786 4.13879 0
M  V30 2370 C 234.155 3.94429 4.3433 0
M  V30 2371 C 236.507 4.48161 4.46469 0
M  V30 2372 C 235.171 4.8726 4.56217 0
M  V30 2373 H 234.441 0.199283 0.7137 0
M  V30 2374 H 237.088 1.15327 1.52879 0
M  V30 2375 H 235.393 0.106908 3.91654 0
M  V30 2376 H 237.09 0.493141 3.97956 0
M  V30 2377 H 233.68 1.91922 3.83228 0
M  V30 2378 H 237.864 2.87677 4.0442 0
M  V30 2379 H 233.12 4.24426 4.40082 0
M  V30 2380 H 237.294 5.20559 4.62592 0
M  V30 2381 H 234.921 5.89431 4.80078 0
M  V30 2382 N 236.496 -1.42363 0.676048 0
M  V30 2383 C 237.721 -2.06377 0.205705 0
M  V30 2384 C 238.146 -1.50463 -1.12883 0
M  V30 2385 O 237.504 -0.623619 -1.70237 0
M  V30 2386 C 237.552 -3.60277 0.152655 0
M  V30 2387 O 236.656 -4.02935 -0.87845 0
M  V30 2388 H 235.997 -0.655588 0.105359 0
M  V30 2389 H 238.527 -1.82475 0.925412 0
M  V30 2390 H 238.537 -4.07993 -0.0230675 0
M  V30 2391 H 237.212 -4.00346 1.12675 0
M  V30 2392 H 235.789 -3.66764 -0.673668 0
M  V30 2393 N 237.974 -0.419461 -1.51915 0
M  V30 2394 C 239.39 -0.0708431 -1.59443 0
M  V30 2395 C 239.59 1.41796 -1.43164 0
M  V30 2396 O 238.646 2.18596 -1.26381 0
M  V30 2397 C 239.959 -0.574991 -2.95151 0
M  V30 2398 C 241.507 -0.533867 -3.08413 0
M  V30 2399 C 241.982 -1.01469 -4.46618 0
M  V30 2400 N 243.473 -0.971939 -4.52888 0
M  V30 2401 C 244.208 -1.31505 -5.58116 0
M  V30 2402 N 243.704 -1.73014 -6.70849 0
M  V30 2403 N 245.497 -1.23436 -5.48379 0
M  V30 2404 H 237.648 -1.38836 -1.60743 0
M  V30 2405 H 239.911 -0.570998 -0.756747 0
M  V30 2406 H 239.617 -1.61597 -3.12377 0
M  V30 2407 H 239.491 0.00979777 -3.77199 0
M  V30 2408 H 241.878 0.498086 -2.90866 0
M  V30 2409 H 241.959 -1.15484 -2.28248 0
M  V30 2410 H 241.603 -2.04502 -4.6491 0
M  V30 2411 H 241.533 -0.370433 -5.25295 0
M  V30 2412 H 244.024 -0.666893 -3.71969 0
M  V30 2413 H 244.337 -1.97479 -7.47143 0
M  V30 2414 H 242.682 -1.76926 -6.72103 0
M  V30 2415 H 245.873 -0.908869 -4.59192 0
M  V30 2416 H 246.046 -1.50506 -6.30279 0
M  V30 2417 N 239.452 1.56882 -0.150215 0
M  V30 2418 C 240.68 2.00593 0.506948 0
M  V30 2419 C 241.095 1.03033 1.58208 0
M  V30 2420 O 240.452 0.0278396 1.82479 0
M  V30 2421 C 240.503 3.44209 1.10465 0
M  V30 2422 O 240.224 4.3804 0.0724636 0
M  V30 2423 C 241.725 4.03214 1.84211 0
M  V30 2424 H 238.945 0.65795 0.13169 0
M  V30 2425 H 241.489 2.03018 -0.245743 0
M  V30 2426 H 239.644 3.42625 1.80795 0
M  V30 2427 H 240.058 5.22007 0.510793 0
M  V30 2428 H 241.532 5.0569 2.21318 0
M  V30 2429 H 242.009 3.44107 2.72923 0
M  V30 2430 H 242.615 4.08437 1.18572 0
M  V30 2431 N 240.93 -0.123565 1.57115 0
M  V30 2432 C 241.84 -1.17074 2.033 0
M  V30 2433 C 242.856 -1.4561 0.952559 0
M  V30 2434 O 244.032 -1.56817 1.26374 0
M  V30 2435 C 241.097 -2.47857 2.42421 0
M  V30 2436 C 240.158 -2.26758 3.64526 0
M  V30 2437 C 239.391 -3.51305 4.01771 0
M  V30 2438 O 239.614 -4.5843 3.39409 0
M  V30 2439 O 238.548 -3.42578 4.94898 0
M  V30 2440 H 242.374 -0.808555 2.92739 0
M  V30 2441 H 239.959 -0.334027 1.45618 0
M  V30 2442 H 241.841 -3.2492 2.68338 0
M  V30 2443 H 240.516 -2.83558 1.5613 0
M  V30 2444 H 239.423 -1.47569 3.43765 0
M  V30 2445 H 240.756 -1.95963 4.51508 0
M  V30 2446 N 242.408 -1.52605 -0.393616 0
M  V30 2447 C 243.685 -1.58001 -1.15304 0
M  V30 2448 C 244.065 -0.370385 -2.07825 0
M  V30 2449 O 243.413 0.641638 -2.19306 0
M  V30 2450 C 243.623 -2.91652 -1.91677 0
M  V30 2451 C 244.971 -3.4522 -2.47201 0
M  V30 2452 O 245.995 -2.93495 -2.01839 0
M  V30 2453 O 244.854 -4.35579 -3.3005 0
M  V30 2454 H 241.948 -0.637068 -0.527327 0
M  V30 2455 H 244.494 -1.64939 -0.399141 0
M  V30 2456 H 243.266 -3.71136 -1.23992 0
M  V30 2457 H 242.889 -2.88077 -2.74039 0
M  V30 2458 N 243.887 0.651787 -1.4349 0
M  V30 2459 C 245.135 1.40888 -1.44897 0
M  V30 2460 C 245.456 1.94856 -0.0749086 0
M  V30 2461 O 244.726 1.74518 0.889956 0
M  V30 2462 H 243.306 0.522887 -0.533478 0
M  V30 2463 H 245.968 0.768609 -1.79104 0
M  V30 2464 H 245.064 2.25052 -2.16236 0
M  V30 2465 N 245.365 1.30045 0.890287 0
M  V30 2466 C 246.312 1.15976 1.99545 0
M  V30 2467 C 247.282 0.0506202 1.66023 0
M  V30 2468 O 248.467 0.219847 1.89529 0
M  V30 2469 C 245.607 0.852054 3.34416 0
M  V30 2470 C 244.72 2.04255 3.80662 0
M  V30 2471 C 243.855 1.6734 5.04154 0
M  V30 2472 C 242.894 2.82916 5.42794 0
M  V30 2473 N 242.031 2.46333 6.57468 0
M  V30 2474 H 246.871 2.10524 2.10911 0
M  V30 2475 H 244.408 1.04749 1.03276 0
M  V30 2476 H 246.366 0.654296 4.12037 0
M  V30 2477 H 244.996 -0.0565502 3.2275 0
M  V30 2478 H 244.048 2.35172 2.98995 0
M  V30 2479 H 245.36 2.90826 4.05242 0
M  V30 2480 H 244.514 1.43908 5.89386 0
M  V30 2481 H 243.253 0.779308 4.81433 0
M  V30 2482 H 242.258 3.0702 4.56091 0
M  V30 2483 H 243.483 3.73004 5.6749 0
M  V30 2484 H 241.429 1.59423 6.36334 0
M  V30 2485 H 241.346 3.26436 6.81891 0
M  V30 2486 H 242.614 2.26244 7.45945 0
M  V30 2487 N 246.843 -1.10192 1.12674 0
M  V30 2488 C 248.092 -1.81573 0.8783 0
M  V30 2489 C 248.405 -1.86249 -0.597557 0
M  V30 2490 O 249.611 -2.5386 -0.962681 0
M  V30 2491 C 248.067 -3.26149 1.52167 0
M  V30 2492 C 247.675 -3.29763 3.03249 0
M  V30 2493 C 249.419 -4.0234 1.3536 0
M  V30 2494 C 247.326 -4.68815 3.60508 0
M  V30 2495 H 246.256 -0.680394 0.324931 0
M  V30 2496 H 248.907 -1.23902 1.35353 0
M  V30 2497 H 247.289 -3.83832 0.974104 0
M  V30 2498 H 248.463 -2.8189 3.6452 0
M  V30 2499 H 246.778 -2.67059 3.19481 0
M  V30 2500 H 249.375 -5.05058 1.75559 0
M  V30 2501 H 249.718 -4.15235 0.297554 0
M  V30 2502 H 250.251 -3.51079 1.87052 0
M  V30 2503 H 246.99 -4.61121 4.65884 0
M  V30 2504 H 246.51 -5.17045 3.04014 0
M  V30 2505 H 248.189 -5.37785 3.59717 0
M  V30 2506 N 248.321 -0.919034 -1.28029 0
M  V30 2507 C 249.551 -0.570143 -1.98577 0
M  V30 2508 C 249.959 0.854172 -1.68821 0
M  V30 2509 O 249.302 1.57807 -0.940351 0
M  V30 2510 C 249.364 -0.705734 -3.52505 0
M  V30 2511 C 249.028 -2.10057 -4.05863 0
M  V30 2512 C 250.025 -3.07385 -4.19298 0
M  V30 2513 C 247.71 -2.41517 -4.40426 0
M  V30 2514 C 249.704 -4.34287 -4.66555 0
M  V30 2515 C 247.391 -3.68657 -4.87376 0
M  V30 2516 C 248.389 -4.64856 -5.00398 0
M  V30 2517 O 248.077 -5.89735 -5.46322 0
M  V30 2518 H 247.809 -0.215592 -0.6407 0
M  V30 2519 H 250.363 -1.23583 -1.64062 0
M  V30 2520 H 248.593 0.0170414 -3.86696 0
M  V30 2521 H 250.282 -0.363172 -4.04272 0
M  V30 2522 H 251.048 -2.84398 -3.92865 0
M  V30 2523 H 246.927 -1.67389 -4.29537 0
M  V30 2524 H 250.471 -5.09377 -4.76635 0
M  V30 2525 H 246.368 -3.91466 -5.13249 0
M  V30 2526 H 247.136 -5.92599 -5.64596 0
M  V30 2527 N 249.799 1.42003 -0.683588 0
M  V30 2528 C 250.731 2.29183 0.0283068 0
M  V30 2529 C 251.744 1.4415 0.756611 0
M  V30 2530 O 252.933 1.67779 0.609306 0
M  V30 2531 C 250.033 3.21765 1.06398 0
M  V30 2532 C 249.206 4.35496 0.407723 0
M  V30 2533 C 248.265 5.08737 1.34437 0
M  V30 2534 O 247.291 5.62948 0.841318 0
M  V30 2535 N 248.493 5.15075 2.67728 0
M  V30 2536 H 251.258 2.9092 -0.720105 0
M  V30 2537 H 248.819 1.53025 -0.528682 0
M  V30 2538 H 250.811 3.6763 1.69204 0
M  V30 2539 H 249.381 2.61418 1.71404 0
M  V30 2540 H 248.601 3.92165 -0.400012 0
M  V30 2541 H 249.889 5.08776 -0.0490956 0
M  V30 2542 H 249.287 4.72457 3.11129 0
M  V30 2543 H 247.844 5.64556 3.2576 0
M  V30 2544 N 251.277 0.427512 1.51691 0
M  V30 2545 C 252.693 0.0792977 1.59403 0
M  V30 2546 C 252.893 -1.41035 1.43914 0
M  V30 2547 O 251.949 -2.17922 1.27539 0
M  V30 2548 C 253.262 0.590636 2.94842 0
M  V30 2549 C 254.81 0.550215 3.08126 0
M  V30 2550 C 255.285 1.03836 4.46074 0
M  V30 2551 N 256.776 0.995943 4.52366 0
M  V30 2552 C 257.511 1.34463 5.57411 0
M  V30 2553 N 257.007 1.76569 6.69922 0
M  V30 2554 N 258.8 1.26343 5.47717 0
M  V30 2555 H 250.951 1.39687 1.60004 0
M  V30 2556 H 253.214 0.575003 0.753708 0
M  V30 2557 H 252.92 1.63251 3.11516 0
M  V30 2558 H 252.794 0.0102061 3.77199 0
M  V30 2559 H 255.181 -0.482654 2.91126 0
M  V30 2560 H 255.262 1.16693 2.27632 0
M  V30 2561 H 254.906 2.06965 4.63819 0
M  V30 2562 H 254.836 0.398286 5.25092 0
M  V30 2563 H 257.327 0.68661 3.7161 0
M  V30 2564 H 257.64 2.01438 7.46085 0
M  V30 2565 H 255.985 1.80488 6.71155 0
M  V30 2566 H 259.176 0.933209 4.58703 0
M  V30 2567 H 259.349 1.53846 6.29472 0
M  V30 2568 N 252.755 -1.56801 0.158532 0
M  V30 2569 C 253.718 -2.16138 -0.762705 0
M  V30 2570 C 254.718 -1.1061 -1.16713 0
M  V30 2571 O 255.908 -1.36191 -1.08617 0
M  V30 2572 C 253.04 -2.73386 -2.03649 0
M  V30 2573 H 254.233 -2.98886 -0.246354 0
M  V30 2574 H 251.786 -1.56035 -0.0909744 0
M  V30 2575 H 252.521 -1.94335 -2.59623 0
M  V30 2576 H 252.306 -3.50601 -1.75559 0
M  V30 2577 H 253.796 -3.19065 -2.6942 0
M  V30 2578 N 254.233 0.115231 -1.57178 0
M  V30 2579 C 255.48 0.822351 -1.8505 0
M  V30 2580 C 255.808 1.79701 -0.744168 0
M  V30 2581 O 255.063 1.93909 0.26414 0
M  V30 2582 C 255.362 1.60324 -3.19423 0
M  V30 2583 C 255.028 0.772536 -4.44233 0
M  V30 2584 C 253.69 0.543468 -4.78121 0
M  V30 2585 C 256.042 0.193746 -5.2084 0
M  V30 2586 C 253.37 -0.274583 -5.86057 0
M  V30 2587 C 255.722 -0.611517 -6.29637 0
M  V30 2588 C 254.386 -0.850867 -6.62055 0
M  V30 2589 H 253.656 0.30092 -0.677147 0
M  V30 2590 H 256.303 0.0845802 -1.91313 0
M  V30 2591 H 254.608 2.41203 -3.08753 0
M  V30 2592 H 256.305 2.1544 -3.38211 0
M  V30 2593 H 252.895 0.96117 -4.17683 0
M  V30 2594 H 257.079 0.357926 -4.95008 0
M  V30 2595 H 252.335 -0.469206 -6.09597 0
M  V30 2596 H 256.509 -1.06697 -6.88178 0
M  V30 2597 H 254.136 -1.48657 -7.45523 0
M  V30 2598 N 255.711 1.52812 0.385517 0
M  V30 2599 C 256.959 1.67694 1.12797 0
M  V30 2600 C 257.28 0.421115 1.90399 0
M  V30 2601 O 256.55 -0.564551 1.87589 0
M  V30 2602 H 255.13 0.618155 0.419396 0
M  V30 2603 H 257.792 1.89938 0.436972 0
M  V30 2604 H 256.888 2.52896 1.82894 0
M  V30 2605 N 257.189 -0.644168 1.43834 0
M  V30 2606 C 258.437 -1.40117 1.45642 0
M  V30 2607 C 258.758 -1.94814 0.0852413 0
M  V30 2608 O 258.028 -1.74988 -0.880688 0
M  V30 2609 H 256.608 -0.52005 0.536243 0
M  V30 2610 H 259.27 -0.7591 1.7951 0
M  V30 2611 H 258.366 -2.23902 2.17427 0
M  V30 2612 N 258.668 -1.30515 -0.883378 0
M  V30 2613 C 259.6 -1.12846 -1.99496 0
M  V30 2614 C 260.613 -0.0712571 -1.62644 0
M  V30 2615 O 261.802 -0.317432 -1.75655 0
M  V30 2616 C 258.902 -0.699123 -3.3161 0
M  V30 2617 C 258.075 -1.83842 -3.96889 0
M  V30 2618 C 257.134 -1.39737 -5.07307 0
M  V30 2619 O 256.16 -2.10485 -5.28852 0
M  V30 2620 N 257.362 -0.277279 -5.79837 0
M  V30 2621 H 260.127 -2.08585 -2.15203 0
M  V30 2622 H 257.688 -1.22672 -1.05656 0
M  V30 2623 H 259.68 -0.387044 -4.02845 0
M  V30 2624 H 258.25 0.166276 -3.12157 0
M  V30 2625 H 257.47 -2.31853 -3.18807 0
M  V30 2626 H 258.758 -2.60187 -4.37241 0
M  V30 2627 H 258.156 0.3122 -5.64838 0
M  V30 2628 H 256.713 -0.0246623 -6.51795 0
M  V30 2629 N 260.146 1.09593 -1.13257 0
M  V30 2630 C 261.371 1.8604 -0.916732 0
M  V30 2631 C 261.796 1.80504 0.529146 0
M  V30 2632 O 261.154 1.18127 1.37534 0
M  V30 2633 C 261.202 3.32017 -1.40703 0
M  V30 2634 O 260.306 4.08141 -0.591153 0
M  V30 2635 H 259.647 0.576943 -0.328683 0
M  V30 2636 H 262.177 1.38405 -1.50682 0
M  V30 2637 H 262.187 3.82865 -1.4099 0
M  V30 2638 H 260.862 3.35361 -2.45979 0
M  V30 2639 H 259.439 3.67084 -0.656005 0
M  V30 2640 N 261.624 0.925811 1.2754 0
M  V30 2641 C 262.554 0.440748 2.29303 0
M  V30 2642 C 263.535 -0.497971 1.62648 0
M  V30 2643 O 264.72 -0.403126 1.8997 0
M  V30 2644 C 261.85 -0.309048 3.45922 0
M  V30 2645 C 260.804 0.54166 4.24559 0
M  V30 2646 C 260.13 -0.337191 5.33636 0
M  V30 2647 C 261.43 1.80516 4.90114 0
M  V30 2648 H 263.124 1.29121 2.70126 0
M  V30 2649 H 260.67 0.622323 1.29858 0
M  V30 2650 H 262.623 -0.659315 4.1621 0
M  V30 2651 H 261.347 -1.19352 3.04011 0
M  V30 2652 H 260.006 0.874609 3.56014 0
M  V30 2653 H 259.654 -1.22056 4.87966 0
M  V30 2654 H 259.354 0.228497 5.87156 0
M  V30 2655 H 260.878 -0.683072 6.06767 0
M  V30 2656 H 262.292 1.52307 5.52698 0
M  V30 2657 H 260.689 2.3142 5.53683 0
M  V30 2658 H 261.759 2.52581 4.13921 0
M  V30 2659 N 263.102 -1.41638 0.69111 0
M  V30 2660 C 264.049 -2.30789 0.0229705 0
M  V30 2661 C 265.019 -1.46863 -0.775911 0
M  V30 2662 O 266.204 -1.75661 -0.74485 0
M  V30 2663 C 263.344 -3.32868 -0.910666 0
M  V30 2664 C 262.457 -4.31875 -0.103874 0
M  V30 2665 C 261.592 -5.21024 -1.03475 0
M  V30 2666 C 260.631 -6.11702 -0.220598 0
M  V30 2667 N 259.768 -6.93349 -1.10504 0
M  V30 2668 H 264.608 -2.87366 0.788978 0
M  V30 2669 H 262.145 -1.41535 0.400794 0
M  V30 2670 H 264.103 -3.90596 -1.46597 0
M  V30 2671 H 262.733 -2.77851 -1.64312 0
M  V30 2672 H 261.785 -3.76131 0.568285 0
M  V30 2673 H 263.097 -4.96003 0.527504 0
M  V30 2674 H 262.251 -5.83565 -1.65943 0
M  V30 2675 H 260.99 -4.57112 -1.69999 0
M  V30 2676 H 259.995 -5.48215 0.417187 0
M  V30 2677 H 261.22 -6.77668 0.440784 0
M  V30 2678 H 259.166 -6.3205 -1.75638 0
M  V30 2679 H 259.083 -7.54146 -0.529125 0
M  V30 2680 H 260.351 -7.60362 -1.71667 0
M  V30 2681 N 264.58 -0.43555 -1.51462 0
M  V30 2682 C 265.827 0.131514 -2.02072 0
M  V30 2683 C 266.155 1.42868 -1.31981 0
M  V30 2684 O 265.41 1.91076 -0.422883 0
M  V30 2685 C 265.709 0.39942 -3.55161 0
M  V30 2686 C 265.375 -0.81172 -4.43533 0
M  V30 2687 C 264.037 -1.14387 -4.67407 0
M  V30 2688 C 266.389 -1.61976 -4.95392 0
M  V30 2689 C 263.717 -2.28477 -5.40384 0
M  V30 2690 C 266.069 -2.75164 -5.6962 0
M  V30 2691 C 264.733 -3.08835 -5.91758 0
M  V30 2692 H 264.003 0.0481244 -0.739436 0
M  V30 2693 H 266.65 -0.58238 -1.8243 0
M  V30 2694 H 264.955 1.19519 -3.73125 0
M  V30 2695 H 266.652 0.85157 -3.91854 0
M  V30 2696 H 263.242 -0.542898 -4.25148 0
M  V30 2697 H 267.426 -1.37637 -4.76833 0
M  V30 2698 H 262.682 -2.5488 -5.55739 0
M  V30 2699 H 266.856 -3.38147 -6.08793 0
M  V30 2700 H 264.483 -3.97353 -6.48086 0
M  V30 2701 N 266.058 1.56714 -0.166846 0
M  V30 2702 C 267.306 1.96358 0.478305 0
M  V30 2703 C 267.627 1.0537 1.6408 0
M  V30 2704 O 266.897 0.119154 1.95537 0
M  V30 2705 H 265.477 0.725065 0.179692 0
M  V30 2706 H 268.139 1.93329 -0.246985 0
M  V30 2707 H 267.235 3.00547 0.841292 0
M  V30 2708 N 267.536 -0.106894 1.57237 0
M  V30 2709 C 268.483 -1.13049 2.01217 0
M  V30 2710 C 269.453 -1.40471 0.886403 0
M  V30 2711 O 270.638 -1.52133 1.15153 0
M  V30 2712 C 267.778 -2.4487 2.43172 0
M  V30 2713 C 266.891 -2.24281 3.69218 0
M  V30 2714 C 266.026 -3.49417 4.00101 0
M  V30 2715 C 265.065 -3.24038 5.19294 0
M  V30 2716 N 264.202 -4.41409 5.45988 0
M  V30 2717 H 269.042 -0.748456 2.88448 0
M  V30 2718 H 266.579 -0.358054 1.42676 0
M  V30 2719 H 268.537 -3.21786 2.65537 0
M  V30 2720 H 267.167 -2.80944 1.58967 0
M  V30 2721 H 266.219 -1.38224 3.54398 0
M  V30 2722 H 267.531 -2.01512 4.56283 0
M  V30 2723 H 266.685 -4.34746 4.2318 0
M  V30 2724 H 265.424 -3.75229 3.11535 0
M  V30 2725 H 264.429 -2.37102 4.96047 0
M  V30 2726 H 265.654 -2.99584 6.09447 0
M  V30 2727 H 263.6 -4.67319 4.60379 0
M  V30 2728 H 263.517 -4.21788 6.274 0
M  V30 2729 H 264.785 -5.27836 5.73593 0
M  V30 2730 N 269.014 -1.53014 -0.377408 0
M  V30 2731 C 270.262 -1.6829 -1.11906 0
M  V30 2732 C 270.583 -0.431206 -1.90173 0
M  V30 2733 O 269.853 0.554595 -1.87886 0
M  V30 2734 H 268.433 -0.620371 -0.416112 0
M  V30 2735 H 271.095 -1.90167 -0.426893 0
M  V30 2736 H 270.191 -2.53862 -1.8155 0
M  V30 2737 N 270.492 0.636531 -1.44174 0
M  V30 2738 C 271.74 1.39343 -1.46383 0
M  V30 2739 C 272.061 1.94766 -0.0955715 0
M  V30 2740 O 271.331 1.75452 0.871395 0
M  V30 2741 H 269.911 0.517199 -0.538994 0
M  V30 2742 H 272.573 0.74957 -1.7991 0
M  V30 2743 H 271.669 2.22746 -2.18611 0
M  V30 2744 N 271.97 1.30982 0.876444 0
M  V30 2745 C 272.902 1.13902 1.98894 0
M  V30 2746 C 273.915 0.0798815 1.62604 0
M  V30 2747 O 275.104 0.326743 1.75484 0
M  V30 2748 C 272.204 0.716699 3.31235 0
M  V30 2749 C 271.377 1.85945 3.95908 0
M  V30 2750 C 270.436 1.42426 5.06558 0
M  V30 2751 O 269.462 2.13287 5.27729 0
M  V30 2752 N 270.664 0.308025 5.79682 0
M  V30 2753 H 273.429 2.09724 2.14094 0
M  V30 2754 H 270.99 1.2323 1.05004 0
M  V30 2755 H 272.982 0.408403 4.02634 0
M  V30 2756 H 271.552 -0.149719 3.12241 0
M  V30 2757 H 270.772 2.33541 3.17573 0
M  V30 2758 H 272.06 2.62503 4.35855 0
M  V30 2759 H 271.458 -0.282241 5.64995 0
M  V30 2760 H 270.015 0.0592282 6.51773 0
M  V30 2761 N 273.449 -1.08991 1.13837 0
M  V30 2762 C 274.412 -2.13925 0.822715 0
M  V30 2763 C 275.412 -1.599 -0.1699 0
M  V30 2764 O 276.602 -1.74104 0.0577251 0
M  V30 2765 C 273.734 -3.40155 0.225318 0
M  V30 2766 H 274.927 -2.43358 1.75262 0
M  V30 2767 H 272.48 -1.24603 0.943594 0
M  V30 2768 H 273.215 -3.16352 -0.713594 0
M  V30 2769 H 273 -3.80661 0.940193 0
M  V30 2770 H 274.49 -4.17594 0.0214784 0
M  V30 2771 N 274.927 -0.932562 -1.27047 0
M  V30 2772 C 275.877 -0.406392 -2.24349 0
M  V30 2773 C 276.861 0.492066 -1.53191 0
M  V30 2774 O 278.053 0.328717 -1.73921 0
M  V30 2775 C 275.182 0.335214 -3.41659 0
M  V30 2776 C 274.268 -0.58004 -4.20115 0
M  V30 2777 N 274.659 -1.70203 -4.76303 0
M  V30 2778 C 272.957 -0.383974 -4.44344 0
M  V30 2779 C 273.658 -2.27167 -5.35509 0
M  V30 2780 N 272.634 -1.56068 -5.20715 0
M  V30 2781 H 276.436 -1.26299 -2.65378 0
M  V30 2782 H 273.95 -0.787408 -1.42034 0
M  V30 2783 H 275.947 0.729142 -4.10474 0
M  V30 2784 H 274.607 1.18868 -3.0216 0
M  V30 2785 H 275.618 -2.08433 -4.74106 0
M  V30 2786 H 272.295 0.428436 -4.15296 0
M  V30 2787 H 273.685 -3.21654 -5.89905 0
M  V30 2788 N 276.405 1.4127 -0.698611 0
M  V30 2789 C 277.821 1.55241 -0.370462 0
M  V30 2790 C 278.021 1.67351 1.12231 0
M  V30 2791 O 277.077 1.65363 1.90818 0
M  V30 2792 C 278.39 2.78997 -1.12165 0
M  V30 2793 C 279.938 2.92797 -1.1063 0
M  V30 2794 C 280.413 4.19445 -1.8393 0
M  V30 2795 N 281.904 4.26409 -1.80914 0
M  V30 2796 C 282.639 5.23271 -2.34467 0
M  V30 2797 N 282.135 6.26145 -2.96504 0
M  V30 2798 N 283.928 5.15232 -2.24706 0
M  V30 2799 H 276.079 1.31654 -1.66676 0
M  V30 2800 H 278.342 0.635393 -0.703548 0
M  V30 2801 H 278.048 2.76268 -2.17644 0
M  V30 2802 H 277.922 3.70606 -0.702209 0
M  V30 2803 H 280.309 2.95039 -0.0597713 0
M  V30 2804 H 280.39 2.02353 -1.56483 0
M  V30 2805 H 280.034 4.17964 -2.88563 0
M  V30 2806 H 279.964 5.08866 -1.35509 0
M  V30 2807 H 282.455 3.527 -1.35687 0
M  V30 2808 H 282.768 6.96451 -3.34927 0
M  V30 2809 H 281.113 6.26638 -3.00583 0
M  V30 2810 H 284.304 4.33789 -1.7591 0
M  V30 2811 H 284.477 5.90552 -2.66745 0
M  V30 2812 N 277.883 0.443576 1.51229 0
M  V30 2813 C 279.123 -0.119889 2.04048 0
M  V30 2814 C 279.487 -1.39418 1.32009 0
M  V30 2815 O 280.688 -2.03829 1.75235 0
M  V30 2816 C 278.959 -0.327233 3.55899 0
M  V30 2817 S 280.518 -0.853208 4.30425 0
M  V30 2818 H 277.336 -0.028921 0.710412 0
M  V30 2819 H 279.938 0.604413 1.85922 0
M  V30 2820 H 278.642 0.606445 4.05895 0
M  V30 2821 H 278.173 -1.07844 3.7833 0
M  V30 2822 H 280.188 -2.13005 4.48155 0
M  V30 2823 N 279.361 -1.56624 0.175154 0
M  V30 2824 C 280.601 -1.98894 -0.471221 0
M  V30 2825 C 280.965 -1.05889 -1.60161 0
M  V30 2826 O 282.166 -1.37315 -2.3108 0
M  V30 2827 C 280.437 -3.44865 -0.938241 0
M  V30 2828 S 281.996 -4.09164 -1.58526 0
M  V30 2829 H 278.814 -0.694686 -0.151434 0
M  V30 2830 H 281.416 -1.93577 0.27352 0
M  V30 2831 H 280.12 -4.10265 -0.10518 0
M  V30 2832 H 279.651 -3.53956 -1.71693 0
M  V30 2833 H 281.666 -4.04528 -2.87352 0
M  V30 2834 N 280.839 0.0985539 -1.57292 0
M  V30 2835 C 282.079 0.808332 -1.87737 0
M  V30 2836 C 282.443 1.7607 -0.76572 0
M  V30 2837 O 283.644 2.51358 -0.952499 0
M  V30 2838 C 281.915 1.52093 -3.23423 0
M  V30 2839 S 283.474 2.26947 -3.75554 0
M  V30 2840 H 280.292 0.269377 -0.657995 0
M  V30 2841 H 282.894 0.0656269 -1.9539 0
M  V30 2842 H 281.598 0.81363 -4.02254 0
M  V30 2843 H 281.129 2.30361 -3.189 0
M  V30 2844 H 283.144 3.53027 -3.48692 0
M  V30 2845 N 282.317 1.53212 0.369288 0
M  V30 2846 C 283.563 1.69466 1.11397 0
M  V30 2847 C 283.896 0.443257 1.89074 0
M  V30 2848 O 283.171 -0.559386 1.86282 0
M  V30 2849 C 283.454 2.9422 2.07621 0
M  V30 2850 C 283.307 4.29508 1.33577 0
M  V30 2851 C 284.626 3.14565 3.07794 0
M  V30 2852 H 281.745 0.616667 0.403597 0
M  V30 2853 H 284.387 1.85845 0.395179 0
M  V30 2854 H 282.537 2.80387 2.68916 0
M  V30 2855 H 284.209 4.55147 0.750955 0
M  V30 2856 H 282.452 4.29088 0.637618 0
M  V30 2857 H 283.123 5.12926 2.03989 0
M  V30 2858 H 285.599 3.2756 2.56601 0
M  V30 2859 H 284.475 4.03297 3.72348 0
M  V30 2860 H 284.736 2.29675 3.77759 0
M  V30 2861 N 283.795 -0.628877 1.44509 0
M  V30 2862 C 284.758 -1.72263 1.51188 0
M  V30 2863 C 285.758 -1.55907 0.39367 0
M  V30 2864 O 286.948 -1.61361 0.656377 0
M  V30 2865 C 284.08 -3.11365 1.38798 0
M  V30 2866 H 285.273 -1.67714 2.4862 0
M  V30 2867 H 282.826 -0.842737 1.31634 0
M  V30 2868 H 283.561 -3.21507 0.424693 0
M  V30 2869 H 283.346 -3.24644 2.19884 0
M  V30 2870 H 284.836 -3.91075 1.46458 0
M  V30 2871 N 285.273 -1.31445 -0.869486 0
M  V30 2872 C 286.55 -1.11795 -1.60503 0
M  V30 2873 C 286.93 0.327168 -2.08549 0
M  V30 2874 O 286.278 1.32135 -1.8642 0
M  V30 2875 C 286.488 -2.13258 -2.76265 0
M  V30 2876 C 287.836 -2.45805 -3.46215 0
M  V30 2877 O 288.86 -2.11688 -2.86473 0
M  V30 2878 O 287.719 -3.04228 -4.5399 0
M  V30 2879 H 284.813 -0.430421 -0.706163 0
M  V30 2880 H 287.359 -1.42925 -0.914907 0
M  V30 2881 H 286.131 -3.10461 -2.3818 0
M  V30 2882 H 285.754 -1.83035 -3.52964 0
M  V30 2883 N 286.751 1.08385 -1.14413 0
M  V30 2884 C 288.167 1.32844 -0.884563 0
M  V30 2885 C 288.367 1.95841 0.474181 0
M  V30 2886 O 287.423 2.21158 1.21842 0
M  V30 2887 C 288.736 2.22978 -2.01745 0
M  V30 2888 C 290.284 2.36458 -2.05077 0
M  V30 2889 C 290.759 3.29934 -3.1766 0
M  V30 2890 N 292.25 3.37511 -3.17239 0
M  V30 2891 C 292.985 4.09871 -4.0099 0
M  V30 2892 N 292.481 4.84936 -4.94781 0
M  V30 2893 N 294.274 4.05704 -3.89051 0
M  V30 2894 H 286.425 0.658756 -2.01926 0
M  V30 2895 H 288.688 0.352821 -0.879899 0
M  V30 2896 H 288.394 1.83934 -2.99769 0
M  V30 2897 H 288.268 3.23441 -1.94077 0
M  V30 2898 H 290.655 2.7476 -1.0766 0
M  V30 2899 H 290.736 1.35736 -2.16816 0
M  V30 2900 H 290.38 2.92352 -4.15322 0
M  V30 2901 H 290.31 4.30584 -3.03158 0
M  V30 2902 H 292.801 2.83996 -2.49308 0
M  V30 2903 H 293.114 5.37612 -5.55151 0
M  V30 2904 H 291.459 4.83988 -4.98779 0
M  V30 2905 H 294.65 3.46167 -3.15097 0
M  V30 2906 H 294.823 4.61834 -4.54547 0
M  V30 2907 N 288.23 0.939286 1.26551 0
M  V30 2908 C 289.458 0.602536 1.97932 0
M  V30 2909 C 289.873 -0.82206 1.69964 0
M  V30 2910 O 289.23 -1.54789 0.966784 0
M  V30 2911 C 289.281 0.832946 3.51773 0
M  V30 2912 O 289.002 2.20151 3.78768 0
M  V30 2913 C 290.503 0.506483 4.40397 0
M  V30 2914 H 287.723 0.227248 0.631347 0
M  V30 2915 H 290.267 1.25948 1.61113 0
M  V30 2916 H 288.422 0.222644 3.8676 0
M  V30 2917 H 288.836 2.26013 4.73306 0
M  V30 2918 H 290.31 0.718333 5.47306 0
M  V30 2919 H 290.787 -0.558451 4.35635 0
M  V30 2920 H 291.393 1.09543 4.10951 0
M  V30 2921 N 289.708 -1.40897 0.706093 0
M  V30 2922 C 290.956 -2.00657 0.241054 0
M  V30 2923 C 291.277 -1.56241 -1.16678 0
M  V30 2924 O 290.547 -0.79765 -1.78926 0
M  V30 2925 H 289.127 -0.742018 0.0861308 0
M  V30 2926 H 291.789 -1.72372 0.909604 0
M  V30 2927 H 290.885 -3.10958 0.266705 0
M  V30 2928 N 291.186 -0.45159 -1.50991 0
M  V30 2929 C 292.136 0.370861 -2.24964 0
M  V30 2930 C 293.12 0.978074 -1.2776 0
M  V30 2931 O 294.312 0.893854 -1.52772 0
M  V30 2932 C 291.441 1.46344 -3.10545 0
M  V30 2933 C 290.527 0.864924 -4.15187 0
M  V30 2934 N 290.918 -0.00311354 -5.058 0
M  V30 2935 C 289.216 1.13099 -4.31422 0
M  V30 2936 C 289.917 -0.340772 -5.80701 0
M  V30 2937 N 288.893 0.279203 -5.42883 0
M  V30 2938 H 292.695 -0.298134 -2.92384 0
M  V30 2939 H 290.209 -0.264528 -1.60231 0
M  V30 2940 H 292.206 2.06565 -3.62128 0
M  V30 2941 H 290.866 2.13463 -2.4467 0
M  V30 2942 H 291.877 -0.37058 -5.16572 0
M  V30 2943 H 288.554 1.79861 -3.76771 0
M  V30 2944 H 289.944 -1.048 -6.63677 0
M  V30 2945 N 292.664 1.56529 -0.183458 0
M  V30 2946 C 293.889 2.02064 0.467428 0
M  V30 2947 C 294.314 1.06282 1.55196 0
M  V30 2948 O 293.672 0.0443565 1.81246 0
M  V30 2949 C 293.72 3.46122 1.01153 0
M  V30 2950 O 292.824 3.53437 2.12499 0
M  V30 2951 H 292.165 0.654726 0.110588 0
M  V30 2952 H 294.695 2.02521 -0.290917 0
M  V30 2953 H 294.705 3.85676 1.33108 0
M  V30 2954 H 293.38 4.15331 0.217533 0
M  V30 2955 H 291.957 3.2575 1.81497 0
M  V30 2956 N 294.142 -0.090211 1.57342 0
M  V30 2957 C 295.072 -1.10976 2.05443 0
M  V30 2958 C 296.053 -1.41482 0.944284 0
M  V30 2959 O 297.238 -1.51428 1.21586 0
M  V30 2960 C 294.368 -2.42831 2.48295 0
M  V30 2961 C 293.322 -2.26721 3.63018 0
M  V30 2962 C 292.648 -3.63796 3.91863 0
M  V30 2963 C 293.948 -1.7037 4.93732 0
M  V30 2964 H 295.642 -0.709564 2.9087 0
M  V30 2965 H 293.188 -0.339874 1.39932 0
M  V30 2966 H 295.141 -3.14431 2.80555 0
M  V30 2967 H 293.865 -2.84795 1.59873 0
M  V30 2968 H 292.524 -1.57565 3.31012 0
M  V30 2969 H 292.172 -4.03297 3.00601 0
M  V30 2970 H 291.872 -3.53861 4.69101 0
M  V30 2971 H 293.396 -4.36855 4.26603 0
M  V30 2972 H 294.81 -2.31816 5.24342 0
M  V30 2973 H 293.207 -1.71181 5.75167 0
M  V30 2974 H 294.277 -0.663542 4.80339 0
M  V30 2975 N 295.62 -1.53406 -0.361157 0
M  V30 2976 C 296.55 -1.83136 -1.44857 0
M  V30 2977 C 297.531 -0.685174 -1.5569 0
M  V30 2978 O 298.716 -0.93544 -1.70186 0
M  V30 2979 C 295.846 -2.02522 -2.82138 0
M  V30 2980 C 294.8 -3.18302 -2.86126 0
M  V30 2981 C 294.126 -3.22989 -4.26125 0
M  V30 2982 C 295.426 -4.56796 -2.53248 0
M  V30 2983 H 297.12 -2.74201 -1.20226 0
M  V30 2984 H 294.666 -1.31938 -0.576922 0
M  V30 2985 H 296.619 -2.21904 -3.58241 0
M  V30 2986 H 295.343 -1.08172 -3.08166 0
M  V30 2987 H 294.002 -2.98747 -2.12475 0
M  V30 2988 H 293.65 -2.26267 -4.49235 0
M  V30 2989 H 293.35 -4.00781 -4.29708 0
M  V30 2990 H 294.874 -3.44559 -5.04094 0
M  V30 2991 H 296.288 -4.7631 -3.19064 0
M  V30 2992 H 294.685 -5.36862 -2.68141 0
M  V30 2993 H 295.755 -4.61606 -1.48484 0
M  V30 2994 N 297.098 0.621204 -1.44841 0
M  V30 2995 C 298.048 1.72663 -1.48901 0
M  V30 2996 C 299.032 1.56964 -0.353702 0
M  V30 2997 O 300.224 1.66532 -0.599669 0
M  V30 2998 C 297.353 3.11381 -1.44557 0
M  V30 2999 C 296.439 3.32514 -2.6324 0
M  V30 3000 N 296.83 3.23969 -3.8843 0
M  V30 3001 C 295.128 3.63343 -2.58647 0
M  V30 3002 C 295.829 3.46062 -4.67564 0
M  V30 3003 N 294.805 3.69407 -3.98797 0
M  V30 3004 H 298.607 1.64529 -2.43531 0
M  V30 3005 H 296.121 0.82401 -1.39942 0
M  V30 3006 H 298.118 3.90667 -1.4555 0
M  V30 3007 H 296.778 3.20674 -0.509731 0
M  V30 3008 H 297.789 3.02669 -4.20252 0
M  V30 3009 H 294.466 3.79556 -1.73906 0
M  V30 3010 H 295.856 3.44963 -5.76585 0
M  V30 3011 N 298.576 1.31904 0.862503 0
M  V30 3012 C 299.804 1.24998 1.64873 0
M  V30 3013 C 300.219 -0.183425 1.87907 0
M  V30 3014 O 299.576 -1.11794 1.44251 0
M  V30 3015 C 299.627 1.99829 3.01248 0
M  V30 3016 O 299.348 3.37575 2.79239 0
M  V30 3017 C 300.849 1.99852 3.95694 0
M  V30 3018 H 298.069 0.431599 0.513773 0
M  V30 3019 H 300.613 1.73901 1.07604 0
M  V30 3020 H 298.768 1.54668 3.55185 0
M  V30 3021 H 299.182 3.75776 3.65914 0
M  V30 3022 H 300.656 2.56709 4.88676 0
M  V30 3023 H 301.133 0.982852 4.28062 0
M  V30 3024 H 301.739 2.44926 3.47694 0
M  V30 3025 N 300.054 -1.07777 1.14986 0
M  V30 3026 C 300.984 -2.16865 0.865557 0
M  V30 3027 C 301.965 -1.69123 -0.182083 0
M  V30 3028 O 303.15 -1.94164 -0.0373815 0
M  V30 3029 C 300.28 -3.45539 0.349313 0
M  V30 3030 C 299.234 -4.06708 1.33313 0
M  V30 3031 C 298.56 -5.30411 0.675918 0
M  V30 3032 C 299.86 -4.47241 2.69764 0
M  V30 3033 H 301.554 -2.40905 1.77778 0
M  V30 3034 H 299.1 -1.15781 0.856203 0
M  V30 3035 H 301.053 -4.21174 0.137983 0
M  V30 3036 H 299.777 -3.21072 -0.598362 0
M  V30 3037 H 298.436 -3.33112 1.53075 0
M  V30 3038 H 298.084 -5.02232 -0.277767 0
M  V30 3039 H 297.784 -5.72293 1.33244 0
M  V30 3040 H 299.308 -6.08755 0.474262 0
M  V30 3041 H 300.722 -5.14025 2.53873 0
M  V30 3042 H 299.119 -5.00062 3.3175 0
M  V30 3043 H 300.189 -3.58818 3.26156 0
M  V30 3044 N 301.532 -0.945985 -1.26051 0
M  V30 3045 C 302.762 -0.612136 -1.97323 0
M  V30 3046 C 303.17 0.818171 -1.70595 0
M  V30 3047 O 302.513 1.55777 -0.973613 0
M  V30 3048 C 302.575 -0.780347 -3.50929 0
M  V30 3049 C 302.239 -2.18619 -4.01317 0
M  V30 3050 C 303.236 -3.16209 -4.12683 0
M  V30 3051 C 300.921 -2.50805 -4.35203 0
M  V30 3052 C 302.915 -4.44085 -4.57238 0
M  V30 3053 C 300.602 -3.78912 -4.79446 0
M  V30 3054 C 301.6 -4.75365 -4.90425 0
M  V30 3055 O 301.288 -6.01191 -5.3369 0
M  V30 3056 H 301.02 -0.229134 -0.635982 0
M  V30 3057 H 303.574 -1.27036 -1.61404 0
M  V30 3058 H 301.804 -0.0649864 -3.86645 0
M  V30 3059 H 303.493 -0.448842 -4.03411 0
M  V30 3060 H 304.259 -2.92668 -3.86744 0
M  V30 3061 H 300.138 -1.76463 -4.2589 0
M  V30 3062 H 303.682 -5.19373 -4.65723 0
M  V30 3063 H 299.579 -4.02265 -5.0483 0
M  V30 3064 H 300.347 -6.04442 -5.51899 0
M  V30 3065 N 303.011 1.40521 -0.713556 0
M  V30 3066 C 304.259 2.00527 -0.251692 0
M  V30 3067 C 304.58 1.56857 1.15848 0
M  V30 3068 O 303.85 0.807127 1.785 0
M  V30 3069 H 302.43 0.741551 -0.0900646 0
M  V30 3070 H 305.092 1.71887 -0.918733 0
M  V30 3071 H 304.188 3.10813 -0.283192 0
M  V30 3072 N 304.489 0.459591 1.5075 0
M  V30 3073 C 305.905 0.113092 1.59199 0
M  V30 3074 C 306.105 -1.37951 1.46874 0
M  V30 3075 O 305.161 -2.15168 1.32132 0
M  V30 3076 C 306.474 0.653043 2.93523 0
M  V30 3077 C 308.022 0.615449 3.0689 0
M  V30 3078 C 308.497 1.13275 4.43771 0
M  V30 3079 N 309.988 1.09167 4.50152 0
M  V30 3080 C 310.723 1.46256 5.54434 0
M  V30 3081 N 310.219 1.90739 6.66026 0
M  V30 3082 N 312.012 1.37932 5.44914 0
M  V30 3083 H 304.163 1.43049 1.57005 0
M  V30 3084 H 306.426 0.590861 0.741341 0
M  V30 3085 H 306.132 1.69822 3.07983 0
M  V30 3086 H 306.006 0.0902132 3.77092 0
M  V30 3087 H 308.393 -0.420793 2.92084 0
M  V30 3088 H 308.474 1.21495 2.25106 0
M  V30 3089 H 308.118 2.16757 4.59324 0
M  V30 3090 H 308.048 0.509576 5.24129 0
M  V30 3091 H 310.539 0.76528 3.7007 0
M  V30 3092 H 310.852 2.17218 7.41644 0
M  V30 3093 H 309.197 1.94683 6.67176 0
M  V30 3094 H 312.388 1.0303 4.56621 0
M  V30 3095 H 312.561 1.67164 6.26067 0
M  V30 3096 N 305.967 -1.56429 0.191757 0
M  V30 3097 C 307.192 -2.02309 -0.456706 0
M  V30 3098 C 307.617 -1.07103 -1.5463 0
M  V30 3099 O 306.975 -0.0539677 -1.8122 0
M  V30 3100 C 307.023 -3.46654 -0.993159 0
M  V30 3101 O 306.127 -3.54559 -2.10622 0
M  V30 3102 H 305.468 -0.655303 -0.107114 0
M  V30 3103 H 307.998 -2.02364 0.301653 0
M  V30 3104 H 308.008 -3.86377 -1.31061 0
M  V30 3105 H 306.683 -4.1544 -0.195504 0
M  V30 3106 H 305.26 -3.26708 -1.79767 0
M  V30 3107 N 307.445 0.0818655 -1.57387 0
M  V30 3108 C 308.375 1.09885 -2.06028 0
M  V30 3109 C 309.356 1.4098 -0.951774 0
M  V30 3110 O 310.541 1.50781 -1.22387 0
M  V30 3111 C 307.671 2.4151 -2.4958 0
M  V30 3112 C 306.625 2.24792 -3.64215 0
M  V30 3113 C 305.951 3.61712 -3.93787 0
M  V30 3114 C 307.251 1.67749 -4.94629 0
M  V30 3115 H 308.945 0.694128 -2.91243 0
M  V30 3116 H 306.491 0.332448 -1.4011 0
M  V30 3117 H 308.444 3.12939 -2.82219 0
M  V30 3118 H 307.168 2.83943 -1.61381 0
M  V30 3119 H 305.827 1.55807 -3.31843 0
M  V30 3120 H 305.475 4.01697 -3.02735 0
M  V30 3121 H 305.175 3.51368 -4.70971 0
M  V30 3122 H 306.699 4.34587 -4.28913 0
M  V30 3123 H 308.113 2.29032 -5.25564 0
M  V30 3124 H 306.51 1.68128 -5.76067 0
M  V30 3125 H 307.58 0.638059 -4.80684 0
M  V30 3126 N 308.923 1.53595 0.353017 0
M  V30 3127 C 310.339 1.43648 0.695516 0
M  V30 3128 C 310.539 0.585617 1.92802 0
M  V30 3129 O 309.595 0.0729223 2.52395 0
M  V30 3130 C 310.908 2.8701 0.896991 0
M  V30 3131 C 312.456 2.96723 0.996209 0
M  V30 3132 C 312.931 4.41173 1.23007 0
M  V30 3133 N 314.422 4.44657 1.29749 0
M  V30 3134 C 315.157 5.53547 1.49577 0
M  V30 3135 N 314.653 6.72461 1.66639 0
M  V30 3136 N 316.446 5.41145 1.52048 0
M  V30 3137 H 308.597 2.07415 -0.457481 0
M  V30 3138 H 310.86 0.9372 -0.142687 0
M  V30 3139 H 310.566 3.51644 0.0629938 0
M  V30 3140 H 310.44 3.31401 1.80148 0
M  V30 3141 H 312.827 2.32235 1.82074 0
M  V30 3142 H 312.908 2.55707 0.0688331 0
M  V30 3143 H 312.552 5.06238 0.410505 0
M  V30 3144 H 312.482 4.79772 2.17086 0
M  V30 3145 H 314.973 3.58963 1.18126 0
M  V30 3146 H 315.286 7.51214 1.81378 0
M  V30 3147 H 313.631 6.75423 1.63794 0
M  V30 3148 H 316.822 4.47205 1.38294 0
M  V30 3149 H 316.995 6.26068 1.67159 0
M  V30 3150 N 310.401 -0.613514 1.45168 0
M  V30 3151 C 311.631 -1.39743 1.52169 0
M  V30 3152 C 312.039 -1.88596 0.151086 0
M  V30 3153 O 311.382 -1.6251 -0.856521 0
M  V30 3154 C 311.444 -2.64035 2.43979 0
M  V30 3155 C 311.108 -2.36861 3.90827 0
M  V30 3156 C 312.105 -1.97591 4.80889 0
M  V30 3157 C 309.79 -2.49956 4.35692 0
M  V30 3158 C 311.784 -1.71768 6.1382 0
M  V30 3159 C 309.471 -2.23747 5.68665 0
M  V30 3160 C 310.469 -1.84714 6.57548 0
M  V30 3161 O 310.157 -1.58809 7.88058 0
M  V30 3162 H 309.889 -0.434382 0.517966 0
M  V30 3163 H 312.443 -0.75587 1.90986 0
M  V30 3164 H 310.673 -3.3089 2.00122 0
M  V30 3165 H 312.362 -3.26069 2.41731 0
M  V30 3166 H 313.128 -1.87015 4.47493 0
M  V30 3167 H 309.007 -2.79305 3.66756 0
M  V30 3168 H 312.551 -1.41227 6.83155 0
M  V30 3169 H 308.448 -2.33938 6.01617 0
M  V30 3170 H 309.216 -1.7291 8.00028 0
M  V30 3171 N 311.879 -1.3236 -0.855495 0
M  V30 3172 C 313.156 -1.13491 -1.59309 0
M  V30 3173 C 313.536 0.30503 -2.08885 0
M  V30 3174 O 312.884 1.30151 -1.87811 0
M  V30 3175 C 313.094 -2.16176 -2.73987 0
M  V30 3176 C 314.442 -2.49463 -3.43589 0
M  V30 3177 O 315.466 -2.14715 -2.84211 0
M  V30 3178 O 314.325 -3.09027 -4.50738 0
M  V30 3179 H 311.419 -0.437887 -0.701559 0
M  V30 3180 H 313.965 -1.43887 -0.899696 0
M  V30 3181 H 312.737 -3.1297 -2.34873 0
M  V30 3182 H 312.36 -1.86769 -3.51003 0
M  V30 3183 N 313.357 1.07166 -1.15556 0
M  V30 3184 C 314.585 1.83514 -0.955519 0
M  V30 3185 C 315 1.82163 0.49621 0
M  V30 3186 O 314.357 1.23441 1.34419 0
M  V30 3187 C 314.408 3.30515 -1.46432 0
M  V30 3188 O 314.129 3.31937 -2.85918 0
M  V30 3189 C 315.63 4.23625 -1.30603 0
M  V30 3190 H 312.85 0.578926 -0.339244 0
M  V30 3191 H 315.394 1.35265 -1.53374 0
M  V30 3192 H 313.549 3.76106 -0.928584 0
M  V30 3193 H 313.963 4.23794 -3.09029 0
M  V30 3194 H 315.437 5.24831 -1.71047 0
M  V30 3195 H 315.914 4.38485 -0.250441 0
M  V30 3196 H 316.52 3.83871 -1.83094 0
M  V30 3197 N 314.835 0.952656 1.25548 0
M  V30 3198 C 316.06 0.623025 1.97821 0
M  V30 3199 C 316.485 -0.7976 1.70352 0
M  V30 3200 O 315.843 -1.53905 0.958283 0
M  V30 3201 C 315.891 0.885532 3.49558 0
M  V30 3202 O 314.995 -0.0366641 4.12384 0
M  V30 3203 H 314.336 0.237082 0.620232 0
M  V30 3204 H 316.866 1.27871 1.59719 0
M  V30 3205 H 316.876 0.811009 3.99858 0
M  V30 3206 H 315.551 1.92094 3.6888 0
M  V30 3207 H 314.128 0.0898954 3.72792 0
M  V30 3208 N 316.313 -1.40141 0.720998 0
M  V30 3209 C 317.543 -2.04798 0.27226 0
M  V30 3210 C 317.951 -1.54442 -1.09289 0
M  V30 3211 O 317.294 -0.698342 -1.69908 0
M  V30 3212 C 317.356 -3.59048 0.18027 0
M  V30 3213 C 317.02 -4.32317 1.48159 0
M  V30 3214 C 318.017 -4.59902 2.42458 0
M  V30 3215 C 315.702 -4.71125 1.74202 0
M  V30 3216 C 317.696 -5.25288 3.61042 0
M  V30 3217 C 315.383 -5.36242 2.93066 0
M  V30 3218 C 316.381 -5.63254 3.86308 0
M  V30 3219 O 316.069 -6.27024 5.03086 0
M  V30 3220 H 315.801 -0.665419 0.119139 0
M  V30 3221 H 318.355 -1.80436 0.981432 0
M  V30 3222 H 316.585 -3.82251 -0.58489 0
M  V30 3223 H 318.274 -4.05221 -0.234618 0
M  V30 3224 H 319.04 -4.30379 2.23604 0
M  V30 3225 H 314.919 -4.49466 1.02477 0
M  V30 3226 H 318.463 -5.46289 4.33837 0
M  V30 3227 H 314.36 -5.65185 3.11826 0
M  V30 3228 H 315.128 -6.4552 5.03235 0
M  V30 3229 N 317.792 -0.46758 -1.50504 0
M  V30 3230 C 319.039 0.0886219 -2.02306 0
M  V30 3231 C 319.367 1.40037 -1.34981 0
M  V30 3232 O 318.622 1.90136 -0.463318 0
M  V30 3233 C 318.921 0.323995 -3.55928 0
M  V30 3234 C 318.587 -0.905618 -4.41712 0
M  V30 3235 C 317.249 -1.24275 -4.64875 0
M  V30 3236 C 319.601 -1.72448 -4.91845 0
M  V30 3237 C 316.929 -2.39888 -5.35417 0
M  V30 3238 C 319.281 -2.87185 -5.63656 0
M  V30 3239 C 317.945 -3.21317 -5.85074 0
M  V30 3240 H 317.215 0.0324291 -0.74029 0
M  V30 3241 H 319.862 -0.620945 -1.81153 0
M  V30 3242 H 318.167 1.11577 -3.75577 0
M  V30 3243 H 319.864 0.76826 -3.93572 0
M  V30 3244 H 316.454 -0.632956 -4.239 0
M  V30 3245 H 320.638 -1.4772 -4.73806 0
M  V30 3246 H 315.894 -2.66611 -5.50208 0
M  V30 3247 H 320.068 -3.50985 -6.01484 0
M  V30 3248 H 317.695 -4.1101 -6.39511 0
M  V30 3249 N 319.27 1.56325 -0.20005 0
M  V30 3250 C 320.516 1.98012 0.438059 0
M  V30 3251 C 320.849 1.08702 1.60927 0
M  V30 3252 O 320.124 0.140064 1.93995 0
M  V30 3253 C 320.407 3.48841 0.893419 0
M  V30 3254 C 320.26 4.48928 -0.279947 0
M  V30 3255 C 321.579 4.03498 1.75719 0
M  V30 3256 H 318.698 0.719918 0.157757 0
M  V30 3257 H 321.34 1.87743 -0.291968 0
M  V30 3258 H 319.49 3.57723 1.51547 0
M  V30 3259 H 321.162 4.52079 -0.91772 0
M  V30 3260 H 319.405 4.23694 -0.930919 0
M  V30 3261 H 320.076 5.5194 0.0812601 0
M  V30 3262 H 322.552 3.97427 1.23253 0
M  V30 3263 H 321.428 5.09393 2.04476 0
M  V30 3264 H 321.689 3.4906 2.71311 0
M  V30 3265 N 320.748 -0.0735177 1.57428 0
M  V30 3266 C 321.658 -1.10547 2.06922 0
M  V30 3267 C 322.674 -1.42506 0.998402 0
M  V30 3268 O 323.85 -1.52717 1.31299 0
M  V30 3269 C 320.915 -2.40019 2.50184 0
M  V30 3270 C 319.976 -2.15046 3.71556 0
M  V30 3271 C 319.209 -3.38345 4.12745 0
M  V30 3272 O 319.432 -4.47399 3.53822 0
M  V30 3273 O 318.366 -3.2666 5.05546 0
M  V30 3274 H 322.192 -0.715013 2.95163 0
M  V30 3275 H 319.777 -0.287531 1.46607 0
M  V30 3276 H 321.659 -3.16218 2.78539 0
M  V30 3277 H 320.334 -2.78447 1.65072 0
M  V30 3278 H 319.241 -1.36558 3.48285 0
M  V30 3279 H 320.574 -1.81499 4.57514 0
M  V30 3280 N 322.226 -1.5378 -0.344866 0
M  V30 3281 C 323.456 -1.74646 -1.10374 0
M  V30 3282 C 323.864 -0.48491 -1.8288 0
M  V30 3283 O 323.207 0.553062 -1.75177 0
M  V30 3284 C 323.269 -2.87145 -2.16306 0
M  V30 3285 C 322.933 -4.26795 -1.63386 0
M  V30 3286 C 323.93 -5.08412 -1.08688 0
M  V30 3287 C 321.615 -4.73276 -1.68272 0
M  V30 3288 C 323.609 -6.34609 -0.595792 0
M  V30 3289 C 321.296 -5.99446 -1.18776 0
M  V30 3290 C 322.294 -6.79946 -0.645215 0
M  V30 3291 O 321.982 -8.03745 -0.157626 0
M  V30 3292 H 321.714 -0.587112 -0.335075 0
M  V30 3293 H 324.268 -2.01403 -0.403252 0
M  V30 3294 H 322.498 -2.55909 -2.89909 0
M  V30 3295 H 324.187 -2.95992 -2.77747 0
M  V30 3296 H 324.953 -4.73666 -1.04236 0
M  V30 3297 H 320.832 -4.10677 -2.09442 0
M  V30 3298 H 324.376 -6.97389 -0.171654 0
M  V30 3299 H 320.273 -6.33687 -1.22928 0
M  V30 3300 H 321.041 -8.18038 -0.275037 0
M  V30 3301 N 323.704 0.605807 -1.45491 0
M  V30 3302 C 324.951 1.36476 -1.49601 0
M  V30 3303 C 325.279 1.94007 -0.138452 0
M  V30 3304 O 324.534 1.75638 0.863114 0
M  V30 3305 C 324.833 2.53012 -2.52428 0
M  V30 3306 C 324.499 2.13617 -3.97087 0
M  V30 3307 C 323.161 2.02587 -4.36477 0
M  V30 3308 C 325.513 1.82899 -4.88055 0
M  V30 3309 C 322.841 1.59064 -5.64726 0
M  V30 3310 C 325.193 1.40861 -6.16718 0
M  V30 3311 C 323.857 1.28391 -6.55036 0
M  V30 3312 H 323.127 0.499402 -0.547429 0
M  V30 3313 H 325.774 0.684546 -1.78847 0
M  V30 3314 H 324.079 3.26379 -2.16758 0
M  V30 3315 H 325.776 3.1124 -2.52845 0
M  V30 3316 H 322.366 2.23129 -3.65939 0
M  V30 3317 H 326.55 1.90317 -4.58359 0
M  V30 3318 H 321.806 1.48034 -5.93208 0
M  V30 3319 H 325.98 1.16138 -6.86648 0
M  V30 3320 H 323.607 0.944403 -7.54311 0
M  V30 3321 N 325.182 1.32811 0.848464 0
M  V30 3322 C 326.145 1.22194 1.9391 0
M  V30 3323 C 327.145 0.143404 1.60159 0
M  V30 3324 O 328.335 0.394253 1.6968 0
M  V30 3325 C 325.467 0.88067 3.29328 0
M  V30 3326 H 326.66 2.19127 2.04752 0
M  V30 3327 H 324.213 1.16731 1.0394 0
M  V30 3328 H 324.948 -0.0865776 3.24184 0
M  V30 3329 H 324.733 1.66052 3.55203 0
M  V30 3330 H 326.223 0.830871 4.09251 0
M  V30 3331 N 326.66 -1.06551 1.16123 0
M  V30 3332 C 327.59 -2.15935 0.88851 0
M  V30 3333 C 328.571 -1.69306 -0.164135 0
M  V30 3334 O 329.756 -1.94193 -0.0167857 0
M  V30 3335 C 326.886 -3.45149 0.385942 0
M  V30 3336 C 325.84 -4.05271 1.3762 0
M  V30 3337 C 325.166 -5.29664 0.732137 0
M  V30 3338 C 326.466 -4.44355 2.74493 0
M  V30 3339 H 328.16 -2.39006 1.80323 0
M  V30 3340 H 325.706 -1.14866 0.868435 0
M  V30 3341 H 327.659 -4.21004 0.182647 0
M  V30 3342 H 326.383 -3.21689 -0.564274 0
M  V30 3343 H 325.042 -3.3147 1.56599 0
M  V30 3344 H 324.69 -5.02499 -0.224483 0
M  V30 3345 H 324.39 -5.70848 1.39307 0
M  V30 3346 H 325.914 -6.08218 0.538802 0
M  V30 3347 H 327.328 -5.11303 2.59311 0
M  V30 3348 H 325.725 -4.96515 3.37035 0
M  V30 3349 H 326.795 -3.55339 3.29943 0
M  V30 3350 N 328.138 -0.959301 -1.25041 0
M  V30 3351 C 329.415 -0.533805 -1.88175 0
M  V30 3352 C 329.795 0.988994 -1.865 0
M  V30 3353 O 329.143 1.85677 -1.33177 0
M  V30 3354 C 329.353 -1.11575 -3.30684 0
M  V30 3355 C 330.701 -1.19548 -4.07423 0
M  V30 3356 O 331.725 -1.06765 -3.39823 0
M  V30 3357 O 330.584 -1.39656 -5.28354 0
M  V30 3358 H 327.678 -0.176772 -0.807887 0
M  V30 3359 H 330.224 -1.05303 -1.33076 0
M  V30 3360 H 328.996 -2.15884 -3.26358 0
M  V30 3361 H 328.619 -0.580059 -3.93346 0
M  V30 3362 N 329.616 1.39756 -0.72842 0
M  V30 3363 C 330.546 2.33289 -0.0991354 0
M  V30 3364 C 331.527 1.53568 0.731489 0
M  V30 3365 O 332.712 1.81987 0.677807 0
M  V30 3366 C 329.842 3.3763 0.813834 0
M  V30 3367 C 328.796 4.2791 0.0878663 0
M  V30 3368 C 328.122 5.22894 1.11741 0
M  V30 3369 C 329.422 5.11314 -1.06563 0
M  V30 3370 H 331.116 2.86163 -0.880408 0
M  V30 3371 H 328.662 1.37591 -0.424819 0
M  V30 3372 H 330.615 4.0201 1.26355 0
M  V30 3373 H 329.339 2.83181 1.62715 0
M  V30 3374 H 327.998 3.65 -0.342159 0
M  V30 3375 H 327.646 4.64744 1.92412 0
M  V30 3376 H 327.346 5.84143 0.636477 0
M  V30 3377 H 328.87 5.90151 1.56697 0
M  V30 3378 H 330.284 5.69076 -0.694671 0
M  V30 3379 H 328.681 5.81671 -1.47577 0
M  V30 3380 H 329.751 4.46534 -1.89038 0
M  V30 3381 N 331.094 0.475555 1.50254 0
M  V30 3382 C 332.024 -0.30611 2.31485 0
M  V30 3383 C 333.005 -0.986228 1.38591 0
M  V30 3384 O 334.19 -0.982541 1.67511 0
M  V30 3385 C 331.32 -1.38588 3.1845 0
M  V30 3386 C 330.274 -0.827115 4.19932 0
M  V30 3387 C 329.6 -2.00551 4.95665 0
M  V30 3388 C 330.9 0.16463 5.2204 0
M  V30 3389 H 332.594 0.371866 2.97082 0
M  V30 3390 H 330.14 0.180282 1.42867 0
M  V30 3391 H 332.093 -1.94023 3.74076 0
M  V30 3392 H 330.817 -2.09269 2.50747 0
M  V30 3393 H 329.476 -0.294702 3.65414 0
M  V30 3394 H 329.124 -2.6994 4.2443 0
M  V30 3395 H 328.824 -1.63784 5.64313 0
M  V30 3396 H 330.348 -2.56468 5.54127 0
M  V30 3397 H 331.762 -0.300699 5.72511 0
M  V30 3398 H 330.159 0.446813 5.98434 0
M  V30 3399 H 331.229 1.08905 4.72512 0
M  V30 3400 N 332.573 -1.56217 0.208337 0
M  V30 3401 C 333.506 -2.15633 -0.746842 0
M  V30 3402 C 334.484 -1.09685 -1.20034 0
M  V30 3403 O 335.668 -1.3787 -1.28547 0
M  V30 3404 C 332.795 -2.72594 -2.01023 0
M  V30 3405 C 331.841 -3.91251 -1.69779 0
M  V30 3406 S 332.674 -5.28962 -0.834209 0
M  V30 3407 C 333.83 -5.89353 -2.10745 0
M  V30 3408 H 334.063 -2.96315 -0.241789 0
M  V30 3409 H 331.596 -1.54398 -0.00682183 0
M  V30 3410 H 333.554 -3.06053 -2.73572 0
M  V30 3411 H 332.215 -1.91929 -2.48641 0
M  V30 3412 H 331.408 -4.29562 -2.63614 0
M  V30 3413 H 331.01 -3.58869 -1.05303 0
M  V30 3414 H 333.302 -6.04522 -3.05875 0
M  V30 3415 H 334.245 -6.85661 -1.76845 0
M  V30 3416 H 334.653 -5.1807 -2.24196 0
M  V30 3417 N 334.051 0.0651679 -1.57465 0
M  V30 3418 C 334.961 1.09448 -2.07505 0
M  V30 3419 C 335.977 1.41974 -1.00595 0
M  V30 3420 O 337.153 1.52018 -1.32107 0
M  V30 3421 C 334.218 2.38689 -2.51453 0
M  V30 3422 C 333.279 2.13073 -3.72691 0
M  V30 3423 C 332.512 3.36152 -4.14533 0
M  V30 3424 O 332.735 4.45517 -3.56189 0
M  V30 3425 O 331.669 3.23974 -5.07272 0
M  V30 3426 H 335.495 0.69935 -2.95538 0
M  V30 3427 H 333.08 0.279752 -1.46757 0
M  V30 3428 H 334.962 3.14736 -2.80212 0
M  V30 3429 H 333.637 2.77568 -1.66546 0
M  V30 3430 H 332.544 1.34709 -3.49005 0
M  V30 3431 H 333.877 1.79071 -4.5847 0
M  V30 3432 N 335.529 1.53961 0.336706 0
M  V30 3433 C 336.477 1.83136 1.43401 0
M  V30 3434 C 337.471 0.702313 1.54156 0
M  V30 3435 O 338.677 0.885765 1.56698 0
M  V30 3436 H 335.052 0.580309 0.478273 0
M  V30 3437 H 337.023 2.74925 1.16012 0
M  V30 3438 C 335.772 2.06385 2.79822 0
M  V30 3439 H 335.095 2.92718 2.72316 0
M  V30 3440 H 336.535 2.30761 3.55704 0
M  V30 3441 C 334.994 0.851414 3.25964 0
M  V30 3442 O 335.524 0.0541904 4.01663 0
M  V30 3443 N 333.73 0.66672 2.82848 0
M  V30 3444 H 333.277 1.31665 2.21409 0
M  V30 3445 H 333.235 -0.143032 3.14074 0
M  V30 3446 N 337.007 -0.598083 1.45811 0
M  V30 3447 C 338.255 -1.35413 1.50026 0
M  V30 3448 C 338.576 -1.94444 0.147177 0
M  V30 3449 O 337.846 -1.77701 -0.824571 0
M  V30 3450 H 336.426 -0.502727 0.552517 0
M  V30 3451 H 339.088 -0.701606 1.81834 0
M  V30 3452 H 338.184 -2.16871 2.2444 0
M  V30 3453 N 338.485 -1.33259 -0.841409 0
M  V30 3454 C 339.395 -1.25332 -1.98316 0
M  V30 3455 C 340.411 -0.164364 -1.73222 0
M  V30 3456 O 341.587 -0.387486 -1.97637 0
M  V30 3457 C 338.652 -0.990078 -3.32262 0
M  V30 3458 C 337.713 -2.16879 -3.70489 0
M  V30 3459 C 336.946 -1.91801 -4.98044 0
M  V30 3460 O 337.169 -0.867075 -5.63771 0
M  V30 3461 O 336.103 -2.78267 -5.33714 0
M  V30 3462 H 339.929 -2.21344 -2.07944 0
M  V30 3463 H 337.514 -1.1328 -0.974058 0
M  V30 3464 H 339.396 -0.860321 -4.12524 0
M  V30 3465 H 338.071 -0.0602155 -3.23644 0
M  V30 3466 H 336.978 -2.35407 -2.90748 0
M  V30 3467 H 338.311 -3.0819 -3.8377 0
M  V30 3468 N 339.963 1.05934 -1.16686 0
M  V30 3469 C 341.203 1.80382 -0.961345 0
M  V30 3470 C 341.567 1.85331 0.501643 0
M  V30 3471 O 342.768 2.55795 0.825986 0
M  V30 3472 C 341.039 3.20777 -1.57596 0
M  V30 3473 S 342.598 4.11795 -1.51559 0
M  V30 3474 H 339.416 0.621332 -0.345641 0
M  V30 3475 H 342.018 1.27157 -1.48497 0
M  V30 3476 H 340.722 3.14773 -2.63337 0
M  V30 3477 H 340.253 3.79078 -1.05182 0
M  V30 3478 H 342.268 4.93485 -0.518374 0
M  V30 3479 N 341.441 0.965919 1.2453 0
M  V30 3480 C 342.857 0.67216 1.44756 0
M  V30 3481 C 343.057 -0.766609 1.86347 0
M  V30 3482 O 342.113 -1.5407 2.00047 0
M  V30 3483 C 343.426 1.65473 2.51076 0
M  V30 3484 C 344.974 1.66716 2.64905 0
M  V30 3485 C 345.449 2.63766 3.74421 0
M  V30 3486 N 346.94 2.62198 3.81846 0
M  V30 3487 C 347.675 3.33966 4.66106 0
M  V30 3488 N 347.171 4.15245 5.54566 0
M  V30 3489 N 348.964 3.22799 4.60171 0
M  V30 3490 H 341.115 1.89553 0.958293 0
M  V30 3491 H 343.378 0.815979 0.482579 0
M  V30 3492 H 343.084 2.68296 2.27399 0
M  V30 3493 H 342.958 1.4261 3.49202 0
M  V30 3494 H 345.345 0.646057 2.87941 0
M  V30 3495 H 345.426 1.93642 1.67142 0
M  V30 3496 H 345.07 3.6601 3.52135 0
M  V30 3497 H 345 2.34121 4.71694 0
M  V30 3498 H 347.491 2.032 3.18619 0
M  V30 3499 H 347.804 4.66898 6.15814 0
M  V30 3500 H 346.149 4.1934 5.54237 0
M  V30 3501 H 349.34 2.58764 3.90075 0
M  V30 3502 H 349.513 3.78994 5.25612 0
M  V30 3503 N 342.919 -1.39368 0.735821 0
M  V30 3504 C 344.167 -2.00101 0.283562 0
M  V30 3505 C 344.488 -1.5868 -1.13338 0
M  V30 3506 O 343.758 -0.835423 -1.77193 0
M  V30 3507 H 342.338 -0.740024 0.101851 0
M  V30 3508 H 345 -1.70404 0.945962 0
M  V30 3509 H 344.096 -3.10323 0.332604 0
M  V30 3510 N 344.397 -0.483516 -1.5 0
M  V30 3511 C 345.643 0.0672592 -2.02688 0
M  V30 3512 C 345.976 1.38247 -1.36387 0
M  V30 3513 O 345.251 1.88131 -0.493675 0
M  V30 3514 C 345.534 0.238109 -3.59312 0
M  V30 3515 C 345.387 -1.099 -4.36168 0
M  V30 3516 C 346.706 0.986916 -4.28892 0
M  V30 3517 H 343.825 0.0229696 -0.736642 0
M  V30 3518 H 346.467 -0.631527 -1.79197 0
M  V30 3519 H 344.617 0.8333 -3.79458 0
M  V30 3520 H 346.289 -1.73172 -4.27562 0
M  V30 3521 H 344.532 -1.69261 -3.99416 0
M  V30 3522 H 345.203 -0.932954 -5.44059 0
M  V30 3523 H 347.679 0.482302 -4.13295 0
M  V30 3524 H 346.555 1.07527 -5.38265 0
M  V30 3525 H 346.816 2.0265 -3.92919 0
M  V30 3526 N 345.875 1.56104 -0.216619 0
M  V30 3527 C 347.124 1.97348 0.416744 0
M  V30 3528 C 347.437 1.10715 1.6125 0
M  V30 3529 O 348.643 1.41836 2.31506 0
M  V30 3530 C 347.099 3.51059 0.792835 0
M  V30 3531 C 346.707 4.46387 -0.379828 0
M  V30 3532 C 348.451 4.01026 1.39208 0
M  V30 3533 C 346.358 5.91397 0.0184223 0
M  V30 3534 H 345.288 0.736942 0.159475 0
M  V30 3535 H 347.939 1.80827 -0.31205 0
M  V30 3536 H 346.321 3.63162 1.57891 0
M  V30 3537 H 347.495 4.46029 -1.15737 0
M  V30 3538 H 345.81 4.06734 -0.891979 0
M  V30 3539 H 348.407 5.0686 1.70286 0
M  V30 3540 H 348.75 3.46587 2.30614 0
M  V30 3541 H 349.283 3.92125 0.669537 0
M  V30 3542 H 346.022 6.49807 -0.862002 0
M  V30 3543 H 345.542 5.94961 0.760384 0
M  V30 3544 H 347.221 6.45455 0.446818 0
M  V30 3545 N 347.353 -0.0568162 1.57498 0
M  V30 3546 C 348.316 -1.05038 2.03715 0
M  V30 3547 C 349.316 -1.30709 0.936577 0
M  V30 3548 O 350.506 -1.26178 1.20103 0
M  V30 3549 C 347.638 -2.39034 2.43055 0
M  V30 3550 H 348.831 -0.651715 2.92733 0
M  V30 3551 H 346.384 -0.302947 1.53336 0
M  V30 3552 H 347.119 -2.83703 1.57108 0
M  V30 3553 H 346.904 -2.21739 3.2338 0
M  V30 3554 H 348.394 -3.10421 2.79336 0
M  V30 3555 N 348.832 -1.54138 -0.328536 0
M  V30 3556 C 349.762 -1.86167 -1.40939 0
M  V30 3557 C 350.743 -0.718044 -1.54202 0
M  V30 3558 O 351.928 -0.971328 -1.68163 0
M  V30 3559 C 349.058 -2.08461 -2.77779 0
M  V30 3560 C 348.012 -3.24299 -2.7931 0
M  V30 3561 C 347.338 -3.31955 -4.19178 0
M  V30 3562 C 348.638 -4.62065 -2.43502 0
M  V30 3563 H 350.332 -2.76689 -1.14383 0
M  V30 3564 H 347.878 -1.33132 -0.548806 0
M  V30 3565 H 349.831 -2.29453 -3.53454 0
M  V30 3566 H 348.555 -1.14684 -3.05802 0
M  V30 3567 H 347.214 -3.03187 -2.0609 0
M  V30 3568 H 346.862 -2.35745 -4.44335 0
M  V30 3569 H 346.562 -4.09805 -4.2111 0
M  V30 3570 H 348.086 -3.55175 -4.96672 0
M  V30 3571 H 349.5 -4.8297 -3.08889 0
M  V30 3572 H 347.897 -5.42429 -2.56693 0
M  V30 3573 H 348.967 -4.64652 -1.38659 0
M  V30 3574 N 350.31 0.590341 -1.46126 0
M  V30 3575 C 351.55 1.35995 -1.52593 0
M  V30 3576 C 351.914 1.91243 -0.170368 0
M  V30 3577 O 353.115 2.68576 -0.109775 0
M  V30 3578 C 351.386 2.46465 -2.58823 0
M  V30 3579 S 352.945 3.33953 -2.84641 0
M  V30 3580 H 349.763 0.463425 -0.53922 0
M  V30 3581 H 352.365 0.67944 -1.83314 0
M  V30 3582 H 351.069 2.04256 -3.5596 0
M  V30 3583 H 350.6 3.19297 -2.2981 0
M  V30 3584 H 352.615 4.45094 -2.19331 0
M  V30 3585 N 351.788 1.33704 0.83433 0
M  V30 3586 C 353.037 1.24763 1.58484 0
M  V30 3587 C 353.35 -0.183775 1.94735 0
M  V30 3588 O 354.556 -0.395234 2.68608 0
M  V30 3589 C 353.012 2.18638 2.85876 0
M  V30 3590 C 352.62 3.66974 2.56971 0
M  V30 3591 C 354.364 2.18581 3.63899 0
M  V30 3592 C 352.271 4.5275 3.80488 0
M  V30 3593 H 351.201 0.463425 0.594772 0
M  V30 3594 H 353.852 1.58797 0.919551 0
M  V30 3595 H 352.234 1.77542 3.5397 0
M  V30 3596 H 353.408 4.16538 1.9706 0
M  V30 3597 H 351.723 3.69366 1.92244 0
M  V30 3598 H 354.32 2.79894 4.55591 0
M  V30 3599 H 354.663 1.18207 3.99165 0
M  V30 3600 H 355.196 2.58062 3.02735 0
M  V30 3601 H 351.935 5.54017 3.5035 0
M  V30 3602 H 351.455 4.07927 4.39722 0
M  V30 3603 H 353.134 4.66784 4.4802 0
M  V30 3604 N 353.266 -1.05314 1.17247 0
M  V30 3605 C 354.176 -2.16538 0.90268 0
M  V30 3606 C 355.192 -1.73523 -0.128707 0
M  V30 3607 O 356.368 -2.01337 0.0502701 0
M  V30 3608 C 353.433 -3.44167 0.418356 0
M  V30 3609 C 352.494 -4.01635 1.51618 0
M  V30 3610 C 351.727 -5.23171 1.05487 0
M  V30 3611 O 351.95 -5.70327 -0.0914715 0
M  V30 3612 O 350.884 -5.72848 1.8474 0
M  V30 3613 H 354.71 -2.42145 1.83302 0
M  V30 3614 H 352.295 -1.15037 0.953246 0
M  V30 3615 H 354.177 -4.21112 0.155726 0
M  V30 3616 H 352.852 -3.20063 -0.48385 0
M  V30 3617 H 351.759 -3.26135 1.83268 0
M  V30 3618 H 353.092 -4.30053 2.39405 0
M  V30 3619 N 354.744 -0.972509 -1.24016 0
M  V30 3620 C 356.021 -0.553733 -1.87598 0
M  V30 3621 C 356.401 0.969158 -1.87538 0
M  V30 3622 O 355.749 1.84255 -1.35139 0
M  V30 3623 C 355.959 -1.15076 -3.29482 0
M  V30 3624 C 357.307 -1.23862 -4.06132 0
M  V30 3625 O 358.331 -1.10363 -3.38672 0
M  V30 3626 O 357.19 -1.45252 -5.26844 0
M  V30 3627 H 354.284 -0.185331 -0.805966 0
M  V30 3628 H 356.83 -1.06709 -1.31952 0
M  V30 3629 H 355.602 -2.19333 -3.2405 0
M  V30 3630 H 355.225 -0.621746 -3.92709 0
M  V30 3631 N 356.222 1.38976 -0.743202 0
M  V30 3632 C 357.47 1.99948 -0.29417 0
M  V30 3633 C 357.791 1.59279 1.12495 0
M  V30 3634 O 357.061 0.844808 1.76748 0
M  V30 3635 H 355.641 0.739473 -0.105774 0
M  V30 3636 H 358.303 1.699 -0.954986 0
M  V30 3637 H 357.399 3.10142 -0.349056 0
M  V30 3638 N 357.7 0.491464 1.49741 0
M  V30 3639 C 358.925 -0.0557177 2.07325 0
M  V30 3640 C 359.35 -1.30925 1.35056 0
M  V30 3641 O 358.708 -1.76733 0.404365 0
M  V30 3642 C 358.756 -0.302074 3.59333 0
M  V30 3643 O 357.86 -1.37868 3.88672 0
M  V30 3644 H 357.201 0.0219956 0.663636 0
M  V30 3645 H 359.731 0.688352 1.92673 0
M  V30 3646 H 359.741 -0.536464 4.04458 0
M  V30 3647 H 358.416 0.61383 4.11345 0
M  V30 3648 H 356.993 -1.12999 3.55367 0
M  V30 3649 N 359.178 -1.55987 0.224894 0
M  V30 3650 C 360.427 -1.97566 -0.406273 0
M  V30 3651 C 360.74 -1.11569 -1.6066 0
M  V30 3652 O 361.946 -1.43062 -2.3075 0
M  V30 3653 C 360.402 -3.51474 -0.774207 0
M  V30 3654 C 360.01 -4.46179 0.403496 0
M  V30 3655 C 361.754 -4.01758 -1.37079 0
M  V30 3656 C 359.661 -5.91399 0.0129412 0
M  V30 3657 H 358.591 -0.737777 -0.155565 0
M  V30 3658 H 361.242 -1.80659 0.321635 0
M  V30 3659 H 359.624 -3.63994 -1.55963 0
M  V30 3660 H 360.798 -4.45409 1.18101 0
M  V30 3661 H 359.113 -4.06255 0.913536 0
M  V30 3662 H 361.71 -5.07756 -1.67596 0
M  V30 3663 H 362.053 -3.47805 -2.28773 0
M  V30 3664 H 362.586 -3.92475 -0.648733 0
M  V30 3665 H 359.325 -6.49341 0.896451 0
M  V30 3666 H 358.845 -5.95356 -0.728821 0
M  V30 3667 H 360.524 -6.45683 -0.412582 0
M  V30 3668 N 360.656 0.0484629 -1.57525 0
M  V30 3669 C 361.606 1.06246 -2.01732 0
M  V30 3670 C 362.59 1.33155 -0.903245 0
M  V30 3671 O 363.782 1.33065 -1.16717 0
M  V30 3672 C 360.911 2.36943 -2.48421 0
M  V30 3673 C 359.997 2.13208 -3.6661 0
M  V30 3674 N 360.388 1.5947 -4.80003 0
M  V30 3675 C 358.686 2.43581 -3.7361 0
M  V30 3676 C 359.387 1.51092 -5.61735 0
M  V30 3677 N 358.363 1.9797 -5.0627 0
M  V30 3678 H 362.165 0.640675 -2.86832 0
M  V30 3679 H 359.679 0.255134 -1.60383 0
M  V30 3680 H 361.676 3.10374 -2.78341 0
M  V30 3681 H 360.336 2.79818 -1.64718 0
M  V30 3682 H 361.347 1.28008 -5.01831 0
M  V30 3683 H 358.024 2.89662 -3.00669 0
M  V30 3684 H 359.414 1.10199 -6.62801 0
M  V30 3685 N 362.134 1.5431 0.320358 0
M  V30 3686 C 363.55 1.45091 0.664889 0
M  V30 3687 C 363.75 0.626382 1.91517 0
M  V30 3688 O 362.806 0.126443 2.52183 0
M  V30 3689 C 364.119 2.88848 0.83591 0
M  V30 3690 C 365.667 2.9877 0.933046 0
M  V30 3691 C 366.142 4.43683 1.13621 0
M  V30 3692 N 367.633 4.47309 1.20287 0
M  V30 3693 C 368.368 5.56595 1.37801 0
M  V30 3694 N 367.864 6.75844 1.52338 0
M  V30 3695 N 369.657 5.44248 1.40535 0
M  V30 3696 H 361.808 2.06398 -0.501374 0
M  V30 3697 H 364.071 0.933963 -0.162534 0
M  V30 3698 H 363.777 3.51698 -0.0116092 0
M  V30 3699 H 363.651 3.35148 1.73078 0
M  V30 3700 H 366.038 2.36045 1.77107 0
M  V30 3701 H 366.119 2.55796 0.0145782 0
M  V30 3702 H 365.763 5.06995 0.303032 0
M  V30 3703 H 365.693 4.84269 2.0686 0
M  V30 3704 H 368.184 3.61388 1.10485 0
M  V30 3705 H 368.497 7.54892 1.65403 0
M  V30 3706 H 366.842 6.78746 1.4943 0
M  V30 3707 H 370.033 4.50038 1.28777 0
M  V30 3708 H 370.206 6.29473 1.53842 0
M  V30 3709 N 363.613 -0.582584 1.46437 0
M  V30 3710 C 364.862 -1.337 1.5102 0
M  V30 3711 C 365.175 -1.94891 0.166359 0
M  V30 3712 O 366.381 -2.71351 0.0899954 0
M  V30 3713 C 364.837 -2.42315 2.66104 0
M  V30 3714 C 364.445 -1.87427 4.06909 0
M  V30 3715 C 366.189 -3.19099 2.79958 0
M  V30 3716 C 364.096 -2.93672 5.13333 0
M  V30 3717 H 363.026 -0.502619 0.562041 0
M  V30 3718 H 365.677 -0.621701 1.72647 0
M  V30 3719 H 364.059 -3.16645 2.37807 0
M  V30 3720 H 365.233 -1.19639 4.44998 0
M  V30 3721 H 363.548 -1.2331 3.97723 0
M  V30 3722 H 366.145 -3.9839 3.56636 0
M  V30 3723 H 366.488 -3.71695 1.87479 0
M  V30 3724 H 367.021 -2.51875 3.07902 0
M  V30 3725 H 363.76 -2.45962 6.07604 0
M  V30 3726 H 363.28 -3.59948 4.79789 0
M  V30 3727 H 364.959 -3.5762 5.39182 0
M  V30 3728 N 365.091 -1.34144 -0.827227 0
M  V30 3729 C 366.507 -1.13732 -1.11969 0
M  V30 3730 C 366.707 0.0640463 -2.01398 0
M  V30 3731 O 365.763 0.740856 -2.41387 0
M  V30 3732 C 367.076 -2.43047 -1.77055 0
M  V30 3733 C 368.624 -2.49063 -1.89569 0
M  V30 3734 C 369.099 -3.78369 -2.58072 0
M  V30 3735 N 370.59 -3.79505 -2.65575 0
M  V30 3736 C 371.325 -4.76274 -3.19297 0
M  V30 3737 N 370.821 -5.83424 -3.73616 0
M  V30 3738 N 372.614 -4.63735 -3.17658 0
M  V30 3739 H 364.765 -2.11126 -0.232296 0
M  V30 3740 H 367.028 -0.933424 -0.165602 0
M  V30 3741 H 366.734 -3.31025 -1.18807 0
M  V30 3742 H 366.608 -2.56066 -2.76966 0
M  V30 3743 H 368.995 -1.61527 -2.46968 0
M  V30 3744 H 369.076 -2.39975 -0.885745 0
M  V30 3745 H 368.72 -4.66293 -2.01329 0
M  V30 3746 H 368.65 -3.84737 -3.59562 0
M  V30 3747 H 371.141 -3.02074 -2.27068 0
M  V30 3748 H 371.454 -6.53282 -4.12846 0
M  V30 3749 H 369.799 -5.87143 -3.71871 0
M  V30 3750 H 372.99 -3.79177 -2.74486 0
M  V30 3751 H 373.163 -5.39318 -3.59221 0
M  V30 3752 N 366.569 1.04691 -1.17803 0
M  V30 3753 C 367.532 2.10724 -0.901545 0
M  V30 3754 C 368.532 1.6042 0.110437 0
M  V30 3755 O 369.722 1.7377 -0.122303 0
M  V30 3756 C 366.854 3.39084 -0.351409 0
M  V30 3757 H 368.047 2.36686 -1.84174 0
M  V30 3758 H 365.6 1.21015 -0.98919 0
M  V30 3759 H 366.335 3.18782 0.59569 0
M  V30 3760 H 366.12 3.76909 -1.08083 0
M  V30 3761 H 367.61 4.17227 -0.176451 0
M  V30 3762 N 368.047 0.979072 1.23499 0
M  V30 3763 C 368.994 0.517904 2.24914 0
M  V30 3764 C 369.964 -0.442525 1.60097 0
M  V30 3765 O 371.149 -0.350365 1.87556 0
M  V30 3766 C 368.289 -0.174813 3.44657 0
M  V30 3767 C 367.402 0.825721 4.24035 0
M  V30 3768 C 366.537 0.107946 5.3109 0
M  V30 3769 C 365.576 1.09778 6.02175 0
M  V30 3770 N 364.713 0.40925 7.00906 0
M  V30 3771 H 369.553 1.38751 2.63727 0
M  V30 3772 H 367.09 0.695303 1.2963 0
M  V30 3773 H 369.048 -0.593233 4.12961 0
M  V30 3774 H 367.678 -1.0083 3.06648 0
M  V30 3775 H 366.73 1.36253 3.55161 0
M  V30 3776 H 368.042 1.58005 4.73113 0
M  V30 3777 H 367.196 -0.367904 6.05583 0
M  V30 3778 H 365.935 -0.678994 4.8295 0
M  V30 3779 H 364.94 1.5844 5.26476 0
M  V30 3780 H 366.165 1.88536 6.52404 0
M  V30 3781 H 364.111 -0.358506 6.5502 0
M  V30 3782 H 364.028 1.10226 7.47921 0
M  V30 3783 H 365.296 -0.0442557 7.79487 0
M  V30 3784 N 369.525 -1.3858 0.750561 0
M  V30 3785 C 370.473 -2.32339 0.110162 0
M  V30 3786 C 371.467 -1.53864 -0.708674 0
M  V30 3787 O 372.673 -1.69417 -0.608112 0
M  V30 3788 H 369.048 -0.751812 0.0168275 0
M  V30 3789 H 371.019 -2.83959 0.917053 0
M  V30 3790 C 369.768 -3.39043 -0.771067 0
M  V30 3791 H 369.091 -3.99517 -0.150374 0
M  V30 3792 H 370.531 -4.07061 -1.1865 0
M  V30 3793 C 368.99 -2.77365 -1.91234 0
M  V30 3794 O 369.52 -2.66434 -3.00626 0
M  V30 3795 N 367.726 -2.35219 -1.70646 0
M  V30 3796 H 367.273 -2.4431 -0.81673 0
M  V30 3797 H 367.231 -1.94294 -2.47178 0
M  V30 3798 N 371.003 -0.499398 -1.49478 0
M  V30 3799 C 372.231 0.0425456 -2.06856 0
M  V30 3800 C 372.646 1.30964 -1.35992 0
M  V30 3801 O 372.003 1.77172 -0.437762 0
M  V30 3802 C 372.054 0.301735 -3.60239 0
M  V30 3803 O 371.775 -0.915127 -4.28436 0
M  V30 3804 C 373.276 0.887499 -4.34325 0
M  V30 3805 H 370.496 -0.0197482 -0.670709 0
M  V30 3806 H 373.04 -0.696297 -1.92281 0
M  V30 3807 H 371.195 0.990556 -3.74522 0
M  V30 3808 H 371.609 -0.676993 -5.20113 0
M  V30 3809 H 373.083 1.01845 -5.42523 0
M  V30 3810 H 373.56 1.88488 -3.96698 0
M  V30 3811 H 374.166 0.236196 -4.24644 0
M  V30 3812 N 372.481 1.55866 -0.233164 0
M  V30 3813 C 373.727 1.98897 0.395959 0
M  V30 3814 C 374.06 1.12091 1.58585 0
M  V30 3815 O 373.335 0.181182 1.93654 0
M  V30 3816 C 373.618 3.50658 0.819224 0
M  V30 3817 C 373.471 4.48233 -0.375109 0
M  V30 3818 C 374.79 4.07135 1.67121 0
M  V30 3819 H 371.909 0.723102 0.142451 0
M  V30 3820 H 374.551 1.87082 -0.331725 0
M  V30 3821 H 372.701 3.60857 1.43925 0
M  V30 3822 H 374.373 4.50031 -1.01341 0
M  V30 3823 H 372.616 4.21624 -1.02058 0
M  V30 3824 H 373.287 5.51988 -0.0358328 0
M  V30 3825 H 375.763 3.99952 1.14795 0
M  V30 3826 H 374.639 5.13615 1.93625 0
M  V30 3827 H 374.9 3.54736 2.63846 0
M  V30 3828 N 373.959 -0.0401083 1.57549 0
M  V30 3829 C 375.205 -0.734211 1.89043 0
M  V30 3830 C 375.538 -1.75591 0.829535 0
M  V30 3831 O 374.813 -1.93868 -0.156706 0
M  V30 3832 C 375.096 -1.41374 3.31188 0
M  V30 3833 C 374.949 -0.406299 4.47961 0
M  V30 3834 C 376.268 -2.35061 3.72068 0
M  V30 3835 H 373.387 -0.265447 0.687537 0
M  V30 3836 H 376.029 0.00294087 1.9 0
M  V30 3837 H 374.179 -2.04206 3.30503 0
M  V30 3838 H 375.851 0.219255 4.60779 0
M  V30 3839 H 374.094 0.275485 4.32924 0
M  V30 3840 H 374.765 -0.920022 5.44279 0
M  V30 3841 H 377.241 -1.82282 3.74049 0
M  V30 3842 H 376.117 -2.79593 4.72355 0
M  V30 3843 H 376.378 -3.21258 3.0372 0
M  V30 3844 N 375.437 -1.54477 -0.31217 0
M  V30 3845 C 376.4 -1.83923 -1.36766 0
M  V30 3846 C 377.4 -0.711563 -1.44199 0
M  V30 3847 O 378.59 -0.979866 -1.44029 0
M  V30 3848 C 375.722 -2.0095 -2.75376 0
M  V30 3849 H 376.915 -2.78239 -1.11906 0
M  V30 3850 H 374.468 -1.46369 -0.548257 0
M  V30 3851 H 375.203 -1.08883 -3.05475 0
M  V30 3852 H 374.988 -2.83018 -2.71373 0
M  V30 3853 H 376.478 -2.2514 -3.51713 0
M  V30 3854 N 376.915 0.57481 -1.46744 0
M  V30 3855 C 378.143 1.35856 -1.56047 0
M  V30 3856 C 378.558 1.87691 -0.204365 0
M  V30 3857 O 377.915 1.64049 0.79963 0
M  V30 3858 C 377.966 2.54066 -2.57163 0
M  V30 3859 O 377.687 2.04377 -3.87507 0
M  V30 3860 C 379.188 3.46514 -2.76483 0
M  V30 3861 H 376.408 0.414754 -0.527466 0
M  V30 3862 H 378.952 0.698035 -1.92218 0
M  V30 3863 H 377.107 3.16092 -2.23974 0
M  V30 3864 H 377.521 2.81419 -4.4261 0
M  V30 3865 H 378.995 4.25919 -3.51137 0
M  V30 3866 H 379.472 3.98951 -1.83671 0
M  V30 3867 H 380.078 2.90318 -3.10799 0
M  V30 3868 N 378.394 1.34581 0.820102 0
M  V30 3869 C 379.642 1.26845 1.57336 0
M  V30 3870 C 379.963 -0.160667 1.94337 0
M  V30 3871 O 379.233 -1.09396 1.6251 0
M  V30 3872 H 377.813 0.466514 0.583415 0
M  V30 3873 H 380.475 1.68526 0.979027 0
M  V30 3874 H 379.571 1.87513 2.4949 0
M  V30 3875 N 379.872 -1.04064 1.18357 0
M  V30 3876 C 381.12 -1.76915 0.977013 0
M  V30 3877 C 381.441 -1.88624 -0.494577 0
M  V30 3878 O 380.711 -1.41125 -1.3587 0
M  V30 3879 H 379.291 -0.65535 0.358504 0
M  V30 3880 H 381.953 -1.25592 1.49039 0
M  V30 3881 H 381.049 -2.78178 1.41504 0
M  V30 3882 N 381.35 -0.985608 -1.22978 0
M  V30 3883 C 382.58 -0.674603 -1.95276 0
M  V30 3884 C 382.988 0.763483 -1.73111 0
M  V30 3885 O 382.331 1.52601 -1.02268 0
M  V30 3886 C 382.393 -0.891597 -3.48268 0
M  V30 3887 C 382.057 -2.31275 -3.94158 0
M  V30 3888 C 383.054 -3.29179 -4.02415 0
M  V30 3889 C 380.739 -2.64524 -4.27004 0
M  V30 3890 C 382.733 -4.58407 -4.42879 0
M  V30 3891 C 380.42 -3.93974 -4.67149 0
M  V30 3892 C 381.418 -4.90727 -4.75053 0
M  V30 3893 O 381.106 -6.17865 -5.14294 0
M  V30 3894 H 380.838 -0.249251 -0.628371 0
M  V30 3895 H 383.392 -1.32106 -1.5728 0
M  V30 3896 H 381.622 -0.187962 -3.86243 0
M  V30 3897 H 383.311 -0.576957 -4.01779 0
M  V30 3898 H 384.077 -3.04823 -3.77237 0
M  V30 3899 H 379.956 -1.89923 -4.2006 0
M  V30 3900 H 383.5 -5.33926 -4.48964 0
M  V30 3901 H 379.397 -4.18122 -4.91777 0
M  V30 3902 H 380.165 -6.21694 -5.32389 0
M  V30 3903 N 382.828 1.3818 -0.7579 0
M  V30 3904 C 384.076 1.99624 -0.315361 0
M  V30 3905 C 384.397 1.60464 1.10799 0
M  V30 3906 O 383.667 0.863507 1.75842 0
M  V30 3907 H 382.247 0.73831 -0.113611 0
M  V30 3908 H 384.909 1.68878 -0.972952 0
M  V30 3909 H 384.005 3.09754 -0.381931 0
M  V30 3910 N 384.306 0.507319 1.49211 0
M  V30 3911 C 385.722 0.163682 1.58758 0
M  V30 3912 C 385.922 -1.33208 1.51188 0
M  V30 3913 O 384.978 -2.10855 1.38911 0
M  V30 3914 C 386.291 0.746095 2.91297 0
M  V30 3915 C 387.839 0.712773 3.04776 0
M  V30 3916 C 388.314 1.27336 4.39943 0
M  V30 3917 N 389.805 1.23433 4.46451 0
M  V30 3918 C 390.54 1.63821 5.495 0
M  V30 3919 N 390.036 2.11832 6.5962 0
M  V30 3920 N 391.829 1.55198 5.4025 0
M  V30 3921 H 383.98 1.47972 1.52375 0
M  V30 3922 H 386.243 0.614147 0.722168 0
M  V30 3923 H 385.949 1.79534 3.02424 0
M  V30 3924 H 385.823 0.210137 3.76614 0
M  V30 3925 H 388.21 -0.327656 2.93275 0
M  V30 3926 H 388.291 1.28595 2.21127 0
M  V30 3927 H 387.935 2.3126 4.52196 0
M  V30 3928 H 387.865 0.676066 5.22242 0
M  V30 3929 H 390.356 0.882627 3.67448 0
M  V30 3930 H 390.669 2.40703 7.34358 0
M  V30 3931 H 389.014 2.1581 6.60644 0
M  V30 3932 H 392.205 1.17505 4.53112 0
M  V30 3933 H 392.378 1.86997 6.20432 0
M  V30 3934 N 385.784 -1.5574 0.241426 0
M  V30 3935 C 387.012 -2.03208 -0.389134 0
M  V30 3936 C 387.427 -1.12082 -1.51931 0
M  V30 3937 O 386.784 -0.134183 -1.82006 0
M  V30 3938 C 386.835 -3.50064 -0.902087 0
M  V30 3939 O 386.556 -4.37717 0.18305 0
M  V30 3940 C 388.057 -4.13268 -1.60389 0
M  V30 3941 H 385.277 -0.664509 -0.0931053 0
M  V30 3942 H 387.821 -2.0124 0.36369 0
M  V30 3943 H 385.976 -3.52583 -1.60511 0
M  V30 3944 H 386.39 -5.24097 -0.205579 0
M  V30 3945 H 387.864 -5.17733 -1.91458 0
M  V30 3946 H 388.341 -3.59434 -2.52397 0
M  V30 3947 H 388.947 -4.14655 -0.945576 0
M  V30 3948 N 387.262 0.0317525 -1.57568 0
M  V30 3949 C 388.492 0.733884 -1.93126 0
M  V30 3950 C 388.9 1.69563 -0.839352 0
M  V30 3951 O 388.243 1.82681 0.193175 0
M  V30 3952 C 388.305 1.54798 -3.24465 0
M  V30 3953 C 387.969 0.751304 -4.50782 0
M  V30 3954 C 388.966 0.0527632 -5.19873 0
M  V30 3955 C 386.651 0.706639 -4.97305 0
M  V30 3956 C 388.645 -0.679774 -6.33765 0
M  V30 3957 C 386.332 -0.0296449 -6.11093 0
M  V30 3958 C 387.33 -0.721614 -6.79177 0
M  V30 3959 O 387.018 -1.44595 -7.90789 0
M  V30 3960 H 386.75 0.211459 -0.642076 0
M  V30 3961 H 389.304 -0.00585615 -2.05399 0
M  V30 3962 H 387.534 2.33147 -3.08512 0
M  V30 3963 H 389.223 2.13247 -3.4537 0
M  V30 3964 H 389.989 0.0783188 -4.84937 0
M  V30 3965 H 385.868 1.23474 -4.44157 0
M  V30 3966 H 389.412 -1.22042 -6.86842 0
M  V30 3967 H 385.309 -0.0571331 -6.45475 0
M  V30 3968 H 386.077 -1.35935 -8.07133 0
M  V30 3969 N 388.74 1.54641 0.303973 0
M  V30 3970 C 389.987 1.7378 1.03955 0
M  V30 3971 C 390.315 0.521986 1.87365 0
M  V30 3972 O 389.57 -0.496099 1.89308 0
M  V30 3973 C 389.869 2.97753 1.97681 0
M  V30 3974 C 389.535 4.31671 1.30271 0
M  V30 3975 C 388.197 4.68075 1.11619 0
M  V30 3976 C 390.549 5.147 0.82055 0
M  V30 3977 C 387.877 5.8509 0.434304 0
M  V30 3978 C 390.229 6.32416 0.152395 0
M  V30 3979 C 388.893 6.67484 -0.0461067 0
M  V30 3980 H 388.163 0.635908 0.380398 0
M  V30 3981 H 390.81 1.88896 0.314718 0
M  V30 3982 H 389.115 2.77406 2.76682 0
M  V30 3983 H 390.812 3.09756 2.54661 0
M  V30 3984 H 387.402 4.03041 1.45795 0
M  V30 3985 H 391.586 4.87077 0.952374 0
M  V30 3986 H 386.842 6.10806 0.269495 0
M  V30 3987 H 391.016 6.96023 -0.229126 0
M  V30 3988 H 388.643 7.58011 -0.576494 0
M  V30 3989 N 390.218 -0.567019 1.47046 0
M  V30 3990 C 391.443 -1.3551 1.57009 0
M  V30 3991 C 391.868 -1.86841 0.217259 0
M  V30 3992 O 391.226 -1.62435 -0.805268 0
M  V30 3993 C 391.274 -2.50777 2.5912 0
M  V30 3994 O 390.378 -3.52706 2.13711 0
M  V30 3995 H 389.719 -0.402919 0.52778 0
M  V30 3996 H 392.249 -0.686241 1.92748 0
M  V30 3997 H 392.259 -2.97481 2.79229 0
M  V30 3998 H 390.934 -2.12771 3.57353 0
M  V30 3999 H 389.511 -3.12374 2.03659 0
M  V30 4000 N 391.696 -1.35014 -0.812953 0
M  V30 4001 C 392.936 -1.29289 -1.58315 0
M  V30 4002 C 393.3 0.132727 -1.91541 0
M  V30 4003 O 394.501 0.314269 -2.66957 0
M  V30 4004 C 392.772 -2.1681 -2.84127 0
M  V30 4005 S 394.331 -2.28538 -3.74588 0
M  V30 4006 H 391.149 -0.459569 -0.542511 0
M  V30 4007 H 393.751 -1.70336 -0.959467 0
M  V30 4008 H 392.455 -3.19379 -2.57731 0
M  V30 4009 H 391.986 -1.76697 -3.51485 0
M  V30 4010 H 394.001 -1.4655 -4.74065 0
M  V30 4011 N 393.175 1.03435 -1.18907 0
M  V30 4012 C 394.403 1.80381 -1.01342 0
M  V30 4013 C 394.818 1.83649 0.438005 0
M  V30 4014 O 394.175 1.27655 1.30424 0
M  V30 4015 C 394.226 3.25689 -1.56873 0
M  V30 4016 O 393.947 3.22673 -2.96334 0
M  V30 4017 C 395.448 4.19255 -1.44014 0
M  V30 4018 H 392.668 0.56784 -0.35749 0
M  V30 4019 H 395.212 1.30317 -1.576 0
M  V30 4020 H 393.367 3.72962 -1.04777 0
M  V30 4021 H 393.781 4.13748 -3.22355 0
M  V30 4022 H 395.255 5.19123 -1.87657 0
M  V30 4023 H 395.732 4.37467 -0.389815 0
M  V30 4024 H 396.338 3.77851 -1.95214 0
M  V30 4025 N 394.653 0.992116 1.22453 0
M  V30 4026 C 395.878 0.685644 1.95739 0
M  V30 4027 C 396.303 -0.743 1.72804 0
M  V30 4028 O 395.661 -1.50778 1.00676 0
M  V30 4029 C 395.709 0.996293 3.46564 0
M  V30 4030 O 394.813 0.0945512 4.12292 0
M  V30 4031 H 394.154 0.256694 0.612376 0
M  V30 4032 H 396.684 1.32888 1.5557 0
M  V30 4033 H 396.694 0.93781 3.97076 0
M  V30 4034 H 395.369 2.03733 3.62582 0
M  V30 4035 H 393.946 0.208451 3.72317 0
M  V30 4036 N 396.131 -1.37776 0.765217 0
M  V30 4037 C 397.094 -2.28686 0.153416 0
M  V30 4038 C 398.094 -1.47727 -0.635081 0
M  V30 4039 O 399.284 -1.68027 -0.459632 0
M  V30 4040 C 396.416 -3.31608 -0.790495 0
M  V30 4041 H 397.609 -2.84297 0.954723 0
M  V30 4042 H 395.162 -1.46932 0.53299 0
M  V30 4043 H 395.897 -2.81109 -1.61705 0
M  V30 4044 H 395.682 -3.9144 -0.227348 0
M  V30 4045 H 397.172 -3.99559 -1.21419 0
M  V30 4046 N 397.609 -0.515225 -1.4894 0
M  V30 4047 C 398.559 0.275113 -2.26334 0
M  V30 4048 C 399.543 0.923007 -1.31793 0
M  V30 4049 O 400.735 0.828254 -1.56426 0
M  V30 4050 C 397.864 1.33041 -3.16473 0
M  V30 4051 C 396.95 0.688051 -4.18481 0
M  V30 4052 N 397.341 -0.217638 -5.05332 0
M  V30 4053 C 395.639 0.94699 -4.3583 0
M  V30 4054 C 396.34 -0.58676 -5.78733 0
M  V30 4055 N 395.316 0.0486966 -5.43578 0
M  V30 4056 H 399.118 -0.421876 -2.90856 0
M  V30 4057 H 396.632 -0.332249 -1.58965 0
M  V30 4058 H 398.629 1.9102 -3.70563 0
M  V30 4059 H 397.289 2.02894 -2.53504 0
M  V30 4060 H 398.3 -0.589343 -5.14536 0
M  V30 4061 H 394.977 1.63719 -3.8406 0
M  V30 4062 H 396.367 -1.32855 -6.58634 0
M  V30 4063 N 399.087 1.5561 -0.249682 0
M  V30 4064 C 400.315 2.03411 0.378352 0
M  V30 4065 C 400.73 1.12886 1.51335 0
M  V30 4066 O 400.087 0.143833 1.81932 0
M  V30 4067 C 400.138 3.50537 0.88351 0
M  V30 4068 O 399.859 4.37614 -0.20626 0
M  V30 4069 C 401.36 4.14113 1.58195 0
M  V30 4070 H 398.58 0.664994 0.08958 0
M  V30 4071 H 401.124 2.01044 -0.374357 0
M  V30 4072 H 399.279 3.5343 1.58639 0
M  V30 4073 H 399.693 5.24199 0.177782 0
M  V30 4074 H 401.167 5.18741 1.8871 0
M  V30 4075 H 401.644 3.60767 2.50487 0
M  V30 4076 H 402.25 4.15151 0.923573 0
M  V30 4077 N 400.565 -0.0233959 1.57583 0
M  V30 4078 C 401.79 -0.728376 1.94189 0
M  V30 4079 C 402.215 -1.67793 0.850119 0
M  V30 4080 O 401.573 -1.80262 -0.19371 0
M  V30 4081 C 401.621 -1.45669 3.29868 0
M  V30 4082 O 400.725 -2.57013 3.22518 0
M  V30 4083 H 400.066 -0.195493 0.63457 0
M  V30 4084 H 402.596 0.0228214 2.04587 0
M  V30 4085 H 402.606 -1.82535 3.6489 0
M  V30 4086 H 401.281 -0.760314 4.08891 0
M  V30 4087 H 399.858 -2.22648 2.99136 0
M  V30 4088 N 402.043 -1.548 -0.295768 0
M  V30 4089 C 403.271 -1.78327 -1.04914 0
M  V30 4090 C 403.686 -0.545316 -1.80753 0
M  V30 4091 O 403.043 0.485013 -1.75937 0
M  V30 4092 C 403.094 -2.99418 -2.02561 0
M  V30 4093 O 402.815 -4.18431 -1.29798 0
M  V30 4094 C 404.316 -3.35375 -2.89895 0
M  V30 4095 H 401.536 -0.594618 -0.310918 0
M  V30 4096 H 404.08 -2.01763 -0.333454 0
M  V30 4097 H 402.235 -2.78175 -2.69624 0
M  V30 4098 H 402.649 -4.86736 -1.95419 0
M  V30 4099 H 404.123 -4.23332 -3.54251 0
M  V30 4100 H 404.6 -2.53761 -3.58472 0
M  V30 4101 H 405.206 -3.58796 -2.28355 0
M  V30 4102 N 403.521 0.559213 -1.47345 0
M  V30 4103 C 404.769 1.31388 -1.53563 0
M  V30 4104 C 405.09 1.93985 -0.198678 0
M  V30 4105 O 404.36 1.79825 0.777167 0
M  V30 4106 H 402.94 0.487901 -0.565652 0
M  V30 4107 H 405.602 0.65315 -1.8363 0
M  V30 4108 H 404.698 2.10844 -2.30111 0
M  V30 4109 N 404.999 1.35443 0.805782 0
M  V30 4110 C 406.276 1.19325 1.54987 0
M  V30 4111 C 406.656 -0.227294 2.09873 0
M  V30 4112 O 406.004 -1.2309 1.92512 0
M  V30 4113 C 406.214 2.26196 2.65775 0
M  V30 4114 C 407.562 2.62043 3.34094 0
M  V30 4115 O 408.586 2.25115 2.76046 0
M  V30 4116 O 407.445 3.25542 4.38958 0
M  V30 4117 H 404.539 0.463623 0.684823 0
M  V30 4118 H 407.085 1.47127 0.845674 0
M  V30 4119 H 405.857 3.21471 2.23096 0
M  V30 4120 H 405.48 1.99667 3.43829 0
M  V30 4121 N 406.477 -1.02803 1.19454 0
M  V30 4122 C 407.725 -1.75869 0.995722 0
M  V30 4123 C 408.046 -1.89138 -0.474543 0
M  V30 4124 O 407.316 -1.42558 -1.34366 0
M  V30 4125 H 405.896 -0.651511 0.365435 0
M  V30 4126 H 408.558 -1.24004 1.50363 0
M  V30 4127 H 407.654 -2.76661 1.44447 0
M  V30 4128 N 407.956 -0.998596 -1.21925 0
M  V30 4129 C 409.184 -0.696286 -1.94832 0
M  V30 4130 C 409.599 0.740032 -1.73692 0
M  V30 4131 O 408.956 1.5 -1.03953 0
M  V30 4132 C 409.007 -0.999833 -3.47398 0
M  V30 4133 O 408.728 -2.37972 -3.67833 0
M  V30 4134 C 410.229 -0.716025 -4.37479 0
M  V30 4135 H 407.449 -0.257111 -0.619786 0
M  V30 4136 H 409.993 -1.33491 -1.54921 0
M  V30 4137 H 408.148 -0.406918 -3.85257 0
M  V30 4138 H 408.562 -2.48338 -4.61983 0
M  V30 4139 H 410.036 -0.978642 -5.43256 0
M  V30 4140 H 410.513 0.349968 -4.37803 0
M  V30 4141 H 411.119 -1.29025 -4.05256 0
M  V30 4142 N 409.434 1.37368 -0.772513 0
M  V30 4143 C 410.397 2.28601 -0.165541 0
M  V30 4144 C 411.397 1.48062 0.627238 0
M  V30 4145 O 412.587 1.68268 0.450715 0
M  V30 4146 C 409.719 3.32023 0.772897 0
M  V30 4147 H 410.912 2.83787 -0.969787 0
M  V30 4148 H 408.465 1.46647 -0.540775 0
M  V30 4149 H 409.2 2.81962 1.60212 0
M  V30 4150 H 408.985 3.91555 0.206585 0
M  V30 4151 H 410.475 4.00197 1.19298 0
M  V30 4152 N 410.912 0.523116 1.48665 0
M  V30 4153 C 411.845 -0.290518 2.26343 0
M  V30 4154 C 412.823 -0.950913 1.31895 0
M  V30 4155 O 414.007 -0.976662 1.61225 0
M  V30 4156 C 411.134 -1.41088 3.07915 0
M  V30 4157 C 410.18 -0.862597 4.17686 0
M  V30 4158 S 411.013 0.264135 5.34848 0
M  V30 4159 C 412.169 -0.858864 6.19979 0
M  V30 4160 H 412.402 0.368726 2.95005 0
M  V30 4161 H 409.935 0.30878 1.51281 0
M  V30 4162 H 411.893 -2.0527 3.55492 0
M  V30 4163 H 410.554 -2.04182 2.38681 0
M  V30 4164 H 409.747 -1.70287 4.74361 0
M  V30 4165 H 409.349 -0.297595 3.72814 0
M  V30 4166 H 411.641 -1.7591 6.54264 0
M  V30 4167 H 412.584 -0.330244 7.07329 0
M  V30 4168 H 412.992 -1.13617 5.52948 0
M  V30 4169 N 412.39 -1.55475 0.257931 0
M  V30 4170 C 413.639 -1.98383 -0.364275 0
M  V30 4171 C 413.952 -1.14952 -1.58258 0
M  V30 4172 O 415.158 -1.47924 -2.27664 0
M  V30 4173 C 413.614 -3.53037 -0.699479 0
M  V30 4174 C 413.222 -4.45223 0.498046 0
M  V30 4175 C 414.966 -4.04575 -1.28526 0
M  V30 4176 C 412.873 -5.91238 0.138383 0
M  V30 4177 H 411.803 -0.740911 -0.13988 0
M  V30 4178 H 414.454 -1.79936 0.359883 0
M  V30 4179 H 412.836 -3.6722 -1.48207 0
M  V30 4180 H 414.01 -4.42803 1.27522 0
M  V30 4181 H 412.325 -4.04226 0.999503 0
M  V30 4182 H 414.922 -5.11196 -1.56788 0
M  V30 4183 H 415.265 -3.5258 -2.21344 0
M  V30 4184 H 415.798 -3.93762 -0.565337 0
M  V30 4185 H 412.537 -6.47294 1.03398 0
M  V30 4186 H 412.057 -5.96768 -0.602374 0
M  V30 4187 H 413.736 -6.46413 -0.27553 0
M  V30 4188 N 413.868 0.0150385 -1.57593 0
M  V30 4189 C 415.096 0.714395 -1.94175 0
M  V30 4190 C 415.511 1.68135 -0.858841 0
M  V30 4191 O 414.868 1.81766 0.163567 0
M  V30 4192 C 414.919 1.45933 -3.30735 0
M  V30 4193 O 414.64 0.531167 -4.34868 0
M  V30 4194 C 416.141 2.25456 -3.81686 0
M  V30 4195 H 413.361 0.199923 -0.640525 0
M  V30 4196 H 415.905 -0.0316096 -2.04476 0
M  V30 4197 H 414.06 2.15709 -3.21789 0
M  V30 4198 H 414.474 1.05509 -5.13778 0
M  V30 4199 H 415.948 2.731 -4.79709 0
M  V30 4200 H 416.425 3.07485 -3.13607 0
M  V30 4201 H 417.031 1.60727 -3.9376 0
M  V30 4202 N 415.346 1.54954 0.287554 0
M  V30 4203 C 416.762 1.46469 0.633964 0
M  V30 4204 C 416.962 0.666865 1.90145 0
M  V30 4205 O 416.018 0.179906 2.51858 0
M  V30 4206 C 417.331 2.90556 0.774454 0
M  V30 4207 C 418.879 3.00681 0.869462 0
M  V30 4208 C 419.354 4.45993 1.04184 0
M  V30 4209 N 420.845 4.4976 1.10772 0
M  V30 4210 C 421.58 5.59393 1.25964 0
M  V30 4211 N 421.076 6.78923 1.37968 0
M  V30 4212 N 422.869 5.47107 1.28959 0
M  V30 4213 H 415.02 2.05288 -0.545041 0
M  V30 4214 H 417.283 0.930305 -0.182308 0
M  V30 4215 H 416.989 3.51594 -0.086207 0
M  V30 4216 H 416.863 3.38743 1.6593 0
M  V30 4217 H 419.25 2.39749 1.7206 0
M  V30 4218 H 419.331 2.55769 -0.0396831 0
M  V30 4219 H 418.975 5.07524 0.195422 0
M  V30 4220 H 418.905 4.88548 1.96542 0
M  V30 4221 H 421.396 3.63651 1.02794 0
M  V30 4222 H 421.709 7.58231 1.49353 0
M  V30 4223 H 420.054 6.81763 1.34999 0
M  V30 4224 H 423.245 4.52668 1.19202 0
M  V30 4225 H 423.418 6.32595 1.40455 0
M  V30 4226 N 416.824 -0.551391 1.4764 0
M  V30 4227 C 417.787 -1.64007 1.60107 0
M  V30 4228 C 418.787 -1.53601 0.47576 0
M  V30 4229 O 419.977 -1.57655 0.740988 0
M  V30 4230 C 417.109 -3.03569 1.55108 0
M  V30 4231 H 418.302 -1.543 2.57161 0
M  V30 4232 H 415.855 -0.771776 1.35917 0
M  V30 4233 H 416.59 -3.18804 0.594519 0
M  V30 4234 H 416.375 -3.12532 2.36783 0
M  V30 4235 H 417.865 -3.82762 1.66982 0
M  V30 4236 N 418.302 -1.35869 -0.798587 0
M  V30 4237 C 419.55 -1.29332 -1.55298 0
M  V30 4238 C 419.871 0.129729 -1.94568 0
M  V30 4239 O 419.141 1.06796 -1.6423 0
M  V30 4240 H 417.721 -0.475737 -0.57592 0
M  V30 4241 H 420.383 -1.70062 -0.952093 0
M  V30 4242 H 419.479 -1.91458 -2.46476 0
M  V30 4243 N 419.78 1.02168 -1.19998 0
M  V30 4244 C 420.71 2.12488 -0.96804 0
M  V30 4245 C 421.691 1.69799 0.101185 0
M  V30 4246 O 422.876 1.94121 -0.0552993 0
M  V30 4247 C 420.006 3.43479 -0.513776 0
M  V30 4248 C 418.96 3.99884 -1.52566 0
M  V30 4249 C 418.286 5.26582 -0.928214 0
M  V30 4250 C 419.586 4.33861 -2.90795 0
M  V30 4251 H 421.28 2.32149 -1.89069 0
M  V30 4252 H 418.826 1.11564 -0.910468 0
M  V30 4253 H 420.779 4.20036 -0.338774 0
M  V30 4254 H 419.503 3.23561 0.444493 0
M  V30 4255 H 418.162 3.25429 -1.68794 0
M  V30 4256 H 417.81 5.02986 0.0378289 0
M  V30 4257 H 417.51 5.65284 -1.60397 0
M  V30 4258 H 419.034 6.05799 -0.764167 0
M  V30 4259 H 420.448 5.01327 -2.78109 0
M  V30 4260 H 418.845 4.83664 -3.55231 0
M  V30 4261 H 419.915 3.42848 -3.42904 0
M  V30 4262 N 421.258 1.00505 1.21394 0
M  V30 4263 C 422.669 0.721082 1.72213 0
M  V30 4264 C 423.02 -0.761263 1.80829 0
M  V30 4265 O 422.145 -1.59464 1.46288 0
M  V30 4266 C 422.74 1.30228 3.12772 0
M  V30 4267 C 421.299 1.06743 3.60947 0
M  V30 4268 C 420.446 1.41507 2.38477 0
M  V30 4269 H 423.397 1.17594 1.06571 0
M  V30 4270 H 423.418 0.686955 3.74247 0
M  V30 4271 H 422.93 2.38115 3.06468 0
M  V30 4272 H 421.031 0.00572162 3.726 0
M  V30 4273 H 421.144 1.73936 4.46411 0
M  V30 4274 H 419.508 0.833852 2.40664 0
M  V30 4275 H 420.291 2.50424 2.34824 0
M  V30 4276 N 422.737 -1.36956 0.779787 0
M  V30 4277 C 423.977 -2.01328 0.353043 0
M  V30 4278 C 424.341 -1.60558 -1.05286 0
M  V30 4279 O 425.542 -2.1745 -1.58016 0
M  V30 4280 C 423.813 -3.53874 0.500822 0
M  V30 4281 S 425.372 -4.38506 0.16053 0
M  V30 4282 H 422.19 -0.69799 0.13539 0
M  V30 4283 H 424.792 -1.67016 1.01617 0
M  V30 4284 H 423.496 -3.81034 1.52451 0
M  V30 4285 H 423.027 -3.92994 -0.178574 0
M  V30 4286 H 425.042 -4.85153 -1.04121 0
M  V30 4287 N 424.215 -0.530993 -1.48385 0
M  V30 4288 C 425.147 0.268353 -2.27624 0
M  V30 4289 C 426.16 0.903525 -1.35426 0
M  V30 4290 O 427.349 0.781796 -1.60469 0
M  V30 4291 C 424.449 1.39535 -3.08842 0
M  V30 4292 C 423.622 0.861913 -4.28824 0
M  V30 4293 C 422.681 1.87016 -4.91845 0
M  V30 4294 O 421.707 1.4267 -5.5103 0
M  V30 4295 N 422.909 3.20238 -4.84178 0
M  V30 4296 H 425.674 -0.41123 -2.96865 0
M  V30 4297 H 423.235 -0.365387 -1.57723 0
M  V30 4298 H 425.227 2.06803 -3.47871 0
M  V30 4299 H 423.797 1.97859 -2.42014 0
M  V30 4300 H 423.017 0.0132126 -3.94198 0
M  V30 4301 H 424.305 0.484415 -5.06489 0
M  V30 4302 H 423.703 3.58932 -4.37246 0
M  V30 4303 H 422.26 3.83136 -5.27305 0
M  V30 4304 N 425.693 1.55336 -0.266172 0
M  V30 4305 C 426.97 1.91372 0.404486 0
M  V30 4306 C 427.35 1.18935 1.74407 0
M  V30 4307 O 426.698 0.3132 2.26343 0
M  V30 4308 C 426.908 3.44581 0.553593 0
M  V30 4309 C 428.256 4.16196 0.840618 0
M  V30 4310 O 429.28 3.50426 0.638739 0
M  V30 4311 O 428.139 5.32567 1.22618 0
M  V30 4312 H 425.233 0.797194 0.220025 0
M  V30 4313 H 427.779 1.66813 -0.311664 0
M  V30 4314 H 426.551 3.89357 -0.389498 0
M  V30 4315 H 426.174 3.75065 1.31955 0
M  V30 4316 N 427.171 -0.0066808 1.57599 0
M  V30 4317 C 428.101 -0.999296 2.11036 0
M  V30 4318 C 429.082 -1.36278 1.01795 0
M  V30 4319 O 430.267 -1.4477 1.29442 0
M  V30 4320 C 427.397 -2.29328 2.60818 0
M  V30 4321 C 426.351 -2.07159 3.74525 0
M  V30 4322 C 425.677 -3.42512 4.10596 0
M  V30 4323 C 426.977 -1.43959 5.02069 0
M  V30 4324 H 428.671 -0.554382 2.94223 0
M  V30 4325 H 426.217 -0.265221 1.41536 0
M  V30 4326 H 428.17 -2.99117 2.96828 0
M  V30 4327 H 426.894 -2.7592 1.74745 0
M  V30 4328 H 425.553 -1.39797 3.38899 0
M  V30 4329 H 425.201 -3.86795 3.21556 0
M  V30 4330 H 424.901 -3.28498 4.87199 0
M  V30 4331 H 426.425 -4.13628 4.4916 0
M  V30 4332 H 427.839 -2.03696 5.35893 0
M  V30 4333 H 426.236 -1.40452 5.83432 0
M  V30 4334 H 427.306 -0.407992 4.83181 0
M  V30 4335 N 428.649 -1.55105 -0.279332 0
M  V30 4336 C 429.559 -1.90638 -1.36727 0
M  V30 4337 C 430.575 -0.802899 -1.54368 0
M  V30 4338 O 431.751 -1.10138 -1.68616 0
M  V30 4339 C 428.816 -2.16547 -2.70755 0
M  V30 4340 C 427.877 -3.40146 -2.61915 0
M  V30 4341 C 427.11 -3.6481 -3.8955 0
M  V30 4342 O 427.333 -2.92095 -4.89935 0
M  V30 4343 O 426.267 -4.58343 -3.90135 0
M  V30 4344 H 430.093 -2.83237 -1.09591 0
M  V30 4345 H 427.678 -1.4157 -0.477306 0
M  V30 4346 H 429.56 -2.34665 -3.50014 0
M  V30 4347 H 428.235 -1.27131 -2.9769 0
M  V30 4348 H 427.142 -3.2737 -1.81052 0
M  V30 4349 H 428.475 -4.29761 -2.3993 0
M  V30 4350 N 430.127 0.543554 -1.4793 0
M  V30 4351 C 431.374 1.30008 -1.55255 0
M  V30 4352 C 431.702 1.93245 -0.220612 0
M  V30 4353 O 430.957 1.79141 0.787843 0
M  V30 4354 C 431.256 2.42078 -2.62932 0
M  V30 4355 C 430.922 1.96583 -4.0579 0
M  V30 4356 C 429.584 1.83893 -4.44676 0
M  V30 4357 C 431.936 1.62034 -4.95373 0
M  V30 4358 C 429.264 1.34969 -5.70964 0
M  V30 4359 C 431.616 1.14577 -6.22137 0
M  V30 4360 C 430.28 1.00493 -6.59892 0
M  V30 4361 H 429.55 0.475735 -0.568117 0
M  V30 4362 H 432.197 0.608075 -1.81589 0
M  V30 4363 H 430.502 3.16892 -2.30406 0
M  V30 4364 H 432.199 3.00236 -2.65818 0
M  V30 4365 H 428.789 2.07407 -3.75074 0
M  V30 4366 H 432.973 1.70705 -4.66019 0
M  V30 4367 H 428.229 1.2274 -5.98953 0
M  V30 4368 H 432.403 0.869109 -6.90955 0
M  V30 4369 H 430.03 0.623624 -7.57638 0
M  V30 4370 N 431.605 1.3629 0.791371 0
M  V30 4371 C 432.851 1.30605 1.55146 0
M  V30 4372 C 433.184 -0.115042 1.93859 0
M  V30 4373 O 432.459 -1.06798 1.62556 0
M  V30 4374 C 432.742 2.22692 2.82985 0
M  V30 4375 C 432.595 3.73489 2.50651 0
M  V30 4376 C 433.914 2.13588 3.84796 0
M  V30 4377 H 431.033 0.475761 0.562868 0
M  V30 4378 H 433.675 1.66825 0.909358 0
M  V30 4379 H 431.825 1.91933 3.37778 0
M  V30 4380 H 433.497 4.14758 2.01924 0
M  V30 4381 H 431.74 3.93021 1.83622 0
M  V30 4382 H 432.411 4.3333 3.41949 0
M  V30 4383 H 434.887 2.40659 3.39445 0
M  V30 4384 H 433.763 2.80195 4.71998 0
M  V30 4385 H 434.024 1.12256 4.27611 0
M  V30 4386 N 433.083 -1.0153 1.20538 0
M  V30 4387 C 434.015 -2.10224 0.913155 0
M  V30 4388 C 435.028 -1.62495 -0.0995998 0
M  V30 4389 O 436.217 -1.78014 0.131582 0
M  V30 4390 C 433.317 -3.37111 0.347717 0
M  V30 4391 C 432.49 -4.13971 1.41233 0
M  V30 4392 C 431.549 -5.19158 0.857976 0
M  V30 4393 O 430.575 -5.48 1.53897 0
M  V30 4394 N 431.777 -5.7955 -0.331966 0
M  V30 4395 H 434.542 -2.35879 1.84881 0
M  V30 4396 H 432.103 -1.17931 1.10923 0
M  V30 4397 H 434.095 -4.04683 -0.0373026 0
M  V30 4398 H 432.665 -3.08696 -0.492527 0
M  V30 4399 H 431.885 -3.41351 1.97163 0
M  V30 4400 H 433.173 -4.62103 2.12928 0
M  V30 4401 H 432.571 -5.58455 -0.902478 0
M  V30 4402 H 431.128 -6.48464 -0.65861 0
M  V30 4403 N 434.561 -1.01147 -1.20859 0
M  V30 4404 C 435.808 -0.697865 -1.90095 0
M  V30 4405 C 436.136 0.772014 -1.78522 0
M  V30 4406 O 435.391 1.57595 -1.16027 0
M  V30 4407 C 435.69 -1.0727 -3.40922 0
M  V30 4408 C 435.356 -2.53792 -3.72693 0
M  V30 4409 C 434.018 -2.93829 -3.81075 0
M  V30 4410 C 436.37 -3.48674 -3.87397 0
M  V30 4411 C 433.698 -4.27696 -4.01613 0
M  V30 4412 C 436.05 -4.82223 -4.09444 0
M  V30 4413 C 434.714 -5.21973 -4.16054 0
M  V30 4414 H 433.984 -0.255367 -0.695607 0
M  V30 4415 H 436.631 -1.27111 -1.43231 0
M  V30 4416 H 434.936 -0.417799 -3.89566 0
M  V30 4417 H 436.633 -0.807818 -3.92779 0
M  V30 4418 H 433.223 -2.21768 -3.66765 0
M  V30 4419 H 437.407 -3.18904 -3.80281 0
M  V30 4420 H 432.663 -4.58055 -4.04964 0
M  V30 4421 H 436.837 -5.55672 -4.19763 0
M  V30 4422 H 434.464 -6.25717 -4.31721 0
M  V30 4423 N 436.039 1.36541 -0.78704 0
M  V30 4424 C 436.989 2.27459 -0.156957 0
M  V30 4425 C 437.973 1.46843 0.657709 0
M  V30 4426 O 439.165 1.69245 0.518173 0
M  V30 4427 C 436.294 3.35893 0.709278 0
M  V30 4428 C 435.38 4.23947 -0.114049 0
M  V30 4429 N 435.771 4.92145 -1.16736 0
M  V30 4430 C 434.069 4.4587 0.107497 0
M  V30 4431 C 434.77 5.57261 -1.66837 0
M  V30 4432 N 433.746 5.3473 -0.977992 0
M  V30 4433 H 437.548 2.77669 -0.963185 0
M  V30 4434 H 435.062 1.49839 -0.62627 0
M  V30 4435 H 437.059 3.99953 1.17656 0
M  V30 4436 H 435.719 2.87238 1.51408 0
M  V30 4437 H 436.73 4.94169 -1.54976 0
M  V30 4438 H 433.407 4.08056 0.882994 0
M  V30 4439 H 434.797 6.21728 -2.54762 0
M  V30 4440 N 437.518 0.538854 1.48102 0
M  V30 4441 C 438.929 0.100679 1.86428 0
M  V30 4442 C 439.28 -1.32447 1.44749 0
M  V30 4443 O 438.405 -1.99339 0.842199 0
M  V30 4444 C 439 0.175933 3.38343 0
M  V30 4445 C 437.559 -0.207098 3.7583 0
M  V30 4446 C 436.706 0.531741 2.72154 0
M  V30 4447 H 439.657 0.749614 1.3988 0
M  V30 4448 H 439.678 -0.610144 3.75576 0
M  V30 4449 H 439.19 1.21328 3.68648 0
M  V30 4450 H 437.291 -1.24626 3.5114 0
M  V30 4451 H 437.404 0.138687 4.78899 0
M  V30 4452 H 435.768 -0.0230462 2.5469 0
M  V30 4453 H 436.551 1.56989 3.05302 0
M  V30 4454 N 438.996 -1.55193 0.274407 0
M  V30 4455 C 440.224 -2.03987 -0.345943 0
M  V30 4456 C 440.639 -1.15279 -1.4952 0
M  V30 4457 O 439.996 -0.172759 -1.8168 0
M  V30 4458 C 440.047 -3.51898 -0.827631 0
M  V30 4459 O 439.768 -4.37231 0.275855 0
M  V30 4460 C 441.269 -4.16577 -1.51587 0
M  V30 4461 H 438.489 -0.666335 -0.0789892 0
M  V30 4462 H 441.033 -2.00423 0.406294 0
M  V30 4463 H 439.188 -3.55909 -1.52996 0
M  V30 4464 H 439.602 -5.24415 -0.0943638 0
M  V30 4465 H 441.076 -5.21678 -1.80433 0
M  V30 4466 H 441.553 -3.64707 -2.44716 0
M  V30 4467 H 442.159 -4.16568 -0.857409 0
M  V30 4468 N 440.474 -0.00167713 -1.576 0
M  V30 4469 C 441.722 0.681471 -1.90264 0
M  V30 4470 C 442.043 1.7422 -0.875924 0
M  V30 4471 O 441.313 1.95709 0.0864412 0
M  V30 4472 H 439.893 0.254696 -0.702239 0
M  V30 4473 H 442.555 -0.0429996 -1.94853 0
M  V30 4474 H 441.651 1.15166 -2.90075 0
M  V30 4475 N 441.952 1.55251 0.271103 0
M  V30 4476 C 443.201 1.75151 1.00025 0
M  V30 4477 C 443.514 0.561041 1.87381 0
M  V30 4478 O 444.72 0.642506 2.63788 0
M  V30 4479 C 443.176 3.09999 1.82835 0
M  V30 4480 C 442.784 4.3662 1.00336 0
M  V30 4481 C 444.528 3.39249 2.55168 0
M  V30 4482 C 442.435 5.62506 1.82595 0
M  V30 4483 H 441.365 0.652877 0.377183 0
M  V30 4484 H 444.016 1.81708 0.255843 0
M  V30 4485 H 442.398 2.97485 2.61378 0
M  V30 4486 H 443.572 4.60055 0.261959 0
M  V30 4487 H 441.887 4.14527 0.394486 0
M  V30 4488 H 444.484 4.3051 3.1712 0
M  V30 4489 H 444.827 2.59467 3.2555 0
M  V30 4490 H 445.36 3.52869 1.83653 0
M  V30 4491 H 442.099 6.45041 1.16631 0
M  V30 4492 H 441.619 5.43211 2.54327 0
M  V30 4493 H 443.298 6.00875 2.39913 0
M  V30 4494 N 443.43 -0.535701 1.48216 0
M  V30 4495 C 444.66 -1.3148 1.59363 0
M  V30 4496 C 445.068 -1.8753 0.250844 0
M  V30 4497 O 444.411 -1.66821 -0.769174 0
M  V30 4498 C 444.473 -2.50731 2.57632 0
M  V30 4499 C 444.137 -2.15811 4.02833 0
M  V30 4500 C 445.134 -1.71822 4.90686 0
M  V30 4501 C 442.819 -2.26509 4.48329 0
M  V30 4502 C 444.813 -1.3899 6.22062 0
M  V30 4503 C 442.5 -1.93289 5.79726 0
M  V30 4504 C 443.498 -1.49599 6.66415 0
M  V30 4505 O 443.186 -1.16812 7.95368 0
M  V30 4506 H 442.918 -0.406315 0.540263 0
M  V30 4507 H 445.472 -0.653569 1.94725 0
M  V30 4508 H 443.702 -3.19817 2.1738 0
M  V30 4509 H 445.391 -3.12797 2.58675 0
M  V30 4510 H 446.157 -1.63031 4.56778 0
M  V30 4511 H 442.036 -2.59471 3.81045 0
M  V30 4512 H 445.58 -1.04816 6.89681 0
M  V30 4513 H 441.477 -2.01718 6.13172 0
M  V30 4514 H 442.245 -1.30259 8.08069 0
M  V30 4515 N 444.908 -1.36708 -0.784132 0
M  V30 4516 C 446.156 -1.30972 -1.53918 0
M  V30 4517 C 446.477 0.109086 -1.94695 0
M  V30 4518 O 445.747 1.05048 -1.65353 0
M  V30 4519 H 444.327 -0.481819 -0.570841 0
M  V30 4520 H 446.989 -1.71063 -0.934002 0
M  V30 4521 H 446.085 -1.94061 -2.44431 0
M  V30 4522 N 446.386 1.0089 -1.21074 0
M  V30 4523 C 447.349 2.0775 -0.968129 0
M  V30 4524 C 448.349 1.6069 0.0593445 0
M  V30 4525 O 449.539 1.73293 -0.177525 0
M  V30 4526 C 446.671 3.37794 -0.459108 0
M  V30 4527 H 447.864 2.30707 -1.9161 0
M  V30 4528 H 445.417 1.17807 -1.02719 0
M  V30 4529 H 446.152 3.20516 0.49397 0
M  V30 4530 H 445.937 3.7328 -1.20019 0
M  V30 4531 H 447.427 4.16454 -0.309099 0
M  V30 4532 N 447.864 1.01787 1.20321 0
M  V30 4533 C 449.112 0.706538 1.89347 0
M  V30 4534 C 449.433 -0.766289 1.79313 0
M  V30 4535 O 448.703 -1.55126 1.19635 0
M  V30 4536 H 447.283 0.258348 0.700903 0
M  V30 4537 H 449.945 1.28974 1.46122 0
M  V30 4538 H 449.041 0.991066 2.95946 0
M  V30 4539 N 449.342 -1.36122 0.79427 0
M  V30 4540 C 450.582 -2.00942 0.374376 0
M  V30 4541 C 450.946 -1.61666 -1.03577 0
M  V30 4542 O 452.147 -2.19113 -1.55701 0
M  V30 4543 C 450.418 -3.53323 0.538327 0
M  V30 4544 S 451.977 -4.38311 0.20703 0
M  V30 4545 H 448.795 -0.696515 0.142785 0
M  V30 4546 H 451.397 -1.65929 1.03382 0
M  V30 4547 H 450.101 -3.79395 1.56484 0
M  V30 4548 H 449.632 -3.93162 -0.136882 0
M  V30 4549 H 451.647 -4.8623 -0.989695 0
M  V30 4550 N 450.82 -0.546701 -1.47814 0
M  V30 4551 C 451.75 0.195317 -2.32682 0
M  V30 4552 C 452.731 0.918981 -1.43139 0
M  V30 4553 O 453.916 0.901501 -1.72008 0
M  V30 4554 C 451.046 1.23237 -3.247 0
M  V30 4555 C 450 0.625818 -4.234 0
M  V30 4556 C 449.326 1.76674 -5.04669 0
M  V30 4557 C 450.626 -0.413515 -5.2066 0
M  V30 4558 H 452.32 -0.513184 -2.94969 0
M  V30 4559 H 449.866 -0.248241 -1.41844 0
M  V30 4560 H 451.819 1.75955 -3.82907 0
M  V30 4561 H 450.543 1.97067 -2.60446 0
M  V30 4562 H 449.202 0.120023 -3.66403 0
M  V30 4563 H 448.85 2.49383 -4.36826 0
M  V30 4564 H 448.55 1.36673 -5.71484 0
M  V30 4565 H 450.074 2.29738 -5.65732 0
M  V30 4566 H 451.488 0.0272042 -5.73294 0
M  V30 4567 H 449.885 -0.731825 -5.95621 0
M  V30 4568 H 450.955 -1.31325 -4.66778 0
M  V30 4569 N 452.299 1.55045 -0.282633 0
M  V30 4570 C 453.548 1.98938 0.332667 0
M  V30 4571 C 453.861 1.17455 1.56409 0
M  V30 4572 O 455.067 1.51527 2.25282 0
M  V30 4573 C 453.523 3.54105 0.643226 0
M  V30 4574 C 453.131 4.44374 -0.568814 0
M  V30 4575 C 454.875 4.06569 1.22074 0
M  V30 4576 C 452.782 5.90943 -0.232426 0
M  V30 4577 H 451.712 0.743043 0.128075 0
M  V30 4578 H 454.363 1.79341 -0.388464 0
M  V30 4579 H 452.745 3.69532 1.42346 0
M  V30 4580 H 453.919 4.40718 -1.34551 0
M  V30 4581 H 452.234 4.02585 -1.06369 0
M  V30 4582 H 454.831 5.13626 1.48635 0
M  V30 4583 H 455.174 3.56057 2.15707 0
M  V30 4584 H 455.707 3.94612 0.502621 0
M  V30 4585 H 452.446 6.45567 -1.13683 0
M  V30 4586 H 451.966 5.9765 0.507357 0
M  V30 4587 H 453.645 6.4677 0.172657 0
M  V30 4588 N 453.777 0.010035 1.57597 0
M  V30 4589 C 455.005 -0.683413 1.95287 0
M  V30 4590 C 455.42 -1.66747 0.885481 0
M  V30 4591 O 454.777 -1.82003 -0.134629 0
M  V30 4592 C 454.828 -1.40652 3.33015 0
M  V30 4593 O 454.549 -0.461916 4.35658 0
M  V30 4594 C 456.05 -2.19356 3.85225 0
M  V30 4595 H 453.27 -0.189708 0.643624 0
M  V30 4596 H 455.814 0.0641359 2.04399 0
M  V30 4597 H 453.969 -2.10562 3.2518 0
M  V30 4598 H 454.383 -0.973215 5.15392 0
M  V30 4599 H 455.857 -2.65433 4.83993 0
M  V30 4600 H 456.334 -3.02457 3.18459 0
M  V30 4601 H 456.94 -1.54442 3.96267 0
M  V30 4602 N 455.255 -1.55392 -0.262866 0
M  V30 4603 C 456.165 -1.92077 -1.34698 0
M  V30 4604 C 457.181 -0.819227 -1.53508 0
M  V30 4605 O 458.357 -1.11921 -1.67439 0
M  V30 4606 C 455.422 -2.19407 -2.68443 0
M  V30 4607 C 454.483 -3.42905 -2.58292 0
M  V30 4608 C 453.716 -3.68921 -3.85659 0
M  V30 4609 O 453.939 -2.97275 -4.8681 0
M  V30 4610 O 452.873 -4.62455 -3.85252 0
M  V30 4611 H 456.699 -2.84384 -1.06581 0
M  V30 4612 H 454.284 -1.42069 -0.462264 0
M  V30 4613 H 456.166 -2.38365 -3.47506 0
M  V30 4614 H 454.841 -1.30282 -2.96325 0
M  V30 4615 H 453.748 -3.29272 -1.7757 0
M  V30 4616 H 455.081 -4.32282 -2.35358 0
M  V30 4617 N 456.733 0.527833 -1.48498 0
M  V30 4618 C 457.981 1.28101 -1.56316 0
M  V30 4619 C 458.302 1.9352 -0.239781 0
M  V30 4620 O 457.572 1.81433 0.738849 0
M  V30 4621 H 456.152 0.475793 -0.575873 0
M  V30 4622 H 458.814 0.614052 -1.84974 0
M  V30 4623 H 457.91 2.05916 -2.34532 0
M  V30 4624 N 458.211 1.37122 0.776871 0
M  V30 4625 C 459.451 1.33441 1.54831 0
M  V30 4626 C 459.815 -0.0818963 1.91825 0
M  V30 4627 O 461.016 -0.24338 2.67696 0
M  V30 4628 C 459.287 2.24267 2.78279 0
M  V30 4629 S 460.846 2.38389 3.68397 0
M  V30 4630 H 457.664 0.473791 0.530135 0
M  V30 4631 H 460.266 1.7282 0.913968 0
M  V30 4632 H 458.97 3.261 2.49173 0
M  V30 4633 H 458.501 1.85953 3.46677 0
M  V30 4634 H 460.516 1.59068 4.70013 0
M  V30 4635 N 459.689 -1.00246 1.21608 0
M  V30 4636 C 461.105 -1.26435 0.973975 0
M  V30 4637 C 461.305 -1.98642 -0.338143 0
M  V30 4638 O 460.361 -2.29026 -1.06317 0
M  V30 4639 C 461.674 -2.08551 2.16626 0
M  V30 4640 C 463.222 -2.21769 2.20879 0
M  V30 4641 C 463.697 -3.07267 3.39633 0
M  V30 4642 N 465.188 -3.14855 3.39736 0
M  V30 4643 C 465.923 -3.81274 4.28273 0
M  V30 4644 N 465.419 -4.497 5.27012 0
M  V30 4645 N 467.212 -3.7794 4.16074 0
M  V30 4646 H 459.363 -0.518089 2.05984 0
M  V30 4647 H 461.626 -0.291368 0.902113 0
M  V30 4648 H 461.332 -1.62847 3.11727 0
M  V30 4649 H 461.206 -3.09303 2.15897 0
M  V30 4650 H 463.593 -2.66691 1.26332 0
M  V30 4651 H 463.674 -1.20478 2.25652 0
M  V30 4652 H 463.318 -2.63047 4.34475 0
M  V30 4653 H 463.248 -4.08678 3.321 0
M  V30 4654 H 465.739 -2.66147 2.6828 0
M  V30 4655 H 466.052 -4.98092 5.90867 0
M  V30 4656 H 464.397 -4.48479 5.30935 0
M  V30 4657 H 467.588 -3.23638 3.38195 0
M  V30 4658 H 467.761 -4.29424 4.85282 0
M  V30 4659 N 461.167 -1.02423 -1.1978 0
M  V30 4660 C 462.415 -0.716569 -1.8897 0
M  V30 4661 C 462.736 0.756769 -1.79716 0
M  V30 4662 O 462.006 1.5449 -1.20456 0
M  V30 4663 H 460.586 -0.262062 -0.699523 0
M  V30 4664 H 463.248 -1.29747 -1.45436 0
M  V30 4665 H 462.344 -1.00675 -2.95417 0
M  V30 4666 N 462.645 1.35699 -0.801477 0
M  V30 4667 C 463.555 2.33661 -0.209691 0
M  V30 4668 C 464.571 1.6162 0.644591 0
M  V30 4669 O 465.747 1.93529 0.557545 0
M  V30 4670 C 462.812 3.40816 0.636033 0
M  V30 4671 C 461.873 4.28639 -0.238147 0
M  V30 4672 C 461.106 5.30676 0.567307 0
M  V30 4673 O 461.329 5.41174 1.8024 0
M  V30 4674 O 460.263 6.01887 -0.0391336 0
M  V30 4675 H 464.089 2.8606 -1.01996 0
M  V30 4676 H 461.674 1.38379 -0.563164 0
M  V30 4677 H 463.556 4.06301 1.11791 0
M  V30 4678 H 462.231 2.90696 1.42399 0
M  V30 4679 H 461.138 3.66152 -0.767044 0
M  V30 4680 H 462.471 4.82143 -0.989915 0
M  V30 4681 N 464.123 0.554532 1.47522 0
M  V30 4682 C 465.371 0.0294208 2.02079 0
M  V30 4683 C 465.692 -1.32411 1.43151 0
M  V30 4684 O 464.962 -1.863 0.605728 0
M  V30 4685 H 463.542 0.00788672 0.746958 0
M  V30 4686 H 466.204 0.723934 1.80956 0
M  V30 4687 H 465.3 -0.0606745 3.12041 0
M  V30 4688 N 465.601 -1.54893 0.290851 0
M  V30 4689 C 466.849 -1.99538 -0.320756 0
M  V30 4690 C 467.17 -1.18075 -1.55188 0
M  V30 4691 O 466.44 -0.274162 -1.93972 0
M  V30 4692 H 465.02 -0.737052 -0.121507 0
M  V30 4693 H 467.682 -1.90755 0.399832 0
M  V30 4694 H 466.778 -3.06282 -0.599802 0
M  V30 4695 N 467.08 -0.0183926 -1.57589 0
M  V30 4696 C 468.329 0.66185 -1.90532 0
M  V30 4697 C 468.642 1.73904 -0.895366 0
M  V30 4698 O 469.848 2.47518 -1.11566 0
M  V30 4699 C 468.304 1.22844 -3.38286 0
M  V30 4700 C 467.912 0.185103 -4.47617 0
M  V30 4701 C 469.656 1.88581 -3.80312 0
M  V30 4702 C 467.563 0.762723 -5.86461 0
M  V30 4703 H 466.493 0.250972 -0.711006 0
M  V30 4704 H 469.144 -0.0819435 -1.83317 0
M  V30 4705 H 467.526 2.0235 -3.40398 0
M  V30 4706 H 468.7 -0.58671 -4.5705 0
M  V30 4707 H 467.015 -0.372889 -4.14727 0
M  V30 4708 H 469.612 2.32735 -4.81392 0
M  V30 4709 H 469.955 2.72408 -3.14801 0
M  V30 4710 H 470.488 1.15782 -3.80578 0
M  V30 4711 H 467.227 -0.0371713 -6.55489 0
M  V30 4712 H 466.747 1.50327 -5.80656 0
M  V30 4713 H 468.426 1.25576 -6.34697 0
M  V30 4714 N 468.558 1.5553 0.254621 0
M  V30 4715 C 469.488 1.9268 1.31897 0
M  V30 4716 C 470.469 0.790797 1.506 0
M  V30 4717 O 471.654 1.05045 1.63337 0
M  V30 4718 C 468.784 2.21477 2.67517 0
M  V30 4719 C 467.738 3.37256 2.63519 0
M  V30 4720 C 467.064 3.51576 4.02862 0
M  V30 4721 C 468.364 4.73157 2.21179 0
M  V30 4722 H 470.058 2.81832 1.01051 0
M  V30 4723 H 467.604 1.35599 0.484662 0
M  V30 4724 H 469.557 2.46055 3.42104 0
M  V30 4725 H 468.281 1.29144 2.99982 0
M  V30 4726 H 466.94 3.12675 1.9139 0
M  V30 4727 H 466.588 2.56676 4.32581 0
M  V30 4728 H 466.288 4.2943 4.01078 0
M  V30 4729 H 467.812 3.78467 4.79161 0
M  V30 4730 H 469.226 4.97158 2.85494 0
M  V30 4731 H 467.623 5.54058 2.30521 0
M  V30 4732 H 468.693 4.70739 1.16332 0
M  V30 4733 N 470.036 -0.519951 1.48776 0
M  V30 4734 C 471.285 -1.27175 1.56555 0
M  V30 4735 C 471.598 -1.9401 0.248869 0
M  V30 4736 O 472.804 -2.70725 0.205004 0
M  V30 4737 C 471.26 -2.30811 2.76142 0
M  V30 4738 C 470.868 -1.7 4.14493 0
M  V30 4739 C 472.612 -3.06937 2.9324 0
M  V30 4740 C 470.519 -2.71635 5.25327 0
M  V30 4741 H 469.449 -0.478329 0.582853 0
M  V30 4742 H 472.1 -0.547916 1.75129 0
M  V30 4743 H 470.482 -3.06274 2.51023 0
M  V30 4744 H 471.656 -1.00658 4.49672 0
M  V30 4745 H 469.971 -1.06331 4.02595 0
M  V30 4746 H 472.568 -3.82905 3.73213 0
M  V30 4747 H 472.911 -3.63409 2.03075 0
M  V30 4748 H 473.444 -2.38589 3.18308 0
M  V30 4749 H 470.183 -2.1997 6.1749 0
M  V30 4750 H 469.703 -3.39275 4.94624 0
M  V30 4751 H 471.382 -3.34429 5.53865 0
M  V30 4752 N 471.514 -1.37532 -0.769588 0
M  V30 4753 C 472.462 -1.33561 -1.90432 0
M  V30 4754 C 473.456 -0.224027 -1.67912 0
M  V30 4755 O 474.662 -0.392174 -1.75676 0
M  V30 4756 H 471.037 -0.416279 -0.626271 0
M  V30 4757 H 473.008 -2.29348 -1.90899 0
M  V30 4758 C 471.757 -1.16162 -3.27722 0
M  V30 4759 H 471.08 -2.00951 -3.45628 0
M  V30 4760 H 472.52 -1.17434 -4.07413 0
M  V30 4761 C 470.979 0.132583 -3.36639 0
M  V30 4762 O 471.509 1.11539 -3.85904 0
M  V30 4763 N 469.715 0.184013 -2.90017 0
M  V30 4764 H 469.262 -0.616415 -2.50116 0
M  V30 4765 H 469.22 1.04956 -2.96364 0
M  V30 4766 N 472.992 0.995999 -1.22138 0
M  V30 4767 C 474.217 1.77601 -1.0711 0
M  V30 4768 C 474.642 1.84339 0.374264 0
M  V30 4769 O 474 1.29359 1.27028 0
M  V30 4770 C 474.048 3.18897 -1.68336 0
M  V30 4771 O 473.152 4.01663 -0.934928 0
M  V30 4772 H 472.493 0.547011 -0.376397 0
M  V30 4773 H 475.023 1.25137 -1.6187 0
M  V30 4774 H 475.033 3.69539 -1.72931 0
M  V30 4775 H 473.708 3.13308 -2.73516 0
M  V30 4776 H 472.285 3.60204 -0.964751 0
M  V30 4777 N 474.47 1.03057 1.19235 0
M  V30 4778 C 475.402 0.570932 2.21975 0
M  V30 4779 C 476.415 -0.354088 1.58903 0
M  V30 4780 O 477.604 -0.150211 1.77867 0
M  V30 4781 C 474.704 -0.187152 3.38383 0
M  V30 4782 C 473.877 0.743231 4.31039 0
M  V30 4783 C 472.936 0.0302493 5.26191 0
M  V30 4784 O 471.962 0.657371 5.65391 0
M  V30 4785 N 473.164 -1.23991 5.67104 0
M  V30 4786 H 475.929 1.45456 2.62036 0
M  V30 4787 H 473.49 0.909807 1.33918 0
M  V30 4788 H 475.482 -0.673715 3.99053 0
M  V30 4789 H 474.052 -0.972205 2.97098 0
M  V30 4790 H 473.272 1.40985 3.68126 0
M  V30 4791 H 474.56 1.3755 4.89854 0
M  V30 4792 H 473.958 -1.77011 5.37293 0
M  V30 4793 H 472.515 -1.67093 6.30018 0
M  V30 4794 N 475.948 -1.35272 0.808662 0
M  V30 4795 C 477.196 -1.98316 0.389233 0
M  V30 4796 C 477.517 -1.64465 -1.04767 0
M  V30 4797 O 476.787 -0.928175 -1.72516 0
M  V30 4798 H 475.367 -0.733585 0.140935 0
M  V30 4799 H 478.029 -1.6515 1.03496 0
M  V30 4800 H 477.125 -3.08123 0.496631 0
M  V30 4801 N 477.426 -0.562348 -1.47226 0
M  V30 4802 C 478.336 0.185466 -2.33866 0
M  V30 4803 C 479.352 0.906713 -1.48508 0
M  V30 4804 O 480.528 0.874458 -1.81425 0
M  V30 4805 C 477.593 1.19904 -3.25306 0
M  V30 4806 C 476.654 0.484669 -4.26555 0
M  V30 4807 C 475.887 1.44996 -5.13626 0
M  V30 4808 O 476.11 2.68515 -5.03245 0
M  V30 4809 O 475.044 0.971642 -5.94006 0
M  V30 4810 H 478.87 -0.525361 -2.99121 0
M  V30 4811 H 476.455 -0.322916 -1.45868 0
M  V30 4812 H 478.337 1.78399 -3.81774 0
M  V30 4813 H 477.012 1.8917 -2.62672 0
M  V30 4814 H 475.919 -0.141605 -3.73832 0
M  V30 4815 H 477.252 -0.166634 -4.91918 0
M  V30 4816 N 478.904 1.54736 -0.299062 0
M  V30 4817 C 480.32 1.59507 0.0543849 0
M  V30 4818 C 480.52 1.31606 1.52585 0
M  V30 4819 O 479.576 1.08853 2.27832 0
M  V30 4820 C 480.889 2.98751 -0.34181 0
M  V30 4821 C 482.437 3.1165 -0.290414 0
M  V30 4822 C 482.912 4.53199 -0.661402 0
M  V30 4823 N 484.403 4.59114 -0.613863 0
M  V30 4824 C 485.138 5.66709 -0.873417 0
M  V30 4825 N 484.634 6.82349 -1.19884 0
M  V30 4826 N 486.427 5.56369 -0.800608 0
M  V30 4827 H 478.578 1.71133 -1.25806 0
M  V30 4828 H 480.841 0.799186 -0.509908 0
M  V30 4829 H 480.547 3.24085 -1.36608 0
M  V30 4830 H 480.421 3.75961 0.305508 0
M  V30 4831 H 482.808 2.86066 0.724605 0
M  V30 4832 H 482.889 2.366 -0.972327 0
M  V30 4833 H 482.533 4.79513 -1.67422 0
M  V30 4834 H 482.463 5.26583 0.0425612 0
M  V30 4835 H 484.954 3.76053 -0.3732 0
M  V30 4836 H 485.267 7.60326 -1.38291 0
M  V30 4837 H 483.612 6.83906 -1.23685 0
M  V30 4838 H 486.803 4.64904 -0.546045 0
M  V30 4839 H 486.976 6.40139 -1.00626 0
M  V30 4840 N 480.382 0.0267497 1.57577 0
M  V30 4841 C 481.629 -0.652404 1.91703 0
M  V30 4842 C 481.957 -1.72271 0.902936 0
M  V30 4843 O 481.212 -1.955 -0.0884843 0
M  V30 4844 C 481.511 -1.30914 3.3256 0
M  V30 4845 C 481.177 -0.369441 4.49384 0
M  V30 4846 C 479.839 -0.110791 4.81072 0
M  V30 4847 C 482.191 0.275971 5.20469 0
M  V30 4848 C 479.519 0.801116 5.81205 0
M  V30 4849 C 481.871 1.17592 6.21575 0
M  V30 4850 C 480.535 1.44348 6.51705 0
M  V30 4851 H 479.805 -0.238732 0.70149 0
M  V30 4852 H 482.452 0.0880091 1.91298 0
M  V30 4853 H 480.757 -2.12425 3.29216 0
M  V30 4854 H 482.454 -1.84115 3.56234 0
M  V30 4855 H 479.044 -0.581211 4.24641 0
M  V30 4856 H 483.228 0.0892 4.9622 0
M  V30 4857 H 478.484 1.01614 6.02897 0
M  V30 4858 H 482.658 1.68223 6.75777 0
M  V30 4859 H 480.285 2.15176 7.29111 0
M  V30 4860 N 481.861 -1.55662 -0.24637 0
M  V30 4861 C 482.794 -1.85332 -1.33143 0
M  V30 4862 C 483.772 -0.708464 -1.46354 0
M  V30 4863 O 484.956 -0.954274 -1.6256 0
M  V30 4864 C 482.083 -2.0385 -2.70487 0
M  V30 4865 C 481.129 -3.26488 -2.74423 0
M  V30 4866 S 481.962 -4.83124 -2.30979 0
M  V30 4867 C 483.118 -5.04647 -3.70246 0
M  V30 4868 H 483.351 -2.77077 -1.07777 0
M  V30 4869 H 480.884 -1.47776 -0.44738 0
M  V30 4870 H 482.842 -2.15202 -3.49569 0
M  V30 4871 H 481.503 -1.12947 -2.9309 0
M  V30 4872 H 480.696 -3.36413 -3.7529 0
M  V30 4873 H 480.298 -3.13864 -2.03385 0
M  V30 4874 H 482.59 -4.92023 -4.65746 0
M  V30 4875 H 483.533 -6.06625 -3.65255 0
M  V30 4876 H 483.941 -4.32491 -3.62784 0
M  V30 4877 N 483.339 0.512053 -1.4905 0
M  V30 4878 C 484.249 1.64139 -1.67617 0
M  V30 4879 C 485.265 1.64786 -0.558701 0
M  V30 4880 O 486.441 1.8341 -0.832034 0
M  V30 4881 C 483.506 3.00548 -1.72835 0
M  V30 4882 C 482.567 3.10615 -2.96339 0
M  V30 4883 C 481.8 4.40517 -3.01298 0
M  V30 4884 O 482.023 5.28671 -2.14157 0
M  V30 4885 O 480.957 4.55325 -3.93653 0
M  V30 4886 H 484.783 1.51407 -2.63267 0
M  V30 4887 H 482.368 0.687131 -1.32661 0
M  V30 4888 H 484.25 3.81641 -1.78683 0
M  V30 4889 H 482.925 3.13566 -0.803616 0
M  V30 4890 H 481.832 2.2875 -2.96014 0
M  V30 4891 H 483.165 3.0252 -3.88256 0
M  V30 4892 N 484.817 1.37938 0.762283 0
M  V30 4893 C 486.233 1.18945 1.06415 0
M  V30 4894 C 486.433 0.0321163 2.01474 0
M  V30 4895 O 485.489 -0.624844 2.44647 0
M  V30 4896 C 486.802 2.51218 1.65258 0
M  V30 4897 C 488.35 2.57824 1.7747 0
M  V30 4898 C 488.825 3.90251 2.39725 0
M  V30 4899 N 490.316 3.91744 2.47166 0
M  V30 4900 C 491.051 4.90966 2.96209 0
M  V30 4901 N 490.547 6.00585 3.45354 0
M  V30 4902 N 492.34 4.78363 2.9517 0
M  V30 4903 H 484.491 2.11994 0.131301 0
M  V30 4904 H 486.754 0.940262 0.120879 0
M  V30 4905 H 486.46 3.36317 1.02878 0
M  V30 4906 H 486.334 2.68989 2.64433 0
M  V30 4907 H 488.721 1.73126 2.3898 0
M  V30 4908 H 488.802 2.43928 0.770241 0
M  V30 4909 H 488.446 4.75368 1.78852 0
M  V30 4910 H 488.376 4.01454 3.40796 0
M  V30 4911 H 490.867 3.12563 2.12397 0
M  V30 4912 H 491.18 6.72236 3.81207 0
M  V30 4913 H 489.525 6.04217 3.43434 0
M  V30 4914 H 492.716 3.91841 2.56082 0
M  V30 4915 H 492.889 5.55843 3.33081 0
M  V30 4916 N 486.295 -0.989507 1.22664 0
M  V30 4917 C 487.525 -1.7624 1.0781 0
M  V30 4918 C 487.933 -1.85466 -0.374036 0
M  V30 4919 O 487.276 -1.32645 -1.27087 0
M  V30 4920 C 487.338 -3.21007 1.61849 0
M  V30 4921 C 487.002 -3.35316 3.10503 0
M  V30 4922 C 487.999 -3.22362 4.07896 0
M  V30 4923 C 485.684 -3.60258 3.50028 0
M  V30 4924 C 487.678 -3.34139 5.42798 0
M  V30 4925 C 485.365 -3.71676 4.85078 0
M  V30 4926 C 486.363 -3.58625 5.81272 0
M  V30 4927 O 486.051 -3.69655 7.1387 0
M  V30 4928 H 485.783 -0.560209 0.378341 0
M  V30 4929 H 488.337 -1.25252 1.62792 0
M  V30 4930 H 486.567 -3.73202 1.01279 0
M  V30 4931 H 488.256 -3.80024 1.42606 0
M  V30 4932 H 489.022 -3.03 3.78703 0
M  V30 4933 H 484.901 -3.69492 2.75675 0
M  V30 4934 H 488.445 -3.23869 6.17863 0
M  V30 4935 H 484.342 -3.90545 5.1395 0
M  V30 4936 H 485.11 -3.86507 7.21495 0
M  V30 4937 N 487.773 -1.03688 -1.18687 0
M  V30 4938 C 488.736 -0.629115 -2.20397 0
M  V30 4939 C 489.736 0.311495 -1.57754 0
M  V30 4940 O 490.926 0.0974107 -1.73927 0
M  V30 4941 C 488.058 0.0782231 -3.4081 0
M  V30 4942 H 489.251 -1.52915 -2.57987 0
M  V30 4943 H 486.804 -0.828988 -1.32505 0
M  V30 4944 H 487.539 0.992233 -3.08748 0
M  V30 4945 H 487.324 -0.597776 -3.87517 0
M  V30 4946 H 488.814 0.350156 -4.16129 0
M  V30 4947 N 489.251 1.34841 -0.815825 0
M  V30 4948 C 490.662 1.80937 -0.46029 0
M  V30 4949 C 491.013 1.67685 1.01863 0
M  V30 4950 O 490.138 1.21277 1.79223 0
M  V30 4951 C 490.733 3.28509 -0.828708 0
M  V30 4952 C 489.292 3.72712 -0.525644 0
M  V30 4953 C 488.439 2.56676 -1.04941 0
M  V30 4954 H 491.39 1.22688 -1.00664 0
M  V30 4955 H 491.411 3.80279 -0.129757 0
M  V30 4956 H 490.923 3.38122 -1.90513 0
M  V30 4957 H 489.024 3.68642 0.541666 0
M  V30 4958 H 489.137 4.67119 -1.06474 0
M  V30 4959 H 487.501 2.50302 -0.471286 0
M  V30 4960 H 488.284 2.69063 -2.13214 0
M  V30 4961 N 490.729 0.570148 1.46925 0
M  V30 4962 C 491.975 0.0510284 2.02736 0
M  V30 4963 C 492.308 -1.3006 1.44215 0
M  V30 4964 O 491.583 -1.84932 0.602521 0
M  V30 4965 C 491.866 -0.028215 3.60089 0
M  V30 4966 C 491.719 1.35142 4.29018 0
M  V30 4967 C 493.038 -0.735181 4.33916 0
M  V30 4968 H 490.157 0.0200178 0.736728 0
M  V30 4969 H 492.799 0.73493 1.75211 0
M  V30 4970 H 490.949 -0.610648 3.83671 0
M  V30 4971 H 492.621 1.97806 4.16738 0
M  V30 4972 H 490.864 1.9226 3.88868 0
M  V30 4973 H 491.535 1.24857 5.37694 0
M  V30 4974 H 494.011 -0.240519 4.15404 0
M  V30 4975 H 492.887 -0.759622 5.43618 0
M  V30 4976 H 493.148 -1.79397 4.04066 0
M  V30 4977 N 492.207 -1.54576 0.307264 0
M  V30 4978 C 493.17 -2.22423 -0.553224 0
M  V30 4979 C 494.17 -1.21231 -1.05639 0
M  V30 4980 O 495.36 -1.45923 -0.951419 0
M  V30 4981 C 492.492 -2.91552 -1.76664 0
M  V30 4982 H 493.685 -2.99874 0.0396484 0
M  V30 4983 H 491.238 -1.56192 0.0581629 0
M  V30 4984 H 491.973 -2.18196 -2.39918 0
M  V30 4985 H 491.758 -3.65738 -1.41343 0
M  V30 4986 H 493.248 -3.43292 -2.37783 0
M  V30 4987 N 493.685 -0.035106 -1.57561 0
M  V30 4988 C 494.632 0.94474 -2.10578 0
M  V30 4989 C 495.602 1.3192 -1.00927 0
M  V30 4990 O 496.787 1.41147 -1.28382 0
M  V30 4991 C 493.927 2.21982 -2.64231 0
M  V30 4992 C 493.04 1.90128 -3.87911 0
M  V30 4993 C 492.175 3.11975 -4.29936 0
M  V30 4994 C 491.214 2.75968 -5.46359 0
M  V30 4995 N 490.351 3.90459 -5.83512 0
M  V30 4996 H 495.191 0.485717 -2.94015 0
M  V30 4997 H 492.728 0.228143 -1.4532 0
M  V30 4998 H 494.686 2.96572 -2.9343 0
M  V30 4999 H 493.316 2.6549 -1.83616 0
M  V30 5000 H 492.368 1.05755 -3.65404 0
M  V30 5001 H 493.68 1.59613 -4.72573 0
M  V30 5002 H 492.834 3.9488 -4.60603 0
M  V30 5003 H 491.573 3.45657 -3.44053 0
M  V30 5004 H 490.578 1.91478 -5.1538 0
M  V30 5005 H 491.803 2.43497 -6.33945 0
M  V30 5006 H 489.749 4.23971 -5.00584 0
M  V30 5007 H 489.666 3.63588 -6.62827 0
M  V30 5008 H 490.934 4.7405 -6.18787 0
M  V30 5009 N 495.163 1.55791 0.238111 0
M  V30 5010 C 496.44 1.68798 0.98826 0
M  V30 5011 C 496.82 0.577562 2.03045 0
M  V30 5012 O 496.168 -0.41778 2.24648 0
M  V30 5013 C 496.378 3.09454 1.61367 0
M  V30 5014 C 497.726 3.68335 2.11221 0
M  V30 5015 O 498.75 3.1231 1.71292 0
M  V30 5016 O 497.609 4.6657 2.84561 0
M  V30 5017 H 494.703 0.686881 0.460568 0
M  V30 5018 H 497.249 1.68118 0.231202 0
M  V30 5019 H 496.021 3.81726 0.860295 0
M  V30 5020 H 495.644 3.14182 2.4367 0
M  V30 5021 N 496.642 -0.504142 1.49319 0
M  V30 5022 C 497.572 -1.61473 1.68667 0
M  V30 5023 C 498.553 -1.61455 0.535378 0
M  V30 5024 O 499.738 -1.78245 0.770868 0
M  V30 5025 C 496.868 -2.99971 1.75028 0
M  V30 5026 C 495.822 -3.14854 2.89916 0
M  V30 5027 C 495.148 -4.54671 2.81387 0
M  V30 5028 C 496.448 -2.95176 4.30893 0
M  V30 5029 H 498.142 -1.45535 2.61648 0
M  V30 5030 H 495.688 -0.698711 1.25913 0
M  V30 5031 H 497.641 -3.77562 1.8715 0
M  V30 5032 H 496.365 -3.1699 0.786441 0
M  V30 5033 H 495.024 -2.39687 2.77391 0
M  V30 5034 H 494.672 -4.68562 1.82917 0
M  V30 5035 H 494.372 -4.6557 3.58494 0
M  V30 5036 H 495.896 -5.34327 2.95512 0
M  V30 5037 H 497.31 -3.62538 4.44116 0
M  V30 5038 H 495.707 -3.17549 5.09198 0
M  V30 5039 H 496.777 -1.91332 4.45556 0
M  V30 5040 N 498.12 -1.38341 -0.754957 0
M  V30 5041 C 499.083 -1.35262 -1.85032 0
M  V30 5042 C 500.083 -0.253393 -1.58791 0
M  V30 5043 O 501.273 -0.510205 -1.66561 0
M  V30 5044 C 498.405 -1.10544 -3.22479 0
M  V30 5045 H 499.598 -2.32712 -1.8917 0
M  V30 5046 H 497.151 -1.23614 -0.956515 0
M  V30 5047 H 497.886 -0.136952 -3.24011 0
M  V30 5048 H 497.671 -1.90127 -3.4292 0
M  V30 5049 H 499.161 -1.11082 -4.02555 0
M  V30 5050 N 499.598 0.982988 -1.23187 0
M  V30 5051 C 500.823 1.76455 -1.08988 0
M  V30 5052 C 501.248 1.84726 0.354691 0
M  V30 5053 O 500.606 1.30699 1.25649 0
M  V30 5054 C 500.654 3.17094 -1.71708 0
M  V30 5055 O 499.758 4.00648 -0.977477 0
M  V30 5056 H 499.099 0.542988 -0.382177 0
M  V30 5057 H 501.629 1.23413 -1.63188 0
M  V30 5058 H 501.639 3.67684 -1.76841 0
M  V30 5059 H 500.314 3.10389 -2.76823 0
M  V30 5060 H 498.891 3.59161 -1.0029 0
M  V30 5061 N 501.076 1.04316 1.18135 0
M  V30 5062 C 502.492 0.762858 1.40188 0
M  V30 5063 C 502.692 -0.646547 1.90846 0
M  V30 5064 O 501.748 -1.41036 2.0944 0
M  V30 5065 C 503.061 1.81106 2.40044 0
M  V30 5066 C 504.609 1.83226 2.53766 0
M  V30 5067 C 505.084 2.87044 3.56889 0
M  V30 5068 N 506.575 2.85951 3.64398 0
M  V30 5069 C 507.31 3.62932 4.43923 0
M  V30 5070 N 506.806 4.49672 5.27036 0
M  V30 5071 N 508.599 3.51411 4.38711 0
M  V30 5072 H 500.75 1.95264 0.835805 0
M  V30 5073 H 503.013 0.845017 0.429709 0
M  V30 5074 H 502.719 2.82214 2.09876 0
M  V30 5075 H 502.593 1.64529 3.39426 0
M  V30 5076 H 504.98 0.827869 2.8325 0
M  V30 5077 H 505.061 2.03879 1.54489 0
M  V30 5078 H 504.705 3.87663 3.28145 0
M  V30 5079 H 504.635 2.63645 4.5585 0
M  V30 5080 H 507.126 2.23051 3.05052 0
M  V30 5081 H 507.439 5.05116 5.84874 0
M  V30 5082 H 505.784 4.53738 5.26447 0
M  V30 5083 H 508.975 2.83047 3.72829 0
M  V30 5084 H 509.148 4.11654 5.00445 0
M  V30 5085 N 502.554 -1.34406 0.822964 0
M  V30 5086 C 503.831 -1.92733 0.333641 0
M  V30 5087 C 504.211 -1.75107 -1.17901 0
M  V30 5088 O 503.559 -1.12983 -1.98613 0
M  V30 5089 C 503.769 -3.40557 0.763023 0
M  V30 5090 C 505.117 -4.17709 0.761879 0
M  V30 5091 O 506.141 -3.49141 0.705606 0
M  V30 5092 O 505 -5.40082 0.835109 0
M  V30 5093 H 502.094 -0.821964 0.0911249 0
M  V30 5094 H 504.64 -1.4338 0.907757 0
M  V30 5095 H 503.412 -3.47187 1.8049 0
M  V30 5096 H 503.035 -3.97259 0.164605 0
M  V30 5097 N 504.032 -0.577932 -1.46621 0
M  V30 5098 C 505.278 -0.0617793 -2.02706 0
M  V30 5099 C 505.611 1.29294 -1.44903 0
M  V30 5100 O 504.886 1.8461 -0.61232 0
M  V30 5101 C 505.169 0.00911824 -3.60099 0
M  V30 5102 C 505.022 -1.37416 -4.28295 0
M  V30 5103 C 506.341 0.712159 -4.343 0
M  V30 5104 H 503.46 -0.0239246 -0.736612 0
M  V30 5105 H 506.102 -0.744211 -1.74818 0
M  V30 5106 H 504.252 0.590292 -3.83989 0
M  V30 5107 H 505.924 -2.00013 -4.15683 0
M  V30 5108 H 504.167 -1.94319 -3.87843 0
M  V30 5109 H 504.838 -1.27707 -5.37024 0
M  V30 5110 H 507.314 0.218486 -4.15526 0
M  V30 5111 H 506.19 0.730782 -5.44014 0
M  V30 5112 H 506.451 1.77251 -4.05012 0
M  V30 5113 N 505.51 1.54411 -0.315457 0
M  V30 5114 C 506.756 2.00716 0.289972 0
M  V30 5115 C 507.089 1.2034 1.5242 0
M  V30 5116 O 506.364 0.283579 1.92422 0
M  V30 5117 C 506.647 3.54507 0.632196 0
M  V30 5118 C 506.5 4.45615 -0.61218 0
M  V30 5119 C 507.819 4.15421 1.45305 0
M  V30 5120 H 504.938 0.729637 0.10392 0
M  V30 5121 H 507.58 1.8506 -0.430427 0
M  V30 5122 H 505.73 3.67979 1.24595 0
M  V30 5123 H 507.402 4.44026 -1.25053 0
M  V30 5124 H 505.645 4.15621 -1.24264 0
M  V30 5125 H 506.316 5.51022 -0.328379 0
M  V30 5126 H 508.792 4.05474 0.934331 0
M  V30 5127 H 507.668 5.23157 1.66127 0
M  V30 5128 H 507.929 3.68223 2.44671 0
M  V30 5129 N 506.988 0.0434614 1.5754 0
M  V30 5130 C 508.213 -0.645358 1.97104 0
M  V30 5131 C 508.638 -1.64037 0.920521 0
M  V30 5132 O 507.996 -1.80922 -0.11708 0
M  V30 5133 C 508.044 -1.31547 3.35749 0
M  V30 5134 O 507.148 -2.43103 3.33129 0
M  V30 5135 H 506.489 -0.168403 0.64229 0
M  V30 5136 H 509.019 0.109573 2.04306 0
M  V30 5137 H 509.029 -1.66895 3.72304 0
M  V30 5138 H 507.704 -0.586205 4.11748 0
M  V30 5139 H 506.281 -2.0976 3.0831 0
M  V30 5140 N 508.466 -1.55915 -0.229846 0
M  V30 5141 C 509.882 -1.48721 -0.579166 0
M  V30 5142 C 510.082 -0.736976 -1.87539 0
M  V30 5143 O 509.138 -0.273258 -2.51017 0
M  V30 5144 C 510.451 -2.9323 -0.666082 0
M  V30 5145 C 511.999 -3.03701 -0.757267 0
M  V30 5146 C 512.474 -4.49552 -0.8756 0
M  V30 5147 N 513.965 -4.53561 -0.940035 0
M  V30 5148 C 514.7 -5.63683 -1.05116 0
M  V30 5149 N 514.196 -6.83576 -1.12675 0
M  V30 5150 N 515.989 -5.51516 -1.08565 0
M  V30 5151 H 508.14 -2.03123 0.620857 0
M  V30 5152 H 510.403 -0.922898 0.21671 0
M  V30 5153 H 510.109 -3.51032 0.21664 0
M  V30 5154 H 509.983 -3.44668 -1.53243 0
M  V30 5155 H 512.37 -2.45969 -1.63043 0
M  V30 5156 H 512.451 -2.55446 0.134583 0
M  V30 5157 H 512.095 -5.079 -0.00692351 0
M  V30 5158 H 512.025 -4.95506 -1.78274 0
M  V30 5159 H 514.516 -3.67215 -0.892269 0
M  V30 5160 H 514.829 -7.63251 -1.21109 0
M  V30 5161 H 513.174 -6.86303 -1.09603 0
M  V30 5162 H 516.365 -4.5678 -1.02319 0
M  V30 5163 H 516.538 -6.37372 -1.1688 0
M  V30 5164 N 509.944 0.496216 -1.49584 0
M  V30 5165 C 511.169 1.27865 -1.63295 0
M  V30 5166 C 511.594 1.85592 -0.306156 0
M  V30 5167 O 510.952 1.66092 0.726851 0
M  V30 5168 C 511 2.38128 -2.7079 0
M  V30 5169 O 510.104 3.42108 -2.30296 0
M  V30 5170 H 509.445 0.377279 -0.546403 0
M  V30 5171 H 511.975 0.593497 -1.95803 0
M  V30 5172 H 511.985 2.8382 -2.93104 0
M  V30 5173 H 510.66 1.95479 -3.67098 0
M  V30 5174 H 509.237 3.02301 -2.18331 0
M  V30 5175 N 511.423 1.38739 0.74761 0
M  V30 5176 C 512.356 1.3083 1.86972 0
M  V30 5177 C 513.334 0.184229 1.61553 0
M  V30 5178 O 514.518 0.36256 1.8498 0
M  V30 5179 C 511.645 1.02854 3.22705 0
M  V30 5180 C 510.691 2.17281 3.67003 0
M  V30 5181 S 511.524 3.79468 3.77842 0
M  V30 5182 C 512.68 3.53692 5.16385 0
M  V30 5183 H 512.913 2.258 1.93395 0
M  V30 5184 H 510.446 1.24646 0.911199 0
M  V30 5185 H 512.404 0.87397 4.01089 0
M  V30 5186 H 511.065 0.0959295 3.13953 0
M  V30 5187 H 510.258 1.93267 4.65472 0
M  V30 5188 H 509.86 2.28876 2.9579 0
M  V30 5189 H 512.152 3.10176 6.02327 0
M  V30 5190 H 513.095 4.51576 5.45422 0
M  V30 5191 H 513.503 2.8807 4.85464 0
M  V30 5192 N 512.901 -0.976442 1.23707 0
M  V30 5193 C 514.129 -1.75341 1.09833 0
M  V30 5194 C 514.544 -1.8553 -0.349885 0
M  V30 5195 O 513.901 -1.33732 -1.24185 0
M  V30 5196 C 513.952 -3.17833 1.72233 0
M  V30 5197 O 513.673 -3.08167 3.11391 0
M  V30 5198 C 515.174 -4.11906 1.63853 0
M  V30 5199 H 512.394 -0.550137 0.384175 0
M  V30 5200 H 514.938 -1.2265 1.63638 0
M  V30 5201 H 513.093 -3.67538 1.22452 0
M  V30 5202 H 513.507 -3.97897 3.41729 0
M  V30 5203 H 514.981 -5.09579 2.12211 0
M  V30 5204 H 515.458 -4.35109 0.598092 0
M  V30 5205 H 516.064 -3.68107 2.13019 0
M  V30 5206 N 514.379 -1.04941 -1.1758 0
M  V30 5207 C 515.309 -0.669172 -2.23706 0
M  V30 5208 C 516.29 0.331835 -1.66832 0
M  V30 5209 O 517.475 0.209988 -1.93061 0
M  V30 5210 C 514.605 -0.0404889 -3.47276 0
M  V30 5211 C 513.559 -0.965983 -4.16957 0
M  V30 5212 C 512.885 -0.201312 -5.34321 0
M  V30 5213 C 514.185 -2.28902 -4.69469 0
M  V30 5214 H 515.879 -1.55639 -2.55767 0
M  V30 5215 H 513.425 -0.749793 -1.22939 0
M  V30 5216 H 515.378 0.237298 -4.20731 0
M  V30 5217 H 514.102 0.881658 -3.14475 0
M  V30 5218 H 512.761 -1.22829 -3.45411 0
M  V30 5219 H 512.409 0.723519 -4.97769 0
M  V30 5220 H 512.109 -0.817968 -5.81879 0
M  V30 5221 H 513.633 0.0692499 -6.10561 0
M  V30 5222 H 515.047 -2.07132 -5.34574 0
M  V30 5223 H 513.444 -2.85942 -5.27596 0
M  V30 5224 H 514.514 -2.92937 -3.86414 0
M  V30 5225 N 515.857 1.33968 -0.830081 0
M  V30 5226 C 516.767 2.33164 -0.259207 0
M  V30 5227 C 517.783 1.62951 0.610164 0
M  V30 5228 O 518.959 1.94668 0.516369 0
M  V30 5229 C 516.024 3.42088 0.563598 0
M  V30 5230 C 515.085 4.28037 -0.329014 0
M  V30 5231 C 514.318 5.3176 0.454616 0
M  V30 5232 O 514.541 5.44876 1.6872 0
M  V30 5233 O 513.475 6.01669 -0.166794 0
M  V30 5234 H 517.301 2.83832 -1.08041 0
M  V30 5235 H 514.886 1.37154 -0.59239 0
M  V30 5236 H 516.768 4.08581 1.03147 0
M  V30 5237 H 515.443 2.93651 1.36201 0
M  V30 5238 H 514.35 3.64443 -0.844538 0
M  V30 5239 H 515.683 4.79934 -1.09196 0
M  V30 5240 N 517.335 0.585699 1.46312 0
M  V30 5241 C 518.584 0.0701192 2.01578 0
M  V30 5242 C 518.897 -1.29889 1.46247 0
M  V30 5243 O 520.103 -1.90598 1.93351 0
M  V30 5244 C 518.559 0.0747499 3.59822 0
M  V30 5245 C 518.167 1.44226 4.24149 0
M  V30 5246 C 519.911 -0.38673 4.22735 0
M  V30 5247 C 517.818 1.40446 5.74481 0
M  V30 5248 H 516.748 0.0224441 0.753666 0
M  V30 5249 H 519.399 0.737789 1.68015 0
M  V30 5250 H 517.781 -0.659144 3.90476 0
M  V30 5251 H 518.955 2.19612 4.05101 0
M  V30 5252 H 517.27 1.84401 3.73343 0
M  V30 5253 H 519.867 -0.433853 5.32937 0
M  V30 5254 H 520.21 -1.40489 3.91878 0
M  V30 5255 H 520.743 0.293195 3.96718 0
M  V30 5256 H 517.482 2.39952 6.10003 0
M  V30 5257 H 517.002 0.692845 5.95785 0
M  V30 5258 H 518.681 1.11865 6.37256 0
M  V30 5259 N 518.813 -1.54241 0.323641 0
M  V30 5260 C 520.229 -1.59574 -0.0290018 0
M  V30 5261 C 520.429 -1.34017 -1.50472 0
M  V30 5262 O 519.485 -1.12464 -2.26071 0
M  V30 5263 C 520.798 -2.98169 0.389295 0
M  V30 5264 C 522.346 -3.11148 0.339958 0
M  V30 5265 C 522.821 -4.5209 0.733418 0
M  V30 5266 N 524.312 -4.5808 0.686827 0
M  V30 5267 C 525.047 -5.65248 0.963464 0
M  V30 5268 N 524.543 -6.80355 1.30724 0
M  V30 5269 N 526.336 -5.55025 0.88902 0
M  V30 5270 H 518.487 -1.6911 1.28512 0
M  V30 5271 H 520.75 -0.790972 0.522558 0
M  V30 5272 H 520.456 -3.21871 1.41746 0
M  V30 5273 H 520.33 -3.76399 -0.245657 0
M  V30 5274 H 522.717 -2.87182 -0.679002 0
M  V30 5275 H 522.798 -2.35023 1.00985 0
M  V30 5276 H 522.442 -4.76788 1.75029 0
M  V30 5277 H 522.372 -5.26584 0.0412189 0
M  V30 5278 H 524.863 -3.75411 0.43298 0
M  V30 5279 H 525.176 -7.58029 1.5037 0
M  V30 5280 H 523.521 -6.81851 1.3455 0
M  V30 5281 H 526.712 -4.63977 0.619939 0
M  V30 5282 H 526.885 -6.38458 1.10797 0
M  V30 5283 N 520.291 -0.0518155 -1.57515 0
M  V30 5284 C 521.201 0.937539 -2.15052 0
M  V30 5285 C 522.217 1.34121 -1.10849 0
M  V30 5286 O 523.393 1.418 -1.4302 0
M  V30 5287 C 520.458 2.19379 -2.68466 0
M  V30 5288 C 519.519 1.84841 -3.87469 0
M  V30 5289 C 518.752 3.04477 -4.38326 0
M  V30 5290 O 518.975 4.17868 -3.88256 0
M  V30 5291 O 517.909 2.85453 -5.29906 0
M  V30 5292 H 521.735 0.478201 -2.99912 0
M  V30 5293 H 519.32 0.17012 -1.48428 0
M  V30 5294 H 521.202 2.93084 -3.02787 0
M  V30 5295 H 519.877 2.64449 -1.86677 0
M  V30 5296 H 518.784 1.08449 -3.58036 0
M  V30 5297 H 520.117 1.44569 -4.7049 0
M  V30 5298 N 521.769 1.56035 0.221574 0
M  V30 5299 C 523.017 1.78693 0.944102 0
M  V30 5300 C 523.338 0.620317 1.8487 0
M  V30 5301 O 522.608 -0.362784 1.92512 0
M  V30 5302 H 521.188 0.659082 0.351597 0
M  V30 5303 H 523.85 1.93497 0.233435 0
M  V30 5304 H 522.946 2.70837 1.55093 0
M  V30 5305 N 523.247 -0.488276 1.49845 0
M  V30 5306 C 524.663 -0.820566 1.3689 0
M  V30 5307 C 524.863 -1.97248 0.411752 0
M  V30 5308 O 523.919 -2.52042 -0.151931 0
M  V30 5309 C 525.232 -1.1488 2.77891 0
M  V30 5310 C 526.78 -1.25626 2.86683 0
M  V30 5311 C 527.255 -1.61772 4.28479 0
M  V30 5312 N 528.746 -1.68797 4.31349 0
M  V30 5313 C 529.481 -1.98235 5.38043 0
M  V30 5314 N 528.977 -2.2581 6.54967 0
M  V30 5315 N 530.77 -1.99593 5.2547 0
M  V30 5316 H 522.921 0.271123 2.10662 0
M  V30 5317 H 525.184 0.058735 0.946179 0
M  V30 5318 H 524.89 -0.375614 3.49688 0
M  V30 5319 H 524.764 -2.08919 3.14058 0
M  V30 5320 H 527.151 -2.02014 2.15114 0
M  V30 5321 H 527.232 -0.296072 2.54081 0
M  V30 5322 H 526.876 -0.859295 5.00578 0
M  V30 5323 H 526.806 -2.58912 4.58554 0
M  V30 5324 H 529.297 -1.49595 3.4703 0
M  V30 5325 H 529.61 -2.47497 7.32096 0
M  V30 5326 H 527.955 -2.23239 6.58171 0
M  V30 5327 H 531.146 -1.77535 4.33127 0
M  V30 5328 H 531.319 -2.222 6.08713 0
M  V30 5329 N 524.725 -1.39134 -0.740242 0
M  V30 5330 C 525.973 -1.35803 -1.49673 0
M  V30 5331 C 526.294 0.0470897 -1.94943 0
M  V30 5332 O 525.564 0.997347 -1.68611 0
M  V30 5333 H 524.144 -0.499736 -0.555224 0
M  V30 5334 H 526.806 -1.73947 -0.879107 0
M  V30 5335 H 525.902 -2.0174 -2.38133 0
M  V30 5336 N 526.204 0.969867 -1.24223 0
M  V30 5337 C 527.444 1.72754 -1.0925 0
M  V30 5338 C 527.808 1.88541 0.362787 0
M  V30 5339 O 529.009 2.61217 0.633969 0
M  V30 5340 C 527.28 3.08204 -1.80957 0
M  V30 5341 S 528.839 3.99418 -1.81688 0
M  V30 5342 H 525.657 0.593981 -0.390778 0
M  V30 5343 H 528.259 1.15792 -1.5752 0
M  V30 5344 H 526.963 2.94372 -2.85961 0
M  V30 5345 H 526.494 3.70232 -1.33012 0
M  V30 5346 H 528.509 4.8828 -0.883001 0
M  V30 5347 N 527.682 1.05563 1.17022 0
M  V30 5348 C 528.93 0.76642 1.87004 0
M  V30 5349 C 529.251 -0.708854 1.8166 0
M  V30 5350 O 528.521 -1.51242 1.2451 0
M  V30 5351 H 527.101 0.280516 0.692329 0
M  V30 5352 H 529.763 1.33557 1.41945 0
M  V30 5353 H 528.859 1.08472 2.92644 0
M  V30 5354 N 529.16 -1.33526 0.837174 0
M  V30 5355 C 530.571 -1.80182 0.489017 0
M  V30 5356 C 530.922 -1.69285 -0.991826 0
M  V30 5357 O 530.047 -1.24113 -1.77271 0
M  V30 5358 C 530.642 -3.27149 0.880866 0
M  V30 5359 C 529.201 -3.71828 0.584872 0
M  V30 5360 C 528.348 -2.54974 1.09011 0
M  V30 5361 H 531.299 -1.21071 1.02603 0
M  V30 5362 H 531.32 -3.80024 0.190239 0
M  V30 5363 H 530.832 -3.35048 1.95869 0
M  V30 5364 H 528.933 -3.69457 -0.48295 0
M  V30 5365 H 529.046 -4.65366 1.13892 0
M  V30 5366 H 527.41 -2.4952 0.511047 0
M  V30 5367 H 528.193 -2.65637 2.17467 0
M  V30 5368 N 530.638 -0.59345 -1.46 0
M  V30 5369 C 531.548 0.135817 -2.34207 0
M  V30 5370 C 532.564 0.875008 -1.50398 0
M  V30 5371 O 533.74 0.835778 -1.83239 0
M  V30 5372 C 530.805 1.12977 -3.27776 0
M  V30 5373 C 529.866 0.394081 -4.27487 0
M  V30 5374 C 529.099 1.34068 -5.16586 0
M  V30 5375 O 529.322 2.5778 -5.08828 0
M  V30 5376 O 528.256 0.845426 -5.95933 0
M  V30 5377 H 532.082 -0.588691 -2.9794 0
M  V30 5378 H 529.667 -0.353784 -1.45151 0
M  V30 5379 H 531.549 1.70261 -3.85473 0
M  V30 5380 H 530.224 1.83556 -2.66625 0
M  V30 5381 H 529.131 -0.220869 -3.73447 0
M  V30 5382 H 530.464 -0.270939 -4.91454 0
M  V30 5383 N 532.116 1.54067 -0.331816 0
M  V30 5384 C 533.063 2.24623 0.530372 0
M  V30 5385 C 534.033 1.24009 1.10503 0
M  V30 5386 O 535.218 1.52712 1.14384 0
M  V30 5387 C 532.358 3.01374 1.68129 0
M  V30 5388 C 531.471 4.16821 1.13507 0
M  V30 5389 C 530.606 4.81085 2.25234 0
M  V30 5390 C 529.645 5.88621 1.67903 0
M  V30 5391 N 528.782 6.46713 2.73326 0
M  V30 5392 H 533.622 2.97898 -0.0778607 0
M  V30 5393 H 531.159 1.47014 -0.0501965 0
M  V30 5394 H 533.117 3.44125 2.35868 0
M  V30 5395 H 531.747 2.30419 2.26069 0
M  V30 5396 H 530.799 3.78796 0.348979 0
M  V30 5397 H 532.111 4.94203 0.675633 0
M  V30 5398 H 531.265 5.26846 3.00862 0
M  V30 5399 H 530.004 4.03102 2.74518 0
M  V30 5400 H 529.009 5.42254 0.907773 0
M  V30 5401 H 530.234 6.68506 1.19487 0
M  V30 5402 H 528.18 5.71599 3.21886 0
M  V30 5403 H 528.097 7.19532 2.3197 0
M  V30 5404 H 529.365 6.97129 3.48758 0
M  V30 5405 N 533.594 0.0601682 1.57485 0
M  V30 5406 C 534.871 -0.651956 1.84415 0
M  V30 5407 C 535.251 -1.88498 0.950361 0
M  V30 5408 O 534.599 -2.28496 0.0136719 0
M  V30 5409 C 534.809 -1.00069 3.34346 0
M  V30 5410 C 536.157 -1.37915 4.01578 0
M  V30 5411 O 537.181 -1.09277 3.39024 0
M  V30 5412 O 536.04 -1.91399 5.11887 0
M  V30 5413 H 533.134 -0.322668 0.761455 0
M  V30 5414 H 535.68 0.0902159 1.6946 0
M  V30 5415 H 534.452 -0.124463 3.91102 0
M  V30 5416 H 534.075 -1.80001 3.54521 0
M  V30 5417 N 535.072 -1.5615 -0.213296 0
M  V30 5418 C 536.022 -1.89485 -1.26804 0
M  V30 5419 C 537.006 -0.758713 -1.41889 0
M  V30 5420 O 538.198 -1.02127 -1.44565 0
M  V30 5421 C 535.327 -2.22219 -2.61675 0
M  V30 5422 C 534.413 -3.42245 -2.50458 0
M  V30 5423 N 534.804 -4.60645 -2.089 0
M  V30 5424 C 533.102 -3.46023 -2.81397 0
M  V30 5425 C 533.803 -5.42805 -2.09135 0
M  V30 5426 N 532.779 -4.82732 -2.49941 0
M  V30 5427 H 536.581 -2.78537 -0.937771 0
M  V30 5428 H 534.095 -1.56826 -0.421824 0
M  V30 5429 H 536.092 -2.44278 -3.37837 0
M  V30 5430 H 534.752 -1.34484 -2.95541 0
M  V30 5431 H 535.763 -4.85651 -1.79899 0
M  V30 5432 H 532.44 -2.68654 -3.1958 0
M  V30 5433 H 533.83 -6.47601 -1.79059 0
M  V30 5434 N 536.55 0.480323 -1.50102 0
M  V30 5435 C 537.796 1.23489 -1.60867 0
M  V30 5436 C 538.129 1.91809 -0.303827 0
M  V30 5437 O 537.404 1.81694 0.694092 0
M  V30 5438 C 537.687 2.28578 -2.78252 0
M  V30 5439 C 537.54 1.64624 -4.18592 0
M  V30 5440 C 538.859 3.2997 -2.91218 0
M  V30 5441 H 535.978 0.447605 -0.585507 0
M  V30 5442 H 538.62 0.530005 -1.82458 0
M  V30 5443 H 536.77 2.88697 -2.59974 0
M  V30 5444 H 538.442 1.08173 -4.48438 0
M  V30 5445 H 536.685 0.949645 -4.23278 0
M  V30 5446 H 537.356 2.40946 -4.96638 0
M  V30 5447 H 539.832 2.79864 -3.07921 0
M  V30 5448 H 538.708 4.00839 -3.74993 0
M  V30 5449 H 538.969 3.93541 -2.0144 0
M  V30 5450 N 538.028 1.39524 0.732853 0
M  V30 5451 C 539.258 1.3994 1.51988 0
M  V30 5452 C 539.666 -0.00727973 1.89199 0
M  V30 5453 O 539.009 -0.989521 1.54771 0
M  V30 5454 C 539.071 2.21026 2.83527 0
M  V30 5455 C 538.735 3.69633 2.68738 0
M  V30 5456 C 539.732 4.62665 2.37143 0
M  V30 5457 C 537.417 4.13244 2.85542 0
M  V30 5458 C 539.411 5.97291 2.22536 0
M  V30 5459 C 537.098 5.47945 2.70554 0
M  V30 5460 C 538.096 6.39783 2.39097 0
M  V30 5461 O 537.784 7.72002 2.24204 0
M  V30 5462 H 537.516 0.479795 0.476206 0
M  V30 5463 H 540.07 1.8399 0.913054 0
M  V30 5464 H 538.3 1.71728 3.46477 0
M  V30 5465 H 539.989 2.13594 3.45156 0
M  V30 5466 H 540.755 4.30272 2.2381 0
M  V30 5467 H 536.634 3.42094 3.09019 0
M  V30 5468 H 540.178 6.68939 1.97905 0
M  V30 5469 H 536.075 5.79928 2.83466 0
M  V30 5470 H 536.843 7.8275 2.39258 0
M  V30 5471 N 539.506 -0.963266 1.24736 0
M  V30 5472 C 540.436 -2.07628 1.06832 0
M  V30 5473 C 541.417 -1.70088 -0.0200566 0
M  V30 5474 O 542.602 -1.93636 0.147854 0
M  V30 5475 C 539.732 -3.40636 0.677069 0
M  V30 5476 C 538.686 -3.9215 1.71471 0
M  V30 5477 C 538.012 -5.21553 1.1784 0
M  V30 5478 C 539.312 -4.19493 3.11164 0
M  V30 5479 H 541.006 -2.22864 1.9993 0
M  V30 5480 H 538.552 -1.07093 0.96266 0
M  V30 5481 H 540.505 -4.17941 0.538792 0
M  V30 5482 H 539.229 -3.25313 -0.289612 0
M  V30 5483 H 537.888 -3.17005 1.84128 0
M  V30 5484 H 537.536 -5.02593 0.202195 0
M  V30 5485 H 537.236 -5.56988 1.87185 0
M  V30 5486 H 538.76 -6.01463 1.05233 0
M  V30 5487 H 540.174 -4.87487 3.01711 0
M  V30 5488 H 538.571 -4.66165 3.77902 0
M  V30 5489 H 539.641 -3.26097 3.58871 0
M  V30 5490 N 540.985 -1.06182 -1.16461 0
M  V30 5491 C 541.917 -0.629584 -2.20383 0
M  V30 5492 C 542.93 0.311834 -1.59786 0
M  V30 5493 O 544.119 0.103 -1.78203 0
M  V30 5494 C 541.219 0.0973695 -3.3876 0
M  V30 5495 C 540.392 -0.857252 -4.28917 0
M  V30 5496 C 539.451 -0.169749 -5.25926 0
M  V30 5497 O 538.477 -0.807044 -5.6345 0
M  V30 5498 N 539.679 1.08911 -5.70192 0
M  V30 5499 H 542.444 -1.52352 -2.58087 0
M  V30 5500 H 540.005 -0.944993 -1.31459 0
M  V30 5501 H 541.997 0.567676 -4.00699 0
M  V30 5502 H 540.567 0.893093 -2.99571 0
M  V30 5503 H 539.787 -1.50696 -3.64259 0
M  V30 5504 H 541.075 -1.50489 -4.86035 0
M  V30 5505 H 540.473 1.62703 -5.41797 0
M  V30 5506 H 539.03 1.50331 -6.34227 0
M  V30 5507 N 542.463 1.3308 -0.844243 0
M  V30 5508 C 543.393 2.3161 -0.296493 0
M  V30 5509 C 544.374 1.59215 0.598707 0
M  V30 5510 O 545.559 1.87077 0.521134 0
M  V30 5511 C 542.689 3.43313 0.524762 0
M  V30 5512 C 541.643 4.27115 -0.275106 0
M  V30 5513 C 540.969 5.30483 0.670236 0
M  V30 5514 C 542.269 5.00443 -1.49514 0
M  V30 5515 H 543.963 2.77672 -1.11976 0
M  V30 5516 H 541.509 1.33496 -0.539899 0
M  V30 5517 H 543.462 4.11273 0.918298 0
M  V30 5518 H 542.186 2.95952 1.3813 0
M  V30 5519 H 540.845 3.60787 -0.650267 0
M  V30 5520 H 540.493 4.79379 1.52332 0
M  V30 5521 H 540.193 5.87435 0.139123 0
M  V30 5522 H 541.717 6.01308 1.06117 0
M  V30 5523 H 543.131 5.61141 -1.17447 0
M  V30 5524 H 541.528 5.67071 -1.96343 0
M  V30 5525 H 542.598 4.28906 -2.26202 0
M  V30 5526 N 543.941 0.601185 1.45683 0
M  V30 5527 C 544.891 -0.142686 2.27553 0
M  V30 5528 C 545.875 -0.844598 1.3695 0
M  V30 5529 O 547.067 -0.735644 1.60988 0
M  V30 5530 C 544.196 -1.14364 3.23691 0
M  V30 5531 C 543.282 -0.442894 4.21781 0
M  V30 5532 N 543.673 0.51189 5.03203 0
M  V30 5533 C 541.971 -0.691277 4.4061 0
M  V30 5534 C 542.672 0.92318 5.74328 0
M  V30 5535 N 541.648 0.268308 5.42937 0
M  V30 5536 H 545.45 0.590736 2.87902 0
M  V30 5537 H 542.964 0.424365 1.56757 0
M  V30 5538 H 544.961 -1.6909 3.8107 0
M  V30 5539 H 543.621 -1.87768 2.64902 0
M  V30 5540 H 544.632 0.888329 5.10225 0
M  V30 5541 H 541.309 -1.41049 3.92952 0
M  V30 5542 H 542.699 1.71029 6.49768 0
M  V30 5543 N 545.419 -1.53889 0.339982 0
M  V30 5544 C 546.369 -2.2165 -0.534354 0
M  V30 5545 C 547.353 -1.20266 -1.06887 0
M  V30 5546 O 548.545 -1.45827 -1.00316 0
M  V30 5547 C 545.674 -2.99014 -1.68659 0
M  V30 5548 C 544.76 -4.07751 -1.16618 0
M  V30 5549 N 545.151 -5.04469 -0.366717 0
M  V30 5550 C 543.449 -4.21998 -1.4434 0
M  V30 5551 C 544.15 -5.81638 -0.0847275 0
M  V30 5552 N 543.126 -5.39388 -0.675391 0
M  V30 5553 H 546.928 -2.93781 0.0835562 0
M  V30 5554 H 544.442 -1.61736 0.146665 0
M  V30 5555 H 546.439 -3.46056 -2.32489 0
M  V30 5556 H 545.099 -2.28408 -2.30781 0
M  V30 5557 H 546.11 -5.17899 -0.00811038 0
M  V30 5558 H 542.787 -3.62612 -2.06928 0
M  V30 5559 H 544.177 -6.69563 0.559943 0
M  V30 5560 N 546.897 -0.0685191 -1.57451 0
M  V30 5561 C 547.827 0.89747 -2.15564 0
M  V30 5562 C 548.808 1.31266 -1.08181 0
M  V30 5563 O 549.993 1.38429 -1.36202 0
M  V30 5564 C 547.123 2.16623 -2.71463 0
M  V30 5565 C 546.077 1.89054 -3.83982 0
M  V30 5566 C 545.403 3.22532 -4.26471 0
M  V30 5567 C 546.703 1.1984 -5.08366 0
M  V30 5568 H 548.397 0.413373 -2.96533 0
M  V30 5569 H 545.943 0.197391 -1.42641 0
M  V30 5570 H 547.896 2.84614 -3.10761 0
M  V30 5571 H 546.62 2.67269 -1.8771 0
M  V30 5572 H 545.279 1.23469 -3.45183 0
M  V30 5573 H 544.927 3.71013 -3.39644 0
M  V30 5574 H 544.627 3.04879 -5.02317 0
M  V30 5575 H 546.151 3.91727 -4.68383 0
M  V30 5576 H 547.565 1.77896 -5.45001 0
M  V30 5577 H 545.962 1.12456 -5.89469 0
M  V30 5578 H 547.032 0.176996 -4.84577 0
M  V30 5579 N 548.375 1.56261 0.205012 0
M  V30 5580 C 549.786 1.70056 0.770574 0
M  V30 5581 C 550.137 0.673398 1.84282 0
M  V30 5582 O 549.262 -0.172196 2.15714 0
M  V30 5583 C 549.857 3.08316 1.40451 0
M  V30 5584 C 548.416 3.2391 1.91727 0
M  V30 5585 C 547.563 2.66001 0.783516 0
M  V30 5586 H 550.514 1.58688 -0.019911 0
M  V30 5587 H 550.535 3.05094 2.27371 0
M  V30 5588 H 550.047 3.83053 0.623882 0
M  V30 5589 H 548.148 2.54072 2.7254 0
M  V30 5590 H 548.261 4.3131 2.08588 0
M  V30 5591 H 546.625 2.24915 1.19521 0
M  V30 5592 H 547.408 3.43297 0.0152883 0
M  V30 5593 N 549.853 -0.472356 1.50355 0
M  V30 5594 C 551.264 -1.05326 1.54154 0
M  V30 5595 C 551.615 -1.93155 0.344303 0
M  V30 5596 O 550.74 -2.09479 -0.542928 0
M  V30 5597 C 551.335 -1.91691 2.79356 0
M  V30 5598 C 549.894 -2.44892 2.8584 0
M  V30 5599 C 549.041 -1.23205 2.48426 0
M  V30 5600 H 551.992 -0.255027 1.56637 0
M  V30 5601 H 552.013 -2.76742 2.6114 0
M  V30 5602 H 551.525 -1.27741 3.66475 0
M  V30 5603 H 549.626 -3.12399 2.0307 0
M  V30 5604 H 549.739 -2.80086 3.88701 0
M  V30 5605 H 548.103 -1.56643 2.00836 0
M  V30 5606 H 548.886 -0.609194 3.37852 0
M  V30 5607 N 551.331 -1.39911 -0.725443 0
M  V30 5608 C 552.241 -1.41688 -1.8698 0
M  V30 5609 C 553.257 -0.310579 -1.71206 0
M  V30 5610 O 554.433 -0.55359 -1.93642 0
M  V30 5611 C 551.498 -1.26811 -3.22676 0
M  V30 5612 C 550.559 -2.47497 -3.50776 0
M  V30 5613 C 549.792 -2.3332 -4.79997 0
M  V30 5614 O 550.015 -1.34175 -5.54394 0
M  V30 5615 O 548.949 -3.22498 -5.08211 0
M  V30 5616 H 552.775 -2.38171 -1.88436 0
M  V30 5617 H 550.36 -1.21128 -0.874548 0
M  V30 5618 H 552.242 -1.20684 -4.03749 0
M  V30 5619 H 550.917 -0.334289 -3.21969 0
M  V30 5620 H 549.824 -2.59201 -2.69751 0
M  V30 5621 H 551.157 -3.39606 -3.5627 0
M  V30 5622 N 552.809 0.956637 -1.25245 0
M  V30 5623 C 553.741 2.05628 -1.01242 0
M  V30 5624 C 554.754 1.62785 0.0219579 0
M  V30 5625 O 555.943 1.77184 -0.216365 0
M  V30 5626 C 553.043 3.35069 -0.508161 0
M  V30 5627 C 552.216 4.06761 -1.60823 0
M  V30 5628 C 551.275 5.14473 -1.1047 0
M  V30 5629 O 550.301 5.40033 -1.79868 0
M  V30 5630 N 551.503 5.80474 0.0550773 0
M  V30 5631 H 554.268 2.2679 -1.95925 0
M  V30 5632 H 551.829 1.12505 -1.16423 0
M  V30 5633 H 553.821 4.044 -0.155819 0
M  V30 5634 H 552.391 3.10694 0.344683 0
M  V30 5635 H 551.611 3.31555 -2.13224 0
M  V30 5636 H 552.899 4.51418 -2.34733 0
M  V30 5637 H 552.297 5.62125 0.635004 0
M  V30 5638 H 550.854 6.50868 0.348469 0
M  V30 5639 N 554.287 1.06798 1.15896 0
M  V30 5640 C 555.217 0.704677 2.22613 0
M  V30 5641 C 556.198 -0.305252 1.67339 0
M  V30 5642 O 557.383 -0.179247 1.93371 0
M  V30 5643 C 554.513 0.0957325 3.47168 0
M  V30 5644 C 553.467 1.0322 4.15367 0
M  V30 5645 C 552.793 0.286293 5.33933 0
M  V30 5646 C 554.093 2.36341 4.65768 0
M  V30 5647 H 555.787 1.59688 2.53259 0
M  V30 5648 H 553.333 0.769257 1.21731 0
M  V30 5649 H 555.286 -0.170333 4.21056 0
M  V30 5650 H 554.01 -0.831516 3.15838 0
M  V30 5651 H 552.669 1.28309 3.43413 0
M  V30 5652 H 552.317 -0.644237 4.98857 0
M  V30 5653 H 552.017 0.910436 5.80504 0
M  V30 5654 H 553.541 0.0278938 6.10594 0
M  V30 5655 H 554.955 2.1561 5.31211 0
M  V30 5656 H 553.352 2.94299 5.2298 0
M  V30 5657 H 554.422 2.99047 3.81705 0
M  V30 5658 N 555.766 -1.3263 0.851289 0
M  V30 5659 C 556.729 -2.27247 0.298541 0
M  V30 5660 C 557.729 -1.51467 -0.539847 0
M  V30 5661 O 558.919 -1.7061 -0.351843 0
M  V30 5662 C 556.051 -3.35964 -0.578004 0
M  V30 5663 H 557.244 -2.7765 1.13359 0
M  V30 5664 H 554.797 -1.43245 0.625354 0
M  V30 5665 H 555.532 -2.90823 -1.435 0
M  V30 5666 H 555.317 -3.92094 0.0220539 0
M  V30 5667 H 556.807 -4.06472 -0.957626 0
M  V30 5668 N 557.244 -0.608902 -1.45362 0
M  V30 5669 C 558.472 -0.111013 -2.06602 0
M  V30 5670 C 558.887 1.20516 -1.45332 0
M  V30 5671 O 558.244 1.73437 -0.567978 0
M  V30 5672 C 558.295 0.033688 -3.61484 0
M  V30 5673 O 558.016 -1.23041 -4.20467 0
M  V30 5674 C 559.517 0.562882 -4.39712 0
M  V30 5675 H 556.737 -0.0694453 -0.667397 0
M  V30 5676 H 559.281 -0.837008 -1.86586 0
M  V30 5677 H 557.436 0.710016 -3.80838 0
M  V30 5678 H 557.85 -1.06094 -5.13658 0
M  V30 5679 H 559.324 0.613213 -5.48583 0
M  V30 5680 H 559.801 1.58543 -4.09586 0
M  V30 5681 H 560.407 -0.0794454 -4.25226 0
M  V30 5682 N 558.722 1.53707 -0.348139 0
M  V30 5683 C 560.138 1.596 0.00361134 0
M  V30 5684 C 560.338 1.36394 1.4832 0
M  V30 5685 O 559.394 1.16046 2.24253 0
M  V30 5686 C 560.707 2.97512 -0.436682 0
M  V30 5687 C 562.255 3.10568 -0.389416 0
M  V30 5688 C 562.73 4.50866 -0.805249 0
M  V30 5689 N 564.221 4.56929 -0.759616 0
M  V30 5690 C 564.956 5.63643 -1.05327 0
M  V30 5691 N 564.452 6.78189 -1.41531 0
M  V30 5692 N 566.245 5.5354 -0.977207 0
M  V30 5693 H 558.396 1.67044 -1.31187 0
M  V30 5694 H 560.659 0.782559 -0.535075 0
M  V30 5695 H 560.365 3.19575 -1.46849 0
M  V30 5696 H 560.239 3.76742 0.185744 0
M  V30 5697 H 562.626 2.88226 0.633228 0
M  V30 5698 H 562.707 2.33387 -1.04711 0
M  V30 5699 H 562.351 4.73943 -1.82593 0
M  V30 5700 H 562.281 5.26452 -0.124989 0
M  V30 5701 H 564.772 3.74675 -0.49265 0
M  V30 5702 H 565.085 7.55541 -1.62411 0
M  V30 5703 H 563.43 6.79624 -1.45381 0
M  V30 5704 H 566.621 4.62932 -0.693675 0
M  V30 5705 H 566.794 6.36614 -1.2094 0
M  V30 5706 N 560.2 0.0768682 1.57412 0
M  V30 5707 C 561.13 -0.886026 2.16037 0
M  V30 5708 C 562.111 -1.30691 1.08876 0
M  V30 5709 O 563.296 -1.37705 1.36934 0
M  V30 5710 C 560.426 -2.1518 2.72608 0
M  V30 5711 C 559.38 -1.87015 3.8498 0
M  V30 5712 C 558.706 -3.20266 4.28175 0
M  V30 5713 C 560.006 -1.17143 5.08994 0
M  V30 5714 H 561.7 -0.397642 2.96748 0
M  V30 5715 H 559.246 -0.189823 1.42743 0
M  V30 5716 H 561.199 -2.82962 3.12266 0
M  V30 5717 H 559.923 -2.66269 1.89125 0
M  V30 5718 H 558.582 -1.21636 3.45833 0
M  V30 5719 H 558.23 -3.69207 3.41607 0
M  V30 5720 H 557.93 -3.0221 5.03927 0
M  V30 5721 H 559.454 -3.89237 4.70454 0
M  V30 5722 H 560.868 -1.75003 5.45937 0
M  V30 5723 H 559.265 -1.09328 5.90057 0
M  V30 5724 H 560.335 -0.151295 4.84664 0
M  V30 5725 N 561.678 -1.56367 -0.196722 0
M  V30 5726 C 563.089 -1.70462 -0.761545 0
M  V30 5727 C 563.44 -0.683161 -1.83922 0
M  V30 5728 O 562.565 0.160753 -2.15802 0
M  V30 5729 C 563.16 -3.09057 -1.38814 0
M  V30 5730 C 561.719 -3.24922 -1.90007 0
M  V30 5731 C 560.866 -2.66412 -0.769399 0
M  V30 5732 H 563.817 -1.58675 0.0283263 0
M  V30 5733 H 563.838 -3.06296 -2.2575 0
M  V30 5734 H 563.35 -3.83378 -0.603559 0
M  V30 5735 H 561.451 -2.55514 -2.71189 0
M  V30 5736 H 561.564 -4.3241 -2.06297 0
M  V30 5737 H 559.928 -2.25546 -1.18326 0
M  V30 5738 H 560.711 -3.433 0.00291773 0
M  V30 5739 N 563.156 0.464375 -1.50603 0
M  V30 5740 C 564.404 1.21356 -1.61608 0
M  V30 5741 C 564.725 1.92329 -0.321643 0
M  V30 5742 O 563.995 1.84403 0.661232 0
M  V30 5743 H 562.575 0.45094 -0.595535 0
M  V30 5744 H 565.237 0.535046 -1.87412 0
M  V30 5745 H 564.333 1.95783 -2.43054 0
M  V30 5746 N 564.634 1.40294 0.718013 0
M  V30 5747 C 565.883 1.37746 1.4734 0
M  V30 5748 C 566.196 -0.0180754 1.95592 0
M  V30 5749 O 567.402 -0.166166 2.70991 0
M  V30 5750 C 565.858 2.4208 2.66318 0
M  V30 5751 C 565.466 3.87432 2.24945 0
M  V30 5752 C 567.21 2.48635 3.44065 0
M  V30 5753 C 565.117 4.83368 3.40748 0
M  V30 5754 H 564.047 0.512165 0.553356 0
M  V30 5755 H 566.698 1.66019 0.781661 0
M  V30 5756 H 565.08 2.06903 3.3765 0
M  V30 5757 H 566.254 4.3174 1.6105 0
M  V30 5758 H 564.569 3.8433 1.60249 0
M  V30 5759 H 567.166 3.17499 4.30231 0
M  V30 5760 H 567.509 1.51611 3.87711 0
M  V30 5761 H 568.042 2.82791 2.79775 0
M  V30 5762 H 564.781 5.81716 3.02136 0
M  V30 5763 H 564.301 4.43726 4.03568 0
M  V30 5764 H 565.98 5.03074 4.06848 0
M  V30 5765 N 566.112 -0.949982 1.2575 0
M  V30 5766 C 567.337 -1.73503 1.13628 0
M  V30 5767 C 567.762 -1.85601 -0.30559 0
M  V30 5768 O 567.12 -1.33984 -1.22139 0
M  V30 5769 C 567.168 -3.1243 1.80055 0
M  V30 5770 O 566.272 -3.97916 1.08336 0
M  V30 5771 H 565.613 -0.532665 0.396439 0
M  V30 5772 H 568.143 -1.19043 1.66403 0
M  V30 5773 H 568.153 -3.62866 1.86527 0
M  V30 5774 H 566.828 -3.02941 2.84956 0
M  V30 5775 H 565.405 -3.56375 1.09777 0
M  V30 5776 N 567.59 -1.07411 -1.15328 0
M  V30 5777 C 568.5 -0.706438 -2.23711 0
M  V30 5778 C 569.516 0.282586 -1.7169 0
M  V30 5779 O 570.692 0.129066 -2.00986 0
M  V30 5780 C 567.757 -0.11048 -3.46524 0
M  V30 5781 C 566.818 -1.15282 -4.13532 0
M  V30 5782 C 566.051 -0.585205 -5.30482 0
M  V30 5783 O 566.274 0.598549 -5.67251 0
M  V30 5784 O 565.208 -1.33039 -5.87013 0
M  V30 5785 H 569.034 -1.61031 -2.57493 0
M  V30 5786 H 566.619 -0.847113 -1.23062 0
M  V30 5787 H 568.501 0.21957 -4.20828 0
M  V30 5788 H 567.176 0.766703 -3.14489 0
M  V30 5789 H 566.083 -1.53523 -3.41147 0
M  V30 5790 H 567.416 -2.00192 -4.49649 0
M  V30 5791 N 569.068 1.32177 -0.85831 0
M  V30 5792 C 570.296 2.01313 -0.477582 0
M  V30 5793 C 570.711 1.6449 0.926736 0
M  V30 5794 O 570.068 0.868096 1.60531 0
M  V30 5795 C 570.119 3.56293 -0.611337 0
M  V30 5796 O 569.84 3.91794 -1.96034 0
M  V30 5797 C 571.341 4.42702 -0.230093 0
M  V30 5798 H 568.561 0.644323 -0.187322 0
M  V30 5799 H 571.105 1.68674 -1.15626 0
M  V30 5800 H 569.26 3.87395 0.0196494 0
M  V30 5801 H 569.674 4.86513 -1.95973 0
M  V30 5802 H 571.148 5.50727 -0.374674 0
M  V30 5803 H 571.625 4.3129 0.829779 0
M  V30 5804 H 572.231 4.16997 -0.836302 0
M  V30 5805 N 570.547 0.616602 1.45037 0
M  V30 5806 C 571.51 -0.0871112 2.29034 0
M  V30 5807 C 572.51 -0.786414 1.40258 0
M  V30 5808 O 573.7 -0.633207 1.62284 0
M  V30 5809 C 570.832 -1.13369 3.21497 0
M  V30 5810 H 572.025 0.651497 2.92738 0
M  V30 5811 H 569.578 0.376058 1.51709 0
M  V30 5812 H 570.313 -1.90277 2.62612 0
M  V30 5813 H 570.098 -0.636358 3.86902 0
M  V30 5814 H 571.588 -1.62627 3.84633 0
M  V30 5815 N 572.025 -1.5352 0.356285 0
M  V30 5816 C 572.958 -2.2177 -0.537913 0
M  V30 5817 C 573.936 -1.20626 -1.09033 0
M  V30 5818 O 575.12 -1.49494 -1.1482 0
M  V30 5819 C 572.247 -2.90513 -1.74126 0
M  V30 5820 C 571.293 -4.05652 -1.31715 0
M  V30 5821 S 572.126 -5.34505 -0.326236 0
M  V30 5822 C 573.282 -6.06757 -1.53612 0
M  V30 5823 H 573.515 -2.97271 0.0417411 0
M  V30 5824 H 571.048 -1.53761 0.140372 0
M  V30 5825 H 573.006 -3.30735 -2.43155 0
M  V30 5826 H 571.667 -2.14754 -2.29215 0
M  V30 5827 H 570.86 -4.52733 -2.21471 0
M  V30 5828 H 570.462 -3.67272 -0.706183 0
M  V30 5829 H 572.754 -6.30924 -2.46863 0
M  V30 5830 H 573.697 -6.99395 -1.10687 0
M  V30 5831 H 574.105 -5.3708 -1.73796 0
M  V30 5832 N 573.503 -0.0852151 -1.57369 0
M  V30 5833 C 574.752 0.580443 -1.93168 0
M  V30 5834 C 575.065 1.6995 -0.968319 0
M  V30 5835 O 576.271 2.42564 -1.21963 0
M  V30 5836 C 574.727 1.08386 -3.43192 0
M  V30 5837 C 574.335 -0.00491388 -4.48 0
M  V30 5838 C 576.079 1.72281 -3.87968 0
M  V30 5839 C 573.986 0.513299 -5.89168 0
M  V30 5840 H 572.916 0.22059 -0.72101 0
M  V30 5841 H 575.567 -0.159621 -1.82804 0
M  V30 5842 H 573.949 1.8773 -3.48674 0
M  V30 5843 H 575.123 -0.780032 -4.5415 0
M  V30 5844 H 573.438 -0.548453 -4.12772 0
M  V30 5845 H 576.035 2.12108 -4.9083 0
M  V30 5846 H 576.378 2.58811 -3.26071 0
M  V30 5847 H 576.911 0.995359 -3.85146 0
M  V30 5848 H 573.65 -0.315153 -6.54742 0
M  V30 5849 H 573.17 1.25564 -5.8651 0
M  V30 5850 H 574.849 0.985433 -6.39451 0
M  V30 5851 N 574.981 1.5647 0.188427 0
M  V30 5852 C 576.228 1.81013 0.907779 0
M  V30 5853 C 576.556 0.65953 1.82977 0
M  V30 5854 O 575.811 -0.354308 1.92466 0
M  V30 5855 C 576.11 3.11596 1.7505 0
M  V30 5856 C 575.776 4.40145 0.978922 0
M  V30 5857 C 574.438 4.75066 0.765912 0
M  V30 5858 C 576.79 5.19369 0.436498 0
M  V30 5859 C 574.118 5.867 -0.00089868 0
M  V30 5860 C 576.47 6.31805 -0.317136 0
M  V30 5861 C 575.134 6.65303 -0.541103 0
M  V30 5862 H 574.404 0.662373 0.33218 0
M  V30 5863 H 577.051 1.9071 0.173732 0
M  V30 5864 H 575.356 2.97165 2.55343 0
M  V30 5865 H 577.053 3.27793 2.30983 0
M  V30 5866 H 573.643 4.12745 1.15497 0
M  V30 5867 H 577.827 4.92799 0.588449 0
M  V30 5868 H 573.083 6.11122 -0.184329 0
M  V30 5869 H 577.257 6.92406 -0.744788 0
M  V30 5870 H 574.884 7.51646 -1.13718 0
M  V30 5871 N 576.459 -0.456382 1.50847 0
M  V30 5872 C 577.422 -1.53493 1.70213 0
M  V30 5873 C 578.422 -1.50264 0.572481 0
M  V30 5874 O 579.612 -1.52623 0.839751 0
M  V30 5875 C 576.744 -2.93091 1.741 0
M  V30 5876 H 577.937 -1.37633 2.66453 0
M  V30 5877 H 575.49 -0.683776 1.4055 0
M  V30 5878 H 576.225 -3.14378 0.796063 0
M  V30 5879 H 576.01 -2.9684 2.5618 0
M  V30 5880 H 577.5 -3.71368 1.90987 0
M  V30 5881 N 577.937 -1.40673 -0.710563 0
M  V30 5882 C 579.185 -1.38947 -1.46759 0
M  V30 5883 C 579.506 0.00572879 -1.94999 0
M  V30 5884 O 578.776 0.961358 -1.70689 0
M  V30 5885 H 577.356 -0.5114 -0.544499 0
M  V30 5886 H 580.018 -1.75773 -0.842012 0
M  V30 5887 H 579.114 -2.06745 -2.33801 0
M  V30 5888 N 579.415 0.9433 -1.26252 0
M  V30 5889 C 580.661 1.69175 -1.11837 0
M  V30 5890 C 580.994 1.91238 0.337891 0
M  V30 5891 O 580.269 1.49152 1.24836 0
M  V30 5892 C 580.552 3.06783 -1.88563 0
M  V30 5893 C 580.405 2.9206 -3.42083 0
M  V30 5894 C 581.724 4.06865 -1.67776 0
M  V30 5895 H 578.843 0.61399 -0.407658 0
M  V30 5896 H 581.485 1.09572 -1.55222 0
M  V30 5897 H 579.635 3.57663 -1.51689 0
M  V30 5898 H 581.307 2.48419 -3.88698 0
M  V30 5899 H 579.55 2.27731 -3.69217 0
M  V30 5900 H 580.221 3.89651 -3.90994 0
M  V30 5901 H 582.697 3.64939 -1.99897 0
M  V30 5902 H 581.573 5.01168 -2.23879 0
M  V30 5903 H 581.834 4.37705 -0.621816 0
M  V30 5904 N 580.893 1.08022 1.14757 0
M  V30 5905 C 582.17 0.720386 1.81851 0
M  V30 5906 C 582.55 -0.796375 1.95502 0
M  V30 5907 O 581.898 -1.71339 1.51179 0
M  V30 5908 C 582.108 1.44273 3.17783 0
M  V30 5909 C 583.456 1.59925 3.93331 0
M  V30 5910 O 584.48 1.40407 3.2736 0
M  V30 5911 O 583.339 1.92096 5.11626 0
M  V30 5912 H 580.433 0.257142 0.786007 0
M  V30 5913 H 582.979 1.18155 1.21809 0
M  V30 5914 H 581.751 2.47618 3.02987 0
M  V30 5915 H 581.374 0.97279 3.85516 0
M  V30 5916 N 582.371 -1.3172 0.865308 0
M  V30 5917 C 583.617 -1.97168 0.474633 0
M  V30 5918 C 583.95 -1.68263 -0.969604 0
M  V30 5919 O 583.225 -0.976588 -1.68205 0
M  V30 5920 C 583.508 -3.52689 0.726808 0
M  V30 5921 C 583.361 -3.91185 2.22024 0
M  V30 5922 C 584.68 -4.39689 0.190201 0
M  V30 5923 H 581.799 -0.716185 0.17392 0
M  V30 5924 H 584.441 -1.55925 1.08569 0
M  V30 5925 H 582.591 -3.8795 0.206705 0
M  V30 5926 H 584.263 -3.66049 2.80724 0
M  V30 5927 H 582.506 -3.3996 2.69462 0
M  V30 5928 H 583.177 -4.99604 2.34735 0
M  V30 5929 H 585.653 -4.11225 0.635103 0
M  V30 5930 H 584.529 -5.47469 0.396132 0
M  V30 5931 H 584.79 -4.32683 -0.907625 0
M  V30 5932 N 583.85 -0.624285 -1.44708 0
M  V30 5933 C 585.077 -0.132919 -2.06473 0
M  V30 5934 C 585.493 1.18967 -1.46602 0
M  V30 5935 O 584.85 1.72824 -0.586341 0
M  V30 5936 C 584.901 -0.00465418 -3.615 0
M  V30 5937 O 584.622 -1.27494 -4.19138 0
M  V30 5938 C 586.123 0.516213 -4.40284 0
M  V30 5939 H 583.343 -0.0765201 -0.666623 0
M  V30 5940 H 585.887 -0.856751 -1.85688 0
M  V30 5941 H 584.042 0.669583 -3.8157 0
M  V30 5942 H 584.456 -1.11536 -5.12504 0
M  V30 5943 H 585.93 0.554994 -5.49203 0
M  V30 5944 H 586.407 1.5419 -4.11245 0
M  V30 5945 H 587.013 -0.124542 -4.25118 0
M  V30 5946 N 585.328 1.53329 -0.364422 0
M  V30 5947 C 586.275 2.25698 0.482607 0
M  V30 5948 C 587.245 1.26325 1.07848 0
M  V30 5949 O 588.43 1.55104 1.11119 0
M  V30 5950 C 585.57 3.04873 1.61699 0
M  V30 5951 C 584.683 4.19135 1.0464 0
M  V30 5952 C 583.818 4.85754 2.14979 0
M  V30 5953 C 582.857 5.9205 1.5538 0
M  V30 5954 N 581.994 6.52365 2.59547 0
M  V30 5955 H 586.834 2.97666 -0.141032 0
M  V30 5956 H 584.371 1.46875 -0.0813692 0
M  V30 5957 H 586.329 3.49051 2.28516 0
M  V30 5958 H 584.959 2.35162 2.2113 0
M  V30 5959 H 584.011 3.79451 0.268553 0
M  V30 5960 H 585.323 4.95525 0.570653 0
M  V30 5961 H 584.477 5.3311 2.89619 0
M  V30 5962 H 583.216 4.08834 2.65906 0
M  V30 5963 H 582.221 5.44058 0.792549 0
M  V30 5964 H 583.446 6.7089 1.0528 0
M  V30 5965 H 581.392 5.78298 3.09689 0
M  V30 5966 H 581.309 7.2429 2.16655 0
M  V30 5967 H 582.577 7.0437 3.33892 0
M  V30 5968 N 586.806 0.0935595 1.57322 0
M  V30 5969 C 587.716 -0.880192 2.17462 0
M  V30 5970 C 588.732 -1.31135 1.14366 0
M  V30 5971 O 589.908 -1.37958 1.46729 0
M  V30 5972 C 586.973 -2.12184 2.74188 0
M  V30 5973 C 586.034 -1.74503 3.92234 0
M  V30 5974 C 585.267 -2.92748 4.46245 0
M  V30 5975 O 585.49 -4.07427 3.99198 0
M  V30 5976 O 584.424 -2.71303 5.37288 0
M  V30 5977 H 588.25 -0.398516 3.01074 0
M  V30 5978 H 585.835 -0.130707 1.48827 0
M  V30 5979 H 587.717 -2.84953 3.10451 0
M  V30 5980 H 586.392 -2.59407 1.93623 0
M  V30 5981 H 585.299 -0.989186 3.60785 0
M  V30 5982 H 586.632 -1.32044 4.74157 0
M  V30 5983 N 588.284 -1.56567 -0.180126 0
M  V30 5984 C 589.695 -1.7126 -0.743422 0
M  V30 5985 C 590.046 -0.70263 -1.83187 0
M  V30 5986 O 589.171 0.137856 -2.1596 0
M  V30 5987 C 589.766 -3.10512 -1.35528 0
M  V30 5988 C 588.325 -3.26919 -1.8655 0
M  V30 5989 C 587.472 -2.67213 -0.741099 0
M  V30 5990 H 590.423 -1.58636 0.0451543 0
M  V30 5991 H 590.444 -3.08673 -2.22489 0
M  V30 5992 H 589.956 -3.83997 -0.562862 0
M  V30 5993 H 588.057 -2.58376 -2.68464 0
M  V30 5994 H 588.17 -4.34574 -2.01699 0
M  V30 5995 H 586.534 -2.26788 -1.15927 0
M  V30 5996 H 587.317 -3.43277 0.0393291 0
M  V30 5997 N 589.762 0.448376 -1.51087 0
M  V30 5998 C 591.011 1.19561 -1.62444 0
M  V30 5999 C 591.324 1.92602 -0.341151 0
M  V30 6000 O 592.53 2.69439 -0.333936 0
M  V30 6001 C 590.986 2.17373 -2.8684 0
M  V30 6002 C 590.594 1.5003 -4.22131 0
M  V30 6003 C 592.338 2.92597 -3.0755 0
M  V30 6004 C 590.245 2.46262 -5.37689 0
M  V30 6005 H 589.175 0.449975 -0.605011 0
M  V30 6006 H 591.826 0.463735 -1.77544 0
M  V30 6007 H 590.208 2.93948 -2.65349 0
M  V30 6008 H 591.382 0.790886 -4.53962 0
M  V30 6009 H 589.697 0.870011 -4.0721 0
M  V30 6010 H 592.294 3.64663 -3.91056 0
M  V30 6011 H 592.637 3.53306 -2.20183 0
M  V30 6012 H 593.17 2.23131 -3.29329 0
M  V30 6013 H 589.909 1.90258 -6.27281 0
M  V30 6014 H 589.429 3.15289 -5.10248 0
M  V30 6015 H 591.108 3.07623 -5.6919 0
M  V30 6016 N 591.24 1.41047 0.703093 0
M  V30 6017 C 592.651 1.35657 1.28274 0
M  V30 6018 C 593.002 0.0360309 1.96167 0
M  V30 6019 O 592.127 -0.865833 1.98324 0
M  V30 6020 C 592.722 2.45707 2.33267 0
M  V30 6021 C 591.281 2.43738 2.86825 0
M  V30 6022 C 590.428 2.25941 1.60767 0
M  V30 6023 H 593.379 1.50672 0.49836 0
M  V30 6024 H 593.4 2.14333 3.14391 0
M  V30 6025 H 592.912 3.41805 1.83824 0
M  V30 6026 H 591.013 1.51375 3.40465 0
M  V30 6027 H 591.126 3.39779 3.37768 0
M  V30 6028 H 589.49 1.73681 1.86298 0
M  V30 6029 H 590.273 3.24054 1.1333 0
M  V30 6030 N 592.718 -0.936591 1.26751 0
M  V30 6031 C 593.964 -1.6858 1.12733 0
M  V30 6032 C 594.297 -1.91414 -0.327745 0
M  V30 6033 O 593.572 -1.49812 -1.24043 0
M  V30 6034 C 593.855 -3.05779 1.90187 0
M  V30 6035 C 593.708 -2.90242 3.43627 0
M  V30 6036 C 595.027 -4.0597 1.69931 0
M  V30 6037 H 592.146 -0.61182 0.410908 0
M  V30 6038 H 594.788 -1.08747 1.55801 0
M  V30 6039 H 592.938 -3.56853 1.53584 0
M  V30 6040 H 594.61 -2.46354 3.9001 0
M  V30 6041 H 592.853 -2.2577 3.70419 0
M  V30 6042 H 593.524 -3.87572 3.93055 0
M  V30 6043 H 596 -3.63874 2.0183 0
M  V30 6044 H 594.876 -4.99974 2.26534 0
M  V30 6045 H 595.137 -4.37369 0.64502 0
M  V30 6046 N 594.196 -1.08629 -1.14182 0
M  V30 6047 C 595.126 -0.740003 -2.21464 0
M  V30 6048 C 596.107 0.278591 -1.67803 0
M  V30 6049 O 597.292 0.148461 -1.93632 0
M  V30 6050 C 594.422 -0.150952 -3.46972 0
M  V30 6051 C 593.376 -1.09815 -4.13672 0
M  V30 6052 C 592.702 -0.3712 -5.3341 0
M  V30 6053 C 594.002 -2.43722 -4.61949 0
M  V30 6054 H 595.696 -1.63697 -2.50686 0
M  V30 6055 H 593.242 -0.788526 -1.20492 0
M  V30 6056 H 595.195 0.103325 -4.21273 0
M  V30 6057 H 593.919 0.781164 -3.1712 0
M  V30 6058 H 592.578 -1.33756 -3.41328 0
M  V30 6059 H 592.226 0.564792 -4.99819 0
M  V30 6060 H 591.926 -1.00267 -5.78982 0
M  V30 6061 H 593.45 -0.12503 -6.10472 0
M  V30 6062 H 594.864 -2.24034 -5.27714 0
M  V30 6063 H 593.261 -3.02582 -5.18232 0
M  V30 6064 H 594.331 -3.05082 -3.76899 0
M  V30 6065 N 595.674 1.31259 -0.872281 0
M  V30 6066 C 597.085 1.78822 -0.536617 0
M  V30 6067 C 597.436 1.71855 0.946594 0
M  V30 6068 O 596.561 1.28769 1.73918 0
M  V30 6069 C 597.156 3.24698 -0.967294 0
M  V30 6070 C 595.715 3.70147 -0.683251 0
M  V30 6071 C 594.862 2.51994 -1.15733 0
M  V30 6072 H 597.813 1.18308 -1.05777 0
M  V30 6073 H 597.834 3.79386 -0.290929 0
M  V30 6074 H 597.346 3.29737 -2.04683 0
M  V30 6075 H 595.447 3.70607 0.384825 0
M  V30 6076 H 595.56 4.62183 -1.2619 0
M  V30 6077 H 593.924 2.48078 -0.577024 0
M  V30 6078 H 594.707 2.59778 -2.24434 0
M  V30 6079 N 597.152 0.631951 1.44375 0
M  V30 6080 C 598.38 0.143867 2.06399 0
M  V30 6081 C 598.795 -1.18188 1.47231 0
M  V30 6082 O 598.152 -1.72511 0.595498 0
M  V30 6083 C 598.203 0.0238253 3.61492 0
M  V30 6084 O 597.924 1.29715 4.18456 0
M  V30 6085 C 599.425 -0.492856 4.40552 0
M  V30 6086 H 596.645 0.0800542 0.666207 0
M  V30 6087 H 599.189 0.866586 1.85231 0
M  V30 6088 H 597.344 -0.649338 3.81919 0
M  V30 6089 H 597.758 1.14252 5.11905 0
M  V30 6090 H 599.232 -0.525861 5.49489 0
M  V30 6091 H 599.709 -1.52006 4.12057 0
M  V30 6092 H 600.315 0.147085 4.25046 0
M  V30 6093 N 598.631 -1.53133 0.372548 0
M  V30 6094 C 599.877 -2.01654 -0.215277 0
M  V30 6095 C 600.21 -1.25914 -1.47849 0
M  V30 6096 O 599.485 -0.3548 -1.91237 0
M  V30 6097 C 599.768 -3.56609 -0.500187 0
M  V30 6098 C 599.621 -4.43036 0.777145 0
M  V30 6099 C 600.94 -4.20528 -1.29786 0
M  V30 6100 H 598.059 -0.732991 -0.0767686 0
M  V30 6101 H 600.701 -1.83335 0.498814 0
M  V30 6102 H 598.851 -3.7235 -1.10852 0
M  V30 6103 H 600.523 -4.39079 1.41447 0
M  V30 6104 H 598.766 -4.10723 1.39604 0
M  V30 6105 H 599.437 -5.49424 0.532662 0
M  V30 6106 H 601.913 -4.08663 -0.783198 0
M  V30 6107 H 600.789 -5.28962 -1.46596 0
M  V30 6108 H 601.05 -3.77051 -2.30836 0
M  V30 6109 N 600.109 -0.101901 -1.5727 0
M  V30 6110 C 601.059 0.865346 -2.1094 0
M  V30 6111 C 602.043 1.2394 -1.02605 0
M  V30 6112 O 603.235 1.21334 -1.28868 0
M  V30 6113 C 600.364 2.12187 -2.69874 0
M  V30 6114 C 599.45 1.77295 -3.85263 0
M  V30 6115 N 599.841 1.12993 -4.93017 0
M  V30 6116 C 598.139 2.06862 -3.95126 0
M  V30 6117 C 598.84 0.968631 -5.73579 0
M  V30 6118 N 597.816 1.48814 -5.22834 0
M  V30 6119 H 601.618 0.364368 -2.91633 0
M  V30 6120 H 599.132 0.101104 -1.62085 0
M  V30 6121 H 601.129 2.82431 -3.06657 0
M  V30 6122 H 599.789 2.62844 -1.90639 0
M  V30 6123 H 600.8 0.795935 -5.11747 0
M  V30 6124 H 597.477 2.59686 -3.26909 0
M  V30 6125 H 598.867 0.465231 -6.70287 0
M  V30 6126 N 601.587 1.56661 0.17182 0
M  V30 6127 C 602.817 1.85831 0.902804 0
M  V30 6128 C 603.225 0.685157 1.76358 0
M  V30 6129 O 602.568 -0.354947 1.80238 0
M  V30 6130 C 602.63 3.09406 1.83053 0
M  V30 6131 C 602.294 4.4231 1.1494 0
M  V30 6132 C 603.291 5.17342 0.515104 0
M  V30 6133 C 600.976 4.89045 1.14631 0
M  V30 6134 C 602.97 6.37299 -0.113194 0
M  V30 6135 C 600.657 6.08933 0.514184 0
M  V30 6136 C 601.655 6.82904 -0.114463 0
M  V30 6137 O 601.343 8.00518 -0.736622 0
M  V30 6138 H 601.075 0.620715 0.267748 0
M  V30 6139 H 603.629 2.04637 0.176918 0
M  V30 6140 H 601.859 2.86544 2.59672 0
M  V30 6141 H 603.548 3.25027 2.4313 0
M  V30 6142 H 604.314 4.82317 0.509474 0
M  V30 6143 H 600.193 4.31409 1.62502 0
M  V30 6144 H 603.737 6.94976 -0.604477 0
M  V30 6145 H 599.634 6.43423 0.517395 0
M  V30 6146 H 600.402 8.16027 -0.635822 0
M  V30 6147 N 603.065 -0.440357 1.51323 0
M  V30 6148 C 604.013 -1.55492 1.72988 0
M  V30 6149 C 605.007 -1.58564 0.596138 0
M  V30 6150 O 606.213 -1.62345 0.777443 0
M  V30 6151 H 602.588 -0.516532 0.546533 0
M  V30 6152 H 604.559 -1.34392 2.66423 0
M  V30 6153 C 603.308 -2.93176 1.86931 0
M  V30 6154 H 602.631 -2.91543 2.73574 0
M  V30 6155 H 604.071 -3.70537 2.06103 0
M  V30 6156 C 602.53 -3.30988 0.628365 0
M  V30 6157 O 603.06 -4.01106 -0.218367 0
M  V30 6158 N 601.266 -2.86719 0.473339 0
M  V30 6159 H 600.813 -2.2983 1.16345 0
M  V30 6160 H 600.771 -3.12381 -0.355727 0
M  V30 6161 N 604.543 -1.41418 -0.695603 0
M  V30 6162 C 605.476 -1.3768 -1.81988 0
M  V30 6163 C 606.454 -0.244061 -1.60758 0
M  V30 6164 O 607.638 -0.430965 -1.83507 0
M  V30 6165 C 604.765 -1.1476 -3.18666 0
M  V30 6166 C 603.811 -2.30752 -3.58686 0
M  V30 6167 S 604.644 -3.9323 -3.63498 0
M  V30 6168 C 605.8 -3.72613 -5.02902 0
M  V30 6169 H 606.033 -2.32822 -1.84882 0
M  V30 6170 H 603.566 -1.27942 -0.86431 0
M  V30 6171 H 605.524 -1.02223 -3.97569 0
M  V30 6172 H 604.185 -0.212385 -3.13381 0
M  V30 6173 H 603.378 -2.10409 -4.57978 0
M  V30 6174 H 602.98 -2.39696 -2.87092 0
M  V30 6175 H 605.272 -3.32317 -5.904 0
M  V30 6176 H 606.215 -4.71507 -5.28286 0
M  V30 6177 H 606.623 -3.0589 -4.74438 0
M  V30 6178 N 606.021 0.929856 -1.27246 0
M  V30 6179 C 607.269 1.674 -1.13233 0
M  V30 6180 C 607.59 1.92311 0.322744 0
M  V30 6181 O 606.86 1.52784 1.22612 0
M  V30 6182 H 605.44 0.620411 -0.416052 0
M  V30 6183 H 608.102 1.11663 -1.59741 0
M  V30 6184 H 607.198 2.64308 -1.65975 0
M  V30 6185 N 607.499 1.09233 1.13605 0
M  V30 6186 C 608.747 0.825525 1.84471 0
M  V30 6187 C 609.068 -0.650702 1.83823 0
M  V30 6188 O 608.338 -1.47204 1.29259 0
M  V30 6189 H 606.918 0.3024 0.683054 0
M  V30 6190 H 609.58 1.38006 1.37624 0
M  V30 6191 H 608.676 1.17727 2.89045 0
M  V30 6192 N 608.977 -1.30795 0.87923 0
M  V30 6193 C 610.226 -1.95636 0.490875 0
M  V30 6194 C 610.539 -1.70214 -0.963674 0
M  V30 6195 O 611.745 -2.28991 -1.45861 0
M  V30 6196 C 610.201 -3.50271 0.826929 0
M  V30 6197 C 609.809 -3.84521 2.29886 0
M  V30 6198 C 611.553 -4.21456 0.507494 0
M  V30 6199 C 609.46 -5.32309 2.57685 0
M  V30 6200 H 608.39 -0.732238 0.179841 0
M  V30 6201 H 611.041 -1.48829 1.07341 0
M  V30 6202 H 609.423 -3.9562 0.173542 0
M  V30 6203 H 610.597 -3.50102 2.99609 0
M  V30 6204 H 608.912 -3.26425 2.58526 0
M  V30 6205 H 611.509 -5.30199 0.692293 0
M  V30 6206 H 611.852 -4.12614 -0.552718 0
M  V30 6207 H 612.385 -3.81772 1.11782 0
M  V30 6208 H 609.124 -5.46195 3.62424 0
M  V30 6209 H 608.644 -5.68048 1.92566 0
M  V30 6210 H 610.323 -5.99678 2.42889 0
M  V30 6211 N 610.455 -0.639598 -1.44038 0
M  V30 6212 C 611.866 -0.228866 -1.85292 0
M  V30 6213 C 612.217 1.22161 -1.53529 0
M  V30 6214 O 611.342 1.93064 -0.977518 0
M  V30 6215 C 611.937 -0.408592 -3.36327 0
M  V30 6216 C 610.496 -0.0522953 -3.76364 0
M  V30 6217 C 609.643 -0.717959 -2.67844 0
M  V30 6218 H 612.594 -0.844194 -1.34384 0
M  V30 6219 H 612.615 0.349968 -3.78887 0
M  V30 6220 H 612.127 -1.46435 -3.59414 0
M  V30 6221 H 610.228 1.0014 -3.58891 0
M  V30 6222 H 610.341 -0.468261 -4.76806 0
M  V30 6223 H 608.705 -0.152459 -2.54243 0
M  V30 6224 H 609.488 -1.77648 -2.93762 0
M  V30 6225 N 611.933 1.52934 -0.380664 0
M  V30 6226 C 613.161 2.05886 0.204599 0
M  V30 6227 C 613.576 1.25305 1.41223 0
M  V30 6228 O 612.933 0.297504 1.80059 0
M  V30 6229 C 612.984 3.56764 0.583249 0
M  V30 6230 O 612.705 4.34292 -0.576398 0
M  V30 6231 C 614.206 4.2603 1.2253 0
M  V30 6232 H 611.426 0.670193 0.0328991 0
M  V30 6233 H 613.97 1.97148 -0.543397 0
M  V30 6234 H 612.125 3.65603 1.28115 0
M  V30 6235 H 612.539 5.23819 -0.267119 0
M  V30 6236 H 614.013 5.32868 1.44068 0
M  V30 6237 H 614.49 3.80698 2.19011 0
M  V30 6238 H 615.096 4.21485 0.568407 0
M  V30 6239 N 613.412 0.11024 1.57214 0
M  V30 6240 C 614.36 -0.860586 2.16094 0
M  V30 6241 C 615.354 -1.28156 1.1078 0
M  V30 6242 O 616.56 -1.25433 1.29099 0
M  V30 6243 H 612.935 -0.295606 0.691463 0
M  V30 6244 H 614.906 -0.33942 2.96463 0
M  V30 6245 C 613.655 -2.10421 2.768 0
M  V30 6246 H 612.978 -1.7892 3.5753 0
M  V30 6247 H 614.418 -2.76375 3.21547 0
M  V30 6248 C 612.877 -2.88823 1.73444 0
M  V30 6249 O 613.407 -3.839 1.18251 0
M  V30 6250 N 611.613 -2.52649 1.43586 0
M  V30 6251 H 611.16 -1.754 1.8866 0
M  V30 6252 H 611.118 -3.05403 0.746735 0
M  V30 6253 N 614.89 -1.56749 -0.16351 0
M  V30 6254 C 616.12 -1.86307 -0.892936 0
M  V30 6255 C 616.528 -0.6945 -1.75992 0
M  V30 6256 O 615.871 0.345384 -1.80424 0
M  V30 6257 C 615.933 -3.10372 -1.81409 0
M  V30 6258 C 615.597 -4.42913 -1.12593 0
M  V30 6259 C 616.594 -5.17608 -0.487661 0
M  V30 6260 C 614.279 -4.89646 -1.12035 0
M  V30 6261 C 616.273 -6.3723 0.14699 0
M  V30 6262 C 613.96 -6.09197 -0.481883 0
M  V30 6263 C 614.958 -6.82834 0.150678 0
M  V30 6264 O 614.646 -8.00116 0.779065 0
M  V30 6265 H 614.378 -0.622126 -0.264452 0
M  V30 6266 H 616.932 -2.04728 -0.166063 0
M  V30 6267 H 615.162 -2.87917 -2.58148 0
M  V30 6268 H 616.851 -3.26312 -2.41403 0
M  V30 6269 H 617.617 -4.8258 -0.483888 0
M  V30 6270 H 613.496 -4.32265 -1.60212 0
M  V30 6271 H 617.04 -6.94646 0.641325 0
M  V30 6272 H 612.937 -6.43688 -0.483266 0
M  V30 6273 H 613.705 -8.15678 0.679089 0
M  V30 6274 N 616.368 0.432326 -1.51554 0
M  V30 6275 C 617.315 1.52512 -1.7323 0
M  V30 6276 C 618.285 1.55863 -0.5741 0
M  V30 6277 O 619.47 1.72796 -0.809093 0
M  V30 6278 C 616.61 2.90183 -1.86783 0
M  V30 6279 C 615.723 2.96322 -3.14352 0
M  V30 6280 C 614.858 4.25147 -3.18471 0
M  V30 6281 C 613.897 4.25172 -4.40335 0
M  V30 6282 N 613.034 5.45529 -4.41975 0
M  V30 6283 H 617.874 1.33332 -2.66508 0
M  V30 6284 H 615.411 0.647613 -1.32077 0
M  V30 6285 H 617.369 3.70071 -1.92623 0
M  V30 6286 H 615.999 3.0791 -0.969087 0
M  V30 6287 H 615.051 2.09066 -3.17798 0
M  V30 6288 H 616.363 2.92203 -4.04251 0
M  V30 6289 H 615.517 5.13411 -3.23255 0
M  V30 6290 H 614.256 4.31929 -2.2647 0
M  V30 6291 H 613.261 3.353 -4.35723 0
M  V30 6292 H 614.486 4.20049 -5.33606 0
M  V30 6293 H 612.432 5.53024 -3.52847 0
M  V30 6294 H 612.349 5.43311 -5.25689 0
M  V30 6295 H 613.617 6.35812 -4.50958 0
M  V30 6296 N 617.846 1.41785 0.688094 0
M  V30 6297 C 619.094 1.41264 1.4453 0
M  V30 6298 C 619.415 0.0252946 1.94984 0
M  V30 6299 O 618.685 -0.934081 1.72197 0
M  V30 6300 H 617.265 0.519998 0.536294 0
M  V30 6301 H 619.927 1.7709 0.813941 0
M  V30 6302 H 619.023 2.10439 2.30482 0
M  V30 6303 N 619.324 -0.923095 1.27737 0
M  V30 6304 C 620.256 -2.02871 1.06658 0
M  V30 6305 C 621.269 -1.62786 0.0212095 0
M  V30 6306 O 622.458 -1.76548 0.263267 0
M  V30 6307 C 619.558 -3.33603 0.59682 0
M  V30 6308 C 618.731 -4.02354 1.71551 0
M  V30 6309 C 617.79 -5.11364 1.24071 0
M  V30 6310 O 616.816 -5.35075 1.94123 0
M  V30 6311 N 618.018 -5.80416 0.0988444 0
M  V30 6312 H 620.783 -2.21515 2.01869 0
M  V30 6313 H 618.344 -1.09378 1.19365 0
M  V30 6314 H 620.336 -4.03845 0.262984 0
M  V30 6315 H 618.906 -3.11499 -0.262187 0
M  V30 6316 H 618.126 -3.25786 2.2194 0
M  V30 6317 H 619.414 -4.45035 2.46619 0
M  V30 6318 H 618.812 -5.63611 -0.485743 0
M  V30 6319 H 617.369 -6.51563 -0.17578 0
M  V30 6320 N 620.802 -1.09834 -1.13024 0
M  V30 6321 C 622.048 -0.83819 -1.84668 0
M  V30 6322 C 622.381 0.634645 -1.83537 0
M  V30 6323 O 621.656 1.46753 -1.27647 0
M  V30 6324 C 621.939 -1.37933 -3.32636 0
M  V30 6325 C 621.792 -2.91857 -3.42257 0
M  V30 6326 C 623.111 -1.01654 -4.28199 0
M  V30 6327 H 620.23 -0.30595 -0.670495 0
M  V30 6328 H 622.872 -1.36044 -1.32635 0
M  V30 6329 H 621.022 -0.935111 -3.77078 0
M  V30 6330 H 622.694 -3.44759 -3.06495 0
M  V30 6331 H 620.937 -3.28776 -2.83 0
M  V30 6332 H 621.608 -3.24799 -4.46329 0
M  V30 6333 H 624.084 -1.39973 -3.9185 0
M  V30 6334 H 622.96 -1.42217 -5.30156 0
M  V30 6335 H 623.221 0.0747794 -4.42037 0
M  V30 6336 N 622.28 1.30327 -0.886154 0
M  V30 6337 C 623.21 2.30549 -0.370028 0
M  V30 6338 C 624.191 1.61039 0.547751 0
M  V30 6339 O 625.376 1.8864 0.461353 0
M  V30 6340 C 622.506 3.44808 0.415275 0
M  V30 6341 C 621.46 4.26024 -0.41085 0
M  V30 6342 C 620.786 5.32347 0.501128 0
M  V30 6343 C 622.086 4.95433 -1.65359 0
M  V30 6344 H 623.78 2.73969 -1.20754 0
M  V30 6345 H 621.326 1.3171 -0.582097 0
M  V30 6346 H 623.279 4.13986 0.78699 0
M  V30 6347 H 622.003 3.00197 1.28644 0
M  V30 6348 H 620.662 3.58535 -0.764719 0
M  V30 6349 H 620.31 4.83982 1.37004 0
M  V30 6350 H 620.01 5.87581 -0.0478356 0
M  V30 6351 H 621.534 6.0438 0.869333 0
M  V30 6352 H 622.948 5.5712 -1.35239 0
M  V30 6353 H 621.345 5.60537 -2.14284 0
M  V30 6354 H 622.415 4.21493 -2.39733 0
M  V30 6355 N 623.758 0.647228 1.43697 0
M  V30 6356 C 625.174 0.314256 1.56476 0
M  V30 6357 C 625.374 -1.18191 1.63196 0
M  V30 6358 O 624.43 -1.96655 1.58376 0
M  V30 6359 C 625.743 1.02034 2.82859 0
M  V30 6360 C 627.291 1.00002 2.96595 0
M  V30 6361 C 627.766 1.68689 4.25803 0
M  V30 6362 N 629.257 1.65424 4.32654 0
M  V30 6363 C 629.992 2.1545 5.31384 0
M  V30 6364 N 629.488 2.73738 6.36427 0
M  V30 6365 N 631.281 2.05985 5.22998 0
M  V30 6366 H 623.432 1.61821 1.37578 0
M  V30 6367 H 625.695 0.680184 0.660344 0
M  V30 6368 H 625.401 2.07542 2.83935 0
M  V30 6369 H 625.275 0.568146 3.72897 0
M  V30 6370 H 627.662 -0.0466319 2.95063 0
M  V30 6371 H 627.743 1.49086 2.07863 0
M  V30 6372 H 627.387 2.73308 4.28095 0
M  V30 6373 H 627.317 1.17076 5.13421 0
M  V30 6374 H 629.808 1.22884 3.57363 0
M  V30 6375 H 630.121 3.09602 7.08072 0
M  V30 6376 H 628.466 2.77796 6.37067 0
M  V30 6377 H 631.657 1.60157 4.39849 0
M  V30 6378 H 631.83 2.45281 5.99784 0
M  V30 6379 N 625.236 -1.5273 0.388769 0
M  V30 6380 C 626.186 -2.23238 -0.463567 0
M  V30 6381 C 627.17 -1.23606 -1.03007 0
M  V30 6382 O 628.362 -1.48945 -0.956261 0
M  V30 6383 C 625.491 -3.04228 -1.5906 0
M  V30 6384 C 624.577 -4.11255 -1.03587 0
M  V30 6385 N 624.968 -5.0538 -0.206038 0
M  V30 6386 C 623.266 -4.26376 -1.30841 0
M  V30 6387 C 623.967 -5.81613 0.100359 0
M  V30 6388 N 622.943 -5.41264 -0.503447 0
M  V30 6389 H 626.745 -2.93367 0.176978 0
M  V30 6390 H 624.259 -1.61188 0.198046 0
M  V30 6391 H 626.256 -3.53277 -2.21362 0
M  V30 6392 H 624.916 -2.35634 -2.23398 0
M  V30 6393 H 625.927 -5.17663 0.156659 0
M  V30 6394 H 622.604 -3.69011 -1.95287 0
M  V30 6395 H 623.994 -6.67442 0.772676 0
M  V30 6396 N 626.714 -0.118576 -1.57153 0
M  V30 6397 C 627.96 0.540326 -1.95469 0
M  V30 6398 C 628.293 1.66356 -1.00196 0
M  V30 6399 O 627.568 1.94461 -0.039104 0
M  V30 6400 C 627.851 1.07342 -3.43729 0
M  V30 6401 C 627.704 -0.0463732 -4.49776 0
M  V30 6402 C 629.023 1.96442 -3.93826 0
M  V30 6403 H 626.142 0.19494 -0.710751 0
M  V30 6404 H 628.784 -0.19405 -1.89006 0
M  V30 6405 H 626.934 1.69925 -3.49368 0
M  V30 6406 H 628.606 -0.681648 -4.56236 0
M  V30 6407 H 626.849 -0.709574 -4.27957 0
M  V30 6408 H 627.52 0.367856 -5.50773 0
M  V30 6409 H 629.996 1.43731 -3.90488 0
M  V30 6410 H 628.872 2.3066 -4.98084 0
M  V30 6411 H 629.133 2.89077 -3.34495 0
M  V30 6412 N 628.193 1.56834 0.155195 0
M  V30 6413 C 629.141 1.98584 1.21107 0
M  V30 6414 C 630.135 0.876987 1.44932 0
M  V30 6415 O 631.341 1.06215 1.45322 0
M  V30 6416 H 627.716 0.632039 0.407469 0
M  V30 6417 H 629.687 2.86561 0.832195 0
M  V30 6418 C 628.436 2.37555 2.53895 0
M  V30 6419 H 627.759 3.22428 2.3639 0
M  V30 6420 H 629.199 2.70598 3.26424 0
M  V30 6421 C 627.658 1.22507 3.13837 0
M  V30 6422 O 628.188 0.521388 3.98302 0
M  V30 6423 N 626.394 0.991444 2.73164 0
M  V30 6424 H 625.941 1.56544 2.04577 0
M  V30 6425 H 625.899 0.223546 3.13604 0
M  V30 6426 N 629.671 -0.424282 1.51781 0
M  V30 6427 C 630.919 -1.17028 1.64769 0
M  V30 6428 C 631.24 -1.91409 0.372523 0
M  V30 6429 O 630.51 -1.86091 -0.612108 0
M  V30 6430 H 629.09 -0.434992 0.607282 0
M  V30 6431 H 631.752 -0.485169 1.88765 0
M  V30 6432 H 630.848 -1.8927 2.4816 0
M  V30 6433 N 631.149 -1.42148 -0.680565 0
M  V30 6434 C 632.081 -1.41119 -1.80605 0
M  V30 6435 C 633.094 -0.311099 -1.598 0
M  V30 6436 O 634.283 -0.573813 -1.69026 0
M  V30 6437 C 631.383 -1.18204 -3.17618 0
M  V30 6438 C 630.556 -2.40537 -3.65322 0
M  V30 6439 C 629.615 -2.13254 -4.8105 0
M  V30 6440 O 628.641 -2.8641 -4.91892 0
M  V30 6441 N 629.843 -1.13208 -5.69354 0
M  V30 6442 H 632.608 -2.38128 -1.81975 0
M  V30 6443 H 630.169 -1.36953 -0.863446 0
M  V30 6444 H 632.161 -0.97878 -3.92686 0
M  V30 6445 H 630.731 -0.29738 -3.11182 0
M  V30 6446 H 629.951 -2.76468 -2.80996 0
M  V30 6447 H 631.239 -3.22012 -3.93936 0
M  V30 6448 H 630.637 -0.526893 -5.63241 0
M  V30 6449 H 629.194 -0.988699 -6.44258 0
M  V30 6450 N 632.627 0.916307 -1.28225 0
M  V30 6451 C 633.904 1.64429 -1.05936 0
M  V30 6452 C 634.284 2.07234 0.402139 0
M  V30 6453 O 633.632 1.81535 1.3877 0
M  V30 6454 C 633.842 2.83773 -2.03159 0
M  V30 6455 C 635.19 3.54852 -2.33164 0
M  V30 6456 O 636.214 2.93918 -2.01223 0
M  V30 6457 O 635.073 4.64663 -2.87664 0
M  V30 6458 H 632.167 0.721221 -0.404683 0
M  V30 6459 H 634.713 0.965838 -1.39534 0
M  V30 6460 H 633.485 2.49217 -3.01673 0
M  V30 6461 H 633.108 3.59333 -1.70192 0
M  V30 6462 N 634.105 1.10431 1.1244 0
M  V30 6463 C 635.037 0.710945 2.17895 0
M  V30 6464 C 636.05 -0.252315 1.60833 0
M  V30 6465 O 637.239 -0.03679 1.78462 0
M  V30 6466 C 634.339 0.0284262 3.38888 0
M  V30 6467 C 633.512 1.01585 4.2544 0
M  V30 6468 C 632.571 0.364826 5.24934 0
M  V30 6469 O 631.597 1.01561 5.60066 0
M  V30 6470 N 632.799 -0.87674 5.73841 0
M  V30 6471 H 635.564 1.61826 2.52255 0
M  V30 6472 H 633.125 0.993132 1.27861 0
M  V30 6473 H 635.117 -0.418568 4.0253 0
M  V30 6474 H 633.687 -0.781294 3.02679 0
M  V30 6475 H 632.907 1.64111 3.58415 0
M  V30 6476 H 634.195 1.68425 4.80115 0
M  V30 6477 H 633.593 -1.42483 5.47462 0
M  V30 6478 H 632.15 -1.26688 6.39369 0
M  V30 6479 N 635.583 -1.29855 0.893053 0
M  V30 6480 C 636.832 -1.95104 0.511597 0
M  V30 6481 C 637.145 -1.71226 -0.945567 0
M  V30 6482 O 638.351 -2.30525 -1.43424 0
M  V30 6483 C 636.807 -3.49374 0.864034 0
M  V30 6484 C 636.415 -3.82061 2.33952 0
M  V30 6485 C 638.159 -4.20894 0.552167 0
M  V30 6486 C 636.066 -5.29546 2.63316 0
M  V30 6487 H 634.996 -0.73029 0.187597 0
M  V30 6488 H 637.647 -1.47682 1.08914 0
M  V30 6489 H 636.029 -3.95413 0.215493 0
M  V30 6490 H 637.203 -3.46904 3.03305 0
M  V30 6491 H 635.518 -3.23665 2.61973 0
M  V30 6492 H 638.115 -5.29435 0.748489 0
M  V30 6493 H 638.458 -4.13178 -0.508924 0
M  V30 6494 H 638.991 -3.80564 1.15825 0
M  V30 6495 H 635.73 -5.4232 3.68197 0
M  V30 6496 H 635.25 -5.65974 1.9858 0
M  V30 6497 H 636.929 -5.97068 2.49236 0
M  V30 6498 N 637.061 -0.65484 -1.43351 0
M  V30 6499 C 638.307 -0.169142 -2.02093 0
M  V30 6500 C 638.64 1.21431 -1.51553 0
M  V30 6501 O 637.915 1.81105 -0.709317 0
M  V30 6502 C 638.198 -0.181775 -3.59641 0
M  V30 6503 C 638.051 -1.59926 -4.20409 0
M  V30 6504 C 639.37 0.480945 -4.37464 0
M  V30 6505 H 636.489 -0.0629371 -0.734308 0
M  V30 6506 H 639.131 -0.835833 -1.70628 0
M  V30 6507 H 637.281 0.385918 -3.86578 0
M  V30 6508 H 638.953 -2.21766 -4.04497 0
M  V30 6509 H 637.196 -2.14605 -3.76998 0
M  V30 6510 H 637.867 -1.55994 -5.295 0
M  V30 6511 H 640.343 -0.00208273 -4.161 0
M  V30 6512 H 639.219 0.441384 -5.47122 0
M  V30 6513 H 639.48 1.55533 -4.13838 0
M  V30 6514 N 638.539 1.52521 -0.396863 0
M  V30 6515 C 639.95 1.86547 0.0754868 0
M  V30 6516 C 640.301 1.31621 1.45501 0
M  V30 6517 O 639.426 0.650563 2.0639 0
M  V30 6518 C 640.021 3.38495 0.143754 0
M  V30 6519 C 638.58 3.72205 0.560413 0
M  V30 6520 C 637.727 2.75954 -0.272856 0
M  V30 6521 H 640.678 1.46323 -0.614434 0
M  V30 6522 H 640.699 3.68153 0.961425 0
M  V30 6523 H 640.211 3.78442 -0.860415 0
M  V30 6524 H 638.312 3.3783 1.57167 0
M  V30 6525 H 638.425 4.78074 0.313314 0
M  V30 6526 H 636.789 2.53339 0.263 0
M  V30 6527 H 637.572 3.1874 -1.27515 0
M  V30 6528 N 640.017 0.126909 1.57088 0
M  V30 6529 C 641.265 -0.528123 1.95078 0
M  V30 6530 C 641.586 -1.66708 1.0116 0
M  V30 6531 O 640.856 -1.95777 0.0693527 0
M  V30 6532 H 639.436 -0.198087 0.720257 0
M  V30 6533 H 642.098 0.197703 1.93895 0
M  V30 6534 H 641.194 -0.917507 2.98309 0
M  V30 6535 N 641.495 -1.56914 -0.146875 0
M  V30 6536 C 642.425 -2.01308 -1.1831 0
M  V30 6537 C 643.406 -0.892664 -1.44795 0
M  V30 6538 O 644.591 -1.16048 -1.55713 0
M  V30 6539 C 641.721 -2.3938 -2.51624 0
M  V30 6540 C 640.675 -3.54608 -2.3966 0
M  V30 6541 C 640.001 -3.78493 -3.77686 0
M  V30 6542 C 641.301 -4.87269 -1.88058 0
M  V30 6543 H 642.995 -2.88123 -0.813964 0
M  V30 6544 H 640.541 -1.38615 -0.3901 0
M  V30 6545 H 642.494 -2.69037 -3.24341 0
M  V30 6546 H 641.218 -1.49502 -2.90373 0
M  V30 6547 H 639.877 -3.25116 -1.69396 0
M  V30 6548 H 639.525 -2.85866 -4.13871 0
M  V30 6549 H 639.225 -4.56039 -3.70543 0
M  V30 6550 H 640.749 -4.10576 -4.51951 0
M  V30 6551 H 642.163 -5.15644 -2.50568 0
M  V30 6552 H 640.56 -5.68622 -1.91805 0
M  V30 6553 H 641.63 -4.77634 -0.836277 0
M  V30 6554 N 642.974 0.416227 -1.52004 0
M  V30 6555 C 644.204 1.18401 -1.69307 0
M  V30 6556 C 644.612 1.84943 -0.399072 0
M  V30 6557 O 643.955 1.72406 0.634177 0
M  V30 6558 C 644.017 2.29465 -2.76742 0
M  V30 6559 C 643.681 1.83117 -4.18709 0
M  V30 6560 C 644.678 1.32286 -5.02789 0
M  V30 6561 C 642.363 1.90167 -4.64911 0
M  V30 6562 C 644.357 0.891178 -6.31139 0
M  V30 6563 C 642.044 1.4661 -5.93253 0
M  V30 6564 C 643.042 0.961696 -6.76196 0
M  V30 6565 O 642.73 0.532388 -8.02135 0
M  V30 6566 H 642.462 0.362098 -0.570843 0
M  V30 6567 H 645.016 0.496764 -1.99302 0
M  V30 6568 H 643.246 3.01531 -2.42107 0
M  V30 6569 H 644.935 2.91252 -2.82713 0
M  V30 6570 H 645.701 1.26218 -4.68288 0
M  V30 6571 H 641.58 2.28371 -4.00459 0
M  V30 6572 H 645.124 0.496788 -6.95829 0
M  V30 6573 H 641.021 1.52355 -6.27263 0
M  V30 6574 H 641.789 0.656339 -8.15864 0
M  V30 6575 N 644.452 1.42507 0.673017 0
M  V30 6576 C 645.415 1.4582 1.76831 0
M  V30 6577 C 646.415 0.345542 1.57043 0
M  V30 6578 O 647.605 0.606447 1.63303 0
M  V30 6579 C 644.737 1.29158 3.15485 0
M  V30 6580 H 645.93 2.43345 1.7528 0
M  V30 6581 H 643.483 1.28981 0.882817 0
M  V30 6582 H 644.218 0.325626 3.22661 0
M  V30 6583 H 644.003 2.09797 3.31252 0
M  V30 6584 H 645.493 1.34363 3.95394 0
M  V30 6585 N 645.93 -0.909495 1.28709 0
M  V30 6586 C 647.17 -1.67344 1.17368 0
M  V30 6587 C 647.534 -1.90058 -0.272419 0
M  V30 6588 O 648.735 -2.63944 -0.508617 0
M  V30 6589 C 647.006 -2.99219 1.95455 0
M  V30 6590 S 648.565 -3.90295 2.00538 0
M  V30 6591 H 645.383 -0.57466 0.418672 0
M  V30 6592 H 647.985 -1.08144 1.62865 0
M  V30 6593 H 646.689 -2.80393 2.9968 0
M  V30 6594 H 646.22 -3.63464 1.50524 0
M  V30 6595 H 648.235 -4.83511 1.11496 0
M  V30 6596 N 647.408 -1.11026 -1.11852 0
M  V30 6597 C 648.656 -0.854769 -1.83134 0
M  V30 6598 C 648.977 0.621375 -1.84835 0
M  V30 6599 O 648.247 1.45129 -1.31584 0
M  V30 6600 H 646.827 -0.313229 -0.678157 0
M  V30 6601 H 649.489 -1.40178 -1.35411 0
M  V30 6602 H 648.585 -1.22311 -2.87135 0
M  V30 6603 N 648.886 1.2938 -0.899927 0
M  V30 6604 C 649.796 2.31462 -0.382437 0
M  V30 6605 C 650.812 1.65956 0.522929 0
M  V30 6606 O 651.988 1.97131 0.412454 0
M  V30 6607 C 649.053 3.44595 0.381472 0
M  V30 6608 C 648.114 4.25692 -0.555444 0
M  V30 6609 C 647.347 5.33422 0.172102 0
M  V30 6610 O 647.57 5.53053 1.396 0
M  V30 6611 O 646.504 5.99939 -0.485491 0
M  V30 6612 H 650.33 2.77706 -1.22934 0
M  V30 6613 H 647.915 1.33821 -0.664259 0
M  V30 6614 H 649.797 4.13474 0.813442 0
M  V30 6615 H 648.472 3.00458 1.20443 0
M  V30 6616 H 647.379 3.59453 -1.03653 0
M  V30 6617 H 648.712 4.73471 -1.34483 0
M  V30 6618 N 650.364 0.662433 1.43002 0
M  V30 6619 C 651.327 -0.0142016 2.29196 0
M  V30 6620 C 652.327 -0.741394 1.42688 0
M  V30 6621 O 653.517 -0.581257 1.64216 0
M  V30 6622 C 650.649 -1.03084 3.24941 0
M  V30 6623 H 651.842 0.7443 2.90517 0
M  V30 6624 H 649.395 0.424133 1.50435 0
M  V30 6625 H 650.13 -1.81826 2.68533 0
M  V30 6626 H 649.915 -0.512946 3.8873 0
M  V30 6627 H 651.405 -1.50308 3.89612 0
M  V30 6628 N 651.842 -1.52309 0.404946 0
M  V30 6629 C 652.805 -2.25491 -0.410651 0
M  V30 6630 C 653.805 -1.27704 -0.977154 0
M  V30 6631 O 654.995 -1.51679 -0.856691 0
M  V30 6632 C 652.127 -3.02197 -1.57765 0
M  V30 6633 H 653.32 -2.99015 0.230277 0
M  V30 6634 H 650.873 -1.55506 0.157377 0
M  V30 6635 H 651.608 -2.33013 -2.25556 0
M  V30 6636 H 651.393 -3.73987 -1.17797 0
M  V30 6637 H 652.883 -3.57719 -2.15469 0
M  V30 6638 N 653.32 -0.135238 -1.57019 0
M  V30 6639 C 654.56 0.521686 -1.9763 0
M  V30 6640 C 654.924 1.62804 -1.01778 0
M  V30 6641 O 656.125 2.345 -1.31389 0
M  V30 6642 C 654.396 1.0257 -3.42365 0
M  V30 6643 S 655.955 1.68888 -4.04997 0
M  V30 6644 H 652.773 0.169064 -0.690607 0
M  V30 6645 H 655.375 -0.224168 -1.94211 0
M  V30 6646 H 654.079 0.209556 -4.09865 0
M  V30 6647 H 653.61 1.80645 -3.49472 0
M  V30 6648 H 655.625 2.97554 -3.97084 0
M  V30 6649 N 654.798 1.5699 0.138552 0
M  V30 6650 C 655.761 1.97984 1.15478 0
M  V30 6651 C 656.761 0.867416 1.35398 0
M  V30 6652 O 657.951 1.13387 1.32246 0
M  V30 6653 C 655.083 2.3031 2.51337 0
M  V30 6654 H 656.276 2.88953 0.802896 0
M  V30 6655 H 653.829 1.51555 0.382189 0
M  V30 6656 H 654.564 1.42159 2.91481 0
M  V30 6657 H 654.349 3.11425 2.38237 0
M  V30 6658 H 655.839 2.62834 3.24512 0
M  V30 6659 N 656.276 -0.40816 1.52223 0
M  V30 6660 C 657.501 -1.18127 1.70472 0
M  V30 6661 C 657.926 -1.83491 0.41384 0
M  V30 6662 O 657.284 -1.70047 -0.628778 0
M  V30 6663 C 657.332 -2.21935 2.84213 0
M  V30 6664 O 656.436 -3.28099 2.4985 0
M  V30 6665 H 655.777 -0.344781 0.56747 0
M  V30 6666 H 658.307 -0.478328 1.9893 0
M  V30 6667 H 658.317 -2.66248 3.09153 0
M  V30 6668 H 656.992 -1.73744 3.7787 0
M  V30 6669 H 655.569 -2.89058 2.35584 0
M  V30 6670 N 657.755 -1.42862 -0.66545 0
M  V30 6671 C 659.001 -1.44043 -1.42757 0
M  V30 6672 C 659.334 -0.0599629 -1.94107 0
M  V30 6673 O 658.609 0.917286 -1.71511 0
M  V30 6674 C 658.892 -2.47266 -2.61786 0
M  V30 6675 C 658.745 -3.94539 -2.16007 0
M  V30 6676 C 660.064 -2.47365 -3.64003 0
M  V30 6677 H 657.183 -0.524506 -0.517748 0
M  V30 6678 H 659.825 -1.74335 -0.755466 0
M  V30 6679 H 657.975 -2.21565 -3.19126 0
M  V30 6680 H 659.647 -4.31254 -1.63762 0
M  V30 6681 H 657.89 -4.07957 -1.47491 0
M  V30 6682 H 658.561 -4.62357 -3.01546 0
M  V30 6683 H 661.037 -2.70243 -3.16399 0
M  V30 6684 H 659.913 -3.21552 -4.44854 0
M  V30 6685 H 660.174 -1.50299 -4.15767 0
M  V30 6686 N 659.233 0.902656 -1.29189 0
M  V30 6687 C 660.183 1.99326 -1.10695 0
M  V30 6688 C 661.167 1.60877 -0.0272521 0
M  V30 6689 O 662.359 1.75245 -0.248635 0
M  V30 6690 C 659.488 3.34265 -0.78244 0
M  V30 6691 C 658.574 3.79081 -1.90153 0
M  V30 6692 N 658.965 3.96162 -3.14466 0
M  V30 6693 C 657.263 4.08333 -1.79389 0
M  V30 6694 C 657.964 4.3388 -3.87458 0
M  V30 6695 N 656.94 4.42759 -3.15381 0
M  V30 6696 H 660.742 2.10597 -2.05003 0
M  V30 6697 H 658.256 1.09127 -1.20271 0
M  V30 6698 H 660.253 4.12097 -0.630996 0
M  V30 6699 H 658.913 3.2434 0.152754 0
M  V30 6700 H 659.924 3.81775 -3.49954 0
M  V30 6701 H 656.601 4.06982 -0.931217 0
M  V30 6702 H 657.991 4.54965 -4.94425 0
M  V30 6703 N 660.711 1.11618 1.11262 0
M  V30 6704 C 661.959 0.864469 1.82678 0
M  V30 6705 C 662.28 -0.611564 1.85162 0
M  V30 6706 O 661.55 -1.44429 1.32352 0
M  V30 6707 H 660.13 0.316821 0.676486 0
M  V30 6708 H 662.792 1.40894 1.34666 0
M  V30 6709 H 661.888 1.23832 2.86482 0
M  V30 6710 N 662.189 -1.289 0.906776 0
M  V30 6711 C 663.152 -2.25777 0.394656 0
M  V30 6712 C 664.152 -1.53621 -0.475119 0
M  V30 6713 O 665.342 -1.71949 -0.279165 0
M  V30 6714 C 662.474 -3.38113 -0.43499 0
M  V30 6715 H 663.667 -2.72592 1.25033 0
M  V30 6716 H 661.22 -1.40463 0.685547 0
M  V30 6717 H 661.955 -2.96648 -1.31036 0
M  V30 6718 H 661.74 -3.91647 0.188334 0
M  V30 6719 H 663.23 -4.10168 -0.784365 0
M  V30 6720 N 663.667 -0.670007 -1.42649 0
M  V30 6721 C 664.615 0.0230106 -2.32589 0
M  V30 6722 C 665.609 0.795585 -1.49555 0
M  V30 6723 O 666.815 0.70409 -1.65658 0
M  V30 6724 H 663.19 0.0262342 -0.751542 0
M  V30 6725 H 665.161 -0.753009 -2.88743 0
M  V30 6726 C 663.91 0.963872 -3.34073 0
M  V30 6727 H 663.233 0.378813 -3.98001 0
M  V30 6728 H 664.673 1.41755 -3.99602 0
M  V30 6729 C 663.132 2.06797 -2.65964 0
M  V30 6730 O 663.662 3.15383 -2.48789 0
M  V30 6731 N 661.868 1.83831 -2.25066 0
M  V30 6732 H 661.415 0.955235 -2.39234 0
M  V30 6733 H 661.373 2.57895 -1.79827 0
M  V30 6734 N 665.145 1.52092 -0.413018 0
M  V30 6735 C 666.561 1.59471 -0.0640836 0
M  V30 6736 C 666.761 1.42562 1.42402 0
M  V30 6737 O 665.817 1.25453 2.19129 0
M  V30 6738 C 667.13 2.95392 -0.562474 0
M  V30 6739 C 668.678 3.08637 -0.520788 0
M  V30 6740 C 669.153 4.47044 -0.995752 0
M  V30 6741 N 670.644 4.53296 -0.952732 0
M  V30 6742 C 671.379 5.58669 -1.29138 0
M  V30 6743 N 670.875 6.71576 -1.70168 0
M  V30 6744 N 672.668 5.48898 -1.2111 0
M  V30 6745 H 664.819 1.6133 -1.38153 0
M  V30 6746 H 667.082 0.75916 -0.567785 0
M  V30 6747 H 666.788 3.13059 -1.60271 0
M  V30 6748 H 666.662 3.77191 0.0257875 0
M  V30 6749 H 669.049 2.90652 0.510412 0
M  V30 6750 H 669.13 2.28735 -1.14515 0
M  V30 6751 H 668.774 4.65773 -2.0253 0
M  V30 6752 H 668.704 5.25448 -0.348162 0
M  V30 6753 H 671.195 3.72248 -0.651119 0
M  V30 6754 H 671.508 7.47973 -1.9431 0
M  V30 6755 H 669.853 6.72847 -1.74075 0
M  V30 6756 H 673.044 4.59573 -0.889396 0
M  V30 6757 H 673.217 6.30912 -1.47833 0
M  V30 6758 N 666.623 0.143563 1.56945 0
M  V30 6759 C 667.553 -0.7936 2.196 0
M  V30 6760 C 668.534 -1.25955 1.14321 0
M  V30 6761 O 669.719 -1.31773 1.42651 0
M  V30 6762 C 666.849 -2.03424 2.81489 0
M  V30 6763 C 665.803 -1.70519 3.92565 0
M  V30 6764 C 665.129 -3.01817 4.41373 0
M  V30 6765 C 666.429 -0.95449 5.13504 0
M  V30 6766 H 668.123 -0.271423 2.98167 0
M  V30 6767 H 665.669 -0.12911 1.4342 0
M  V30 6768 H 667.622 -2.69463 3.23987 0
M  V30 6769 H 666.346 -2.58008 2.00248 0
M  V30 6770 H 665.005 -1.06859 3.5068 0
M  V30 6771 H 664.653 -3.54386 3.56959 0
M  V30 6772 H 664.353 -2.80565 5.16292 0
M  V30 6773 H 665.877 -3.68934 4.86539 0
M  V30 6774 H 667.291 -1.5169 5.52868 0
M  V30 6775 H 665.688 -0.842035 5.94163 0
M  V30 6776 H 666.758 0.0544033 4.84869 0
M  V30 6777 N 668.101 -1.57061 -0.130224 0
M  V30 6778 C 669.349 -1.83893 -0.838313 0
M  V30 6779 C 669.67 -0.727046 -1.80939 0
M  V30 6780 O 668.94 0.249927 -1.94299 0
M  V30 6781 H 667.52 -0.67846 -0.312573 0
M  V30 6782 H 670.182 -1.94529 -0.120224 0
M  V30 6783 H 669.278 -2.79419 -1.39038 0
M  V30 6784 N 669.579 0.400081 -1.52437 0
M  V30 6785 C 670.542 1.4707 -1.75793 0
M  V30 6786 C 671.542 1.48036 -0.627856 0
M  V30 6787 O 672.732 1.49401 -0.895817 0
M  V30 6788 C 669.864 2.86427 -1.84858 0
M  V30 6789 H 671.057 1.27649 -2.71377 0
M  V30 6790 H 668.61 0.631141 -1.42991 0
M  V30 6791 H 669.345 3.11207 -0.912194 0
M  V30 6792 H 669.13 2.87128 -2.6702 0
M  V30 6793 H 670.62 3.64023 -2.04638 0
M  V30 6794 N 671.057 1.43213 0.657864 0
M  V30 6795 C 672.005 1.48271 1.79216 0
M  V30 6796 C 672.999 0.35675 1.65601 0
M  V30 6797 O 674.205 0.530535 1.72004 0
M  V30 6798 H 670.58 0.464729 0.591211 0
M  V30 6799 H 672.551 2.43792 1.7207 0
M  V30 6800 C 671.3 1.41837 3.17455 0
M  V30 6801 H 670.623 2.27781 3.28567 0
M  V30 6802 H 672.063 1.49438 3.96793 0
M  V30 6803 C 670.522 0.135347 3.36628 0
M  V30 6804 O 671.052 -0.805199 3.93547 0
M  V30 6805 N 669.258 0.0470316 2.90562 0
M  V30 6806 H 668.805 0.813221 2.44427 0
M  V30 6807 H 668.763 -0.810737 3.03767 0
M  V30 6808 N 672.536 -0.895792 1.29666 0
M  V30 6809 C 673.761 -1.68528 1.20885 0
M  V30 6810 C 674.186 -1.8673 -0.226595 0
M  V30 6811 O 673.544 -1.39044 -1.16347 0
M  V30 6812 C 673.592 -3.04512 1.93144 0
M  V30 6813 O 672.696 -3.92963 1.25115 0
M  V30 6814 H 672.037 -0.515371 0.418675 0
M  V30 6815 H 674.567 -1.11878 1.71302 0
M  V30 6816 H 674.577 -3.54628 2.0175 0
M  V30 6817 H 673.252 -2.90582 2.97548 0
M  V30 6818 H 671.829 -3.51399 1.24794 0
M  V30 6819 N 674.014 -1.12206 -1.10668 0
M  V30 6820 C 674.944 -0.810086 -2.18997 0
M  V30 6821 C 675.925 0.225065 -1.68604 0
M  V30 6822 O 677.11 0.086783 -1.94006 0
M  V30 6823 C 674.24 -0.261262 -3.46316 0
M  V30 6824 C 673.194 -1.2292 -4.09969 0
M  V30 6825 C 672.52 -0.540713 -5.31959 0
M  V30 6826 C 673.82 -2.58295 -4.53962 0
M  V30 6827 H 675.514 -1.7159 -2.45352 0
M  V30 6828 H 673.06 -0.82646 -1.17922 0
M  V30 6829 H 675.013 -0.0307522 -4.21389 0
M  V30 6830 H 673.737 0.679879 -3.19445 0
M  V30 6831 H 672.396 -1.44548 -3.369 0
M  V30 6832 H 672.044 0.405492 -5.01363 0
M  V30 6833 H 671.744 -1.18637 -5.75499 0
M  V30 6834 H 673.268 -0.319184 -6.09765 0
M  V30 6835 H 674.682 -2.40709 -5.20319 0
M  V30 6836 H 673.079 -3.18916 -5.08343 0
M  V30 6837 H 674.149 -3.16918 -3.67002 0
M  V30 6838 N 675.492 1.28418 -0.913599 0
M  V30 6839 C 676.422 2.29713 -0.418847 0
M  V30 6840 C 677.403 1.62165 0.513469 0
M  V30 6841 O 678.588 1.89576 0.421235 0
M  V30 6842 C 675.718 3.45612 0.342042 0
M  V30 6843 C 674.672 4.25056 -0.501123 0
M  V30 6844 C 673.998 5.3329 0.388097 0
M  V30 6845 C 675.298 4.91814 -1.75831 0
M  V30 6846 H 676.992 2.71346 -1.26538 0
M  V30 6847 H 674.538 1.30446 -0.609903 0
M  V30 6848 H 676.491 4.15562 0.699 0
M  V30 6849 H 675.215 3.02858 1.22248 0
M  V30 6850 H 673.874 3.56833 -0.840598 0
M  V30 6851 H 673.522 4.8678 1.26707 0
M  V30 6852 H 673.222 5.87347 -0.172459 0
M  V30 6853 H 674.746 6.06088 0.74094 0
M  V30 6854 H 676.16 5.54126 -1.47026 0
M  V30 6855 H 674.557 5.55866 -2.26126 0
M  V30 6856 H 675.627 4.16313 -2.4862 0
M  V30 6857 N 676.97 0.677563 1.42291 0
M  V30 6858 C 678.247 0.129803 1.95169 0
M  V30 6859 C 678.627 -1.35605 1.61786 0
M  V30 6860 O 677.975 -2.09361 0.915444 0
M  V30 6861 C 678.185 0.401889 3.46678 0
M  V30 6862 C 679.533 0.319889 4.23393 0
M  V30 6863 O 680.557 0.33579 3.54614 0
M  V30 6864 O 679.416 0.264459 5.4586 0
M  V30 6865 H 676.51 0.00447433 0.826988 0
M  V30 6866 H 679.056 0.752483 1.52105 0
M  V30 6867 H 677.828 1.43108 3.64192 0
M  V30 6868 H 677.451 -0.252662 3.96796 0
M  V30 6869 N 678.448 -1.51871 0.421078 0
M  V30 6870 C 679.378 -2.30231 -0.389363 0
M  V30 6871 C 680.359 -1.34946 -1.03555 0
M  V30 6872 O 681.544 -1.63859 -1.04229 0
M  V30 6873 C 678.674 -3.13247 -1.49979 0
M  V30 6874 C 677.628 -4.16677 -0.977966 0
M  V30 6875 C 676.954 -4.88112 -2.1829 0
M  V30 6876 C 678.254 -5.22295 -0.0236775 0
M  V30 6877 H 679.948 -2.98229 0.264524 0
M  V30 6878 H 677.494 -1.43424 0.12866 0
M  V30 6879 H 679.447 -3.66838 -2.07383 0
M  V30 6880 H 678.171 -2.4304 -2.18173 0
M  V30 6881 H 676.83 -3.64114 -0.426245 0
M  V30 6882 H 676.478 -4.14423 -2.85066 0
M  V30 6883 H 676.178 -5.58041 -1.84021 0
M  V30 6884 H 677.702 -5.44521 -2.76278 0
M  V30 6885 H 679.116 -5.71055 -0.506899 0
M  V30 6886 H 677.513 -5.99656 0.230782 0
M  V30 6887 H 678.583 -4.76131 0.917999 0
M  V30 6888 N 679.926 -0.151884 -1.56866 0
M  V30 6889 C 681.172 0.498742 -1.96572 0
M  V30 6890 C 681.505 1.64194 -1.03702 0
M  V30 6891 O 680.78 1.94334 -0.0803432 0
M  V30 6892 C 681.063 1.00027 -3.45929 0
M  V30 6893 C 680.916 -0.141767 -4.49577 0
M  V30 6894 C 682.235 1.88044 -3.97904 0
M  V30 6895 H 679.354 0.17982 -0.714726 0
M  V30 6896 H 681.996 -0.234097 -1.88552 0
M  V30 6897 H 680.146 1.62476 -3.52894 0
M  V30 6898 H 681.818 -0.778269 -4.54687 0
M  V30 6899 H 680.061 -0.80019 -4.26356 0
M  V30 6900 H 680.732 0.250947 -5.51429 0
M  V30 6901 H 683.208 1.35416 -3.93449 0
M  V30 6902 H 682.084 2.20043 -5.02864 0
M  V30 6903 H 682.345 2.81916 -3.40552 0
M  V30 6904 N 681.404 1.57128 0.121893 0
M  V30 6905 C 682.65 1.84974 0.831418 0
M  V30 6906 C 682.983 0.737204 1.79663 0
M  V30 6907 O 682.258 -0.257199 1.92792 0
M  V30 6908 C 682.541 3.23397 1.58386 0
M  V30 6909 C 682.394 4.45246 0.638445 0
M  V30 6910 C 683.713 3.59355 2.54071 0
M  V30 6911 H 680.832 0.67282 0.300803 0
M  V30 6912 H 683.474 1.89759 0.0957587 0
M  V30 6913 H 681.624 3.19449 2.21098 0
M  V30 6914 H 683.296 4.61295 0.0203925 0
M  V30 6915 H 681.539 4.33771 -0.05023 0
M  V30 6916 H 682.21 5.38765 1.20151 0
M  V30 6917 H 684.686 3.64075 2.01465 0
M  V30 6918 H 683.562 4.57193 3.03752 0
M  V30 6919 H 683.823 2.86622 3.36601 0
M  V30 6920 N 682.882 -0.391992 1.52647 0
M  V30 6921 C 684.129 -1.13732 1.67545 0
M  V30 6922 C 684.457 -1.90045 0.413881 0
M  V30 6923 O 683.712 -1.86157 -0.603646 0
M  V30 6924 C 684.011 -2.14401 2.85949 0
M  V30 6925 C 683.677 -1.54767 4.23507 0
M  V30 6926 C 682.339 -1.38229 4.60919 0
M  V30 6927 C 684.691 -1.11382 5.0916 0
M  V30 6928 C 682.019 -0.7685 5.81645 0
M  V30 6929 C 684.371 -0.514143 6.30507 0
M  V30 6930 C 683.035 -0.33604 6.66654 0
M  V30 6931 H 682.305 -0.416174 0.613091 0
M  V30 6932 H 684.952 -0.422327 1.86785 0
M  V30 6933 H 683.257 -2.92108 2.61114 0
M  V30 6934 H 684.954 -2.71974 2.94671 0
M  V30 6935 H 681.544 -1.68626 3.94035 0
M  V30 6936 H 685.728 -1.22962 4.80826 0
M  V30 6937 H 680.984 -0.618681 6.08262 0
M  V30 6938 H 685.158 -0.169657 6.96193 0
M  V30 6939 H 682.785 0.14166 7.60068 0
M  V30 6940 N 684.36 -1.4356 -0.65026 0
M  V30 6941 C 685.608 -1.45046 -1.40734 0
M  V30 6942 C 685.929 -0.0769822 -1.94848 0
M  V30 6943 O 685.199 0.888098 -1.74613 0
M  V30 6944 H 683.779 -0.534034 -0.522318 0
M  V30 6945 H 686.441 -1.79186 -0.766703 0
M  V30 6946 H 685.537 -2.16476 -2.24822 0
M  V30 6947 N 685.838 0.888903 -1.30139 0
M  V30 6948 C 687.254 1.17153 -1.08385 0
M  V30 6949 C 687.454 2.0088 0.157925 0
M  V30 6950 O 686.51 2.37668 0.852652 0
M  V30 6951 C 687.823 1.882 -2.34523 0
M  V30 6952 C 689.371 2.00981 -2.39949 0
M  V30 6953 C 689.846 2.75441 -3.65918 0
M  V30 6954 N 691.337 2.82989 -3.66704 0
M  V30 6955 C 692.072 3.41167 -4.60861 0
M  V30 6956 N 691.568 4.00425 -5.6536 0
M  V30 6957 N 693.361 3.38944 -4.48412 0
M  V30 6958 H 685.512 0.33053 -2.09812 0
M  V30 6959 H 687.775 0.208964 -0.924683 0
M  V30 6960 H 687.481 1.34119 -3.25123 0
M  V30 6961 H 687.355 2.88609 -2.42868 0
M  V30 6962 H 689.742 2.54234 -1.4983 0
M  V30 6963 H 689.823 0.996725 -2.35582 0
M  V30 6964 H 689.467 2.22861 -4.56394 0
M  V30 6965 H 689.397 3.77118 -3.67546 0
M  V30 6966 H 691.888 2.40912 -2.91153 0
M  V30 6967 H 692.201 4.42871 -6.33313 0
M  V30 6968 H 690.546 3.98856 -5.69157 0
M  V30 6969 H 693.737 2.91875 -3.6596 0
M  V30 6970 H 693.91 3.83989 -5.21974 0
M  V30 6971 N 687.317 1.12792 1.10072 0
M  V30 6972 C 688.28 0.802264 2.14701 0
M  V30 6973 C 689.28 -0.18515 1.59731 0
M  V30 6974 O 690.47 0.041109 1.74151 0
M  V30 6975 C 687.602 0.19285 3.40354 0
M  V30 6976 H 688.795 1.72932 2.45019 0
M  V30 6977 H 686.348 0.931662 1.25498 0
M  V30 6978 H 687.083 -0.743748 3.15656 0
M  V30 6979 H 686.868 0.903827 3.81541 0
M  V30 6980 H 688.358 -0.0183704 4.17596 0
M  V30 6981 N 688.795 -1.27931 0.920396 0
M  V30 6982 C 690.035 -1.96459 0.564198 0
M  V30 6983 C 690.399 -1.70802 -0.876967 0
M  V30 6984 O 691.6 -2.32956 -1.34107 0
M  V30 6985 C 689.871 -3.46583 0.872641 0
M  V30 6986 S 691.43 -4.34343 0.623859 0
M  V30 6987 H 688.248 -0.679735 0.208523 0
M  V30 6988 H 690.85 -1.55319 1.18727 0
M  V30 6989 H 689.554 -3.62753 1.91933 0
M  V30 6990 H 689.085 -3.92677 0.238479 0
M  V30 6991 H 691.1 -4.93449 -0.521744 0
M  V30 6992 N 690.273 -0.685099 -1.4193 0
M  V30 6993 C 691.236 -0.0222632 -2.29189 0
M  V30 6994 C 692.236 0.7186 -1.4385 0
M  V30 6995 O 693.426 0.555058 -1.6512 0
M  V30 6996 C 690.558 0.979013 -3.2654 0
M  V30 6997 H 691.751 -0.790424 -2.89296 0
M  V30 6998 H 689.304 -0.448012 -1.49742 0
M  V30 6999 H 690.039 1.77531 -2.71392 0
M  V30 7000 H 689.824 0.451037 -3.89497 0
M  V30 7001 H 691.314 1.44091 -3.91954 0
M  V30 7002 N 691.751 1.51645 -0.429126 0
M  V30 7003 C 692.681 2.30434 0.377148 0
M  V30 7004 C 693.662 1.35493 1.02838 0
M  V30 7005 O 694.847 1.6441 1.03359 0
M  V30 7006 C 691.977 3.14038 1.48315 0
M  V30 7007 C 690.931 4.1719 0.955855 0
M  V30 7008 C 690.257 4.89263 2.15698 0
M  V30 7009 C 691.557 5.223 -0.00402136 0
M  V30 7010 H 693.251 2.98085 -0.280336 0
M  V30 7011 H 690.797 1.43354 -0.136265 0
M  V30 7012 H 692.75 3.67933 2.05435 0
M  V30 7013 H 691.474 2.44193 2.16881 0
M  V30 7014 H 690.133 3.64335 0.406929 0
M  V30 7015 H 689.781 4.15929 2.82864 0
M  V30 7016 H 689.481 5.59009 1.81059 0
M  V30 7017 H 691.005 5.45978 2.73387 0
M  V30 7018 H 692.419 5.71315 0.476607 0
M  V30 7019 H 690.816 5.99525 -0.26258 0
M  V30 7020 H 691.886 4.75638 -0.943236 0
M  V30 7021 N 693.229 0.160201 1.56784 0
M  V30 7022 C 694.454 -0.497373 2.01348 0
M  V30 7023 C 694.879 -1.56757 1.03966 0
M  V30 7024 O 694.237 -1.81292 0.0174455 0
M  V30 7025 C 694.285 -1.0628 3.44582 0
M  V30 7026 O 693.389 -2.17723 3.50244 0
M  V30 7027 H 692.73 -0.120295 0.653012 0
M  V30 7028 H 695.26 0.260821 2.02931 0
M  V30 7029 H 695.27 -1.38819 3.83658 0
M  V30 7030 H 693.945 -0.279166 4.14962 0
M  V30 7031 H 692.522 -1.86313 3.2302 0
M  V30 7032 N 694.707 -1.5719 -0.113559 0
M  V30 7033 C 695.956 -1.84325 -0.818984 0
M  V30 7034 C 696.269 -0.746685 -1.80787 0
M  V30 7035 O 697.475 -0.904596 -2.55987 0
M  V30 7036 C 695.931 -3.26818 -1.50724 0
M  V30 7037 C 695.539 -4.44498 -0.559065 0
M  V30 7038 C 697.283 -3.63196 -2.19748 0
M  V30 7039 C 695.19 -5.7802 -1.25086 0
M  V30 7040 H 694.12 -0.687507 -0.309596 0
M  V30 7041 H 696.771 -1.8336 -0.0717621 0
M  V30 7042 H 695.153 -3.22269 -2.30128 0
M  V30 7043 H 696.327 -4.60356 0.202146 0
M  V30 7044 H 694.642 -4.16393 0.024495 0
M  V30 7045 H 697.239 -4.60226 -2.72206 0
M  V30 7046 H 697.582 -2.90899 -2.97798 0
M  V30 7047 H 698.115 -3.69553 -1.47226 0
M  V30 7048 H 694.854 -6.53501 -0.511539 0
M  V30 7049 H 694.374 -5.66038 -1.98395 0
M  V30 7050 H 696.053 -6.2196 -1.78253 0
M  V30 7051 N 696.185 0.383891 -1.52853 0
M  V30 7052 C 697.095 1.49343 -1.80925 0
M  V30 7053 C 698.111 1.59458 -0.696348 0
M  V30 7054 O 699.287 1.75698 -0.984481 0
M  V30 7055 C 696.352 2.84819 -1.97684 0
M  V30 7056 C 695.413 2.84382 -3.21598 0
M  V30 7057 C 694.646 4.13397 -3.37548 0
M  V30 7058 O 694.869 5.08619 -2.58192 0
M  V30 7059 O 693.803 4.20325 -4.30826 0
M  V30 7060 H 697.629 1.2855 -2.75152 0
M  V30 7061 H 695.214 0.572229 -1.38007 0
M  V30 7062 H 697.096 3.65125 -2.10385 0
M  V30 7063 H 695.771 3.05627 -1.06647 0
M  V30 7064 H 694.678 2.0284 -3.14336 0
M  V30 7065 H 696.011 2.68526 -4.12498 0
M  V30 7066 N 697.663 1.43903 0.642637 0
M  V30 7067 C 698.573 1.52349 1.78401 0
M  V30 7068 C 699.589 0.409869 1.69104 0
M  V30 7069 O 700.765 0.665548 1.90085 0
M  V30 7070 C 697.83 1.45408 3.14734 0
M  V30 7071 C 696.891 2.67528 3.35749 0
M  V30 7072 C 696.124 2.60909 4.65577 0
M  V30 7073 O 696.347 1.6627 5.45628 0
M  V30 7074 O 695.281 3.5158 4.88544 0
M  V30 7075 H 699.107 2.48752 1.7423 0
M  V30 7076 H 696.692 1.26021 0.802439 0
M  V30 7077 H 698.574 1.44019 3.96026 0
M  V30 7078 H 697.249 0.521437 3.19473 0
M  V30 7079 H 696.156 2.74487 2.5418 0
M  V30 7080 H 697.489 3.598 3.35864 0
M  V30 7081 N 699.141 -0.881989 1.30609 0
M  V30 7082 C 700.366 -1.67236 1.22665 0
M  V30 7083 C 700.791 -1.8696 -0.206777 0
M  V30 7084 O 700.149 -1.4027 -1.14865 0
M  V30 7085 C 700.197 -3.02446 1.96363 0
M  V30 7086 O 699.301 -3.91614 1.29276 0
M  V30 7087 H 698.642 -0.510902 0.424117 0
M  V30 7088 H 701.172 -1.10055 1.72479 0
M  V30 7089 H 701.182 -3.52468 2.055 0
M  V30 7090 H 699.857 -2.8741 3.00613 0
M  V30 7091 H 698.434 -3.50055 1.28514 0
M  V30 7092 N 700.619 -1.13374 -1.09472 0
M  V30 7093 C 701.859 -0.905422 -1.83252 0
M  V30 7094 C 702.223 0.558396 -1.83701 0
M  V30 7095 O 703.424 0.904254 -2.53134 0
M  V30 7096 C 701.695 -1.47658 -3.25472 0
M  V30 7097 S 703.254 -1.38825 -4.16261 0
M  V30 7098 H 700.072 -0.326371 -0.631667 0
M  V30 7099 H 702.674 -1.44517 -1.31663 0
M  V30 7100 H 701.378 -2.53533 -3.22722 0
M  V30 7101 H 700.909 -0.934756 -3.82133 0
M  V30 7102 H 702.924 -0.366379 -4.94846 0
M  V30 7103 N 702.098 1.27442 -0.927168 0
M  V30 7104 C 703.514 1.46754 -0.627329 0
M  V30 7105 C 703.714 1.83902 0.823549 0
M  V30 7106 O 702.77 1.95215 1.60148 0
M  V30 7107 C 704.083 2.56045 -1.57674 0
M  V30 7108 C 705.631 2.69906 -1.58491 0
M  V30 7109 C 706.106 3.82355 -2.52128 0
M  V30 7110 N 707.597 3.89728 -2.50332 0
M  V30 7111 C 708.332 4.76155 -3.19475 0
M  V30 7112 N 707.828 5.67073 -3.97995 0
M  V30 7113 N 709.621 4.6988 -3.08496 0
M  V30 7114 H 701.772 1.01613 -1.86517 0
M  V30 7115 H 704.035 0.507443 -0.800753 0
M  V30 7116 H 703.741 2.35542 -2.61176 0
M  V30 7117 H 703.615 3.53423 -1.31804 0
M  V30 7118 H 706.002 2.89792 -0.557208 0
M  V30 7119 H 706.083 1.73018 -1.8841 0
M  V30 7120 H 705.727 3.63224 -3.55008 0
M  V30 7121 H 705.657 4.7867 -2.19505 0
M  V30 7122 H 708.148 3.24717 -1.93306 0
M  V30 7123 H 708.461 6.2988 -4.4774 0
M  V30 7124 H 706.806 5.6687 -4.02098 0
M  V30 7125 H 709.997 3.97848 -2.46646 0
M  V30 7126 H 710.17 5.37017 -3.62652 0
M  V30 7127 N 703.576 0.692616 1.41565 0
M  V30 7128 C 704.987 0.297478 1.84315 0
M  V30 7129 C 705.338 -1.16379 1.57957 0
M  V30 7130 O 704.463 -1.89303 1.0485 0
M  V30 7131 C 705.058 0.533136 3.34579 0
M  V30 7132 C 703.617 0.191944 3.7591 0
M  V30 7133 C 702.764 0.816873 2.64995 0
M  V30 7134 H 705.715 0.893488 1.31158 0
M  V30 7135 H 705.736 -0.209105 3.79925 0
M  V30 7136 H 705.248 1.59674 3.53731 0
M  V30 7137 H 703.349 -0.867512 3.6236 0
M  V30 7138 H 703.462 0.644902 4.7474 0
M  V30 7139 H 701.826 0.246715 2.53502 0
M  V30 7140 H 702.609 1.88429 2.86966 0
M  V30 7141 N 705.054 -1.51416 0.437162 0
M  V30 7142 C 706.302 -2.01687 -0.129108 0
M  V30 7143 C 706.623 -1.32329 -1.43227 0
M  V30 7144 O 705.893 -0.457796 -1.90476 0
M  V30 7145 H 704.473 -0.745277 -0.0507023 0
M  V30 7146 H 707.135 -1.86075 0.579828 0
M  V30 7147 H 706.231 -3.10605 -0.305141 0
M  V30 7148 N 706.532 -0.168513 -1.56696 0
M  V30 7149 C 707.809 0.523367 -1.88468 0
M  V30 7150 C 708.189 1.81503 -1.07796 0
M  V30 7151 O 707.537 2.27859 -0.171045 0
M  V30 7152 C 707.747 0.767991 -3.40445 0
M  V30 7153 C 709.095 1.09924 -4.10124 0
M  V30 7154 O 710.119 0.856625 -3.45746 0
M  V30 7155 O 708.978 1.55681 -5.23856 0
M  V30 7156 H 706.072 0.269447 -0.781874 0
M  V30 7157 H 708.618 -0.206739 -1.68436 0
M  V30 7158 H 707.39 -0.145254 -3.9103 0
M  V30 7159 H 707.013 1.55151 -3.66079 0
M  V30 7160 N 708.01 1.57248 0.105221 0
M  V30 7161 C 708.957 2.01338 1.12835 0
M  V30 7162 C 709.927 0.887897 1.40377 0
M  V30 7163 O 711.112 1.15315 1.5201 0
M  V30 7164 C 708.252 2.43432 2.44611 0
M  V30 7165 C 707.365 3.69457 2.23888 0
M  V30 7166 C 706.5 4.00473 3.48991 0
M  V30 7167 C 705.539 5.19638 3.23485 0
M  V30 7168 N 704.676 5.46457 4.40828 0
M  V30 7169 H 709.516 2.88527 0.745386 0
M  V30 7170 H 707.053 1.42714 0.356535 0
M  V30 7171 H 709.011 2.65879 3.21503 0
M  V30 7172 H 707.641 1.59266 2.80774 0
M  V30 7173 H 706.693 3.54545 1.37847 0
M  V30 7174 H 708.005 4.56497 2.01026 0
M  V30 7175 H 707.159 4.23642 4.34295 0
M  V30 7176 H 705.898 3.11935 3.74897 0
M  V30 7177 H 704.903 4.96299 2.36574 0
M  V30 7178 H 706.128 6.09766 2.98935 0
M  V30 7179 H 704.074 4.60876 4.66829 0
M  V30 7180 H 703.991 6.27849 4.2112 0
M  V30 7181 H 705.259 5.74155 5.27225 0
M  V30 7182 N 709.488 -0.375779 1.53054 0
M  V30 7183 C 710.734 -1.12114 1.68992 0
M  V30 7184 C 711.067 -1.8926 0.435238 0
M  V30 7185 O 710.342 -1.86044 -0.567278 0
M  V30 7186 C 710.625 -2.08867 2.93337 0
M  V30 7187 C 710.478 -1.35397 4.28938 0
M  V30 7188 C 711.797 -3.09124 3.13257 0
M  V30 7189 H 708.916 -0.406207 0.614951 0
M  V30 7190 H 711.558 -0.403054 1.85676 0
M  V30 7191 H 709.708 -2.70102 2.79244 0
M  V30 7192 H 711.38 -0.770242 4.54824 0
M  V30 7193 H 709.623 -0.655801 4.28814 0
M  V30 7194 H 710.294 -2.06161 5.12056 0
M  V30 7195 H 712.77 -2.57987 3.26469 0
M  V30 7196 H 711.646 -3.74054 4.01715 0
M  V30 7197 H 711.907 -3.78729 2.28072 0
M  V30 7198 N 710.966 -1.44241 -0.634997 0
M  V30 7199 C 712.377 -1.41622 -1.21655 0
M  V30 7200 C 712.728 -0.129584 -1.95772 0
M  V30 7201 O 711.853 0.770225 -2.02229 0
M  V30 7202 C 712.448 -2.56557 -2.21278 0
M  V30 7203 C 711.007 -2.57145 -2.7487 0
M  V30 7204 C 710.154 -2.33354 -1.49804 0
M  V30 7205 H 713.105 -1.52878 -0.425905 0
M  V30 7206 H 713.126 -2.29089 -3.03807 0
M  V30 7207 H 712.638 -3.50186 -1.67306 0
M  V30 7208 H 710.739 -1.67447 -3.32855 0
M  V30 7209 H 710.852 -3.55507 -3.21172 0
M  V30 7210 H 709.216 -1.82372 -1.77799 0
M  V30 7211 H 709.999 -3.29092 -0.977402 0
M  V30 7212 N 712.444 0.87505 -1.31075 0
M  V30 7213 C 713.855 1.4433 -1.18431 0
M  V30 7214 C 714.206 1.9506 0.211189 0
M  V30 7215 O 713.331 1.85847 1.10859 0
M  V30 7216 C 713.926 2.62341 -2.14389 0
M  V30 7217 C 712.485 3.15225 -2.05694 0
M  V30 7218 C 711.632 1.87929 -2.03907 0
M  V30 7219 H 714.583 0.684061 -1.432 0
M  V30 7220 H 714.604 3.3887 -1.73053 0
M  V30 7221 H 714.116 2.25388 -3.15946 0
M  V30 7222 H 712.217 3.56812 -1.07314 0
M  V30 7223 H 712.33 3.77853 -2.94558 0
M  V30 7224 H 710.694 2.06679 -1.48849 0
M  V30 7225 H 711.477 1.53221 -3.07211 0
M  V30 7226 N 713.922 1.13953 1.08869 0
M  V30 7227 C 715.171 0.899431 1.80536 0
M  V30 7228 C 715.484 -0.575781 1.86933 0
M  V30 7229 O 716.69 -0.932988 2.54966 0
M  V30 7230 C 715.146 1.55963 3.24351 0
M  V30 7231 C 714.754 3.07077 3.26202 0
M  V30 7232 C 716.498 1.40046 4.00733 0
M  V30 7233 C 714.405 3.65955 4.64576 0
M  V30 7234 H 713.335 0.332849 0.676556 0
M  V30 7235 H 715.986 1.3679 1.22314 0
M  V30 7236 H 714.368 1.01883 3.82669 0
M  V30 7237 H 715.542 3.67785 2.77617 0
M  V30 7238 H 713.857 3.22576 2.63312 0
M  V30 7239 H 716.454 1.81441 5.02974 0
M  V30 7240 H 716.797 0.345993 4.1486 0
M  V30 7241 H 717.33 1.91137 3.48872 0
M  V30 7242 H 714.069 4.71234 4.55652 0
M  V30 7243 H 713.589 3.10027 5.13462 0
M  V30 7244 H 715.268 3.65968 5.33551 0
M  V30 7245 N 715.4 -1.26948 0.933913 0
M  V30 7246 C 716.347 -2.26635 0.436484 0
M  V30 7247 C 717.317 -1.58397 -0.499953 0
M  V30 7248 O 718.502 -1.86171 -0.417753 0
M  V30 7249 C 715.642 -3.43803 -0.298951 0
M  V30 7250 C 714.755 -4.26736 0.672316 0
M  V30 7251 C 713.89 -5.31134 -0.0835872 0
M  V30 7252 C 712.929 -6.05742 0.879979 0
M  V30 7253 N 712.066 -7.01926 0.156301 0
M  V30 7254 H 716.906 -2.68558 1.29154 0
M  V30 7255 H 714.443 -1.32052 0.648118 0
M  V30 7256 H 716.401 -4.10554 -0.741723 0
M  V30 7257 H 715.031 -3.02814 -1.1182 0
M  V30 7258 H 714.083 -3.59842 1.23361 0
M  V30 7259 H 715.395 -4.78502 1.40846 0
M  V30 7260 H 714.549 -6.03863 -0.585984 0
M  V30 7261 H 713.288 -4.80188 -0.852661 0
M  V30 7262 H 712.293 -5.31846 1.39357 0
M  V30 7263 H 713.518 -6.58777 1.64894 0
M  V30 7264 H 711.464 -6.53301 -0.594413 0
M  V30 7265 H 711.381 -7.51409 0.831906 0
M  V30 7266 H 712.649 -7.78821 -0.325239 0
M  V30 7267 N 716.879 -0.700114 -1.41195 0
M  V30 7268 C 718.29 -0.307249 -1.84154 0
M  V30 7269 C 718.641 1.15539 -1.58572 0
M  V30 7270 O 717.766 1.88744 -1.05852 0
M  V30 7271 C 718.361 -0.550872 -3.34292 0
M  V30 7272 C 716.92 -0.211877 -3.75803 0
M  V30 7273 C 716.067 -0.830915 -2.64558 0
M  V30 7274 H 719.018 -0.900431 -1.30683 0
M  V30 7275 H 719.039 0.188954 -3.80031 0
M  V30 7276 H 718.551 -1.61548 -3.5288 0
M  V30 7277 H 716.652 0.848283 -3.62815 0
M  V30 7278 H 716.765 -0.67007 -4.74391 0
M  V30 7279 H 715.129 -0.260155 -2.53368 0
M  V30 7280 H 715.912 -1.89948 -2.85963 0
M  V30 7281 N 718.357 1.51182 -0.445186 0
M  V30 7282 C 719.305 2.29531 0.376597 0
M  V30 7283 C 720.299 1.35711 1.01385 0
M  V30 7284 O 721.505 1.53018 0.947922 0
M  V30 7285 H 717.88 0.738803 0.140267 0
M  V30 7286 H 719.851 2.96838 -0.304958 0
M  V30 7287 C 718.6 3.1552 1.4609 0
M  V30 7288 H 717.923 3.87605 0.979912 0
M  V30 7289 H 719.363 3.73384 2.009 0
M  V30 7290 C 717.822 2.31406 2.44852 0
M  V30 7291 O 718.352 1.97912 3.49562 0
M  V30 7292 N 716.558 1.94478 2.15932 0
M  V30 7293 H 716.105 2.21917 1.30808 0
M  V30 7294 H 716.063 1.38498 2.82251 0
M  V30 7295 N 719.835 0.176821 1.56605 0
M  V30 7296 C 720.798 -0.737429 2.17013 0
M  V30 7297 C 721.798 -1.15414 1.11965 0
M  V30 7298 O 722.988 -1.0702 1.37449 0
M  V30 7299 C 720.12 -2.00445 2.75744 0
M  V30 7300 H 721.313 -0.211455 2.99154 0
M  V30 7301 H 718.866 -0.0727582 1.56131 0
M  V30 7302 H 719.601 -2.57338 1.97352 0
M  V30 7303 H 719.386 -1.71456 3.52626 0
M  V30 7304 H 720.876 -2.65679 3.22187 0
M  V30 7305 N 721.313 -1.57302 -0.09688 0
M  V30 7306 C 722.561 -1.8563 -0.799117 0
M  V30 7307 C 722.882 -0.765263 -1.79356 0
M  V30 7308 O 722.152 0.208657 -1.94786 0
M  V30 7309 H 720.732 -0.684937 -0.298111 0
M  V30 7310 H 723.394 -1.9474 -0.0789341 0
M  V30 7311 H 722.49 -2.82305 -1.3308 0
M  V30 7312 N 722.791 0.367657 -1.53252 0
M  V30 7313 C 723.701 1.47415 -1.82499 0
M  V30 7314 C 724.717 1.58711 -0.713222 0
M  V30 7315 O 725.893 1.74644 -1.00306 0
M  V30 7316 C 722.958 2.82706 -2.00694 0
M  V30 7317 C 722.019 2.80955 -3.24596 0
M  V30 7318 C 721.252 4.09793 -3.41914 0
M  V30 7319 O 721.475 5.05852 -2.63572 0
M  V30 7320 O 720.409 4.15731 -4.3526 0
M  V30 7321 H 724.235 1.25624 -2.765 0
M  V30 7322 H 721.82 0.557559 -1.38606 0
M  V30 7323 H 723.702 3.62873 -2.14246 0
M  V30 7324 H 722.377 3.04479 -1.09883 0
M  V30 7325 H 721.284 1.99494 -3.16469 0
M  V30 7326 H 722.617 2.64136 -4.15323 0
M  V30 7327 N 724.269 1.44576 0.627338 0
M  V30 7328 C 725.179 1.54232 1.76776 0
M  V30 7329 C 726.195 0.427782 1.6866 0
M  V30 7330 O 727.371 0.685671 1.89369 0
M  V30 7331 C 724.436 1.48738 3.13174 0
M  V30 7332 C 723.497 2.71074 3.32893 0
M  V30 7333 C 722.73 2.65832 4.62784 0
M  V30 7334 O 722.953 1.72048 5.43834 0
M  V30 7335 O 721.887 3.56742 4.84787 0
M  V30 7336 H 725.713 2.50586 1.71582 0
M  V30 7337 H 723.298 1.26865 0.789028 0
M  V30 7338 H 725.18 1.48211 3.94476 0
M  V30 7339 H 723.855 0.555292 3.18902 0
M  V30 7340 H 722.762 2.77168 2.51254 0
M  V30 7341 H 724.095 3.63342 3.32029 0
M  V30 7342 N 725.747 -0.868086 1.31537 0
M  V30 7343 C 726.972 -1.65926 1.24432 0
M  V30 7344 C 727.397 -1.87169 -0.186936 0
M  V30 7345 O 726.755 -1.4148 -1.13371 0
M  V30 7346 C 726.803 -3.00347 1.9956 0
M  V30 7347 O 725.907 -3.90221 1.33422 0
M  V30 7348 H 725.248 -0.506375 0.429512 0
M  V30 7349 H 727.778 -1.0822 1.73637 0
M  V30 7350 H 727.788 -3.50269 2.09226 0
M  V30 7351 H 726.463 -2.84205 3.03645 0
M  V30 7352 H 725.04 -3.48672 1.32219 0
M  V30 7353 N 727.225 -1.14528 -1.08264 0
M  V30 7354 C 728.471 -0.91576 -1.80947 0
M  V30 7355 C 728.804 0.55623 -1.86064 0
M  V30 7356 O 728.079 1.41207 -1.33756 0
M  V30 7357 C 728.362 -1.51917 -3.26486 0
M  V30 7358 C 728.215 -3.06111 -3.2957 0
M  V30 7359 C 729.534 -1.19724 -4.23502 0
M  V30 7360 H 726.653 -0.334113 -0.656915 0
M  V30 7361 H 729.295 -1.41547 -1.26746 0
M  V30 7362 H 727.445 -1.0942 -3.72773 0
M  V30 7363 H 729.117 -3.57448 -2.91597 0
M  V30 7364 H 727.36 -3.40483 -2.688 0
M  V30 7365 H 728.031 -3.43438 -4.32151 0
M  V30 7366 H 730.507 -1.56467 -3.85561 0
M  V30 7367 H 729.383 -1.64575 -5.23647 0
M  V30 7368 H 729.644 -0.112771 -4.41956 0
M  V30 7369 N 728.703 1.26451 -0.940633 0
M  V30 7370 C 729.636 2.24771 -0.394094 0
M  V30 7371 C 730.614 1.54169 0.516781 0
M  V30 7372 O 731.798 1.82942 0.454352 0
M  V30 7373 C 728.925 3.3591 0.433807 0
M  V30 7374 C 727.971 4.24472 -0.415464 0
M  V30 7375 S 728.804 5.0293 -1.83907 0
M  V30 7376 C 729.96 6.17546 -1.01921 0
M  V30 7377 H 730.193 2.70782 -1.22737 0
M  V30 7378 H 727.726 1.35308 -0.743709 0
M  V30 7379 H 729.684 4.00387 0.905576 0
M  V30 7380 H 728.345 2.88512 1.24175 0
M  V30 7381 H 727.538 5.03525 0.218833 0
M  V30 7382 H 727.14 3.64857 -0.821897 0
M  V30 7383 H 729.432 6.76996 -0.261227 0
M  V30 7384 H 730.375 6.8528 -1.78318 0
M  V30 7385 H 730.783 5.6176 -0.555511 0
M  V30 7386 N 730.181 0.707592 1.40822 0
M  V30 7387 C 731.129 0.0386643 2.32568 0
M  V30 7388 C 732.123 -0.755653 1.51612 0
M  V30 7389 O 733.329 -0.659921 1.67467 0
M  V30 7390 H 729.704 -0.00629912 0.751974 0
M  V30 7391 H 731.675 0.8293 2.86645 0
M  V30 7392 C 730.424 -0.87496 3.36511 0
M  V30 7393 H 729.747 -0.273157 3.98866 0
M  V30 7394 H 731.187 -1.31111 4.03219 0
M  V30 7395 C 729.646 -1.99672 2.71353 0
M  V30 7396 O 730.176 -3.08676 2.57064 0
M  V30 7397 N 728.382 -1.77799 2.29861 0
M  V30 7398 H 727.929 -0.89147 2.41683 0
M  V30 7399 H 727.887 -2.53036 1.86601 0
M  V30 7400 N 731.66 -1.50943 0.453197 0
M  V30 7401 C 732.59 -2.31005 -0.34044 0
M  V30 7402 C 733.571 -1.37112 -1.00669 0
M  V30 7403 O 734.756 -1.66033 -1.0073 0
M  V30 7404 C 731.886 -3.16358 -1.433 0
M  V30 7405 C 730.84 -4.18658 -0.889363 0
M  V30 7406 C 730.166 -4.92633 -2.07887 0
M  V30 7407 C 731.466 -5.22227 0.0871142 0
M  V30 7408 H 733.16 -2.97601 0.327723 0
M  V30 7409 H 730.706 -1.43119 0.159054 0
M  V30 7410 H 732.659 -3.71155 -1.99555 0
M  V30 7411 H 731.383 -2.47613 -2.12968 0
M  V30 7412 H 730.042 -3.64936 -0.348915 0
M  V30 7413 H 729.69 -4.20376 -2.76211 0
M  V30 7414 H 729.39 -5.61819 -1.72143 0
M  V30 7415 H 730.914 -5.50258 -2.64666 0
M  V30 7416 H 732.328 -5.72001 -0.385656 0
M  V30 7417 H 730.725 -5.99032 0.357926 0
M  V30 7418 H 731.795 -4.74077 1.01879 0
M  V30 7419 N 733.138 -0.185124 -1.56509 0
M  V30 7420 C 734.415 0.503348 -1.89013 0
M  V30 7421 C 734.795 1.80349 -1.09715 0
M  V30 7422 O 734.143 2.27665 -0.195203 0
M  V30 7423 C 734.353 0.731839 -3.41241 0
M  V30 7424 C 735.701 1.05568 -4.11267 0
M  V30 7425 O 736.725 0.819906 -3.46635 0
M  V30 7426 O 735.584 1.50116 -5.25478 0
M  V30 7427 H 732.678 0.261139 -0.784688 0
M  V30 7428 H 735.224 -0.224592 -1.68207 0
M  V30 7429 H 733.996 -0.18672 -3.90854 0
M  V30 7430 H 733.619 1.5126 -3.67704 0
M  V30 7431 N 734.616 1.57351 0.0885366 0
M  V30 7432 C 735.563 2.02523 1.10693 0
M  V30 7433 C 736.533 0.902736 1.39427 0
M  V30 7434 O 737.718 1.16921 1.50779 0
M  V30 7435 C 734.858 2.46013 2.42016 0
M  V30 7436 C 733.971 3.7181 2.19957 0
M  V30 7437 C 733.106 4.04152 3.44724 0
M  V30 7438 C 732.145 5.2304 3.17956 0
M  V30 7439 N 731.282 5.51102 4.35007 0
M  V30 7440 H 736.122 2.89302 0.714742 0
M  V30 7441 H 733.659 1.43084 0.341378 0
M  V30 7442 H 735.617 2.69274 3.18665 0
M  V30 7443 H 734.247 1.62235 2.79069 0
M  V30 7444 H 733.299 3.55987 1.34079 0
M  V30 7445 H 734.611 4.58604 1.96173 0
M  V30 7446 H 733.765 4.28225 4.29777 0
M  V30 7447 H 732.504 3.15893 3.71568 0
M  V30 7448 H 731.509 4.98781 2.31296 0
M  V30 7449 H 732.734 6.12902 2.92451 0
M  V30 7450 H 730.68 4.65802 4.61914 0
M  V30 7451 H 730.597 6.3228 4.14437 0
M  V30 7452 H 731.865 5.79714 5.21106 0
M  V30 7453 N 736.094 -0.359525 1.53444 0
M  V30 7454 C 737.024 -1.44662 1.8329 0
M  V30 7455 C 738.005 -1.55617 0.68683 0
M  V30 7456 O 739.19 -1.70086 0.93725 0
M  V30 7457 C 736.32 -2.81923 2.02822 0
M  V30 7458 C 735.274 -2.85787 3.18606 0
M  V30 7459 C 734.6 -4.25781 3.23442 0
M  V30 7460 C 735.9 -2.52762 4.57065 0
M  V30 7461 H 737.594 -1.19934 2.74329 0
M  V30 7462 H 735.14 -0.575517 1.31999 0
M  V30 7463 H 737.093 -3.58005 2.22285 0
M  V30 7464 H 735.817 -3.08051 1.085 0
M  V30 7465 H 734.476 -2.12157 2.98973 0
M  V30 7466 H 734.124 -4.48994 2.26745 0
M  V30 7467 H 733.824 -4.29281 4.01238 0
M  V30 7468 H 735.348 -5.03727 3.45096 0
M  V30 7469 H 736.762 -3.18557 4.76649 0
M  V30 7470 H 735.159 -2.67569 5.37147 0
M  V30 7471 H 736.229 -1.47993 4.61764 0
M  V30 7472 N 737.572 -1.44907 -0.619662 0
M  V30 7473 C 738.988 -1.29046 -0.939107 0
M  V30 7474 C 739.188 -0.23462 -2.00129 0
M  V30 7475 O 738.244 0.37558 -2.49691 0
M  V30 7476 C 739.557 -2.66567 -1.39149 0
M  V30 7477 C 741.105 -2.74368 -1.50635 0
M  V30 7478 C 741.58 -4.12386 -1.99253 0
M  V30 7479 N 743.071 -4.1462 -2.06506 0
M  V30 7480 C 743.806 -5.18272 -2.4532 0
M  V30 7481 N 743.302 -6.32278 -2.83189 0
M  V30 7482 N 745.095 -5.05628 -2.45554 0
M  V30 7483 H 737.246 -2.12239 0.0826135 0
M  V30 7484 H 739.509 -0.947652 -0.0256829 0
M  V30 7485 H 739.215 -3.4496 -0.685254 0
M  V30 7486 H 739.089 -2.94224 -2.36034 0
M  V30 7487 H 741.476 -1.96287 -2.20353 0
M  V30 7488 H 741.557 -2.50439 -0.520963 0
M  V30 7489 H 741.201 -4.90947 -1.30127 0
M  V30 7490 H 741.131 -4.33699 -2.98684 0
M  V30 7491 H 743.622 -3.32343 -1.79878 0
M  V30 7492 H 743.935 -7.07172 -3.11652 0
M  V30 7493 H 742.28 -6.35699 -2.80913 0
M  V30 7494 H 745.471 -4.15613 -2.15367 0
M  V30 7495 H 745.644 -5.86529 -2.75478 0
M  V30 7496 N 739.05 0.861098 -1.31996 0
M  V30 7497 C 740.297 1.61481 -1.22188 0
M  V30 7498 C 740.625 1.93276 0.217853 0
M  V30 7499 O 739.88 1.56942 1.16909 0
M  V30 7500 C 740.179 2.94822 -2.02027 0
M  V30 7501 C 739.845 2.82483 -3.51446 0
M  V30 7502 C 738.507 2.78825 -3.92186 0
M  V30 7503 C 740.859 2.68878 -4.46491 0
M  V30 7504 C 738.187 2.59433 -5.26224 0
M  V30 7505 C 740.539 2.51022 -5.80664 0
M  V30 7506 C 739.203 2.45753 -6.20614 0
M  V30 7507 H 738.473 0.590902 -0.447119 0
M  V30 7508 H 741.12 0.999376 -1.63355 0
M  V30 7509 H 739.425 3.6045 -1.53569 0
M  V30 7510 H 741.122 3.52149 -1.91812 0
M  V30 7511 H 737.712 2.86152 -3.19085 0
M  V30 7512 H 741.896 2.70754 -4.1594 0
M  V30 7513 H 737.152 2.53784 -5.5624 0
M  V30 7514 H 741.326 2.39473 -6.53931 0
M  V30 7515 H 738.953 2.30485 -7.24417 0
M  V30 7516 N 740.528 1.15101 1.07655 0
M  V30 7517 C 741.491 0.847625 2.12951 0
M  V30 7518 C 742.491 -0.151227 1.60087 0
M  V30 7519 O 743.681 0.0780399 1.74025 0
M  V30 7520 C 740.813 0.265 3.39868 0
M  V30 7521 H 742.006 1.7809 2.41296 0
M  V30 7522 H 739.559 0.958072 1.23494 0
M  V30 7523 H 740.294 -0.676625 3.17163 0
M  V30 7524 H 740.079 0.984554 3.79538 0
M  V30 7525 H 741.569 0.0702121 4.17541 0
M  V30 7526 N 742.006 -1.2595 0.947325 0
M  V30 7527 C 743.283 -1.88676 0.515824 0
M  V30 7528 C 743.663 -1.85547 -1.00675 0
M  V30 7529 O 743.011 -1.31399 -1.8694 0
M  V30 7530 C 743.221 -3.31734 1.08415 0
M  V30 7531 C 744.569 -4.08545 1.15654 0
M  V30 7532 O 745.593 -3.40826 1.03517 0
M  V30 7533 O 744.452 -5.29663 1.34608 0
M  V30 7534 H 741.546 -0.809537 0.169055 0
M  V30 7535 H 744.092 -1.34075 1.04029 0
M  V30 7536 H 742.864 -3.28404 2.1276 0
M  V30 7537 H 742.487 -3.93882 0.542499 0
M  V30 7538 N 743.484 -0.715051 -1.40445 0
M  V30 7539 C 744.732 -0.253826 -2.005 0
M  V30 7540 C 745.053 1.15681 -1.5698 0
M  V30 7541 O 744.323 1.78414 -0.809027 0
M  V30 7542 H 742.903 -0.0908537 -0.741454 0
M  V30 7543 H 745.565 -0.920561 -1.7179 0
M  V30 7544 H 744.661 -0.286499 -3.10782 0
M  V30 7545 N 744.962 1.50701 -0.461195 0
M  V30 7546 C 746.187 2.07171 0.0974773 0
M  V30 7547 C 746.612 1.32391 1.3362 0
M  V30 7548 O 745.97 0.368676 1.77512 0
M  V30 7549 C 746.018 3.58651 0.374409 0
M  V30 7550 O 745.122 3.85816 1.4567 0
M  V30 7551 H 744.463 0.663944 -0.00862047 0
M  V30 7552 H 746.993 1.94021 -0.649394 0
M  V30 7553 H 747.003 4.03295 0.617843 0
M  V30 7554 H 745.678 4.12498 -0.530829 0
M  V30 7555 H 744.255 3.53018 1.20136 0
M  V30 7556 N 746.441 0.193421 1.56409 0
M  V30 7557 C 747.69 -0.445995 1.96707 0
M  V30 7558 C 748.003 -1.62876 1.08309 0
M  V30 7559 O 749.209 -2.33586 1.38383 0
M  V30 7560 C 747.665 -0.844863 3.49843 0
M  V30 7561 C 747.273 0.31352 4.46902 0
M  V30 7562 C 749.017 -1.45146 3.98915 0
M  V30 7563 C 746.924 -0.106214 5.91305 0
M  V30 7564 H 745.854 -0.170398 0.734493 0
M  V30 7565 H 748.505 0.285172 1.81271 0
M  V30 7566 H 746.887 -1.63265 3.60778 0
M  V30 7567 H 748.061 1.09103 4.47698 0
M  V30 7568 H 746.376 0.8315 4.08014 0
M  V30 7569 H 748.973 -1.77792 5.04276 0
M  V30 7570 H 749.316 -2.35734 3.43126 0
M  V30 7571 H 749.849 -0.727675 3.91088 0
M  V30 7572 H 746.588 0.765442 6.51016 0
M  V30 7573 H 746.108 -0.848623 5.93766 0
M  V30 7574 H 747.787 -0.542588 6.44721 0
M  V30 7575 N 747.919 -1.57396 -0.0801906 0
M  V30 7576 C 749.335 -1.53564 -0.434778 0
M  V30 7577 C 749.535 -0.912372 -1.79661 0
M  V30 7578 O 748.591 -0.511268 -2.4727 0
M  V30 7579 C 749.904 -2.98244 -0.383561 0
M  V30 7580 C 751.452 -3.09536 -0.46435 0
M  V30 7581 C 751.927 -4.55851 -0.443128 0
M  V30 7582 N 753.418 -4.60456 -0.503448 0
M  V30 7583 C 754.153 -5.71135 -0.509106 0
M  V30 7584 N 753.649 -6.91203 -0.47008 0
M  V30 7585 N 755.442 -5.59353 -0.555035 0
M  V30 7586 H 747.593 -1.96281 0.811635 0
M  V30 7587 H 749.856 -0.898041 0.303689 0
M  V30 7588 H 749.562 -3.47369 0.550236 0
M  V30 7589 H 749.436 -3.57705 -1.19694 0
M  V30 7590 H 751.823 -2.6039 -1.38857 0
M  V30 7591 H 751.904 -2.53 0.377445 0
M  V30 7592 H 751.548 -5.05653 0.477207 0
M  V30 7593 H 751.478 -5.10242 -1.30234 0
M  V30 7594 H 753.969 -3.74048 -0.538199 0
M  V30 7595 H 754.282 -7.7132 -0.478091 0
M  V30 7596 H 752.627 -6.93625 -0.436897 0
M  V30 7597 H 755.818 -4.64453 -0.583158 0
M  V30 7598 H 755.991 -6.4561 -0.555976 0
M  V30 7599 N 749.397 0.351382 -1.53633 0
M  V30 7600 C 750.625 1.11275 -1.74429 0
M  V30 7601 C 751.04 1.82602 -0.479798 0
M  V30 7602 O 750.397 1.74074 0.548125 0
M  V30 7603 C 750.448 2.13223 -2.91921 0
M  V30 7604 O 750.169 1.44798 -4.13479 0
M  V30 7605 C 751.67 3.01797 -3.24706 0
M  V30 7606 H 748.89 0.332153 -0.583023 0
M  V30 7607 H 751.434 0.405974 -2.0043 0
M  V30 7608 H 749.589 2.79477 -2.68274 0
M  V30 7609 H 750.003 2.12839 -4.79374 0
M  V30 7610 H 751.477 3.69282 -4.10286 0
M  V30 7611 H 751.954 3.67387 -2.40673 0
M  V30 7612 H 752.56 2.41141 -3.5033 0
M  V30 7613 N 750.875 1.45233 0.611969 0
M  V30 7614 C 752.1 1.52767 1.40274 0
M  V30 7615 C 752.525 0.159701 1.87421 0
M  V30 7616 O 751.883 -0.854837 1.59882 0
M  V30 7617 C 751.931 2.51286 2.58626 0
M  V30 7618 O 751.035 2.02764 3.59111 0
M  V30 7619 H 750.376 0.515141 0.418958 0
M  V30 7620 H 752.906 1.90547 0.745188 0
M  V30 7621 H 752.916 2.69949 3.05927 0
M  V30 7622 H 751.591 3.50641 2.23659 0
M  V30 7623 H 750.168 1.93957 3.18489 0
M  V30 7624 N 752.353 -0.854086 1.3245 0
M  V30 7625 C 753.263 -1.99503 1.23434 0
M  V30 7626 C 754.279 -1.73371 0.147828 0
M  V30 7627 O 755.455 -1.97998 0.368609 0
M  V30 7628 C 752.52 -3.33192 0.958328 0
M  V30 7629 C 751.581 -3.72542 2.13333 0
M  V30 7630 C 750.814 -4.99852 1.8704 0
M  V30 7631 O 751.037 -5.64573 0.813239 0
M  V30 7632 O 749.971 -5.36345 2.73161 0
M  V30 7633 H 753.797 -2.10046 2.1935 0
M  V30 7634 H 751.382 -0.984823 1.12346 0
M  V30 7635 H 753.264 -4.13327 0.820918 0
M  V30 7636 H 751.939 -3.23687 0.0293299 0
M  V30 7637 H 750.846 -2.92981 2.32622 0
M  V30 7638 H 752.179 -3.86694 3.04514 0
M  V30 7639 N 753.831 -1.1567 -1.07043 0
M  V30 7640 C 754.761 -0.879348 -2.16309 0
M  V30 7641 C 755.742 0.171311 -1.69235 0
M  V30 7642 O 756.927 0.0250175 -1.94184 0
M  V30 7643 C 754.057 -0.371307 -3.45309 0
M  V30 7644 C 753.011 -1.359 -4.05851 0
M  V30 7645 C 752.337 -0.709678 -5.29969 0
M  V30 7646 C 753.637 -2.72606 -4.45514 0
M  V30 7647 H 755.331 -1.79308 -2.39768 0
M  V30 7648 H 752.877 -0.863558 -1.15233 0
M  V30 7649 H 754.83 -0.164798 -4.21078 0
M  V30 7650 H 753.554 0.577906 -3.21446 0
M  V30 7651 H 752.213 -1.55193 -3.32131 0
M  V30 7652 H 751.861 0.245782 -5.02399 0
M  V30 7653 H 751.561 -1.36886 -5.71433 0
M  V30 7654 H 753.085 -0.513015 -6.08441 0
M  V30 7655 H 754.499 -2.57141 -5.12398 0
M  V30 7656 H 752.896 -3.34927 -4.97939 0
M  V30 7657 H 753.966 -3.28434 -3.56734 0
M  V30 7658 N 755.309 1.25446 -0.953992 0
M  V30 7659 C 756.725 1.4539 -0.658316 0
M  V30 7660 C 756.925 1.85607 0.784356 0
M  V30 7661 O 755.981 1.98568 1.55972 0
M  V30 7662 C 757.294 2.52643 -1.6307 0
M  V30 7663 C 758.842 2.66484 -1.64181 0
M  V30 7664 C 759.317 3.76921 -2.60182 0
M  V30 7665 N 760.808 3.84331 -2.58542 0
M  V30 7666 C 761.543 4.69271 -3.29503 0
M  V30 7667 N 761.039 5.58503 -4.09934 0
M  V30 7668 N 762.832 4.6323 -3.18393 0
M  V30 7669 H 754.983 0.976337 -1.8863 0
M  V30 7670 H 757.246 0.490343 -0.811337 0
M  V30 7671 H 756.952 2.29949 -2.66114 0
M  V30 7672 H 756.826 3.50547 -1.39271 0
M  V30 7673 H 759.213 2.88545 -0.618552 0
M  V30 7674 H 759.294 1.68982 -1.92038 0
M  V30 7675 H 758.938 3.55612 -3.62633 0
M  V30 7676 H 758.868 4.73906 -2.29609 0
M  V30 7677 H 761.359 3.20544 -2.0015 0
M  V30 7678 H 761.672 6.20241 -4.61 0
M  V30 7679 H 760.017 5.58214 -4.14032 0
M  V30 7680 H 763.208 3.92527 -2.5503 0
M  V30 7681 H 763.381 5.29204 -3.73961 0
M  V30 7682 N 756.787 0.722489 1.40064 0
M  V30 7683 C 757.717 0.0892452 2.33329 0
M  V30 7684 C 758.698 -0.737992 1.53257 0
M  V30 7685 O 759.883 -0.685516 1.81698 0
M  V30 7686 C 757.013 -0.828139 3.37282 0
M  V30 7687 C 755.967 -0.106005 4.27869 0
M  V30 7688 C 755.293 -1.13957 5.22415 0
M  V30 7689 C 756.593 1.04395 5.11761 0
M  V30 7690 H 758.287 0.868269 2.86534 0
M  V30 7691 H 755.833 0.418982 1.3777 0
M  V30 7692 H 757.786 -1.28058 4.01471 0
M  V30 7693 H 756.51 -1.63914 2.82489 0
M  V30 7694 H 755.169 0.326683 3.65142 0
M  V30 7695 H 754.817 -1.9438 4.63924 0
M  V30 7696 H 754.517 -0.661233 5.83868 0
M  V30 7697 H 756.041 -1.59197 5.89482 0
M  V30 7698 H 757.455 0.670541 5.69365 0
M  V30 7699 H 755.852 1.4511 5.82291 0
M  V30 7700 H 756.922 1.87144 4.47331 0
M  V30 7701 N 758.265 -1.50454 0.469181 0
M  V30 7702 C 759.49 -2.0722 -0.0864892 0
M  V30 7703 C 759.915 -1.33098 -1.32916 0
M  V30 7704 O 759.273 -0.378084 -1.77314 0
M  V30 7705 C 759.321 -3.58845 -0.355384 0
M  V30 7706 O 758.425 -3.86583 -1.43622 0
M  V30 7707 H 757.766 -0.663889 0.0121414 0
M  V30 7708 H 760.296 -1.93674 0.659674 0
M  V30 7709 H 760.306 -4.03617 -0.596447 0
M  V30 7710 H 758.981 -4.12211 0.552698 0
M  V30 7711 H 757.558 -3.5365 -1.18262 0
M  V30 7712 N 759.743 -0.201713 -1.56304 0
M  V30 7713 C 760.676 0.755976 -2.15314 0
M  V30 7714 C 761.654 1.20497 -1.09175 0
M  V30 7715 O 762.838 1.2913 -1.37323 0
M  V30 7716 C 759.965 2.02177 -2.71739 0
M  V30 7717 C 759.011 1.71436 -3.90528 0
M  V30 7718 S 759.844 0.856624 -5.28604 0
M  V30 7719 C 761 2.13242 -5.88455 0
M  V30 7720 H 761.233 0.254348 -2.9621 0
M  V30 7721 H 758.766 0.0133669 -1.54394 0
M  V30 7722 H 760.724 2.74867 -3.04891 0
M  V30 7723 H 759.385 2.49452 -1.90873 0
M  V30 7724 H 758.578 2.65433 -4.28441 0
M  V30 7725 H 758.18 1.06823 -3.5842 0
M  V30 7726 H 760.472 3.08435 -6.0322 0
M  V30 7727 H 761.415 1.7975 -6.84905 0
M  V30 7728 H 761.823 2.2639 -5.17115 0
M  V30 7729 N 761.222 1.57436 0.0718424 0
M  V30 7730 C 762.154 2.00412 1.1121 0
M  V30 7731 C 763.167 0.910074 1.34987 0
M  V30 7732 O 764.356 1.18796 1.33228 0
M  V30 7733 C 761.456 2.32786 2.46301 0
M  V30 7734 C 760.629 3.64036 2.4248 0
M  V30 7735 C 759.688 3.8408 3.59679 0
M  V30 7736 O 758.714 4.55667 3.4111 0
M  V30 7737 N 759.916 3.2643 4.80025 0
M  V30 7738 H 762.681 2.90264 0.746118 0
M  V30 7739 H 760.242 1.59791 0.260495 0
M  V30 7740 H 762.234 2.43368 3.23348 0
M  V30 7741 H 760.804 1.48824 2.74901 0
M  V30 7742 H 760.024 3.64208 1.50818 0
M  V30 7743 H 761.312 4.50217 2.37027 0
M  V30 7744 H 760.71 2.68325 4.98014 0
M  V30 7745 H 759.267 3.42461 5.54584 0
M  V30 7746 N 762.7 -0.34323 1.53817 0
M  V30 7747 C 763.647 -1.42153 1.81827 0
M  V30 7748 C 764.617 -1.52251 0.663996 0
M  V30 7749 O 765.802 -1.67784 0.908461 0
M  V30 7750 C 762.942 -2.78799 2.03384 0
M  V30 7751 C 762.055 -2.7749 3.31094 0
M  V30 7752 C 761.19 -4.05856 3.42717 0
M  V30 7753 C 760.229 -3.98776 4.64375 0
M  V30 7754 N 759.366 -5.18833 4.73029 0
M  V30 7755 H 764.206 -1.17567 2.73829 0
M  V30 7756 H 761.743 -0.569506 1.35628 0
M  V30 7757 H 763.701 -3.58211 2.13872 0
M  V30 7758 H 762.331 -3.01736 1.14696 0
M  V30 7759 H 761.383 -1.90182 3.29446 0
M  V30 7760 H 762.695 -2.68137 4.206 0
M  V30 7761 H 761.849 -4.93691 3.52638 0
M  V30 7762 H 760.588 -4.1799 2.51267 0
M  V30 7763 H 759.593 -3.09325 4.5453 0
M  V30 7764 H 760.818 -3.88224 5.57189 0
M  V30 7765 H 758.764 -5.31511 3.84489 0
M  V30 7766 H 758.681 -5.11737 5.56472 0
M  V30 7767 H 759.949 -6.08439 4.87261 0
M  V30 7768 N 764.178 -1.45556 -0.604258 0
M  V30 7769 C 765.403 -1.53509 -1.39462 0
M  V30 7770 C 765.828 -0.169638 -1.87333 0
M  V30 7771 O 765.186 0.846346 -1.60333 0
M  V30 7772 C 765.234 -2.52654 -2.5729 0
M  V30 7773 O 764.338 -2.04666 -3.5803 0
M  V30 7774 H 763.679 -0.517355 -0.416221 0
M  V30 7775 H 766.209 -1.90939 -0.735072 0
M  V30 7776 H 766.219 -2.71568 -3.04491 0
M  V30 7777 H 764.894 -3.51823 -2.21797 0
M  V30 7778 H 763.471 -1.95643 -3.17456 0
M  V30 7779 N 765.656 0.84705 -1.32902 0
M  V30 7780 C 766.589 1.96038 -1.1681 0
M  V30 7781 C 767.567 1.62468 -0.0656144 0
M  V30 7782 O 768.751 1.87136 -0.226339 0
M  V30 7783 C 765.878 3.29362 -0.789839 0
M  V30 7784 C 764.924 3.81908 -1.89865 0
M  V30 7785 S 765.757 4.04576 -3.50826 0
M  V30 7786 C 766.913 5.40863 -3.14989 0
M  V30 7787 H 767.146 2.09387 -2.11055 0
M  V30 7788 H 764.679 0.999896 -1.1765 0
M  V30 7789 H 766.637 4.06405 -0.578369 0
M  V30 7790 H 765.298 3.13815 0.133878 0
M  V30 7791 H 764.491 4.78357 -1.58716 0
M  V30 7792 H 764.093 3.11733 -2.06636 0
M  V30 7793 H 766.385 6.23393 -2.65306 0
M  V30 7794 H 767.328 5.7698 -4.10488 0
M  V30 7795 H 767.736 5.05228 -2.51804 0
M  V30 7796 N 767.134 1.16236 1.06428 0
M  V30 7797 C 768.066 0.825446 2.1382 0
M  V30 7798 C 769.079 -0.166707 1.61944 0
M  V30 7799 O 770.268 0.0578606 1.78406 0
M  V30 7800 C 767.368 0.208023 3.38261 0
M  V30 7801 C 766.541 1.23994 4.19457 0
M  V30 7802 C 765.6 0.642569 5.22262 0
M  V30 7803 O 764.626 1.31106 5.53895 0
M  V30 7804 N 765.828 -0.571327 5.77682 0
M  V30 7805 H 768.593 1.7497 2.43322 0
M  V30 7806 H 766.154 1.05951 1.22417 0
M  V30 7807 H 768.146 -0.204608 4.04182 0
M  V30 7808 H 766.716 -0.619752 3.06395 0
M  V30 7809 H 765.936 1.82879 3.49212 0
M  V30 7810 H 767.224 1.93638 4.70512 0
M  V30 7811 H 766.622 -1.13263 5.54245 0
M  V30 7812 H 765.179 -0.926187 6.45186 0
M  V30 7813 N 768.612 -1.24939 0.960631 0
M  V30 7814 C 769.56 -2.27659 0.47686 0
M  V30 7815 C 770.554 -1.63148 -0.455961 0
M  V30 7816 O 771.76 -1.76911 -0.332029 0
M  V30 7817 H 768.135 -0.739651 0.135723 0
M  V30 7818 H 770.106 -2.65844 1.35534 0
M  V30 7819 C 768.855 -3.46976 -0.224191 0
M  V30 7820 H 768.178 -3.96854 0.484471 0
M  V30 7821 H 769.618 -4.20717 -0.526615 0
M  V30 7822 C 768.077 -3.04159 -1.44876 0
M  V30 7823 O 768.607 -3.10697 -2.54618 0
M  V30 7824 N 766.813 -2.59284 -1.31226 0
M  V30 7825 H 766.36 -2.54164 -0.419361 0
M  V30 7826 H 766.318 -2.31 -2.13275 0
M  V30 7827 N 770.09 -0.729906 -1.39679 0
M  V30 7828 C 771.04 -0.0627678 -2.27914 0
M  V30 7829 C 772.024 0.717867 -1.43998 0
M  V30 7830 O 773.216 0.587713 -1.66958 0
M  V30 7831 C 770.345 0.847564 -3.32673 0
M  V30 7832 C 769.431 0.0613515 -4.24056 0
M  V30 7833 N 769.822 -0.962863 -4.96551 0
M  V30 7834 C 768.12 0.291773 -4.45045 0
M  V30 7835 C 768.821 -1.43652 -5.63683 0
M  V30 7836 N 767.797 -0.756044 -5.38317 0
M  V30 7837 H 771.599 -0.847545 -2.81414 0
M  V30 7838 H 769.113 -0.563776 -1.523 0
M  V30 7839 H 771.11 1.34094 -3.94746 0
M  V30 7840 H 769.77 1.63156 -2.80732 0
M  V30 7841 H 770.781 -1.34409 -5.00154 0
M  V30 7842 H 767.458 1.05097 -4.04056 0
M  V30 7843 H 768.848 -2.28835 -6.31731 0
M  V30 7844 N 771.568 1.50203 -0.477153 0
M  V30 7845 C 772.531 2.27194 0.302599 0
M  V30 7846 C 773.531 1.32221 0.915112 0
M  V30 7847 O 774.721 1.55593 0.783348 0
M  V30 7848 C 771.853 3.0938 1.43167 0
M  V30 7849 H 773.046 2.97575 -0.372678 0
M  V30 7850 H 770.599 1.54578 -0.231392 0
M  V30 7851 H 771.334 2.43509 2.14182 0
M  V30 7852 H 771.119 3.79181 0.998197 0
M  V30 7853 H 772.609 3.67592 1.98157 0
M  V30 7854 N 773.046 0.209999 1.56195 0
M  V30 7855 C 774.009 -0.691232 2.18528 0
M  V30 7856 C 775.009 -1.13013 1.14388 0
M  V30 7857 O 776.199 -1.04081 1.39688 0
M  V30 7858 C 773.331 -1.94551 2.79934 0
M  V30 7859 H 774.524 -0.147953 2.99535 0
M  V30 7860 H 772.077 -0.0396243 1.5625 0
M  V30 7861 H 772.812 -2.53094 2.02766 0
M  V30 7862 H 772.597 -1.63938 3.56184 0
M  V30 7863 H 774.087 -2.58785 3.2775 0
M  V30 7864 N 774.524 -1.57472 -0.0634922 0
M  V30 7865 C 775.77 -1.87932 -0.762194 0
M  V30 7866 C 776.103 -0.803377 -1.76804 0
M  V30 7867 O 775.378 0.185468 -1.93614 0
M  V30 7868 C 775.661 -3.29053 -1.46275 0
M  V30 7869 C 775.514 -4.47309 -0.472755 0
M  V30 7870 C 776.833 -3.68537 -2.40558 0
M  V30 7871 H 773.952 -0.683521 -0.275624 0
M  V30 7872 H 776.594 -1.89983 -0.0252651 0
M  V30 7873 H 774.744 -3.27435 -2.0909 0
M  V30 7874 H 776.416 -4.61053 0.150828 0
M  V30 7875 H 774.659 -4.33286 0.211187 0
M  V30 7876 H 775.33 -5.42853 -1.00072 0
M  V30 7877 H 777.806 -3.71302 -1.87814 0
M  V30 7878 H 776.682 -4.68152 -2.86574 0
M  V30 7879 H 776.943 -2.98917 -3.25731 0
M  V30 7880 N 776.003 0.335068 -1.53997 0
M  V30 7881 C 777.25 1.07435 -1.71651 0
M  V30 7882 C 777.578 1.88378 -0.48413 0
M  V30 7883 O 776.833 1.8827 0.534139 0
M  V30 7884 C 777.132 2.0364 -2.9371 0
M  V30 7885 C 776.798 1.38942 -4.28959 0
M  V30 7886 C 775.46 1.21027 -4.65732 0
M  V30 7887 C 777.812 0.924083 -5.12943 0
M  V30 7888 C 775.14 0.552097 -5.84097 0
M  V30 7889 C 777.492 0.27978 -6.31981 0
M  V30 7890 C 776.156 0.0883843 -6.67441 0
M  V30 7891 H 775.426 0.393133 -0.628114 0
M  V30 7892 H 778.073 0.352712 -1.88224 0
M  V30 7893 H 776.378 2.82215 -2.71775 0
M  V30 7894 H 778.075 2.6085 -3.04562 0
M  V30 7895 H 774.665 1.53885 -4.00022 0
M  V30 7896 H 778.849 1.05032 -4.85059 0
M  V30 7897 H 774.105 0.392502 -6.10139 0
M  V30 7898 H 778.279 -0.0888479 -6.96343 0
M  V30 7899 H 775.906 -0.423657 -7.59019 0
M  V30 7900 N 777.481 1.45874 0.596531 0
M  V30 7901 C 778.897 1.30524 0.918459 0
M  V30 7902 C 779.097 0.266429 1.99731 0
M  V30 7903 O 778.153 -0.335809 2.50257 0
M  V30 7904 C 779.466 2.68747 1.3489 0
M  V30 7905 C 781.014 2.7673 1.46251 0
M  V30 7906 C 781.489 4.15504 1.92667 0
M  V30 7907 N 782.98 4.17853 1.99883 0
M  V30 7908 C 783.715 5.22109 2.37044 0
M  V30 7909 N 783.211 6.36704 2.73094 0
M  V30 7910 N 785.004 5.09471 2.37479 0
M  V30 7911 H 777.155 2.12081 -0.116368 0
M  V30 7912 H 779.418 0.947941 0.0106033 0
M  V30 7913 H 779.124 3.46006 0.630288 0
M  V30 7914 H 778.998 2.97942 2.31323 0
M  V30 7915 H 781.385 1.99768 2.17202 0
M  V30 7916 H 781.466 2.51236 0.481054 0
M  V30 7917 H 781.11 4.92956 1.223 0
M  V30 7918 H 781.04 4.38396 2.91747 0
M  V30 7919 H 783.531 3.35163 1.74568 0
M  V30 7920 H 783.844 7.12041 3.00362 0
M  V30 7921 H 782.189 6.40087 2.70764 0
M  V30 7922 H 785.38 4.18987 2.08728 0
M  V30 7923 H 785.553 5.90837 2.66112 0
M  V30 7924 N 778.959 -0.83999 1.33349 0
M  V30 7925 C 780.205 -1.59753 1.24927 0
M  V30 7926 C 780.538 -1.93318 -0.184855 0
M  V30 7927 O 779.813 -1.586 -1.12589 0
M  V30 7928 C 780.096 -2.90829 2.12345 0
M  V30 7929 C 779.949 -2.63953 3.6421 0
M  V30 7930 C 781.268 -3.92246 1.99577 0
M  V30 7931 H 778.387 -0.579654 0.45516 0
M  V30 7932 H 781.029 -0.968909 1.63439 0
M  V30 7933 H 779.179 -3.44478 1.79631 0
M  V30 7934 H 780.851 -2.16745 4.07209 0
M  V30 7935 H 779.094 -1.97671 3.86146 0
M  V30 7936 H 779.765 -3.57348 4.20721 0
M  V30 7937 H 782.241 -3.479 2.28265 0
M  V30 7938 H 781.117 -4.81793 2.62996 0
M  V30 7939 H 781.378 -4.3138 0.967673 0
M  V30 7940 N 780.437 -1.16799 -1.0581 0
M  V30 7941 C 781.685 -0.950642 -1.78346 0
M  V30 7942 C 782.006 0.522524 -1.87869 0
M  V30 7943 O 781.276 1.3795 -1.39092 0
M  V30 7944 H 779.856 -0.348736 -0.6606 0
M  V30 7945 H 782.518 -1.47158 -1.27791 0
M  V30 7946 H 781.614 -1.37359 -2.80248 0
M  V30 7947 N 781.915 1.24427 -0.967243 0
M  V30 7948 C 783.14 1.9708 -0.646069 0
M  V30 7949 C 783.565 1.71272 0.777665 0
M  V30 7950 O 782.923 0.976179 1.52776 0
M  V30 7951 C 782.971 3.48501 -0.926266 0
M  V30 7952 O 782.075 4.12398 -0.0114653 0
M  V30 7953 H 781.416 0.617423 -0.244304 0
M  V30 7954 H 783.946 1.58215 -1.29727 0
M  V30 7955 H 783.956 3.98885 -0.857619 0
M  V30 7956 H 782.631 3.66613 -1.96386 0
M  V30 7957 H 781.208 3.72661 -0.133396 0
M  V30 7958 N 783.393 0.737304 1.3929 0
M  V30 7959 C 784.639 0.286681 2.00763 0
M  V30 7960 C 784.972 -1.12388 1.58375 0
M  V30 7961 O 784.247 -1.76661 0.813699 0
M  V30 7962 C 784.53 0.391147 3.57969 0
M  V30 7963 C 784.383 1.84165 4.1037 0
M  V30 7964 C 785.702 -0.225072 4.39524 0
M  V30 7965 H 782.821 0.105642 0.729389 0
M  V30 7966 H 785.463 0.933892 1.65464 0
M  V30 7967 H 783.613 -0.159875 3.88171 0
M  V30 7968 H 785.285 2.44972 3.90879 0
M  V30 7969 H 783.528 2.3622 3.63844 0
M  V30 7970 H 784.199 1.866 5.19504 0
M  V30 7971 H 786.675 0.244677 4.1538 0
M  V30 7972 H 785.551 -0.121646 5.48765 0
M  V30 7973 H 785.812 -1.31141 4.22202 0
M  V30 7974 N 784.871 -1.49948 0.485112 0
M  V30 7975 C 785.801 -2.31675 -0.291364 0
M  V30 7976 C 786.782 -1.39216 -0.977383 0
M  V30 7977 O 787.967 -1.68133 -0.971855 0
M  V30 7978 C 785.097 -3.19326 -1.36558 0
M  V30 7979 C 784.051 -4.2045 -0.800359 0
M  V30 7980 C 783.377 -4.96931 -1.97391 0
M  V30 7981 C 784.677 -5.21925 0.197867 0
M  V30 7982 H 786.371 -2.96839 0.390775 0
M  V30 7983 H 783.917 -1.42749 0.189375 0
M  V30 7984 H 785.87 -3.75304 -1.91638 0
M  V30 7985 H 784.594 -2.52074 -2.07668 0
M  V30 7986 H 783.253 -3.65594 -0.271428 0
M  V30 7987 H 782.901 -4.26141 -2.67232 0
M  V30 7988 H 782.601 -5.65344 -1.60187 0
M  V30 7989 H 784.125 -5.55749 -2.52935 0
M  V30 7990 H 785.539 -5.72691 -0.264239 0
M  V30 7991 H 783.936 -5.98138 0.484908 0
M  V30 7992 H 785.006 -4.71809 1.11912 0
M  V30 7993 N 786.349 -0.21828 -1.56081 0
M  V30 7994 C 787.281 0.725447 -2.17416 0
M  V30 7995 C 788.294 1.15995 -1.14233 0
M  V30 7996 O 789.483 1.09166 -1.41227 0
M  V30 7997 C 786.583 1.99401 -2.7403 0
M  V30 7998 C 785.756 1.7156 -4.02351 0
M  V30 7999 C 784.815 2.8309 -4.43561 0
M  V30 8000 O 783.841 2.51701 -5.10525 0
M  V30 8001 N 785.043 4.11972 -4.08973 0
M  V30 8002 H 787.808 0.200801 -2.99027 0
M  V30 8003 H 785.369 -0.0371514 -1.61857 0
M  V30 8004 H 787.361 2.73198 -2.98571 0
M  V30 8005 H 785.931 2.42923 -1.96742 0
M  V30 8006 H 785.151 0.814233 -3.85699 0
M  V30 8007 H 786.439 1.50385 -4.86068 0
M  V30 8008 H 785.837 4.40319 -3.55156 0
M  V30 8009 H 784.394 4.82323 -4.38415 0
M  V30 8010 N 787.827 1.57504 0.0551401 0
M  V30 8011 C 788.737 2.08198 1.08124 0
M  V30 8012 C 789.753 1.01496 1.41331 0
M  V30 8013 O 790.929 1.33073 1.51174 0
M  V30 8014 C 787.994 2.52968 2.37083 0
M  V30 8015 C 787.055 3.7404 2.10696 0
M  V30 8016 C 786.288 4.16665 3.33505 0
M  V30 8017 O 786.511 3.59019 4.4324 0
M  V30 8018 O 785.445 5.09324 3.20737 0
M  V30 8019 H 789.271 2.95977 0.680518 0
M  V30 8020 H 786.856 1.46933 0.270401 0
M  V30 8021 H 788.738 2.82211 3.12946 0
M  V30 8022 H 787.413 1.6831 2.76502 0
M  V30 8023 H 786.32 3.49855 1.32484 0
M  V30 8024 H 787.653 4.59601 1.76148 0
M  V30 8025 N 789.305 -0.326896 1.54172 0
M  V30 8026 C 790.553 -1.06313 1.71878 0
M  V30 8027 C 790.874 -1.88652 0.493498 0
M  V30 8028 O 790.144 -1.89608 -0.492522 0
M  V30 8029 H 788.724 -0.39549 0.633716 0
M  V30 8030 H 791.386 -0.364139 1.91468 0
M  V30 8031 H 790.482 -1.73105 2.59694 0
M  V30 8032 N 790.784 -1.46188 -0.588786 0
M  V30 8033 C 792.024 -1.52738 -1.35833 0
M  V30 8034 C 792.388 -0.172403 -1.91224 0
M  V30 8035 O 793.589 -0.112633 -2.68564 0
M  V30 8036 C 791.86 -2.59085 -2.4619 0
M  V30 8037 S 793.419 -2.84997 -3.3365 0
M  V30 8038 H 790.237 -0.539713 -0.462851 0
M  V30 8039 H 792.839 -1.83386 -0.677489 0
M  V30 8040 H 791.543 -3.56177 -2.03878 0
M  V30 8041 H 791.074 -2.3015 -3.19053 0
M  V30 8042 H 793.089 -2.19804 -4.4486 0
M  V30 8043 N 792.262 0.832906 -1.33792 0
M  V30 8044 C 793.51 1.58539 -1.25338 0
M  V30 8045 C 793.831 1.94175 0.179204 0
M  V30 8046 O 793.101 1.61458 1.10941 0
M  V30 8047 H 791.681 0.58784 -0.460926 0
M  V30 8048 H 794.343 0.995064 -1.67584 0
M  V30 8049 H 793.439 2.51268 -1.85123 0
M  V30 8050 N 793.74 1.17359 1.05189 0
M  V30 8051 C 794.687 0.890325 2.12936 0
M  V30 8052 C 795.657 -0.165779 1.65271 0
M  V30 8053 O 796.842 -0.0285672 1.90779 0
M  V30 8054 C 793.982 0.409793 3.42658 0
M  V30 8055 C 793.095 1.53002 4.03998 0
M  V30 8056 C 792.23 1.00336 5.21638 0
M  V30 8057 C 791.269 2.09903 5.74984 0
M  V30 8058 N 790.406 1.58714 6.83926 0
M  V30 8059 H 795.246 1.81299 2.36505 0
M  V30 8060 H 792.783 0.904249 1.16025 0
M  V30 8061 H 794.741 0.112743 4.17048 0
M  V30 8062 H 793.371 -0.475915 3.19272 0
M  V30 8063 H 792.423 1.9428 3.27047 0
M  V30 8064 H 793.735 2.3564 4.39631 0
M  V30 8065 H 792.889 0.660158 6.03098 0
M  V30 8066 H 791.628 0.14642 4.8748 0
M  V30 8067 H 790.633 2.45081 4.92154 0
M  V30 8068 H 791.858 2.96013 6.1119 0
M  V30 8069 H 789.804 0.752915 6.51665 0
M  V30 8070 H 789.721 2.34959 7.18561 0
M  V30 8071 H 790.989 1.27287 7.69037 0
M  V30 8072 N 795.218 -1.23913 0.973828 0
M  V30 8073 C 796.467 -1.91455 0.63464 0
M  V30 8074 C 796.78 -1.76893 -0.834759 0
M  V30 8075 O 797.986 -2.3918 -1.28473 0
M  V30 8076 C 796.442 -3.43172 1.08447 0
M  V30 8077 C 796.05 -3.66409 2.57776 0
M  V30 8078 C 797.794 -4.1653 0.818721 0
M  V30 8079 C 795.701 -5.11728 2.9646 0
M  V30 8080 H 794.631 -0.716881 0.233661 0
M  V30 8081 H 797.282 -1.40457 1.18085 0
M  V30 8082 H 795.664 -3.93242 0.466524 0
M  V30 8083 H 796.838 -3.26913 3.24753 0
M  V30 8084 H 795.153 -3.06349 2.82027 0
M  V30 8085 H 797.75 -5.23603 1.08367 0
M  V30 8086 H 798.093 -4.15578 -0.245128 0
M  V30 8087 H 798.626 -3.72428 1.39793 0
M  V30 8088 H 795.365 -5.17806 4.01941 0
M  V30 8089 H 794.885 -5.52199 2.34172 0
M  V30 8090 H 796.564 -5.80009 2.86703 0
M  V30 8091 N 796.696 -0.74468 -1.38897 0
M  V30 8092 C 797.921 -0.306119 -2.05128 0
M  V30 8093 C 798.346 1.0541 -1.55789 0
M  V30 8094 O 797.704 1.66993 -0.705909 0
M  V30 8095 C 797.752 -0.328195 -3.59103 0
M  V30 8096 O 796.856 0.680876 -4.06741 0
M  V30 8097 H 796.197 -0.137209 -0.649669 0
M  V30 8098 H 798.727 -1.01331 -1.77745 0
M  V30 8099 H 798.737 -0.175956 -4.0762 0
M  V30 8100 H 797.412 -1.32067 -3.94374 0
M  V30 8101 H 795.989 0.49398 -3.69614 0
M  V30 8102 N 798.174 1.49689 -0.493057 0
M  V30 8103 C 799.121 2.28976 0.28959 0
M  V30 8104 C 800.091 1.35011 0.967536 0
M  V30 8105 O 801.276 1.63964 0.975736 0
M  V30 8106 C 798.416 3.1748 1.35279 0
M  V30 8107 C 797.529 4.26496 0.687418 0
M  V30 8108 C 796.664 5.02226 1.73038 0
M  V30 8109 C 795.703 6.03089 1.04645 0
M  V30 8110 N 794.84 6.72014 2.03325 0
M  V30 8111 H 799.68 2.954 -0.392798 0
M  V30 8112 H 797.217 1.45657 -0.205554 0
M  V30 8113 H 799.175 3.67162 1.98111 0
M  V30 8114 H 797.805 2.53057 2.00405 0
M  V30 8115 H 796.857 3.80362 -0.0540001 0
M  V30 8116 H 798.169 4.98578 0.14864 0
M  V30 8117 H 797.323 5.55737 2.43395 0
M  V30 8118 H 796.062 4.29899 2.303 0
M  V30 8119 H 795.067 5.48817 0.328606 0
M  V30 8120 H 796.292 6.77398 0.480428 0
M  V30 8121 H 794.238 6.02464 2.59564 0
M  V30 8122 H 794.155 7.40046 1.54492 0
M  V30 8123 H 795.423 7.30133 2.72995 0
M  V30 8124 N 799.652 0.226554 1.55963 0
M  V30 8125 C 800.582 -0.676079 2.23498 0
M  V30 8126 C 801.563 -1.19718 1.20837 0
M  V30 8127 O 802.748 -1.24027 1.49436 0
M  V30 8128 C 799.878 -1.88217 2.91876 0
M  V30 8129 C 798.832 -1.4947 4.01052 0
M  V30 8130 C 798.158 -2.77997 4.56751 0
M  V30 8131 C 799.458 -0.680951 5.17842 0
M  V30 8132 H 801.152 -0.112989 2.99187 0
M  V30 8133 H 798.698 -0.0529046 1.43903 0
M  V30 8134 H 800.651 -2.51911 3.37815 0
M  V30 8135 H 799.375 -2.47031 2.13643 0
M  V30 8136 H 798.034 -0.881199 3.55852 0
M  V30 8137 H 797.682 -3.34966 3.75243 0
M  V30 8138 H 797.382 -2.52803 5.30438 0
M  V30 8139 H 798.906 -3.42625 5.05411 0
M  V30 8140 H 800.32 -1.22171 5.60131 0
M  V30 8141 H 798.717 -0.525898 5.97791 0
M  V30 8142 H 799.787 0.311346 4.83899 0
M  V30 8143 N 801.13 -1.57531 -0.0467866 0
M  V30 8144 C 802.36 -1.92417 -0.752279 0
M  V30 8145 C 802.768 -0.823134 -1.70356 0
M  V30 8146 O 802.111 0.210598 -1.82489 0
M  V30 8147 C 802.173 -3.22974 -1.57887 0
M  V30 8148 C 801.837 -4.50045 -0.794285 0
M  V30 8149 C 802.834 -5.19799 -0.102368 0
M  V30 8150 C 800.519 -4.96608 -0.754061 0
M  V30 8151 C 802.513 -6.34385 0.619267 0
M  V30 8152 C 800.2 -6.11093 -0.0286682 0
M  V30 8153 C 801.198 -6.79835 0.656772 0
M  V30 8154 O 800.886 -7.92133 1.37042 0
M  V30 8155 H 800.618 -0.640029 -0.217576 0
M  V30 8156 H 803.172 -2.05395 -0.0137438 0
M  V30 8157 H 801.402 -3.06273 -2.3608 0
M  V30 8158 H 803.091 -3.43319 -2.16533 0
M  V30 8159 H 803.857 -4.8484 -0.124589 0
M  V30 8160 H 799.736 -4.42958 -1.27706 0
M  V30 8161 H 803.28 -6.87975 1.15483 0
M  V30 8162 H 799.177 -6.455 -0.00446214 0
M  V30 8163 H 799.945 -8.08394 1.28227 0
M  V30 8164 N 802.608 0.318715 -1.54344 0
M  V30 8165 C 803.856 1.054 -1.72439 0
M  V30 8166 C 804.177 1.88388 -0.503495 0
M  V30 8167 O 803.447 1.89866 0.48246 0
M  V30 8168 H 802.027 0.392124 -0.635805 0
M  V30 8169 H 804.689 0.35398 -1.91659 0
M  V30 8170 H 803.785 1.71726 -2.60608 0
M  V30 8171 N 804.086 1.46499 0.581025 0
M  V30 8172 C 805.363 1.42372 1.34125 0
M  V30 8173 C 805.743 0.108073 2.10823 0
M  V30 8174 O 805.091 -0.910366 2.09582 0
M  V30 8175 C 805.301 2.65445 2.26583 0
M  V30 8176 C 806.649 3.11664 2.88359 0
M  V30 8177 O 807.673 2.66006 2.36896 0
M  V30 8178 O 806.532 3.90974 3.81839 0
M  V30 8179 H 803.626 0.566262 0.602724 0
M  V30 8180 H 806.172 1.58667 0.601903 0
M  V30 8181 H 804.944 3.52756 1.69348 0
M  V30 8182 H 804.567 2.51618 3.07854 0
M  V30 8183 N 805.565 -0.825799 1.34232 0
M  V30 8184 C 806.495 -1.95151 1.28212 0
M  V30 8185 C 807.476 -1.69345 0.160123 0
M  V30 8186 O 808.661 -1.90983 0.352019 0
M  V30 8187 C 805.791 -3.31554 1.03388 0
M  V30 8188 C 804.745 -3.71793 2.12023 0
M  V30 8189 C 804.071 -5.06147 1.72392 0
M  V30 8190 C 805.371 -3.84193 3.53826 0
M  V30 8191 H 807.065 -2.00445 2.22401 0
M  V30 8192 H 804.611 -0.962996 1.07063 0
M  V30 8193 H 806.564 -4.09889 0.978225 0
M  V30 8194 H 805.288 -3.26551 0.0564142 0
M  V30 8195 H 803.947 -2.95731 2.16654 0
M  V30 8196 H 803.595 -4.97628 0.733137 0
M  V30 8197 H 803.295 -5.34041 2.451 0
M  V30 8198 H 804.819 -5.86943 1.68317 0
M  V30 8199 H 806.233 -4.52806 3.51624 0
M  V30 8200 H 804.63 -4.23538 4.2513 0
M  V30 8201 H 805.7 -2.86272 3.91377 0
M  V30 8202 N 807.043 -1.17915 -1.04565 0
M  V30 8203 C 807.99 -0.901605 -2.12461 0
M  V30 8204 C 808.96 0.157011 -1.65356 0
M  V30 8205 O 810.145 0.0184494 -1.90791 0
M  V30 8206 C 807.285 -0.42796 -3.42436 0
M  V30 8207 C 806.398 -1.55142 -4.03181 0
M  V30 8208 C 805.533 -1.03101 -5.21098 0
M  V30 8209 C 804.572 -2.1295 -5.73863 0
M  V30 8210 N 803.709 -1.62339 -6.83074 0
M  V30 8211 H 808.549 -1.82551 -2.3554 0
M  V30 8212 H 806.086 -0.910389 -1.15544 0
M  V30 8213 H 808.044 -0.134859 -4.16982 0
M  V30 8214 H 806.674 0.458977 -3.1952 0
M  V30 8215 H 805.726 -1.96011 -3.26012 0
M  V30 8216 H 807.038 -2.37968 -4.38375 0
M  V30 8217 H 806.192 -0.692132 -6.02739 0
M  V30 8218 H 804.931 -0.17227 -4.87396 0
M  V30 8219 H 803.936 -2.47687 -4.90847 0
M  V30 8220 H 805.161 -2.9925 -6.09611 0
M  V30 8221 H 803.107 -0.787464 -6.51256 0
M  V30 8222 H 803.024 -2.38767 -7.17305 0
M  V30 8223 H 804.292 -1.31363 -7.68351 0
M  V30 8224 N 808.521 1.23394 -0.980386 0
M  V30 8225 C 809.471 2.22634 -0.491747 0
M  V30 8226 C 810.455 1.54958 0.433222 0
M  V30 8227 O 811.647 1.75049 0.262078 0
M  V30 8228 C 808.776 3.4269 0.204531 0
M  V30 8229 C 807.862 4.17594 -0.740007 0
M  V30 8230 N 808.253 4.69458 -1.88263 0
M  V30 8231 C 806.551 4.42554 -0.553335 0
M  V30 8232 C 807.252 5.26446 -2.47446 0
M  V30 8233 N 806.228 5.14377 -1.75834 0
M  V30 8234 H 810.03 2.60363 -1.36339 0
M  V30 8235 H 807.544 1.38924 -0.841059 0
M  V30 8236 H 809.541 4.12959 0.571901 0
M  V30 8237 H 808.201 3.06477 1.07246 0
M  V30 8238 H 809.212 4.65803 -2.26381 0
M  V30 8239 H 805.889 4.16629 0.269573 0
M  V30 8240 H 807.279 5.77195 -3.43941 0
M  V30 8241 N 809.999 0.752036 1.385 0
M  V30 8242 C 810.929 0.138718 2.33088 0
M  V30 8243 C 811.91 -0.705318 1.54788 0
M  V30 8244 O 813.095 -0.646821 1.83112 0
M  V30 8245 C 810.225 -0.75641 3.38963 0
M  V30 8246 C 809.179 -0.0152239 4.27997 0
M  V30 8247 C 808.505 -1.0285 5.24715 0
M  V30 8248 C 809.805 1.15226 5.09431 0
M  V30 8249 H 811.499 0.928852 2.84627 0
M  V30 8250 H 809.045 0.448111 1.3685 0
M  V30 8251 H 810.998 -1.19513 4.04097 0
M  V30 8252 H 809.722 -1.57885 2.85902 0
M  V30 8253 H 808.381 0.404061 3.64366 0
M  V30 8254 H 808.029 -1.84496 4.67943 0
M  V30 8255 H 807.729 -0.537238 5.85139 0
M  V30 8256 H 809.253 -1.46657 5.92726 0
M  V30 8257 H 810.667 0.791161 5.67815 0
M  V30 8258 H 809.064 1.57428 5.79082 0
M  V30 8259 H 810.134 1.9659 4.43261 0
M  V30 8260 N 811.477 -1.49425 0.500989 0
M  V30 8261 C 812.424 -2.29126 -0.277443 0
M  V30 8262 C 813.394 -1.35522 -0.960363 0
M  V30 8263 O 814.579 -1.64479 -0.967027 0
M  V30 8264 C 811.719 -3.18193 -1.33593 0
M  V30 8265 C 810.832 -4.26854 -0.664791 0
M  V30 8266 C 809.967 -5.03137 -1.70372 0
M  V30 8267 C 809.006 -6.03635 -1.01445 0
M  V30 8268 N 808.143 -6.73083 -1.99758 0
M  V30 8269 H 812.983 -2.95187 0.408458 0
M  V30 8270 H 810.52 -1.45546 0.213275 0
M  V30 8271 H 812.478 -3.68207 -1.96161 0
M  V30 8272 H 811.108 -2.54116 -1.9906 0
M  V30 8273 H 810.16 -3.80328 0.0741708 0
M  V30 8274 H 811.472 -4.9865 -0.122197 0
M  V30 8275 H 810.626 -5.5702 -2.40445 0
M  V30 8276 H 809.365 -4.31114 -2.28017 0
M  V30 8277 H 808.37 -5.48984 -0.299496 0
M  V30 8278 H 809.595 -6.77644 -0.444497 0
M  V30 8279 H 807.541 -6.03832 -2.56365 0
M  V30 8280 H 807.458 -7.40855 -1.50565 0
M  V30 8281 H 808.726 -7.3157 -2.69119 0
M  V30 8282 N 812.955 -0.234822 -1.55841 0
M  V30 8283 C 814.183 0.397745 -2.03041 0
M  V30 8284 C 814.598 1.52405 -1.11437 0
M  V30 8285 O 813.955 1.82061 -0.126466 0
M  V30 8286 C 814.006 0.916919 -3.49678 0
M  V30 8287 O 813.727 -0.164493 -4.37791 0
M  V30 8288 C 815.228 1.62139 -4.12584 0
M  V30 8289 H 812.448 0.0959214 -0.664108 0
M  V30 8290 H 814.992 -0.355156 -2.01392 0
M  V30 8291 H 813.147 1.62004 -3.519 0
M  V30 8292 H 813.561 0.227794 -5.24005 0
M  V30 8293 H 815.035 1.93651 -5.16917 0
M  V30 8294 H 815.512 2.53918 -3.58361 0
M  V30 8295 H 816.118 0.963145 -4.14251 0
M  V30 8296 N 814.433 1.57553 0.0384317 0
M  V30 8297 C 815.68 1.88841 0.731116 0
M  V30 8298 C 816.008 0.83093 1.75857 0
M  V30 8299 O 815.263 -0.169248 1.94967 0
M  V30 8300 C 815.562 3.26862 1.44554 0
M  V30 8301 C 815.228 4.47472 0.554946 0
M  V30 8302 C 813.89 4.80203 0.309621 0
M  V30 8303 C 816.242 5.21165 -0.0605204 0
M  V30 8304 C 813.57 5.8402 -0.560101 0
M  V30 8305 C 815.922 6.25905 -0.91789 0
M  V30 8306 C 814.586 6.57117 -1.17277 0
M  V30 8307 H 813.856 0.691018 0.267534 0
M  V30 8308 H 816.503 1.91498 -0.00883195 0
M  V30 8309 H 814.808 3.2015 2.25856 0
M  V30 8310 H 816.505 3.48316 1.98688 0
M  V30 8311 H 813.095 4.21874 0.756304 0
M  V30 8312 H 817.279 4.96164 0.116064 0
M  V30 8313 H 812.535 6.06583 -0.765974 0
M  V30 8314 H 816.709 6.82155 -1.40136 0
M  V30 8315 H 814.336 7.37385 -1.84843 0
M  V30 8316 N 815.911 -0.310526 1.54511 0
M  V30 8317 C 817.188 -1.06593 1.64004 0
M  V30 8318 C 817.568 -2.05519 0.482216 0
M  V30 8319 O 816.916 -2.22455 -0.52212 0
M  V30 8320 C 817.126 -1.75627 3.01589 0
M  V30 8321 C 818.474 -2.28173 3.58081 0
M  V30 8322 O 819.498 -1.85674 3.03979 0
M  V30 8323 O 818.357 -3.06015 4.52788 0
M  V30 8324 H 815.451 -0.492109 0.664649 0
M  V30 8325 H 817.997 -0.309374 1.66856 0
M  V30 8326 H 816.769 -1.03743 3.77297 0
M  V30 8327 H 816.392 -2.58061 3.02473 0
M  V30 8328 N 817.389 -1.46805 -0.573248 0
M  V30 8329 C 818.805 -1.31969 -0.897577 0
M  V30 8330 C 819.005 -0.298171 -1.99282 0
M  V30 8331 O 818.061 0.295953 -2.5076 0
M  V30 8332 C 819.374 -2.70859 -1.30598 0
M  V30 8333 C 820.922 -2.79022 -1.4183 0
M  V30 8334 C 821.397 -4.18516 -1.86033 0
M  V30 8335 N 822.888 -4.2098 -1.9321 0
M  V30 8336 C 823.623 -5.25814 -2.28707 0
M  V30 8337 N 823.119 -6.40968 -2.6293 0
M  V30 8338 N 824.912 -5.13184 -2.29343 0
M  V30 8339 H 817.063 -2.11869 0.150094 0
M  V30 8340 H 819.326 -0.947989 0.00447895 0
M  V30 8341 H 819.032 -3.46965 -0.575161 0
M  V30 8342 H 818.906 -3.01585 -2.26554 0
M  V30 8343 H 821.293 -2.03198 -2.13996 0
M  V30 8344 H 821.374 -2.51969 -0.441024 0
M  V30 8345 H 821.018 -4.94839 -1.14442 0
M  V30 8346 H 820.948 -4.42982 -2.84735 0
M  V30 8347 H 823.439 -3.37898 -1.69214 0
M  V30 8348 H 823.752 -7.16729 -2.88996 0
M  V30 8349 H 822.097 -6.44314 -2.60547 0
M  V30 8350 H 825.288 -4.22255 -2.02036 0
M  V30 8351 H 825.461 -5.94996 -2.56679 0
M  V30 8352 N 818.867 0.818669 -1.34668 0
M  V30 8353 C 820.115 1.57201 -1.27013 0
M  V30 8354 C 820.436 1.94354 0.158599 0
M  V30 8355 O 819.706 1.62626 1.09223 0
M  V30 8356 H 818.286 0.582919 -0.467135 0
M  V30 8357 H 820.948 0.977234 -1.6863 0
M  V30 8358 H 820.044 2.49291 -1.87778 0
M  V30 8359 N 820.346 1.18468 1.03938 0
M  V30 8360 C 821.279 0.856251 2.11527 0
M  V30 8361 C 822.257 -0.182323 1.61575 0
M  V30 8362 O 823.441 -0.061 1.88401 0
M  V30 8363 C 820.568 0.279562 3.37544 0
M  V30 8364 C 819.614 1.29552 4.06348 0
M  V30 8365 S 820.447 2.85191 4.5324 0
M  V30 8366 C 821.603 2.29037 5.82489 0
M  V30 8367 H 821.836 1.76742 2.39059 0
M  V30 8368 H 819.369 1.01068 1.16725 0
M  V30 8369 H 821.327 -0.0466579 4.10473 0
M  V30 8370 H 819.988 -0.60975 3.08125 0
M  V30 8371 H 819.181 0.840922 4.96935 0
M  V30 8372 H 818.783 1.56804 3.39541 0
M  V30 8373 H 821.075 1.67376 6.565 0
M  V30 8374 H 822.018 3.17929 6.32714 0
M  V30 8375 H 822.426 1.72009 5.37655 0
M  V30 8376 N 821.824 -1.22873 0.986916 0
M  V30 8377 C 823.07 -1.91746 0.660401 0
M  V30 8378 C 823.403 -1.76738 -0.804812 0
M  V30 8379 O 822.678 -1.13246 -1.58131 0
M  V30 8380 C 822.961 -3.44156 1.05966 0
M  V30 8381 C 822.814 -3.68242 2.58298 0
M  V30 8382 C 824.133 -4.35874 0.60842 0
M  V30 8383 H 821.252 -0.696347 0.241391 0
M  V30 8384 H 823.894 -1.44867 1.22937 0
M  V30 8385 H 822.044 -3.84213 0.575534 0
M  V30 8386 H 823.716 -3.37626 3.14335 0
M  V30 8387 H 821.959 -3.12728 3.00638 0
M  V30 8388 H 822.63 -4.74956 2.81285 0
M  V30 8389 H 825.106 -4.03299 1.02417 0
M  V30 8390 H 823.982 -5.41201 0.916142 0
M  V30 8391 H 824.243 -4.39364 -0.491086 0
M  V30 8392 N 823.302 -0.75937 -1.38099 0
M  V30 8393 C 824.548 -0.327559 -2.00745 0
M  V30 8394 C 824.903 1.08042 -1.592 0
M  V30 8395 O 824.196 1.7306 -0.822236 0
M  V30 8396 C 824.39 -0.394999 -3.55211 0
M  V30 8397 C 824.219 -1.80798 -4.11755 0
M  V30 8398 C 822.989 -2.42585 -4.43262 0
M  V30 8399 C 825.187 -2.76556 -4.33614 0
M  V30 8400 N 823.169 -3.75784 -4.85448 0
M  V30 8401 C 824.54 -3.94532 -4.78273 0
M  V30 8402 C 826.595 -2.74004 -4.15724 0
M  V30 8403 C 825.298 -5.10322 -5.06916 0
M  V30 8404 C 827.324 -3.88957 -4.45496 0
M  V30 8405 C 826.686 -5.05672 -4.90383 0
M  V30 8406 H 822.785 -0.166644 -0.764038 0
M  V30 8407 H 825.369 -0.99056 -1.67619 0
M  V30 8408 H 823.54 0.237761 -3.87672 0
M  V30 8409 H 825.272 0.0576828 -4.04659 0
M  V30 8410 H 822.027 -1.94302 -4.31907 0
M  V30 8411 H 822.451 -4.44234 -5.10867 0
M  V30 8412 H 827.093 -1.84948 -3.80203 0
M  V30 8413 H 824.811 -5.99988 -5.41332 0
M  V30 8414 H 828.397 -3.88308 -4.33253 0
M  V30 8415 H 827.277 -5.93146 -5.1298 0
M  V30 8416 N 824.78 1.49157 -0.508906 0
M  V30 8417 C 825.728 2.30922 0.278906 0
M  V30 8418 C 826.722 1.39889 0.955382 0
M  V30 8419 O 827.928 1.56901 0.882169 0
M  V30 8420 H 824.303 0.744087 0.108805 0
M  V30 8421 H 826.274 2.95277 -0.430583 0
M  V30 8422 C 825.023 3.21432 1.32576 0
M  V30 8423 H 824.346 3.91413 0.814634 0
M  V30 8424 H 825.786 3.81568 1.84882 0
M  V30 8425 C 824.245 2.41583 2.34817 0
M  V30 8426 O 824.775 2.1256 3.40854 0
M  V30 8427 N 822.981 2.03462 2.07489 0
M  V30 8428 H 822.528 2.27265 1.21278 0
M  V30 8429 H 822.486 1.50345 2.76123 0
M  V30 8430 N 826.258 0.243083 1.55714 0
M  V30 8431 C 827.486 -0.386971 2.03249 0
M  V30 8432 C 827.901 -1.51812 1.12243 0
M  V30 8433 O 827.258 -1.81992 0.136119 0
M  V30 8434 C 827.309 -0.898361 3.5016 0
M  V30 8435 O 827.03 0.187708 4.37698 0
M  V30 8436 C 828.531 -1.59949 4.13438 0
M  V30 8437 H 825.751 -0.0923981 0.664608 0
M  V30 8438 H 828.295 0.365832 2.01201 0
M  V30 8439 H 826.45 -1.60136 3.52754 0
M  V30 8440 H 826.864 -0.200001 5.24119 0
M  V30 8441 H 828.338 -1.90907 5.17937 0
M  V30 8442 H 828.815 -2.52014 3.59702 0
M  V30 8443 H 829.421 -0.941163 4.14756 0
M  V30 8444 N 827.736 -1.57571 -0.0300757 0
M  V30 8445 C 829.013 -1.80381 -0.756447 0
M  V30 8446 C 829.393 -0.840906 -1.93628 0
M  V30 8447 O 828.741 0.117143 -2.282 0
M  V30 8448 C 828.951 -3.2807 -1.19043 0
M  V30 8449 C 830.299 -3.93025 -1.60676 0
M  V30 8450 O 831.323 -3.32213 -1.28503 0
M  V30 8451 O 830.182 -5.00092 -2.20386 0
M  V30 8452 H 827.276 -0.741737 -0.365725 0
M  V30 8453 H 829.822 -1.69699 -0.00693177 0
M  V30 8454 H 828.594 -3.89748 -0.348128 0
M  V30 8455 H 828.217 -3.43637 -1.99999 0
M  V30 8456 N 829.214 0.302327 -1.54673 0
M  V30 8457 C 830.144 1.37759 -1.88533 0
M  V30 8458 C 831.125 1.52961 -0.744113 0
M  V30 8459 O 832.31 1.6649 -0.999731 0
M  V30 8460 C 829.44 2.74201 -2.13146 0
M  V30 8461 C 828.394 2.73765 -3.28993 0
M  V30 8462 C 827.72 4.13483 -3.39022 0
M  V30 8463 C 829.02 2.35624 -4.66132 0
M  V30 8464 H 830.714 1.0967 -2.78591 0
M  V30 8465 H 828.26 0.52613 -1.34044 0
M  V30 8466 H 830.213 3.49508 -2.35419 0
M  V30 8467 H 828.937 3.03812 -1.19858 0
M  V30 8468 H 827.596 2.00914 -3.06642 0
M  V30 8469 H 827.244 4.40269 -2.43253 0
M  V30 8470 H 826.944 4.14093 -4.16894 0
M  V30 8471 H 828.468 4.90572 -3.63553 0
M  V30 8472 H 829.882 3.00647 -4.88143 0
M  V30 8473 H 828.279 2.47449 -5.46707 0
M  V30 8474 H 829.349 1.30753 -4.66939 0
M  V30 8475 N 830.692 1.47107 0.565454 0
M  V30 8476 C 831.938 1.53535 1.32495 0
M  V30 8477 C 832.271 0.193537 1.93233 0
M  V30 8478 O 831.546 -0.796956 1.77423 0
M  V30 8479 C 831.829 2.64712 2.4413 0
M  V30 8480 C 831.682 4.08482 1.88314 0
M  V30 8481 C 833.001 2.71853 3.46098 0
M  V30 8482 H 830.12 0.558926 0.480386 0
M  V30 8483 H 832.762 1.79125 0.633575 0
M  V30 8484 H 830.912 2.43023 3.03104 0
M  V30 8485 H 832.584 4.4151 1.33665 0
M  V30 8486 H 830.827 4.17148 1.19037 0
M  V30 8487 H 831.498 4.82032 2.68978 0
M  V30 8488 H 833.974 2.91397 2.97031 0
M  V30 8489 H 832.85 3.51433 4.21646 0
M  V30 8490 H 833.111 1.78584 4.04426 0
M  V30 8491 N 832.17 -0.811516 1.35101 0
M  V30 8492 C 833.08 -1.95475 1.29718 0
M  V30 8493 C 834.096 -1.72813 0.202909 0
M  V30 8494 O 835.272 -1.96725 0.431414 0
M  V30 8495 C 832.337 -3.29975 1.06385 0
M  V30 8496 C 831.398 -3.65566 2.25077 0
M  V30 8497 C 830.631 -4.93648 2.02848 0
M  V30 8498 O 830.854 -5.617 0.992442 0
M  V30 8499 O 829.788 -5.27384 2.90087 0
M  V30 8500 H 833.614 -2.02961 2.25921 0
M  V30 8501 H 831.199 -0.948583 1.15422 0
M  V30 8502 H 833.081 -4.10506 0.951999 0
M  V30 8503 H 831.756 -3.2343 0.132294 0
M  V30 8504 H 830.663 -2.85432 2.41825 0
M  V30 8505 H 831.996 -3.7681 3.16662 0
M  V30 8506 N 833.648 -1.19017 -1.03309 0
M  V30 8507 C 834.876 -1.01534 -1.80273 0
M  V30 8508 C 835.291 0.43605 -1.83696 0
M  V30 8509 O 834.648 1.30288 -1.27794 0
M  V30 8510 C 834.699 -1.5722 -3.25522 0
M  V30 8511 O 834.42 -2.96677 -3.22358 0
M  V30 8512 C 835.921 -1.4446 -4.19102 0
M  V30 8513 H 833.141 -0.358094 -0.567459 0
M  V30 8514 H 835.685 -1.57738 -1.3015 0
M  V30 8515 H 833.84 -1.05174 -3.7285 0
M  V30 8516 H 834.254 -3.22795 -4.13405 0
M  V30 8517 H 835.728 -1.88209 -5.18923 0
M  V30 8518 H 836.205 -0.394471 -4.37425 0
M  V30 8519 H 836.811 -1.95616 -3.77643 0
M  V30 8520 N 835.127 1.22348 -0.993418 0
M  V30 8521 C 836.057 2.26584 -0.564088 0
M  V30 8522 C 837.038 1.65102 0.409298 0
M  V30 8523 O 838.223 1.91872 0.299819 0
M  V30 8524 C 835.353 3.47087 0.121554 0
M  V30 8525 C 834.307 4.21009 -0.770429 0
M  V30 8526 C 833.633 5.34678 0.0481586 0
M  V30 8527 C 834.933 4.79636 -2.06752 0
M  V30 8528 H 836.627 2.62749 -1.43538 0
M  V30 8529 H 834.173 1.26303 -0.691628 0
M  V30 8530 H 836.126 4.19166 0.433303 0
M  V30 8531 H 834.85 3.1002 1.0274 0
M  V30 8532 H 833.509 3.50764 -1.06583 0
M  V30 8533 H 833.157 4.93852 0.954933 0
M  V30 8534 H 832.857 5.85061 -0.545641 0
M  V30 8535 H 834.381 6.09573 0.353991 0
M  V30 8536 H 835.795 5.43654 -1.81969 0
M  V30 8537 H 834.192 5.4036 -2.61019 0
M  V30 8538 H 835.262 3.99659 -2.74592 0
M  V30 8539 N 836.605 0.766683 1.37694 0
M  V30 8540 C 837.515 0.150158 2.34119 0
M  V30 8541 C 838.531 -0.685513 1.59927 0
M  V30 8542 O 839.707 -0.606616 1.92047 0
M  V30 8543 C 836.772 -0.722562 3.39087 0
M  V30 8544 C 835.833 0.128983 4.29106 0
M  V30 8545 C 835.066 -0.702178 5.29061 0
M  V30 8546 O 835.289 -1.93954 5.36412 0
M  V30 8547 O 834.223 -0.114056 6.01792 0
M  V30 8548 H 838.049 0.946829 2.88563 0
M  V30 8549 H 835.634 0.527765 1.39768 0
M  V30 8550 H 837.516 -1.22095 4.03325 0
M  V30 8551 H 836.191 -1.49751 2.86978 0
M  V30 8552 H 835.098 0.673612 3.67985 0
M  V30 8553 H 836.431 0.866892 4.84506 0
M  V30 8554 N 838.083 -1.48885 0.516809 0
M  V30 8555 C 839.013 -2.32241 -0.242157 0
M  V30 8556 C 839.994 -1.41258 -0.947633 0
M  V30 8557 O 841.179 -1.70156 -0.935973 0
M  V30 8558 C 838.309 -3.22151 -1.29754 0
M  V30 8559 C 837.263 -4.22053 -0.710995 0
M  V30 8560 C 836.589 -5.01007 -1.86806 0
M  V30 8561 C 837.889 -5.21388 0.30853 0
M  V30 8562 H 839.583 -2.95943 0.453651 0
M  V30 8563 H 837.129 -1.42316 0.219612 0
M  V30 8564 H 839.082 -3.79284 -1.83634 0
M  V30 8565 H 837.806 -2.56423 -2.02274 0
M  V30 8566 H 836.465 -3.66087 -0.193819 0
M  V30 8567 H 836.113 -4.31713 -2.58133 0
M  V30 8568 H 835.813 -5.68615 -1.48159 0
M  V30 8569 H 837.337 -5.60989 -2.4109 0
M  V30 8570 H 838.751 -5.73122 -0.142703 0
M  V30 8571 H 837.148 -5.96975 0.611673 0
M  V30 8572 H 838.218 -4.69329 1.21894 0
M  V30 8573 N 839.561 -0.251338 -1.55583 0
M  V30 8574 C 840.493 0.679167 -2.18906 0
M  V30 8575 C 841.506 1.13545 -1.16667 0
M  V30 8576 O 842.695 1.06146 -1.4351 0
M  V30 8577 C 839.795 1.93544 -2.78198 0
M  V30 8578 C 838.968 1.62987 -4.05899 0
M  V30 8579 C 838.027 2.73618 -4.49466 0
M  V30 8580 O 837.053 2.40815 -5.15749 0
M  V30 8581 N 838.255 4.03204 -4.1762 0
M  V30 8582 H 841.02 0.137328 -2.99385 0
M  V30 8583 H 838.581 -0.0714754 -1.61742 0
M  V30 8584 H 840.573 2.66804 -3.04299 0
M  V30 8585 H 839.143 2.38695 -2.0185 0
M  V30 8586 H 838.363 0.732237 -3.8734 0
M  V30 8587 H 839.651 1.40041 -4.89148 0
M  V30 8588 H 839.049 4.32686 -3.64416 0
M  V30 8589 H 837.606 4.72916 -4.48547 0
M  V30 8590 N 841.039 1.57585 0.0217189 0
M  V30 8591 C 841.987 2.08134 1.03842 0
M  V30 8592 C 842.981 0.996662 1.36978 0
M  V30 8593 O 844.187 1.18149 1.35797 0
M  V30 8594 H 840.562 0.664298 0.352438 0
M  V30 8595 H 842.533 2.92583 0.58634 0
M  V30 8596 C 841.282 2.58218 2.32849 0
M  V30 8597 H 840.605 3.41302 2.08214 0
M  V30 8598 H 842.045 2.97289 3.02316 0
M  V30 8599 C 840.504 1.48664 3.02325 0
M  V30 8600 O 841.034 0.857075 3.9245 0
M  V30 8601 N 839.24 1.21938 2.63779 0
M  V30 8602 H 838.787 1.73319 1.90574 0
M  V30 8603 H 838.745 0.488523 3.10581 0
M  V30 8604 N 842.517 -0.29412 1.54831 0
M  V30 8605 C 843.447 -1.36757 1.89261 0
M  V30 8606 C 844.428 -1.52564 0.752214 0
M  V30 8607 O 845.613 -1.65958 1.00855 0
M  V30 8608 C 842.743 -2.73066 2.14597 0
M  V30 8609 C 841.697 -2.72017 3.3044 0
M  V30 8610 C 841.023 -4.11679 3.4121 0
M  V30 8611 C 842.323 -2.33149 4.67375 0
M  V30 8612 H 844.017 -1.08191 2.79169 0
M  V30 8613 H 841.563 -0.519014 1.34321 0
M  V30 8614 H 843.516 -3.48255 2.37269 0
M  V30 8615 H 842.24 -3.03172 1.21467 0
M  V30 8616 H 840.899 -1.99285 3.07703 0
M  V30 8617 H 840.547 -4.38973 2.45584 0
M  V30 8618 H 840.247 -4.11877 4.19084 0
M  V30 8619 H 841.771 -4.88637 3.6615 0
M  V30 8620 H 843.185 -2.98054 4.89731 0
M  V30 8621 H 841.582 -2.44546 5.48012 0
M  V30 8622 H 842.652 -1.28275 4.67626 0
M  V30 8623 N 843.995 -1.47404 -0.557645 0
M  V30 8624 C 844.928 -1.54399 -1.68036 0
M  V30 8625 C 845.906 -0.396175 -1.577 0
M  V30 8626 O 847.09 -0.603911 -1.78564 0
M  V30 8627 C 844.217 -1.44611 -3.06277 0
M  V30 8628 C 843.263 -2.63889 -3.35059 0
M  V30 8629 S 844.096 -4.26086 -3.24362 0
M  V30 8630 C 845.252 -4.1885 -4.65097 0
M  V30 8631 H 845.485 -2.49384 -1.61849 0
M  V30 8632 H 843.018 -1.35597 -0.738429 0
M  V30 8633 H 844.976 -1.39651 -3.86015 0
M  V30 8634 H 843.637 -0.510114 -3.0993 0
M  V30 8635 H 842.83 -2.53103 -4.35838 0
M  V30 8636 H 842.432 -2.65969 -2.62938 0
M  V30 8637 H 844.724 -3.87077 -5.56037 0
M  V30 8638 H 845.667 -5.19714 -4.8094 0
M  V30 8639 H 846.075 -3.49717 -4.43123 0
M  V30 8640 N 845.473 0.80434 -1.35529 0
M  V30 8641 C 846.403 1.93086 -1.31301 0
M  V30 8642 C 847.384 1.69068 -0.187044 0
M  V30 8643 O 848.569 1.90399 -0.382359 0
M  V30 8644 C 845.699 3.29867 -1.0865 0
M  V30 8645 C 844.653 3.68373 -2.17911 0
M  V30 8646 C 843.979 5.0334 -1.80423 0
M  V30 8647 C 845.279 3.78516 -3.59893 0
M  V30 8648 H 846.973 1.96882 -2.25561 0
M  V30 8649 H 844.519 0.945841 -1.08581 0
M  V30 8650 H 846.472 4.08281 -1.04331 0
M  V30 8651 H 845.196 3.2642 -0.108359 0
M  V30 8652 H 843.855 2.92247 -2.21331 0
M  V30 8653 H 843.503 4.96399 -0.812213 0
M  V30 8654 H 843.203 5.30074 -2.53565 0
M  V30 8655 H 844.727 5.84191 -1.77633 0
M  V30 8656 H 846.141 4.47155 -3.58783 0
M  V30 8657 H 844.538 4.16721 -4.31814 0
M  V30 8658 H 845.608 2.8001 -3.95882 0
M  V30 8659 N 846.951 1.19563 1.02676 0
M  V30 8660 C 848.191 1.01072 1.77662 0
M  V30 8661 C 848.555 -0.450344 1.86644 0
M  V30 8662 O 849.756 -0.755132 2.57975 0
M  V30 8663 C 848.027 1.66383 3.16309 0
M  V30 8664 S 849.586 1.62858 4.07459 0
M  V30 8665 H 846.404 0.362644 0.611564 0
M  V30 8666 H 849.006 1.51947 1.23014 0
M  V30 8667 H 847.71 2.71917 3.07391 0
M  V30 8668 H 847.241 1.15596 3.76033 0
M  V30 8669 H 849.256 0.654265 4.91868 0
M  V30 8670 N 848.429 -1.21819 0.999893 0
M  V30 8671 C 849.392 -2.22227 0.561044 0
M  V30 8672 C 850.392 -1.56722 -0.359858 0
M  V30 8673 O 851.582 -1.73546 -0.150848 0
M  V30 8674 C 848.714 -3.40409 -0.182987 0
M  V30 8675 H 849.907 -2.62567 1.44909 0
M  V30 8676 H 847.46 -1.34991 0.78785 0
M  V30 8677 H 848.195 -3.05551 -1.08671 0
M  V30 8678 H 847.98 -3.89171 0.47833 0
M  V30 8679 H 849.47 -4.14856 -0.477952 0
M  V30 8680 N 849.908 -0.773975 -1.37286 0
M  V30 8681 C 850.838 -0.175782 -2.32837 0
M  V30 8682 C 851.819 0.680603 -1.5589 0
M  V30 8683 O 853.004 0.617607 -1.84117 0
M  V30 8684 C 850.134 0.702388 -3.40123 0
M  V30 8685 C 849.088 -0.0528687 -4.27967 0
M  V30 8686 C 848.414 0.944891 -5.26285 0
M  V30 8687 C 849.714 -1.23316 -5.07534 0
M  V30 8688 H 851.408 -0.974016 -2.83114 0
M  V30 8689 H 848.954 -0.469826 -1.3612 0
M  V30 8690 H 850.907 1.13069 -4.05947 0
M  V30 8691 H 849.631 1.53316 -2.88378 0
M  V30 8692 H 848.29 -0.461978 -3.63678 0
M  V30 8693 H 847.938 1.77028 -4.70819 0
M  V30 8694 H 847.638 0.444079 -5.8592 0
M  V30 8695 H 849.162 1.37209 -5.94984 0
M  V30 8696 H 850.576 -0.881395 -5.66484 0
M  V30 8697 H 848.973 -1.66621 -5.76504 0
M  V30 8698 H 850.043 -2.03617 -4.40077 0
M  V30 8699 N 851.386 1.48609 -0.524698 0
M  V30 8700 C 852.318 2.27508 0.278 0
M  V30 8701 C 853.331 1.35042 0.909258 0
M  V30 8702 O 854.52 1.60136 0.788592 0
M  V30 8703 C 851.62 3.08247 1.40843 0
M  V30 8704 C 850.793 4.28455 0.880083 0
M  V30 8705 C 849.852 4.91048 1.891 0
M  V30 8706 O 848.878 5.5042 1.45005 0
M  V30 8707 N 850.08 4.82816 3.22288 0
M  V30 8708 H 852.845 2.97037 -0.398642 0
M  V30 8709 H 850.406 1.57876 -0.358698 0
M  V30 8710 H 852.398 3.46992 2.08276 0
M  V30 8711 H 850.968 2.41173 1.98883 0
M  V30 8712 H 850.188 3.94189 0.0299228 0
M  V30 8713 H 851.476 5.06279 0.505881 0
M  V30 8714 H 850.874 4.3572 3.60783 0
M  V30 8715 H 849.431 5.25676 3.85368 0
M  V30 8716 N 852.864 0.259585 1.55447 0
M  V30 8717 C 854.092 -0.365392 2.03648 0
M  V30 8718 C 854.507 -1.50613 1.13847 0
M  V30 8719 O 853.864 -1.81837 0.155414 0
M  V30 8720 C 853.915 -0.861172 3.51093 0
M  V30 8721 O 853.636 0.234121 4.37474 0
M  V30 8722 C 855.137 -1.55555 4.15111 0
M  V30 8723 H 852.357 -0.0853439 0.66555 0
M  V30 8724 H 854.901 0.387151 2.00802 0
M  V30 8725 H 853.056 -1.56385 3.54433 0
M  V30 8726 H 853.47 -0.1444 5.24301 0
M  V30 8727 H 854.944 -1.85403 5.19932 0
M  V30 8728 H 855.421 -2.48185 3.62355 0
M  V30 8729 H 856.027 -0.89712 4.15731 0
M  V30 8730 N 854.342 -1.57594 -0.0133615 0
M  V30 8731 C 855.591 -1.8916 -0.700103 0
M  V30 8732 C 855.904 -0.860147 -1.75673 0
M  V30 8733 O 857.11 -1.06556 -2.49716 0
M  V30 8734 C 855.566 -3.35742 -1.29635 0
M  V30 8735 C 855.174 -4.47154 -0.275249 0
M  V30 8736 C 856.918 -3.76436 -1.96205 0
M  V30 8737 C 854.825 -5.84805 -0.880726 0
M  V30 8738 H 853.755 -0.705805 -0.265247 0
M  V30 8739 H 856.406 -1.83445 0.044993 0
M  V30 8740 H 854.788 -3.36252 -2.09167 0
M  V30 8741 H 855.962 -4.58139 0.494506 0
M  V30 8742 H 854.277 -4.15394 0.289256 0
M  V30 8743 H 856.874 -4.76606 -2.42386 0
M  V30 8744 H 857.217 -3.09249 -2.78695 0
M  V30 8745 H 857.75 -3.78168 -1.23426 0
M  V30 8746 H 854.489 -6.55431 -0.0949013 0
M  V30 8747 H 854.009 -5.7751 -1.61995 0
M  V30 8748 H 855.688 -6.32038 -1.38338 0
M  V30 8749 N 855.82 0.285905 -1.54985 0
M  V30 8750 C 857.05 1.03626 -1.78732 0
M  V30 8751 C 857.458 1.80896 -0.554377 0
M  V30 8752 O 856.801 1.77161 0.48578 0
M  V30 8753 C 856.863 2.05185 -2.95193 0
M  V30 8754 C 856.527 1.46973 -4.32722 0
M  V30 8755 C 857.524 0.891986 -5.12191 0
M  V30 8756 C 855.209 1.50081 -4.79355 0
M  V30 8757 C 857.203 0.353078 -6.36421 0
M  V30 8758 C 854.89 0.958037 -6.03544 0
M  V30 8759 C 855.888 0.385157 -6.81913 0
M  V30 8760 O 855.576 -0.149341 -8.03761 0
M  V30 8761 H 855.308 0.312416 -0.599477 0
M  V30 8762 H 857.862 0.326067 -2.02795 0
M  V30 8763 H 856.092 2.79928 -2.66791 0
M  V30 8764 H 857.781 2.66244 -3.0638 0
M  V30 8765 H 858.547 0.860762 -4.77301 0
M  V30 8766 H 854.426 1.9361 -4.18373 0
M  V30 8767 H 857.97 -0.0947181 -6.97536 0
M  V30 8768 H 853.867 0.986458 -6.37918 0
M  V30 8769 H 854.635 -0.0374719 -8.18491 0
M  V30 8770 N 857.298 1.47698 0.54982 0
M  V30 8771 C 858.546 1.54397 1.30407 0
M  V30 8772 C 858.867 0.211026 1.93855 0
M  V30 8773 O 858.137 -0.765701 1.80316 0
M  V30 8774 H 856.717 0.568747 0.484289 0
M  V30 8775 H 859.379 1.84042 0.641444 0
M  V30 8776 H 858.475 2.31449 2.09375 0
M  V30 8777 N 858.776 -0.797141 1.35954 0
M  V30 8778 C 859.739 -1.89104 1.29508 0
M  V30 8779 C 860.739 -1.59495 0.204444 0
M  V30 8780 O 861.929 -1.68051 0.458746 0
M  V30 8781 C 859.061 -3.25726 1.00576 0
M  V30 8782 H 860.254 -1.96237 2.26785 0
M  V30 8783 H 857.807 -0.994075 1.20614 0
M  V30 8784 H 858.542 -3.24279 0.0372519 0
M  V30 8785 H 858.327 -3.48604 1.79492 0
M  V30 8786 H 859.817 -4.0578 0.986508 0
M  V30 8787 N 860.254 -1.20106 -1.0204 0
M  V30 8788 C 861.164 -0.962051 -2.13967 0
M  V30 8789 C 862.18 0.0808053 -1.73812 0
M  V30 8790 O 863.356 -0.105774 -2.01122 0
M  V30 8791 C 860.421 -0.513108 -3.42882 0
M  V30 8792 C 859.482 -1.62636 -3.97301 0
M  V30 8793 C 858.715 -1.19875 -5.20063 0
M  V30 8794 O 858.938 -0.0658423 -5.70362 0
M  V30 8795 O 857.872 -2.00467 -5.67536 0
M  V30 8796 H 861.698 -1.8991 -2.36998 0
M  V30 8797 H 859.283 -0.984608 -1.12365 0
M  V30 8798 H 861.165 -0.271797 -4.20523 0
M  V30 8799 H 859.84 0.395402 -3.21276 0
M  V30 8800 H 858.747 -1.92192 -3.20957 0
M  V30 8801 H 860.08 -2.51174 -4.23288 0
M  V30 8802 N 861.732 1.21287 -1.00634 0
M  V30 8803 C 862.695 2.21927 -0.572821 0
M  V30 8804 C 863.695 1.5691 0.351541 0
M  V30 8805 O 864.885 1.73623 0.141643 0
M  V30 8806 C 862.017 3.40501 0.164932 0
M  V30 8807 H 863.21 2.61795 -1.463 0
M  V30 8808 H 860.763 1.34571 -0.794998 0
M  V30 8809 H 861.498 3.06123 1.07049 0
M  V30 8810 H 861.283 3.88912 -0.498962 0
M  V30 8811 H 862.773 4.15103 0.455945 0
M  V30 8812 N 863.21 0.781244 1.36873 0
M  V30 8813 C 864.626 0.461968 1.52768 0
M  V30 8814 C 864.826 -1.02099 1.73719 0
M  V30 8815 O 863.882 -1.80665 1.76399 0
M  V30 8816 C 865.195 1.2853 2.71846 0
M  V30 8817 C 866.743 1.27817 2.85713 0
M  V30 8818 C 867.218 2.08506 4.07786 0
M  V30 8819 N 868.709 2.05909 4.14917 0
M  V30 8820 C 869.444 2.65118 5.08429 0
M  V30 8821 N 868.94 3.33152 6.07438 0
M  V30 8822 N 870.733 2.54896 5.00983 0
M  V30 8823 H 862.884 1.74198 1.21527 0
M  V30 8824 H 865.147 0.740027 0.592506 0
M  V30 8825 H 864.853 2.3366 2.62861 0
M  V30 8826 H 864.727 0.920981 3.65784 0
M  V30 8827 H 867.114 0.234817 2.94164 0
M  V30 8828 H 867.195 1.68219 1.92707 0
M  V30 8829 H 866.839 3.12867 4.00096 0
M  V30 8830 H 866.769 1.65479 4.99924 0
M  V30 8831 H 869.26 1.56386 3.44023 0
M  V30 8832 H 869.573 3.75681 6.75339 0
M  V30 8833 H 867.918 3.37253 6.07689 0
M  V30 8834 H 871.109 2.01352 4.22581 0
M  V30 8835 H 871.282 3.01332 5.73675 0
M  V30 8836 N 864.689 -1.48329 0.532571 0
M  V30 8837 C 865.636 -2.29663 -0.228779 0
M  V30 8838 C 866.606 -1.37529 -0.931401 0
M  V30 8839 O 867.791 -1.66493 -0.931921 0
M  V30 8840 C 864.931 -3.20955 -1.26814 0
M  V30 8841 C 864.044 -4.28168 -0.574099 0
M  V30 8842 C 863.179 -5.06638 -1.59661 0
M  V30 8843 C 862.218 -6.05651 -0.88618 0
M  V30 8844 N 861.355 -6.77169 -1.85436 0
M  V30 8845 H 866.195 -2.94255 0.47098 0
M  V30 8846 H 863.732 -1.45061 0.2441 0
M  V30 8847 H 865.69 -3.72285 -1.88307 0
M  V30 8848 H 864.32 -2.58281 -1.93625 0
M  V30 8849 H 863.372 -3.80085 0.154827 0
M  V30 8850 H 864.684 -4.98797 -0.0163984 0
M  V30 8851 H 863.838 -5.61995 -2.28576 0
M  V30 8852 H 862.577 -4.35854 -2.18821 0
M  V30 8853 H 861.582 -5.49495 -0.182981 0
M  V30 8854 H 862.807 -6.78434 -0.300659 0
M  V30 8855 H 860.753 -6.09134 -2.43499 0
M  V30 8856 H 860.67 -7.43882 -1.34816 0
M  V30 8857 H 861.938 -7.37114 -2.53541 0
M  V30 8858 N 866.167 -0.267825 -1.55308 0
M  V30 8859 C 867.077 0.633055 -2.25897 0
M  V30 8860 C 868.093 1.17613 -1.28231 0
M  V30 8861 O 869.269 1.20797 -1.61153 0
M  V30 8862 C 866.334 1.80397 -2.96071 0
M  V30 8863 C 865.395 1.29829 -4.09198 0
M  V30 8864 C 864.628 2.4134 -4.76016 0
M  V30 8865 O 864.851 3.60537 -4.42006 0
M  V30 8866 O 863.785 2.09909 -5.64111 0
M  V30 8867 H 867.611 0.0614381 -3.03638 0
M  V30 8868 H 865.196 -0.0355072 -1.49358 0
M  V30 8869 H 867.078 2.48685 -3.40197 0
M  V30 8870 H 865.753 2.36281 -2.21253 0
M  V30 8871 H 864.66 0.582086 -3.69544 0
M  V30 8872 H 865.993 0.785288 -4.85895 0
M  V30 8873 N 867.645 1.57599 0.00500368 0
M  V30 8874 C 868.87 1.95026 0.705663 0
M  V30 8875 C 869.295 0.869643 1.6679 0
M  V30 8876 O 868.653 -0.172659 1.80476 0
M  V30 8877 C 868.701 3.31545 1.4181 0
M  V30 8878 O 867.805 3.25495 2.53232 0
M  V30 8879 H 867.146 0.636808 0.188074 0
M  V30 8880 H 869.676 2.04547 -0.046696 0
M  V30 8881 H 869.686 3.66996 1.78265 0
M  V30 8882 H 868.361 4.09751 0.712543 0
M  V30 8883 H 866.938 3.01714 2.19142 0
M  V30 8884 N 869.123 -0.277682 1.55134 0
M  V30 8885 C 870.539 -0.624625 1.46869 0
M  V30 8886 C 870.739 -1.89717 0.678958 0
M  V30 8887 O 869.795 -2.51739 0.195939 0
M  V30 8888 C 871.108 -0.755937 2.91043 0
M  V30 8889 C 872.656 -0.850299 3.01229 0
M  V30 8890 C 873.131 -1.01343 4.46647 0
M  V30 8891 N 874.622 -1.07906 4.50456 0
M  V30 8892 C 875.357 -1.224 5.60184 0
M  V30 8893 N 874.853 -1.33642 6.79788 0
M  V30 8894 N 876.646 -1.25473 5.47917 0
M  V30 8895 H 868.797 0.558102 2.04937 0
M  V30 8896 H 871.06 0.188228 0.929125 0
M  V30 8897 H 870.766 0.108593 3.51532 0
M  V30 8898 H 870.64 -1.6377 3.39793 0
M  V30 8899 H 873.027 -1.7053 2.40839 0
M  V30 8900 H 873.108 0.0559681 2.55739 0
M  V30 8901 H 872.752 -0.163102 5.07638 0
M  V30 8902 H 872.682 -1.93427 4.89789 0
M  V30 8903 H 875.173 -1.00477 3.64298 0
M  V30 8904 H 875.486 -1.44522 7.59166 0
M  V30 8905 H 873.831 -1.30655 6.82608 0
M  V30 8906 H 877.022 -1.16317 4.53418 0
M  V30 8907 H 877.195 -1.36424 6.33476 0
M  V30 8908 N 870.601 -1.47988 -0.541979 0
M  V30 8909 C 871.849 -1.55086 -1.29587 0
M  V30 8910 C 872.17 -0.221304 -1.9374 0
M  V30 8911 O 871.44 0.756128 -1.80719 0
M  V30 8912 H 870.02 -0.571307 -0.481266 0
M  V30 8913 H 872.682 -1.8438 -0.631675 0
M  V30 8914 H 871.778 -2.32556 -2.08144 0
M  V30 8915 N 872.079 0.78992 -1.36375 0
M  V30 8916 C 873.042 1.88414 -1.30509 0
M  V30 8917 C 874.042 1.59384 -0.2129 0
M  V30 8918 O 875.232 1.67805 -0.467651 0
M  V30 8919 C 872.364 3.25188 -1.02302 0
M  V30 8920 H 873.557 1.95031 -2.27822 0
M  V30 8921 H 871.11 0.987664 -1.2114 0
M  V30 8922 H 871.845 3.24254 -0.0544486 0
M  V30 8923 H 871.63 3.47647 -1.81338 0
M  V30 8924 H 873.12 4.05252 -1.00801 0
M  V30 8925 N 873.557 1.20646 1.01402 0
M  V30 8926 C 874.507 0.925209 2.08384 0
M  V30 8927 C 875.491 -0.115994 1.60481 0
M  V30 8928 O 876.683 0.0917276 1.76762 0
M  V30 8929 C 873.812 0.48193 3.399 0
M  V30 8930 C 872.898 1.5567 3.94497 0
M  V30 8931 N 873.289 2.77971 4.2257 0
M  V30 8932 C 871.587 1.42347 4.22674 0
M  V30 8933 C 872.288 3.47317 4.66632 0
M  V30 8934 N 871.264 2.74736 4.69064 0
M  V30 8935 H 875.066 1.85452 2.28002 0
M  V30 8936 H 872.58 1.10084 1.19395 0
M  V30 8937 H 874.577 0.261835 4.16077 0
M  V30 8938 H 873.237 -0.440725 3.21695 0
M  V30 8939 H 874.248 3.14598 4.11398 0
M  V30 8940 H 870.925 0.565417 4.13654 0
M  V30 8941 H 872.315 4.51985 4.97151 0
M  V30 8942 N 875.035 -1.20752 1.01276 0
M  V30 8943 C 875.998 -2.2162 0.584583 0
M  V30 8944 C 876.998 -1.57094 -0.343215 0
M  V30 8945 O 878.188 -1.73696 -0.132433 0
M  V30 8946 C 875.32 -3.40583 -0.146872 0
M  V30 8947 H 876.513 -2.61015 1.47686 0
M  V30 8948 H 874.066 -1.34148 0.802123 0
M  V30 8949 H 874.801 -3.06686 -1.05424 0
M  V30 8950 H 874.586 -3.88642 0.51958 0
M  V30 8951 H 876.076 -4.15339 -0.433924 0
M  V30 8952 N 876.513 -0.788492 -1.36457 0
M  V30 8953 C 877.929 -0.470063 -1.52521 0
M  V30 8954 C 878.129 1.01176 -1.74258 0
M  V30 8955 O 877.185 1.79726 -1.77355 0
M  V30 8956 C 878.498 -1.2997 -2.71161 0
M  V30 8957 C 880.046 -1.2933 -2.85031 0
M  V30 8958 C 880.521 -2.10665 -4.06674 0
M  V30 8959 N 882.012 -2.08107 -4.13819 0
M  V30 8960 C 882.747 -2.6781 -5.07016 0
M  V30 8961 N 882.243 -3.36369 -6.05663 0
M  V30 8962 N 884.036 -2.57549 -4.99625 0
M  V30 8963 H 876.187 -1.7484 -1.20602 0
M  V30 8964 H 878.45 -0.743159 -0.588574 0
M  V30 8965 H 878.156 -2.35051 -2.61618 0
M  V30 8966 H 878.03 -0.940367 -3.6529 0
M  V30 8967 H 880.417 -0.250414 -2.94036 0
M  V30 8968 H 880.498 -1.69239 -1.91812 0
M  V30 8969 H 880.142 -3.14984 -3.98431 0
M  V30 8970 H 880.072 -1.68128 -4.9904 0
M  V30 8971 H 882.563 -1.58208 -3.43189 0
M  V30 8972 H 882.876 -3.79258 -6.73338 0
M  V30 8973 H 881.221 -3.40471 -6.05891 0
M  V30 8974 H 884.412 -2.0359 -4.21508 0
M  V30 8975 H 884.585 -3.0437 -5.72069 0
M  V30 8976 N 877.991 1.48044 -0.54043 0
M  V30 8977 C 878.901 2.33565 0.220163 0
M  V30 8978 C 879.917 1.47146 0.928659 0
M  V30 8979 O 881.093 1.80107 0.901295 0
M  V30 8980 C 878.158 3.2349 1.2472 0
M  V30 8981 C 877.219 4.25789 0.547938 0
M  V30 8982 C 876.452 5.11417 1.52605 0
M  V30 8983 O 876.675 4.99204 2.75956 0
M  V30 8984 O 875.609 5.92498 1.05972 0
M  V30 8985 H 879.435 2.99868 -0.480898 0
M  V30 8986 H 877.02 1.46332 -0.301226 0
M  V30 8987 H 878.902 3.79084 1.84047 0
M  V30 8988 H 877.577 2.59835 1.93048 0
M  V30 8989 H 876.484 3.74001 -0.0860941 0
M  V30 8990 H 877.817 4.92111 -0.0935896 0
M  V30 8991 N 879.47 0.276058 1.55163 0
M  V30 8992 C 880.747 -0.392292 1.91626 0
M  V30 8993 C 881.127 -1.73646 1.20043 0
M  V30 8994 O 880.475 -2.26139 0.327606 0
M  V30 8995 C 880.685 -0.531641 3.44927 0
M  V30 8996 C 882.033 -0.8141 4.16722 0
M  V30 8997 O 883.057 -0.616413 3.50826 0
M  V30 8998 O 881.916 -1.19224 5.33337 0
M  V30 8999 H 879.01 -0.214945 0.798579 0
M  V30 9000 H 881.556 0.32228 1.66612 0
M  V30 9001 H 880.328 0.414282 3.89101 0
M  V30 9002 H 879.951 -1.29564 3.75897 0
M  V30 9003 N 880.948 -1.576 0.00335426 0
M  V30 9004 C 882.178 -1.94713 -0.690682 0
M  V30 9005 C 882.586 -0.876915 -1.67651 0
M  V30 9006 O 881.929 0.152434 -1.83066 0
M  V30 9007 C 881.991 -3.27833 -1.47532 0
M  V30 9008 C 881.655 -4.52344 -0.650704 0
M  V30 9009 C 882.652 -5.19862 0.0630537 0
M  V30 9010 C 880.337 -4.98755 -0.595687 0
M  V30 9011 C 882.331 -6.32093 0.820779 0
M  V30 9012 C 880.018 -6.10875 0.165761 0
M  V30 9013 C 881.016 -6.77401 0.872724 0
M  V30 9014 O 880.704 -7.87372 1.62174 0
M  V30 9015 H 880.436 -0.646627 -0.197104 0
M  V30 9016 H 882.99 -2.05335 0.0516082 0
M  V30 9017 H 881.22 -3.13628 -2.26217 0
M  V30 9018 H 882.909 -3.50034 -2.05501 0
M  V30 9019 H 883.675 -4.84991 0.0297223 0
M  V30 9020 H 879.554 -4.46797 -1.13549 0
M  V30 9021 H 883.098 -6.83953 1.37312 0
M  V30 9022 H 878.995 -6.45187 0.200901 0
M  V30 9023 H 879.763 -8.03905 1.5388 0
M  V30 9024 N 882.426 0.269451 -1.5528 0
M  V30 9025 C 883.373 1.33316 -1.88403 0
M  V30 9026 C 884.343 1.48909 -0.735881 0
M  V30 9027 O 885.528 1.63259 -0.987479 0
M  V30 9028 C 882.668 2.68778 -2.16454 0
M  V30 9029 C 881.781 2.61377 -3.43956 0
M  V30 9030 C 880.916 3.89042 -3.6169 0
M  V30 9031 C 879.955 3.76166 -4.82872 0
M  V30 9032 N 879.092 4.95673 -4.97245 0
M  V30 9033 H 883.932 1.04368 -2.79126 0
M  V30 9034 H 881.469 0.504147 -1.38191 0
M  V30 9035 H 883.427 3.47599 -2.30719 0
M  V30 9036 H 882.057 2.9592 -1.28961 0
M  V30 9037 H 881.109 1.74247 -3.38145 0
M  V30 9038 H 882.421 2.47764 -4.32914 0
M  V30 9039 H 881.575 4.76304 -3.75791 0
M  V30 9040 H 880.314 4.05526 -2.70924 0
M  V30 9041 H 879.319 2.87287 -4.68771 0
M  V30 9042 H 880.544 3.61198 -5.75077 0
M  V30 9043 H 878.49 5.12561 -4.09411 0
M  V30 9044 H 878.407 4.84605 -5.80254 0
M  V30 9045 H 879.675 5.84498 -5.15735 0
M  V30 9046 N 883.904 1.48273 0.534124 0
M  V30 9047 C 885.15 1.56311 1.29208 0
M  V30 9048 C 885.483 0.234481 1.92779 0
M  V30 9049 O 884.758 -0.759143 1.79073 0
M  V30 9050 C 885.041 2.69831 2.3846 0
M  V30 9051 C 884.894 4.12385 1.79608 0
M  V30 9052 C 886.213 2.79133 3.40254 0
M  V30 9053 H 883.332 0.56899 0.468422 0
M  V30 9054 H 885.974 1.80429 0.595438 0
M  V30 9055 H 884.124 2.49397 2.97881 0
M  V30 9056 H 885.796 4.44246 1.24269 0
M  V30 9057 H 884.039 4.19579 1.10162 0
M  V30 9058 H 884.71 4.87629 2.58693 0
M  V30 9059 H 887.186 2.97632 2.90783 0
M  V30 9060 H 886.062 3.60298 4.14097 0
M  V30 9061 H 886.323 1.87122 4.00547 0
M  V30 9062 N 885.382 -0.782676 1.36792 0
M  V30 9063 C 886.798 -1.08169 1.17352 0
M  V30 9064 C 886.998 -2.015 0.0022037 0
M  V30 9065 O 886.054 -2.43692 -0.661093 0
M  V30 9066 C 887.367 -1.68969 2.48737 0
M  V30 9067 C 888.915 -1.81278 2.55161 0
M  V30 9068 C 889.39 -2.45492 3.86649 0
M  V30 9069 N 890.881 -2.52954 3.88032 0
M  V30 9070 C 891.616 -3.03465 4.86515 0
M  V30 9071 N 891.112 -3.54232 5.95392 0
M  V30 9072 N 892.905 -3.02239 4.73928 0
M  V30 9073 H 885.056 -0.162757 2.11775 0
M  V30 9074 H 887.319 -0.134823 0.938364 0
M  V30 9075 H 887.025 -1.07859 3.34753 0
M  V30 9076 H 886.899 -2.68397 2.65034 0
M  V30 9077 H 889.286 -2.41524 1.69559 0
M  V30 9078 H 889.367 -0.806367 2.42758 0
M  V30 9079 H 889.011 -1.85889 4.7266 0
M  V30 9080 H 888.941 -3.46718 3.96351 0
M  V30 9081 H 891.432 -2.17014 3.09376 0
M  V30 9082 H 891.745 -3.91145 6.66503 0
M  V30 9083 H 890.09 -3.52366 5.99052 0
M  V30 9084 H 893.281 -2.61871 3.87996 0
M  V30 9085 H 893.454 -3.41295 5.50837 0
M  V30 9086 N 886.86 -1.21182 -1.00761 0
M  V30 9087 C 888.109 -1.02166 -1.73911 0
M  V30 9088 C 888.422 0.445638 -1.90456 0
M  V30 9089 O 889.628 0.755132 -2.60787 0
M  V30 9090 C 888.084 -1.77936 -3.12837 0
M  V30 9091 C 887.692 -3.28819 -3.04273 0
M  V30 9092 C 889.436 -1.67319 -3.90134 0
M  V30 9093 C 887.343 -3.97089 -4.38262 0
M  V30 9094 H 886.273 -0.378665 -0.652019 0
M  V30 9095 H 888.924 -1.44891 -1.12601 0
M  V30 9096 H 887.306 -1.28003 -3.74742 0
M  V30 9097 H 888.48 -3.86035 -2.51622 0
M  V30 9098 H 886.795 -3.39949 -2.40465 0
M  V30 9099 H 889.392 -2.15659 -4.8928 0
M  V30 9100 H 889.735 -0.630959 -4.11491 0
M  V30 9101 H 890.268 -2.14716 -3.34876 0
M  V30 9102 H 887.007 -5.01503 -4.22107 0
M  V30 9103 H 886.527 -3.44662 -4.90885 0
M  V30 9104 H 888.206 -4.01854 -5.07072 0
M  V30 9105 N 888.338 1.20213 -1.01915 0
M  V30 9106 C 889.615 1.85348 -0.62495 0
M  V30 9107 C 889.995 1.91101 0.896854 0
M  V30 9108 O 889.343 1.42075 1.78961 0
M  V30 9109 C 889.553 3.24849 -1.27571 0
M  V30 9110 C 890.901 4.01107 -1.39277 0
M  V30 9111 O 891.925 3.34211 -1.23212 0
M  V30 9112 O 890.784 5.20914 -1.6526 0
M  V30 9113 H 887.878 0.798303 -0.215965 0
M  V30 9114 H 890.424 1.27782 -1.11669 0
M  V30 9115 H 889.196 3.1544 -2.31545 0
M  V30 9116 H 888.819 3.90049 -0.77122 0
M  V30 9117 N 889.816 0.795718 1.36037 0
M  V30 9118 C 890.726 0.199784 2.33748 0
M  V30 9119 C 891.742 -0.651436 1.61345 0
M  V30 9120 O 892.918 -0.565743 1.93291 0
M  V30 9121 C 889.983 -0.650475 3.40543 0
M  V30 9122 C 889.044 0.219974 4.28736 0
M  V30 9123 C 888.277 -0.589798 5.30431 0
M  V30 9124 O 888.5 -1.82532 5.40406 0
M  V30 9125 O 887.434 0.0136187 6.01898 0
M  V30 9126 H 891.26 1.00782 2.8649 0
M  V30 9127 H 888.845 0.557293 1.38617 0
M  V30 9128 H 890.727 -1.13512 4.05824 0
M  V30 9129 H 889.402 -1.4363 2.9009 0
M  V30 9130 H 888.309 0.751516 3.66474 0
M  V30 9131 H 889.642 0.969468 4.82558 0
M  V30 9132 N 891.294 -1.47756 0.548274 0
M  V30 9133 C 892.524 -2.06584 0.0254503 0
M  V30 9134 C 892.932 -1.40268 -1.26971 0
M  V30 9135 O 892.275 -0.49019 -1.77039 0
M  V30 9136 C 892.337 -3.58628 -0.250301 0
M  V30 9137 C 892.001 -4.4693 0.954087 0
M  V30 9138 C 892.998 -4.85592 1.85733 0
M  V30 9139 C 890.683 -4.88573 1.16624 0
M  V30 9140 C 892.677 -5.64686 2.95648 0
M  V30 9141 C 890.364 -5.67435 2.2685 0
M  V30 9142 C 891.362 -6.05401 3.16194 0
M  V30 9143 O 891.05 -6.82676 4.24511 0
M  V30 9144 H 890.782 -0.67489 0.0387264 0
M  V30 9145 H 893.336 -1.90876 0.758663 0
M  V30 9146 H 891.566 -3.72516 -1.03771 0
M  V30 9147 H 893.255 -3.9951 -0.717419 0
M  V30 9148 H 894.021 -4.54026 1.70544 0
M  V30 9149 H 889.9 -4.58494 0.480039 0
M  V30 9150 H 893.444 -5.9424 3.65411 0
M  V30 9151 H 889.341 -5.98413 2.42016 0
M  V30 9152 H 890.109 -7.01057 4.22447 0
M  V30 9153 N 892.772 -0.284283 -1.55015 0
M  V30 9154 C 894.049 0.382125 -1.91831 0
M  V30 9155 C 894.429 1.73007 -1.20962 0
M  V30 9156 O 893.777 2.25962 -0.339594 0
M  V30 9157 C 893.987 0.513341 -3.45204 0
M  V30 9158 C 895.335 0.791989 -4.17148 0
M  V30 9159 O 896.359 0.597799 -3.51148 0
M  V30 9160 O 895.218 1.16394 -5.33961 0
M  V30 9161 H 892.312 0.210707 -0.799707 0
M  V30 9162 H 894.858 -0.331111 -1.66438 0
M  V30 9163 H 893.63 -0.434911 -3.88876 0
M  V30 9164 H 893.253 1.27569 -3.76579 0
M  V30 9165 N 894.251 1.57596 -0.0117121 0
M  V30 9166 C 895.481 1.95077 0.680346 0
M  V30 9167 C 895.889 0.885793 1.67184 0
M  V30 9168 O 895.232 -0.142723 1.83145 0
M  V30 9169 C 895.294 3.28611 1.45791 0
M  V30 9170 C 894.958 4.52682 0.626706 0
M  V30 9171 C 895.955 5.19821 -0.0906223 0
M  V30 9172 C 893.64 4.99064 0.569229 0
M  V30 9173 C 895.634 6.31649 -0.854289 0
M  V30 9174 C 893.321 6.10779 -0.198155 0
M  V30 9175 C 894.319 6.76929 -0.908636 0
M  V30 9176 O 894.007 7.86501 -1.66348 0
M  V30 9177 H 893.739 0.647663 0.193672 0
M  V30 9178 H 896.293 2.05305 -0.0624969 0
M  V30 9179 H 894.523 3.14824 2.2455 0
M  V30 9180 H 896.212 3.51119 2.03642 0
M  V30 9181 H 896.978 4.84968 -0.0554421 0
M  V30 9182 H 892.857 4.47393 1.11178 0
M  V30 9183 H 896.401 6.83215 -1.40937 0
M  V30 9184 H 892.298 6.45072 -0.235114 0
M  V30 9185 H 893.066 8.03078 -1.58141 0
M  V30 9186 N 895.729 -0.261212 1.5542 0
M  V30 9187 C 896.954 -1.01341 1.80955 0
M  V30 9188 C 897.379 -1.78711 0.586849 0
M  V30 9189 O 896.737 -1.75266 -0.463837 0
M  V30 9190 C 896.785 -1.93835 3.04073 0
M  V30 9191 O 895.889 -3.02791 2.79985 0
M  V30 9192 H 895.23 -0.289123 0.597749 0
M  V30 9193 H 897.76 -0.286543 2.02584 0
M  V30 9194 H 897.77 -2.3557 3.33123 0
M  V30 9195 H 896.445 -1.36936 3.9271 0
M  V30 9196 H 895.022 -2.65287 2.62063 0
M  V30 9197 N 897.207 -1.48554 -0.526253 0
M  V30 9198 C 898.154 -1.63354 -1.63046 0
M  V30 9199 C 899.124 -0.475509 -1.59148 0
M  V30 9200 O 900.309 -0.699453 -1.77517 0
M  V30 9201 C 897.449 -1.68271 -3.01295 0
M  V30 9202 C 896.562 -2.95207 -3.15399 0
M  V30 9203 C 895.697 -2.91262 -4.4423 0
M  V30 9204 C 894.736 -4.12886 -4.51876 0
M  V30 9205 N 893.873 -4.06996 -5.721 0
M  V30 9206 H 898.713 -2.57649 -1.49737 0
M  V30 9207 H 896.25 -1.27769 -0.728938 0
M  V30 9208 H 898.208 -1.69104 -3.81392 0
M  V30 9209 H 896.838 -0.774641 -3.13367 0
M  V30 9210 H 895.89 -3.04102 -2.2853 0
M  V30 9211 H 897.202 -3.85187 -3.1691 0
M  V30 9212 H 896.356 -2.90516 -5.32621 0
M  V30 9213 H 895.095 -1.99016 -4.45246 0
M  V30 9214 H 894.1 -4.13902 -3.61891 0
M  V30 9215 H 895.325 -5.06294 -4.52596 0
M  V30 9216 H 893.271 -3.17573 -5.74006 0
M  V30 9217 H 893.188 -4.90685 -5.75121 0
M  V30 9218 H 894.456 -4.10315 -6.62768 0
M  V30 9219 N 898.685 0.775411 -1.37205 0
M  V30 9220 C 900.096 1.35147 -1.28811 0
M  V30 9221 C 900.447 1.96089 0.0659168 0
M  V30 9222 O 899.572 1.93558 0.967684 0
M  V30 9223 C 900.167 2.45715 -2.33258 0
M  V30 9224 C 898.726 2.99099 -2.2851 0
M  V30 9225 C 897.873 1.72286 -2.17285 0
M  V30 9226 H 900.824 0.575954 -1.4788 0
M  V30 9227 H 900.845 3.251 -1.97712 0
M  V30 9228 H 900.357 2.01331 -3.31795 0
M  V30 9229 H 898.458 3.47868 -1.33485 0
M  V30 9230 H 898.571 3.54962 -3.21774 0
M  V30 9231 H 896.935 1.95068 -1.6377 0
M  V30 9232 H 897.718 1.3001 -3.1773 0
M  V30 9233 N 900.163 1.21714 1.00117 0
M  V30 9234 C 901.412 1.03087 1.73367 0
M  V30 9235 C 901.725 -0.435532 1.90689 0
M  V30 9236 O 902.931 -0.741291 2.61184 0
M  V30 9237 C 901.387 1.79593 3.11888 0
M  V30 9238 C 900.995 3.30428 3.02525 0
M  V30 9239 C 902.739 1.69386 3.89241 0
M  V30 9240 C 900.646 3.99408 4.3615 0
M  V30 9241 H 899.576 0.382117 0.650002 0
M  V30 9242 H 902.227 1.45486 1.11831 0
M  V30 9243 H 900.609 1.29988 3.74058 0
M  V30 9244 H 901.783 3.87364 2.49571 0
M  V30 9245 H 900.098 3.4122 2.38659 0
M  V30 9246 H 902.695 2.18251 4.8813 0
M  V30 9247 H 903.038 0.652773 4.1115 0
M  V30 9248 H 903.571 2.16489 3.33733 0
M  V30 9249 H 900.31 5.03735 4.19442 0
M  V30 9250 H 899.83 3.47261 4.8905 0
M  V30 9251 H 901.509 4.04537 5.04934 0
M  V30 9252 N 901.641 -1.19671 1.02551 0
M  V30 9253 C 902.573 -2.22215 0.561517 0
M  V30 9254 C 903.586 -1.58751 -0.360821 0
M  V30 9255 O 904.775 -1.77802 -0.157749 0
M  V30 9256 C 901.875 -3.383 -0.201494 0
M  V30 9257 C 901.048 -4.3135 0.724952 0
M  V30 9258 C 900.107 -5.26199 0.00794334 0
M  V30 9259 O 899.133 -5.65665 0.633398 0
M  V30 9260 N 900.335 -5.66573 -1.26394 0
M  V30 9261 H 903.1 -2.6265 1.44343 0
M  V30 9262 H 900.661 -1.34303 0.904122 0
M  V30 9263 H 902.653 -3.98764 -0.690625 0
M  V30 9264 H 901.223 -2.96683 -0.98479 0
M  V30 9265 H 900.443 -3.6872 1.39423 0
M  V30 9266 H 901.731 -4.90433 1.35472 0
M  V30 9267 H 901.129 -5.36538 -1.79287 0
M  V30 9268 H 899.686 -6.29304 -1.69763 0
M  V30 9269 N 903.119 -0.802921 -1.35613 0
M  V30 9270 C 904.367 -0.380822 -1.9848 0
M  V30 9271 C 904.688 1.05464 -1.6402 0
M  V30 9272 O 903.958 1.72908 -0.920854 0
M  V30 9273 H 902.538 -0.137824 -0.734176 0
M  V30 9274 H 905.2 -1.02795 -1.65587 0
M  V30 9275 H 904.296 -0.483565 -3.08331 0
M  V30 9276 N 904.597 1.47463 -0.556102 0
M  V30 9277 C 905.529 2.28046 0.22968 0
M  V30 9278 C 906.542 1.3694 0.880409 0
M  V30 9279 O 907.731 1.61773 0.754447 0
M  V30 9280 C 904.831 3.11165 1.34273 0
M  V30 9281 C 904.004 4.30225 0.789004 0
M  V30 9282 C 903.063 4.94948 1.78641 0
M  V30 9283 O 902.089 5.53372 1.33297 0
M  V30 9284 N 903.291 4.89543 3.11974 0
M  V30 9285 H 906.056 2.96125 -0.461558 0
M  V30 9286 H 903.617 1.5708 -0.392105 0
M  V30 9287 H 905.609 3.51331 2.00869 0
M  V30 9288 H 904.179 2.45337 1.93722 0
M  V30 9289 H 903.399 3.94163 -0.0536971 0
M  V30 9290 H 904.687 5.07238 0.398378 0
M  V30 9291 H 904.085 4.43275 3.51459 0
M  V30 9292 H 902.642 5.33732 3.74131 0
M  V30 9293 N 906.075 0.2925 1.54862 0
M  V30 9294 C 907.007 -0.620889 2.2063 0
M  V30 9295 C 908.02 -1.10412 1.19637 0
M  V30 9296 O 909.209 -1.02304 1.46274 0
M  V30 9297 C 906.309 -1.861 2.83232 0
M  V30 9298 C 905.482 -1.52168 4.10078 0
M  V30 9299 C 904.541 -2.61605 4.56562 0
M  V30 9300 O 903.567 -2.27056 5.21952 0
M  V30 9301 N 904.769 -3.9199 4.28163 0
M  V30 9302 H 907.534 -0.0579028 2.99644 0
M  V30 9303 H 905.095 0.114333 1.61496 0
M  V30 9304 H 907.087 -2.58642 3.11266 0
M  V30 9305 H 905.657 -2.33259 2.08108 0
M  V30 9306 H 904.877 -0.629283 3.89145 0
M  V30 9307 H 906.165 -1.27023 4.92689 0
M  V30 9308 H 905.563 -4.22872 3.7576 0
M  V30 9309 H 904.12 -4.60857 4.60928 0
M  V30 9310 N 907.553 -1.57587 0.0200696 0
M  V30 9311 C 908.5 -2.09667 -0.964791 0
M  V30 9312 C 909.47 -0.99664 -1.32877 0
M  V30 9313 O 910.655 -1.2703 -1.42366 0
M  V30 9314 C 907.795 -2.62101 -2.24493 0
M  V30 9315 C 906.908 -3.8608 -1.93821 0
M  V30 9316 C 906.043 -4.26939 -3.16064 0
M  V30 9317 C 905.082 -5.43701 -2.81169 0
M  V30 9318 N 904.219 -5.79759 -3.9601 0
M  V30 9319 H 909.059 -2.93538 -0.513751 0
M  V30 9320 H 906.596 -1.45096 -0.242 0
M  V30 9321 H 908.554 -2.90587 -2.99358 0
M  V30 9322 H 907.184 -1.81074 -2.6723 0
M  V30 9323 H 906.236 -3.64378 -1.09237 0
M  V30 9324 H 907.548 -4.71028 -1.64115 0
M  V30 9325 H 906.702 -4.56814 -3.99257 0
M  V30 9326 H 905.441 -3.40739 -3.48924 0
M  V30 9327 H 904.446 -5.13529 -1.96387 0
M  V30 9328 H 905.671 -6.31593 -2.49535 0
M  V30 9329 H 903.617 -4.96516 -4.28729 0
M  V30 9330 H 903.534 -6.59327 -3.69896 0
M  V30 9331 H 904.802 -6.14235 -4.79933 0
M  V30 9332 N 909.032 0.252966 -1.55557 0
M  V30 9333 C 909.979 1.3131 -1.89806 0
M  V30 9334 C 910.949 1.48121 -0.751633 0
M  V30 9335 O 912.134 1.62202 -1.00474 0
M  V30 9336 C 909.274 2.66467 -2.19293 0
M  V30 9337 C 908.387 2.57714 -3.46709 0
M  V30 9338 C 907.522 3.85184 -3.65796 0
M  V30 9339 C 906.561 3.71023 -4.86835 0
M  V30 9340 N 905.698 4.90371 -5.02474 0
M  V30 9341 H 910.538 1.01402 -2.80217 0
M  V30 9342 H 908.075 0.489462 -1.38718 0
M  V30 9343 H 910.033 3.45132 -2.34392 0
M  V30 9344 H 908.663 2.94536 -1.32093 0
M  V30 9345 H 907.715 1.70651 -3.39974 0
M  V30 9346 H 909.027 2.43158 -4.35517 0
M  V30 9347 H 908.181 4.72292 -3.80822 0
M  V30 9348 H 906.92 4.0263 -2.7521 0
M  V30 9349 H 905.925 2.82299 -4.71792 0
M  V30 9350 H 907.15 3.55078 -5.78875 0
M  V30 9351 H 905.096 5.0819 -4.14824 0
M  V30 9352 H 905.013 4.78423 -5.85361 0
M  V30 9353 H 906.281 5.78995 -5.21905 0
M  V30 9354 N 910.51 1.48831 0.518367 0
M  V30 9355 C 911.921 1.50842 1.10016 0
M  V30 9356 C 912.272 0.284744 1.94123 0
M  V30 9357 O 911.397 -0.607088 2.0771 0
M  V30 9358 C 911.992 2.73329 2.00191 0
M  V30 9359 C 910.551 2.78175 2.53566 0
M  V30 9360 C 909.698 2.4452 1.30786 0
M  V30 9361 H 912.649 1.55779 0.303073 0
M  V30 9362 H 912.67 2.52506 2.84642 0
M  V30 9363 H 912.182 3.62374 1.3895 0
M  V30 9364 H 910.283 1.93368 3.18496 0
M  V30 9365 H 910.396 3.79905 2.91906 0
M  V30 9366 H 908.76 1.95924 1.62744 0
M  V30 9367 H 909.543 3.35819 0.712797 0
M  V30 9368 N 911.988 -0.768124 1.37614 0
M  V30 9369 C 913.235 -1.5268 1.33022 0
M  V30 9370 C 913.563 -1.94318 -0.0841918 0
M  V30 9371 O 912.818 -1.64623 -1.0582 0
M  V30 9372 C 913.117 -2.80204 2.21856 0
M  V30 9373 C 912.783 -2.57602 3.7007 0
M  V30 9374 C 911.445 -2.51146 4.10462 0
M  V30 9375 C 913.797 -2.37482 4.63952 0
M  V30 9376 C 911.125 -2.22566 5.42846 0
M  V30 9377 C 913.477 -2.10425 5.96577 0
M  V30 9378 C 912.141 -2.02416 6.36069 0
M  V30 9379 H 911.411 -0.558697 0.486763 0
M  V30 9380 H 914.058 -0.88447 1.69851 0
M  V30 9381 H 912.363 -3.49014 1.78034 0
M  V30 9382 H 914.06 -3.38099 2.15615 0
M  V30 9383 H 910.65 -2.63491 3.38039 0
M  V30 9384 H 914.834 -2.41457 4.33604 0
M  V30 9385 H 910.09 -2.14863 5.72402 0
M  V30 9386 H 914.264 -1.93857 6.68874 0
M  V30 9387 H 911.891 -1.80034 7.38574 0
M  V30 9388 N 913.466 -1.22244 -0.994698 0
M  V30 9389 C 914.376 -1.00722 -2.11878 0
M  V30 9390 C 915.392 0.043919 -1.73945 0
M  V30 9391 O 916.568 -0.148411 -2.00852 0
M  V30 9392 C 913.633 -0.585723 -3.41717 0
M  V30 9393 C 912.694 -1.71027 -3.93762 0
M  V30 9394 C 911.927 -1.30879 -5.17403 0
M  V30 9395 O 912.15 -0.18681 -5.70094 0
M  V30 9396 O 911.084 -2.1246 -5.63156 0
M  V30 9397 H 914.91 -1.94894 -2.32916 0
M  V30 9398 H 912.495 -1.00822 -1.10251 0
M  V30 9399 H 914.377 -0.360935 -4.19851 0
M  V30 9400 H 913.052 0.327166 -3.22042 0
M  V30 9401 H 911.959 -1.98956 -3.16808 0
M  V30 9402 H 913.292 -2.60096 -4.17865 0
M  V30 9403 N 914.944 1.19125 -1.03184 0
M  V30 9404 C 915.854 2.26112 -0.625329 0
M  V30 9405 C 916.87 1.7056 0.344298 0
M  V30 9406 O 918.046 2.0039 0.20144 0
M  V30 9407 C 915.111 3.46697 0.0145169 0
M  V30 9408 C 914.172 4.17419 -1.00299 0
M  V30 9409 C 913.405 5.32247 -0.393581 0
M  V30 9410 O 913.628 5.64724 0.802659 0
M  V30 9411 O 912.562 5.91428 -1.1179 0
M  V30 9412 H 916.388 2.63131 -1.51643 0
M  V30 9413 H 913.973 1.26036 -0.802197 0
M  V30 9414 H 915.855 4.19762 0.371139 0
M  V30 9415 H 914.53 3.11521 0.879581 0
M  V30 9416 H 913.437 3.4646 -1.41125 0
M  V30 9417 H 914.77 4.56573 -1.83852 0
M  V30 9418 N 916.422 0.810101 1.35185 0
M  V30 9419 C 917.372 0.195541 2.2716 0
M  V30 9420 C 918.356 -0.632691 1.47939 0
M  V30 9421 O 919.548 -0.489372 1.701 0
M  V30 9422 C 916.677 -0.652164 3.37049 0
M  V30 9423 C 915.763 0.185989 4.23692 0
M  V30 9424 N 916.154 1.25073 4.90092 0
M  V30 9425 C 914.452 -0.0318033 4.45989 0
M  V30 9426 C 915.153 1.76272 5.54349 0
M  V30 9427 N 914.129 1.06861 5.32993 0
M  V30 9428 H 917.931 1.01018 2.75994 0
M  V30 9429 H 915.445 0.651612 1.48754 0
M  V30 9430 H 917.442 -1.10851 4.01893 0
M  V30 9431 H 916.102 -1.46511 2.89767 0
M  V30 9432 H 917.113 1.63341 4.91467 0
M  V30 9433 H 913.79 -0.813607 4.09496 0
M  V30 9434 H 915.18 2.65278 6.17315 0
M  V30 9435 N 917.9 -1.47166 0.563914 0
M  V30 9436 C 919.146 -2.03337 0.0506932 0
M  V30 9437 C 919.501 -1.42976 -1.28746 0
M  V30 9438 O 918.794 -0.578508 -1.82658 0
M  V30 9439 C 918.988 -3.57279 -0.0931797 0
M  V30 9440 C 918.817 -4.32567 1.22948 0
M  V30 9441 C 917.587 -4.72206 1.79859 0
M  V30 9442 C 919.785 -4.67282 2.14829 0
M  V30 9443 N 917.767 -5.32166 3.0606 0
M  V30 9444 C 919.138 -5.27615 3.25611 0
M  V30 9445 C 921.193 -4.49211 2.14741 0
M  V30 9446 C 919.896 -5.71784 4.36412 0
M  V30 9447 C 921.922 -4.94384 3.24559 0
M  V30 9448 C 921.284 -5.54771 4.34061 0
M  V30 9449 H 917.383 -0.779627 0.0608761 0
M  V30 9450 H 919.967 -1.79563 0.75268 0
M  V30 9451 H 918.138 -3.80806 -0.764301 0
M  V30 9452 H 919.87 -4.0009 -0.609075 0
M  V30 9453 H 916.625 -4.54372 1.33577 0
M  V30 9454 H 917.049 -5.66684 3.70404 0
M  V30 9455 H 921.691 -4.01875 1.31362 0
M  V30 9456 H 919.409 -6.18108 5.20546 0
M  V30 9457 H 922.995 -4.82167 3.25586 0
M  V30 9458 H 921.875 -5.89087 5.17635 0
M  V30 9459 N 919.378 -0.300708 -1.54705 0
M  V30 9460 C 920.794 0.0526874 -1.59513 0
M  V30 9461 C 920.994 1.52444 -1.31769 0
M  V30 9462 O 920.05 2.27716 -1.09096 0
M  V30 9463 C 921.363 -0.344989 -2.98714 0
M  V30 9464 C 922.911 -0.29373 -3.11619 0
M  V30 9465 C 923.386 -0.666225 -4.53129 0
M  V30 9466 N 924.877 -0.618749 -4.59049 0
M  V30 9467 C 925.612 -0.879447 -5.66616 0
M  V30 9468 N 925.108 -1.2061 -6.82221 0
M  V30 9469 N 926.901 -0.806528 -5.56284 0
M  V30 9470 H 919.052 -1.25988 -1.71 0
M  V30 9471 H 921.315 -0.510758 -0.798643 0
M  V30 9472 H 921.021 -1.36953 -3.2394 0
M  V30 9473 H 920.895 0.301507 -3.75993 0
M  V30 9474 H 923.282 0.72156 -2.86142 0
M  V30 9475 H 923.363 -0.974844 -2.36496 0
M  V30 9476 H 923.007 -1.67932 -4.79334 0
M  V30 9477 H 922.937 0.0369575 -5.26587 0
M  V30 9478 H 925.428 -0.377202 -3.76013 0
M  V30 9479 H 925.741 -1.391 -7.60178 0
M  V30 9480 H 924.086 -1.24413 -6.83774 0
M  V30 9481 H 927.277 -0.550993 -4.64846 0
M  V30 9482 H 927.45 -1.01307 -6.40032 0
M  V30 9483 N 920.856 1.57574 -0.0284266 0
M  V30 9484 C 921.803 2.10176 0.953658 0
M  V30 9485 C 922.773 1.00367 1.32347 0
M  V30 9486 O 923.958 1.27783 1.4169 0
M  V30 9487 C 921.098 2.63287 2.231 0
M  V30 9488 C 920.211 3.87102 1.91771 0
M  V30 9489 C 919.346 4.28609 3.13795 0
M  V30 9490 C 918.385 5.45184 2.78282 0
M  V30 9491 N 917.522 5.81851 3.92929 0
M  V30 9492 H 922.362 2.93806 0.498176 0
M  V30 9493 H 919.899 1.45222 0.234302 0
M  V30 9494 H 921.857 2.9217 2.97813 0
M  V30 9495 H 920.487 1.82489 2.66266 0
M  V30 9496 H 919.539 3.64952 1.07303 0
M  V30 9497 H 920.851 4.71892 1.61615 0
M  V30 9498 H 920.005 4.58925 3.96829 0
M  V30 9499 H 918.744 3.42585 3.47112 0
M  V30 9500 H 917.749 5.14563 1.93661 0
M  V30 9501 H 918.974 6.32907 2.46182 0
M  V30 9502 H 916.92 4.98782 4.2609 0
M  V30 9503 H 916.837 6.6128 3.66395 0
M  V30 9504 H 918.105 6.16772 4.76669 0
M  V30 9505 N 922.334 -0.244713 1.55689 0
M  V30 9506 C 923.284 -1.30596 1.86892 0
M  V30 9507 C 924.268 -1.43388 0.729972 0
M  V30 9508 O 925.46 -1.46593 0.99194 0
M  V30 9509 C 922.589 -2.66099 2.16902 0
M  V30 9510 C 921.675 -2.57302 3.37129 0
M  V30 9511 N 922.066 -2.18139 4.56343 0
M  V30 9512 C 920.364 -2.88311 3.40283 0
M  V30 9513 C 921.065 -2.20028 5.38482 0
M  V30 9514 N 920.041 -2.59616 4.77599 0
M  V30 9515 H 923.843 -0.993699 2.76591 0
M  V30 9516 H 921.357 -0.453334 1.55944 0
M  V30 9517 H 923.354 -3.4269 2.37422 0
M  V30 9518 H 922.014 -2.9819 1.28502 0
M  V30 9519 H 923.025 -1.89647 4.81928 0
M  V30 9520 H 919.702 -3.24928 2.62161 0
M  V30 9521 H 921.092 -1.9207 6.43862 0
M  V30 9522 N 923.813 -1.49104 -0.510467 0
M  V30 9523 C 925.041 -1.61806 -1.28944 0
M  V30 9524 C 925.456 -0.285774 -1.86625 0
M  V30 9525 O 924.813 0.727551 -1.67371 0
M  V30 9526 C 924.864 -2.67966 -2.42645 0
M  V30 9527 O 924.585 -3.96026 -1.87337 0
M  V30 9528 C 926.086 -2.91286 -3.34166 0
M  V30 9529 H 923.306 -0.544999 -0.391429 0
M  V30 9530 H 925.85 -1.95071 -0.613805 0
M  V30 9531 H 924.005 -2.37505 -3.06056 0
M  V30 9532 H 924.419 -4.54427 -2.61909 0
M  V30 9533 H 925.893 -3.69323 -4.1025 0
M  V30 9534 H 926.37 -2.00842 -3.90588 0
M  V30 9535 H 926.976 -3.23127 -2.76531 0
M  V30 9536 N 925.291 0.760815 -1.38019 0
M  V30 9537 C 926.221 1.88811 -1.37377 0
M  V30 9538 C 927.202 1.68388 -0.240737 0
M  V30 9539 O 928.387 1.89086 -0.442739 0
M  V30 9540 C 925.517 3.26244 -1.1909 0
M  V30 9541 C 924.471 3.61254 -2.29521 0
M  V30 9542 C 923.797 4.97346 -1.96345 0
M  V30 9543 C 925.097 3.66874 -3.71753 0
M  V30 9544 H 926.791 1.89606 -2.31711 0
M  V30 9545 H 924.337 0.910818 -1.11535 0
M  V30 9546 H 926.29 4.04755 -1.17267 0
M  V30 9547 H 925.014 3.2591 -0.212152 0
M  V30 9548 H 923.673 2.85057 -2.30517 0
M  V30 9549 H 923.321 4.93564 -0.969728 0
M  V30 9550 H 923.021 5.21739 -2.703 0
M  V30 9551 H 924.545 5.78244 -1.96129 0
M  V30 9552 H 925.959 4.35514 -3.72828 0
M  V30 9553 H 924.356 4.02772 -4.44853 0
M  V30 9554 H 925.426 2.67273 -4.0459 0
M  V30 9555 N 926.769 1.22769 0.988202 0
M  V30 9556 C 927.994 1.08239 1.76915 0
M  V30 9557 C 928.419 -0.362519 1.84574 0
M  V30 9558 O 927.777 -1.26202 1.30165 0
M  V30 9559 C 927.825 1.70363 3.17819 0
M  V30 9560 O 926.929 0.960484 4.01059 0
M  V30 9561 H 926.27 0.379872 0.544604 0
M  V30 9562 H 928.8 1.62663 1.24104 0
M  V30 9563 H 928.81 1.7528 3.6843 0
M  V30 9564 H 927.485 2.75505 3.1156 0
M  V30 9565 H 926.062 0.987667 3.59582 0
M  V30 9566 N 928.247 -1.18576 1.03814 0
M  V30 9567 C 929.477 -1.92158 0.758864 0
M  V30 9568 C 929.885 -1.76267 -0.687498 0
M  V30 9569 O 929.228 -1.08806 -1.4801 0
M  V30 9570 C 929.29 -3.44063 1.04217 0
M  V30 9571 C 928.954 -3.8373 2.48193 0
M  V30 9572 C 929.951 -3.87722 3.46363 0
M  V30 9573 C 927.636 -4.151 2.82838 0
M  V30 9574 C 929.63 -4.2253 4.77229 0
M  V30 9575 C 927.317 -4.49578 4.13911 0
M  V30 9576 C 928.315 -4.53269 5.10917 0
M  V30 9577 O 928.003 -4.86945 6.39641 0
M  V30 9578 H 927.735 -0.61694 0.276335 0
M  V30 9579 H 930.289 -1.51388 1.38819 0
M  V30 9580 H 928.519 -3.85061 0.355709 0
M  V30 9581 H 930.208 -3.9889 0.751091 0
M  V30 9582 H 930.974 -3.63627 3.20936 0
M  V30 9583 H 926.853 -4.11406 2.08006 0
M  V30 9584 H 930.397 -4.25326 5.52941 0
M  V30 9585 H 926.294 -4.73133 4.39107 0
M  V30 9586 H 927.062 -5.04857 6.44253 0
M  V30 9587 N 929.725 -0.817259 -1.34754 0
M  V30 9588 C 930.971 -0.403244 -1.98751 0
M  V30 9589 C 931.304 1.02963 -1.64658 0
M  V30 9590 O 930.579 1.71617 -0.915314 0
M  V30 9591 C 930.862 -0.599188 -3.5508 0
M  V30 9592 C 930.715 -2.07777 -3.98934 0
M  V30 9593 C 932.034 -0.0315656 -4.40089 0
M  V30 9594 H 929.153 -0.147988 -0.721989 0
M  V30 9595 H 931.795 -1.02877 -1.59738 0
M  V30 9596 H 929.945 -0.0667116 -3.88443 0
M  V30 9597 H 931.617 -2.67345 -3.75931 0
M  V30 9598 H 929.86 -2.57031 -3.49453 0
M  V30 9599 H 930.531 -2.16571 -5.07741 0
M  V30 9600 H 933.007 -0.48644 -4.13247 0
M  V30 9601 H 931.883 -0.198507 -5.48541 0
M  V30 9602 H 932.144 1.06302 -4.2913 0
M  V30 9603 N 931.203 1.46865 -0.571711 0
M  V30 9604 C 932.48 1.95596 0.0132445 0
M  V30 9605 C 932.86 1.51438 1.47071 0
M  V30 9606 O 932.208 0.759917 2.15494 0
M  V30 9607 C 932.418 3.48689 -0.147335 0
M  V30 9608 C 933.766 4.24599 -0.00946329 0
M  V30 9609 O 934.79 3.5612 -0.0756112 0
M  V30 9610 O 933.649 5.46332 0.135361 0
M  V30 9611 H 930.743 0.825102 0.0560039 0
M  V30 9612 H 933.289 1.57199 -0.639256 0
M  V30 9613 H 932.061 3.73681 -1.16096 0
M  V30 9614 H 931.684 3.93887 0.542109 0
M  V30 9615 N 932.681 0.308908 1.54543 0
M  V30 9616 C 933.927 -0.298478 2.00592 0
M  V30 9617 C 934.26 -1.52929 1.19692 0
M  V30 9618 O 933.535 -1.9254 0.27542 0
M  V30 9619 C 933.818 -0.647218 3.54236 0
M  V30 9620 C 933.671 0.593284 4.4587 0
M  V30 9621 C 934.99 -1.47064 4.14801 0
M  V30 9622 H 932.109 -0.107012 0.72919 0
M  V30 9623 H 934.751 0.422578 1.85241 0
M  V30 9624 H 932.901 -1.26153 3.67447 0
M  V30 9625 H 934.573 1.2317 4.44552 0
M  V30 9626 H 932.816 1.22501 4.16144 0
M  V30 9627 H 933.487 0.305018 5.51157 0
M  V30 9628 H 935.963 -0.951511 4.05075 0
M  V30 9629 H 934.839 -1.68343 5.22448 0
M  V30 9630 H 935.1 -2.4623 3.67183 0
M  V30 9631 N 934.159 -1.57557 0.0367827 0
M  V30 9632 C 935.407 -1.91735 -0.63892 0
M  V30 9633 C 935.728 -0.914515 -1.72226 0
M  V30 9634 O 934.998 0.0428248 -1.95853 0
M  V30 9635 H 933.578 -0.707738 -0.23899 0
M  V30 9636 H 936.24 -1.94708 0.0863931 0
M  V30 9637 H 935.336 -2.92568 -1.08676 0
M  V30 9638 N 935.637 0.236453 -1.55816 0
M  V30 9639 C 936.865 0.980295 -1.82203 0
M  V30 9640 C 937.28 1.7854 -0.613926 0
M  V30 9641 O 936.637 1.77661 0.417491 0
M  V30 9642 C 936.688 1.90982 -3.06933 0
M  V30 9643 O 936.409 1.13728 -4.23081 0
M  V30 9644 C 937.91 2.76879 -3.46198 0
M  V30 9645 H 935.13 0.28799 -0.606055 0
M  V30 9646 H 937.674 0.256182 -2.02889 0
M  V30 9647 H 935.829 2.58808 -2.88266 0
M  V30 9648 H 936.243 1.76694 -4.93842 0
M  V30 9649 H 937.717 3.37831 -4.36548 0
M  V30 9650 H 938.194 3.48522 -2.67262 0
M  V30 9651 H 938.8 2.1449 -3.67252 0
M  V30 9652 N 937.115 1.49373 0.502552 0
M  V30 9653 C 938.363 1.58467 1.25429 0
M  V30 9654 C 938.684 0.272593 1.93085 0
M  V30 9655 O 937.954 -0.707947 1.82661 0
M  V30 9656 H 936.534 0.583866 0.46595 0
M  V30 9657 H 939.196 1.8599 0.582568 0
M  V30 9658 H 938.292 2.37993 2.01906 0
M  V30 9659 N 938.594 -0.753485 1.38421 0
M  V30 9660 C 939.541 -1.86723 1.35659 0
M  V30 9661 C 940.511 -1.64648 0.219121 0
M  V30 9662 O 941.696 -1.86313 0.411366 0
M  V30 9663 C 938.836 -3.24023 1.18758 0
M  V30 9664 C 937.949 -3.57928 2.41892 0
M  V30 9665 C 937.084 -4.84532 2.17721 0
M  V30 9666 C 936.123 -5.11224 3.36626 0
M  V30 9667 N 935.26 -6.29023 3.11889 0
M  V30 9668 H 940.1 -1.88419 2.30873 0
M  V30 9669 H 937.637 -0.920934 1.14705 0
M  V30 9670 H 939.595 -4.03252 1.06974 0
M  V30 9671 H 938.225 -3.21654 0.27182 0
M  V30 9672 H 937.277 -2.73541 2.64347 0
M  V30 9673 H 938.589 -3.73581 3.30513 0
M  V30 9674 H 937.743 -5.71704 2.03074 0
M  V30 9675 H 936.482 -4.71018 1.26465 0
M  V30 9676 H 935.487 -4.2252 3.51791 0
M  V30 9677 H 936.712 -5.26635 4.28757 0
M  V30 9678 H 934.658 -6.16832 2.2328 0
M  V30 9679 H 934.575 -6.45177 3.9406 0
M  V30 9680 H 935.843 -7.19083 3.00898 0
M  V30 9681 N 940.072 -1.23292 -0.981677 0
M  V30 9682 C 941.318 -1.06582 -1.72535 0
M  V30 9683 C 941.651 0.396538 -1.90108 0
M  V30 9684 O 940.926 1.29363 -1.45243 0
M  V30 9685 C 941.209 -1.7904 -3.12437 0
M  V30 9686 C 941.062 -3.32941 -3.02441 0
M  V30 9687 C 942.381 -1.55185 -4.11832 0
M  V30 9688 H 939.5 -0.388585 -0.626236 0
M  V30 9689 H 942.142 -1.51779 -1.14293 0
M  V30 9690 H 940.292 -1.40619 -3.62158 0
M  V30 9691 H 941.964 -3.80875 -2.60254 0
M  V30 9692 H 940.207 -3.62039 -2.38977 0
M  V30 9693 H 940.878 -3.78827 -4.0149 0
M  V30 9694 H 943.354 -1.88581 -3.70913 0
M  V30 9695 H 942.23 -2.08362 -5.07815 0
M  V30 9696 H 942.491 -0.486925 -4.3941 0
M  V30 9697 N 941.55 1.18024 -1.04442 0
M  V30 9698 C 942.778 1.92032 -0.770161 0
M  V30 9699 C 943.193 1.76391 0.673181 0
M  V30 9700 O 942.55 1.09604 1.45922 0
M  V30 9701 C 942.601 3.43328 -1.13173 0
M  V30 9702 O 942.322 3.5848 -2.51841 0
M  V30 9703 C 943.823 4.34427 -0.882523 0
M  V30 9704 H 941.043 0.609518 -0.280586 0
M  V30 9705 H 943.587 1.49711 -1.39308 0
M  V30 9706 H 941.742 3.83423 -0.553704 0
M  V30 9707 H 942.156 4.52166 -2.65794 0
M  V30 9708 H 943.63 5.39123 -1.18533 0
M  V30 9709 H 944.107 4.3882 0.18257 0
M  V30 9710 H 944.713 4.00035 -1.44403 0
M  V30 9711 N 943.028 0.824394 1.34319 0
M  V30 9712 C 943.958 0.262077 2.32025 0
M  V30 9713 C 944.939 -0.622277 1.58309 0
M  V30 9714 O 946.124 -0.548848 1.86283 0
M  V30 9715 C 943.254 -0.57567 3.42496 0
M  V30 9716 C 942.208 0.21167 4.27476 0
M  V30 9717 C 941.534 -0.748913 5.29429 0
M  V30 9718 C 942.834 1.42068 5.02607 0
M  V30 9719 H 944.528 1.07842 2.79304 0
M  V30 9720 H 942.074 0.520022 1.34282 0
M  V30 9721 H 944.027 -0.979251 4.09864 0
M  V30 9722 H 942.751 -1.42508 2.93869 0
M  V30 9723 H 941.41 0.596636 3.61712 0
M  V30 9724 H 941.058 -1.59432 4.77064 0
M  V30 9725 H 940.758 -0.226313 5.87164 0
M  V30 9726 H 942.282 -1.15032 5.99667 0
M  V30 9727 H 943.696 1.09103 5.62823 0
M  V30 9728 H 942.093 1.87903 5.69923 0
M  V30 9729 H 943.163 2.1981 4.32217 0
M  V30 9730 N 944.506 -1.46559 0.579492 0
M  V30 9731 C 945.416 -2.34066 -0.15816 0
M  V30 9732 C 946.432 -1.49556 -0.88932 0
M  V30 9733 O 947.608 -1.82434 -0.853226 0
M  V30 9734 C 944.673 -3.26683 -1.161 0
M  V30 9735 C 943.734 -4.27092 -0.434855 0
M  V30 9736 C 942.967 -5.15283 -1.38992 0
M  V30 9737 O 943.19 -5.06345 -2.62623 0
M  V30 9738 O 942.124 -5.95099 -0.902253 0
M  V30 9739 H 945.95 -2.98488 0.560234 0
M  V30 9740 H 943.535 -1.45482 0.339918 0
M  V30 9741 H 945.417 -3.8383 -1.73932 0
M  V30 9742 H 944.092 -2.64862 -1.86091 0
M  V30 9743 H 942.999 -3.73641 0.185224 0
M  V30 9744 H 944.332 -4.9169 0.224031 0
M  V30 9745 N 945.984 -0.3171 -1.54377 0
M  V30 9746 C 947.214 0.289138 -2.04567 0
M  V30 9747 C 947.622 1.46833 -1.19318 0
M  V30 9748 O 946.965 1.82436 -0.215141 0
M  V30 9749 C 947.027 0.792994 -3.50645 0
M  V30 9750 C 946.691 -0.263033 -4.56242 0
M  V30 9751 C 947.688 -1.09694 -5.08196 0
M  V30 9752 C 945.373 -0.409364 -5.00629 0
M  V30 9753 C 947.367 -2.06297 -6.03092 0
M  V30 9754 C 945.054 -1.37882 -5.95342 0
M  V30 9755 C 946.052 -2.20409 -6.46459 0
M  V30 9756 O 945.74 -3.15708 -7.39313 0
M  V30 9757 H 945.472 0.0644005 -0.672925 0
M  V30 9758 H 948.026 -0.459438 -2.00196 0
M  V30 9759 H 946.256 1.59237 -3.52392 0
M  V30 9760 H 947.945 1.31687 -3.83944 0
M  V30 9761 H 948.711 -0.994842 -4.74687 0
M  V30 9762 H 944.59 0.223091 -4.6046 0
M  V30 9763 H 948.134 -2.70751 -6.42915 0
M  V30 9764 H 944.031 -1.48158 -6.28267 0
M  V30 9765 H 944.799 -3.10873 -7.57166 0
M  V30 9766 N 947.462 1.57535 -0.0451378 0
M  V30 9767 C 948.878 1.56533 0.311373 0
M  V30 9768 C 949.078 1.05225 1.71843 0
M  V30 9769 O 948.134 0.706144 2.42425 0
M  V30 9770 C 949.447 3.00349 0.145348 0
M  V30 9771 C 950.995 3.12248 0.216908 0
M  V30 9772 C 951.47 4.57931 0.0794834 0
M  V30 9773 N 952.961 4.63 0.135954 0
M  V30 9774 C 953.696 5.73375 0.0536426 0
M  V30 9775 N 953.192 6.92753 -0.0806725 0
M  V30 9776 N 954.985 5.61995 0.108789 0
M  V30 9777 H 947.136 1.89211 -0.965044 0
M  V30 9778 H 949.399 0.871068 -0.374091 0
M  V30 9779 H 949.105 3.41898 -0.824533 0
M  V30 9780 H 948.979 3.66086 0.908903 0
M  V30 9781 H 951.366 2.70601 1.17726 0
M  V30 9782 H 951.447 2.49201 -0.577299 0
M  V30 9783 H 951.091 5.00262 -0.877516 0
M  V30 9784 H 951.021 5.18977 0.892758 0
M  V30 9785 H 953.512 3.77142 0.23926 0
M  V30 9786 H 953.825 7.7268 -0.136351 0
M  V30 9787 H 952.17 6.94904 -0.115675 0
M  V30 9788 H 955.361 4.67619 0.212235 0
M  V30 9789 H 955.534 6.47987 0.0411822 0
M  V30 9790 N 948.94 -0.228186 1.55939 0
M  V30 9791 C 950.351 -0.795734 1.68893 0
M  V30 9792 C 950.702 -1.85261 0.645967 0
M  V30 9793 O 949.827 -2.15434 -0.2042 0
M  V30 9794 C 950.422 -1.45013 3.06197 0
M  V30 9795 C 948.981 -1.96514 3.21028 0
M  V30 9796 C 948.128 -0.822918 2.64808 0
M  V30 9797 H 951.079 -0.0036485 1.587 0
M  V30 9798 H 951.1 -2.31875 3.01685 0
M  V30 9799 H 950.612 -0.680678 3.82084 0
M  V30 9800 H 948.713 -2.76282 2.49998 0
M  V30 9801 H 948.826 -2.14967 4.28166 0
M  V30 9802 H 947.19 -1.22846 2.23116 0
M  V30 9803 H 947.973 -0.0662493 3.43236 0
M  V30 9804 N 950.418 -1.49637 -0.494624 0
M  V30 9805 C 951.664 -1.59681 -1.25019 0
M  V30 9806 C 951.997 -0.285511 -1.9209 0
M  V30 9807 O 951.272 0.711398 -1.81023 0
M  V30 9808 C 951.555 -2.76058 -2.31222 0
M  V30 9809 C 951.408 -4.17002 -1.68611 0
M  V30 9810 C 952.727 -2.88056 -3.32734 0
M  V30 9811 H 949.846 -0.581209 -0.453172 0
M  V30 9812 H 952.488 -1.81944 -0.547391 0
M  V30 9813 H 950.638 -2.57207 -2.91164 0
M  V30 9814 H 952.31 -4.47385 -1.12447 0
M  V30 9815 H 950.553 -4.22352 -0.989991 0
M  V30 9816 H 951.224 -4.94316 -2.45674 0
M  V30 9817 H 953.7 -3.05237 -2.82789 0
M  V30 9818 H 952.576 -3.71151 -4.04399 0
M  V30 9819 H 952.837 -1.97676 -3.95445 0
M  V30 9820 N 951.896 0.746133 -1.38819 0
M  V30 9821 C 953.145 1.50085 -1.34749 0
M  V30 9822 C 953.458 1.95516 0.0574786 0
M  V30 9823 O 954.664 2.70601 0.22073 0
M  V30 9824 C 953.12 2.71141 -2.36665 0
M  V30 9825 C 952.728 2.32706 -3.82821 0
M  V30 9826 C 954.472 3.49005 -2.41652 0
M  V30 9827 C 952.379 3.50418 -4.76405 0
M  V30 9828 H 951.309 0.563563 -0.500912 0
M  V30 9829 H 953.96 0.814951 -1.6441 0
M  V30 9830 H 952.342 3.4175 -2.00058 0
M  V30 9831 H 953.516 1.69715 -4.28408 0
M  V30 9832 H 951.831 1.67959 -3.81023 0
M  V30 9833 H 954.428 4.36541 -3.08766 0
M  V30 9834 H 954.771 3.90687 -1.43769 0
M  V30 9835 H 955.304 2.85416 -2.77097 0
M  V30 9836 H 952.043 3.13795 -5.75511 0
M  V30 9837 H 951.563 4.12426 -4.35505 0
M  V30 9838 H 953.242 4.16901 -4.94775 0
M  V30 9839 N 953.375 1.23811 0.975125 0
M  V30 9840 C 954.652 0.9815 1.69192 0
M  V30 9841 C 955.032 -0.498373 2.05133 0
M  V30 9842 O 954.38 -1.47087 1.74864 0
M  V30 9843 C 954.59 1.89701 2.92941 0
M  V30 9844 C 955.938 2.16357 3.65342 0
M  V30 9845 O 956.962 1.87293 3.02985 0
M  V30 9846 O 955.821 2.65675 4.77576 0
M  V30 9847 H 952.915 0.370599 0.739314 0
M  V30 9848 H 955.461 1.34876 1.02988 0
M  V30 9849 H 954.233 2.89719 2.63018 0
M  V30 9850 H 953.856 1.53244 3.66881 0
M  V30 9851 N 954.853 -1.17469 1.05066 0
M  V30 9852 C 955.8 -2.21443 0.650512 0
M  V30 9853 C 956.77 -1.62441 -0.346702 0
M  V30 9854 O 957.955 -1.89305 -0.238404 0
M  V30 9855 C 955.095 -3.45087 0.0301014 0
M  V30 9856 C 954.208 -4.18385 1.07599 0
M  V30 9857 C 953.343 -5.29513 0.423038 0
M  V30 9858 C 952.382 -5.94596 1.45333 0
M  V30 9859 N 951.519 -6.97241 0.824623 0
M  V30 9860 H 956.359 -2.55025 1.54163 0
M  V30 9861 H 953.896 -1.25274 0.771032 0
M  V30 9862 H 955.854 -4.15754 -0.347032 0
M  V30 9863 H 954.484 -3.12093 -0.824481 0
M  V30 9864 H 953.536 -3.46446 1.57097 0
M  V30 9865 H 954.848 -4.62899 1.85813 0
M  V30 9866 H 954.002 -6.067 -0.00774975 0
M  V30 9867 H 952.741 -4.86129 -0.391092 0
M  V30 9868 H 951.746 -5.16142 1.89415 0
M  V30 9869 H 952.971 -6.40061 2.26934 0
M  V30 9870 H 950.917 -6.55993 0.0309804 0
M  V30 9871 H 950.834 -7.40059 1.54432 0
M  V30 9872 H 952.102 -7.78375 0.418567 0
M  V30 9873 N 956.331 -0.831506 -1.3388 0
M  V30 9874 C 957.559 -0.436925 -2.02234 0
M  V30 9875 C 957.974 0.959689 -1.6259 0
M  V30 9876 O 957.331 1.62248 -0.835576 0
M  V30 9877 C 957.382 -0.539429 -3.57453 0
M  V30 9878 O 957.103 -1.88101 -3.95664 0
M  V30 9879 C 958.604 -0.140852 -4.43076 0
M  V30 9880 H 955.824 -0.174302 -0.647966 0
M  V30 9881 H 958.368 -1.12204 -1.70969 0
M  V30 9882 H 956.523 0.0976959 -3.87277 0
M  V30 9883 H 956.937 -1.86131 -4.90363 0
M  V30 9884 H 958.411 -0.26364 -5.5137 0
M  V30 9885 H 958.888 0.916505 -4.29531 0
M  V30 9886 H 959.494 -0.752117 -4.18597 0
M  V30 9887 N 957.809 1.4625 -0.587256 0
M  V30 9888 C 958.739 2.33132 0.131076 0
M  V30 9889 C 959.72 1.45619 0.879158 0
M  V30 9890 O 960.905 1.74428 0.853723 0
M  V30 9891 C 958.035 3.27975 1.14236 0
M  V30 9892 C 956.989 4.24965 0.508819 0
M  V30 9893 C 956.315 5.09349 1.62689 0
M  V30 9894 C 957.615 5.19322 -0.55694 0
M  V30 9895 H 959.309 2.93442 -0.594333 0
M  V30 9896 H 956.855 1.41106 -0.287263 0
M  V30 9897 H 958.808 3.87614 1.65328 0
M  V30 9898 H 957.532 2.65781 1.8981 0
M  V30 9899 H 956.191 3.66595 0.0189337 0
M  V30 9900 H 955.839 4.43537 2.37242 0
M  V30 9901 H 955.539 5.75036 1.20861 0
M  V30 9902 H 957.063 5.71852 2.14049 0
M  V30 9903 H 958.477 5.73151 -0.130903 0
M  V30 9904 H 956.874 5.93376 -0.895801 0
M  V30 9905 H 957.944 4.62979 -1.44148 0
M  V30 9906 N 959.287 0.325282 1.54207 0
M  V30 9907 C 960.235 -0.5554 2.25872 0
M  V30 9908 C 961.229 -1.11714 1.27344 0
M  V30 9909 O 962.435 -1.06498 1.45115 0
M  V30 9910 H 958.81 -0.19776 0.725531 0
M  V30 9911 H 960.781 0.0712858 2.98315 0
M  V30 9912 C 959.53 -1.70379 3.03095 0
M  V30 9913 H 958.853 -1.2808 3.78729 0
M  V30 9914 H 960.293 -2.29556 3.56483 0
M  V30 9915 C 958.752 -2.62242 2.11496 0
M  V30 9916 O 959.282 -3.64003 1.69895 0
M  V30 9917 N 957.488 -2.30515 1.7695 0
M  V30 9918 H 957.035 -1.47805 2.10978 0
M  V30 9919 H 956.993 -2.92241 1.15942 0
M  V30 9920 N 960.765 -1.57509 0.0534917 0
M  V30 9921 C 961.675 -2.15152 -0.935249 0
M  V30 9922 C 962.691 -1.10991 -1.34003 0
M  V30 9923 O 963.867 -1.43171 -1.41648 0
M  V30 9924 C 960.932 -2.68699 -2.19093 0
M  V30 9925 C 959.993 -3.87666 -1.84428 0
M  V30 9926 C 959.226 -4.3865 -3.0401 0
M  V30 9927 O 959.449 -3.887 -4.17455 0
M  V30 9928 O 958.383 -5.30209 -2.84889 0
M  V30 9929 H 962.209 -2.99962 -0.475009 0
M  V30 9930 H 959.794 -1.48446 -0.16854 0
M  V30 9931 H 961.676 -3.03098 -2.92762 0
M  V30 9932 H 960.351 -1.86958 -2.6425 0
M  V30 9933 H 959.258 -3.58151 -1.08068 0
M  V30 9934 H 960.591 -4.70643 -1.44068 0
M  V30 9935 N 962.243 0.219913 -1.56058 0
M  V30 9936 C 963.206 1.25606 -1.91718 0
M  V30 9937 C 964.206 1.39721 -0.795912 0
M  V30 9938 O 965.396 1.37958 -1.06364 0
M  V30 9939 C 962.528 2.62961 -2.16943 0
M  V30 9940 H 963.721 0.951909 -2.84392 0
M  V30 9941 H 961.274 0.460398 -1.49365 0
M  V30 9942 H 962.009 2.98472 -1.26826 0
M  V30 9943 H 961.794 2.54093 -2.98629 0
M  V30 9944 H 963.284 3.37727 -2.45622 0
M  V30 9945 N 963.721 1.49897 0.486681 0
M  V30 9946 C 964.998 1.50614 1.24799 0
M  V30 9947 C 965.378 0.24193 2.09709 0
M  V30 9948 O 964.726 -0.775237 2.14947 0
M  V30 9949 C 964.936 2.79318 2.09243 0
M  V30 9950 C 966.284 3.29371 2.67955 0
M  V30 9951 O 967.308 2.80533 2.19499 0
M  V30 9952 O 966.167 4.14466 3.56202 0
M  V30 9953 H 963.261 0.603447 0.565491 0
M  V30 9954 H 965.807 1.62174 0.499778 0
M  V30 9955 H 964.579 3.62812 1.46572 0
M  V30 9956 H 964.202 2.70687 2.91229 0
M  V30 9957 N 965.199 -0.738761 1.39212 0
M  V30 9958 C 966.439 -1.51093 1.3766 0
M  V30 9959 C 966.803 -1.91978 -0.0289655 0
M  V30 9960 O 968.004 -2.68265 -0.169465 0
M  V30 9961 C 966.275 -2.71988 2.31856 0
M  V30 9962 S 967.834 -3.61683 2.48458 0
M  V30 9963 H 964.652 -0.516868 0.48823 0
M  V30 9964 H 967.254 -0.865961 1.75275 0
M  V30 9965 H 965.958 -2.40085 3.32847 0
M  V30 9966 H 965.489 -3.41417 1.95443 0
M  V30 9967 H 967.504 -4.65447 1.71969 0
M  V30 9968 N 966.677 -1.24326 -0.968545 0
M  V30 9969 C 967.64 -1.03591 -2.04454 0
M  V30 9970 C 968.64 0.0064809 -1.60799 0
M  V30 9971 O 969.83 -0.234404 -1.72616 0
M  V30 9972 C 966.962 -0.56992 -3.36102 0
M  V30 9973 H 968.155 -1.99092 -2.24282 0
M  V30 9974 H 965.708 -1.06537 -1.14366 0
M  V30 9975 H 966.443 0.388325 -3.21967 0
M  V30 9976 H 966.228 -1.32227 -3.69132 0
M  V30 9977 H 967.718 -0.445854 -4.15213 0
M  V30 9978 N 968.156 1.1691 -1.05688 0
M  V30 9979 C 969.384 1.91204 -0.790485 0
M  V30 9980 C 969.799 1.77095 0.654434 0
M  V30 9981 O 969.156 1.11146 1.44751 0
M  V30 9982 C 969.207 3.42108 -1.16808 0
M  V30 9983 O 968.928 3.55788 -2.55629 0
M  V30 9984 C 970.429 4.33466 -0.92855 0
M  V30 9985 H 967.649 0.606508 -0.287035 0
M  V30 9986 H 970.193 1.48225 -1.40888 0
M  V30 9987 H 968.348 3.82814 -0.59434 0
M  V30 9988 H 968.762 4.49321 -2.70575 0
M  V30 9989 H 970.236 5.37836 -1.24245 0
M  V30 9990 H 970.713 4.38989 0.136016 0
M  V30 9991 H 971.319 3.98481 -1.48638 0
M  V30 9992 N 969.634 0.838594 1.33437 0
M  V30 9993 C 970.88 0.434813 1.98084 0
M  V30 9994 C 971.213 -1.00331 1.66275 0
M  V30 9995 O 970.488 -1.70139 0.942501 0
M  V30 9996 C 970.771 0.655602 3.54082 0
M  V30 9997 C 970.624 2.14097 3.95578 0
M  V30 9998 C 971.943 0.101576 4.39983 0
M  V30 9999 H 969.062 0.159456 0.719544 0
M  V30 10000 H 971.704 1.05406 1.58081 0
M  V30 10001 H 969.854 0.128501 3.88287 0
M  V30 10002 H 971.526 2.73292 3.71631 0
M  V30 10003 H 969.769 2.62558 3.4532 0
M  V30 10004 H 970.44 2.24621 5.04231 0
M  V30 10005 H 972.916 0.552122 4.12421 0
M  V30 10006 H 971.792 0.28575 5.48156 0
M  V30 10007 H 972.053 -0.994616 4.30767 0
M  V30 10008 N 971.112 -1.45937 0.595003 0
M  V30 10009 C 972.523 -1.85908 0.171779 0
M  V30 10010 C 972.874 -1.497 -1.26824 0
M  V30 10011 O 971.999 -0.917688 -1.95978 0
M  V30 10012 C 972.594 -3.37425 0.304976 0
M  V30 10013 C 971.153 -3.76346 -0.0634635 0
M  V30 10014 C 970.3 -2.69926 0.635255 0
M  V30 10015 H 973.251 -1.36916 0.802471 0
M  V30 10016 H 973.272 -3.77632 -0.466313 0
M  V30 10017 H 972.784 -3.63747 1.35314 0
M  V30 10018 H 970.885 -3.55642 -1.11129 0
M  V30 10019 H 970.998 -4.78021 0.321419 0
M  V30 10020 H 969.362 -2.54592 0.0742054 0
M  V30 10021 H 970.145 -2.99086 1.68531 0
M  V30 10022 N 972.59 -0.333456 -1.54032 0
M  V30 10023 C 974.001 0.15256 -1.86076 0
M  V30 10024 C 974.352 1.50819 -1.25492 0
M  V30 10025 O 973.477 2.08903 -0.564665 0
M  V30 10026 C 974.072 0.283599 -3.37611 0
M  V30 10027 C 972.631 0.713841 -3.69569 0
M  V30 10028 C 971.778 -0.158515 -2.76847 0
M  V30 10029 H 974.729 -0.553404 -1.48738 0
M  V30 10030 H 974.75 1.11284 -3.63863 0
M  V30 10031 H 974.262 -0.703193 -3.81676 0
M  V30 10032 H 972.363 1.71002 -3.31042 0
M  V30 10033 H 972.476 0.510731 -4.7637 0
M  V30 10034 H 970.84 0.367531 -2.52034 0
M  V30 10035 H 971.623 -1.14226 -3.2374 0
M  V30 10036 N 974.068 1.57479 -0.061844 0
M  V30 10037 C 975.031 2.1104 0.894127 0
M  V30 10038 C 976.031 1.03227 1.23292 0
M  V30 10039 O 977.221 1.29256 1.16784 0
M  V30 10040 C 974.353 2.6035 2.20069 0
M  V30 10041 H 975.546 2.96807 0.429619 0
M  V30 10042 H 973.099 1.55181 0.18672 0
M  V30 10043 H 973.834 1.78008 2.71079 0
M  V30 10044 H 973.619 3.39146 1.9678 0
M  V30 10045 H 975.109 3.019 2.88525 0
M  V30 10046 N 975.546 -0.211634 1.56173 0
M  V30 10047 C 976.795 -0.932647 1.78842 0
M  V30 10048 C 977.108 -1.85103 0.63217 0
M  V30 10049 O 978.314 -2.61143 0.742746 0
M  V30 10050 C 976.77 -1.70866 3.16753 0
M  V30 10051 C 976.378 -0.835934 4.40132 0
M  V30 10052 C 978.122 -2.4203 3.48743 0
M  V30 10053 C 976.029 -1.60987 5.69067 0
M  V30 10054 H 974.959 -0.351983 0.666801 0
M  V30 10055 H 977.61 -0.186284 1.82552 0
M  V30 10056 H 975.992 -2.4983 3.07247 0
M  V30 10057 H 977.166 -0.0861298 4.60719 0
M  V30 10058 H 975.481 -0.235941 4.15731 0
M  V30 10059 H 978.078 -3.00453 4.42303 0
M  V30 10060 H 978.421 -3.15406 2.71707 0
M  V30 10061 H 978.954 -1.70048 3.59623 0
M  V30 10062 H 975.693 -0.9192 6.49023 0
M  V30 10063 H 975.213 -2.33403 5.52524 0
M  V30 10064 H 976.892 -2.16798 6.09596 0
M  V30 10065 N 977.024 -1.50153 -0.478725 0
M  V30 10066 C 978.44 -1.3741 -0.811833 0
M  V30 10067 C 978.64 -0.424303 -1.96982 0
M  V30 10068 O 977.696 0.13588 -2.52134 0
M  V30 10069 C 979.009 -2.78616 -1.13108 0
M  V30 10070 C 980.557 -2.87477 -1.23798 0
M  V30 10071 C 981.032 -4.295 -1.5904 0
M  V30 10072 N 982.523 -4.32415 -1.66047 0
M  V30 10073 C 983.258 -5.39295 -1.94805 0
M  V30 10074 N 982.754 -6.56392 -2.21635 0
M  V30 10075 N 984.547 -5.26731 -1.96243 0
M  V30 10076 H 976.698 -2.10486 0.284531 0
M  V30 10077 H 978.961 -0.945786 0.0647585 0
M  V30 10078 H 978.667 -3.49921 -0.35334 0
M  V30 10079 H 978.541 -3.15382 -2.06915 0
M  V30 10080 H 980.928 -2.16396 -2.00641 0
M  V30 10081 H 981.009 -2.54264 -0.279888 0
M  V30 10082 H 980.653 -5.01115 -0.827404 0
M  V30 10083 H 980.583 -4.60194 -2.55987 0
M  V30 10084 H 983.074 -3.47975 -1.47383 0
M  V30 10085 H 983.387 -7.33658 -2.4283 0
M  V30 10086 H 981.732 -6.59579 -2.19043 0
M  V30 10087 H 984.923 -4.34249 -1.74773 0
M  V30 10088 H 985.096 -6.10115 -2.1832 0
M  V30 10089 N 978.502 0.731368 -1.39602 0
M  V30 10090 C 979.727 1.52567 -1.40492 0
M  V30 10091 C 980.152 1.881 -0.00228828 0
M  V30 10092 O 979.51 1.52167 0.985643 0
M  V30 10093 C 979.558 2.78749 -2.2876 0
M  V30 10094 O 978.662 3.7482 -1.71999 0
M  V30 10095 H 978.003 0.460601 -0.478271 0
M  V30 10096 H 980.533 0.902042 -1.83642 0
M  V30 10097 H 980.543 3.27446 -2.43399 0
M  V30 10098 H 979.218 2.5222 -3.30693 0
M  V30 10099 H 977.795 3.33604 -1.66622 0
M  V30 10100 N 979.98 1.24838 0.961938 0
M  V30 10101 C 981.21 1.11709 1.73795 0
M  V30 10102 C 981.618 -0.33263 1.86253 0
M  V30 10103 O 980.961 -1.24101 1.35443 0
M  V30 10104 C 981.023 1.68959 3.17322 0
M  V30 10105 C 980.687 3.17895 3.28316 0
M  V30 10106 C 981.684 4.14975 3.13196 0
M  V30 10107 C 979.369 3.57966 3.52372 0
M  V30 10108 C 981.363 5.50107 3.21965 0
M  V30 10109 C 979.05 4.93237 3.60778 0
M  V30 10110 C 980.048 5.89116 3.45588 0
M  V30 10111 O 979.736 7.21927 3.53662 0
M  V30 10112 H 979.468 0.390726 0.551642 0
M  V30 10113 H 982.022 1.65541 1.21594 0
M  V30 10114 H 980.252 1.09567 3.70853 0
M  V30 10115 H 981.941 1.51036 3.76753 0
M  V30 10116 H 982.707 3.85359 2.94489 0
M  V30 10117 H 978.586 2.83837 3.63259 0
M  V30 10118 H 982.13 6.24924 3.10025 0
M  V30 10119 H 978.027 5.22522 3.79 0
M  V30 10120 H 978.795 7.29925 3.7034 0
M  V30 10121 O 981.497 -1.0946 1.18747 0
M  V30 10122 H 982.188 -1.69795 0.932163 0
M  V30 END ATOM
M  V30 BEGIN BOND
M  V30 END BOND
M  V30 END CTAB
M  END
$$$$
