drugbank_target|P16455 Methylated-DNA--protein-cysteine methyltransferase (DB00151; DB01593; DB02216; DB04531; DB11831; DB14487; DB14533; DB14548)
 OpenBabel12092119483D

  0  0  0     0  0            999 V3000
M  V30 BEGIN CTAB
M  V30 COUNTS 8698 9329 0 0 0
M  V30 BEGIN ATOM
M  V30 1 H -1.547 9.37743 -1.21644 0
M  V30 2 O -1.44 8.89599 -0.40059 0
M  V30 3 P 0 8.91 0 0
M  V30 4 O 0.22 10.1746 0.733838 0
M  V30 5 O 0.79 8.73346 -1.23964 0
M  V30 6 O 0.25 7.66872 0.971405 0
M  V30 7 C -0.69 7.42405 2.04668 0
M  V30 8 C 0.04 6.86059 3.24661 0
M  V30 9 O 0.25 5.42934 3.03695 0
M  V30 10 C 1.44 7.41287 3.50796 0
M  V30 11 O 1.83 7.27073 4.86816 0
M  V30 12 C 2.32 6.5273 2.63741 0
M  V30 13 C 1.61 5.1842 2.73198 0
M  V30 14 N 1.66 4.38762 1.4784 0
M  V30 15 H -1.178 8.36899 2.3252 0
M  V30 16 H -1.45 6.70391 1.71179 0
M  V30 17 H -0.582 7.03638 4.13219 0
M  V30 18 H 2.073 4.59931 3.54016 0
M  V30 19 H 2.353 6.88995 1.59871 0
M  V30 20 H 3.344 6.4684 3.0373 0
M  V30 21 H 1.51 8.47002 3.20749 0
M  V30 22 P 3.37998 7.20834 5.23717 0
M  V30 23 O 3.59998 7.79853 6.57286 0
M  V30 24 O 4.16998 7.79239 4.12957 0
M  V30 25 O 3.62998 5.63315 5.29344 0
M  V30 26 C 2.68998 4.80255 6.01876 0
M  V30 27 C 3.41998 3.64202 6.65911 0
M  V30 28 O 3.62998 2.60694 5.64732 0
M  V30 29 C 4.81998 3.93473 7.1943 0
M  V30 30 O 5.20998 3.02071 8.21205 0
M  V30 31 C 5.69998 3.73047 5.97036 0
M  V30 32 C 4.98998 2.58828 5.25741 0
M  V30 33 N 5.03998 2.68068 3.77503 0
M  V30 34 H 2.20098 5.40332 6.79951 0
M  V30 35 H 1.93098 4.41613 5.32378 0
M  V30 36 H 2.79798 3.26331 7.47797 0
M  V30 37 P 6.75996 2.75334 8.47391 0
M  V30 38 O 6.97996 2.44571 9.90142 0
M  V30 39 O 7.54996 3.87688 7.92115 0
M  V30 40 O 7.00996 1.4459 7.59357 0
M  V30 41 C 6.06996 0.347608 7.69215 0
M  V30 42 C 6.79996 -0.96767 7.52806 0
M  V30 43 O 7.00996 -1.21036 6.1011 0
M  V30 44 C 8.19996 -1.04544 8.13308 0
M  V30 45 O 8.58996 -2.38311 8.41922 0
M  V30 46 C 9.07996 -0.491279 7.02284 0
M  V30 47 C 8.36996 -0.996264 5.77469 0
M  V30 48 N 8.41996 -0.0501916 4.62973 0
M  V30 49 H 5.58096 0.374722 8.67691 0
M  V30 50 H 5.31096 0.443485 6.90277 0
M  V30 51 H 6.17796 -1.75537 7.96793 0
M  V30 52 P 10.1399 -2.75334 8.47391 0
M  V30 53 O 10.3599 -3.84128 9.44797 0
M  V30 54 O 10.9299 -1.51947 8.68712 0
M  V30 55 O 10.3899 -3.29363 6.99321 0
M  V30 56 C 9.44994 -4.24011 6.4274 0
M  V30 57 C 10.1799 -5.20775 5.52155 0
M  V30 58 O 10.3899 -4.56534 4.22446 0
M  V30 59 C 11.5799 -5.62629 5.96531 0
M  V30 60 O 11.9699 -6.87667 5.41053 0
M  V30 61 C 12.4599 -4.52537 5.39283 0
M  V30 62 C 11.7499 -4.20027 4.08623 0
M  V30 63 N 11.7999 -2.76189 3.71603 0
M  V30 64 H 8.96094 -4.797 7.24003 0
M  V30 65 H 8.69094 -3.69856 5.84513 0
M  V30 66 H 9.55794 -6.10356 5.41441 0
M  V30 67 P 13.5199 -7.20834 5.23717 0
M  V30 68 O 13.7399 -8.66189 5.38625 0
M  V30 69 O 14.3099 -6.33615 6.1356 0
M  V30 70 O 13.7699 -6.7751 3.72168 0
M  V30 71 C 12.8299 -7.20825 2.7076 0
M  V30 72 C 13.5599 -7.45864 1.40599 0
M  V30 73 O 13.7699 -6.17651 0.734225 0
M  V30 74 C 14.9599 -8.05808 1.51899 0
M  V30 75 O 15.3499 -8.74358 0.335205 0
M  V30 76 C 15.8399 -6.83093 1.70294 0
M  V30 77 C 15.1299 -5.79992 0.836974 0
M  V30 78 N 15.1799 -4.41769 1.38263 0
M  V30 79 C 15.3299 -3.36514 0.485617 0
M  V30 80 O 15.4199 -3.61814 -0.724703 0
M  V30 81 N 15.3799 -2.00746 1.14492 0
M  V30 82 C 15.2799 -1.85887 2.27776 0
M  V30 83 N 15.3299 -0.600907 2.69379 0
M  V30 84 C 15.1299 -2.92182 3.22265 0
M  V30 85 C 15.0799 -4.18399 2.71925 0
M  V30 86 H 12.3399 -8.1355 3.03735 0
M  V30 87 H 12.0709 -6.42695 2.55448 0
M  V30 88 H 12.9379 -8.12139 0.792866 0
M  V30 89 H 15.5929 -5.80078 -0.160615 0
M  V30 90 H 15.8719 -6.51379 2.75643 0
M  V30 91 H 16.8639 -7.01734 1.34462 0
M  V30 92 H 15.0299 -8.73674 2.38337 0
M  V30 93 H 14.9579 -5.02669 3.39718 0
M  V30 94 H 15.0599 -2.73001 4.29239 0
M  V30 95 H 15.4479 0.162318 2.01146 0
M  V30 96 H 15.2509 -0.387742 3.69773 0
M  V30 97 P 16.8999 -8.91 1.09116e-15 0
M  V30 98 O 17.1199 -10.1726 -0.733694 0
M  V30 99 O 17.6899 -8.73148 1.23936 0
M  V30 100 O 17.1499 -7.66872 -0.971405 0
M  V30 101 C 16.2099 -7.42309 -2.04641 0
M  V30 102 C 16.9399 -6.86059 -3.24661 0
M  V30 103 O 17.1499 -5.42847 -3.03646 0
M  V30 104 C 18.3399 -7.41196 -3.50753 0
M  V30 105 O 18.7299 -7.27073 -4.86816 0
M  V30 106 C 19.2199 -6.5273 -2.63741 0
M  V30 107 C 18.5099 -5.1842 -2.73198 0
M  V30 108 N 18.5599 -4.38762 -1.4784 0
M  V30 109 H 15.7209 -8.36803 -2.32493 0
M  V30 110 H 15.4509 -6.70197 -1.71129 0
M  V30 111 H 16.3179 -7.03551 -4.13168 0
M  V30 112 P 20.2799 -7.20834 -5.23717 0
M  V30 113 O 20.4999 -7.80006 -6.57415 0
M  V30 114 O 21.0699 -7.79416 -4.13051 0
M  V30 115 O 20.5299 -5.63315 -5.29344 0
M  V30 116 C 19.5899 -4.80318 -6.01954 0
M  V30 117 C 20.3199 -3.64202 -6.65911 0
M  V30 118 O 20.5299 -2.60736 -5.64823 0
M  V30 119 C 21.7199 -3.93521 -7.19518 0
M  V30 120 O 22.1099 -3.02071 -8.21205 0
M  V30 121 C 22.5999 -3.73047 -5.97036 0
M  V30 122 C 21.8899 -2.58828 -5.25741 0
M  V30 123 N 21.9399 -2.68068 -3.77503 0
M  V30 124 H 19.1019 -5.40394 -6.8003 0
M  V30 125 H 18.8299 -4.41741 -5.32532 0
M  V30 126 H 19.6979 -3.26371 -7.47889 0
M  V30 127 H 22.3529 -1.64007 -5.56746 0
M  V30 128 H 22.6329 -4.63439 -5.3432 0
M  V30 129 H 23.6239 -3.44776 -6.25925 0
M  V30 130 H 21.7899 -4.96707 -7.57347 0
M  V30 131 P 23.6599 -2.75334 -8.47391 0
M  V30 132 O 23.8799 -2.44571 -9.90142 0
M  V30 133 O 24.4499 -3.87688 -7.92115 0
M  V30 134 O 23.9099 -1.4459 -7.59357 0
M  V30 135 C 22.9699 -0.347608 -7.69215 0
M  V30 136 C 23.6999 0.96767 -7.52806 0
M  V30 137 O 23.9099 1.21036 -6.1011 0
M  V30 138 C 25.0999 1.04544 -8.13308 0
M  V30 139 O 25.4899 2.38311 -8.41922 0
M  V30 140 C 25.9799 0.491279 -7.02284 0
M  V30 141 C 25.2699 0.996264 -5.77469 0
M  V30 142 N 25.3199 0.0501916 -4.62973 0
M  V30 143 H 22.4809 -0.374722 -8.67691 0
M  V30 144 H 22.2109 -0.443485 -6.90277 0
M  V30 145 H 23.0779 1.75537 -7.96793 0
M  V30 146 P 27.0398 2.75334 -8.47391 0
M  V30 147 O 27.2598 3.84128 -9.44797 0
M  V30 148 O 27.8298 1.51947 -8.68712 0
M  V30 149 O 27.2898 3.29363 -6.99321 0
M  V30 150 C 26.3498 4.24011 -6.4274 0
M  V30 151 C 27.0798 5.20775 -5.52155 0
M  V30 152 O 27.2898 4.56534 -4.22446 0
M  V30 153 C 28.4798 5.62629 -5.96531 0
M  V30 154 O 28.8698 6.87667 -5.41053 0
M  V30 155 C 29.3598 4.52537 -5.39283 0
M  V30 156 C 28.6498 4.20027 -4.08623 0
M  V30 157 N 28.6998 2.76189 -3.71603 0
M  V30 158 C 28.6198 1.64862 -4.52822 0
M  V30 159 N 28.6998 0.512671 -3.88633 0
M  V30 160 C 28.8398 0.888083 -2.54977 0
M  V30 161 C 28.9698 0.094668 -1.38677 0
M  V30 162 N 29.0898 0.890102 -0.232633 0
M  V30 163 C 29.0898 2.26958 -0.21772 0
M  V30 164 N 29.2198 2.84626 0.97925 0
M  V30 165 N 28.9598 3.0178 -1.31033 0
M  V30 166 C 28.8398 2.26781 -2.43843 0
M  V30 167 H 25.8608 4.797 -7.24003 0
M  V30 168 H 25.5908 3.69856 -5.84513 0
M  V30 169 H 26.4578 6.10356 -5.41441 0
M  V30 170 P 30.4198 7.20834 -5.23717 0
M  V30 171 O 30.6398 8.66189 -5.38625 0
M  V30 172 O 31.2098 6.33615 -6.1356 0
M  V30 173 O 30.6698 6.7751 -3.72168 0
M  V30 174 C 29.7298 7.20732 -2.70725 0
M  V30 175 C 30.4598 7.45864 -1.40599 0
M  V30 176 O 30.6698 6.17651 -0.734225 0
M  V30 177 C 31.8598 8.05808 -1.51899 0
M  V30 178 O 32.2498 8.74358 -0.335205 0
M  V30 179 C 32.7398 6.83093 -1.70294 0
M  V30 180 C 32.0298 5.79992 -0.836974 0
M  V30 181 N 32.0798 4.41769 -1.38263 0
M  V30 182 C 32.2298 3.38591 -0.481702 0
M  V30 183 O 32.3198 3.56839 0.718452 0
M  V30 184 N 32.2698 2.1206 -1.03569 0
M  V30 185 C 32.1798 1.80696 -2.36966 0
M  V30 186 O 32.2298 0.630473 -2.74862 0
M  V30 187 C 32.0298 2.94845 -3.23898 0
M  V30 188 C 31.9198 2.65253 -4.70362 0
M  V30 189 C 31.9798 4.19803 -2.73435 0
M  V30 190 H 29.2398 8.13644 -3.0377 0
M  V30 191 H 28.9708 6.42695 -2.55448 0
M  V30 192 H 29.8378 8.12039 -0.792769 0
M  V30 193 H 32.4928 5.79978 0.160587 0
M  V30 194 H 32.7718 6.51379 -2.75643 0
M  V30 195 H 33.7638 7.01734 -1.34462 0
M  V30 196 H 31.9298 8.73674 -2.38337 0
M  V30 197 H 31.8588 5.04492 -3.4095 0
M  V30 198 H 32.8888 2.83924 -5.1913 0
M  V30 199 H 31.1518 3.29824 -5.15163 0
M  V30 200 H 31.6398 1.59723 -4.84449 0
M  V30 201 H 32.3758 1.35644 -0.399345 0
M  V30 202 P 33.7998 8.91 -2.18232e-15 0
M  V30 203 O 34.0198 10.1736 0.733766 0
M  V30 204 O 34.5898 8.73247 -1.2395 0
M  V30 205 O 34.0498 7.66872 0.971405 0
M  V30 206 C 33.1098 7.42212 2.04614 0
M  V30 207 C 33.8398 6.86059 3.24661 0
M  V30 208 O 34.0498 5.42847 3.03646 0
M  V30 209 C 35.2398 7.41196 3.50753 0
M  V30 210 O 35.6298 7.27073 4.86816 0
M  V30 211 C 36.1198 6.5273 2.63741 0
M  V30 212 C 35.4098 5.1842 2.73198 0
M  V30 213 N 35.4598 4.38668 1.47808 0
M  V30 214 C 35.6098 3.02239 1.60048 0
M  V30 215 O 35.6998 2.46459 2.67869 0
M  V30 216 N 35.6498 2.32436 0.408571 0
M  V30 217 C 35.5598 2.85471 -0.854993 0
M  V30 218 O 35.6098 2.12566 -1.8531 0
M  V30 219 C 35.4098 4.28918 -0.887335 0
M  V30 220 C 35.2998 4.91066 -2.24619 0
M  V30 221 C 35.3598 5.00349 0.255399 0
M  V30 222 H 32.6198 8.36803 2.32493 0
M  V30 223 H 32.3508 6.701 1.71105 0
M  V30 224 H 33.2178 7.03551 4.13168 0
M  V30 225 H 35.8728 4.59773 3.53894 0
M  V30 226 H 36.1518 6.88995 1.59871 0
M  V30 227 H 37.1438 6.46749 3.03687 0
M  V30 228 H 35.3098 8.46908 3.20714 0
M  V30 229 H 35.2388 6.08548 0.206986 0
M  V30 230 H 36.2688 5.34836 -2.53099 0
M  V30 231 H 34.5318 5.69638 -2.2291 0
M  V30 232 H 35.0198 4.13971 -2.98044 0
M  V30 233 H 35.7558 1.33211 0.474216 0
M  V30 234 P 37.1798 7.20834 5.23717 0
M  V30 235 O 37.3998 7.79853 6.57286 0
M  V30 236 O 37.9698 7.79239 4.12957 0
M  V30 237 O 37.4298 5.63315 5.29344 0
M  V30 238 C 36.4898 4.80255 6.01876 0
M  V30 239 C 37.2198 3.64202 6.65911 0
M  V30 240 O 37.4298 2.60694 5.64732 0
M  V30 241 C 38.6198 3.93473 7.1943 0
M  V30 242 O 39.0098 3.02071 8.21205 0
M  V30 243 C 39.4998 3.73047 5.97036 0
M  V30 244 C 38.7898 2.58828 5.25741 0
M  V30 245 N 38.8398 2.68068 3.77503 0
M  V30 246 H 36.0008 5.40332 6.79951 0
M  V30 247 H 35.7308 4.41613 5.32378 0
M  V30 248 H 36.5978 3.26331 7.47797 0
M  V30 249 P 40.5598 2.75334 8.47391 0
M  V30 250 O 40.7798 2.44571 9.90142 0
M  V30 251 O 41.3498 3.87688 7.92115 0
M  V30 252 O 40.8098 1.4459 7.59357 0
M  V30 253 C 39.8698 0.347608 7.69215 0
M  V30 254 C 40.5998 -0.96767 7.52806 0
M  V30 255 O 40.8098 -1.21036 6.1011 0
M  V30 256 C 41.9998 -1.04544 8.13308 0
M  V30 257 O 42.3898 -2.38311 8.41922 0
M  V30 258 C 42.8798 -0.491279 7.02284 0
M  V30 259 C 42.1698 -0.996264 5.77469 0
M  V30 260 N 42.2198 -0.0501916 4.62973 0
M  V30 261 H 39.3808 0.374722 8.67691 0
M  V30 262 H 39.1108 0.443485 6.90277 0
M  V30 263 H 39.9778 -1.75537 7.96793 0
M  V30 264 P 43.9397 -2.75334 8.47391 0
M  V30 265 O 44.1597 -3.84128 9.44797 0
M  V30 266 O 44.7297 -1.51947 8.68712 0
M  V30 267 O 44.1897 -3.29363 6.99321 0
M  V30 268 C 43.2497 -4.24011 6.4274 0
M  V30 269 C 43.9797 -5.20775 5.52155 0
M  V30 270 O 44.1897 -4.56534 4.22446 0
M  V30 271 C 45.3797 -5.62629 5.96531 0
M  V30 272 O 45.7697 -6.87667 5.41053 0
M  V30 273 C 46.2597 -4.52537 5.39283 0
M  V30 274 C 45.5497 -4.20027 4.08623 0
M  V30 275 N 45.5997 -2.76189 3.71603 0
M  V30 276 H 42.7607 -4.797 7.24003 0
M  V30 277 H 42.4907 -3.69856 5.84513 0
M  V30 278 H 43.3577 -6.10356 5.41441 0
M  V30 279 P 47.3197 -7.20834 5.23717 0
M  V30 280 O 47.5397 -8.66104 5.38572 0
M  V30 281 O 48.1097 -6.33544 6.1349 0
M  V30 282 O 47.5697 -6.7751 3.72168 0
M  V30 283 C 46.6297 -7.20825 2.7076 0
M  V30 284 C 47.3597 -7.45864 1.40599 0
M  V30 285 O 47.5697 -6.17651 0.734225 0
M  V30 286 C 48.7597 -8.05808 1.51899 0
M  V30 287 O 49.1497 -8.74358 0.335205 0
M  V30 288 C 49.6397 -6.83093 1.70294 0
M  V30 289 C 48.9297 -5.79992 0.836974 0
M  V30 290 N 48.9797 -4.41864 1.38293 0
M  V30 291 H 46.1407 -8.13644 3.0377 0
M  V30 292 H 45.8707 -6.42788 2.55485 0
M  V30 293 H 46.7377 -8.12039 0.792769 0
M  V30 294 P 50.6997 -8.91 3.27348e-15 0
M  V30 295 O 50.9197 -10.1726 -0.733694 0
M  V30 296 O 51.4897 -8.73148 1.23936 0
M  V30 297 O 50.9497 -7.66872 -0.971405 0
M  V30 298 C 50.0097 -7.42309 -2.04641 0
M  V30 299 C 50.7397 -6.86059 -3.24661 0
M  V30 300 O 50.9497 -5.42847 -3.03646 0
M  V30 301 C 52.1397 -7.41196 -3.50753 0
M  V30 302 O 52.5297 -7.27073 -4.86816 0
M  V30 303 C 53.0197 -6.5273 -2.63741 0
M  V30 304 C 52.3097 -5.1842 -2.73198 0
M  V30 305 N 52.3597 -4.38762 -1.4784 0
M  V30 306 H 49.5207 -8.36803 -2.32493 0
M  V30 307 H 49.2507 -6.70197 -1.71129 0
M  V30 308 H 50.1177 -7.03551 -4.13168 0
M  V30 309 P 54.0797 -7.20834 -5.23717 0
M  V30 310 O 54.2997 -7.79853 -6.57286 0
M  V30 311 O 54.8697 -7.79239 -4.12957 0
M  V30 312 O 54.3297 -5.63315 -5.29344 0
M  V30 313 C 53.3897 -4.80255 -6.01876 0
M  V30 314 C 54.1197 -3.64202 -6.65911 0
M  V30 315 O 54.3297 -2.60694 -5.64732 0
M  V30 316 C 55.5197 -3.93473 -7.1943 0
M  V30 317 O 55.9097 -3.02071 -8.21205 0
M  V30 318 C 56.3997 -3.73047 -5.97036 0
M  V30 319 C 55.6897 -2.58828 -5.25741 0
M  V30 320 N 55.7397 -2.68068 -3.77503 0
M  V30 321 C 55.6597 -3.79715 -2.96723 0
M  V30 322 N 55.7397 -3.5377 -1.68852 0
M  V30 323 C 55.8797 -2.15054 -1.63254 0
M  V30 324 C 56.0097 -1.28964 -0.518571 0
M  V30 325 O 56.0297 -1.56826 0.679156 0
M  V30 326 N 56.1297 0.0538097 -0.918425 0
M  V30 327 C 56.1297 0.494275 -2.22578 0
M  V30 328 N 56.2597 1.81086 -2.40434 0
M  V30 329 N 55.9997 -0.313645 -3.27502 0
M  V30 330 C 55.8797 -1.61829 -2.91033 0
M  V30 331 H 52.9007 -5.40332 -6.79951 0
M  V30 332 H 52.6307 -4.41613 -5.32378 0
M  V30 333 H 53.4977 -3.26331 -7.47797 0
M  V30 334 H 56.1527 -1.63422 -5.56814 0
M  V30 335 H 56.4317 -4.63374 -5.34244 0
M  V30 336 H 57.4237 -3.44728 -6.25838 0
M  V30 337 H 55.5897 -4.96652 -7.57263 0
M  V30 338 H 55.5407 -4.80617 -3.3614 0
M  V30 339 H 56.2227 0.742702 -0.199384 0
M  V30 340 H 56.2597 2.20598 -3.35588 0
M  V30 341 H 56.3607 2.43518 -1.58945 0
M  V30 342 P 57.4597 -2.75334 -8.47391 0
M  V30 343 O 57.6797 -2.44571 -9.90142 0
M  V30 344 O 58.2497 -3.87688 -7.92115 0
M  V30 345 O 57.7097 -1.4459 -7.59357 0
M  V30 346 C 56.7697 -0.347608 -7.69215 0
M  V30 347 C 57.4997 0.96767 -7.52806 0
M  V30 348 O 57.7097 1.21036 -6.1011 0
M  V30 349 C 58.8997 1.04544 -8.13308 0
M  V30 350 O 59.2897 2.38311 -8.41922 0
M  V30 351 C 59.7797 0.491279 -7.02284 0
M  V30 352 C 59.0697 0.996264 -5.77469 0
M  V30 353 N 59.1197 0.0501916 -4.62973 0
M  V30 354 H 56.2807 -0.374722 -8.67691 0
M  V30 355 H 56.0107 -0.443485 -6.90277 0
M  V30 356 H 56.8777 1.75537 -7.96793 0
M  V30 357 P 60.8396 2.75334 -8.47391 0
M  V30 358 O 61.0596 3.84128 -9.44797 0
M  V30 359 O 61.6296 1.51947 -8.68712 0
M  V30 360 O 61.0896 3.29363 -6.99321 0
M  V30 361 C 60.1496 4.24011 -6.4274 0
M  V30 362 C 60.8796 5.20775 -5.52155 0
M  V30 363 O 61.0896 4.56534 -4.22446 0
M  V30 364 C 62.2796 5.62629 -5.96531 0
M  V30 365 O 62.6696 6.87667 -5.41053 0
M  V30 366 C 63.1596 4.52537 -5.39283 0
M  V30 367 C 62.4496 4.20027 -4.08623 0
M  V30 368 N 62.4996 2.76189 -3.71603 0
M  V30 369 H 59.6606 4.797 -7.24003 0
M  V30 370 H 59.3906 3.69856 -5.84513 0
M  V30 371 H 60.2576 6.10356 -5.41441 0
M  V30 372 P 64.2196 7.20834 -5.23717 0
M  V30 373 O 64.4396 8.66104 -5.38572 0
M  V30 374 O 65.0096 6.33544 -6.1349 0
M  V30 375 O 64.4696 6.7751 -3.72168 0
M  V30 376 C 63.5296 7.20825 -2.7076 0
M  V30 377 C 64.2596 7.45864 -1.40599 0
M  V30 378 O 64.4696 6.17651 -0.734225 0
M  V30 379 C 65.6596 8.05808 -1.51899 0
M  V30 380 O 66.0496 8.74358 -0.335205 0
M  V30 381 C 66.5396 6.83093 -1.70294 0
M  V30 382 C 65.8296 5.79992 -0.836974 0
M  V30 383 N 65.8796 4.41864 -1.38293 0
M  V30 384 H 63.0406 8.13644 -3.0377 0
M  V30 385 H 62.7706 6.42788 -2.55485 0
M  V30 386 H 63.6376 8.12039 -0.792769 0
M  V30 387 P 67.5996 8.91 -4.36464e-15 0
M  V30 388 O 67.8196 10.1726 0.733694 0
M  V30 389 O 68.3896 8.73148 -1.23936 0
M  V30 390 O 67.8496 7.66872 0.971405 0
M  V30 391 C 66.9096 7.42309 2.04641 0
M  V30 392 C 67.6396 6.86059 3.24661 0
M  V30 393 O 67.8496 5.42847 3.03646 0
M  V30 394 C 69.0396 7.41196 3.50753 0
M  V30 395 O 69.4296 7.27073 4.86816 0
M  V30 396 C 69.9196 6.5273 2.63741 0
M  V30 397 C 69.2096 5.1842 2.73198 0
M  V30 398 N 69.2596 4.38762 1.4784 0
M  V30 399 H 66.4206 8.36803 2.32493 0
M  V30 400 H 66.1506 6.70197 1.71129 0
M  V30 401 H 67.0176 7.03551 4.13168 0
M  V30 402 P 70.9796 7.20834 5.23717 0
M  V30 403 O 71.1996 7.79853 6.57286 0
M  V30 404 O 71.7696 7.79239 4.12957 0
M  V30 405 O 71.2296 5.63315 5.29344 0
M  V30 406 C 70.2896 4.80255 6.01876 0
M  V30 407 C 71.0196 3.64202 6.65911 0
M  V30 408 O 71.2296 2.60694 5.64732 0
M  V30 409 C 72.4196 3.93473 7.1943 0
M  V30 410 O 72.8096 3.02071 8.21205 0
M  V30 411 C 73.2996 3.73047 5.97036 0
M  V30 412 C 72.5896 2.58828 5.25741 0
M  V30 413 N 72.6396 2.68068 3.77503 0
M  V30 414 H 69.8006 5.40332 6.79951 0
M  V30 415 H 69.5306 4.41613 5.32378 0
M  V30 416 H 70.3976 3.26331 7.47797 0
M  V30 417 P 74.3596 2.75334 8.47391 0
M  V30 418 O 74.5796 2.44571 9.90142 0
M  V30 419 O 75.1496 3.87688 7.92115 0
M  V30 420 O 74.6096 1.4459 7.59357 0
M  V30 421 C 73.6696 0.347608 7.69215 0
M  V30 422 C 74.3996 -0.96767 7.52806 0
M  V30 423 O 74.6096 -1.21036 6.1011 0
M  V30 424 C 75.7996 -1.04544 8.13308 0
M  V30 425 O 76.1896 -2.38311 8.41922 0
M  V30 426 C 76.6796 -0.491279 7.02284 0
M  V30 427 C 75.9696 -0.996264 5.77469 0
M  V30 428 N 76.0196 -0.0501916 4.62973 0
M  V30 429 C 75.9396 1.32786 4.63244 0
M  V30 430 N 76.0196 1.86957 3.44545 0
M  V30 431 C 76.1596 0.780241 2.58481 0
M  V30 432 C 76.2896 0.738536 1.17757 0
M  V30 433 O 76.3096 1.66794 0.372349 0
M  V30 434 N 76.4096 -0.58337 0.711393 0
M  V30 435 C 76.4096 -1.70816 1.51017 0
M  V30 436 N 76.5396 -2.87826 0.880757 0
M  V30 437 N 76.2796 -1.67126 2.8339 0
M  V30 438 C 76.1596 -0.401421 3.30572 0
M  V30 439 H 73.1806 0.374722 8.67691 0
M  V30 440 H 72.9106 0.443485 6.90277 0
M  V30 441 H 73.7776 -1.75537 7.96793 0
M  V30 442 H 76.4326 -1.95076 5.46529 0
M  V30 443 H 76.7116 0.608565 7.04577 0
M  V30 444 H 77.7036 -0.889672 7.08939 0
M  V30 445 H 75.8696 -0.43308 9.04564 0
M  V30 446 H 75.8206 1.91249 5.54442 0
M  V30 447 H 76.5026 -0.718054 -0.275244 0
M  V30 448 H 76.5396 -3.75721 1.41832 0
M  V30 449 H 76.6406 -2.90436 -0.145468 0
M  V30 450 P 77.7395 -2.75334 8.47391 0
M  V30 451 O 77.9595 -3.84166 9.4489 0
M  V30 452 O 78.5295 -1.51964 8.6881 0
M  V30 453 O 77.9895 -3.29363 6.99321 0
M  V30 454 C 77.0495 -4.24011 6.4274 0
M  V30 455 C 77.7795 -5.20775 5.52155 0
M  V30 456 O 77.9895 -4.56534 4.22446 0
M  V30 457 C 79.1795 -5.62629 5.96531 0
M  V30 458 O 79.5695 -6.87667 5.41053 0
M  V30 459 C 80.0595 -4.52537 5.39283 0
M  V30 460 C 79.3495 -4.20027 4.08623 0
M  V30 461 N 79.3995 -2.7613 3.71522 0
M  V30 462 C 79.5495 -2.43702 2.37085 0
M  V30 463 O 79.6395 -3.3531 1.54039 0
M  V30 464 N 79.5995 -0.951103 2.10621 0
M  V30 465 C 79.4995 -0.165021 2.93537 0
M  V30 466 N 79.5495 1.09723 2.53253 0
M  V30 467 C 79.3495 -0.469576 4.32458 0
M  V30 468 C 79.2995 -1.78658 4.65921 0
M  V30 469 H 76.5595 -4.79645 7.23919 0
M  V30 470 H 76.2905 -3.69802 5.84429 0
M  V30 471 H 77.1575 -6.10431 5.41508 0
M  V30 472 H 79.8125 -4.78733 3.27967 0
M  V30 473 H 80.0915 -3.64957 6.05871 0
M  V30 474 H 81.0835 -4.8868 5.2125 0
M  V30 475 H 79.2495 -5.66726 7.06352 0
M  V30 476 H 79.1775 -2.06987 5.70299 0
M  V30 477 H 79.2795 0.314383 5.07728 0
M  V30 478 H 79.6675 1.31363 1.5319 0
M  V30 479 H 79.4705 1.85978 3.21943 0
M  V30 480 P 81.1195 -7.20834 5.23717 0
M  V30 481 O 81.3395 -8.66104 5.38572 0
M  V30 482 O 81.9095 -6.33544 6.1349 0
M  V30 483 O 81.3695 -6.7751 3.72168 0
M  V30 484 C 80.4295 -7.20825 2.7076 0
M  V30 485 C 81.1595 -7.45864 1.40599 0
M  V30 486 O 81.3695 -6.17651 0.734225 0
M  V30 487 C 82.5595 -8.05808 1.51899 0
M  V30 488 O 82.9495 -8.74358 0.335205 0
M  V30 489 C 83.4395 -6.83093 1.70294 0
M  V30 490 C 82.7295 -5.79992 0.836974 0
M  V30 491 N 82.7795 -4.41864 1.38293 0
M  V30 492 H 79.9405 -8.13644 3.0377 0
M  V30 493 H 79.6705 -6.42788 2.55485 0
M  V30 494 H 80.5375 -8.12039 0.792769 0
M  V30 495 P 84.4995 -8.91 5.4558e-15 0
M  V30 496 O 84.7195 -10.1726 -0.733694 0
M  V30 497 O 85.2895 -8.73148 1.23936 0
M  V30 498 O 84.7495 -7.66872 -0.971405 0
M  V30 499 C 83.8095 -7.42309 -2.04641 0
M  V30 500 C 84.5395 -6.86059 -3.24661 0
M  V30 501 O 84.7495 -5.42847 -3.03646 0
M  V30 502 C 85.9395 -7.41196 -3.50753 0
M  V30 503 O 86.3295 -7.27073 -4.86816 0
M  V30 504 C 86.8195 -6.5273 -2.63741 0
M  V30 505 C 86.1095 -5.1842 -2.73198 0
M  V30 506 N 86.1595 -4.38762 -1.4784 0
M  V30 507 H 83.3205 -8.36803 -2.32493 0
M  V30 508 H 83.0505 -6.70197 -1.71129 0
M  V30 509 H 83.9175 -7.03551 -4.13168 0
M  V30 510 P 87.8795 -7.20834 -5.23717 0
M  V30 511 O 88.0995 -7.79853 -6.57286 0
M  V30 512 O 88.6695 -7.79239 -4.12957 0
M  V30 513 O 88.1295 -5.63315 -5.29344 0
M  V30 514 C 87.1895 -4.80255 -6.01876 0
M  V30 515 C 87.9195 -3.64202 -6.65911 0
M  V30 516 O 88.1295 -2.60694 -5.64732 0
M  V30 517 C 89.3195 -3.93473 -7.1943 0
M  V30 518 O 89.7095 -3.02071 -8.21205 0
M  V30 519 C 90.1995 -3.73047 -5.97036 0
M  V30 520 C 89.4895 -2.58828 -5.25741 0
M  V30 521 N 89.5395 -2.68068 -3.77503 0
M  V30 522 C 89.4595 -3.79715 -2.96723 0
M  V30 523 N 89.5395 -3.5377 -1.68852 0
M  V30 524 C 89.6795 -2.15054 -1.63254 0
M  V30 525 C 89.8095 -1.28964 -0.518571 0
M  V30 526 O 89.8295 -1.56826 0.679156 0
M  V30 527 N 89.9295 0.0538097 -0.918425 0
M  V30 528 C 89.9295 0.494275 -2.22578 0
M  V30 529 N 90.0595 1.81086 -2.40434 0
M  V30 530 N 89.7995 -0.313645 -3.27502 0
M  V30 531 C 89.6795 -1.61829 -2.91033 0
M  V30 532 H 86.7005 -5.40332 -6.79951 0
M  V30 533 H 86.4305 -4.41613 -5.32378 0
M  V30 534 H 87.2975 -3.26331 -7.47797 0
M  V30 535 H 89.9525 -1.63422 -5.56814 0
M  V30 536 H 90.2315 -4.63374 -5.34244 0
M  V30 537 H 91.2235 -3.44728 -6.25838 0
M  V30 538 H 89.3895 -4.96652 -7.57263 0
M  V30 539 H 89.3405 -4.80617 -3.3614 0
M  V30 540 H 90.0225 0.742702 -0.199384 0
M  V30 541 H 90.0595 2.20598 -3.35588 0
M  V30 542 H 90.1605 2.43518 -1.58945 0
M  V30 543 P 91.2595 -2.75334 -8.47391 0
M  V30 544 O 91.4795 -2.44571 -9.90142 0
M  V30 545 O 92.0495 -3.87688 -7.92115 0
M  V30 546 O 91.5095 -1.4459 -7.59357 0
M  V30 547 C 90.5695 -0.347608 -7.69215 0
M  V30 548 C 91.2995 0.96767 -7.52806 0
M  V30 549 O 91.5095 1.21036 -6.1011 0
M  V30 550 C 92.6995 1.04544 -8.13308 0
M  V30 551 O 93.0895 2.38311 -8.41922 0
M  V30 552 C 93.5795 0.491279 -7.02284 0
M  V30 553 C 92.8695 0.996264 -5.77469 0
M  V30 554 N 92.9195 0.0501916 -4.62973 0
M  V30 555 H 90.0805 -0.374722 -8.67691 0
M  V30 556 H 89.8105 -0.443485 -6.90277 0
M  V30 557 H 90.6775 1.75537 -7.96793 0
M  V30 558 P 94.6394 2.75334 -8.47391 0
M  V30 559 O 94.8594 3.84204 -9.44982 0
M  V30 560 O 95.4294 1.51982 -8.68909 0
M  V30 561 O 94.8894 3.29363 -6.99321 0
M  V30 562 C 93.9494 4.24066 -6.42823 0
M  V30 563 C 94.6794 5.20775 -5.52155 0
M  V30 564 O 94.8894 4.56607 -4.22514 0
M  V30 565 C 96.0794 5.62697 -5.96604 0
M  V30 566 O 96.4694 6.87667 -5.41053 0
M  V30 567 C 96.9594 4.52537 -5.39283 0
M  V30 568 C 96.2494 4.20027 -4.08623 0
M  V30 569 N 96.2994 2.76189 -3.71603 0
M  V30 570 H 93.4614 4.79756 -7.24086 0
M  V30 571 H 93.1894 3.69963 -5.84682 0
M  V30 572 H 94.0574 6.10431 -5.41508 0
M  V30 573 H 96.7124 4.78816 -3.28024 0
M  V30 574 H 96.9924 3.64957 -6.05871 0
M  V30 575 H 97.9834 4.88748 -5.21323 0
M  V30 576 H 96.1494 5.66789 -7.0643 0
M  V30 577 P 98.0194 7.20834 -5.23717 0
M  V30 578 O 98.2394 8.66104 -5.38572 0
M  V30 579 O 98.8094 6.33544 -6.1349 0
M  V30 580 O 98.2694 6.7751 -3.72168 0
M  V30 581 C 97.3294 7.20825 -2.7076 0
M  V30 582 C 98.0594 7.45864 -1.40599 0
M  V30 583 O 98.2694 6.17651 -0.734225 0
M  V30 584 C 99.4594 8.05808 -1.51899 0
M  V30 585 O 99.8494 8.74358 -0.335205 0
M  V30 586 C 100.339 6.83093 -1.70294 0
M  V30 587 C 99.6294 5.79992 -0.836974 0
M  V30 588 N 99.6794 4.41864 -1.38293 0
M  V30 589 H 96.8404 8.13644 -3.0377 0
M  V30 590 H 96.5704 6.42788 -2.55485 0
M  V30 591 H 97.4374 8.12039 -0.792769 0
M  V30 592 P 101.399 8.91 -6.54696e-15 0
M  V30 593 O 101.619 10.1726 0.733694 0
M  V30 594 O 102.189 8.73148 -1.23936 0
M  V30 595 O 101.649 7.66872 0.971405 0
M  V30 596 C 100.709 7.42309 2.04641 0
M  V30 597 C 101.439 6.86059 3.24661 0
M  V30 598 O 101.649 5.42847 3.03646 0
M  V30 599 C 102.839 7.41196 3.50753 0
M  V30 600 O 103.229 7.27073 4.86816 0
M  V30 601 C 103.719 6.5273 2.63741 0
M  V30 602 C 103.009 5.1842 2.73198 0
M  V30 603 N 103.059 4.38762 1.4784 0
M  V30 604 H 100.22 8.36803 2.32493 0
M  V30 605 H 99.9504 6.70197 1.71129 0
M  V30 606 H 100.817 7.03551 4.13168 0
M  V30 607 P 104.779 7.20834 5.23717 0
M  V30 608 O 104.999 7.79853 6.57286 0
M  V30 609 O 105.569 7.79239 4.12957 0
M  V30 610 O 105.029 5.63315 5.29344 0
M  V30 611 C 104.089 4.80255 6.01876 0
M  V30 612 C 104.819 3.64202 6.65911 0
M  V30 613 O 105.029 2.60694 5.64732 0
M  V30 614 C 106.219 3.93473 7.1943 0
M  V30 615 O 106.609 3.02071 8.21205 0
M  V30 616 C 107.099 3.73047 5.97036 0
M  V30 617 C 106.389 2.58828 5.25741 0
M  V30 618 N 106.439 2.68068 3.77503 0
M  V30 619 H 103.6 5.40332 6.79951 0
M  V30 620 H 103.33 4.41613 5.32378 0
M  V30 621 H 104.197 3.26331 7.47797 0
M  V30 622 P 108.159 2.75334 8.47391 0
M  V30 623 O 108.379 2.44571 9.90142 0
M  V30 624 O 108.949 3.87688 7.92115 0
M  V30 625 O 108.409 1.4459 7.59357 0
M  V30 626 C 107.469 0.347608 7.69215 0
M  V30 627 C 108.199 -0.96767 7.52806 0
M  V30 628 O 108.409 -1.21036 6.1011 0
M  V30 629 C 109.599 -1.04544 8.13308 0
M  V30 630 O 109.989 -2.38311 8.41922 0
M  V30 631 C 110.479 -0.491279 7.02284 0
M  V30 632 C 109.769 -0.996264 5.77469 0
M  V30 633 N 109.819 -0.0501916 4.62973 0
M  V30 634 H 106.98 0.374722 8.67691 0
M  V30 635 H 106.71 0.443485 6.90277 0
M  V30 636 H 107.577 -1.75537 7.96793 0
M  V30 637 P 111.539 -2.75334 8.47391 0
M  V30 638 O 111.759 -3.84128 9.44797 0
M  V30 639 O 112.329 -1.51947 8.68712 0
M  V30 640 O 111.789 -3.29363 6.99321 0
M  V30 641 C 110.849 -4.24011 6.4274 0
M  V30 642 C 111.579 -5.20775 5.52155 0
M  V30 643 O 111.789 -4.56534 4.22446 0
M  V30 644 C 112.979 -5.62629 5.96531 0
M  V30 645 O 113.369 -6.87667 5.41053 0
M  V30 646 C 113.859 -4.52537 5.39283 0
M  V30 647 C 113.149 -4.20027 4.08623 0
M  V30 648 N 113.199 -2.76189 3.71603 0
M  V30 649 H 110.36 -4.797 7.24003 0
M  V30 650 H 110.09 -3.69856 5.84513 0
M  V30 651 H 110.957 -6.10356 5.41441 0
M  V30 652 P 114.919 -7.20834 5.23717 0
M  V30 653 O 115.139 -8.66104 5.38572 0
M  V30 654 O 115.709 -6.33544 6.1349 0
M  V30 655 O 115.169 -6.7751 3.72168 0
M  V30 656 C 114.229 -7.20825 2.7076 0
M  V30 657 C 114.959 -7.45864 1.40599 0
M  V30 658 O 115.169 -6.17651 0.734225 0
M  V30 659 C 116.359 -8.05808 1.51899 0
M  V30 660 O 116.749 -8.74358 0.335205 0
M  V30 661 C 117.239 -6.83093 1.70294 0
M  V30 662 C 116.529 -5.79992 0.836974 0
M  V30 663 N 116.579 -4.41864 1.38293 0
M  V30 664 C 116.499 -3.99538 2.69438 0
M  V30 665 N 116.579 -2.69909 2.84277 0
M  V30 666 C 116.719 -2.21719 1.5408 0
M  V30 667 C 116.849 -0.891712 1.06628 0
M  V30 668 O 116.869 0.161298 1.70137 0
M  V30 669 N 116.969 -0.856846 -0.334985 0
M  V30 670 C 116.969 -1.9641 -1.15789 0
M  V30 671 N 117.099 -1.72708 -2.46522 0
M  V30 672 N 116.839 -3.21165 -0.713741 0
M  V30 673 C 116.719 -3.26797 0.639748 0
M  V30 674 H 113.74 -8.13644 3.0377 0
M  V30 675 H 113.47 -6.42788 2.55485 0
M  V30 676 H 114.337 -8.12039 0.792769 0
M  V30 677 H 116.992 -5.80061 -0.166416 0
M  V30 678 H 117.271 -6.51287 2.75604 0
M  V30 679 H 118.263 -7.01734 1.34462 0
M  V30 680 H 116.429 -8.73674 2.38337 0
M  V30 681 H 116.38 -4.68207 3.53221 0
M  V30 682 H 117.062 0.0398818 -0.767965 0
M  V30 683 H 117.099 -2.50995 -3.13503 0
M  V30 684 H 117.2 -0.759148 -2.80716 0
M  V30 685 P 118.299 -8.91 7.63812e-15 0
M  V30 686 O 118.519 -10.1726 -0.733694 0
M  V30 687 O 119.089 -8.73148 1.23936 0
M  V30 688 O 118.549 -7.66872 -0.971405 0
M  V30 689 C 117.609 -7.42309 -2.04641 0
M  V30 690 C 118.339 -6.86059 -3.24661 0
M  V30 691 O 118.549 -5.42847 -3.03646 0
M  V30 692 C 119.739 -7.41196 -3.50753 0
M  V30 693 O 120.129 -7.27073 -4.86816 0
M  V30 694 C 120.619 -6.5273 -2.63741 0
M  V30 695 C 119.909 -5.1842 -2.73198 0
M  V30 696 N 119.959 -4.38762 -1.4784 0
M  V30 697 H 117.12 -8.36803 -2.32493 0
M  V30 698 H 116.85 -6.70197 -1.71129 0
M  V30 699 H 117.717 -7.03551 -4.13168 0
M  V30 700 P 121.679 -7.20834 -5.23717 0
M  V30 701 O 121.899 -7.79853 -6.57286 0
M  V30 702 O 122.469 -7.79239 -4.12957 0
M  V30 703 O 121.929 -5.63315 -5.29344 0
M  V30 704 C 120.989 -4.80255 -6.01876 0
M  V30 705 C 121.719 -3.64202 -6.65911 0
M  V30 706 O 121.929 -2.60694 -5.64732 0
M  V30 707 C 123.119 -3.93473 -7.1943 0
M  V30 708 O 123.509 -3.02071 -8.21205 0
M  V30 709 C 123.999 -3.73047 -5.97036 0
M  V30 710 C 123.289 -2.58828 -5.25741 0
M  V30 711 N 123.339 -2.68068 -3.77503 0
M  V30 712 C 123.259 -3.79715 -2.96723 0
M  V30 713 N 123.339 -3.5377 -1.68852 0
M  V30 714 C 123.479 -2.15054 -1.63254 0
M  V30 715 C 123.609 -1.28964 -0.518571 0
M  V30 716 O 123.629 -1.56826 0.679156 0
M  V30 717 N 123.729 0.0538097 -0.918425 0
M  V30 718 C 123.729 0.494275 -2.22578 0
M  V30 719 N 123.859 1.81086 -2.40434 0
M  V30 720 N 123.599 -0.313645 -3.27502 0
M  V30 721 C 123.479 -1.61829 -2.91033 0
M  V30 722 H 120.5 -5.40332 -6.79951 0
M  V30 723 H 120.23 -4.41613 -5.32378 0
M  V30 724 H 121.097 -3.26331 -7.47797 0
M  V30 725 H 123.752 -1.63422 -5.56814 0
M  V30 726 H 124.031 -4.63374 -5.34244 0
M  V30 727 H 125.023 -3.44728 -6.25838 0
M  V30 728 H 123.189 -4.96652 -7.57263 0
M  V30 729 H 123.14 -4.80617 -3.3614 0
M  V30 730 H 123.822 0.742702 -0.199384 0
M  V30 731 H 123.859 2.20598 -3.35588 0
M  V30 732 H 123.96 2.43518 -1.58945 0
M  V30 733 P 125.059 -2.75334 -8.47391 0
M  V30 734 O 125.279 -2.44595 -9.90239 0
M  V30 735 O 125.849 -3.87732 -7.92204 0
M  V30 736 O 125.309 -1.4459 -7.59357 0
M  V30 737 C 124.369 -0.347563 -7.69115 0
M  V30 738 C 125.099 0.96767 -7.52806 0
M  V30 739 O 125.309 1.21036 -6.1011 0
M  V30 740 C 126.499 1.04544 -8.13308 0
M  V30 741 O 126.889 2.38311 -8.41922 0
M  V30 742 C 127.379 0.491279 -7.02284 0
M  V30 743 C 126.669 0.996264 -5.77469 0
M  V30 744 N 126.719 0.0501808 -4.62873 0
M  V30 745 C 126.869 0.588177 -3.36904 0
M  V30 746 O 126.959 1.78598 -3.17173 0
M  V30 747 N 126.909 -0.329694 -2.33686 0
M  V30 748 C 126.819 -1.6953 -2.45079 0
M  V30 749 O 126.869 -2.41926 -1.44899 0
M  V30 750 C 126.669 -2.16933 -3.80505 0
M  V30 751 C 126.559 -3.65373 -3.97621 0
M  V30 752 C 126.619 -1.30326 -4.83752 0
M  V30 753 H 123.879 -0.374722 -8.67691 0
M  V30 754 H 123.61 -0.443421 -6.90177 0
M  V30 755 H 124.477 1.75537 -7.96793 0
M  V30 756 H 127.132 1.94496 -5.46629 0
M  V30 757 H 127.411 -0.608651 -7.04676 0
M  V30 758 H 128.403 0.889672 -7.08939 0
M  V30 759 H 126.569 0.43308 -9.04564 0
M  V30 760 H 126.498 -1.68366 -5.8516 0
M  V30 761 H 127.528 -4.05985 -4.30448 0
M  V30 762 H 125.791 -3.88028 -4.72875 0
M  V30 763 H 126.279 -4.11381 -3.01609 0
M  V30 764 H 127.015 0.0393617 -1.41345 0
M  V30 765 P 128.439 2.75334 -8.47391 0
M  V30 766 O 128.659 3.84128 -9.44797 0
M  V30 767 O 129.229 1.51947 -8.68712 0
M  V30 768 O 128.689 3.29363 -6.99321 0
M  V30 769 C 127.749 4.24011 -6.4274 0
M  V30 770 C 128.479 5.20775 -5.52155 0
M  V30 771 O 128.689 4.56534 -4.22446 0
M  V30 772 C 129.879 5.62629 -5.96531 0
M  V30 773 O 130.269 6.87667 -5.41053 0
M  V30 774 C 130.759 4.52537 -5.39283 0
M  V30 775 C 130.049 4.20027 -4.08623 0
M  V30 776 N 130.099 2.76189 -3.71603 0
M  V30 777 H 127.26 4.797 -7.24003 0
M  V30 778 H 126.99 3.69856 -5.84513 0
M  V30 779 H 127.857 6.10356 -5.41441 0
M  V30 780 P 131.819 7.20834 -5.23717 0
M  V30 781 O 132.039 8.66274 -5.38678 0
M  V30 782 O 132.609 6.33687 -6.13629 0
M  V30 783 O 132.069 6.7751 -3.72168 0
M  V30 784 C 131.129 7.20919 -2.70795 0
M  V30 785 C 131.859 7.45864 -1.40599 0
M  V30 786 O 132.069 6.17751 -0.734343 0
M  V30 787 C 133.259 8.05906 -1.51917 0
M  V30 788 O 133.649 8.74358 -0.335205 0
M  V30 789 C 134.139 6.83093 -1.70294 0
M  V30 790 C 133.429 5.79992 -0.836974 0
M  V30 791 N 133.479 4.41864 -1.38293 0
M  V30 792 C 133.399 4.02089 -2.69407 0
M  V30 793 N 133.469 2.73403 -2.85089 0
M  V30 794 C 133.619 2.25086 -1.5642 0
M  V30 795 C 133.749 0.942887 -1.04836 0
M  V30 796 N 133.759 -0.150999 -1.80369 0
M  V30 797 N 133.869 0.812565 0.28167 0
M  V30 798 C 133.859 1.90572 1.03784 0
M  V30 799 N 133.739 3.167 0.683905 0
M  V30 800 C 133.619 3.26538 -0.652815 0
M  V30 801 H 130.641 8.13738 -3.03804 0
M  V30 802 H 130.369 6.42974 -2.55559 0
M  V30 803 H 131.237 8.12139 -0.792866 0
M  V30 804 H 133.892 5.80178 0.160643 0
M  V30 805 H 134.172 6.51379 -2.75643 0
M  V30 806 H 135.163 7.01832 -1.3448 0
M  V30 807 H 133.329 8.73771 -2.38364 0
M  V30 808 H 133.288 4.7189 -3.52311 0
M  V30 809 H 133.669 -0.0721434 -2.82608 0
M  V30 810 H 133.858 -1.0785 -1.36544 0
M  V30 811 H 133.966 1.73207 2.10241 0
M  V30 812 P 135.199 8.91 -8.72928e-15 0
M  V30 813 O 135.419 10.1746 0.733838 0
M  V30 814 O 135.989 8.73346 -1.23964 0
M  V30 815 O 135.449 7.66872 0.971405 0
M  V30 816 C 134.509 7.42405 2.04668 0
M  V30 817 C 135.239 6.86059 3.24661 0
M  V30 818 O 135.449 5.42934 3.03695 0
M  V30 819 C 136.639 7.41287 3.50796 0
M  V30 820 O 137.029 7.27073 4.86816 0
M  V30 821 C 137.519 6.5273 2.63741 0
M  V30 822 C 136.809 5.1842 2.73198 0
M  V30 823 N 136.859 4.38762 1.4784 0
M  V30 824 C 136.779 4.83651 0.183876 0
M  V30 825 N 136.849 3.88759 -0.699393 0
M  V30 826 C 136.999 2.7404 0.0575568 0
M  V30 827 C 137.129 1.37902 -0.293928 0
M  V30 828 N 137.139 0.938021 -1.54797 0
M  V30 829 N 137.249 0.491817 0.70549 0
M  V30 830 C 137.239 0.931735 1.95979 0
M  V30 831 N 137.119 2.16017 2.41481 0
M  V30 832 C 136.999 3.02547 1.39121 0
M  V30 833 H 134.021 8.36899 2.3252 0
M  V30 834 H 133.749 6.70391 1.71179 0
M  V30 835 H 134.617 7.03638 4.13219 0
M  V30 836 H 137.272 4.59931 3.54016 0
M  V30 837 H 137.552 6.88995 1.59871 0
M  V30 838 H 138.543 6.4684 3.0373 0
M  V30 839 H 136.709 8.47002 3.20749 0
M  V30 840 H 136.668 5.8885 -0.0765548 0
M  V30 841 H 137.049 1.60276 -2.32875 0
M  V30 842 H 137.238 -0.0699355 -1.73859 0
M  V30 843 H 137.346 0.165507 2.71897 0
M  V30 844 P 138.579 7.20834 5.23717 0
M  V30 845 O 138.799 7.79853 6.57286 0
M  V30 846 O 139.369 7.79239 4.12957 0
M  V30 847 O 138.829 5.63315 5.29344 0
M  V30 848 C 137.889 4.80255 6.01876 0
M  V30 849 C 138.619 3.64202 6.65911 0
M  V30 850 O 138.829 2.60694 5.64732 0
M  V30 851 C 140.019 3.93473 7.1943 0
M  V30 852 O 140.409 3.02071 8.21205 0
M  V30 853 C 140.899 3.73047 5.97036 0
M  V30 854 C 140.189 2.58828 5.25741 0
M  V30 855 N 140.239 2.68068 3.77503 0
M  V30 856 H 137.4 5.40332 6.79951 0
M  V30 857 H 137.13 4.41613 5.32378 0
M  V30 858 H 137.997 3.26331 7.47797 0
M  V30 859 P 141.959 2.75334 8.47391 0
M  V30 860 O 142.179 2.44619 9.90336 0
M  V30 861 O 142.749 3.87776 7.92294 0
M  V30 862 O 142.209 1.4459 7.59357 0
M  V30 863 C 141.269 0.347653 7.69315 0
M  V30 864 C 141.999 -0.96767 7.52806 0
M  V30 865 O 142.209 -1.21055 6.10208 0
M  V30 866 C 143.399 -1.04557 8.13408 0
M  V30 867 O 143.789 -2.38311 8.41922 0
M  V30 868 C 144.279 -0.491279 7.02284 0
M  V30 869 C 143.569 -0.996264 5.77469 0
M  V30 870 N 143.619 -0.0501916 4.62973 0
M  V30 871 C 143.539 1.31969 4.65661 0
M  V30 872 N 143.609 1.86649 3.48119 0
M  V30 873 C 143.759 0.792089 2.62406 0
M  V30 874 C 143.889 0.705684 1.2207 0
M  V30 875 N 143.899 1.76207 0.413762 0
M  V30 876 N 144.009 -0.518981 0.685754 0
M  V30 877 C 143.999 -1.57595 1.49174 0
M  V30 878 N 143.879 -1.62909 2.80066 0
M  V30 879 C 143.759 -0.388195 3.3073 0
M  V30 880 H 140.781 0.374765 8.67791 0
M  V30 881 H 140.509 0.443613 6.90476 0
M  V30 882 H 141.377 -1.75559 7.96891 0
M  V30 883 H 144.032 -1.94563 5.46818 0
M  V30 884 H 144.312 0.608651 7.04676 0
M  V30 885 H 145.303 -0.889796 7.09039 0
M  V30 886 H 143.469 -0.433128 9.04664 0
M  V30 887 H 143.428 1.89246 5.57664 0
M  V30 888 H 143.809 2.71005 0.804694 0
M  V30 889 H 143.998 1.63189 -0.603768 0
M  V30 890 H 144.106 -2.53475 0.997614 0
M  V30 891 P 145.339 -2.75334 8.47391 0
M  V30 892 O 145.559 -3.84128 9.44797 0
M  V30 893 O 146.129 -1.51947 8.68712 0
M  V30 894 O 145.589 -3.29363 6.99321 0
M  V30 895 C 144.649 -4.24011 6.4274 0
M  V30 896 C 145.379 -5.20775 5.52155 0
M  V30 897 O 145.589 -4.56534 4.22446 0
M  V30 898 C 146.779 -5.62629 5.96531 0
M  V30 899 O 147.169 -6.87667 5.41053 0
M  V30 900 C 147.659 -4.52537 5.39283 0
M  V30 901 C 146.949 -4.20027 4.08623 0
M  V30 902 N 146.999 -2.76189 3.71603 0
M  V30 903 H 144.16 -4.797 7.24003 0
M  V30 904 H 143.89 -3.69856 5.84513 0
M  V30 905 H 144.757 -6.10356 5.41441 0
M  V30 906 P 148.719 -7.20834 5.23717 0
M  V30 907 O 148.939 -8.66104 5.38572 0
M  V30 908 O 149.509 -6.33544 6.1349 0
M  V30 909 O 148.969 -6.7751 3.72168 0
M  V30 910 C 148.029 -7.20825 2.7076 0
M  V30 911 C 148.759 -7.45864 1.40599 0
M  V30 912 O 148.969 -6.17651 0.734225 0
M  V30 913 C 150.159 -8.05808 1.51899 0
M  V30 914 O 150.549 -8.74358 0.335205 0
M  V30 915 C 151.039 -6.83093 1.70294 0
M  V30 916 C 150.329 -5.79992 0.836974 0
M  V30 917 N 150.379 -4.41864 1.38293 0
M  V30 918 H 147.54 -8.13644 3.0377 0
M  V30 919 H 147.27 -6.42788 2.55485 0
M  V30 920 H 148.137 -8.12039 0.792769 0
M  V30 921 P 152.099 -8.91 9.82044e-15 0
M  V30 922 O 152.319 -10.1726 -0.733694 0
M  V30 923 O 152.889 -8.73148 1.23936 0
M  V30 924 O 152.349 -7.66872 -0.971405 0
M  V30 925 C 151.409 -7.42309 -2.04641 0
M  V30 926 C 152.139 -6.86059 -3.24661 0
M  V30 927 O 152.349 -5.42847 -3.03646 0
M  V30 928 C 153.539 -7.41196 -3.50753 0
M  V30 929 O 153.929 -7.27073 -4.86816 0
M  V30 930 C 154.419 -6.5273 -2.63741 0
M  V30 931 C 153.709 -5.1842 -2.73198 0
M  V30 932 N 153.759 -4.38762 -1.4784 0
M  V30 933 H 150.92 -8.36803 -2.32493 0
M  V30 934 H 150.65 -6.70197 -1.71129 0
M  V30 935 H 151.517 -7.03551 -4.13168 0
M  V30 936 P 155.479 -7.20834 -5.23717 0
M  V30 937 O 155.699 -7.79853 -6.57286 0
M  V30 938 O 156.269 -7.79239 -4.12957 0
M  V30 939 O 155.729 -5.63315 -5.29344 0
M  V30 940 C 154.789 -4.80255 -6.01876 0
M  V30 941 C 155.519 -3.64202 -6.65911 0
M  V30 942 O 155.729 -2.60694 -5.64732 0
M  V30 943 C 156.919 -3.93473 -7.1943 0
M  V30 944 O 157.309 -3.02071 -8.21205 0
M  V30 945 C 157.799 -3.73047 -5.97036 0
M  V30 946 C 157.089 -2.58828 -5.25741 0
M  V30 947 N 157.139 -2.68068 -3.77503 0
M  V30 948 H 154.3 -5.40332 -6.79951 0
M  V30 949 H 154.03 -4.41613 -5.32378 0
M  V30 950 H 154.897 -3.26331 -7.47797 0
M  V30 951 P 158.859 -2.75334 -8.47391 0
M  V30 952 O 159.079 -2.44619 -9.90336 0
M  V30 953 O 159.649 -3.87776 -7.92294 0
M  V30 954 O 159.109 -1.4459 -7.59357 0
M  V30 955 C 158.169 -0.347653 -7.69315 0
M  V30 956 C 158.899 0.96767 -7.52806 0
M  V30 957 O 159.109 1.21055 -6.10208 0
M  V30 958 C 160.299 1.04557 -8.13408 0
M  V30 959 O 160.689 2.38311 -8.41922 0
M  V30 960 C 161.179 0.491279 -7.02284 0
M  V30 961 C 160.469 0.996264 -5.77469 0
M  V30 962 N 160.519 0.0501916 -4.62973 0
M  V30 963 C 160.439 -1.31969 -4.65661 0
M  V30 964 N 160.509 -1.86649 -3.48119 0
M  V30 965 C 160.659 -0.792089 -2.62406 0
M  V30 966 C 160.789 -0.705684 -1.2207 0
M  V30 967 N 160.799 -1.76207 -0.413762 0
M  V30 968 N 160.909 0.518981 -0.685754 0
M  V30 969 C 160.899 1.57595 -1.49174 0
M  V30 970 N 160.779 1.62909 -2.80066 0
M  V30 971 C 160.659 0.388195 -3.3073 0
M  V30 972 H 157.681 -0.374765 -8.67791 0
M  V30 973 H 157.409 -0.443613 -6.90476 0
M  V30 974 H 158.277 1.75559 -7.96891 0
M  V30 975 H 160.932 1.94563 -5.46818 0
M  V30 976 H 161.212 -0.608651 -7.04676 0
M  V30 977 H 162.203 0.889796 -7.09039 0
M  V30 978 H 160.369 0.433128 -9.04664 0
M  V30 979 H 160.328 -1.89246 -5.57664 0
M  V30 980 H 160.709 -2.71005 -0.804694 0
M  V30 981 H 160.898 -1.63189 0.603768 0
M  V30 982 H 161.006 2.53475 -0.997614 0
M  V30 983 P 162.239 2.75334 -8.47391 0
M  V30 984 O 162.459 3.84128 -9.44797 0
M  V30 985 O 163.029 1.51947 -8.68712 0
M  V30 986 O 162.489 3.29363 -6.99321 0
M  V30 987 C 161.549 4.24011 -6.4274 0
M  V30 988 C 162.279 5.20775 -5.52155 0
M  V30 989 O 162.489 4.56534 -4.22446 0
M  V30 990 C 163.679 5.62629 -5.96531 0
M  V30 991 O 164.069 6.87667 -5.41053 0
M  V30 992 C 164.559 4.52537 -5.39283 0
M  V30 993 C 163.849 4.20027 -4.08623 0
M  V30 994 N 163.899 2.76189 -3.71603 0
M  V30 995 H 161.06 4.797 -7.24003 0
M  V30 996 H 160.79 3.69856 -5.84513 0
M  V30 997 H 161.657 6.10356 -5.41441 0
M  V30 998 P 165.619 7.20834 -5.23717 0
M  V30 999 O 165.839 8.66274 -5.38678 0
M  V30 1000 O 166.409 6.33687 -6.13629 0
M  V30 1001 O 165.869 6.7751 -3.72168 0
M  V30 1002 C 164.929 7.20919 -2.70795 0
M  V30 1003 C 165.659 7.45864 -1.40599 0
M  V30 1004 O 165.869 6.17751 -0.734343 0
M  V30 1005 C 167.059 8.05906 -1.51917 0
M  V30 1006 O 167.449 8.74358 -0.335205 0
M  V30 1007 C 167.939 6.83093 -1.70294 0
M  V30 1008 C 167.229 5.79992 -0.836974 0
M  V30 1009 N 167.279 4.41864 -1.38293 0
M  V30 1010 C 167.199 4.02089 -2.69407 0
M  V30 1011 N 167.269 2.73403 -2.85089 0
M  V30 1012 C 167.419 2.25086 -1.5642 0
M  V30 1013 C 167.549 0.942887 -1.04836 0
M  V30 1014 N 167.559 -0.150999 -1.80369 0
M  V30 1015 N 167.669 0.812565 0.28167 0
M  V30 1016 C 167.659 1.90572 1.03784 0
M  V30 1017 N 167.539 3.167 0.683905 0
M  V30 1018 C 167.419 3.26538 -0.652815 0
M  V30 1019 H 164.441 8.13738 -3.03804 0
M  V30 1020 H 164.169 6.42974 -2.55559 0
M  V30 1021 H 165.037 8.12139 -0.792866 0
M  V30 1022 H 167.692 5.80178 0.160643 0
M  V30 1023 H 167.972 6.51379 -2.75643 0
M  V30 1024 H 168.963 7.01832 -1.3448 0
M  V30 1025 H 167.129 8.73771 -2.38364 0
M  V30 1026 H 167.088 4.7189 -3.52311 0
M  V30 1027 H 167.469 -0.0721434 -2.82608 0
M  V30 1028 H 167.658 -1.0785 -1.36544 0
M  V30 1029 H 167.766 1.73207 2.10241 0
M  V30 1030 P 168.999 8.91 -1.09116e-14 0
M  V30 1031 O 169.219 10.1746 0.733838 0
M  V30 1032 O 169.789 8.73346 -1.23964 0
M  V30 1033 O 169.249 7.66872 0.971405 0
M  V30 1034 C 168.309 7.42405 2.04668 0
M  V30 1035 C 169.039 6.86059 3.24661 0
M  V30 1036 O 169.249 5.42934 3.03695 0
M  V30 1037 C 170.439 7.41287 3.50796 0
M  V30 1038 O 170.829 7.27073 4.86816 0
M  V30 1039 C 171.319 6.5273 2.63741 0
M  V30 1040 C 170.609 5.1842 2.73198 0
M  V30 1041 N 170.659 4.38762 1.4784 0
M  V30 1042 C 170.579 4.83651 0.183876 0
M  V30 1043 N 170.649 3.88759 -0.699393 0
M  V30 1044 C 170.799 2.7404 0.0575568 0
M  V30 1045 C 170.929 1.37902 -0.293928 0
M  V30 1046 N 170.939 0.938021 -1.54797 0
M  V30 1047 N 171.049 0.491817 0.70549 0
M  V30 1048 C 171.039 0.931735 1.95979 0
M  V30 1049 N 170.919 2.16017 2.41481 0
M  V30 1050 C 170.799 3.02547 1.39121 0
M  V30 1051 H 167.821 8.36899 2.3252 0
M  V30 1052 H 167.549 6.70391 1.71179 0
M  V30 1053 H 168.417 7.03638 4.13219 0
M  V30 1054 H 171.072 4.59931 3.54016 0
M  V30 1055 H 171.352 6.88995 1.59871 0
M  V30 1056 H 172.343 6.4684 3.0373 0
M  V30 1057 H 170.509 8.47002 3.20749 0
M  V30 1058 H 170.468 5.8885 -0.0765548 0
M  V30 1059 H 170.849 1.60276 -2.32875 0
M  V30 1060 H 171.038 -0.0699355 -1.73859 0
M  V30 1061 H 171.146 0.165507 2.71897 0
M  V30 1062 P 172.379 7.20834 5.23717 0
M  V30 1063 O 172.599 7.79853 6.57286 0
M  V30 1064 O 173.169 7.79239 4.12957 0
M  V30 1065 O 172.629 5.63315 5.29344 0
M  V30 1066 C 171.689 4.80255 6.01876 0
M  V30 1067 C 172.419 3.64202 6.65911 0
M  V30 1068 O 172.629 2.60694 5.64732 0
M  V30 1069 C 173.819 3.93473 7.1943 0
M  V30 1070 O 174.209 3.02071 8.21205 0
M  V30 1071 C 174.699 3.73047 5.97036 0
M  V30 1072 C 173.989 2.58828 5.25741 0
M  V30 1073 N 174.039 2.68068 3.77503 0
M  V30 1074 H 171.2 5.40332 6.79951 0
M  V30 1075 H 170.93 4.41613 5.32378 0
M  V30 1076 H 171.797 3.26331 7.47797 0
M  V30 1077 P 175.759 2.75334 8.47391 0
M  V30 1078 O 175.979 2.44571 9.90142 0
M  V30 1079 O 176.549 3.87688 7.92115 0
M  V30 1080 O 176.009 1.4459 7.59357 0
M  V30 1081 C 175.069 0.347608 7.69215 0
M  V30 1082 C 175.799 -0.96767 7.52806 0
M  V30 1083 O 176.009 -1.21036 6.1011 0
M  V30 1084 C 177.199 -1.04544 8.13308 0
M  V30 1085 O 177.589 -2.38311 8.41922 0
M  V30 1086 C 178.079 -0.491279 7.02284 0
M  V30 1087 C 177.369 -0.996264 5.77469 0
M  V30 1088 N 177.419 -0.0501916 4.62973 0
M  V30 1089 H 174.58 0.374722 8.67691 0
M  V30 1090 H 174.31 0.443485 6.90277 0
M  V30 1091 H 175.177 -1.75537 7.96793 0
M  V30 1092 P 179.139 -2.75334 8.47391 0
M  V30 1093 O 179.359 -3.84128 9.44797 0
M  V30 1094 O 179.929 -1.51947 8.68712 0
M  V30 1095 O 179.389 -3.29363 6.99321 0
M  V30 1096 C 178.449 -4.24011 6.4274 0
M  V30 1097 C 179.179 -5.20775 5.52155 0
M  V30 1098 O 179.389 -4.56534 4.22446 0
M  V30 1099 C 180.579 -5.62629 5.96531 0
M  V30 1100 O 180.969 -6.87667 5.41053 0
M  V30 1101 C 181.459 -4.52537 5.39283 0
M  V30 1102 C 180.749 -4.20027 4.08623 0
M  V30 1103 N 180.799 -2.76189 3.71603 0
M  V30 1104 C 180.719 -1.64862 4.52822 0
M  V30 1105 N 180.799 -0.512671 3.88633 0
M  V30 1106 C 180.939 -0.888083 2.54977 0
M  V30 1107 C 181.069 -0.094668 1.38677 0
M  V30 1108 O 181.089 1.13053 1.28163 0
M  V30 1109 N 181.189 -0.890102 0.232633 0
M  V30 1110 C 181.189 -2.26958 0.21772 0
M  V30 1111 N 181.319 -2.84626 -0.97925 0
M  V30 1112 N 181.059 -3.0178 1.31033 0
M  V30 1113 C 180.939 -2.26781 2.43843 0
M  V30 1114 H 177.96 -4.797 7.24003 0
M  V30 1115 H 177.69 -3.69856 5.84513 0
M  V30 1116 H 178.557 -6.10356 5.41441 0
M  V30 1117 H 181.212 -4.79061 3.27488 0
M  V30 1118 H 181.491 -3.64906 6.05785 0
M  V30 1119 H 182.483 -4.8868 5.2125 0
M  V30 1120 H 180.649 -5.66726 7.06352 0
M  V30 1121 H 180.6 -1.71169 5.60966 0
M  V30 1122 H 181.282 -0.419134 -0.644739 0
M  V30 1123 H 181.319 -3.87332 -1.06098 0
M  V30 1124 H 181.42 -2.26417 -1.82483 0
M  V30 1125 P 182.519 -7.20834 5.23717 0
M  V30 1126 O 182.739 -8.66104 5.38572 0
M  V30 1127 O 183.309 -6.33544 6.1349 0
M  V30 1128 O 182.769 -6.7751 3.72168 0
M  V30 1129 C 181.829 -7.20825 2.7076 0
M  V30 1130 C 182.559 -7.45864 1.40599 0
M  V30 1131 O 182.769 -6.17651 0.734225 0
M  V30 1132 C 183.959 -8.05808 1.51899 0
M  V30 1133 O 184.349 -8.74358 0.335205 0
M  V30 1134 C 184.839 -6.83093 1.70294 0
M  V30 1135 C 184.129 -5.79992 0.836974 0
M  V30 1136 N 184.179 -4.41864 1.38293 0
M  V30 1137 C 184.099 -3.99538 2.69438 0
M  V30 1138 N 184.179 -2.69909 2.84277 0
M  V30 1139 C 184.319 -2.21719 1.5408 0
M  V30 1140 C 184.449 -0.891712 1.06628 0
M  V30 1141 O 184.469 0.161298 1.70137 0
M  V30 1142 N 184.569 -0.856846 -0.334985 0
M  V30 1143 C 184.569 -1.9641 -1.15789 0
M  V30 1144 N 184.699 -1.72708 -2.46522 0
M  V30 1145 N 184.439 -3.21165 -0.713741 0
M  V30 1146 C 184.319 -3.26797 0.639748 0
M  V30 1147 H 181.34 -8.13644 3.0377 0
M  V30 1148 H 181.07 -6.42788 2.55485 0
M  V30 1149 H 181.937 -8.12039 0.792769 0
M  V30 1150 H 184.592 -5.80061 -0.166416 0
M  V30 1151 H 184.871 -6.51287 2.75604 0
M  V30 1152 H 185.863 -7.01734 1.34462 0
M  V30 1153 H 184.029 -8.73674 2.38337 0
M  V30 1154 H 183.98 -4.68207 3.53221 0
M  V30 1155 H 184.662 0.0398818 -0.767965 0
M  V30 1156 H 184.699 -2.50995 -3.13503 0
M  V30 1157 H 184.8 -0.759148 -2.80716 0
M  V30 1158 P 185.899 -8.91 -8.29613e-14 0
M  V30 1159 O 186.119 -10.1726 -0.733694 0
M  V30 1160 O 186.689 -8.73148 1.23936 0
M  V30 1161 O 186.149 -7.66872 -0.971405 0
M  V30 1162 C 185.209 -7.42309 -2.04641 0
M  V30 1163 C 185.939 -6.86059 -3.24661 0
M  V30 1164 O 186.149 -5.42847 -3.03646 0
M  V30 1165 C 187.339 -7.41196 -3.50753 0
M  V30 1166 O 187.729 -7.27073 -4.86816 0
M  V30 1167 C 188.219 -6.5273 -2.63741 0
M  V30 1168 C 187.509 -5.1842 -2.73198 0
M  V30 1169 N 187.559 -4.38762 -1.4784 0
M  V30 1170 H 184.72 -8.36803 -2.32493 0
M  V30 1171 H 184.45 -6.70197 -1.71129 0
M  V30 1172 H 185.317 -7.03551 -4.13168 0
M  V30 1173 P 189.279 -7.20834 -5.23717 0
M  V30 1174 O 189.499 -7.79853 -6.57286 0
M  V30 1175 O 190.069 -7.79239 -4.12957 0
M  V30 1176 O 189.529 -5.63315 -5.29344 0
M  V30 1177 C 188.589 -4.80255 -6.01876 0
M  V30 1178 C 189.319 -3.64202 -6.65911 0
M  V30 1179 O 189.529 -2.60694 -5.64732 0
M  V30 1180 C 190.719 -3.93473 -7.1943 0
M  V30 1181 O 191.109 -3.02071 -8.21205 0
M  V30 1182 C 191.599 -3.73047 -5.97036 0
M  V30 1183 C 190.889 -2.58828 -5.25741 0
M  V30 1184 N 190.939 -2.68068 -3.77503 0
M  V30 1185 H 188.1 -5.40332 -6.79951 0
M  V30 1186 H 187.83 -4.41613 -5.32378 0
M  V30 1187 H 188.697 -3.26331 -7.47797 0
M  V30 1188 P 192.659 -2.75334 -8.47391 0
M  V30 1189 O 192.879 -2.44571 -9.90142 0
M  V30 1190 O 193.449 -3.87688 -7.92115 0
M  V30 1191 O 192.909 -1.4459 -7.59357 0
M  V30 1192 C 191.969 -0.347608 -7.69215 0
M  V30 1193 C 192.699 0.96767 -7.52806 0
M  V30 1194 O 192.909 1.21036 -6.1011 0
M  V30 1195 C 194.099 1.04544 -8.13308 0
M  V30 1196 O 194.489 2.38311 -8.41922 0
M  V30 1197 C 194.979 0.491279 -7.02284 0
M  V30 1198 C 194.269 0.996264 -5.77469 0
M  V30 1199 N 194.319 0.0501916 -4.62973 0
M  V30 1200 H 191.48 -0.374722 -8.67691 0
M  V30 1201 H 191.21 -0.443485 -6.90277 0
M  V30 1202 H 192.077 1.75537 -7.96793 0
M  V30 1203 P 196.039 2.75334 -8.47391 0
M  V30 1204 O 196.259 3.84128 -9.44797 0
M  V30 1205 O 196.829 1.51947 -8.68712 0
M  V30 1206 O 196.289 3.29363 -6.99321 0
M  V30 1207 C 195.349 4.24011 -6.4274 0
M  V30 1208 C 196.079 5.20775 -5.52155 0
M  V30 1209 O 196.289 4.56534 -4.22446 0
M  V30 1210 C 197.479 5.62629 -5.96531 0
M  V30 1211 O 197.869 6.87667 -5.41053 0
M  V30 1212 C 198.359 4.52537 -5.39283 0
M  V30 1213 C 197.649 4.20027 -4.08623 0
M  V30 1214 N 197.699 2.76189 -3.71603 0
M  V30 1215 H 194.86 4.797 -7.24003 0
M  V30 1216 H 194.59 3.69856 -5.84513 0
M  V30 1217 H 195.457 6.10356 -5.41441 0
M  V30 1218 P 199.419 7.20834 -5.23717 0
M  V30 1219 O 199.639 8.66274 -5.38678 0
M  V30 1220 O 200.209 6.33687 -6.13629 0
M  V30 1221 O 199.669 6.7751 -3.72168 0
M  V30 1222 C 198.729 7.20919 -2.70795 0
M  V30 1223 C 199.459 7.45864 -1.40599 0
M  V30 1224 O 199.669 6.17751 -0.734343 0
M  V30 1225 C 200.859 8.05906 -1.51917 0
M  V30 1226 O 201.249 8.74358 -0.335205 0
M  V30 1227 C 201.739 6.83093 -1.70294 0
M  V30 1228 C 201.029 5.79992 -0.836974 0
M  V30 1229 N 201.079 4.41864 -1.38293 0
M  V30 1230 H 198.241 8.13738 -3.03804 0
M  V30 1231 H 197.969 6.42974 -2.55559 0
M  V30 1232 H 198.837 8.12139 -0.792866 0
M  V30 1233 H 201.492 5.80178 0.160643 0
M  V30 1234 H 201.772 6.51379 -2.75643 0
M  V30 1235 H 202.763 7.01832 -1.3448 0
M  V30 1236 H 200.929 8.73771 -2.38364 0
M  V30 1237 P 202.799 8.91 2.40144e-13 0
M  V30 1238 O 203.019 10.1726 0.733694 0
M  V30 1239 O 203.589 8.73148 -1.23936 0
M  V30 1240 O 203.049 7.66872 0.971405 0
M  V30 1241 C 202.109 7.42309 2.04641 0
M  V30 1242 C 202.839 6.86059 3.24661 0
M  V30 1243 O 203.049 5.42847 3.03646 0
M  V30 1244 C 204.239 7.41196 3.50753 0
M  V30 1245 O 204.629 7.27073 4.86816 0
M  V30 1246 C 205.119 6.5273 2.63741 0
M  V30 1247 C 204.409 5.1842 2.73198 0
M  V30 1248 N 204.459 4.38762 1.4784 0
M  V30 1249 H 201.62 8.36803 2.32493 0
M  V30 1250 H 201.35 6.70197 1.71129 0
M  V30 1251 H 202.217 7.03551 4.13168 0
M  V30 1252 P 206.179 7.20834 5.23717 0
M  V30 1253 O 206.399 7.7993 6.57351 0
M  V30 1254 O 206.969 7.79328 4.13004 0
M  V30 1255 O 206.429 5.63315 5.29344 0
M  V30 1256 C 205.489 4.80255 6.01876 0
M  V30 1257 C 206.219 3.64202 6.65911 0
M  V30 1258 O 206.429 2.60694 5.64732 0
M  V30 1259 C 207.619 3.93473 7.1943 0
M  V30 1260 O 208.009 3.02071 8.21205 0
M  V30 1261 C 208.499 3.73047 5.97036 0
M  V30 1262 C 207.789 2.58828 5.25741 0
M  V30 1263 N 207.839 2.6801 3.77422 0
M  V30 1264 C 207.989 1.50173 3.05038 0
M  V30 1265 O 208.079 0.428832 3.665 0
M  V30 1266 N 208.039 1.70922 1.55541 0
M  V30 1267 C 207.939 2.7407 1.06402 0
M  V30 1268 N 207.989 2.74764 -0.260931 0
M  V30 1269 C 207.789 3.96781 1.78296 0
M  V30 1270 C 207.739 3.87909 3.13891 0
M  V30 1271 H 204.999 5.4027 6.79873 0
M  V30 1272 H 204.73 4.41549 5.32301 0
M  V30 1273 H 205.597 3.26371 7.47889 0
M  V30 1274 H 208.252 1.63978 5.5665 0
M  V30 1275 H 208.531 4.63439 5.3432 0
M  V30 1276 H 209.523 3.44728 6.25838 0
M  V30 1277 H 207.689 4.96652 7.57263 0
M  V30 1278 H 207.617 4.78425 3.73088 0
M  V30 1279 H 207.719 4.92593 1.26997 0
M  V30 1280 H 208.107 1.86285 -0.77595 0
M  V30 1281 H 207.91 3.63657 -0.773896 0
M  V30 1282 P 209.559 2.75334 8.47391 0
M  V30 1283 O 209.779 2.44595 9.90239 0
M  V30 1284 O 210.349 3.87732 7.92204 0
M  V30 1285 O 209.809 1.4459 7.59357 0
M  V30 1286 C 208.869 0.347563 7.69115 0
M  V30 1287 C 209.599 -0.96767 7.52806 0
M  V30 1288 O 209.809 -1.21036 6.1011 0
M  V30 1289 C 210.999 -1.04544 8.13308 0
M  V30 1290 O 211.389 -2.38311 8.41922 0
M  V30 1291 C 211.879 -0.491279 7.02284 0
M  V30 1292 C 211.169 -0.996264 5.77469 0
M  V30 1293 N 211.219 -0.0501808 4.62873 0
M  V30 1294 C 211.369 -0.588177 3.36904 0
M  V30 1295 O 211.459 -1.78598 3.17173 0
M  V30 1296 N 211.409 0.329694 2.33686 0
M  V30 1297 C 211.319 1.6953 2.45079 0
M  V30 1298 O 211.369 2.41926 1.44899 0
M  V30 1299 C 211.169 2.16933 3.80505 0
M  V30 1300 C 211.059 3.65373 3.97621 0
M  V30 1301 C 211.119 1.30326 4.83752 0
M  V30 1302 H 208.379 0.374722 8.67691 0
M  V30 1303 H 208.11 0.443421 6.90177 0
M  V30 1304 H 208.977 -1.75537 7.96793 0
M  V30 1305 H 211.632 -1.94496 5.46629 0
M  V30 1306 H 211.911 0.608651 7.04676 0
M  V30 1307 H 212.903 -0.889672 7.08939 0
M  V30 1308 H 211.069 -0.43308 9.04564 0
M  V30 1309 H 210.998 1.68366 5.8516 0
M  V30 1310 H 212.028 4.05985 4.30448 0
M  V30 1311 H 210.291 3.88028 4.72875 0
M  V30 1312 H 210.779 4.11381 3.01609 0
M  V30 1313 H 211.515 -0.0393617 1.41345 0
M  V30 1314 P 212.939 -2.75334 8.47391 0
M  V30 1315 O 213.159 -3.84204 9.44982 0
M  V30 1316 O 213.729 -1.51982 8.68909 0
M  V30 1317 O 213.189 -3.29363 6.99321 0
M  V30 1318 C 212.249 -4.24066 6.42823 0
M  V30 1319 C 212.979 -5.20775 5.52155 0
M  V30 1320 O 213.189 -4.56607 4.22514 0
M  V30 1321 C 214.379 -5.62697 5.96604 0
M  V30 1322 O 214.769 -6.87667 5.41053 0
M  V30 1323 C 215.259 -4.52537 5.39283 0
M  V30 1324 C 214.549 -4.20027 4.08623 0
M  V30 1325 N 214.599 -2.76189 3.71603 0
M  V30 1326 C 214.519 -1.66944 4.54297 0
M  V30 1327 N 214.589 -0.536169 3.91344 0
M  V30 1328 C 214.739 -0.901569 2.58849 0
M  V30 1329 C 214.869 -0.146599 1.40236 0
M  V30 1330 N 214.879 1.18234 1.37046 0
M  V30 1331 N 214.989 -0.822941 0.249738 0
M  V30 1332 C 214.979 -2.15179 0.280525 0
M  V30 1333 N 214.859 -2.96414 1.30822 0
M  V30 1334 C 214.739 -2.25804 2.44748 0
M  V30 1335 H 211.761 -4.79756 7.24086 0
M  V30 1336 H 211.489 -3.69963 5.84682 0
M  V30 1337 H 212.357 -6.10431 5.41508 0
M  V30 1338 H 215.012 -4.78816 3.28024 0
M  V30 1339 H 215.292 -3.64957 6.05871 0
M  V30 1340 H 216.283 -4.88748 5.21323 0
M  V30 1341 H 214.449 -5.66789 7.0643 0
M  V30 1342 H 214.408 -1.74684 5.62396 0
M  V30 1343 H 214.789 1.71949 2.24394 0
M  V30 1344 H 214.978 1.67511 0.470742 0
M  V30 1345 H 215.086 -2.63704 -0.6828 0
M  V30 1346 P 216.319 -7.20834 5.23717 0
M  V30 1347 O 216.539 -8.66274 5.38678 0
M  V30 1348 O 217.109 -6.33687 6.13629 0
M  V30 1349 O 216.569 -6.7751 3.72168 0
M  V30 1350 C 215.629 -7.20919 2.70795 0
M  V30 1351 C 216.359 -7.45864 1.40599 0
M  V30 1352 O 216.569 -6.17751 0.734343 0
M  V30 1353 C 217.759 -8.05906 1.51917 0
M  V30 1354 O 218.149 -8.74358 0.335205 0
M  V30 1355 C 218.639 -6.83093 1.70294 0
M  V30 1356 C 217.929 -5.79992 0.836974 0
M  V30 1357 N 217.979 -4.41864 1.38293 0
M  V30 1358 H 215.141 -8.13738 3.03804 0
M  V30 1359 H 214.869 -6.42974 2.55559 0
M  V30 1360 H 215.737 -8.12139 0.792866 0
M  V30 1361 H 218.392 -5.80178 -0.160643 0
M  V30 1362 H 218.672 -6.51379 2.75643 0
M  V30 1363 H 219.663 -7.01832 1.3448 0
M  V30 1364 H 217.829 -8.73771 2.38364 0
M  V30 1365 P 219.699 -8.91 -3.97326e-13 0
M  V30 1366 O 219.919 -10.1726 -0.733694 0
M  V30 1367 O 220.489 -8.73148 1.23936 0
M  V30 1368 O 219.949 -7.66872 -0.971405 0
M  V30 1369 C 219.009 -7.42309 -2.04641 0
M  V30 1370 C 219.739 -6.86059 -3.24661 0
M  V30 1371 O 219.949 -5.42847 -3.03646 0
M  V30 1372 C 221.139 -7.41196 -3.50753 0
M  V30 1373 O 221.529 -7.27073 -4.86816 0
M  V30 1374 C 222.019 -6.5273 -2.63741 0
M  V30 1375 C 221.309 -5.1842 -2.73198 0
M  V30 1376 N 221.359 -4.38762 -1.4784 0
M  V30 1377 H 218.52 -8.36803 -2.32493 0
M  V30 1378 H 218.25 -6.70197 -1.71129 0
M  V30 1379 H 219.117 -7.03551 -4.13168 0
M  V30 1380 P 223.079 -7.20834 -5.23717 0
M  V30 1381 O 223.299 -7.79853 -6.57286 0
M  V30 1382 O 223.869 -7.79239 -4.12957 0
M  V30 1383 O 223.329 -5.63315 -5.29344 0
M  V30 1384 C 222.389 -4.80255 -6.01876 0
M  V30 1385 C 223.119 -3.64202 -6.65911 0
M  V30 1386 O 223.329 -2.60694 -5.64732 0
M  V30 1387 C 224.519 -3.93473 -7.1943 0
M  V30 1388 O 224.909 -3.02071 -8.21205 0
M  V30 1389 C 225.399 -3.73047 -5.97036 0
M  V30 1390 C 224.689 -2.58828 -5.25741 0
M  V30 1391 N 224.739 -2.68068 -3.77503 0
M  V30 1392 H 221.9 -5.40332 -6.79951 0
M  V30 1393 H 221.63 -4.41613 -5.32378 0
M  V30 1394 H 222.497 -3.26331 -7.47797 0
M  V30 1395 P 226.459 -2.75334 -8.47391 0
M  V30 1396 O 226.679 -2.44619 -9.90336 0
M  V30 1397 O 227.249 -3.87776 -7.92294 0
M  V30 1398 O 226.709 -1.4459 -7.59357 0
M  V30 1399 C 225.769 -0.347653 -7.69315 0
M  V30 1400 C 226.499 0.96767 -7.52806 0
M  V30 1401 O 226.709 1.21055 -6.10208 0
M  V30 1402 C 227.899 1.04557 -8.13408 0
M  V30 1403 O 228.289 2.38311 -8.41922 0
M  V30 1404 C 228.779 0.491279 -7.02284 0
M  V30 1405 C 228.069 0.996264 -5.77469 0
M  V30 1406 N 228.119 0.0501916 -4.62973 0
M  V30 1407 C 228.039 -1.31969 -4.65661 0
M  V30 1408 N 228.109 -1.86649 -3.48119 0
M  V30 1409 C 228.259 -0.792089 -2.62406 0
M  V30 1410 C 228.389 -0.705684 -1.2207 0
M  V30 1411 N 228.399 -1.76207 -0.413762 0
M  V30 1412 N 228.509 0.518981 -0.685754 0
M  V30 1413 C 228.499 1.57595 -1.49174 0
M  V30 1414 N 228.379 1.62909 -2.80066 0
M  V30 1415 C 228.259 0.388195 -3.3073 0
M  V30 1416 H 225.281 -0.374765 -8.67791 0
M  V30 1417 H 225.009 -0.443613 -6.90476 0
M  V30 1418 H 225.877 1.75559 -7.96891 0
M  V30 1419 H 228.532 1.94563 -5.46818 0
M  V30 1420 H 228.812 -0.608651 -7.04676 0
M  V30 1421 H 229.803 0.889796 -7.09039 0
M  V30 1422 H 227.969 0.433128 -9.04664 0
M  V30 1423 H 227.928 -1.89246 -5.57664 0
M  V30 1424 H 228.309 -2.71005 -0.804694 0
M  V30 1425 H 228.498 -1.63189 0.603768 0
M  V30 1426 H 228.606 2.53475 -0.997614 0
M  V30 1427 P 229.839 2.75334 -8.47391 0
M  V30 1428 O 230.059 3.84166 -9.4489 0
M  V30 1429 O 230.629 1.51964 -8.6881 0
M  V30 1430 O 230.089 3.29363 -6.99321 0
M  V30 1431 C 229.149 4.23956 -6.42656 0
M  V30 1432 C 229.879 5.20775 -5.52155 0
M  V30 1433 O 230.089 4.56534 -4.22446 0
M  V30 1434 C 231.279 5.62629 -5.96531 0
M  V30 1435 O 231.669 6.87667 -5.41053 0
M  V30 1436 C 232.159 4.52537 -5.39283 0
M  V30 1437 C 231.449 4.20027 -4.08623 0
M  V30 1438 N 231.499 2.7613 -3.71522 0
M  V30 1439 C 231.649 2.45612 -2.37989 0
M  V30 1440 O 231.739 3.30919 -1.51621 0
M  V30 1441 N 231.689 1.10684 -2.08435 0
M  V30 1442 C 231.599 0.0690084 -2.9792 0
M  V30 1443 C 231.449 0.481522 -4.35345 0
M  V30 1444 C 231.399 1.78906 -4.67968 0
M  V30 1445 H 228.659 4.797 -7.24003 0
M  V30 1446 H 228.39 3.69802 -5.84429 0
M  V30 1447 H 229.257 6.10356 -5.41441 0
M  V30 1448 H 231.912 4.78651 -3.27911 0
M  V30 1449 H 232.191 3.64957 -6.05871 0
M  V30 1450 H 233.183 4.8868 -5.2125 0
M  V30 1451 H 231.349 5.66726 -7.06352 0
M  V30 1452 H 231.278 2.07737 -5.72367 0
M  V30 1453 P 233.219 7.20834 -5.23717 0
M  V30 1454 O 233.439 8.66104 -5.38572 0
M  V30 1455 O 234.009 6.33544 -6.1349 0
M  V30 1456 O 233.469 6.7751 -3.72168 0
M  V30 1457 C 232.529 7.20825 -2.7076 0
M  V30 1458 C 233.259 7.45864 -1.40599 0
M  V30 1459 O 233.469 6.17651 -0.734225 0
M  V30 1460 C 234.659 8.05808 -1.51899 0
M  V30 1461 O 235.049 8.74358 -0.335205 0
M  V30 1462 C 235.539 6.83093 -1.70294 0
M  V30 1463 C 234.829 5.79992 -0.836974 0
M  V30 1464 N 234.879 4.41864 -1.38293 0
M  V30 1465 H 232.04 8.13644 -3.0377 0
M  V30 1466 H 231.77 6.42788 -2.55485 0
M  V30 1467 H 232.637 8.12039 -0.792769 0
M  V30 1468 P 236.599 8.91 5.54508e-13 0
M  V30 1469 O 236.819 10.1746 0.733838 0
M  V30 1470 O 237.389 8.73346 -1.23964 0
M  V30 1471 O 236.849 7.66872 0.971405 0
M  V30 1472 C 235.909 7.42405 2.04668 0
M  V30 1473 C 236.639 6.86059 3.24661 0
M  V30 1474 O 236.849 5.42934 3.03695 0
M  V30 1475 C 238.039 7.41287 3.50796 0
M  V30 1476 O 238.429 7.27073 4.86816 0
M  V30 1477 C 238.919 6.5273 2.63741 0
M  V30 1478 C 238.209 5.1842 2.73198 0
M  V30 1479 N 238.259 4.38762 1.4784 0
M  V30 1480 H 235.421 8.36899 2.3252 0
M  V30 1481 H 235.149 6.70391 1.71179 0
M  V30 1482 H 236.017 7.03638 4.13219 0
M  V30 1483 H 238.672 4.59931 3.54016 0
M  V30 1484 H 238.952 6.88995 1.59871 0
M  V30 1485 H 239.943 6.4684 3.0373 0
M  V30 1486 H 238.109 8.47002 3.20749 0
M  V30 1487 P 239.979 7.20834 5.23717 0
M  V30 1488 O 240.199 7.79853 6.57286 0
M  V30 1489 O 240.769 7.79239 4.12957 0
M  V30 1490 O 240.229 5.63315 5.29344 0
M  V30 1491 C 239.289 4.80255 6.01876 0
M  V30 1492 C 240.019 3.64202 6.65911 0
M  V30 1493 O 240.229 2.60694 5.64732 0
M  V30 1494 C 241.419 3.93473 7.1943 0
M  V30 1495 O 241.809 3.02071 8.21205 0
M  V30 1496 C 242.299 3.73047 5.97036 0
M  V30 1497 C 241.589 2.58828 5.25741 0
M  V30 1498 N 241.639 2.68068 3.77503 0
M  V30 1499 H 238.8 5.40332 6.79951 0
M  V30 1500 H 238.53 4.41613 5.32378 0
M  V30 1501 H 239.397 3.26331 7.47797 0
M  V30 1502 P 243.359 2.75334 8.47391 0
M  V30 1503 O 243.579 2.44571 9.90142 0
M  V30 1504 O 244.149 3.87688 7.92115 0
M  V30 1505 O 243.609 1.4459 7.59357 0
M  V30 1506 C 242.669 0.347608 7.69215 0
M  V30 1507 C 243.399 -0.96767 7.52806 0
M  V30 1508 O 243.609 -1.21036 6.1011 0
M  V30 1509 C 244.799 -1.04544 8.13308 0
M  V30 1510 O 245.189 -2.38311 8.41922 0
M  V30 1511 C 245.679 -0.491279 7.02284 0
M  V30 1512 C 244.969 -0.996264 5.77469 0
M  V30 1513 N 245.019 -0.0501916 4.62973 0
M  V30 1514 H 242.18 0.374722 8.67691 0
M  V30 1515 H 241.91 0.443485 6.90277 0
M  V30 1516 H 242.777 -1.75537 7.96793 0
M  V30 1517 P 246.739 -2.75334 8.47391 0
M  V30 1518 O 246.959 -3.84128 9.44797 0
M  V30 1519 O 247.529 -1.51947 8.68712 0
M  V30 1520 O 246.989 -3.29363 6.99321 0
M  V30 1521 C 246.049 -4.24011 6.4274 0
M  V30 1522 C 246.779 -5.20775 5.52155 0
M  V30 1523 O 246.989 -4.56534 4.22446 0
M  V30 1524 C 248.179 -5.62629 5.96531 0
M  V30 1525 O 248.569 -6.87667 5.41053 0
M  V30 1526 C 249.059 -4.52537 5.39283 0
M  V30 1527 C 248.349 -4.20027 4.08623 0
M  V30 1528 N 248.399 -2.76189 3.71603 0
M  V30 1529 H 245.56 -4.797 7.24003 0
M  V30 1530 H 245.29 -3.69856 5.84513 0
M  V30 1531 H 246.157 -6.10356 5.41441 0
M  V30 1532 P 250.119 -7.20834 5.23717 0
M  V30 1533 O 250.339 -8.66274 5.38678 0
M  V30 1534 O 250.909 -6.33687 6.13629 0
M  V30 1535 O 250.369 -6.7751 3.72168 0
M  V30 1536 C 249.429 -7.20919 2.70795 0
M  V30 1537 C 250.159 -7.45864 1.40599 0
M  V30 1538 O 250.369 -6.17751 0.734343 0
M  V30 1539 C 251.559 -8.05906 1.51917 0
M  V30 1540 O 251.949 -8.74358 0.335205 0
M  V30 1541 C 252.439 -6.83093 1.70294 0
M  V30 1542 C 251.729 -5.79992 0.836974 0
M  V30 1543 N 251.779 -4.41864 1.38293 0
M  V30 1544 C 251.699 -4.02089 2.69407 0
M  V30 1545 N 251.769 -2.73403 2.85089 0
M  V30 1546 C 251.919 -2.25086 1.5642 0
M  V30 1547 C 252.049 -0.942887 1.04836 0
M  V30 1548 N 252.059 0.150999 1.80369 0
M  V30 1549 N 252.169 -0.812565 -0.28167 0
M  V30 1550 C 252.159 -1.90572 -1.03784 0
M  V30 1551 N 252.039 -3.167 -0.683905 0
M  V30 1552 C 251.919 -3.26538 0.652815 0
M  V30 1553 H 248.941 -8.13738 3.03804 0
M  V30 1554 H 248.669 -6.42974 2.55559 0
M  V30 1555 H 249.537 -8.12139 0.792866 0
M  V30 1556 H 252.192 -5.80178 -0.160643 0
M  V30 1557 H 252.472 -6.51379 2.75643 0
M  V30 1558 H 253.463 -7.01832 1.3448 0
M  V30 1559 H 251.629 -8.73771 2.38364 0
M  V30 1560 H 251.588 -4.7189 3.52311 0
M  V30 1561 H 251.969 0.0721434 2.82608 0
M  V30 1562 H 252.158 1.0785 1.36544 0
M  V30 1563 H 252.266 -1.73207 -2.10241 0
M  V30 1564 P 253.498 -8.91 -7.1169e-13 0
M  V30 1565 O 253.718 -10.1726 -0.733694 0
M  V30 1566 O 254.288 -8.73148 1.23936 0
M  V30 1567 O 253.748 -7.66872 -0.971405 0
M  V30 1568 C 252.808 -7.42309 -2.04641 0
M  V30 1569 C 253.538 -6.86059 -3.24661 0
M  V30 1570 O 253.748 -5.42847 -3.03646 0
M  V30 1571 C 254.938 -7.41196 -3.50753 0
M  V30 1572 O 255.328 -7.27073 -4.86816 0
M  V30 1573 C 255.818 -6.5273 -2.63741 0
M  V30 1574 C 255.108 -5.1842 -2.73198 0
M  V30 1575 N 255.158 -4.38762 -1.4784 0
M  V30 1576 H 252.319 -8.36803 -2.32493 0
M  V30 1577 H 252.049 -6.70197 -1.71129 0
M  V30 1578 H 252.916 -7.03551 -4.13168 0
M  V30 1579 P 256.878 -7.20834 -5.23717 0
M  V30 1580 O 257.098 -7.79853 -6.57286 0
M  V30 1581 O 257.668 -7.79239 -4.12957 0
M  V30 1582 O 257.128 -5.63315 -5.29344 0
M  V30 1583 C 256.188 -4.80255 -6.01876 0
M  V30 1584 C 256.918 -3.64202 -6.65911 0
M  V30 1585 O 257.128 -2.60694 -5.64732 0
M  V30 1586 C 258.318 -3.93473 -7.1943 0
M  V30 1587 O 258.708 -3.02071 -8.21205 0
M  V30 1588 C 259.198 -3.73047 -5.97036 0
M  V30 1589 C 258.488 -2.58828 -5.25741 0
M  V30 1590 N 258.538 -2.68068 -3.77503 0
M  V30 1591 H 255.699 -5.40332 -6.79951 0
M  V30 1592 H 255.429 -4.41613 -5.32378 0
M  V30 1593 H 256.296 -3.26331 -7.47797 0
M  V30 1594 P 260.258 -2.75334 -8.47391 0
M  V30 1595 O 260.478 -2.44571 -9.90142 0
M  V30 1596 O 261.048 -3.87688 -7.92115 0
M  V30 1597 O 260.508 -1.4459 -7.59357 0
M  V30 1598 C 259.568 -0.347608 -7.69215 0
M  V30 1599 C 260.298 0.96767 -7.52806 0
M  V30 1600 O 260.508 1.21036 -6.1011 0
M  V30 1601 C 261.698 1.04544 -8.13308 0
M  V30 1602 O 262.088 2.38311 -8.41922 0
M  V30 1603 C 262.578 0.491279 -7.02284 0
M  V30 1604 C 261.868 0.996264 -5.77469 0
M  V30 1605 N 261.918 0.0501916 -4.62973 0
M  V30 1606 H 259.079 -0.374722 -8.67691 0
M  V30 1607 H 258.809 -0.443485 -6.90277 0
M  V30 1608 H 259.676 1.75537 -7.96793 0
M  V30 1609 P 263.638 2.75334 -8.47391 0
M  V30 1610 O 263.858 3.84128 -9.44797 0
M  V30 1611 O 264.428 1.51947 -8.68712 0
M  V30 1612 O 263.888 3.29363 -6.99321 0
M  V30 1613 C 262.948 4.24011 -6.4274 0
M  V30 1614 C 263.678 5.20775 -5.52155 0
M  V30 1615 O 263.888 4.56534 -4.22446 0
M  V30 1616 C 265.078 5.62629 -5.96531 0
M  V30 1617 O 265.468 6.87667 -5.41053 0
M  V30 1618 C 265.958 4.52537 -5.39283 0
M  V30 1619 C 265.248 4.20027 -4.08623 0
M  V30 1620 N 265.298 2.76189 -3.71603 0
M  V30 1621 H 262.459 4.797 -7.24003 0
M  V30 1622 H 262.189 3.69856 -5.84513 0
M  V30 1623 H 263.056 6.10356 -5.41441 0
M  V30 1624 P 267.018 7.20834 -5.23717 0
M  V30 1625 O 267.238 8.66104 -5.38572 0
M  V30 1626 O 267.808 6.33544 -6.1349 0
M  V30 1627 O 267.268 6.7751 -3.72168 0
M  V30 1628 C 266.328 7.20825 -2.7076 0
M  V30 1629 C 267.058 7.45864 -1.40599 0
M  V30 1630 O 267.268 6.17651 -0.734225 0
M  V30 1631 C 268.458 8.05808 -1.51899 0
M  V30 1632 O 268.848 8.74358 -0.335205 0
M  V30 1633 C 269.338 6.83093 -1.70294 0
M  V30 1634 C 268.628 5.79992 -0.836974 0
M  V30 1635 N 268.678 4.41864 -1.38293 0
M  V30 1636 H 265.839 8.13644 -3.0377 0
M  V30 1637 H 265.569 6.42788 -2.55485 0
M  V30 1638 H 266.436 8.12039 -0.792769 0
M  V30 1639 P 270.398 8.91 8.68872e-13 0
M  V30 1640 O 270.618 10.1726 0.733694 0
M  V30 1641 O 271.188 8.73148 -1.23936 0
M  V30 1642 O 270.648 7.66872 0.971405 0
M  V30 1643 C 269.708 7.42309 2.04641 0
M  V30 1644 C 270.438 6.86059 3.24661 0
M  V30 1645 O 270.648 5.42847 3.03646 0
M  V30 1646 C 271.838 7.41196 3.50753 0
M  V30 1647 O 272.228 7.27073 4.86816 0
M  V30 1648 C 272.718 6.5273 2.63741 0
M  V30 1649 C 272.008 5.1842 2.73198 0
M  V30 1650 N 272.058 4.38762 1.4784 0
M  V30 1651 H 269.219 8.36803 2.32493 0
M  V30 1652 H 268.949 6.70197 1.71129 0
M  V30 1653 H 269.816 7.03551 4.13168 0
M  V30 1654 P 273.778 7.20834 5.23717 0
M  V30 1655 O 273.998 7.79853 6.57286 0
M  V30 1656 O 274.568 7.79239 4.12957 0
M  V30 1657 O 274.028 5.63315 5.29344 0
M  V30 1658 C 273.088 4.80255 6.01876 0
M  V30 1659 C 273.818 3.64202 6.65911 0
M  V30 1660 O 274.028 2.60694 5.64732 0
M  V30 1661 C 275.218 3.93473 7.1943 0
M  V30 1662 O 275.608 3.02071 8.21205 0
M  V30 1663 C 276.098 3.73047 5.97036 0
M  V30 1664 C 275.388 2.58828 5.25741 0
M  V30 1665 N 275.438 2.68068 3.77503 0
M  V30 1666 H 272.599 5.40332 6.79951 0
M  V30 1667 H 272.329 4.41613 5.32378 0
M  V30 1668 H 273.196 3.26331 7.47797 0
M  V30 1669 P 277.158 2.75334 8.47391 0
M  V30 1670 O 277.378 2.44619 9.90336 0
M  V30 1671 O 277.948 3.87776 7.92294 0
M  V30 1672 O 277.408 1.4459 7.59357 0
M  V30 1673 C 276.468 0.347653 7.69315 0
M  V30 1674 C 277.198 -0.96767 7.52806 0
M  V30 1675 O 277.408 -1.21055 6.10208 0
M  V30 1676 C 278.598 -1.04557 8.13408 0
M  V30 1677 O 278.988 -2.38311 8.41922 0
M  V30 1678 C 279.478 -0.491279 7.02284 0
M  V30 1679 C 278.768 -0.996264 5.77469 0
M  V30 1680 N 278.818 -0.0501916 4.62973 0
M  V30 1681 C 278.738 1.31969 4.65661 0
M  V30 1682 N 278.808 1.86649 3.48119 0
M  V30 1683 C 278.958 0.792089 2.62406 0
M  V30 1684 C 279.088 0.705684 1.2207 0
M  V30 1685 N 279.098 1.76207 0.413762 0
M  V30 1686 N 279.208 -0.518981 0.685754 0
M  V30 1687 C 279.198 -1.57595 1.49174 0
M  V30 1688 N 279.078 -1.62909 2.80066 0
M  V30 1689 C 278.958 -0.388195 3.3073 0
M  V30 1690 H 275.98 0.374765 8.67791 0
M  V30 1691 H 275.708 0.443613 6.90476 0
M  V30 1692 H 276.576 -1.75559 7.96891 0
M  V30 1693 H 279.231 -1.94563 5.46818 0
M  V30 1694 H 279.511 0.608651 7.04676 0
M  V30 1695 H 280.502 -0.889796 7.09039 0
M  V30 1696 H 278.668 -0.433128 9.04664 0
M  V30 1697 H 278.627 1.89246 5.57664 0
M  V30 1698 H 279.008 2.71005 0.804694 0
M  V30 1699 H 279.197 1.63189 -0.603768 0
M  V30 1700 H 279.305 -2.53475 0.997614 0
M  V30 1701 P 280.538 -2.75334 8.47391 0
M  V30 1702 O 280.758 -3.84128 9.44797 0
M  V30 1703 O 281.328 -1.51947 8.68712 0
M  V30 1704 O 280.788 -3.29363 6.99321 0
M  V30 1705 C 279.848 -4.24011 6.4274 0
M  V30 1706 C 280.578 -5.20775 5.52155 0
M  V30 1707 O 280.788 -4.56534 4.22446 0
M  V30 1708 C 281.978 -5.62629 5.96531 0
M  V30 1709 O 282.368 -6.87667 5.41053 0
M  V30 1710 C 282.858 -4.52537 5.39283 0
M  V30 1711 C 282.148 -4.20027 4.08623 0
M  V30 1712 N 282.198 -2.76189 3.71603 0
M  V30 1713 H 279.359 -4.797 7.24003 0
M  V30 1714 H 279.089 -3.69856 5.84513 0
M  V30 1715 H 279.956 -6.10356 5.41441 0
M  V30 1716 P 283.918 -7.20834 5.23717 0
M  V30 1717 O 284.138 -8.66274 5.38678 0
M  V30 1718 O 284.708 -6.33687 6.13629 0
M  V30 1719 O 284.168 -6.7751 3.72168 0
M  V30 1720 C 283.228 -7.20919 2.70795 0
M  V30 1721 C 283.958 -7.45864 1.40599 0
M  V30 1722 O 284.168 -6.17751 0.734343 0
M  V30 1723 C 285.358 -8.05906 1.51917 0
M  V30 1724 O 285.748 -8.74358 0.335205 0
M  V30 1725 C 286.238 -6.83093 1.70294 0
M  V30 1726 C 285.528 -5.79992 0.836974 0
M  V30 1727 N 285.578 -4.41864 1.38293 0
M  V30 1728 H 282.74 -8.13738 3.03804 0
M  V30 1729 H 282.468 -6.42974 2.55559 0
M  V30 1730 H 283.336 -8.12139 0.792866 0
M  V30 1731 H 285.991 -5.80178 -0.160643 0
M  V30 1732 H 286.271 -6.51379 2.75643 0
M  V30 1733 H 287.262 -7.01832 1.3448 0
M  V30 1734 H 285.428 -8.73771 2.38364 0
M  V30 1735 P 287.298 -8.91 -1.02605e-12 0
M  V30 1736 O 287.518 -10.1746 -0.733838 0
M  V30 1737 O 288.088 -8.73346 1.23964 0
M  V30 1738 O 287.548 -7.66872 -0.971405 0
M  V30 1739 C 286.608 -7.42405 -2.04668 0
M  V30 1740 C 287.338 -6.86059 -3.24661 0
M  V30 1741 O 287.548 -5.42934 -3.03695 0
M  V30 1742 C 288.738 -7.41287 -3.50796 0
M  V30 1743 O 289.128 -7.27073 -4.86816 0
M  V30 1744 C 289.618 -6.5273 -2.63741 0
M  V30 1745 C 288.908 -5.1842 -2.73198 0
M  V30 1746 N 288.958 -4.38762 -1.4784 0
M  V30 1747 H 286.12 -8.36899 -2.3252 0
M  V30 1748 H 285.848 -6.70391 -1.71179 0
M  V30 1749 H 286.716 -7.03638 -4.13219 0
M  V30 1750 H 289.371 -4.59931 -3.54016 0
M  V30 1751 H 289.651 -6.88995 -1.59871 0
M  V30 1752 H 290.642 -6.4684 -3.0373 0
M  V30 1753 H 288.808 -8.47002 -3.20749 0
M  V30 1754 P 290.678 -7.20834 -5.23717 0
M  V30 1755 O 290.898 -7.79853 -6.57286 0
M  V30 1756 O 291.468 -7.79239 -4.12957 0
M  V30 1757 O 290.928 -5.63315 -5.29344 0
M  V30 1758 C 289.988 -4.80255 -6.01876 0
M  V30 1759 C 290.718 -3.64202 -6.65911 0
M  V30 1760 O 290.928 -2.60694 -5.64732 0
M  V30 1761 C 292.118 -3.93473 -7.1943 0
M  V30 1762 O 292.508 -3.02071 -8.21205 0
M  V30 1763 C 292.998 -3.73047 -5.97036 0
M  V30 1764 C 292.288 -2.58828 -5.25741 0
M  V30 1765 N 292.338 -2.68068 -3.77503 0
M  V30 1766 H 289.499 -5.40332 -6.79951 0
M  V30 1767 H 289.229 -4.41613 -5.32378 0
M  V30 1768 H 290.096 -3.26331 -7.47797 0
M  V30 1769 P 294.058 -2.75334 -8.47391 0
M  V30 1770 O 294.278 -2.44571 -9.90142 0
M  V30 1771 O 294.848 -3.87688 -7.92115 0
M  V30 1772 O 294.308 -1.4459 -7.59357 0
M  V30 1773 C 293.368 -0.347608 -7.69215 0
M  V30 1774 C 294.098 0.96767 -7.52806 0
M  V30 1775 O 294.308 1.21036 -6.1011 0
M  V30 1776 C 295.498 1.04544 -8.13308 0
M  V30 1777 O 295.888 2.38311 -8.41922 0
M  V30 1778 C 296.378 0.491279 -7.02284 0
M  V30 1779 C 295.668 0.996264 -5.77469 0
M  V30 1780 N 295.718 0.0501916 -4.62973 0
M  V30 1781 H 292.879 -0.374722 -8.67691 0
M  V30 1782 H 292.609 -0.443485 -6.90277 0
M  V30 1783 H 293.476 1.75537 -7.96793 0
M  V30 1784 P 297.438 2.75334 -8.47391 0
M  V30 1785 O 297.658 3.84128 -9.44797 0
M  V30 1786 O 298.228 1.51947 -8.68712 0
M  V30 1787 O 297.688 3.29363 -6.99321 0
M  V30 1788 C 296.748 4.24011 -6.4274 0
M  V30 1789 C 297.478 5.20775 -5.52155 0
M  V30 1790 O 297.688 4.56534 -4.22446 0
M  V30 1791 C 298.878 5.62629 -5.96531 0
M  V30 1792 O 299.268 6.87667 -5.41053 0
M  V30 1793 C 299.758 4.52537 -5.39283 0
M  V30 1794 C 299.048 4.20027 -4.08623 0
M  V30 1795 N 299.098 2.76189 -3.71603 0
M  V30 1796 H 296.259 4.797 -7.24003 0
M  V30 1797 H 295.989 3.69856 -5.84513 0
M  V30 1798 H 296.856 6.10356 -5.41441 0
M  V30 1799 P 300.818 7.20834 -5.23717 0
M  V30 1800 O 301.038 8.66104 -5.38572 0
M  V30 1801 O 301.608 6.33544 -6.1349 0
M  V30 1802 O 301.068 6.7751 -3.72168 0
M  V30 1803 C 300.128 7.20825 -2.7076 0
M  V30 1804 C 300.858 7.45864 -1.40599 0
M  V30 1805 O 301.068 6.17651 -0.734225 0
M  V30 1806 C 302.258 8.05808 -1.51899 0
M  V30 1807 O 302.648 8.74358 -0.335205 0
M  V30 1808 C 303.138 6.83093 -1.70294 0
M  V30 1809 C 302.428 5.79992 -0.836974 0
M  V30 1810 N 302.478 4.41864 -1.38293 0
M  V30 1811 H 299.639 8.13644 -3.0377 0
M  V30 1812 H 299.369 6.42788 -2.55485 0
M  V30 1813 H 300.236 8.12039 -0.792769 0
M  V30 1814 P 304.198 8.91 1.18324e-12 0
M  V30 1815 O 304.418 10.1726 0.733694 0
M  V30 1816 O 304.988 8.73148 -1.23936 0
M  V30 1817 O 304.448 7.66872 0.971405 0
M  V30 1818 C 303.508 7.42309 2.04641 0
M  V30 1819 C 304.238 6.86059 3.24661 0
M  V30 1820 O 304.448 5.42847 3.03646 0
M  V30 1821 C 305.638 7.41196 3.50753 0
M  V30 1822 O 306.028 7.27073 4.86816 0
M  V30 1823 C 306.518 6.5273 2.63741 0
M  V30 1824 C 305.808 5.1842 2.73198 0
M  V30 1825 N 305.858 4.38762 1.4784 0
M  V30 1826 H 303.019 8.36803 2.32493 0
M  V30 1827 H 302.749 6.70197 1.71129 0
M  V30 1828 H 303.616 7.03551 4.13168 0
M  V30 1829 P 307.578 7.20834 5.23717 0
M  V30 1830 O 307.798 7.79853 6.57286 0
M  V30 1831 O 308.368 7.79239 4.12957 0
M  V30 1832 O 307.828 5.63315 5.29344 0
M  V30 1833 C 306.888 4.80255 6.01876 0
M  V30 1834 C 307.618 3.64202 6.65911 0
M  V30 1835 O 307.828 2.60694 5.64732 0
M  V30 1836 C 309.018 3.93473 7.1943 0
M  V30 1837 O 309.408 3.02071 8.21205 0
M  V30 1838 C 309.898 3.73047 5.97036 0
M  V30 1839 C 309.188 2.58828 5.25741 0
M  V30 1840 N 309.238 2.68068 3.77503 0
M  V30 1841 H 306.399 5.40332 6.79951 0
M  V30 1842 H 306.129 4.41613 5.32378 0
M  V30 1843 H 306.996 3.26331 7.47797 0
M  V30 1844 P 310.958 2.75334 8.47391 0
M  V30 1845 O 311.178 2.44571 9.90142 0
M  V30 1846 O 311.748 3.87688 7.92115 0
M  V30 1847 O 311.208 1.4459 7.59357 0
M  V30 1848 C 310.268 0.347608 7.69215 0
M  V30 1849 C 310.998 -0.96767 7.52806 0
M  V30 1850 O 311.208 -1.21036 6.1011 0
M  V30 1851 C 312.398 -1.04544 8.13308 0
M  V30 1852 O 312.788 -2.38311 8.41922 0
M  V30 1853 C 313.278 -0.491279 7.02284 0
M  V30 1854 C 312.568 -0.996264 5.77469 0
M  V30 1855 N 312.618 -0.0501916 4.62973 0
M  V30 1856 H 309.779 0.374722 8.67691 0
M  V30 1857 H 309.509 0.443485 6.90277 0
M  V30 1858 H 310.376 -1.75537 7.96793 0
M  V30 1859 P 314.338 -2.75334 8.47391 0
M  V30 1860 O 314.558 -3.84128 9.44797 0
M  V30 1861 O 315.128 -1.51947 8.68712 0
M  V30 1862 O 314.588 -3.29363 6.99321 0
M  V30 1863 C 313.648 -4.24011 6.4274 0
M  V30 1864 C 314.378 -5.20775 5.52155 0
M  V30 1865 O 314.588 -4.56534 4.22446 0
M  V30 1866 C 315.778 -5.62629 5.96531 0
M  V30 1867 O 316.168 -6.87667 5.41053 0
M  V30 1868 C 316.658 -4.52537 5.39283 0
M  V30 1869 C 315.948 -4.20027 4.08623 0
M  V30 1870 N 315.998 -2.76189 3.71603 0
M  V30 1871 H 313.159 -4.797 7.24003 0
M  V30 1872 H 312.889 -3.69856 5.84513 0
M  V30 1873 H 313.756 -6.10356 5.41441 0
M  V30 1874 P 317.718 -7.20834 5.23717 0
M  V30 1875 O 317.938 -8.66189 5.38625 0
M  V30 1876 O 318.508 -6.33615 6.1356 0
M  V30 1877 O 317.968 -6.7751 3.72168 0
M  V30 1878 C 317.028 -7.20732 2.70725 0
M  V30 1879 C 317.758 -7.45864 1.40599 0
M  V30 1880 O 317.968 -6.17651 0.734225 0
M  V30 1881 C 319.158 -8.05808 1.51899 0
M  V30 1882 O 319.548 -8.74358 0.335205 0
M  V30 1883 C 320.038 -6.83093 1.70294 0
M  V30 1884 C 319.328 -5.79992 0.836974 0
M  V30 1885 N 319.378 -4.41769 1.38263 0
M  V30 1886 C 319.528 -3.38591 0.481702 0
M  V30 1887 O 319.618 -3.56839 -0.718452 0
M  V30 1888 N 319.568 -2.1206 1.03569 0
M  V30 1889 C 319.478 -1.80696 2.36966 0
M  V30 1890 O 319.528 -0.630473 2.74862 0
M  V30 1891 C 319.328 -2.94845 3.23898 0
M  V30 1892 C 319.218 -2.65253 4.70362 0
M  V30 1893 C 319.278 -4.19803 2.73435 0
M  V30 1894 H 316.538 -8.13644 3.0377 0
M  V30 1895 H 316.269 -6.42695 2.55448 0
M  V30 1896 H 317.136 -8.12039 0.792769 0
M  V30 1897 H 319.791 -5.79978 -0.160587 0
M  V30 1898 H 320.07 -6.51379 2.75643 0
M  V30 1899 H 321.062 -7.01734 1.34462 0
M  V30 1900 H 319.228 -8.73674 2.38337 0
M  V30 1901 H 319.157 -5.04492 3.4095 0
M  V30 1902 H 320.187 -2.83924 5.1913 0
M  V30 1903 H 318.45 -3.29824 5.15163 0
M  V30 1904 H 318.938 -1.59723 4.84449 0
M  V30 1905 H 319.674 -1.35644 0.399345 0
M  V30 1906 P 321.098 -8.91 -1.34042e-12 0
M  V30 1907 O 321.318 -10.1726 -0.733694 0
M  V30 1908 O 321.888 -8.73148 1.23936 0
M  V30 1909 O 321.348 -7.66872 -0.971405 0
M  V30 1910 C 320.408 -7.42309 -2.04641 0
M  V30 1911 C 321.138 -6.86059 -3.24661 0
M  V30 1912 O 321.348 -5.42847 -3.03646 0
M  V30 1913 C 322.538 -7.41196 -3.50753 0
M  V30 1914 O 322.928 -7.27073 -4.86816 0
M  V30 1915 C 323.418 -6.5273 -2.63741 0
M  V30 1916 C 322.708 -5.1842 -2.73198 0
M  V30 1917 N 322.758 -4.38762 -1.4784 0
M  V30 1918 C 322.678 -4.81605 -0.168631 0
M  V30 1919 N 322.758 -3.85454 0.713363 0
M  V30 1920 C 322.898 -2.6994 -0.0566958 0
M  V30 1921 C 323.028 -1.34815 0.338502 0
M  V30 1922 N 323.148 -0.496304 -0.77465 0
M  V30 1923 C 323.148 -0.908403 -2.09122 0
M  V30 1924 N 323.278 0.0517805 -3.00955 0
M  V30 1925 N 323.018 -2.17875 -2.46519 0
M  V30 1926 C 322.898 -3.01988 -1.4033 0
M  V30 1927 H 319.919 -8.36803 -2.32493 0
M  V30 1928 H 319.649 -6.70197 -1.71129 0
M  V30 1929 H 320.516 -7.03551 -4.13168 0
M  V30 1930 P 324.478 -7.20834 -5.23717 0
M  V30 1931 O 324.698 -7.79853 -6.57286 0
M  V30 1932 O 325.268 -7.79239 -4.12957 0
M  V30 1933 O 324.728 -5.63315 -5.29344 0
M  V30 1934 C 323.788 -4.80255 -6.01876 0
M  V30 1935 C 324.518 -3.64202 -6.65911 0
M  V30 1936 O 324.728 -2.60694 -5.64732 0
M  V30 1937 C 325.918 -3.93473 -7.1943 0
M  V30 1938 O 326.308 -3.02071 -8.21205 0
M  V30 1939 C 326.798 -3.73047 -5.97036 0
M  V30 1940 C 326.088 -2.58828 -5.25741 0
M  V30 1941 N 326.138 -2.68068 -3.77503 0
M  V30 1942 H 323.299 -5.40332 -6.79951 0
M  V30 1943 H 323.029 -4.41613 -5.32378 0
M  V30 1944 H 323.896 -3.26331 -7.47797 0
M  V30 1945 P 327.858 -2.75334 -8.47391 0
M  V30 1946 O 328.078 -2.44571 -9.90142 0
M  V30 1947 O 328.648 -3.87688 -7.92115 0
M  V30 1948 O 328.108 -1.4459 -7.59357 0
M  V30 1949 C 327.168 -0.347608 -7.69215 0
M  V30 1950 C 327.898 0.96767 -7.52806 0
M  V30 1951 O 328.108 1.21036 -6.1011 0
M  V30 1952 C 329.298 1.04544 -8.13308 0
M  V30 1953 O 329.688 2.38311 -8.41922 0
M  V30 1954 C 330.178 0.491279 -7.02284 0
M  V30 1955 C 329.468 0.996264 -5.77469 0
M  V30 1956 N 329.518 0.0501916 -4.62973 0
M  V30 1957 H 326.679 -0.374722 -8.67691 0
M  V30 1958 H 326.409 -0.443485 -6.90277 0
M  V30 1959 H 327.276 1.75537 -7.96793 0
M  V30 1960 P 331.238 2.75334 -8.47391 0
M  V30 1961 O 331.458 3.84128 -9.44797 0
M  V30 1962 O 332.028 1.51947 -8.68712 0
M  V30 1963 O 331.488 3.29363 -6.99321 0
M  V30 1964 C 330.548 4.24011 -6.4274 0
M  V30 1965 C 331.278 5.20775 -5.52155 0
M  V30 1966 O 331.488 4.56534 -4.22446 0
M  V30 1967 C 332.678 5.62629 -5.96531 0
M  V30 1968 O 333.068 6.87667 -5.41053 0
M  V30 1969 C 333.558 4.52537 -5.39283 0
M  V30 1970 C 332.848 4.20027 -4.08623 0
M  V30 1971 N 332.898 2.76189 -3.71603 0
M  V30 1972 H 330.059 4.797 -7.24003 0
M  V30 1973 H 329.789 3.69856 -5.84513 0
M  V30 1974 H 330.656 6.10356 -5.41441 0
M  V30 1975 P 334.618 7.20834 -5.23717 0
M  V30 1976 O 334.838 8.66274 -5.38678 0
M  V30 1977 O 335.408 6.33687 -6.13629 0
M  V30 1978 O 334.868 6.7751 -3.72168 0
M  V30 1979 C 333.928 7.20919 -2.70795 0
M  V30 1980 C 334.658 7.45864 -1.40599 0
M  V30 1981 O 334.868 6.17751 -0.734343 0
M  V30 1982 C 336.058 8.05906 -1.51917 0
M  V30 1983 O 336.448 8.74358 -0.335205 0
M  V30 1984 C 336.938 6.83093 -1.70294 0
M  V30 1985 C 336.228 5.79992 -0.836974 0
M  V30 1986 N 336.278 4.41864 -1.38293 0
M  V30 1987 H 333.44 8.13738 -3.03804 0
M  V30 1988 H 333.168 6.42974 -2.55559 0
M  V30 1989 H 334.036 8.12139 -0.792866 0
M  V30 1990 H 336.691 5.80178 0.160643 0
M  V30 1991 H 336.971 6.51379 -2.75643 0
M  V30 1992 H 337.962 7.01832 -1.3448 0
M  V30 1993 H 336.128 8.73771 -2.38364 0
M  V30 1994 P 337.998 8.91 1.4976e-12 0
M  V30 1995 O 338.218 10.1726 0.733694 0
M  V30 1996 O 338.788 8.73148 -1.23936 0
M  V30 1997 O 338.248 7.66872 0.971405 0
M  V30 1998 C 337.308 7.42309 2.04641 0
M  V30 1999 C 338.038 6.86059 3.24661 0
M  V30 2000 O 338.248 5.42847 3.03646 0
M  V30 2001 C 339.438 7.41196 3.50753 0
M  V30 2002 O 339.828 7.27073 4.86816 0
M  V30 2003 C 340.318 6.5273 2.63741 0
M  V30 2004 C 339.608 5.1842 2.73198 0
M  V30 2005 N 339.658 4.38762 1.4784 0
M  V30 2006 H 336.819 8.36803 2.32493 0
M  V30 2007 H 336.549 6.70197 1.71129 0
M  V30 2008 H 337.416 7.03551 4.13168 0
M  V30 2009 P 341.378 7.20834 5.23717 0
M  V30 2010 O 341.598 7.79853 6.57286 0
M  V30 2011 O 342.168 7.79239 4.12957 0
M  V30 2012 O 341.628 5.63315 5.29344 0
M  V30 2013 C 340.688 4.80255 6.01876 0
M  V30 2014 C 341.418 3.64202 6.65911 0
M  V30 2015 O 341.628 2.60694 5.64732 0
M  V30 2016 C 342.818 3.93473 7.1943 0
M  V30 2017 O 343.208 3.02071 8.21205 0
M  V30 2018 C 343.698 3.73047 5.97036 0
M  V30 2019 C 342.988 2.58828 5.25741 0
M  V30 2020 N 343.038 2.68068 3.77503 0
M  V30 2021 H 340.199 5.40332 6.79951 0
M  V30 2022 H 339.929 4.41613 5.32378 0
M  V30 2023 H 340.796 3.26331 7.47797 0
M  V30 2024 P 344.758 2.75334 8.47391 0
M  V30 2025 O 344.978 2.44571 9.90142 0
M  V30 2026 O 345.548 3.87688 7.92115 0
M  V30 2027 O 345.008 1.4459 7.59357 0
M  V30 2028 C 344.068 0.347608 7.69215 0
M  V30 2029 C 344.798 -0.96767 7.52806 0
M  V30 2030 O 345.008 -1.21036 6.1011 0
M  V30 2031 C 346.198 -1.04544 8.13308 0
M  V30 2032 O 346.588 -2.38311 8.41922 0
M  V30 2033 C 347.078 -0.491279 7.02284 0
M  V30 2034 C 346.368 -0.996264 5.77469 0
M  V30 2035 N 346.418 -0.0501916 4.62973 0
M  V30 2036 H 343.579 0.374722 8.67691 0
M  V30 2037 H 343.309 0.443485 6.90277 0
M  V30 2038 H 344.176 -1.75537 7.96793 0
M  V30 2039 P 348.138 -2.75334 8.47391 0
M  V30 2040 O 348.358 -3.84128 9.44797 0
M  V30 2041 O 348.928 -1.51947 8.68712 0
M  V30 2042 O 348.388 -3.29363 6.99321 0
M  V30 2043 C 347.448 -4.24011 6.4274 0
M  V30 2044 C 348.178 -5.20775 5.52155 0
M  V30 2045 O 348.388 -4.56534 4.22446 0
M  V30 2046 C 349.578 -5.62629 5.96531 0
M  V30 2047 O 349.968 -6.87667 5.41053 0
M  V30 2048 C 350.458 -4.52537 5.39283 0
M  V30 2049 C 349.748 -4.20027 4.08623 0
M  V30 2050 N 349.798 -2.76189 3.71603 0
M  V30 2051 H 346.959 -4.797 7.24003 0
M  V30 2052 H 346.689 -3.69856 5.84513 0
M  V30 2053 H 347.556 -6.10356 5.41441 0
M  V30 2054 P 351.518 -7.20834 5.23717 0
M  V30 2055 O 351.738 -8.66104 5.38572 0
M  V30 2056 O 352.308 -6.33544 6.1349 0
M  V30 2057 O 351.768 -6.7751 3.72168 0
M  V30 2058 C 350.828 -7.20825 2.7076 0
M  V30 2059 C 351.558 -7.45864 1.40599 0
M  V30 2060 O 351.768 -6.17651 0.734225 0
M  V30 2061 C 352.958 -8.05808 1.51899 0
M  V30 2062 O 353.348 -8.74358 0.335205 0
M  V30 2063 C 353.838 -6.83093 1.70294 0
M  V30 2064 C 353.128 -5.79992 0.836974 0
M  V30 2065 N 353.178 -4.41864 1.38293 0
M  V30 2066 H 350.339 -8.13644 3.0377 0
M  V30 2067 H 350.069 -6.42788 2.55485 0
M  V30 2068 H 350.936 -8.12039 0.792769 0
M  V30 2069 P 354.898 -8.91 -1.65478e-12 0
M  V30 2070 O 355.118 -10.1726 -0.733694 0
M  V30 2071 O 355.688 -8.73148 1.23936 0
M  V30 2072 O 355.148 -7.66872 -0.971405 0
M  V30 2073 C 354.208 -7.42309 -2.04641 0
M  V30 2074 C 354.938 -6.86059 -3.24661 0
M  V30 2075 O 355.148 -5.42847 -3.03646 0
M  V30 2076 C 356.338 -7.41196 -3.50753 0
M  V30 2077 O 356.728 -7.27073 -4.86816 0
M  V30 2078 C 357.218 -6.5273 -2.63741 0
M  V30 2079 C 356.508 -5.1842 -2.73198 0
M  V30 2080 N 356.558 -4.38762 -1.4784 0
M  V30 2081 H 353.719 -8.36803 -2.32493 0
M  V30 2082 H 353.449 -6.70197 -1.71129 0
M  V30 2083 H 354.316 -7.03551 -4.13168 0
M  V30 2084 P 358.278 -7.20834 -5.23717 0
M  V30 2085 O 358.498 -7.79853 -6.57286 0
M  V30 2086 O 359.068 -7.79239 -4.12957 0
M  V30 2087 O 358.528 -5.63315 -5.29344 0
M  V30 2088 C 357.588 -4.80255 -6.01876 0
M  V30 2089 C 358.318 -3.64202 -6.65911 0
M  V30 2090 O 358.528 -2.60694 -5.64732 0
M  V30 2091 C 359.718 -3.93473 -7.1943 0
M  V30 2092 O 360.108 -3.02071 -8.21205 0
M  V30 2093 C 360.598 -3.73047 -5.97036 0
M  V30 2094 C 359.888 -2.58828 -5.25741 0
M  V30 2095 N 359.938 -2.68068 -3.77503 0
M  V30 2096 H 357.099 -5.40332 -6.79951 0
M  V30 2097 H 356.829 -4.41613 -5.32378 0
M  V30 2098 H 357.696 -3.26331 -7.47797 0
M  V30 2099 P 361.658 -2.75334 -8.47391 0
M  V30 2100 O 361.878 -2.44571 -9.90142 0
M  V30 2101 O 362.448 -3.87688 -7.92115 0
M  V30 2102 O 361.908 -1.4459 -7.59357 0
M  V30 2103 C 360.968 -0.347608 -7.69215 0
M  V30 2104 C 361.698 0.96767 -7.52806 0
M  V30 2105 O 361.908 1.21036 -6.1011 0
M  V30 2106 C 363.098 1.04544 -8.13308 0
M  V30 2107 O 363.488 2.38311 -8.41922 0
M  V30 2108 C 363.978 0.491279 -7.02284 0
M  V30 2109 C 363.268 0.996264 -5.77469 0
M  V30 2110 N 363.318 0.0501916 -4.62973 0
M  V30 2111 H 360.479 -0.374722 -8.67691 0
M  V30 2112 H 360.209 -0.443485 -6.90277 0
M  V30 2113 H 361.076 1.75537 -7.96793 0
M  V30 2114 P 365.038 2.75334 -8.47391 0
M  V30 2115 O 365.258 3.84128 -9.44797 0
M  V30 2116 O 365.828 1.51947 -8.68712 0
M  V30 2117 O 365.288 3.29363 -6.99321 0
M  V30 2118 C 364.348 4.24011 -6.4274 0
M  V30 2119 C 365.078 5.20775 -5.52155 0
M  V30 2120 O 365.288 4.56534 -4.22446 0
M  V30 2121 C 366.478 5.62629 -5.96531 0
M  V30 2122 O 366.868 6.87667 -5.41053 0
M  V30 2123 C 367.358 4.52537 -5.39283 0
M  V30 2124 C 366.648 4.20027 -4.08623 0
M  V30 2125 N 366.698 2.76189 -3.71603 0
M  V30 2126 C 366.618 1.64862 -4.52822 0
M  V30 2127 N 366.698 0.512671 -3.88633 0
M  V30 2128 C 366.838 0.888083 -2.54977 0
M  V30 2129 C 366.968 0.094668 -1.38677 0
M  V30 2130 O 366.988 -1.13053 -1.28163 0
M  V30 2131 N 367.088 0.890102 -0.232633 0
M  V30 2132 C 367.088 2.26958 -0.21772 0
M  V30 2133 N 367.218 2.84626 0.97925 0
M  V30 2134 N 366.958 3.0178 -1.31033 0
M  V30 2135 C 366.838 2.26781 -2.43843 0
M  V30 2136 H 363.859 4.797 -7.24003 0
M  V30 2137 H 363.589 3.69856 -5.84513 0
M  V30 2138 H 364.456 6.10356 -5.41441 0
M  V30 2139 H 367.111 4.79061 -3.27488 0
M  V30 2140 H 367.39 3.64906 -6.05785 0
M  V30 2141 H 368.382 4.8868 -5.2125 0
M  V30 2142 H 366.548 5.66726 -7.06352 0
M  V30 2143 H 366.499 1.71169 -5.60966 0
M  V30 2144 H 367.181 0.419134 0.644739 0
M  V30 2145 H 367.218 3.87332 1.06098 0
M  V30 2146 H 367.319 2.26417 1.82483 0
M  V30 2147 P 368.418 7.20834 -5.23717 0
M  V30 2148 O 368.638 8.66104 -5.38572 0
M  V30 2149 O 369.208 6.33544 -6.1349 0
M  V30 2150 O 368.668 6.7751 -3.72168 0
M  V30 2151 C 367.728 7.20825 -2.7076 0
M  V30 2152 C 368.458 7.45864 -1.40599 0
M  V30 2153 O 368.668 6.17651 -0.734225 0
M  V30 2154 C 369.858 8.05808 -1.51899 0
M  V30 2155 O 370.248 8.74358 -0.335205 0
M  V30 2156 C 370.738 6.83093 -1.70294 0
M  V30 2157 C 370.028 5.79992 -0.836974 0
M  V30 2158 N 370.078 4.41864 -1.38293 0
M  V30 2159 H 367.239 8.13644 -3.0377 0
M  V30 2160 H 366.969 6.42788 -2.55485 0
M  V30 2161 H 367.836 8.12039 -0.792769 0
M  V30 2162 P 371.798 8.91 1.81197e-12 0
M  V30 2163 O 372.018 10.1726 0.733694 0
M  V30 2164 O 372.588 8.73148 -1.23936 0
M  V30 2165 O 372.048 7.66872 0.971405 0
M  V30 2166 C 371.108 7.42309 2.04641 0
M  V30 2167 C 371.838 6.86059 3.24661 0
M  V30 2168 O 372.048 5.42847 3.03646 0
M  V30 2169 C 373.238 7.41196 3.50753 0
M  V30 2170 O 373.628 7.27073 4.86816 0
M  V30 2171 C 374.118 6.5273 2.63741 0
M  V30 2172 C 373.408 5.1842 2.73198 0
M  V30 2173 N 373.458 4.38762 1.4784 0
M  V30 2174 H 370.619 8.36803 2.32493 0
M  V30 2175 H 370.349 6.70197 1.71129 0
M  V30 2176 H 371.216 7.03551 4.13168 0
M  V30 2177 P 375.178 7.20834 5.23717 0
M  V30 2178 O 375.398 7.79853 6.57286 0
M  V30 2179 O 375.968 7.79239 4.12957 0
M  V30 2180 O 375.428 5.63315 5.29344 0
M  V30 2181 C 374.488 4.80255 6.01876 0
M  V30 2182 C 375.218 3.64202 6.65911 0
M  V30 2183 O 375.428 2.60694 5.64732 0
M  V30 2184 C 376.618 3.93473 7.1943 0
M  V30 2185 O 377.008 3.02071 8.21205 0
M  V30 2186 C 377.498 3.73047 5.97036 0
M  V30 2187 C 376.788 2.58828 5.25741 0
M  V30 2188 N 376.838 2.68068 3.77503 0
M  V30 2189 H 373.999 5.40332 6.79951 0
M  V30 2190 H 373.729 4.41613 5.32378 0
M  V30 2191 H 374.596 3.26331 7.47797 0
M  V30 2192 P 378.558 2.75334 8.47391 0
M  V30 2193 O 378.778 2.44571 9.90142 0
M  V30 2194 O 379.348 3.87688 7.92115 0
M  V30 2195 O 378.808 1.4459 7.59357 0
M  V30 2196 C 377.868 0.347608 7.69215 0
M  V30 2197 C 378.598 -0.96767 7.52806 0
M  V30 2198 O 378.808 -1.21036 6.1011 0
M  V30 2199 C 379.998 -1.04544 8.13308 0
M  V30 2200 O 380.388 -2.38311 8.41922 0
M  V30 2201 C 380.878 -0.491279 7.02284 0
M  V30 2202 C 380.168 -0.996264 5.77469 0
M  V30 2203 N 380.218 -0.0501916 4.62973 0
M  V30 2204 H 377.379 0.374722 8.67691 0
M  V30 2205 H 377.109 0.443485 6.90277 0
M  V30 2206 H 377.976 -1.75537 7.96793 0
M  V30 2207 P 381.938 -2.75334 8.47391 0
M  V30 2208 O 382.158 -3.84166 9.4489 0
M  V30 2209 O 382.728 -1.51964 8.6881 0
M  V30 2210 O 382.188 -3.29363 6.99321 0
M  V30 2211 C 381.248 -4.23956 6.42656 0
M  V30 2212 C 381.978 -5.20775 5.52155 0
M  V30 2213 O 382.188 -4.56534 4.22446 0
M  V30 2214 C 383.378 -5.62629 5.96531 0
M  V30 2215 O 383.768 -6.87667 5.41053 0
M  V30 2216 C 384.258 -4.52537 5.39283 0
M  V30 2217 C 383.548 -4.20027 4.08623 0
M  V30 2218 N 383.598 -2.7613 3.71522 0
M  V30 2219 C 383.748 -2.45612 2.37989 0
M  V30 2220 O 383.838 -3.30919 1.51621 0
M  V30 2221 N 383.788 -1.10684 2.08435 0
M  V30 2222 C 383.698 -0.0690084 2.9792 0
M  V30 2223 C 383.548 -0.481522 4.35345 0
M  V30 2224 C 383.498 -1.78906 4.67968 0
M  V30 2225 H 380.758 -4.797 7.24003 0
M  V30 2226 H 380.489 -3.69802 5.84429 0
M  V30 2227 H 381.356 -6.10356 5.41441 0
M  V30 2228 H 384.011 -4.78651 3.27911 0
M  V30 2229 H 384.29 -3.64957 6.05871 0
M  V30 2230 H 385.282 -4.8868 5.2125 0
M  V30 2231 H 383.448 -5.66726 7.06352 0
M  V30 2232 H 383.377 -2.07737 5.72367 0
M  V30 2233 P 385.318 -7.20834 5.23717 0
M  V30 2234 O 385.538 -8.66104 5.38572 0
M  V30 2235 O 386.108 -6.33544 6.1349 0
M  V30 2236 O 385.568 -6.7751 3.72168 0
M  V30 2237 C 384.628 -7.20825 2.7076 0
M  V30 2238 C 385.358 -7.45864 1.40599 0
M  V30 2239 O 385.568 -6.17651 0.734225 0
M  V30 2240 C 386.758 -8.05808 1.51899 0
M  V30 2241 O 387.148 -8.74358 0.335205 0
M  V30 2242 C 387.638 -6.83093 1.70294 0
M  V30 2243 C 386.928 -5.79992 0.836974 0
M  V30 2244 N 386.978 -4.41864 1.38293 0
M  V30 2245 H 384.139 -8.13644 3.0377 0
M  V30 2246 H 383.869 -6.42788 2.55485 0
M  V30 2247 H 384.736 -8.12039 0.792769 0
M  V30 2248 P 388.698 -8.91 -1.96915e-12 0
M  V30 2249 O 388.918 -10.1726 -0.733694 0
M  V30 2250 O 389.488 -8.73148 1.23936 0
M  V30 2251 O 388.948 -7.66872 -0.971405 0
M  V30 2252 C 388.008 -7.42309 -2.04641 0
M  V30 2253 C 388.738 -6.86059 -3.24661 0
M  V30 2254 O 388.948 -5.42847 -3.03646 0
M  V30 2255 C 390.138 -7.41196 -3.50753 0
M  V30 2256 O 390.528 -7.27073 -4.86816 0
M  V30 2257 C 391.018 -6.5273 -2.63741 0
M  V30 2258 C 390.308 -5.1842 -2.73198 0
M  V30 2259 N 390.358 -4.38762 -1.4784 0
M  V30 2260 H 387.519 -8.36803 -2.32493 0
M  V30 2261 H 387.249 -6.70197 -1.71129 0
M  V30 2262 H 388.116 -7.03551 -4.13168 0
M  V30 2263 P 392.078 -7.20834 -5.23717 0
M  V30 2264 O 392.298 -7.79853 -6.57286 0
M  V30 2265 O 392.868 -7.79239 -4.12957 0
M  V30 2266 O 392.328 -5.63315 -5.29344 0
M  V30 2267 C 391.388 -4.80255 -6.01876 0
M  V30 2268 C 392.118 -3.64202 -6.65911 0
M  V30 2269 O 392.328 -2.60694 -5.64732 0
M  V30 2270 C 393.518 -3.93473 -7.1943 0
M  V30 2271 O 393.908 -3.02071 -8.21205 0
M  V30 2272 C 394.398 -3.73047 -5.97036 0
M  V30 2273 C 393.688 -2.58828 -5.25741 0
M  V30 2274 N 393.738 -2.68068 -3.77503 0
M  V30 2275 H 390.899 -5.40332 -6.79951 0
M  V30 2276 H 390.629 -4.41613 -5.32378 0
M  V30 2277 H 391.496 -3.26331 -7.47797 0
M  V30 2278 P 395.458 -2.75334 -8.47391 0
M  V30 2279 O 395.678 -2.44619 -9.90336 0
M  V30 2280 O 396.248 -3.87776 -7.92294 0
M  V30 2281 O 395.708 -1.4459 -7.59357 0
M  V30 2282 C 394.768 -0.347653 -7.69315 0
M  V30 2283 C 395.498 0.96767 -7.52806 0
M  V30 2284 O 395.708 1.21055 -6.10208 0
M  V30 2285 C 396.898 1.04557 -8.13408 0
M  V30 2286 O 397.288 2.38311 -8.41922 0
M  V30 2287 C 397.778 0.491279 -7.02284 0
M  V30 2288 C 397.068 0.996264 -5.77469 0
M  V30 2289 N 397.118 0.0501916 -4.62973 0
M  V30 2290 C 397.038 -1.31969 -4.65661 0
M  V30 2291 N 397.108 -1.86649 -3.48119 0
M  V30 2292 C 397.258 -0.792089 -2.62406 0
M  V30 2293 C 397.388 -0.705684 -1.2207 0
M  V30 2294 N 397.398 -1.76207 -0.413762 0
M  V30 2295 N 397.508 0.518981 -0.685754 0
M  V30 2296 C 397.498 1.57595 -1.49174 0
M  V30 2297 N 397.378 1.62909 -2.80066 0
M  V30 2298 C 397.258 0.388195 -3.3073 0
M  V30 2299 H 394.28 -0.374765 -8.67791 0
M  V30 2300 H 394.008 -0.443613 -6.90476 0
M  V30 2301 H 394.876 1.75559 -7.96891 0
M  V30 2302 H 397.531 1.94563 -5.46818 0
M  V30 2303 H 397.811 -0.608651 -7.04676 0
M  V30 2304 H 398.802 0.889796 -7.09039 0
M  V30 2305 H 396.968 0.433128 -9.04664 0
M  V30 2306 H 396.927 -1.89246 -5.57664 0
M  V30 2307 H 397.308 -2.71005 -0.804694 0
M  V30 2308 H 397.497 -1.63189 0.603768 0
M  V30 2309 H 397.605 2.53475 -0.997614 0
M  V30 2310 P 398.838 2.75334 -8.47391 0
M  V30 2311 O 399.058 3.84204 -9.44982 0
M  V30 2312 O 399.628 1.51982 -8.68909 0
M  V30 2313 O 399.088 3.29363 -6.99321 0
M  V30 2314 C 398.148 4.24066 -6.42823 0
M  V30 2315 C 398.878 5.20775 -5.52155 0
M  V30 2316 O 399.088 4.56607 -4.22514 0
M  V30 2317 C 400.278 5.62697 -5.96604 0
M  V30 2318 O 400.668 6.87667 -5.41053 0
M  V30 2319 C 401.158 4.52537 -5.39283 0
M  V30 2320 C 400.448 4.20027 -4.08623 0
M  V30 2321 N 400.498 2.76189 -3.71603 0
M  V30 2322 C 400.418 1.66944 -4.54297 0
M  V30 2323 N 400.488 0.536169 -3.91344 0
M  V30 2324 C 400.638 0.901569 -2.58849 0
M  V30 2325 C 400.768 0.146599 -1.40236 0
M  V30 2326 N 400.778 -1.18234 -1.37046 0
M  V30 2327 N 400.888 0.822941 -0.249738 0
M  V30 2328 C 400.878 2.15179 -0.280525 0
M  V30 2329 N 400.758 2.96414 -1.30822 0
M  V30 2330 C 400.638 2.25804 -2.44748 0
M  V30 2331 H 397.66 4.79756 -7.24086 0
M  V30 2332 H 397.388 3.69963 -5.84682 0
M  V30 2333 H 398.256 6.10431 -5.41508 0
M  V30 2334 H 400.911 4.78816 -3.28024 0
M  V30 2335 H 401.191 3.64957 -6.05871 0
M  V30 2336 H 402.182 4.88748 -5.21323 0
M  V30 2337 H 400.348 5.66789 -7.0643 0
M  V30 2338 H 400.307 1.74684 -5.62396 0
M  V30 2339 H 400.688 -1.71949 -2.24394 0
M  V30 2340 H 400.877 -1.67511 -0.470742 0
M  V30 2341 H 400.985 2.63704 0.6828 0
M  V30 2342 P 402.218 7.20834 -5.23717 0
M  V30 2343 O 402.438 8.66104 -5.38572 0
M  V30 2344 O 403.008 6.33544 -6.1349 0
M  V30 2345 O 402.468 6.7751 -3.72168 0
M  V30 2346 C 401.528 7.20825 -2.7076 0
M  V30 2347 C 402.258 7.45864 -1.40599 0
M  V30 2348 O 402.468 6.17651 -0.734225 0
M  V30 2349 C 403.658 8.05808 -1.51899 0
M  V30 2350 O 404.048 8.74358 -0.335205 0
M  V30 2351 C 404.538 6.83093 -1.70294 0
M  V30 2352 C 403.828 5.79992 -0.836974 0
M  V30 2353 N 403.878 4.41864 -1.38293 0
M  V30 2354 H 401.039 8.13644 -3.0377 0
M  V30 2355 H 400.769 6.42788 -2.55485 0
M  V30 2356 H 401.636 8.12039 -0.792769 0
M  V30 2357 P 405.598 8.91 2.12633e-12 0
M  V30 2358 O 405.818 10.1746 0.733838 0
M  V30 2359 O 406.388 8.73346 -1.23964 0
M  V30 2360 O 405.848 7.66872 0.971405 0
M  V30 2361 C 404.908 7.42405 2.04668 0
M  V30 2362 C 405.638 6.86059 3.24661 0
M  V30 2363 O 405.848 5.42934 3.03695 0
M  V30 2364 C 407.038 7.41287 3.50796 0
M  V30 2365 O 407.428 7.27073 4.86816 0
M  V30 2366 C 407.918 6.5273 2.63741 0
M  V30 2367 C 407.208 5.1842 2.73198 0
M  V30 2368 N 407.258 4.38762 1.4784 0
M  V30 2369 C 407.178 4.83651 0.183876 0
M  V30 2370 N 407.248 3.88759 -0.699393 0
M  V30 2371 C 407.398 2.7404 0.0575568 0
M  V30 2372 C 407.528 1.37902 -0.293928 0
M  V30 2373 N 407.538 0.938021 -1.54797 0
M  V30 2374 N 407.648 0.491817 0.70549 0
M  V30 2375 C 407.638 0.931735 1.95979 0
M  V30 2376 N 407.518 2.16017 2.41481 0
M  V30 2377 C 407.398 3.02547 1.39121 0
M  V30 2378 H 404.42 8.36899 2.3252 0
M  V30 2379 H 404.148 6.70391 1.71179 0
M  V30 2380 H 405.016 7.03638 4.13219 0
M  V30 2381 H 407.671 4.59931 3.54016 0
M  V30 2382 H 407.951 6.88995 1.59871 0
M  V30 2383 H 408.942 6.4684 3.0373 0
M  V30 2384 H 407.108 8.47002 3.20749 0
M  V30 2385 H 407.067 5.8885 -0.0765548 0
M  V30 2386 H 407.448 1.60276 -2.32875 0
M  V30 2387 H 407.637 -0.0699355 -1.73859 0
M  V30 2388 H 407.745 0.165507 2.71897 0
M  V30 2389 P 408.978 7.20834 5.23717 0
M  V30 2390 O 409.198 7.79853 6.57286 0
M  V30 2391 O 409.768 7.79239 4.12957 0
M  V30 2392 O 409.228 5.63315 5.29344 0
M  V30 2393 C 408.288 4.80255 6.01876 0
M  V30 2394 C 409.018 3.64202 6.65911 0
M  V30 2395 O 409.228 2.60694 5.64732 0
M  V30 2396 C 410.418 3.93473 7.1943 0
M  V30 2397 O 410.808 3.02071 8.21205 0
M  V30 2398 C 411.298 3.73047 5.97036 0
M  V30 2399 C 410.588 2.58828 5.25741 0
M  V30 2400 N 410.638 2.68068 3.77503 0
M  V30 2401 C 410.558 3.79715 2.96723 0
M  V30 2402 N 410.638 3.5377 1.68852 0
M  V30 2403 C 410.778 2.15054 1.63254 0
M  V30 2404 C 410.908 1.28964 0.518571 0
M  V30 2405 O 410.928 1.56826 -0.679156 0
M  V30 2406 N 411.028 -0.0538097 0.918425 0
M  V30 2407 C 411.028 -0.494275 2.22578 0
M  V30 2408 N 411.158 -1.81086 2.40434 0
M  V30 2409 N 410.898 0.313645 3.27502 0
M  V30 2410 C 410.778 1.61829 2.91033 0
M  V30 2411 H 407.799 5.40332 6.79951 0
M  V30 2412 H 407.529 4.41613 5.32378 0
M  V30 2413 H 408.396 3.26331 7.47797 0
M  V30 2414 H 411.051 1.63422 5.56814 0
M  V30 2415 H 411.33 4.63374 5.34244 0
M  V30 2416 H 412.322 3.44728 6.25838 0
M  V30 2417 H 410.488 4.96652 7.57263 0
M  V30 2418 H 410.439 4.80617 3.3614 0
M  V30 2419 H 411.121 -0.742702 0.199384 0
M  V30 2420 H 411.158 -2.20598 3.35588 0
M  V30 2421 H 411.259 -2.43518 1.58945 0
M  V30 2422 P 412.358 2.75334 8.47391 0
M  V30 2423 O 412.578 2.44571 9.90142 0
M  V30 2424 O 413.148 3.87688 7.92115 0
M  V30 2425 O 412.608 1.4459 7.59357 0
M  V30 2426 C 411.668 0.347608 7.69215 0
M  V30 2427 C 412.398 -0.96767 7.52806 0
M  V30 2428 O 412.608 -1.21036 6.1011 0
M  V30 2429 C 413.798 -1.04544 8.13308 0
M  V30 2430 O 414.188 -2.38311 8.41922 0
M  V30 2431 C 414.678 -0.491279 7.02284 0
M  V30 2432 C 413.968 -0.996264 5.77469 0
M  V30 2433 N 414.018 -0.0501916 4.62973 0
M  V30 2434 H 411.179 0.374722 8.67691 0
M  V30 2435 H 410.909 0.443485 6.90277 0
M  V30 2436 H 411.776 -1.75537 7.96793 0
M  V30 2437 P 415.738 -2.75334 8.47391 0
M  V30 2438 O 415.958 -3.84128 9.44797 0
M  V30 2439 O 416.528 -1.51947 8.68712 0
M  V30 2440 O 415.988 -3.29363 6.99321 0
M  V30 2441 C 415.048 -4.24011 6.4274 0
M  V30 2442 C 415.778 -5.20775 5.52155 0
M  V30 2443 O 415.988 -4.56534 4.22446 0
M  V30 2444 C 417.178 -5.62629 5.96531 0
M  V30 2445 O 417.568 -6.87667 5.41053 0
M  V30 2446 C 418.058 -4.52537 5.39283 0
M  V30 2447 C 417.348 -4.20027 4.08623 0
M  V30 2448 N 417.398 -2.76189 3.71603 0
M  V30 2449 H 414.559 -4.797 7.24003 0
M  V30 2450 H 414.289 -3.69856 5.84513 0
M  V30 2451 H 415.156 -6.10356 5.41441 0
M  V30 2452 P 419.118 -7.20834 5.23717 0
M  V30 2453 O 419.338 -8.66104 5.38572 0
M  V30 2454 O 419.908 -6.33544 6.1349 0
M  V30 2455 O 419.368 -6.7751 3.72168 0
M  V30 2456 C 418.428 -7.20825 2.7076 0
M  V30 2457 C 419.158 -7.45864 1.40599 0
M  V30 2458 O 419.368 -6.17651 0.734225 0
M  V30 2459 C 420.558 -8.05808 1.51899 0
M  V30 2460 O 420.948 -8.74358 0.335205 0
M  V30 2461 C 421.438 -6.83093 1.70294 0
M  V30 2462 C 420.728 -5.79992 0.836974 0
M  V30 2463 N 420.778 -4.41864 1.38293 0
M  V30 2464 H 417.939 -8.13644 3.0377 0
M  V30 2465 H 417.669 -6.42788 2.55485 0
M  V30 2466 H 418.536 -8.12039 0.792769 0
M  V30 2467 P 422.497 -8.91 -2.28351e-12 0
M  V30 2468 O 422.717 -10.1746 -0.733838 0
M  V30 2469 O 423.287 -8.73346 1.23964 0
M  V30 2470 O 422.747 -7.66872 -0.971405 0
M  V30 2471 C 421.807 -7.42405 -2.04668 0
M  V30 2472 C 422.537 -6.86059 -3.24661 0
M  V30 2473 O 422.747 -5.42934 -3.03695 0
M  V30 2474 C 423.937 -7.41287 -3.50796 0
M  V30 2475 O 424.327 -7.27073 -4.86816 0
M  V30 2476 C 424.817 -6.5273 -2.63741 0
M  V30 2477 C 424.107 -5.1842 -2.73198 0
M  V30 2478 N 424.157 -4.38762 -1.4784 0
M  V30 2479 C 424.077 -4.83651 -0.183876 0
M  V30 2480 N 424.147 -3.88759 0.699393 0
M  V30 2481 C 424.297 -2.7404 -0.0575568 0
M  V30 2482 C 424.427 -1.37902 0.293928 0
M  V30 2483 N 424.437 -0.938021 1.54797 0
M  V30 2484 N 424.547 -0.491817 -0.70549 0
M  V30 2485 C 424.537 -0.931735 -1.95979 0
M  V30 2486 N 424.417 -2.16017 -2.41481 0
M  V30 2487 C 424.297 -3.02547 -1.39121 0
M  V30 2488 H 421.319 -8.36899 -2.3252 0
M  V30 2489 H 421.047 -6.70391 -1.71179 0
M  V30 2490 H 421.915 -7.03638 -4.13219 0
M  V30 2491 H 424.57 -4.59931 -3.54016 0
M  V30 2492 H 424.85 -6.88995 -1.59871 0
M  V30 2493 H 425.841 -6.4684 -3.0373 0
M  V30 2494 H 424.007 -8.47002 -3.20749 0
M  V30 2495 H 423.966 -5.8885 0.0765548 0
M  V30 2496 H 424.347 -1.60276 2.32875 0
M  V30 2497 H 424.536 0.0699355 1.73859 0
M  V30 2498 H 424.644 -0.165507 -2.71897 0
M  V30 2499 P 425.877 -7.20834 -5.23717 0
M  V30 2500 O 426.097 -7.80006 -6.57415 0
M  V30 2501 O 426.667 -7.79416 -4.13051 0
M  V30 2502 O 426.127 -5.63315 -5.29344 0
M  V30 2503 C 425.187 -4.80318 -6.01954 0
M  V30 2504 C 425.917 -3.64202 -6.65911 0
M  V30 2505 O 426.127 -2.60736 -5.64823 0
M  V30 2506 C 427.317 -3.93521 -7.19518 0
M  V30 2507 O 427.707 -3.02071 -8.21205 0
M  V30 2508 C 428.197 -3.73047 -5.97036 0
M  V30 2509 C 427.487 -2.58828 -5.25741 0
M  V30 2510 N 427.537 -2.68068 -3.77503 0
M  V30 2511 C 427.457 -3.80474 -2.99159 0
M  V30 2512 N 427.527 -3.55622 -1.71925 0
M  V30 2513 C 427.677 -2.1832 -1.65733 0
M  V30 2514 C 427.807 -1.28842 -0.572777 0
M  V30 2515 N 427.817 -1.66875 0.70098 0
M  V30 2516 N 427.927 0.016788 -0.859836 0
M  V30 2517 C 427.917 0.398145 -2.13316 0
M  V30 2518 N 427.797 -0.328224 -3.22333 0
M  V30 2519 C 427.677 -1.62992 -2.90383 0
M  V30 2520 H 424.699 -5.40394 -6.8003 0
M  V30 2521 H 424.427 -4.41741 -5.32532 0
M  V30 2522 H 425.295 -3.26371 -7.47889 0
M  V30 2523 H 427.95 -1.64007 -5.56746 0
M  V30 2524 H 428.23 -4.63439 -5.3432 0
M  V30 2525 H 429.221 -3.44776 -6.25925 0
M  V30 2526 H 427.387 -4.96707 -7.57347 0
M  V30 2527 H 427.346 -4.8089 -3.39924 0
M  V30 2528 H 427.727 -2.66547 0.941919 0
M  V30 2529 H 427.916 -0.965341 1.44766 0
M  V30 2530 H 428.024 1.46427 -2.29697 0
M  V30 2531 P 429.257 -2.75334 -8.47391 0
M  V30 2532 O 429.477 -2.44571 -9.90142 0
M  V30 2533 O 430.047 -3.87688 -7.92115 0
M  V30 2534 O 429.507 -1.4459 -7.59357 0
M  V30 2535 C 428.567 -0.347608 -7.69215 0
M  V30 2536 C 429.297 0.96767 -7.52806 0
M  V30 2537 O 429.507 1.21036 -6.1011 0
M  V30 2538 C 430.697 1.04544 -8.13308 0
M  V30 2539 O 431.087 2.38311 -8.41922 0
M  V30 2540 C 431.577 0.491279 -7.02284 0
M  V30 2541 C 430.867 0.996264 -5.77469 0
M  V30 2542 N 430.917 0.0501916 -4.62973 0
M  V30 2543 C 430.837 -1.32786 -4.63244 0
M  V30 2544 N 430.917 -1.86957 -3.44545 0
M  V30 2545 C 431.057 -0.780241 -2.58481 0
M  V30 2546 C 431.187 -0.738536 -1.17757 0
M  V30 2547 N 431.307 0.58337 -0.711393 0
M  V30 2548 C 431.307 1.70816 -1.51017 0
M  V30 2549 N 431.437 2.87826 -0.880757 0
M  V30 2550 N 431.177 1.67126 -2.8339 0
M  V30 2551 C 431.057 0.401421 -3.30572 0
M  V30 2552 H 428.078 -0.374722 -8.67691 0
M  V30 2553 H 427.808 -0.443485 -6.90277 0
M  V30 2554 H 428.675 1.75537 -7.96793 0
M  V30 2555 P 432.637 2.75334 -8.47391 0
M  V30 2556 O 432.857 3.84204 -9.44982 0
M  V30 2557 O 433.427 1.51982 -8.68909 0
M  V30 2558 O 432.887 3.29363 -6.99321 0
M  V30 2559 C 431.947 4.24066 -6.42823 0
M  V30 2560 C 432.677 5.20775 -5.52155 0
M  V30 2561 O 432.887 4.56607 -4.22514 0
M  V30 2562 C 434.077 5.62697 -5.96604 0
M  V30 2563 O 434.467 6.87667 -5.41053 0
M  V30 2564 C 434.957 4.52537 -5.39283 0
M  V30 2565 C 434.247 4.20027 -4.08623 0
M  V30 2566 N 434.297 2.76189 -3.71603 0
M  V30 2567 C 434.217 1.66944 -4.54297 0
M  V30 2568 N 434.287 0.536169 -3.91344 0
M  V30 2569 C 434.437 0.901569 -2.58849 0
M  V30 2570 C 434.567 0.146599 -1.40236 0
M  V30 2571 N 434.577 -1.18234 -1.37046 0
M  V30 2572 N 434.687 0.822941 -0.249738 0
M  V30 2573 C 434.677 2.15179 -0.280525 0
M  V30 2574 N 434.557 2.96414 -1.30822 0
M  V30 2575 C 434.437 2.25804 -2.44748 0
M  V30 2576 H 431.459 4.79756 -7.24086 0
M  V30 2577 H 431.187 3.69963 -5.84682 0
M  V30 2578 H 432.055 6.10431 -5.41508 0
M  V30 2579 H 434.71 4.78816 -3.28024 0
M  V30 2580 H 434.99 3.64957 -6.05871 0
M  V30 2581 H 435.981 4.88748 -5.21323 0
M  V30 2582 H 434.147 5.66789 -7.0643 0
M  V30 2583 H 434.106 1.74684 -5.62396 0
M  V30 2584 H 434.487 -1.71949 -2.24394 0
M  V30 2585 H 434.676 -1.67511 -0.470742 0
M  V30 2586 H 434.784 2.63704 0.6828 0
M  V30 2587 P 436.017 7.20834 -5.23717 0
M  V30 2588 O 436.237 8.66104 -5.38572 0
M  V30 2589 O 436.807 6.33544 -6.1349 0
M  V30 2590 O 436.267 6.7751 -3.72168 0
M  V30 2591 C 435.327 7.20825 -2.7076 0
M  V30 2592 C 436.057 7.45864 -1.40599 0
M  V30 2593 O 436.267 6.17651 -0.734225 0
M  V30 2594 C 437.457 8.05808 -1.51899 0
M  V30 2595 O 437.847 8.74358 -0.335205 0
M  V30 2596 C 438.337 6.83093 -1.70294 0
M  V30 2597 C 437.627 5.79992 -0.836974 0
M  V30 2598 N 437.677 4.41864 -1.38293 0
M  V30 2599 H 434.838 8.13644 -3.0377 0
M  V30 2600 H 434.568 6.42788 -2.55485 0
M  V30 2601 H 435.435 8.12039 -0.792769 0
M  V30 2602 P 439.397 8.91 2.44069e-12 0
M  V30 2603 O 439.617 10.1726 0.733694 0
M  V30 2604 O 440.187 8.73148 -1.23936 0
M  V30 2605 O 439.647 7.66872 0.971405 0
M  V30 2606 C 438.707 7.42309 2.04641 0
M  V30 2607 C 439.437 6.86059 3.24661 0
M  V30 2608 O 439.647 5.42847 3.03646 0
M  V30 2609 C 440.837 7.41196 3.50753 0
M  V30 2610 O 441.227 7.27073 4.86816 0
M  V30 2611 C 441.717 6.5273 2.63741 0
M  V30 2612 C 441.007 5.1842 2.73198 0
M  V30 2613 N 441.057 4.38762 1.4784 0
M  V30 2614 C 440.977 4.81605 0.168631 0
M  V30 2615 N 441.057 3.85454 -0.713363 0
M  V30 2616 C 441.197 2.6994 0.0566958 0
M  V30 2617 C 441.327 1.34815 -0.338502 0
M  V30 2618 O 441.347 0.869548 -1.47125 0
M  V30 2619 N 441.447 0.496304 0.77465 0
M  V30 2620 C 441.447 0.908403 2.09122 0
M  V30 2621 N 441.577 -0.0517805 3.00955 0
M  V30 2622 N 441.317 2.17875 2.46519 0
M  V30 2623 C 441.197 3.01988 1.4033 0
M  V30 2624 H 438.218 8.36803 2.32493 0
M  V30 2625 H 437.948 6.70197 1.71129 0
M  V30 2626 H 438.815 7.03551 4.13168 0
M  V30 2627 H 441.47 4.59498 3.54415 0
M  V30 2628 H 441.749 6.88898 1.59848 0
M  V30 2629 H 442.741 6.46749 3.03687 0
M  V30 2630 H 440.907 8.46908 3.20714 0
M  V30 2631 H 440.858 5.86405 -0.105564 0
M  V30 2632 H 441.54 -0.483664 0.597855 0
M  V30 2633 H 441.577 0.187865 4.0116 0
M  V30 2634 H 441.678 -1.03585 2.71726 0
M  V30 2635 P 442.777 7.20834 5.23717 0
M  V30 2636 O 442.997 7.79853 6.57286 0
M  V30 2637 O 443.567 7.79239 4.12957 0
M  V30 2638 O 443.027 5.63315 5.29344 0
M  V30 2639 C 442.087 4.80255 6.01876 0
M  V30 2640 C 442.817 3.64202 6.65911 0
M  V30 2641 O 443.027 2.60694 5.64732 0
M  V30 2642 C 444.217 3.93473 7.1943 0
M  V30 2643 O 444.607 3.02071 8.21205 0
M  V30 2644 C 445.097 3.73047 5.97036 0
M  V30 2645 C 444.387 2.58828 5.25741 0
M  V30 2646 N 444.437 2.68068 3.77503 0
M  V30 2647 C 444.357 3.79715 2.96723 0
M  V30 2648 N 444.437 3.5377 1.68852 0
M  V30 2649 C 444.577 2.15054 1.63254 0
M  V30 2650 C 444.707 1.28964 0.518571 0
M  V30 2651 O 444.727 1.56826 -0.679156 0
M  V30 2652 N 444.827 -0.0538097 0.918425 0
M  V30 2653 C 444.827 -0.494275 2.22578 0
M  V30 2654 N 444.957 -1.81086 2.40434 0
M  V30 2655 N 444.697 0.313645 3.27502 0
M  V30 2656 C 444.577 1.61829 2.91033 0
M  V30 2657 H 441.598 5.40332 6.79951 0
M  V30 2658 H 441.328 4.41613 5.32378 0
M  V30 2659 H 442.195 3.26331 7.47797 0
M  V30 2660 H 444.85 1.63422 5.56814 0
M  V30 2661 H 445.129 4.63374 5.34244 0
M  V30 2662 H 446.121 3.44728 6.25838 0
M  V30 2663 H 444.287 4.96652 7.57263 0
M  V30 2664 H 444.238 4.80617 3.3614 0
M  V30 2665 H 444.92 -0.742702 0.199384 0
M  V30 2666 H 444.957 -2.20598 3.35588 0
M  V30 2667 H 445.058 -2.43518 1.58945 0
M  V30 2668 P 446.157 2.75334 8.47391 0
M  V30 2669 O 446.377 2.44619 9.90336 0
M  V30 2670 O 446.947 3.87776 7.92294 0
M  V30 2671 O 446.407 1.4459 7.59357 0
M  V30 2672 C 445.467 0.347653 7.69315 0
M  V30 2673 C 446.197 -0.96767 7.52806 0
M  V30 2674 O 446.407 -1.21055 6.10208 0
M  V30 2675 C 447.597 -1.04557 8.13408 0
M  V30 2676 O 447.987 -2.38311 8.41922 0
M  V30 2677 C 448.477 -0.491279 7.02284 0
M  V30 2678 C 447.767 -0.996264 5.77469 0
M  V30 2679 N 447.817 -0.0501916 4.62973 0
M  V30 2680 C 447.737 1.31969 4.65661 0
M  V30 2681 N 447.807 1.86649 3.48119 0
M  V30 2682 C 447.957 0.792089 2.62406 0
M  V30 2683 C 448.087 0.705684 1.2207 0
M  V30 2684 N 448.097 1.76207 0.413762 0
M  V30 2685 N 448.207 -0.518981 0.685754 0
M  V30 2686 C 448.197 -1.57595 1.49174 0
M  V30 2687 N 448.077 -1.62909 2.80066 0
M  V30 2688 C 447.957 -0.388195 3.3073 0
M  V30 2689 H 444.979 0.374765 8.67791 0
M  V30 2690 H 444.707 0.443613 6.90476 0
M  V30 2691 H 445.575 -1.75559 7.96891 0
M  V30 2692 H 448.23 -1.94563 5.46818 0
M  V30 2693 H 448.51 0.608651 7.04676 0
M  V30 2694 H 449.501 -0.889796 7.09039 0
M  V30 2695 H 447.667 -0.433128 9.04664 0
M  V30 2696 H 447.626 1.89246 5.57664 0
M  V30 2697 H 448.007 2.71005 0.804694 0
M  V30 2698 H 448.196 1.63189 -0.603768 0
M  V30 2699 H 448.304 -2.53475 0.997614 0
M  V30 2700 P 449.537 -2.75334 8.47391 0
M  V30 2701 O 449.757 -3.84204 9.44982 0
M  V30 2702 O 450.327 -1.51982 8.68909 0
M  V30 2703 O 449.787 -3.29363 6.99321 0
M  V30 2704 C 448.847 -4.24066 6.42823 0
M  V30 2705 C 449.577 -5.20775 5.52155 0
M  V30 2706 O 449.787 -4.56607 4.22514 0
M  V30 2707 C 450.977 -5.62697 5.96604 0
M  V30 2708 O 451.367 -6.87667 5.41053 0
M  V30 2709 C 451.857 -4.52537 5.39283 0
M  V30 2710 C 451.147 -4.20027 4.08623 0
M  V30 2711 N 451.197 -2.76189 3.71603 0
M  V30 2712 H 448.359 -4.79756 7.24086 0
M  V30 2713 H 448.087 -3.69963 5.84682 0
M  V30 2714 H 448.955 -6.10431 5.41508 0
M  V30 2715 H 451.61 -4.78816 3.28024 0
M  V30 2716 H 451.89 -3.64957 6.05871 0
M  V30 2717 H 452.881 -4.88748 5.21323 0
M  V30 2718 H 451.047 -5.66789 7.0643 0
M  V30 2719 P 452.917 -7.20834 5.23717 0
M  V30 2720 O 453.137 -8.66104 5.38572 0
M  V30 2721 O 453.707 -6.33544 6.1349 0
M  V30 2722 O 453.167 -6.7751 3.72168 0
M  V30 2723 C 452.227 -7.20825 2.7076 0
M  V30 2724 C 452.957 -7.45864 1.40599 0
M  V30 2725 O 453.167 -6.17651 0.734225 0
M  V30 2726 C 454.357 -8.05808 1.51899 0
M  V30 2727 O 454.747 -8.74358 0.335205 0
M  V30 2728 C 455.237 -6.83093 1.70294 0
M  V30 2729 C 454.527 -5.79992 0.836974 0
M  V30 2730 N 454.577 -4.41864 1.38293 0
M  V30 2731 C 454.497 -3.99538 2.69438 0
M  V30 2732 N 454.577 -2.69909 2.84277 0
M  V30 2733 C 454.717 -2.21719 1.5408 0
M  V30 2734 C 454.847 -0.891712 1.06628 0
M  V30 2735 N 454.967 -0.856846 -0.334985 0
M  V30 2736 C 454.967 -1.9641 -1.15789 0
M  V30 2737 N 455.097 -1.72708 -2.46522 0
M  V30 2738 N 454.837 -3.21165 -0.713741 0
M  V30 2739 C 454.717 -3.26797 0.639748 0
M  V30 2740 H 451.738 -8.13644 3.0377 0
M  V30 2741 H 451.468 -6.42788 2.55485 0
M  V30 2742 H 452.335 -8.12039 0.792769 0
M  V30 2743 P 456.297 -8.91 -2.59788e-12 0
M  V30 2744 O 456.517 -10.1726 -0.733694 0
M  V30 2745 O 457.087 -8.73148 1.23936 0
M  V30 2746 O 456.547 -7.66872 -0.971405 0
M  V30 2747 C 455.607 -7.42309 -2.04641 0
M  V30 2748 C 456.337 -6.86059 -3.24661 0
M  V30 2749 O 456.547 -5.42847 -3.03646 0
M  V30 2750 C 457.737 -7.41196 -3.50753 0
M  V30 2751 O 458.127 -7.27073 -4.86816 0
M  V30 2752 C 458.617 -6.5273 -2.63741 0
M  V30 2753 C 457.907 -5.1842 -2.73198 0
M  V30 2754 N 457.957 -4.38762 -1.4784 0
M  V30 2755 C 457.877 -4.81605 -0.168631 0
M  V30 2756 N 457.957 -3.85454 0.713363 0
M  V30 2757 C 458.097 -2.6994 -0.0566958 0
M  V30 2758 C 458.227 -1.34815 0.338502 0
M  V30 2759 O 458.247 -0.869548 1.47125 0
M  V30 2760 N 458.347 -0.496304 -0.77465 0
M  V30 2761 C 458.347 -0.908403 -2.09122 0
M  V30 2762 N 458.477 0.0517805 -3.00955 0
M  V30 2763 N 458.217 -2.17875 -2.46519 0
M  V30 2764 C 458.097 -3.01988 -1.4033 0
M  V30 2765 H 455.118 -8.36803 -2.32493 0
M  V30 2766 H 454.848 -6.70197 -1.71129 0
M  V30 2767 H 455.715 -7.03551 -4.13168 0
M  V30 2768 H 458.37 -4.59498 -3.54415 0
M  V30 2769 H 458.649 -6.88898 -1.59848 0
M  V30 2770 H 459.641 -6.46749 -3.03687 0
M  V30 2771 H 457.807 -8.46908 -3.20714 0
M  V30 2772 H 457.758 -5.86405 0.105564 0
M  V30 2773 H 458.44 0.483664 -0.597855 0
M  V30 2774 H 458.477 -0.187865 -4.0116 0
M  V30 2775 H 458.578 1.03585 -2.71726 0
M  V30 2776 P 459.677 -7.20834 -5.23717 0
M  V30 2777 O 459.897 -7.79853 -6.57286 0
M  V30 2778 O 460.467 -7.79239 -4.12957 0
M  V30 2779 O 459.927 -5.63315 -5.29344 0
M  V30 2780 C 458.987 -4.80255 -6.01876 0
M  V30 2781 C 459.717 -3.64202 -6.65911 0
M  V30 2782 O 459.927 -2.60694 -5.64732 0
M  V30 2783 C 461.117 -3.93473 -7.1943 0
M  V30 2784 O 461.507 -3.02071 -8.21205 0
M  V30 2785 C 461.997 -3.73047 -5.97036 0
M  V30 2786 C 461.287 -2.58828 -5.25741 0
M  V30 2787 N 461.337 -2.68068 -3.77503 0
M  V30 2788 H 458.498 -5.40332 -6.79951 0
M  V30 2789 H 458.228 -4.41613 -5.32378 0
M  V30 2790 H 459.095 -3.26331 -7.47797 0
M  V30 2791 P 463.057 -2.75334 -8.47391 0
M  V30 2792 O 463.277 -2.44571 -9.90142 0
M  V30 2793 O 463.847 -3.87688 -7.92115 0
M  V30 2794 O 463.307 -1.4459 -7.59357 0
M  V30 2795 C 462.367 -0.347608 -7.69215 0
M  V30 2796 C 463.097 0.96767 -7.52806 0
M  V30 2797 O 463.307 1.21036 -6.1011 0
M  V30 2798 C 464.497 1.04544 -8.13308 0
M  V30 2799 O 464.887 2.38311 -8.41922 0
M  V30 2800 C 465.377 0.491279 -7.02284 0
M  V30 2801 C 464.667 0.996264 -5.77469 0
M  V30 2802 N 464.717 0.0501916 -4.62973 0
M  V30 2803 H 461.878 -0.374722 -8.67691 0
M  V30 2804 H 461.608 -0.443485 -6.90277 0
M  V30 2805 H 462.475 1.75537 -7.96793 0
M  V30 2806 P 466.437 2.75334 -8.47391 0
M  V30 2807 O 466.657 3.84128 -9.44797 0
M  V30 2808 O 467.227 1.51947 -8.68712 0
M  V30 2809 O 466.687 3.29363 -6.99321 0
M  V30 2810 C 465.747 4.24011 -6.4274 0
M  V30 2811 C 466.477 5.20775 -5.52155 0
M  V30 2812 O 466.687 4.56534 -4.22446 0
M  V30 2813 C 467.877 5.62629 -5.96531 0
M  V30 2814 O 468.267 6.87667 -5.41053 0
M  V30 2815 C 468.757 4.52537 -5.39283 0
M  V30 2816 C 468.047 4.20027 -4.08623 0
M  V30 2817 N 468.097 2.76189 -3.71603 0
M  V30 2818 H 465.258 4.797 -7.24003 0
M  V30 2819 H 464.988 3.69856 -5.84513 0
M  V30 2820 H 465.855 6.10356 -5.41441 0
M  V30 2821 P 469.817 7.20834 -5.23717 0
M  V30 2822 O 470.037 8.66104 -5.38572 0
M  V30 2823 O 470.607 6.33544 -6.1349 0
M  V30 2824 O 470.067 6.7751 -3.72168 0
M  V30 2825 C 469.127 7.20825 -2.7076 0
M  V30 2826 C 469.857 7.45864 -1.40599 0
M  V30 2827 O 470.067 6.17651 -0.734225 0
M  V30 2828 C 471.257 8.05808 -1.51899 0
M  V30 2829 O 471.647 8.74358 -0.335205 0
M  V30 2830 C 472.137 6.83093 -1.70294 0
M  V30 2831 C 471.427 5.79992 -0.836974 0
M  V30 2832 N 471.477 4.41864 -1.38293 0
M  V30 2833 H 468.638 8.13644 -3.0377 0
M  V30 2834 H 468.368 6.42788 -2.55485 0
M  V30 2835 H 469.235 8.12039 -0.792769 0
M  V30 2836 P 473.197 8.91 2.75506e-12 0
M  V30 2837 O 473.417 10.1726 0.733694 0
M  V30 2838 O 473.987 8.73148 -1.23936 0
M  V30 2839 O 473.447 7.66872 0.971405 0
M  V30 2840 C 472.507 7.42309 2.04641 0
M  V30 2841 C 473.237 6.86059 3.24661 0
M  V30 2842 O 473.447 5.42847 3.03646 0
M  V30 2843 C 474.637 7.41196 3.50753 0
M  V30 2844 O 475.027 7.27073 4.86816 0
M  V30 2845 C 475.517 6.5273 2.63741 0
M  V30 2846 C 474.807 5.1842 2.73198 0
M  V30 2847 N 474.857 4.38762 1.4784 0
M  V30 2848 H 472.018 8.36803 2.32493 0
M  V30 2849 H 471.748 6.70197 1.71129 0
M  V30 2850 H 472.615 7.03551 4.13168 0
M  V30 2851 P 476.577 7.20834 5.23717 0
M  V30 2852 O 476.797 7.79853 6.57286 0
M  V30 2853 O 477.367 7.79239 4.12957 0
M  V30 2854 O 476.827 5.63315 5.29344 0
M  V30 2855 C 475.887 4.80255 6.01876 0
M  V30 2856 C 476.617 3.64202 6.65911 0
M  V30 2857 O 476.827 2.60694 5.64732 0
M  V30 2858 C 478.017 3.93473 7.1943 0
M  V30 2859 O 478.407 3.02071 8.21205 0
M  V30 2860 C 478.897 3.73047 5.97036 0
M  V30 2861 C 478.187 2.58828 5.25741 0
M  V30 2862 N 478.237 2.68068 3.77503 0
M  V30 2863 H 475.398 5.40332 6.79951 0
M  V30 2864 H 475.128 4.41613 5.32378 0
M  V30 2865 H 475.995 3.26331 7.47797 0
M  V30 2866 P 479.957 2.75334 8.47391 0
M  V30 2867 O 480.177 2.44571 9.90142 0
M  V30 2868 O 480.747 3.87688 7.92115 0
M  V30 2869 O 480.207 1.4459 7.59357 0
M  V30 2870 C 479.267 0.347608 7.69215 0
M  V30 2871 C 479.997 -0.96767 7.52806 0
M  V30 2872 O 480.207 -1.21036 6.1011 0
M  V30 2873 C 481.397 -1.04544 8.13308 0
M  V30 2874 O 481.787 -2.38311 8.41922 0
M  V30 2875 C 482.277 -0.491279 7.02284 0
M  V30 2876 C 481.567 -0.996264 5.77469 0
M  V30 2877 N 481.617 -0.0501916 4.62973 0
M  V30 2878 H 478.778 0.374722 8.67691 0
M  V30 2879 H 478.508 0.443485 6.90277 0
M  V30 2880 H 479.375 -1.75537 7.96793 0
M  V30 2881 P 483.337 -2.75334 8.47391 0
M  V30 2882 O 483.557 -3.84128 9.44797 0
M  V30 2883 O 484.127 -1.51947 8.68712 0
M  V30 2884 O 483.587 -3.29363 6.99321 0
M  V30 2885 C 482.647 -4.24011 6.4274 0
M  V30 2886 C 483.377 -5.20775 5.52155 0
M  V30 2887 O 483.587 -4.56534 4.22446 0
M  V30 2888 C 484.777 -5.62629 5.96531 0
M  V30 2889 O 485.167 -6.87667 5.41053 0
M  V30 2890 C 485.657 -4.52537 5.39283 0
M  V30 2891 C 484.947 -4.20027 4.08623 0
M  V30 2892 N 484.997 -2.76189 3.71603 0
M  V30 2893 H 482.158 -4.797 7.24003 0
M  V30 2894 H 481.888 -3.69856 5.84513 0
M  V30 2895 H 482.755 -6.10356 5.41441 0
M  V30 2896 P 486.717 -7.20834 5.23717 0
M  V30 2897 O 486.937 -8.66189 5.38625 0
M  V30 2898 O 487.507 -6.33615 6.1356 0
M  V30 2899 O 486.967 -6.7751 3.72168 0
M  V30 2900 C 486.027 -7.20825 2.7076 0
M  V30 2901 C 486.757 -7.45864 1.40599 0
M  V30 2902 O 486.967 -6.17651 0.734225 0
M  V30 2903 C 488.157 -8.05808 1.51899 0
M  V30 2904 O 488.547 -8.74358 0.335205 0
M  V30 2905 C 489.037 -6.83093 1.70294 0
M  V30 2906 C 488.327 -5.79992 0.836974 0
M  V30 2907 N 488.377 -4.41769 1.38263 0
M  V30 2908 C 488.527 -3.36514 0.485617 0
M  V30 2909 O 488.617 -3.61814 -0.724703 0
M  V30 2910 N 488.577 -2.00746 1.14492 0
M  V30 2911 C 488.477 -1.85887 2.27776 0
M  V30 2912 N 488.527 -0.600907 2.69379 0
M  V30 2913 C 488.327 -2.92182 3.22265 0
M  V30 2914 C 488.277 -4.18399 2.71925 0
M  V30 2915 H 485.537 -8.1355 3.03735 0
M  V30 2916 H 485.268 -6.42695 2.55448 0
M  V30 2917 H 486.135 -8.12139 0.792866 0
M  V30 2918 H 488.79 -5.80078 -0.160615 0
M  V30 2919 H 489.069 -6.51379 2.75643 0
M  V30 2920 H 490.061 -7.01734 1.34462 0
M  V30 2921 H 488.227 -8.73674 2.38337 0
M  V30 2922 H 488.155 -5.02669 3.39718 0
M  V30 2923 H 488.257 -2.73001 4.29239 0
M  V30 2924 H 488.645 0.162318 2.01146 0
M  V30 2925 H 488.448 -0.387742 3.69773 0
M  V30 2926 P 490.097 -8.91 -2.91224e-12 0
M  V30 2927 O 490.317 -10.1746 -0.733838 0
M  V30 2928 O 490.887 -8.73346 1.23964 0
M  V30 2929 O 490.347 -7.66872 -0.971405 0
M  V30 2930 C 489.407 -7.42405 -2.04668 0
M  V30 2931 C 490.137 -6.86059 -3.24661 0
M  V30 2932 O 490.347 -5.42934 -3.03695 0
M  V30 2933 C 491.537 -7.41287 -3.50796 0
M  V30 2934 O 491.927 -7.27073 -4.86816 0
M  V30 2935 C 492.417 -6.5273 -2.63741 0
M  V30 2936 C 491.707 -5.1842 -2.73198 0
M  V30 2937 N 491.757 -4.38762 -1.4784 0
M  V30 2938 H 488.919 -8.36899 -2.3252 0
M  V30 2939 H 488.647 -6.70391 -1.71179 0
M  V30 2940 H 489.515 -7.03638 -4.13219 0
M  V30 2941 H 492.17 -4.59931 -3.54016 0
M  V30 2942 H 492.45 -6.88995 -1.59871 0
M  V30 2943 H 493.441 -6.4684 -3.0373 0
M  V30 2944 H 491.607 -8.47002 -3.20749 0
M  V30 2945 P 493.477 -7.20834 -5.23717 0
M  V30 2946 O 493.697 -7.79853 -6.57286 0
M  V30 2947 O 494.267 -7.79239 -4.12957 0
M  V30 2948 O 493.727 -5.63315 -5.29344 0
M  V30 2949 C 492.787 -4.80255 -6.01876 0
M  V30 2950 C 493.517 -3.64202 -6.65911 0
M  V30 2951 O 493.727 -2.60694 -5.64732 0
M  V30 2952 C 494.917 -3.93473 -7.1943 0
M  V30 2953 O 495.307 -3.02071 -8.21205 0
M  V30 2954 C 495.797 -3.73047 -5.97036 0
M  V30 2955 C 495.087 -2.58828 -5.25741 0
M  V30 2956 N 495.137 -2.68068 -3.77503 0
M  V30 2957 C 495.057 -3.79715 -2.96723 0
M  V30 2958 N 495.137 -3.5377 -1.68852 0
M  V30 2959 C 495.277 -2.15054 -1.63254 0
M  V30 2960 C 495.407 -1.28964 -0.518571 0
M  V30 2961 N 495.527 0.0538097 -0.918425 0
M  V30 2962 C 495.527 0.494275 -2.22578 0
M  V30 2963 N 495.657 1.81086 -2.40434 0
M  V30 2964 N 495.397 -0.313645 -3.27502 0
M  V30 2965 C 495.277 -1.61829 -2.91033 0
M  V30 2966 H 492.298 -5.40332 -6.79951 0
M  V30 2967 H 492.028 -4.41613 -5.32378 0
M  V30 2968 H 492.895 -3.26331 -7.47797 0
M  V30 2969 P 496.857 -2.75334 -8.47391 0
M  V30 2970 O 497.077 -2.44571 -9.90142 0
M  V30 2971 O 497.647 -3.87688 -7.92115 0
M  V30 2972 O 497.107 -1.4459 -7.59357 0
M  V30 2973 C 496.167 -0.347608 -7.69215 0
M  V30 2974 C 496.897 0.96767 -7.52806 0
M  V30 2975 O 497.107 1.21036 -6.1011 0
M  V30 2976 C 498.297 1.04544 -8.13308 0
M  V30 2977 O 498.687 2.38311 -8.41922 0
M  V30 2978 C 499.177 0.491279 -7.02284 0
M  V30 2979 C 498.467 0.996264 -5.77469 0
M  V30 2980 N 498.517 0.0501916 -4.62973 0
M  V30 2981 H 495.678 -0.374722 -8.67691 0
M  V30 2982 H 495.408 -0.443485 -6.90277 0
M  V30 2983 H 496.275 1.75537 -7.96793 0
M  V30 2984 P 500.237 2.75334 -8.47391 0
M  V30 2985 O 500.457 3.84128 -9.44797 0
M  V30 2986 O 501.027 1.51947 -8.68712 0
M  V30 2987 O 500.487 3.29363 -6.99321 0
M  V30 2988 C 499.547 4.24011 -6.4274 0
M  V30 2989 C 500.277 5.20775 -5.52155 0
M  V30 2990 O 500.487 4.56534 -4.22446 0
M  V30 2991 C 501.677 5.62629 -5.96531 0
M  V30 2992 O 502.067 6.87667 -5.41053 0
M  V30 2993 C 502.557 4.52537 -5.39283 0
M  V30 2994 C 501.847 4.20027 -4.08623 0
M  V30 2995 N 501.897 2.76189 -3.71603 0
M  V30 2996 H 499.058 4.797 -7.24003 0
M  V30 2997 H 498.788 3.69856 -5.84513 0
M  V30 2998 H 499.655 6.10356 -5.41441 0
M  V30 2999 P 503.617 7.20834 -5.23717 0
M  V30 3000 O 503.837 8.66189 -5.38625 0
M  V30 3001 O 504.407 6.33615 -6.1356 0
M  V30 3002 O 503.867 6.7751 -3.72168 0
M  V30 3003 C 502.927 7.20825 -2.7076 0
M  V30 3004 C 503.657 7.45864 -1.40599 0
M  V30 3005 O 503.867 6.17651 -0.734225 0
M  V30 3006 C 505.057 8.05808 -1.51899 0
M  V30 3007 O 505.447 8.74358 -0.335205 0
M  V30 3008 C 505.937 6.83093 -1.70294 0
M  V30 3009 C 505.227 5.79992 -0.836974 0
M  V30 3010 N 505.277 4.41769 -1.38263 0
M  V30 3011 C 505.427 3.36514 -0.485617 0
M  V30 3012 O 505.517 3.61814 0.724703 0
M  V30 3013 N 505.477 2.00746 -1.14492 0
M  V30 3014 C 505.377 1.85887 -2.27776 0
M  V30 3015 N 505.427 0.600907 -2.69379 0
M  V30 3016 C 505.227 2.92182 -3.22265 0
M  V30 3017 C 505.177 4.18399 -2.71925 0
M  V30 3018 H 502.437 8.1355 -3.03735 0
M  V30 3019 H 502.168 6.42695 -2.55448 0
M  V30 3020 H 503.035 8.12139 -0.792866 0
M  V30 3021 H 505.69 5.80078 0.160615 0
M  V30 3022 H 505.969 6.51379 -2.75643 0
M  V30 3023 H 506.961 7.01734 -1.34462 0
M  V30 3024 H 505.127 8.73674 -2.38337 0
M  V30 3025 H 505.055 5.02669 -3.39718 0
M  V30 3026 H 505.157 2.73001 -4.29239 0
M  V30 3027 H 505.545 -0.162318 -2.01146 0
M  V30 3028 H 505.348 0.387742 -3.69773 0
M  V30 3029 P 506.997 8.91 3.06942e-12 0
M  V30 3030 O 507.217 10.1726 0.733694 0
M  V30 3031 O 507.787 8.73148 -1.23936 0
M  V30 3032 O 507.247 7.66872 0.971405 0
M  V30 3033 C 506.307 7.42309 2.04641 0
M  V30 3034 C 507.037 6.86059 3.24661 0
M  V30 3035 O 507.247 5.42847 3.03646 0
M  V30 3036 C 508.437 7.41196 3.50753 0
M  V30 3037 O 508.827 7.27073 4.86816 0
M  V30 3038 C 509.317 6.5273 2.63741 0
M  V30 3039 C 508.607 5.1842 2.73198 0
M  V30 3040 N 508.657 4.38762 1.4784 0
M  V30 3041 H 505.818 8.36803 2.32493 0
M  V30 3042 H 505.548 6.70197 1.71129 0
M  V30 3043 H 506.415 7.03551 4.13168 0
M  V30 3044 P 510.377 7.20834 5.23717 0
M  V30 3045 O 510.597 7.79853 6.57286 0
M  V30 3046 O 511.167 7.79239 4.12957 0
M  V30 3047 O 510.627 5.63315 5.29344 0
M  V30 3048 C 509.687 4.80255 6.01876 0
M  V30 3049 C 510.417 3.64202 6.65911 0
M  V30 3050 O 510.627 2.60694 5.64732 0
M  V30 3051 C 511.817 3.93473 7.1943 0
M  V30 3052 O 512.207 3.02071 8.21205 0
M  V30 3053 C 512.697 3.73047 5.97036 0
M  V30 3054 C 511.987 2.58828 5.25741 0
M  V30 3055 N 512.037 2.68068 3.77503 0
M  V30 3056 H 509.198 5.40332 6.79951 0
M  V30 3057 H 508.928 4.41613 5.32378 0
M  V30 3058 H 509.795 3.26331 7.47797 0
M  V30 3059 P 513.757 2.75334 8.47391 0
M  V30 3060 O 513.977 2.44571 9.90142 0
M  V30 3061 O 514.547 3.87688 7.92115 0
M  V30 3062 O 514.007 1.4459 7.59357 0
M  V30 3063 C 513.067 0.347608 7.69215 0
M  V30 3064 C 513.797 -0.96767 7.52806 0
M  V30 3065 O 514.007 -1.21036 6.1011 0
M  V30 3066 C 515.197 -1.04544 8.13308 0
M  V30 3067 O 515.587 -2.38311 8.41922 0
M  V30 3068 C 516.077 -0.491279 7.02284 0
M  V30 3069 C 515.367 -0.996264 5.77469 0
M  V30 3070 N 515.417 -0.0501916 4.62973 0
M  V30 3071 C 515.337 1.32786 4.63244 0
M  V30 3072 N 515.417 1.86957 3.44545 0
M  V30 3073 C 515.557 0.780241 2.58481 0
M  V30 3074 C 515.687 0.738536 1.17757 0
M  V30 3075 O 515.707 1.66794 0.372349 0
M  V30 3076 N 515.807 -0.58337 0.711393 0
M  V30 3077 C 515.807 -1.70816 1.51017 0
M  V30 3078 N 515.937 -2.87826 0.880757 0
M  V30 3079 N 515.677 -1.67126 2.8339 0
M  V30 3080 C 515.557 -0.401421 3.30572 0
M  V30 3081 H 512.578 0.374722 8.67691 0
M  V30 3082 H 512.308 0.443485 6.90277 0
M  V30 3083 H 513.175 -1.75537 7.96793 0
M  V30 3084 H 515.83 -1.95076 5.46529 0
M  V30 3085 H 516.109 0.608565 7.04577 0
M  V30 3086 H 517.101 -0.889672 7.08939 0
M  V30 3087 H 515.267 -0.43308 9.04564 0
M  V30 3088 H 515.218 1.91249 5.54442 0
M  V30 3089 H 515.9 -0.718054 -0.275244 0
M  V30 3090 H 515.937 -3.75721 1.41832 0
M  V30 3091 H 516.038 -2.90436 -0.145468 0
M  V30 3092 P 517.137 -2.75334 8.47391 0
M  V30 3093 O 517.357 -3.84204 9.44982 0
M  V30 3094 O 517.927 -1.51982 8.68909 0
M  V30 3095 O 517.387 -3.29363 6.99321 0
M  V30 3096 C 516.447 -4.24066 6.42823 0
M  V30 3097 C 517.177 -5.20775 5.52155 0
M  V30 3098 O 517.387 -4.56607 4.22514 0
M  V30 3099 C 518.577 -5.62697 5.96604 0
M  V30 3100 O 518.967 -6.87667 5.41053 0
M  V30 3101 C 519.457 -4.52537 5.39283 0
M  V30 3102 C 518.747 -4.20027 4.08623 0
M  V30 3103 N 518.797 -2.76189 3.71603 0
M  V30 3104 C 518.717 -1.66944 4.54297 0
M  V30 3105 N 518.787 -0.536169 3.91344 0
M  V30 3106 C 518.937 -0.901569 2.58849 0
M  V30 3107 C 519.067 -0.146599 1.40236 0
M  V30 3108 N 519.077 1.18234 1.37046 0
M  V30 3109 N 519.187 -0.822941 0.249738 0
M  V30 3110 C 519.177 -2.15179 0.280525 0
M  V30 3111 N 519.057 -2.96414 1.30822 0
M  V30 3112 C 518.937 -2.25804 2.44748 0
M  V30 3113 H 515.959 -4.79756 7.24086 0
M  V30 3114 H 515.687 -3.69963 5.84682 0
M  V30 3115 H 516.555 -6.10431 5.41508 0
M  V30 3116 H 519.21 -4.78816 3.28024 0
M  V30 3117 H 519.49 -3.64957 6.05871 0
M  V30 3118 H 520.481 -4.88748 5.21323 0
M  V30 3119 H 518.647 -5.66789 7.0643 0
M  V30 3120 H 518.606 -1.74684 5.62396 0
M  V30 3121 H 518.987 1.71949 2.24394 0
M  V30 3122 H 519.176 1.67511 0.470742 0
M  V30 3123 H 519.284 -2.63704 -0.6828 0
M  V30 3124 P 520.517 -7.20834 5.23717 0
M  V30 3125 O 520.737 -8.66104 5.38572 0
M  V30 3126 O 521.307 -6.33544 6.1349 0
M  V30 3127 O 520.767 -6.7751 3.72168 0
M  V30 3128 C 519.827 -7.20825 2.7076 0
M  V30 3129 C 520.557 -7.45864 1.40599 0
M  V30 3130 O 520.767 -6.17651 0.734225 0
M  V30 3131 C 521.957 -8.05808 1.51899 0
M  V30 3132 O 522.347 -8.74358 0.335205 0
M  V30 3133 C 522.837 -6.83093 1.70294 0
M  V30 3134 C 522.127 -5.79992 0.836974 0
M  V30 3135 N 522.177 -4.41864 1.38293 0
M  V30 3136 H 519.338 -8.13644 3.0377 0
M  V30 3137 H 519.068 -6.42788 2.55485 0
M  V30 3138 H 519.935 -8.12039 0.792769 0
M  V30 3139 P 523.897 -8.91 -3.22661e-12 0
M  V30 3140 O 524.117 -10.1726 -0.733694 0
M  V30 3141 O 524.687 -8.73148 1.23936 0
M  V30 3142 O 524.147 -7.66872 -0.971405 0
M  V30 3143 C 523.207 -7.42309 -2.04641 0
M  V30 3144 C 523.937 -6.86059 -3.24661 0
M  V30 3145 O 524.147 -5.42847 -3.03646 0
M  V30 3146 C 525.337 -7.41196 -3.50753 0
M  V30 3147 O 525.727 -7.27073 -4.86816 0
M  V30 3148 C 526.217 -6.5273 -2.63741 0
M  V30 3149 C 525.507 -5.1842 -2.73198 0
M  V30 3150 N 525.557 -4.38762 -1.4784 0
M  V30 3151 C 525.477 -4.81605 -0.168631 0
M  V30 3152 N 525.557 -3.85454 0.713363 0
M  V30 3153 C 525.697 -2.6994 -0.0566958 0
M  V30 3154 C 525.827 -1.34815 0.338502 0
M  V30 3155 O 525.847 -0.869548 1.47125 0
M  V30 3156 N 525.947 -0.496304 -0.77465 0
M  V30 3157 C 525.947 -0.908403 -2.09122 0
M  V30 3158 N 526.077 0.0517805 -3.00955 0
M  V30 3159 N 525.817 -2.17875 -2.46519 0
M  V30 3160 C 525.697 -3.01988 -1.4033 0
M  V30 3161 H 522.718 -8.36803 -2.32493 0
M  V30 3162 H 522.448 -6.70197 -1.71129 0
M  V30 3163 H 523.315 -7.03551 -4.13168 0
M  V30 3164 H 525.97 -4.59498 -3.54415 0
M  V30 3165 H 526.249 -6.88898 -1.59848 0
M  V30 3166 H 527.241 -6.46749 -3.03687 0
M  V30 3167 H 525.407 -8.46908 -3.20714 0
M  V30 3168 H 525.358 -5.86405 0.105564 0
M  V30 3169 H 526.04 0.483664 -0.597855 0
M  V30 3170 H 526.077 -0.187865 -4.0116 0
M  V30 3171 H 526.178 1.03585 -2.71726 0
M  V30 3172 P 527.277 -7.20834 -5.23717 0
M  V30 3173 O 527.497 -7.79853 -6.57286 0
M  V30 3174 O 528.067 -7.79239 -4.12957 0
M  V30 3175 O 527.527 -5.63315 -5.29344 0
M  V30 3176 C 526.587 -4.80255 -6.01876 0
M  V30 3177 C 527.317 -3.64202 -6.65911 0
M  V30 3178 O 527.527 -2.60694 -5.64732 0
M  V30 3179 C 528.717 -3.93473 -7.1943 0
M  V30 3180 O 529.107 -3.02071 -8.21205 0
M  V30 3181 C 529.597 -3.73047 -5.97036 0
M  V30 3182 C 528.887 -2.58828 -5.25741 0
M  V30 3183 N 528.937 -2.68068 -3.77503 0
M  V30 3184 H 526.098 -5.40332 -6.79951 0
M  V30 3185 H 525.828 -4.41613 -5.32378 0
M  V30 3186 H 526.695 -3.26331 -7.47797 0
M  V30 3187 P 530.657 -2.75334 -8.47391 0
M  V30 3188 O 530.877 -2.44595 -9.90239 0
M  V30 3189 O 531.447 -3.87732 -7.92204 0
M  V30 3190 O 530.907 -1.4459 -7.59357 0
M  V30 3191 C 529.967 -0.347563 -7.69115 0
M  V30 3192 C 530.697 0.96767 -7.52806 0
M  V30 3193 O 530.907 1.21036 -6.1011 0
M  V30 3194 C 532.097 1.04544 -8.13308 0
M  V30 3195 O 532.487 2.38311 -8.41922 0
M  V30 3196 C 532.977 0.491279 -7.02284 0
M  V30 3197 C 532.267 0.996264 -5.77469 0
M  V30 3198 N 532.317 0.0501808 -4.62873 0
M  V30 3199 C 532.467 0.588177 -3.36904 0
M  V30 3200 O 532.557 1.78598 -3.17173 0
M  V30 3201 N 532.507 -0.329694 -2.33686 0
M  V30 3202 C 532.417 -1.6953 -2.45079 0
M  V30 3203 C 532.267 -2.16933 -3.80505 0
M  V30 3204 C 532.217 -1.30326 -4.83752 0
M  V30 3205 H 529.477 -0.374722 -8.67691 0
M  V30 3206 H 529.208 -0.443421 -6.90177 0
M  V30 3207 H 530.075 1.75537 -7.96793 0
M  V30 3208 H 532.73 1.94496 -5.46629 0
M  V30 3209 H 533.009 -0.608651 -7.04676 0
M  V30 3210 H 534.001 0.889672 -7.08939 0
M  V30 3211 H 532.167 0.43308 -9.04564 0
M  V30 3212 H 532.096 -1.68366 -5.8516 0
M  V30 3213 P 534.037 2.75334 -8.47391 0
M  V30 3214 O 534.257 3.84128 -9.44797 0
M  V30 3215 O 534.827 1.51947 -8.68712 0
M  V30 3216 O 534.287 3.29363 -6.99321 0
M  V30 3217 C 533.347 4.24011 -6.4274 0
M  V30 3218 C 534.077 5.20775 -5.52155 0
M  V30 3219 O 534.287 4.56534 -4.22446 0
M  V30 3220 C 535.477 5.62629 -5.96531 0
M  V30 3221 O 535.867 6.87667 -5.41053 0
M  V30 3222 C 536.357 4.52537 -5.39283 0
M  V30 3223 C 535.647 4.20027 -4.08623 0
M  V30 3224 N 535.697 2.76189 -3.71603 0
M  V30 3225 H 532.858 4.797 -7.24003 0
M  V30 3226 H 532.588 3.69856 -5.84513 0
M  V30 3227 H 533.455 6.10356 -5.41441 0
M  V30 3228 P 537.417 7.20834 -5.23717 0
M  V30 3229 O 537.637 8.66104 -5.38572 0
M  V30 3230 O 538.207 6.33544 -6.1349 0
M  V30 3231 O 537.667 6.7751 -3.72168 0
M  V30 3232 C 536.727 7.20825 -2.7076 0
M  V30 3233 C 537.457 7.45864 -1.40599 0
M  V30 3234 O 537.667 6.17651 -0.734225 0
M  V30 3235 C 538.857 8.05808 -1.51899 0
M  V30 3236 O 539.247 8.74358 -0.335205 0
M  V30 3237 C 539.737 6.83093 -1.70294 0
M  V30 3238 C 539.027 5.79992 -0.836974 0
M  V30 3239 N 539.077 4.41864 -1.38293 0
M  V30 3240 C 538.997 3.99538 -2.69438 0
M  V30 3241 N 539.077 2.69909 -2.84277 0
M  V30 3242 C 539.217 2.21719 -1.5408 0
M  V30 3243 C 539.347 0.891712 -1.06628 0
M  V30 3244 O 539.367 -0.161298 -1.70137 0
M  V30 3245 N 539.467 0.856846 0.334985 0
M  V30 3246 C 539.467 1.9641 1.15789 0
M  V30 3247 N 539.597 1.72708 2.46522 0
M  V30 3248 N 539.337 3.21165 0.713741 0
M  V30 3249 C 539.217 3.26797 -0.639748 0
M  V30 3250 H 536.238 8.13644 -3.0377 0
M  V30 3251 H 535.968 6.42788 -2.55485 0
M  V30 3252 H 536.835 8.12039 -0.792769 0
M  V30 3253 H 539.49 5.80061 0.166416 0
M  V30 3254 H 539.769 6.51287 -2.75604 0
M  V30 3255 H 540.761 7.01734 -1.34462 0
M  V30 3256 H 538.927 8.73674 -2.38337 0
M  V30 3257 H 538.878 4.68207 -3.53221 0
M  V30 3258 H 539.56 -0.0398818 0.767965 0
M  V30 3259 H 539.597 2.50995 3.13503 0
M  V30 3260 H 539.698 0.759148 2.80716 0
M  V30 3261 P 540.797 8.91 3.38379e-12 0
M  V30 3262 O 541.017 10.1726 0.733694 0
M  V30 3263 O 541.587 8.73148 -1.23936 0
M  V30 3264 O 541.047 7.66872 0.971405 0
M  V30 3265 C 540.107 7.42309 2.04641 0
M  V30 3266 C 540.837 6.86059 3.24661 0
M  V30 3267 O 541.047 5.42847 3.03646 0
M  V30 3268 C 542.237 7.41196 3.50753 0
M  V30 3269 O 542.627 7.27073 4.86816 0
M  V30 3270 C 543.117 6.5273 2.63741 0
M  V30 3271 C 542.407 5.1842 2.73198 0
M  V30 3272 N 542.457 4.38762 1.4784 0
M  V30 3273 C 542.377 4.81605 0.168631 0
M  V30 3274 N 542.457 3.85454 -0.713363 0
M  V30 3275 C 542.597 2.6994 0.0566958 0
M  V30 3276 C 542.727 1.34815 -0.338502 0
M  V30 3277 O 542.747 0.869548 -1.47125 0
M  V30 3278 N 542.847 0.496304 0.77465 0
M  V30 3279 C 542.847 0.908403 2.09122 0
M  V30 3280 N 542.977 -0.0517805 3.00955 0
M  V30 3281 N 542.717 2.17875 2.46519 0
M  V30 3282 C 542.597 3.01988 1.4033 0
M  V30 3283 H 539.618 8.36803 2.32493 0
M  V30 3284 H 539.348 6.70197 1.71129 0
M  V30 3285 H 540.215 7.03551 4.13168 0
M  V30 3286 H 542.87 4.59498 3.54415 0
M  V30 3287 H 543.149 6.88898 1.59848 0
M  V30 3288 H 544.141 6.46749 3.03687 0
M  V30 3289 H 542.307 8.46908 3.20714 0
M  V30 3290 H 542.258 5.86405 -0.105564 0
M  V30 3291 H 542.94 -0.483664 0.597855 0
M  V30 3292 H 542.977 0.187865 4.0116 0
M  V30 3293 H 543.078 -1.03585 2.71726 0
M  V30 3294 P 544.177 7.20834 5.23717 0
M  V30 3295 O 544.397 7.79853 6.57286 0
M  V30 3296 O 544.967 7.79239 4.12957 0
M  V30 3297 O 544.427 5.63315 5.29344 0
M  V30 3298 C 543.487 4.80255 6.01876 0
M  V30 3299 C 544.217 3.64202 6.65911 0
M  V30 3300 O 544.427 2.60694 5.64732 0
M  V30 3301 C 545.617 3.93473 7.1943 0
M  V30 3302 O 546.007 3.02071 8.21205 0
M  V30 3303 C 546.497 3.73047 5.97036 0
M  V30 3304 C 545.787 2.58828 5.25741 0
M  V30 3305 N 545.837 2.68068 3.77503 0
M  V30 3306 H 542.998 5.40332 6.79951 0
M  V30 3307 H 542.728 4.41613 5.32378 0
M  V30 3308 H 543.595 3.26331 7.47797 0
M  V30 3309 P 547.557 2.75334 8.47391 0
M  V30 3310 O 547.777 2.44619 9.90336 0
M  V30 3311 O 548.347 3.87776 7.92294 0
M  V30 3312 O 547.807 1.4459 7.59357 0
M  V30 3313 C 546.867 0.347653 7.69315 0
M  V30 3314 C 547.597 -0.96767 7.52806 0
M  V30 3315 O 547.807 -1.21055 6.10208 0
M  V30 3316 C 548.997 -1.04557 8.13408 0
M  V30 3317 O 549.387 -2.38311 8.41922 0
M  V30 3318 C 549.877 -0.491279 7.02284 0
M  V30 3319 C 549.167 -0.996264 5.77469 0
M  V30 3320 N 549.217 -0.0501916 4.62973 0
M  V30 3321 C 549.137 1.31969 4.65661 0
M  V30 3322 N 549.207 1.86649 3.48119 0
M  V30 3323 C 549.357 0.792089 2.62406 0
M  V30 3324 C 549.487 0.705684 1.2207 0
M  V30 3325 N 549.497 1.76207 0.413762 0
M  V30 3326 N 549.607 -0.518981 0.685754 0
M  V30 3327 C 549.597 -1.57595 1.49174 0
M  V30 3328 N 549.477 -1.62909 2.80066 0
M  V30 3329 C 549.357 -0.388195 3.3073 0
M  V30 3330 H 546.379 0.374765 8.67791 0
M  V30 3331 H 546.107 0.443613 6.90476 0
M  V30 3332 H 546.975 -1.75559 7.96891 0
M  V30 3333 H 549.63 -1.94563 5.46818 0
M  V30 3334 H 549.91 0.608651 7.04676 0
M  V30 3335 H 550.901 -0.889796 7.09039 0
M  V30 3336 H 549.067 -0.433128 9.04664 0
M  V30 3337 H 549.026 1.89246 5.57664 0
M  V30 3338 H 549.407 2.71005 0.804694 0
M  V30 3339 H 549.596 1.63189 -0.603768 0
M  V30 3340 H 549.704 -2.53475 0.997614 0
M  V30 3341 P 550.937 -2.75334 8.47391 0
M  V30 3342 O 551.157 -3.84128 9.44797 0
M  V30 3343 O 551.727 -1.51947 8.68712 0
M  V30 3344 O 551.187 -3.29363 6.99321 0
M  V30 3345 C 550.247 -4.24011 6.4274 0
M  V30 3346 C 550.977 -5.20775 5.52155 0
M  V30 3347 O 551.187 -4.56534 4.22446 0
M  V30 3348 C 552.377 -5.62629 5.96531 0
M  V30 3349 O 552.767 -6.87667 5.41053 0
M  V30 3350 C 553.257 -4.52537 5.39283 0
M  V30 3351 C 552.547 -4.20027 4.08623 0
M  V30 3352 N 552.597 -2.76189 3.71603 0
M  V30 3353 H 549.758 -4.797 7.24003 0
M  V30 3354 H 549.488 -3.69856 5.84513 0
M  V30 3355 H 550.355 -6.10356 5.41441 0
M  V30 3356 P 554.317 -7.20834 5.23717 0
M  V30 3357 O 554.537 -8.66104 5.38572 0
M  V30 3358 O 555.107 -6.33544 6.1349 0
M  V30 3359 O 554.567 -6.7751 3.72168 0
M  V30 3360 C 553.627 -7.20825 2.7076 0
M  V30 3361 C 554.357 -7.45864 1.40599 0
M  V30 3362 O 554.567 -6.17651 0.734225 0
M  V30 3363 C 555.757 -8.05808 1.51899 0
M  V30 3364 O 556.147 -8.74358 0.335205 0
M  V30 3365 C 556.637 -6.83093 1.70294 0
M  V30 3366 C 555.927 -5.79992 0.836974 0
M  V30 3367 N 555.977 -4.41864 1.38293 0
M  V30 3368 H 553.138 -8.13644 3.0377 0
M  V30 3369 H 552.868 -6.42788 2.55485 0
M  V30 3370 H 553.735 -8.12039 0.792769 0
M  V30 3371 P 557.697 -8.91 -3.54097e-12 0
M  V30 3372 O 557.917 -10.1726 -0.733694 0
M  V30 3373 O 558.487 -8.73148 1.23936 0
M  V30 3374 O 557.947 -7.66872 -0.971405 0
M  V30 3375 C 557.007 -7.42309 -2.04641 0
M  V30 3376 C 557.737 -6.86059 -3.24661 0
M  V30 3377 O 557.947 -5.42847 -3.03646 0
M  V30 3378 C 559.137 -7.41196 -3.50753 0
M  V30 3379 O 559.527 -7.27073 -4.86816 0
M  V30 3380 C 560.017 -6.5273 -2.63741 0
M  V30 3381 C 559.307 -5.1842 -2.73198 0
M  V30 3382 N 559.357 -4.38762 -1.4784 0
M  V30 3383 H 556.518 -8.36803 -2.32493 0
M  V30 3384 H 556.248 -6.70197 -1.71129 0
M  V30 3385 H 557.115 -7.03551 -4.13168 0
M  V30 3386 P 561.077 -7.20834 -5.23717 0
M  V30 3387 O 561.297 -7.80006 -6.57415 0
M  V30 3388 O 561.867 -7.79416 -4.13051 0
M  V30 3389 O 561.327 -5.63315 -5.29344 0
M  V30 3390 C 560.387 -4.80318 -6.01954 0
M  V30 3391 C 561.117 -3.64202 -6.65911 0
M  V30 3392 O 561.327 -2.60736 -5.64823 0
M  V30 3393 C 562.517 -3.93521 -7.19518 0
M  V30 3394 O 562.907 -3.02071 -8.21205 0
M  V30 3395 C 563.397 -3.73047 -5.97036 0
M  V30 3396 C 562.687 -2.58828 -5.25741 0
M  V30 3397 N 562.737 -2.68068 -3.77503 0
M  V30 3398 H 559.899 -5.40394 -6.8003 0
M  V30 3399 H 559.627 -4.41741 -5.32532 0
M  V30 3400 H 560.495 -3.26371 -7.47889 0
M  V30 3401 H 563.15 -1.64007 -5.56746 0
M  V30 3402 H 563.43 -4.63439 -5.3432 0
M  V30 3403 H 564.421 -3.44776 -6.25925 0
M  V30 3404 H 562.587 -4.96707 -7.57347 0
M  V30 3405 P 564.457 -2.75334 -8.47391 0
M  V30 3406 O 564.677 -2.44571 -9.90142 0
M  V30 3407 O 565.247 -3.87688 -7.92115 0
M  V30 3408 O 564.707 -1.4459 -7.59357 0
M  V30 3409 C 563.767 -0.347608 -7.69215 0
M  V30 3410 C 564.497 0.96767 -7.52806 0
M  V30 3411 O 564.707 1.21036 -6.1011 0
M  V30 3412 C 565.897 1.04544 -8.13308 0
M  V30 3413 O 566.287 2.38311 -8.41922 0
M  V30 3414 C 566.777 0.491279 -7.02284 0
M  V30 3415 C 566.067 0.996264 -5.77469 0
M  V30 3416 N 566.117 0.0501916 -4.62973 0
M  V30 3417 H 563.278 -0.374722 -8.67691 0
M  V30 3418 H 563.008 -0.443485 -6.90277 0
M  V30 3419 H 563.875 1.75537 -7.96793 0
M  V30 3420 P 567.837 2.75334 -8.47391 0
M  V30 3421 O 568.057 3.84128 -9.44797 0
M  V30 3422 O 568.627 1.51947 -8.68712 0
M  V30 3423 O 568.087 3.29363 -6.99321 0
M  V30 3424 C 567.147 4.24011 -6.4274 0
M  V30 3425 C 567.877 5.20775 -5.52155 0
M  V30 3426 O 568.087 4.56534 -4.22446 0
M  V30 3427 C 569.277 5.62629 -5.96531 0
M  V30 3428 O 569.667 6.87667 -5.41053 0
M  V30 3429 C 570.157 4.52537 -5.39283 0
M  V30 3430 C 569.447 4.20027 -4.08623 0
M  V30 3431 N 569.497 2.76189 -3.71603 0
M  V30 3432 H 566.658 4.797 -7.24003 0
M  V30 3433 H 566.388 3.69856 -5.84513 0
M  V30 3434 H 567.255 6.10356 -5.41441 0
M  V30 3435 P 571.217 7.20834 -5.23717 0
M  V30 3436 O 571.437 8.66274 -5.38678 0
M  V30 3437 O 572.007 6.33687 -6.13629 0
M  V30 3438 O 571.467 6.7751 -3.72168 0
M  V30 3439 C 570.527 7.20919 -2.70795 0
M  V30 3440 C 571.257 7.45864 -1.40599 0
M  V30 3441 O 571.467 6.17751 -0.734343 0
M  V30 3442 C 572.657 8.05906 -1.51917 0
M  V30 3443 O 573.047 8.74358 -0.335205 0
M  V30 3444 C 573.537 6.83093 -1.70294 0
M  V30 3445 C 572.827 5.79992 -0.836974 0
M  V30 3446 N 572.877 4.41864 -1.38293 0
M  V30 3447 C 572.797 4.02089 -2.69407 0
M  V30 3448 N 572.867 2.73403 -2.85089 0
M  V30 3449 C 573.017 2.25086 -1.5642 0
M  V30 3450 C 573.147 0.942887 -1.04836 0
M  V30 3451 N 573.157 -0.150999 -1.80369 0
M  V30 3452 N 573.267 0.812565 0.28167 0
M  V30 3453 C 573.257 1.90572 1.03784 0
M  V30 3454 N 573.137 3.167 0.683905 0
M  V30 3455 C 573.017 3.26538 -0.652815 0
M  V30 3456 H 570.039 8.13738 -3.03804 0
M  V30 3457 H 569.767 6.42974 -2.55559 0
M  V30 3458 H 570.635 8.12139 -0.792866 0
M  V30 3459 H 573.29 5.80178 0.160643 0
M  V30 3460 H 573.57 6.51379 -2.75643 0
M  V30 3461 H 574.561 7.01832 -1.3448 0
M  V30 3462 H 572.727 8.73771 -2.38364 0
M  V30 3463 H 572.686 4.7189 -3.52311 0
M  V30 3464 H 573.067 -0.0721434 -2.82608 0
M  V30 3465 H 573.256 -1.0785 -1.36544 0
M  V30 3466 H 573.364 1.73207 2.10241 0
M  V30 3467 P 574.597 8.91 3.69815e-12 0
M  V30 3468 O 574.817 10.1746 0.733838 0
M  V30 3469 O 575.387 8.73346 -1.23964 0
M  V30 3470 O 574.847 7.66872 0.971405 0
M  V30 3471 C 573.907 7.42405 2.04668 0
M  V30 3472 C 574.637 6.86059 3.24661 0
M  V30 3473 O 574.847 5.42934 3.03695 0
M  V30 3474 C 576.037 7.41287 3.50796 0
M  V30 3475 O 576.427 7.27073 4.86816 0
M  V30 3476 C 576.917 6.5273 2.63741 0
M  V30 3477 C 576.207 5.1842 2.73198 0
M  V30 3478 N 576.257 4.38762 1.4784 0
M  V30 3479 H 573.419 8.36899 2.3252 0
M  V30 3480 H 573.147 6.70391 1.71179 0
M  V30 3481 H 574.015 7.03638 4.13219 0
M  V30 3482 H 576.67 4.59931 3.54016 0
M  V30 3483 H 576.95 6.88995 1.59871 0
M  V30 3484 H 577.941 6.4684 3.0373 0
M  V30 3485 H 576.107 8.47002 3.20749 0
M  V30 3486 P 577.977 7.20834 5.23717 0
M  V30 3487 O 578.197 7.79853 6.57286 0
M  V30 3488 O 578.767 7.79239 4.12957 0
M  V30 3489 O 578.227 5.63315 5.29344 0
M  V30 3490 C 577.287 4.80255 6.01876 0
M  V30 3491 C 578.017 3.64202 6.65911 0
M  V30 3492 O 578.227 2.60694 5.64732 0
M  V30 3493 C 579.417 3.93473 7.1943 0
M  V30 3494 O 579.807 3.02071 8.21205 0
M  V30 3495 C 580.297 3.73047 5.97036 0
M  V30 3496 C 579.587 2.58828 5.25741 0
M  V30 3497 N 579.637 2.68068 3.77503 0
M  V30 3498 H 576.798 5.40332 6.79951 0
M  V30 3499 H 576.528 4.41613 5.32378 0
M  V30 3500 H 577.395 3.26331 7.47797 0
M  V30 3501 P 581.357 2.75334 8.47391 0
M  V30 3502 O 581.577 2.44571 9.90142 0
M  V30 3503 O 582.147 3.87688 7.92115 0
M  V30 3504 O 581.607 1.4459 7.59357 0
M  V30 3505 C 580.667 0.347608 7.69215 0
M  V30 3506 C 581.397 -0.96767 7.52806 0
M  V30 3507 O 581.607 -1.21036 6.1011 0
M  V30 3508 C 582.797 -1.04544 8.13308 0
M  V30 3509 O 583.187 -2.38311 8.41922 0
M  V30 3510 C 583.677 -0.491279 7.02284 0
M  V30 3511 C 582.967 -0.996264 5.77469 0
M  V30 3512 N 583.017 -0.0501916 4.62973 0
M  V30 3513 C 582.937 1.32786 4.63244 0
M  V30 3514 N 583.017 1.86957 3.44545 0
M  V30 3515 C 583.157 0.780241 2.58481 0
M  V30 3516 C 583.287 0.738536 1.17757 0
M  V30 3517 O 583.307 1.66794 0.372349 0
M  V30 3518 N 583.407 -0.58337 0.711393 0
M  V30 3519 C 583.407 -1.70816 1.51017 0
M  V30 3520 N 583.537 -2.87826 0.880757 0
M  V30 3521 N 583.277 -1.67126 2.8339 0
M  V30 3522 C 583.157 -0.401421 3.30572 0
M  V30 3523 H 580.178 0.374722 8.67691 0
M  V30 3524 H 579.908 0.443485 6.90277 0
M  V30 3525 H 580.775 -1.75537 7.96793 0
M  V30 3526 H 583.43 -1.95076 5.46529 0
M  V30 3527 H 583.709 0.608565 7.04577 0
M  V30 3528 H 584.701 -0.889672 7.08939 0
M  V30 3529 H 582.867 -0.43308 9.04564 0
M  V30 3530 H 582.818 1.91249 5.54442 0
M  V30 3531 H 583.5 -0.718054 -0.275244 0
M  V30 3532 H 583.537 -3.75721 1.41832 0
M  V30 3533 H 583.638 -2.90436 -0.145468 0
M  V30 3534 P 584.737 -2.75334 8.47391 0
M  V30 3535 O 584.957 -3.84204 9.44982 0
M  V30 3536 O 585.527 -1.51982 8.68909 0
M  V30 3537 O 584.987 -3.29363 6.99321 0
M  V30 3538 C 584.047 -4.24066 6.42823 0
M  V30 3539 C 584.777 -5.20775 5.52155 0
M  V30 3540 O 584.987 -4.56607 4.22514 0
M  V30 3541 C 586.177 -5.62697 5.96604 0
M  V30 3542 O 586.567 -6.87667 5.41053 0
M  V30 3543 C 587.057 -4.52537 5.39283 0
M  V30 3544 C 586.347 -4.20027 4.08623 0
M  V30 3545 N 586.397 -2.76189 3.71603 0
M  V30 3546 H 583.559 -4.79756 7.24086 0
M  V30 3547 H 583.287 -3.69963 5.84682 0
M  V30 3548 H 584.155 -6.10431 5.41508 0
M  V30 3549 H 586.81 -4.78816 3.28024 0
M  V30 3550 H 587.09 -3.64957 6.05871 0
M  V30 3551 H 588.081 -4.88748 5.21323 0
M  V30 3552 H 586.247 -5.66789 7.0643 0
M  V30 3553 P 588.117 -7.20834 5.23717 0
M  V30 3554 O 588.337 -8.66104 5.38572 0
M  V30 3555 O 588.907 -6.33544 6.1349 0
M  V30 3556 O 588.367 -6.7751 3.72168 0
M  V30 3557 C 587.427 -7.20825 2.7076 0
M  V30 3558 C 588.157 -7.45864 1.40599 0
M  V30 3559 O 588.367 -6.17651 0.734225 0
M  V30 3560 C 589.557 -8.05808 1.51899 0
M  V30 3561 O 589.947 -8.74358 0.335205 0
M  V30 3562 C 590.437 -6.83093 1.70294 0
M  V30 3563 C 589.727 -5.79992 0.836974 0
M  V30 3564 N 589.777 -4.41864 1.38293 0
M  V30 3565 C 589.697 -3.99538 2.69438 0
M  V30 3566 N 589.777 -2.69909 2.84277 0
M  V30 3567 C 589.917 -2.21719 1.5408 0
M  V30 3568 C 590.047 -0.891712 1.06628 0
M  V30 3569 N 590.167 -0.856846 -0.334985 0
M  V30 3570 C 590.167 -1.9641 -1.15789 0
M  V30 3571 N 590.297 -1.72708 -2.46522 0
M  V30 3572 N 590.037 -3.21165 -0.713741 0
M  V30 3573 C 589.917 -3.26797 0.639748 0
M  V30 3574 H 586.938 -8.13644 3.0377 0
M  V30 3575 H 586.668 -6.42788 2.55485 0
M  V30 3576 H 587.535 -8.12039 0.792769 0
M  V30 3577 P 591.496 -8.91 -3.85533e-12 0
M  V30 3578 O 591.716 -10.1726 -0.733694 0
M  V30 3579 O 592.286 -8.73148 1.23936 0
M  V30 3580 O 591.746 -7.66872 -0.971405 0
M  V30 3581 C 590.806 -7.42309 -2.04641 0
M  V30 3582 C 591.536 -6.86059 -3.24661 0
M  V30 3583 O 591.746 -5.42847 -3.03646 0
M  V30 3584 C 592.937 -7.41196 -3.50753 0
M  V30 3585 O 593.327 -7.27073 -4.86816 0
M  V30 3586 C 593.817 -6.5273 -2.63741 0
M  V30 3587 C 593.106 -5.1842 -2.73198 0
M  V30 3588 N 593.156 -4.38762 -1.4784 0
M  V30 3589 H 590.317 -8.36803 -2.32493 0
M  V30 3590 H 590.048 -6.70197 -1.71129 0
M  V30 3591 H 590.914 -7.03551 -4.13168 0
M  V30 3592 P 594.876 -7.20834 -5.23717 0
M  V30 3593 O 595.096 -7.79853 -6.57286 0
M  V30 3594 O 595.666 -7.79239 -4.12957 0
M  V30 3595 O 595.126 -5.63315 -5.29344 0
M  V30 3596 C 594.186 -4.80255 -6.01876 0
M  V30 3597 C 594.916 -3.64202 -6.65911 0
M  V30 3598 O 595.126 -2.60694 -5.64732 0
M  V30 3599 C 596.316 -3.93473 -7.1943 0
M  V30 3600 O 596.706 -3.02071 -8.21205 0
M  V30 3601 C 597.196 -3.73047 -5.97036 0
M  V30 3602 C 596.486 -2.58828 -5.25741 0
M  V30 3603 N 596.536 -2.68068 -3.77503 0
M  V30 3604 C 596.456 -3.79715 -2.96723 0
M  V30 3605 N 596.536 -3.5377 -1.68852 0
M  V30 3606 C 596.676 -2.15054 -1.63254 0
M  V30 3607 C 596.806 -1.28964 -0.518571 0
M  V30 3608 O 596.826 -1.56826 0.679156 0
M  V30 3609 N 596.926 0.0538097 -0.918425 0
M  V30 3610 C 596.926 0.494275 -2.22578 0
M  V30 3611 N 597.056 1.81086 -2.40434 0
M  V30 3612 N 596.796 -0.313645 -3.27502 0
M  V30 3613 C 596.676 -1.61829 -2.91033 0
M  V30 3614 H 593.697 -5.40332 -6.79951 0
M  V30 3615 H 593.427 -4.41613 -5.32378 0
M  V30 3616 H 594.294 -3.26331 -7.47797 0
M  V30 3617 H 596.949 -1.63422 -5.56814 0
M  V30 3618 H 597.228 -4.63374 -5.34244 0
M  V30 3619 H 598.22 -3.44728 -6.25838 0
M  V30 3620 H 596.386 -4.96652 -7.57263 0
M  V30 3621 H 596.337 -4.80617 -3.3614 0
M  V30 3622 H 597.019 0.742702 -0.199384 0
M  V30 3623 H 597.056 2.20598 -3.35588 0
M  V30 3624 H 597.157 2.43518 -1.58945 0
M  V30 3625 P 598.256 -2.75334 -8.47391 0
M  V30 3626 O 598.476 -2.44571 -9.90142 0
M  V30 3627 O 599.046 -3.87688 -7.92115 0
M  V30 3628 O 598.506 -1.4459 -7.59357 0
M  V30 3629 C 597.566 -0.347608 -7.69215 0
M  V30 3630 C 598.296 0.96767 -7.52806 0
M  V30 3631 O 598.506 1.21036 -6.1011 0
M  V30 3632 C 599.696 1.04544 -8.13308 0
M  V30 3633 O 600.086 2.38311 -8.41922 0
M  V30 3634 C 600.576 0.491279 -7.02284 0
M  V30 3635 C 599.866 0.996264 -5.77469 0
M  V30 3636 N 599.916 0.0501916 -4.62973 0
M  V30 3637 H 597.077 -0.374722 -8.67691 0
M  V30 3638 H 596.807 -0.443485 -6.90277 0
M  V30 3639 H 597.674 1.75537 -7.96793 0
M  V30 3640 P 601.636 2.75334 -8.47391 0
M  V30 3641 O 601.856 3.84128 -9.44797 0
M  V30 3642 O 602.426 1.51947 -8.68712 0
M  V30 3643 O 601.886 3.29363 -6.99321 0
M  V30 3644 C 600.946 4.24011 -6.4274 0
M  V30 3645 C 601.676 5.20775 -5.52155 0
M  V30 3646 O 601.886 4.56534 -4.22446 0
M  V30 3647 C 603.076 5.62629 -5.96531 0
M  V30 3648 O 603.466 6.87667 -5.41053 0
M  V30 3649 C 603.956 4.52537 -5.39283 0
M  V30 3650 C 603.246 4.20027 -4.08623 0
M  V30 3651 N 603.296 2.76189 -3.71603 0
M  V30 3652 H 600.457 4.797 -7.24003 0
M  V30 3653 H 600.187 3.69856 -5.84513 0
M  V30 3654 H 601.054 6.10356 -5.41441 0
M  V30 3655 P 605.016 7.20834 -5.23717 0
M  V30 3656 O 605.236 8.66104 -5.38572 0
M  V30 3657 O 605.806 6.33544 -6.1349 0
M  V30 3658 O 605.266 6.7751 -3.72168 0
M  V30 3659 C 604.326 7.20825 -2.7076 0
M  V30 3660 C 605.056 7.45864 -1.40599 0
M  V30 3661 O 605.266 6.17651 -0.734225 0
M  V30 3662 C 606.456 8.05808 -1.51899 0
M  V30 3663 O 606.846 8.74358 -0.335205 0
M  V30 3664 C 607.336 6.83093 -1.70294 0
M  V30 3665 C 606.626 5.79992 -0.836974 0
M  V30 3666 N 606.676 4.41864 -1.38293 0
M  V30 3667 C 606.596 3.99538 -2.69438 0
M  V30 3668 N 606.676 2.69909 -2.84277 0
M  V30 3669 C 606.816 2.21719 -1.5408 0
M  V30 3670 C 606.946 0.891712 -1.06628 0
M  V30 3671 O 606.966 -0.161298 -1.70137 0
M  V30 3672 N 607.066 0.856846 0.334985 0
M  V30 3673 C 607.066 1.9641 1.15789 0
M  V30 3674 N 607.196 1.72708 2.46522 0
M  V30 3675 N 606.936 3.21165 0.713741 0
M  V30 3676 C 606.816 3.26797 -0.639748 0
M  V30 3677 H 603.837 8.13644 -3.0377 0
M  V30 3678 H 603.567 6.42788 -2.55485 0
M  V30 3679 H 604.434 8.12039 -0.792769 0
M  V30 3680 H 607.089 5.80061 0.166416 0
M  V30 3681 H 607.368 6.51287 -2.75604 0
M  V30 3682 H 608.36 7.01734 -1.34462 0
M  V30 3683 H 606.526 8.73674 -2.38337 0
M  V30 3684 H 606.477 4.68207 -3.53221 0
M  V30 3685 H 607.159 -0.0398818 0.767965 0
M  V30 3686 H 607.196 2.50995 3.13503 0
M  V30 3687 H 607.297 0.759148 2.80716 0
M  V30 3688 P 608.396 8.91 4.01252e-12 0
M  V30 3689 O 608.616 10.1726 0.733694 0
M  V30 3690 O 609.186 8.73148 -1.23936 0
M  V30 3691 O 608.646 7.66872 0.971405 0
M  V30 3692 C 607.706 7.42309 2.04641 0
M  V30 3693 C 608.436 6.86059 3.24661 0
M  V30 3694 O 608.646 5.42847 3.03646 0
M  V30 3695 C 609.836 7.41196 3.50753 0
M  V30 3696 O 610.226 7.27073 4.86816 0
M  V30 3697 C 610.716 6.5273 2.63741 0
M  V30 3698 C 610.006 5.1842 2.73198 0
M  V30 3699 N 610.056 4.38762 1.4784 0
M  V30 3700 H 607.217 8.36803 2.32493 0
M  V30 3701 H 606.947 6.70197 1.71129 0
M  V30 3702 H 607.814 7.03551 4.13168 0
M  V30 3703 P 611.776 7.20834 5.23717 0
M  V30 3704 O 611.996 7.79853 6.57286 0
M  V30 3705 O 612.566 7.79239 4.12957 0
M  V30 3706 O 612.026 5.63315 5.29344 0
M  V30 3707 C 611.086 4.80255 6.01876 0
M  V30 3708 C 611.816 3.64202 6.65911 0
M  V30 3709 O 612.026 2.60694 5.64732 0
M  V30 3710 C 613.216 3.93473 7.1943 0
M  V30 3711 O 613.606 3.02071 8.21205 0
M  V30 3712 C 614.096 3.73047 5.97036 0
M  V30 3713 C 613.386 2.58828 5.25741 0
M  V30 3714 N 613.436 2.68068 3.77503 0
M  V30 3715 C 613.356 3.79715 2.96723 0
M  V30 3716 N 613.436 3.5377 1.68852 0
M  V30 3717 C 613.576 2.15054 1.63254 0
M  V30 3718 C 613.706 1.28964 0.518571 0
M  V30 3719 O 613.726 1.56826 -0.679156 0
M  V30 3720 N 613.826 -0.0538097 0.918425 0
M  V30 3721 C 613.826 -0.494275 2.22578 0
M  V30 3722 N 613.956 -1.81086 2.40434 0
M  V30 3723 N 613.696 0.313645 3.27502 0
M  V30 3724 C 613.576 1.61829 2.91033 0
M  V30 3725 H 610.597 5.40332 6.79951 0
M  V30 3726 H 610.327 4.41613 5.32378 0
M  V30 3727 H 611.194 3.26331 7.47797 0
M  V30 3728 H 613.849 1.63422 5.56814 0
M  V30 3729 H 614.128 4.63374 5.34244 0
M  V30 3730 H 615.12 3.44728 6.25838 0
M  V30 3731 H 613.286 4.96652 7.57263 0
M  V30 3732 H 613.237 4.80617 3.3614 0
M  V30 3733 H 613.919 -0.742702 0.199384 0
M  V30 3734 H 613.956 -2.20598 3.35588 0
M  V30 3735 H 614.057 -2.43518 1.58945 0
M  V30 3736 P 615.156 2.75334 8.47391 0
M  V30 3737 O 615.376 2.44571 9.90142 0
M  V30 3738 O 615.946 3.87688 7.92115 0
M  V30 3739 O 615.406 1.4459 7.59357 0
M  V30 3740 C 614.466 0.347608 7.69215 0
M  V30 3741 C 615.196 -0.96767 7.52806 0
M  V30 3742 O 615.406 -1.21036 6.1011 0
M  V30 3743 C 616.596 -1.04544 8.13308 0
M  V30 3744 O 616.986 -2.38311 8.41922 0
M  V30 3745 C 617.476 -0.491279 7.02284 0
M  V30 3746 C 616.766 -0.996264 5.77469 0
M  V30 3747 N 616.816 -0.0501916 4.62973 0
M  V30 3748 C 616.736 1.32786 4.63244 0
M  V30 3749 N 616.816 1.86957 3.44545 0
M  V30 3750 C 616.956 0.780241 2.58481 0
M  V30 3751 C 617.086 0.738536 1.17757 0
M  V30 3752 O 617.106 1.66794 0.372349 0
M  V30 3753 N 617.206 -0.58337 0.711393 0
M  V30 3754 C 617.206 -1.70816 1.51017 0
M  V30 3755 N 617.336 -2.87826 0.880757 0
M  V30 3756 N 617.076 -1.67126 2.8339 0
M  V30 3757 C 616.956 -0.401421 3.30572 0
M  V30 3758 H 613.977 0.374722 8.67691 0
M  V30 3759 H 613.707 0.443485 6.90277 0
M  V30 3760 H 614.574 -1.75537 7.96793 0
M  V30 3761 H 617.229 -1.95076 5.46529 0
M  V30 3762 H 617.508 0.608565 7.04577 0
M  V30 3763 H 618.5 -0.889672 7.08939 0
M  V30 3764 H 616.666 -0.43308 9.04564 0
M  V30 3765 H 616.617 1.91249 5.54442 0
M  V30 3766 H 617.299 -0.718054 -0.275244 0
M  V30 3767 H 617.336 -3.75721 1.41832 0
M  V30 3768 H 617.437 -2.90436 -0.145468 0
M  V30 3769 P 618.536 -2.75334 8.47391 0
M  V30 3770 O 618.756 -3.84128 9.44797 0
M  V30 3771 O 619.326 -1.51947 8.68712 0
M  V30 3772 O 618.786 -3.29363 6.99321 0
M  V30 3773 C 617.846 -4.24011 6.4274 0
M  V30 3774 C 618.576 -5.20775 5.52155 0
M  V30 3775 O 618.786 -4.56534 4.22446 0
M  V30 3776 C 619.976 -5.62629 5.96531 0
M  V30 3777 O 620.366 -6.87667 5.41053 0
M  V30 3778 C 620.856 -4.52537 5.39283 0
M  V30 3779 C 620.146 -4.20027 4.08623 0
M  V30 3780 N 620.196 -2.76189 3.71603 0
M  V30 3781 H 617.357 -4.797 7.24003 0
M  V30 3782 H 617.087 -3.69856 5.84513 0
M  V30 3783 H 617.954 -6.10356 5.41441 0
M  V30 3784 P 621.916 -7.20834 5.23717 0
M  V30 3785 O 622.136 -8.66104 5.38572 0
M  V30 3786 O 622.706 -6.33544 6.1349 0
M  V30 3787 O 622.166 -6.7751 3.72168 0
M  V30 3788 C 621.226 -7.20825 2.7076 0
M  V30 3789 C 621.956 -7.45864 1.40599 0
M  V30 3790 O 622.166 -6.17651 0.734225 0
M  V30 3791 C 623.356 -8.05808 1.51899 0
M  V30 3792 O 623.746 -8.74358 0.335205 0
M  V30 3793 C 624.236 -6.83093 1.70294 0
M  V30 3794 C 623.526 -5.79992 0.836974 0
M  V30 3795 N 623.576 -4.41864 1.38293 0
M  V30 3796 H 620.737 -8.13644 3.0377 0
M  V30 3797 H 620.467 -6.42788 2.55485 0
M  V30 3798 H 621.334 -8.12039 0.792769 0
M  V30 3799 P 625.296 -8.91 -4.1697e-12 0
M  V30 3800 O 625.516 -10.1726 -0.733694 0
M  V30 3801 O 626.086 -8.73148 1.23936 0
M  V30 3802 O 625.546 -7.66872 -0.971405 0
M  V30 3803 C 624.606 -7.42309 -2.04641 0
M  V30 3804 C 625.336 -6.86059 -3.24661 0
M  V30 3805 O 625.546 -5.42847 -3.03646 0
M  V30 3806 C 626.736 -7.41196 -3.50753 0
M  V30 3807 O 627.126 -7.27073 -4.86816 0
M  V30 3808 C 627.616 -6.5273 -2.63741 0
M  V30 3809 C 626.906 -5.1842 -2.73198 0
M  V30 3810 N 626.956 -4.38762 -1.4784 0
M  V30 3811 C 626.876 -4.81605 -0.168631 0
M  V30 3812 N 626.956 -3.85454 0.713363 0
M  V30 3813 C 627.096 -2.6994 -0.0566958 0
M  V30 3814 C 627.226 -1.34815 0.338502 0
M  V30 3815 O 627.246 -0.869548 1.47125 0
M  V30 3816 N 627.346 -0.496304 -0.77465 0
M  V30 3817 C 627.346 -0.908403 -2.09122 0
M  V30 3818 N 627.476 0.0517805 -3.00955 0
M  V30 3819 N 627.216 -2.17875 -2.46519 0
M  V30 3820 C 627.096 -3.01988 -1.4033 0
M  V30 3821 H 624.117 -8.36803 -2.32493 0
M  V30 3822 H 623.847 -6.70197 -1.71129 0
M  V30 3823 H 624.714 -7.03551 -4.13168 0
M  V30 3824 H 627.369 -4.59498 -3.54415 0
M  V30 3825 H 627.648 -6.88898 -1.59848 0
M  V30 3826 H 628.64 -6.46749 -3.03687 0
M  V30 3827 H 626.806 -8.46908 -3.20714 0
M  V30 3828 H 626.757 -5.86405 0.105564 0
M  V30 3829 H 627.439 0.483664 -0.597855 0
M  V30 3830 H 627.476 -0.187865 -4.0116 0
M  V30 3831 H 627.577 1.03585 -2.71726 0
M  V30 3832 P 628.676 -7.20834 -5.23717 0
M  V30 3833 O 628.896 -7.79853 -6.57286 0
M  V30 3834 O 629.466 -7.79239 -4.12957 0
M  V30 3835 O 628.926 -5.63315 -5.29344 0
M  V30 3836 C 627.986 -4.80255 -6.01876 0
M  V30 3837 C 628.716 -3.64202 -6.65911 0
M  V30 3838 O 628.926 -2.60694 -5.64732 0
M  V30 3839 C 630.116 -3.93473 -7.1943 0
M  V30 3840 O 630.506 -3.02071 -8.21205 0
M  V30 3841 C 630.996 -3.73047 -5.97036 0
M  V30 3842 C 630.286 -2.58828 -5.25741 0
M  V30 3843 N 630.336 -2.68068 -3.77503 0
M  V30 3844 H 627.497 -5.40332 -6.79951 0
M  V30 3845 H 627.227 -4.41613 -5.32378 0
M  V30 3846 H 628.094 -3.26331 -7.47797 0
M  V30 3847 P 632.056 -2.75334 -8.47391 0
M  V30 3848 O 632.276 -2.44619 -9.90336 0
M  V30 3849 O 632.846 -3.87776 -7.92294 0
M  V30 3850 O 632.306 -1.4459 -7.59357 0
M  V30 3851 C 631.366 -0.347653 -7.69315 0
M  V30 3852 C 632.096 0.96767 -7.52806 0
M  V30 3853 O 632.306 1.21055 -6.10208 0
M  V30 3854 C 633.496 1.04557 -8.13408 0
M  V30 3855 O 633.886 2.38311 -8.41922 0
M  V30 3856 C 634.376 0.491279 -7.02284 0
M  V30 3857 C 633.666 0.996264 -5.77469 0
M  V30 3858 N 633.716 0.0501916 -4.62973 0
M  V30 3859 C 633.636 -1.31969 -4.65661 0
M  V30 3860 N 633.706 -1.86649 -3.48119 0
M  V30 3861 C 633.856 -0.792089 -2.62406 0
M  V30 3862 C 633.986 -0.705684 -1.2207 0
M  V30 3863 N 633.996 -1.76207 -0.413762 0
M  V30 3864 N 634.106 0.518981 -0.685754 0
M  V30 3865 C 634.096 1.57595 -1.49174 0
M  V30 3866 N 633.976 1.62909 -2.80066 0
M  V30 3867 C 633.856 0.388195 -3.3073 0
M  V30 3868 H 630.878 -0.374765 -8.67791 0
M  V30 3869 H 630.606 -0.443613 -6.90476 0
M  V30 3870 H 631.474 1.75559 -7.96891 0
M  V30 3871 H 634.129 1.94563 -5.46818 0
M  V30 3872 H 634.409 -0.608651 -7.04676 0
M  V30 3873 H 635.4 0.889796 -7.09039 0
M  V30 3874 H 633.566 0.433128 -9.04664 0
M  V30 3875 H 633.525 -1.89246 -5.57664 0
M  V30 3876 H 633.906 -2.71005 -0.804694 0
M  V30 3877 H 634.095 -1.63189 0.603768 0
M  V30 3878 H 634.203 2.53475 -0.997614 0
M  V30 3879 P 635.436 2.75334 -8.47391 0
M  V30 3880 O 635.656 3.84128 -9.44797 0
M  V30 3881 O 636.226 1.51947 -8.68712 0
M  V30 3882 O 635.686 3.29363 -6.99321 0
M  V30 3883 C 634.746 4.24011 -6.4274 0
M  V30 3884 C 635.476 5.20775 -5.52155 0
M  V30 3885 O 635.686 4.56534 -4.22446 0
M  V30 3886 C 636.876 5.62629 -5.96531 0
M  V30 3887 O 637.266 6.87667 -5.41053 0
M  V30 3888 C 637.756 4.52537 -5.39283 0
M  V30 3889 C 637.046 4.20027 -4.08623 0
M  V30 3890 N 637.096 2.76189 -3.71603 0
M  V30 3891 C 637.016 1.64862 -4.52822 0
M  V30 3892 N 637.096 0.512671 -3.88633 0
M  V30 3893 C 637.236 0.888083 -2.54977 0
M  V30 3894 C 637.366 0.094668 -1.38677 0
M  V30 3895 O 637.386 -1.13053 -1.28163 0
M  V30 3896 N 637.486 0.890102 -0.232633 0
M  V30 3897 C 637.486 2.26958 -0.21772 0
M  V30 3898 N 637.616 2.84626 0.97925 0
M  V30 3899 N 637.356 3.0178 -1.31033 0
M  V30 3900 C 637.236 2.26781 -2.43843 0
M  V30 3901 H 634.257 4.797 -7.24003 0
M  V30 3902 H 633.987 3.69856 -5.84513 0
M  V30 3903 H 634.854 6.10356 -5.41441 0
M  V30 3904 H 637.509 4.79061 -3.27488 0
M  V30 3905 H 637.788 3.64906 -6.05785 0
M  V30 3906 H 638.78 4.8868 -5.2125 0
M  V30 3907 H 636.946 5.66726 -7.06352 0
M  V30 3908 H 636.897 1.71169 -5.60966 0
M  V30 3909 H 637.579 0.419134 0.644739 0
M  V30 3910 H 637.616 3.87332 1.06098 0
M  V30 3911 H 637.717 2.26417 1.82483 0
M  V30 3912 P 638.816 7.20834 -5.23717 0
M  V30 3913 O 639.036 8.66274 -5.38678 0
M  V30 3914 O 639.606 6.33687 -6.13629 0
M  V30 3915 O 639.066 6.7751 -3.72168 0
M  V30 3916 C 638.126 7.20919 -2.70795 0
M  V30 3917 C 638.856 7.45864 -1.40599 0
M  V30 3918 O 639.066 6.17751 -0.734343 0
M  V30 3919 C 640.256 8.05906 -1.51917 0
M  V30 3920 O 640.646 8.74358 -0.335205 0
M  V30 3921 C 641.136 6.83093 -1.70294 0
M  V30 3922 C 640.426 5.79992 -0.836974 0
M  V30 3923 N 640.476 4.41864 -1.38293 0
M  V30 3924 C 640.396 4.02089 -2.69407 0
M  V30 3925 N 640.466 2.73403 -2.85089 0
M  V30 3926 C 640.616 2.25086 -1.5642 0
M  V30 3927 C 640.746 0.942887 -1.04836 0
M  V30 3928 N 640.756 -0.150999 -1.80369 0
M  V30 3929 N 640.866 0.812565 0.28167 0
M  V30 3930 C 640.856 1.90572 1.03784 0
M  V30 3931 N 640.736 3.167 0.683905 0
M  V30 3932 C 640.616 3.26538 -0.652815 0
M  V30 3933 H 637.638 8.13738 -3.03804 0
M  V30 3934 H 637.366 6.42974 -2.55559 0
M  V30 3935 H 638.234 8.12139 -0.792866 0
M  V30 3936 H 640.889 5.80178 0.160643 0
M  V30 3937 H 641.169 6.51379 -2.75643 0
M  V30 3938 H 642.16 7.01832 -1.3448 0
M  V30 3939 H 640.326 8.73771 -2.38364 0
M  V30 3940 H 640.285 4.7189 -3.52311 0
M  V30 3941 H 640.666 -0.0721434 -2.82608 0
M  V30 3942 H 640.855 -1.0785 -1.36544 0
M  V30 3943 H 640.963 1.73207 2.10241 0
M  V30 3944 P 642.196 8.91 4.32688e-12 0
M  V30 3945 O 642.416 10.1746 0.733838 0
M  V30 3946 O 642.986 8.73346 -1.23964 0
M  V30 3947 O 642.446 7.66872 0.971405 0
M  V30 3948 C 641.506 7.42405 2.04668 0
M  V30 3949 C 642.236 6.86059 3.24661 0
M  V30 3950 O 642.446 5.42934 3.03695 0
M  V30 3951 C 643.636 7.41287 3.50796 0
M  V30 3952 O 644.026 7.27073 4.86816 0
M  V30 3953 C 644.516 6.5273 2.63741 0
M  V30 3954 C 643.806 5.1842 2.73198 0
M  V30 3955 N 643.856 4.38762 1.4784 0
M  V30 3956 H 641.018 8.36899 2.3252 0
M  V30 3957 H 640.746 6.70391 1.71179 0
M  V30 3958 H 641.614 7.03638 4.13219 0
M  V30 3959 H 644.269 4.59931 3.54016 0
M  V30 3960 H 644.549 6.88995 1.59871 0
M  V30 3961 H 645.54 6.4684 3.0373 0
M  V30 3962 H 643.706 8.47002 3.20749 0
M  V30 3963 P 645.576 7.20834 5.23717 0
M  V30 3964 O 645.796 7.79853 6.57286 0
M  V30 3965 O 646.366 7.79239 4.12957 0
M  V30 3966 O 645.826 5.63315 5.29344 0
M  V30 3967 C 644.886 4.80255 6.01876 0
M  V30 3968 C 645.616 3.64202 6.65911 0
M  V30 3969 O 645.826 2.60694 5.64732 0
M  V30 3970 C 647.016 3.93473 7.1943 0
M  V30 3971 O 647.406 3.02071 8.21205 0
M  V30 3972 C 647.896 3.73047 5.97036 0
M  V30 3973 C 647.186 2.58828 5.25741 0
M  V30 3974 N 647.236 2.68068 3.77503 0
M  V30 3975 H 644.397 5.40332 6.79951 0
M  V30 3976 H 644.127 4.41613 5.32378 0
M  V30 3977 H 644.994 3.26331 7.47797 0
M  V30 3978 P 648.956 2.75334 8.47391 0
M  V30 3979 O 649.176 2.44571 9.90142 0
M  V30 3980 O 649.746 3.87688 7.92115 0
M  V30 3981 O 649.206 1.4459 7.59357 0
M  V30 3982 C 648.266 0.347608 7.69215 0
M  V30 3983 C 648.996 -0.96767 7.52806 0
M  V30 3984 O 649.206 -1.21036 6.1011 0
M  V30 3985 C 650.396 -1.04544 8.13308 0
M  V30 3986 O 650.786 -2.38311 8.41922 0
M  V30 3987 C 651.276 -0.491279 7.02284 0
M  V30 3988 C 650.566 -0.996264 5.77469 0
M  V30 3989 N 650.616 -0.0501916 4.62973 0
M  V30 3990 H 647.777 0.374722 8.67691 0
M  V30 3991 H 647.507 0.443485 6.90277 0
M  V30 3992 H 648.374 -1.75537 7.96793 0
M  V30 3993 P 652.336 -2.75334 8.47391 0
M  V30 3994 O 652.556 -3.84128 9.44797 0
M  V30 3995 O 653.126 -1.51947 8.68712 0
M  V30 3996 O 652.586 -3.29363 6.99321 0
M  V30 3997 C 651.646 -4.24011 6.4274 0
M  V30 3998 C 652.376 -5.20775 5.52155 0
M  V30 3999 O 652.586 -4.56534 4.22446 0
M  V30 4000 C 653.776 -5.62629 5.96531 0
M  V30 4001 O 654.166 -6.87667 5.41053 0
M  V30 4002 C 654.656 -4.52537 5.39283 0
M  V30 4003 C 653.946 -4.20027 4.08623 0
M  V30 4004 N 653.996 -2.76189 3.71603 0
M  V30 4005 C 653.916 -1.64862 4.52822 0
M  V30 4006 N 653.996 -0.512671 3.88633 0
M  V30 4007 C 654.136 -0.888083 2.54977 0
M  V30 4008 C 654.266 -0.094668 1.38677 0
M  V30 4009 O 654.286 1.13053 1.28163 0
M  V30 4010 N 654.386 -0.890102 0.232633 0
M  V30 4011 C 654.386 -2.26958 0.21772 0
M  V30 4012 N 654.516 -2.84626 -0.97925 0
M  V30 4013 N 654.256 -3.0178 1.31033 0
M  V30 4014 C 654.136 -2.26781 2.43843 0
M  V30 4015 H 651.157 -4.797 7.24003 0
M  V30 4016 H 650.887 -3.69856 5.84513 0
M  V30 4017 H 651.754 -6.10356 5.41441 0
M  V30 4018 H 654.409 -4.79061 3.27488 0
M  V30 4019 H 654.688 -3.64906 6.05785 0
M  V30 4020 H 655.68 -4.8868 5.2125 0
M  V30 4021 H 653.846 -5.66726 7.06352 0
M  V30 4022 H 653.797 -1.71169 5.60966 0
M  V30 4023 H 654.479 -0.419134 -0.644739 0
M  V30 4024 H 654.516 -3.87332 -1.06098 0
M  V30 4025 H 654.617 -2.26417 -1.82483 0
M  V30 4026 P 655.716 -7.20834 5.23717 0
M  V30 4027 O 655.936 -8.66274 5.38678 0
M  V30 4028 O 656.506 -6.33687 6.13629 0
M  V30 4029 O 655.966 -6.7751 3.72168 0
M  V30 4030 C 655.026 -7.20919 2.70795 0
M  V30 4031 C 655.756 -7.45864 1.40599 0
M  V30 4032 O 655.966 -6.17751 0.734343 0
M  V30 4033 C 657.156 -8.05906 1.51917 0
M  V30 4034 O 657.546 -8.74358 0.335205 0
M  V30 4035 C 658.036 -6.83093 1.70294 0
M  V30 4036 C 657.326 -5.79992 0.836974 0
M  V30 4037 N 657.376 -4.41864 1.38293 0
M  V30 4038 C 657.296 -4.02089 2.69407 0
M  V30 4039 N 657.366 -2.73403 2.85089 0
M  V30 4040 C 657.516 -2.25086 1.5642 0
M  V30 4041 C 657.646 -0.942887 1.04836 0
M  V30 4042 N 657.656 0.150999 1.80369 0
M  V30 4043 N 657.766 -0.812565 -0.28167 0
M  V30 4044 C 657.756 -1.90572 -1.03784 0
M  V30 4045 N 657.636 -3.167 -0.683905 0
M  V30 4046 C 657.516 -3.26538 0.652815 0
M  V30 4047 H 654.538 -8.13738 3.03804 0
M  V30 4048 H 654.266 -6.42974 2.55559 0
M  V30 4049 H 655.134 -8.12139 0.792866 0
M  V30 4050 H 657.789 -5.80178 -0.160643 0
M  V30 4051 H 658.069 -6.51379 2.75643 0
M  V30 4052 H 659.06 -7.01832 1.3448 0
M  V30 4053 H 657.226 -8.73771 2.38364 0
M  V30 4054 H 657.185 -4.7189 3.52311 0
M  V30 4055 H 657.566 0.0721434 2.82608 0
M  V30 4056 H 657.755 1.0785 1.36544 0
M  V30 4057 H 657.863 -1.73207 -2.10241 0
M  V30 4058 P 659.096 -8.91 -4.48406e-12 0
M  V30 4059 O 659.316 -10.1726 -0.733694 0
M  V30 4060 O 659.886 -8.73148 1.23936 0
M  V30 4061 O 659.346 -7.66872 -0.971405 0
M  V30 4062 C 658.406 -7.42309 -2.04641 0
M  V30 4063 C 659.136 -6.86059 -3.24661 0
M  V30 4064 O 659.346 -5.42847 -3.03646 0
M  V30 4065 C 660.536 -7.41196 -3.50753 0
M  V30 4066 O 660.926 -7.27073 -4.86816 0
M  V30 4067 C 661.416 -6.5273 -2.63741 0
M  V30 4068 C 660.706 -5.1842 -2.73198 0
M  V30 4069 N 660.756 -4.38762 -1.4784 0
M  V30 4070 C 660.676 -4.81605 -0.168631 0
M  V30 4071 N 660.756 -3.85454 0.713363 0
M  V30 4072 C 660.896 -2.6994 -0.0566958 0
M  V30 4073 C 661.026 -1.34815 0.338502 0
M  V30 4074 O 661.046 -0.869548 1.47125 0
M  V30 4075 N 661.146 -0.496304 -0.77465 0
M  V30 4076 C 661.146 -0.908403 -2.09122 0
M  V30 4077 N 661.276 0.0517805 -3.00955 0
M  V30 4078 N 661.016 -2.17875 -2.46519 0
M  V30 4079 C 660.896 -3.01988 -1.4033 0
M  V30 4080 H 657.917 -8.36803 -2.32493 0
M  V30 4081 H 657.647 -6.70197 -1.71129 0
M  V30 4082 H 658.514 -7.03551 -4.13168 0
M  V30 4083 H 661.169 -4.59498 -3.54415 0
M  V30 4084 H 661.448 -6.88898 -1.59848 0
M  V30 4085 H 662.44 -6.46749 -3.03687 0
M  V30 4086 H 660.606 -8.46908 -3.20714 0
M  V30 4087 H 660.557 -5.86405 0.105564 0
M  V30 4088 H 661.239 0.483664 -0.597855 0
M  V30 4089 H 661.276 -0.187865 -4.0116 0
M  V30 4090 H 661.377 1.03585 -2.71726 0
M  V30 4091 P 662.476 -7.20834 -5.23717 0
M  V30 4092 O 662.696 -7.80006 -6.57415 0
M  V30 4093 O 663.266 -7.79416 -4.13051 0
M  V30 4094 O 662.726 -5.63315 -5.29344 0
M  V30 4095 C 661.786 -4.80318 -6.01954 0
M  V30 4096 C 662.516 -3.64202 -6.65911 0
M  V30 4097 O 662.726 -2.60736 -5.64823 0
M  V30 4098 C 663.916 -3.93521 -7.19518 0
M  V30 4099 O 664.306 -3.02071 -8.21205 0
M  V30 4100 C 664.796 -3.73047 -5.97036 0
M  V30 4101 C 664.086 -2.58828 -5.25741 0
M  V30 4102 N 664.136 -2.68068 -3.77503 0
M  V30 4103 C 664.056 -3.80474 -2.99159 0
M  V30 4104 N 664.126 -3.55622 -1.71925 0
M  V30 4105 C 664.276 -2.1832 -1.65733 0
M  V30 4106 C 664.406 -1.28842 -0.572777 0
M  V30 4107 N 664.416 -1.66875 0.70098 0
M  V30 4108 N 664.526 0.016788 -0.859836 0
M  V30 4109 C 664.516 0.398145 -2.13316 0
M  V30 4110 N 664.396 -0.328224 -3.22333 0
M  V30 4111 C 664.276 -1.62992 -2.90383 0
M  V30 4112 H 661.298 -5.40394 -6.8003 0
M  V30 4113 H 661.026 -4.41741 -5.32532 0
M  V30 4114 H 661.894 -3.26371 -7.47889 0
M  V30 4115 H 664.549 -1.64007 -5.56746 0
M  V30 4116 H 664.829 -4.63439 -5.3432 0
M  V30 4117 H 665.82 -3.44776 -6.25925 0
M  V30 4118 H 663.986 -4.96707 -7.57347 0
M  V30 4119 H 663.945 -4.8089 -3.39924 0
M  V30 4120 H 664.326 -2.66547 0.941919 0
M  V30 4121 H 664.515 -0.965341 1.44766 0
M  V30 4122 H 664.623 1.46427 -2.29697 0
M  V30 4123 P 665.856 -2.75334 -8.47391 0
M  V30 4124 O 666.076 -2.44595 -9.90239 0
M  V30 4125 O 666.646 -3.87732 -7.92204 0
M  V30 4126 O 666.106 -1.4459 -7.59357 0
M  V30 4127 C 665.166 -0.347563 -7.69115 0
M  V30 4128 C 665.896 0.96767 -7.52806 0
M  V30 4129 O 666.106 1.21036 -6.1011 0
M  V30 4130 C 667.296 1.04544 -8.13308 0
M  V30 4131 O 667.686 2.38311 -8.41922 0
M  V30 4132 C 668.176 0.491279 -7.02284 0
M  V30 4133 C 667.466 0.996264 -5.77469 0
M  V30 4134 N 667.516 0.0501808 -4.62873 0
M  V30 4135 C 667.666 0.588177 -3.36904 0
M  V30 4136 O 667.756 1.78598 -3.17173 0
M  V30 4137 N 667.706 -0.329694 -2.33686 0
M  V30 4138 C 667.616 -1.6953 -2.45079 0
M  V30 4139 O 667.666 -2.41926 -1.44899 0
M  V30 4140 C 667.466 -2.16933 -3.80505 0
M  V30 4141 C 667.356 -3.65373 -3.97621 0
M  V30 4142 C 667.416 -1.30326 -4.83752 0
M  V30 4143 H 664.676 -0.374722 -8.67691 0
M  V30 4144 H 664.407 -0.443421 -6.90177 0
M  V30 4145 H 665.274 1.75537 -7.96793 0
M  V30 4146 H 667.929 1.94496 -5.46629 0
M  V30 4147 H 668.208 -0.608651 -7.04676 0
M  V30 4148 H 669.2 0.889672 -7.08939 0
M  V30 4149 H 667.366 0.43308 -9.04564 0
M  V30 4150 H 667.295 -1.68366 -5.8516 0
M  V30 4151 H 668.325 -4.05985 -4.30448 0
M  V30 4152 H 666.588 -3.88028 -4.72875 0
M  V30 4153 H 667.076 -4.11381 -3.01609 0
M  V30 4154 H 667.812 0.0393617 -1.41345 0
M  V30 4155 P 669.236 2.75334 -8.47391 0
M  V30 4156 O 669.456 3.84128 -9.44797 0
M  V30 4157 O 670.026 1.51947 -8.68712 0
M  V30 4158 O 669.486 3.29363 -6.99321 0
M  V30 4159 C 668.546 4.24011 -6.4274 0
M  V30 4160 C 669.276 5.20775 -5.52155 0
M  V30 4161 O 669.486 4.56534 -4.22446 0
M  V30 4162 C 670.676 5.62629 -5.96531 0
M  V30 4163 O 671.066 6.87667 -5.41053 0
M  V30 4164 C 671.556 4.52537 -5.39283 0
M  V30 4165 C 670.846 4.20027 -4.08623 0
M  V30 4166 N 670.896 2.76189 -3.71603 0
M  V30 4167 H 668.057 4.797 -7.24003 0
M  V30 4168 H 667.787 3.69856 -5.84513 0
M  V30 4169 H 668.654 6.10356 -5.41441 0
M  V30 4170 P 672.616 7.20834 -5.23717 0
M  V30 4171 O 672.836 8.66104 -5.38572 0
M  V30 4172 O 673.406 6.33544 -6.1349 0
M  V30 4173 O 672.866 6.7751 -3.72168 0
M  V30 4174 C 671.926 7.20825 -2.7076 0
M  V30 4175 C 672.656 7.45864 -1.40599 0
M  V30 4176 O 672.866 6.17651 -0.734225 0
M  V30 4177 C 674.056 8.05808 -1.51899 0
M  V30 4178 O 674.446 8.74358 -0.335205 0
M  V30 4179 C 674.936 6.83093 -1.70294 0
M  V30 4180 C 674.226 5.79992 -0.836974 0
M  V30 4181 N 674.276 4.41864 -1.38293 0
M  V30 4182 C 674.196 3.99538 -2.69438 0
M  V30 4183 N 674.276 2.69909 -2.84277 0
M  V30 4184 C 674.416 2.21719 -1.5408 0
M  V30 4185 C 674.546 0.891712 -1.06628 0
M  V30 4186 O 674.566 -0.161298 -1.70137 0
M  V30 4187 N 674.666 0.856846 0.334985 0
M  V30 4188 C 674.666 1.9641 1.15789 0
M  V30 4189 N 674.796 1.72708 2.46522 0
M  V30 4190 N 674.536 3.21165 0.713741 0
M  V30 4191 C 674.416 3.26797 -0.639748 0
M  V30 4192 H 671.437 8.13644 -3.0377 0
M  V30 4193 H 671.167 6.42788 -2.55485 0
M  V30 4194 H 672.034 8.12039 -0.792769 0
M  V30 4195 H 674.689 5.80061 0.166416 0
M  V30 4196 H 674.968 6.51287 -2.75604 0
M  V30 4197 H 675.96 7.01734 -1.34462 0
M  V30 4198 H 674.126 8.73674 -2.38337 0
M  V30 4199 H 674.077 4.68207 -3.53221 0
M  V30 4200 H 674.759 -0.0398818 0.767965 0
M  V30 4201 H 674.796 2.50995 3.13503 0
M  V30 4202 H 674.897 0.759148 2.80716 0
M  V30 4203 P 675.996 8.91 4.64125e-12 0
M  V30 4204 O 676.216 10.1726 0.733694 0
M  V30 4205 O 676.786 8.73148 -1.23936 0
M  V30 4206 O 676.246 7.66872 0.971405 0
M  V30 4207 C 675.306 7.42309 2.04641 0
M  V30 4208 C 676.036 6.86059 3.24661 0
M  V30 4209 O 676.246 5.42847 3.03646 0
M  V30 4210 C 677.436 7.41196 3.50753 0
M  V30 4211 O 677.826 7.27073 4.86816 0
M  V30 4212 C 678.316 6.5273 2.63741 0
M  V30 4213 C 677.606 5.1842 2.73198 0
M  V30 4214 N 677.656 4.38762 1.4784 0
M  V30 4215 H 674.817 8.36803 2.32493 0
M  V30 4216 H 674.547 6.70197 1.71129 0
M  V30 4217 H 675.414 7.03551 4.13168 0
M  V30 4218 P 679.376 7.20834 5.23717 0
M  V30 4219 O 679.596 7.79853 6.57286 0
M  V30 4220 O 680.166 7.79239 4.12957 0
M  V30 4221 O 679.626 5.63315 5.29344 0
M  V30 4222 C 678.686 4.80255 6.01876 0
M  V30 4223 C 679.416 3.64202 6.65911 0
M  V30 4224 O 679.626 2.60694 5.64732 0
M  V30 4225 C 680.816 3.93473 7.1943 0
M  V30 4226 O 681.206 3.02071 8.21205 0
M  V30 4227 C 681.696 3.73047 5.97036 0
M  V30 4228 C 680.986 2.58828 5.25741 0
M  V30 4229 N 681.036 2.68068 3.77503 0
M  V30 4230 H 678.197 5.40332 6.79951 0
M  V30 4231 H 677.927 4.41613 5.32378 0
M  V30 4232 H 678.794 3.26331 7.47797 0
M  V30 4233 P 682.756 2.75334 8.47391 0
M  V30 4234 O 682.976 2.44571 9.90142 0
M  V30 4235 O 683.546 3.87688 7.92115 0
M  V30 4236 O 683.006 1.4459 7.59357 0
M  V30 4237 C 682.066 0.347608 7.69215 0
M  V30 4238 C 682.796 -0.96767 7.52806 0
M  V30 4239 O 683.006 -1.21036 6.1011 0
M  V30 4240 C 684.196 -1.04544 8.13308 0
M  V30 4241 O 684.586 -2.38311 8.41922 0
M  V30 4242 C 685.076 -0.491279 7.02284 0
M  V30 4243 C 684.366 -0.996264 5.77469 0
M  V30 4244 N 684.416 -0.0501916 4.62973 0
M  V30 4245 H 681.577 0.374722 8.67691 0
M  V30 4246 H 681.307 0.443485 6.90277 0
M  V30 4247 H 682.174 -1.75537 7.96793 0
M  V30 4248 P 686.136 -2.75334 8.47391 0
M  V30 4249 O 686.356 -3.84204 9.44982 0
M  V30 4250 O 686.926 -1.51982 8.68909 0
M  V30 4251 O 686.386 -3.29363 6.99321 0
M  V30 4252 C 685.446 -4.24066 6.42823 0
M  V30 4253 C 686.176 -5.20775 5.52155 0
M  V30 4254 O 686.386 -4.56607 4.22514 0
M  V30 4255 C 687.576 -5.62697 5.96604 0
M  V30 4256 O 687.966 -6.87667 5.41053 0
M  V30 4257 C 688.456 -4.52537 5.39283 0
M  V30 4258 C 687.746 -4.20027 4.08623 0
M  V30 4259 N 687.796 -2.76189 3.71603 0
M  V30 4260 C 687.716 -1.66944 4.54297 0
M  V30 4261 N 687.786 -0.536169 3.91344 0
M  V30 4262 C 687.936 -0.901569 2.58849 0
M  V30 4263 C 688.066 -0.146599 1.40236 0
M  V30 4264 N 688.076 1.18234 1.37046 0
M  V30 4265 N 688.186 -0.822941 0.249738 0
M  V30 4266 C 688.176 -2.15179 0.280525 0
M  V30 4267 N 688.056 -2.96414 1.30822 0
M  V30 4268 C 687.936 -2.25804 2.44748 0
M  V30 4269 H 684.958 -4.79756 7.24086 0
M  V30 4270 H 684.686 -3.69963 5.84682 0
M  V30 4271 H 685.554 -6.10431 5.41508 0
M  V30 4272 H 688.209 -4.78816 3.28024 0
M  V30 4273 H 688.489 -3.64957 6.05871 0
M  V30 4274 H 689.48 -4.88748 5.21323 0
M  V30 4275 H 687.646 -5.66789 7.0643 0
M  V30 4276 H 687.605 -1.74684 5.62396 0
M  V30 4277 H 687.986 1.71949 2.24394 0
M  V30 4278 H 688.175 1.67511 0.470742 0
M  V30 4279 H 688.283 -2.63704 -0.6828 0
M  V30 4280 P 689.516 -7.20834 5.23717 0
M  V30 4281 O 689.736 -8.66104 5.38572 0
M  V30 4282 O 690.306 -6.33544 6.1349 0
M  V30 4283 O 689.766 -6.7751 3.72168 0
M  V30 4284 C 688.826 -7.20825 2.7076 0
M  V30 4285 C 689.556 -7.45864 1.40599 0
M  V30 4286 O 689.766 -6.17651 0.734225 0
M  V30 4287 C 690.956 -8.05808 1.51899 0
M  V30 4288 O 691.346 -8.74358 0.335205 0
M  V30 4289 C 691.836 -6.83093 1.70294 0
M  V30 4290 C 691.126 -5.79992 0.836974 0
M  V30 4291 N 691.176 -4.41864 1.38293 0
M  V30 4292 C 691.096 -3.99538 2.69438 0
M  V30 4293 N 691.176 -2.69909 2.84277 0
M  V30 4294 C 691.316 -2.21719 1.5408 0
M  V30 4295 C 691.446 -0.891712 1.06628 0
M  V30 4296 O 691.466 0.161298 1.70137 0
M  V30 4297 N 691.566 -0.856846 -0.334985 0
M  V30 4298 C 691.566 -1.9641 -1.15789 0
M  V30 4299 N 691.696 -1.72708 -2.46522 0
M  V30 4300 N 691.436 -3.21165 -0.713741 0
M  V30 4301 C 691.316 -3.26797 0.639748 0
M  V30 4302 H 688.337 -8.13644 3.0377 0
M  V30 4303 H 688.067 -6.42788 2.55485 0
M  V30 4304 H 688.934 -8.12039 0.792769 0
M  V30 4305 H 691.589 -5.80061 -0.166416 0
M  V30 4306 H 691.868 -6.51287 2.75604 0
M  V30 4307 H 692.86 -7.01734 1.34462 0
M  V30 4308 H 691.026 -8.73674 2.38337 0
M  V30 4309 H 690.977 -4.68207 3.53221 0
M  V30 4310 H 691.659 0.0398818 -0.767965 0
M  V30 4311 H 691.696 -2.50995 -3.13503 0
M  V30 4312 H 691.797 -0.759148 -2.80716 0
M  V30 4313 P 692.896 -8.91 -4.67181e-12 0
M  V30 4314 O 693.116 -10.1726 -0.733694 0
M  V30 4315 O 693.686 -8.73148 1.23936 0
M  V30 4316 O 693.146 -7.66872 -0.971405 0
M  V30 4317 C 692.206 -7.42309 -2.04641 0
M  V30 4318 C 692.936 -6.86059 -3.24661 0
M  V30 4319 O 693.146 -5.42847 -3.03646 0
M  V30 4320 C 694.336 -7.41196 -3.50753 0
M  V30 4321 O 694.726 -7.27073 -4.86816 0
M  V30 4322 C 695.216 -6.5273 -2.63741 0
M  V30 4323 C 694.506 -5.1842 -2.73198 0
M  V30 4324 N 694.556 -4.38762 -1.4784 0
M  V30 4325 C 694.476 -4.81605 -0.168631 0
M  V30 4326 N 694.556 -3.85454 0.713363 0
M  V30 4327 C 694.696 -2.6994 -0.0566958 0
M  V30 4328 C 694.826 -1.34815 0.338502 0
M  V30 4329 N 694.946 -0.496304 -0.77465 0
M  V30 4330 C 694.946 -0.908403 -2.09122 0
M  V30 4331 N 695.076 0.0517805 -3.00955 0
M  V30 4332 N 694.816 -2.17875 -2.46519 0
M  V30 4333 C 694.696 -3.01988 -1.4033 0
M  V30 4334 H 691.717 -8.36803 -2.32493 0
M  V30 4335 H 691.447 -6.70197 -1.71129 0
M  V30 4336 H 692.314 -7.03551 -4.13168 0
M  V30 4337 P 696.276 -7.20834 -5.23717 0
M  V30 4338 O 696.496 -7.79853 -6.57286 0
M  V30 4339 O 697.066 -7.79239 -4.12957 0
M  V30 4340 O 696.526 -5.63315 -5.29344 0
M  V30 4341 C 695.586 -4.80255 -6.01876 0
M  V30 4342 C 696.316 -3.64202 -6.65911 0
M  V30 4343 O 696.526 -2.60694 -5.64732 0
M  V30 4344 C 697.716 -3.93473 -7.1943 0
M  V30 4345 O 698.106 -3.02071 -8.21205 0
M  V30 4346 C 698.596 -3.73047 -5.97036 0
M  V30 4347 C 697.886 -2.58828 -5.25741 0
M  V30 4348 N 697.936 -2.68068 -3.77503 0
M  V30 4349 H 695.097 -5.40332 -6.79951 0
M  V30 4350 H 694.827 -4.41613 -5.32378 0
M  V30 4351 H 695.694 -3.26331 -7.47797 0
M  V30 4352 H 697.975 -2.12276 -7.9008 0
M  V30 4353 H 701.997 5.66378 7.64073 0
M  V30 4354 O 701.877 5.84357 6.71818 0
M  V30 4355 P 700.436 6.144 6.45285 0
M  V30 4356 O 700.216 7.54673 6.86199 0
M  V30 4357 O 699.646 5.12391 7.179 0
M  V30 4358 O 700.186 5.99158 4.88404 0
M  V30 4359 C 701.126 6.60234 3.96415 0
M  V30 4360 C 700.396 7.08259 2.72856 0
M  V30 4361 O 700.186 5.9427 1.83651 0
M  V30 4362 C 698.996 7.64886 2.9555 0
M  V30 4363 O 698.606 8.53963 1.90717 0
M  V30 4364 C 698.116 6.4116 2.90739 0
M  V30 4365 C 698.826 5.55375 1.86963 0
M  V30 4366 N 698.776 4.09664 2.15742 0
M  V30 4367 H 701.615 7.45574 4.45629 0
M  V30 4368 H 701.887 5.86232 3.67314 0
M  V30 4369 H 701.019 7.84412 2.24479 0
M  V30 4370 P 697.056 8.7635 1.60911 0
M  V30 4371 O 696.836 10.1388 1.11561 0
M  V30 4372 O 696.266 8.36503 2.79617 0
M  V30 4373 O 696.806 7.71806 0.42951 0
M  V30 4374 C 697.746 7.66948 -0.673514 0
M  V30 4375 C 697.016 7.33374 -1.95559 0
M  V30 4376 O 696.806 5.88721 -2.00726 0
M  V30 4377 C 695.616 7.92218 -2.1125 0
M  V30 4378 O 695.226 8.02971 -3.47653 0
M  V30 4379 C 694.736 6.89504 -1.41631 0
M  V30 4380 C 695.446 5.59106 -1.75155 0
M  V30 4381 N 695.396 4.58136 -0.662409 0
M  V30 4382 C 695.246 3.26059 -1.02863 0
M  V30 4383 O 695.156 2.90743 -2.19009 0
M  V30 4384 N 695.206 2.35995 0.0155585 0
M  V30 4385 C 695.296 2.65248 1.35603 0
M  V30 4386 C 695.446 4.05747 1.64698 0
M  V30 4387 C 695.496 4.96734 0.652411 0
M  V30 4388 H 698.237 8.64917 -0.776982 0
M  V30 4389 H 698.506 6.89974 -0.474015 0
M  V30 4390 H 697.639 7.66548 -2.79458 0
M  V30 4391 H 694.984 5.16076 -2.65138 0
M  V30 4392 H 694.705 7.06433 -0.329384 0
M  V30 4393 H 693.713 6.90829 -1.81996 0
M  V30 4394 H 695.547 8.90774 -1.62639 0
M  V30 4395 H 695.618 6.02181 0.895285 0
M  V30 4396 P 693.676 8.03563 -3.84925 0
M  V30 4397 O 693.456 8.85821 -5.0569 0
M  V30 4398 O 692.886 8.41101 -2.65469 0
M  V30 4399 O 693.426 6.49734 -4.18962 0
M  V30 4400 C 694.366 5.81037 -5.05421 0
M  V30 4401 C 693.636 4.79018 -5.88876 0
M  V30 4402 O 693.426 3.58359 -5.08515 0
M  V30 4403 C 692.236 5.17448 -6.36119 0
M  V30 4404 O 691.846 4.45322 -7.53318 0
M  V30 4405 C 691.356 4.74639 -5.19936 0
M  V30 4406 C 692.066 3.49432 -4.70418 0
M  V30 4407 N 692.016 3.31776 -3.22945 0
M  V30 4408 C 691.866 2.02742 -2.72939 0
M  V30 4409 O 691.776 1.08301 -3.52749 0
M  V30 4410 N 691.816 1.96117 -1.22063 0
M  V30 4411 C 691.916 2.8878 -0.551566 0
M  V30 4412 N 691.866 2.65609 0.750198 0
M  V30 4413 C 692.066 4.22457 -1.03707 0
M  V30 4414 C 692.116 4.37979 -2.39113 0
M  V30 4415 H 694.856 6.54138 -5.7131 0
M  V30 4416 H 695.126 5.30492 -4.44033 0
M  V30 4417 H 694.259 4.55945 -6.76735 0
M  V30 4418 H 691.604 2.6176 -5.18021 0
M  V30 4419 H 691.324 5.52233 -4.41941 0
M  V30 4420 H 690.333 4.52045 -5.53452 0
M  V30 4421 H 692.167 6.25124 -6.55234 0
M  V30 4422 H 692.239 5.37936 -2.80552 0
M  V30 4423 H 692.137 5.07528 -0.359553 0
M  V30 4424 H 691.749 1.69403 1.09847 0
M  V30 4425 H 691.945 3.43701 1.41792 0
M  V30 4426 P 690.296 4.23843 -7.83734 0
M  V30 4427 O 690.076 4.19407 -9.29784 0
M  V30 4428 O 689.506 5.24426 -7.09156 0
M  V30 4429 O 690.046 2.7935 -7.20758 0
M  V30 4430 C 690.986 1.72945 -7.50224 0
M  V30 4431 C 690.256 0.406376 -7.57911 0
M  V30 4432 O 690.046 -0.0897726 -6.21935 0
M  V30 4433 C 688.856 0.438983 -8.18724 0
M  V30 4434 O 688.466 -0.825065 -8.71101 0
M  V30 4435 C 687.976 0.783689 -6.99524 0
M  V30 4436 C 688.686 0.0619086 -5.85867 0
M  V30 4437 N 688.636 0.78573 -4.56183 0
M  V30 4438 C 688.486 0.0292889 -3.41887 0
M  V30 4439 O 688.396 -1.18445 -3.4419 0
M  V30 4440 N 688.446 0.744061 -2.23964 0
M  V30 4441 C 688.536 2.10932 -2.10362 0
M  V30 4442 O 688.486 2.64117 -0.98825 0
M  V30 4443 C 688.686 2.8202 -3.34994 0
M  V30 4444 C 688.796 4.31095 -3.25037 0
M  V30 4445 C 688.736 2.15547 -4.52261 0
M  V30 4446 H 691.477 1.93379 -8.46595 0
M  V30 4447 H 691.746 1.68132 -6.70852 0
M  V30 4448 H 690.879 -0.289041 -8.15388 0
M  V30 4449 H 688.224 -0.926847 -5.72749 0
M  V30 4450 H 687.945 1.86973 -6.82036 0
M  V30 4451 H 686.953 0.403896 -7.13257 0
M  V30 4452 H 688.787 1.20585 -8.97435 0
M  V30 4453 H 688.858 2.71231 -5.45042 0
M  V30 4454 H 687.828 4.76966 -3.49992 0
M  V30 4455 H 689.565 4.67047 -3.95024 0
M  V30 4456 H 689.077 4.58996 -2.22312 0
M  V30 4457 H 688.341 0.214893 -1.39758 0
M  V30 4458 P 686.916 -1.17771 -8.83182 0
M  V30 4459 O 686.696 -2.07206 -9.98732 0
M  V30 4460 O 686.126 0.0743816 -8.81969 0
M  V30 4461 O 686.666 -1.97652 -7.47304 0
M  V30 4462 C 687.606 -3.01133 -7.08783 0
M  V30 4463 C 686.876 -4.12613 -6.37049 0
M  V30 4464 O 686.666 -3.72827 -4.97879 0
M  V30 4465 C 685.476 -4.45085 -6.88694 0
M  V30 4466 O 685.086 -5.7877 -6.5624 0
M  V30 4467 C 684.596 -3.47817 -6.12078 0
M  V30 4468 C 685.306 -3.39414 -4.77697 0
M  V30 4469 N 685.256 -2.04615 -4.15333 0
M  V30 4470 H 688.095 -3.41248 -7.98759 0
M  V30 4471 H 688.367 -2.5837 -6.41742 0
M  V30 4472 H 687.499 -5.02657 -6.42673 0
M  V30 4473 P 683.536 -6.144 -6.45285 0
M  V30 4474 O 683.316 -7.54673 -6.86199 0
M  V30 4475 O 682.746 -5.12391 -7.179 0
M  V30 4476 O 683.286 -5.99158 -4.88404 0
M  V30 4477 C 684.226 -6.60234 -3.96415 0
M  V30 4478 C 683.496 -7.08259 -2.72856 0
M  V30 4479 O 683.286 -5.9427 -1.83651 0
M  V30 4480 C 682.096 -7.64886 -2.9555 0
M  V30 4481 O 681.706 -8.53963 -1.90717 0
M  V30 4482 C 681.216 -6.4116 -2.90739 0
M  V30 4483 C 681.926 -5.55375 -1.86963 0
M  V30 4484 N 681.876 -4.09664 -2.15742 0
M  V30 4485 H 684.715 -7.45574 -4.45629 0
M  V30 4486 H 684.987 -5.86232 -3.67314 0
M  V30 4487 H 684.119 -7.84412 -2.24479 0
M  V30 4488 P 680.156 -8.7635 -1.60911 0
M  V30 4489 O 679.936 -10.1388 -1.11561 0
M  V30 4490 O 679.366 -8.36503 -2.79617 0
M  V30 4491 O 679.906 -7.71806 -0.42951 0
M  V30 4492 C 680.846 -7.67148 0.673689 0
M  V30 4493 C 680.116 -7.33374 1.95559 0
M  V30 4494 O 679.906 -5.88721 2.00726 0
M  V30 4495 C 678.716 -7.92526 2.10483 0
M  V30 4496 O 678.326 -8.02971 3.47653 0
M  V30 4497 C 677.836 -6.89602 1.41652 0
M  V30 4498 C 678.546 -5.59201 1.75185 0
M  V30 4499 N 678.496 -4.58301 0.657969 0
M  V30 4500 H 681.335 -8.65116 0.777161 0
M  V30 4501 H 681.607 -6.9022 0.46725 0
M  V30 4502 H 680.739 -7.66548 2.79458 0
M  V30 4503 H 678.084 -5.16165 2.65183 0
M  V30 4504 H 677.804 -7.06433 0.329384 0
M  V30 4505 H 676.813 -6.90926 1.82021 0
M  V30 4506 H 678.647 -8.90873 1.62657 0
M  V30 4507 P 676.776 -8.03563 3.84925 0
M  V30 4508 O 676.556 -8.85821 5.0569 0
M  V30 4509 O 675.986 -8.41101 2.65469 0
M  V30 4510 O 676.526 -6.49734 4.18962 0
M  V30 4511 C 677.466 -5.81037 5.05421 0
M  V30 4512 C 676.736 -4.79018 5.88876 0
M  V30 4513 O 676.526 -3.58359 5.08515 0
M  V30 4514 C 675.336 -5.17448 6.36119 0
M  V30 4515 O 674.946 -4.45322 7.53318 0
M  V30 4516 C 674.456 -4.74639 5.19936 0
M  V30 4517 C 675.166 -3.49432 4.70418 0
M  V30 4518 N 675.116 -3.31776 3.22945 0
M  V30 4519 C 674.966 -2.02742 2.72939 0
M  V30 4520 O 674.876 -1.08301 3.52749 0
M  V30 4521 N 674.916 -1.96117 1.22063 0
M  V30 4522 C 675.016 -2.8878 0.551566 0
M  V30 4523 N 674.966 -2.65609 -0.750198 0
M  V30 4524 C 675.166 -4.22457 1.03707 0
M  V30 4525 C 675.216 -4.37979 2.39113 0
M  V30 4526 H 677.956 -6.54138 5.7131 0
M  V30 4527 H 678.226 -5.30492 4.44033 0
M  V30 4528 H 677.359 -4.55945 6.76735 0
M  V30 4529 H 674.704 -2.6176 5.18021 0
M  V30 4530 H 674.424 -5.52233 4.41941 0
M  V30 4531 H 673.433 -4.52045 5.53452 0
M  V30 4532 H 675.267 -6.25124 6.55234 0
M  V30 4533 H 675.339 -5.37936 2.80552 0
M  V30 4534 H 675.237 -5.07528 0.359553 0
M  V30 4535 H 674.849 -1.69403 -1.09847 0
M  V30 4536 H 675.045 -3.43701 -1.41792 0
M  V30 4537 P 673.396 -4.23843 7.83734 0
M  V30 4538 O 673.176 -4.19407 9.29784 0
M  V30 4539 O 672.606 -5.24426 7.09156 0
M  V30 4540 O 673.146 -2.7935 7.20758 0
M  V30 4541 C 674.086 -1.7299 7.50419 0
M  V30 4542 C 673.356 -0.406376 7.57911 0
M  V30 4543 O 673.146 0.0897726 6.21935 0
M  V30 4544 C 671.956 -0.447224 8.1878 0
M  V30 4545 O 671.566 0.825065 8.71101 0
M  V30 4546 C 671.076 -0.783801 6.99623 0
M  V30 4547 C 671.786 -0.0619192 5.85967 0
M  V30 4548 N 671.736 -0.790462 4.56202 0
M  V30 4549 H 674.575 -1.93423 8.4679 0
M  V30 4550 H 674.847 -1.68852 6.70877 0
M  V30 4551 H 673.979 0.289041 8.15388 0
M  V30 4552 H 671.324 0.927006 5.72848 0
M  V30 4553 H 671.044 -1.86973 6.82036 0
M  V30 4554 H 670.053 -0.403953 7.13357 0
M  V30 4555 H 671.887 -1.20599 8.97534 0
M  V30 4556 P 670.016 1.17771 8.83182 0
M  V30 4557 O 669.796 2.07206 9.98732 0
M  V30 4558 O 669.226 -0.0743816 8.81969 0
M  V30 4559 O 669.766 1.97652 7.47304 0
M  V30 4560 C 670.706 3.01133 7.08783 0
M  V30 4561 C 669.976 4.12613 6.37049 0
M  V30 4562 O 669.766 3.72827 4.97879 0
M  V30 4563 C 668.576 4.45085 6.88694 0
M  V30 4564 O 668.186 5.7877 6.5624 0
M  V30 4565 C 667.696 3.47817 6.12078 0
M  V30 4566 C 668.406 3.39414 4.77697 0
M  V30 4567 N 668.356 2.04199 4.15538 0
M  V30 4568 C 668.436 0.821545 4.76977 0
M  V30 4569 N 668.366 -0.1794 3.94592 0
M  V30 4570 C 668.216 0.419121 2.70776 0
M  V30 4571 C 668.086 -0.109072 1.40577 0
M  V30 4572 N 668.076 -1.4104 1.1344 0
M  V30 4573 N 667.966 0.764381 0.39411 0
M  V30 4574 C 667.976 2.06587 0.664135 0
M  V30 4575 N 668.096 2.67948 1.82153 0
M  V30 4576 C 668.216 1.77942 2.8147 0
M  V30 4577 H 671.195 3.41248 7.98759 0
M  V30 4578 H 671.467 2.57728 6.42 0
M  V30 4579 H 670.599 5.02657 6.42673 0
M  V30 4580 H 667.944 4.11708 4.08956 0
M  V30 4581 H 667.664 2.49626 6.61679 0
M  V30 4582 H 666.673 3.8662 6.00862 0
M  V30 4583 H 668.507 4.29991 7.97006 0
M  V30 4584 H 668.548 0.702451 5.84696 0
M  V30 4585 H 668.167 -2.09647 1.89651 0
M  V30 4586 H 667.978 -1.73358 0.160575 0
M  V30 4587 H 667.87 2.71695 -0.195838 0
M  V30 4588 P 666.636 6.144 6.45285 0
M  V30 4589 O 666.416 7.54673 6.86199 0
M  V30 4590 O 665.846 5.12391 7.179 0
M  V30 4591 O 666.386 5.99158 4.88404 0
M  V30 4592 C 667.326 6.60062 3.96313 0
M  V30 4593 C 666.596 7.08259 2.72856 0
M  V30 4594 O 666.386 5.9427 1.83651 0
M  V30 4595 C 665.196 7.65087 2.94749 0
M  V30 4596 O 664.806 8.53963 1.90717 0
M  V30 4597 C 664.316 6.41069 2.90698 0
M  V30 4598 C 665.026 5.5528 1.86931 0
M  V30 4599 N 664.976 4.09575 2.15696 0
M  V30 4600 C 664.826 3.24249 1.08435 0
M  V30 4601 O 664.736 3.63946 -0.0628747 0
M  V30 4602 N 664.786 1.90009 1.39973 0
M  V30 4603 C 664.876 1.34884 2.65614 0
M  V30 4604 O 664.826 0.123716 2.81728 0
M  V30 4605 C 665.026 2.3145 3.71736 0
M  V30 4606 C 665.136 1.75913 5.10438 0
M  V30 4607 C 665.076 3.63518 3.44754 0
M  V30 4608 H 667.817 7.45402 4.45526 0
M  V30 4609 H 668.086 5.86062 3.67208 0
M  V30 4610 H 667.219 7.84412 2.24479 0
M  V30 4611 H 664.564 5.73358 0.888409 0
M  V30 4612 H 664.285 5.90877 3.88583 0
M  V30 4613 H 663.293 6.65867 2.58821 0
M  V30 4614 H 665.127 8.16248 3.92006 0
M  V30 4615 H 665.198 4.34551 4.26383 0
M  V30 4616 H 664.168 1.85471 5.61775 0
M  V30 4617 H 665.905 2.31364 5.66257 0
M  V30 4618 H 665.417 0.695936 5.05229 0
M  V30 4619 H 664.681 1.26277 0.63625 0
M  V30 4620 P 663.256 8.7635 1.60911 0
M  V30 4621 O 663.036 10.1388 1.11561 0
M  V30 4622 O 662.466 8.36503 2.79617 0
M  V30 4623 O 663.006 7.71906 0.429565 0
M  V30 4624 C 663.946 7.67148 -0.673689 0
M  V30 4625 C 663.216 7.33666 -1.94851 0
M  V30 4626 O 663.006 5.88816 -2.00759 0
M  V30 4627 C 661.816 7.92526 -2.10483 0
M  V30 4628 O 661.426 8.03063 -3.47693 0
M  V30 4629 C 660.936 6.89602 -1.41652 0
M  V30 4630 C 661.646 5.59201 -1.75185 0
M  V30 4631 N 661.596 4.58235 -0.662552 0
M  V30 4632 C 661.446 3.24451 -1.01643 0
M  V30 4633 O 661.356 2.94958 -2.21722 0
M  V30 4634 N 661.396 2.30408 0.165238 0
M  V30 4635 C 661.496 2.66048 1.25118 0
M  V30 4636 N 661.446 1.70787 2.16813 0
M  V30 4637 C 661.646 4.02732 1.64413 0
M  V30 4638 C 661.696 4.9488 0.63991 0
M  V30 4639 H 664.436 8.65017 -0.777072 0
M  V30 4640 H 664.706 6.90173 -0.474152 0
M  V30 4641 H 663.839 7.66642 -2.79492 0
M  V30 4642 H 661.184 5.16254 -2.65229 0
M  V30 4643 H 660.904 7.06532 -0.329431 0
M  V30 4644 H 659.913 6.91023 -1.82047 0
M  V30 4645 H 661.747 8.90873 -1.62657 0
M  V30 4646 H 661.819 6.00104 0.892197 0
M  V30 4647 H 661.717 4.31733 2.69229 0
M  V30 4648 H 661.329 0.724835 1.8844 0
M  V30 4649 H 661.525 1.94716 3.16734 0
M  V30 4650 P 659.876 8.03563 -3.84925 0
M  V30 4651 O 659.656 8.85821 -5.0569 0
M  V30 4652 O 659.086 8.41101 -2.65469 0
M  V30 4653 O 659.626 6.4965 -4.18908 0
M  V30 4654 C 660.566 5.80886 -5.05289 0
M  V30 4655 C 659.836 4.78366 -5.89277 0
M  V30 4656 O 659.626 3.58302 -5.08433 0
M  V30 4657 C 658.436 5.16748 -6.36559 0
M  V30 4658 O 658.046 4.45271 -7.53232 0
M  V30 4659 C 657.556 4.74572 -5.19863 0
M  V30 4660 C 658.266 3.49373 -4.70338 0
M  V30 4661 N 658.216 3.31704 -3.22876 0
M  V30 4662 C 658.066 2.03326 -2.74871 0
M  V30 4663 O 657.976 1.06486 -3.48076 0
M  V30 4664 N 658.026 1.91838 -1.37456 0
M  V30 4665 C 658.116 2.94295 -0.462035 0
M  V30 4666 O 658.066 2.71763 0.752928 0
M  V30 4667 C 658.266 4.25064 -1.05249 0
M  V30 4668 C 658.376 5.39815 -0.095697 0
M  V30 4669 C 658.316 4.40214 -2.39192 0
M  V30 4670 H 661.057 6.54063 -5.71245 0
M  V30 4671 H 661.326 5.30339 -4.43905 0
M  V30 4672 H 660.459 4.55889 -6.76652 0
M  V30 4673 H 657.804 2.6167 -5.17842 0
M  V30 4674 H 657.525 5.52155 -4.41878 0
M  V30 4675 H 656.533 4.51918 -5.53297 0
M  V30 4676 H 658.367 6.25055 -6.55162 0
M  V30 4677 H 658.438 5.39798 -2.81523 0
M  V30 4678 H 657.408 5.91593 -0.0279582 0
M  V30 4679 H 659.145 6.10038 -0.450573 0
M  V30 4680 H 658.657 5.02007 0.89937 0
M  V30 4681 H 657.921 0.995326 -1.00435 0
M  V30 4682 P 656.496 4.23843 -7.83734 0
M  V30 4683 O 656.276 4.19407 -9.29784 0
M  V30 4684 O 655.706 5.24426 -7.09156 0
M  V30 4685 O 656.246 2.79386 -7.20852 0
M  V30 4686 C 657.186 1.7299 -7.50419 0
M  V30 4687 C 656.456 0.41401 -7.5797 0
M  V30 4688 O 656.246 -0.089787 -6.22035 0
M  V30 4689 C 655.056 0.447224 -8.1878 0
M  V30 4690 O 654.666 -0.825159 -8.71201 0
M  V30 4691 C 654.176 0.783801 -6.99623 0
M  V30 4692 C 654.886 0.0619192 -5.85967 0
M  V30 4693 N 654.836 0.7859 -4.56281 0
M  V30 4694 C 654.686 0.0359258 -3.39981 0
M  V30 4695 O 654.596 -1.19723 -3.49038 0
M  V30 4696 N 654.636 0.869151 -2.14025 0
M  V30 4697 C 654.736 2.01207 -2.14363 0
M  V30 4698 N 654.686 2.58978 -0.954287 0
M  V30 4699 C 654.886 2.80817 -3.32215 0
M  V30 4700 C 654.936 2.13785 -4.50884 0
M  V30 4701 H 657.676 1.93401 -8.46693 0
M  V30 4702 H 657.946 1.68181 -6.71046 0
M  V30 4703 H 657.079 -0.289076 -8.15488 0
M  V30 4704 H 654.424 -0.927166 -5.72947 0
M  V30 4705 H 654.144 1.87 -6.82132 0
M  V30 4706 H 653.153 0.404009 -7.13457 0
M  V30 4707 H 654.987 1.20599 -8.97534 0
M  V30 4708 H 655.059 2.70295 -5.43162 0
M  V30 4709 H 654.957 3.89465 -3.27406 0
M  V30 4710 H 654.569 2.01616 -0.107046 0
M  V30 4711 H 654.765 3.61403 -0.873101 0
M  V30 4712 P 653.116 -1.17771 -8.83182 0
M  V30 4713 O 652.896 -2.07206 -9.98732 0
M  V30 4714 O 652.326 0.0743816 -8.81969 0
M  V30 4715 O 652.866 -1.97652 -7.47304 0
M  V30 4716 C 653.806 -3.01133 -7.08783 0
M  V30 4717 C 653.076 -4.12613 -6.37049 0
M  V30 4718 O 652.866 -3.72827 -4.97879 0
M  V30 4719 C 651.676 -4.45085 -6.88694 0
M  V30 4720 O 651.286 -5.7877 -6.5624 0
M  V30 4721 C 650.796 -3.47817 -6.12078 0
M  V30 4722 C 651.506 -3.39414 -4.77697 0
M  V30 4723 N 651.456 -2.04199 -4.15538 0
M  V30 4724 H 654.295 -3.41248 -7.98759 0
M  V30 4725 H 654.567 -2.57728 -6.42 0
M  V30 4726 H 653.699 -5.02657 -6.42673 0
M  V30 4727 H 651.044 -4.11708 -4.08956 0
M  V30 4728 H 650.764 -2.49626 -6.61679 0
M  V30 4729 H 649.773 -3.8662 -6.00862 0
M  V30 4730 H 651.607 -4.29991 -7.97006 0
M  V30 4731 P 649.736 -6.144 -6.45285 0
M  V30 4732 O 649.516 -7.54673 -6.86199 0
M  V30 4733 O 648.946 -5.12391 -7.179 0
M  V30 4734 O 649.486 -5.99158 -4.88404 0
M  V30 4735 C 650.426 -6.60234 -3.96415 0
M  V30 4736 C 649.696 -7.08259 -2.72856 0
M  V30 4737 O 649.486 -5.9427 -1.83651 0
M  V30 4738 C 648.296 -7.64886 -2.9555 0
M  V30 4739 O 647.906 -8.53963 -1.90717 0
M  V30 4740 C 647.416 -6.4116 -2.90739 0
M  V30 4741 C 648.126 -5.55375 -1.86963 0
M  V30 4742 N 648.076 -4.09664 -2.15742 0
M  V30 4743 H 650.915 -7.45574 -4.45629 0
M  V30 4744 H 651.187 -5.86232 -3.67314 0
M  V30 4745 H 650.319 -7.84412 -2.24479 0
M  V30 4746 P 646.356 -8.7635 -1.60911 0
M  V30 4747 O 646.136 -10.1388 -1.11561 0
M  V30 4748 O 645.566 -8.36503 -2.79617 0
M  V30 4749 O 646.106 -7.71806 -0.42951 0
M  V30 4750 C 647.046 -7.67148 0.673689 0
M  V30 4751 C 646.316 -7.33374 1.95559 0
M  V30 4752 O 646.106 -5.88721 2.00726 0
M  V30 4753 C 644.916 -7.92526 2.10483 0
M  V30 4754 O 644.526 -8.02971 3.47653 0
M  V30 4755 C 644.036 -6.89602 1.41652 0
M  V30 4756 C 644.746 -5.59201 1.75185 0
M  V30 4757 N 644.696 -4.58235 0.662552 0
M  V30 4758 H 647.535 -8.65116 0.777161 0
M  V30 4759 H 647.807 -6.90173 0.474152 0
M  V30 4760 H 646.939 -7.66548 2.79458 0
M  V30 4761 P 642.976 -8.03563 3.84925 0
M  V30 4762 O 642.756 -8.85821 5.0569 0
M  V30 4763 O 642.186 -8.41101 2.65469 0
M  V30 4764 O 642.726 -6.4965 4.18908 0
M  V30 4765 C 643.666 -5.80886 5.05289 0
M  V30 4766 C 642.936 -4.78366 5.89277 0
M  V30 4767 O 642.726 -3.58302 5.08433 0
M  V30 4768 C 641.536 -5.16748 6.36559 0
M  V30 4769 O 641.146 -4.45271 7.53232 0
M  V30 4770 C 640.656 -4.74572 5.19863 0
M  V30 4771 C 641.366 -3.49373 4.70338 0
M  V30 4772 N 641.316 -3.31704 3.22876 0
M  V30 4773 C 641.166 -2.03326 2.74871 0
M  V30 4774 O 641.076 -1.06486 3.48076 0
M  V30 4775 N 641.126 -1.91838 1.37456 0
M  V30 4776 C 641.216 -2.94295 0.462035 0
M  V30 4777 O 641.166 -2.71763 -0.752928 0
M  V30 4778 C 641.366 -4.25064 1.05249 0
M  V30 4779 C 641.476 -5.39815 0.095697 0
M  V30 4780 C 641.416 -4.40214 2.39192 0
M  V30 4781 H 644.157 -6.54063 5.71245 0
M  V30 4782 H 644.426 -5.30339 4.43905 0
M  V30 4783 H 643.559 -4.55889 6.76652 0
M  V30 4784 H 640.904 -2.6167 5.17842 0
M  V30 4785 H 640.625 -5.52155 4.41878 0
M  V30 4786 H 639.633 -4.51918 5.53297 0
M  V30 4787 H 641.467 -6.25055 6.55162 0
M  V30 4788 H 641.538 -5.39798 2.81523 0
M  V30 4789 H 640.508 -5.91593 0.0279582 0
M  V30 4790 H 642.245 -6.10038 0.450573 0
M  V30 4791 H 641.757 -5.02007 -0.89937 0
M  V30 4792 H 641.021 -0.995326 1.00435 0
M  V30 4793 P 639.596 -4.23843 7.83734 0
M  V30 4794 O 639.376 -4.19407 9.29784 0
M  V30 4795 O 638.806 -5.24426 7.09156 0
M  V30 4796 O 639.346 -2.79386 7.20852 0
M  V30 4797 C 640.286 -1.7299 7.50419 0
M  V30 4798 C 639.556 -0.41401 7.5797 0
M  V30 4799 O 639.346 0.089787 6.22035 0
M  V30 4800 C 638.156 -0.447224 8.1878 0
M  V30 4801 O 637.766 0.825159 8.71201 0
M  V30 4802 C 637.276 -0.783801 6.99623 0
M  V30 4803 C 637.986 -0.0619192 5.85967 0
M  V30 4804 N 637.936 -0.7859 4.56281 0
M  V30 4805 C 637.786 -0.0359258 3.39981 0
M  V30 4806 O 637.696 1.19723 3.49038 0
M  V30 4807 N 637.736 -0.869151 2.14025 0
M  V30 4808 C 637.836 -2.01207 2.14363 0
M  V30 4809 N 637.786 -2.58978 0.954287 0
M  V30 4810 C 637.986 -2.80817 3.32215 0
M  V30 4811 C 638.036 -2.13785 4.50884 0
M  V30 4812 H 640.776 -1.93401 8.46693 0
M  V30 4813 H 641.046 -1.68181 6.71046 0
M  V30 4814 H 640.179 0.289076 8.15488 0
M  V30 4815 H 637.524 0.927166 5.72947 0
M  V30 4816 H 637.244 -1.87 6.82132 0
M  V30 4817 H 636.253 -0.404009 7.13457 0
M  V30 4818 H 638.087 -1.20599 8.97534 0
M  V30 4819 H 638.159 -2.70295 5.43162 0
M  V30 4820 H 638.057 -3.89465 3.27406 0
M  V30 4821 H 637.669 -2.01616 0.107046 0
M  V30 4822 H 637.865 -3.61403 0.873101 0
M  V30 4823 P 636.216 1.17771 8.83182 0
M  V30 4824 O 635.996 2.07206 9.98732 0
M  V30 4825 O 635.426 -0.0743816 8.81969 0
M  V30 4826 O 635.966 1.97652 7.47304 0
M  V30 4827 C 636.906 3.01055 7.08599 0
M  V30 4828 C 636.176 4.12613 6.37049 0
M  V30 4829 O 635.966 3.72827 4.97879 0
M  V30 4830 C 634.776 4.45719 6.88164 0
M  V30 4831 O 634.386 5.7877 6.5624 0
M  V30 4832 C 633.896 3.47768 6.11991 0
M  V30 4833 C 634.606 3.39356 4.77615 0
M  V30 4834 N 634.556 2.04571 4.15244 0
M  V30 4835 C 634.406 1.98587 2.78314 0
M  V30 4836 O 634.316 2.98134 2.08835 0
M  V30 4837 N 634.366 0.714467 2.24925 0
M  V30 4838 C 634.456 -0.470001 2.94169 0
M  V30 4839 O 634.406 -1.55587 2.35195 0
M  V30 4840 C 634.606 -0.312541 4.36783 0
M  V30 4841 C 634.716 -1.57711 5.16352 0
M  V30 4842 C 634.656 0.914512 4.92583 0
M  V30 4843 H 637.397 3.41169 7.98575 0
M  V30 4844 H 637.666 2.58295 6.41556 0
M  V30 4845 H 636.799 5.02657 6.42673 0
M  V30 4846 H 634.144 4.11637 4.08885 0
M  V30 4847 H 633.865 2.49626 6.61679 0
M  V30 4848 H 632.873 3.86566 6.00778 0
M  V30 4849 H 634.707 4.29943 7.96918 0
M  V30 4850 H 634.778 1.00937 6.00374 0
M  V30 4851 H 633.748 -1.80153 5.63503 0
M  V30 4852 H 635.485 -1.4566 5.94104 0
M  V30 4853 H 634.997 -2.40664 4.49645 0
M  V30 4854 H 634.261 0.647622 1.25697 0
M  V30 4855 P 632.836 6.144 6.45285 0
M  V30 4856 O 632.616 7.54673 6.86199 0
M  V30 4857 O 632.046 5.12391 7.179 0
M  V30 4858 O 632.586 5.99158 4.88404 0
M  V30 4859 C 633.526 6.60234 3.96415 0
M  V30 4860 C 632.796 7.08259 2.72856 0
M  V30 4861 O 632.586 5.9427 1.83651 0
M  V30 4862 C 631.396 7.64886 2.9555 0
M  V30 4863 O 631.006 8.53963 1.90717 0
M  V30 4864 C 630.516 6.4116 2.90739 0
M  V30 4865 C 631.226 5.55375 1.86963 0
M  V30 4866 N 631.176 4.09664 2.15742 0
M  V30 4867 H 634.015 7.45574 4.45629 0
M  V30 4868 H 634.287 5.86232 3.67314 0
M  V30 4869 H 633.419 7.84412 2.24479 0
M  V30 4870 P 629.456 8.7635 1.60911 0
M  V30 4871 O 629.236 10.1388 1.11561 0
M  V30 4872 O 628.666 8.36503 2.79617 0
M  V30 4873 O 629.206 7.71906 0.429565 0
M  V30 4874 C 630.146 7.67148 -0.673689 0
M  V30 4875 C 629.416 7.33666 -1.94851 0
M  V30 4876 O 629.206 5.88816 -2.00759 0
M  V30 4877 C 628.016 7.92526 -2.10483 0
M  V30 4878 O 627.626 8.03063 -3.47693 0
M  V30 4879 C 627.136 6.89602 -1.41652 0
M  V30 4880 C 627.846 5.59201 -1.75185 0
M  V30 4881 N 627.796 4.58235 -0.662552 0
M  V30 4882 C 627.646 3.24451 -1.01643 0
M  V30 4883 O 627.556 2.94958 -2.21722 0
M  V30 4884 N 627.596 2.30408 0.165238 0
M  V30 4885 C 627.696 2.66048 1.25118 0
M  V30 4886 N 627.646 1.70787 2.16813 0
M  V30 4887 C 627.846 4.02732 1.64413 0
M  V30 4888 C 627.896 4.9488 0.63991 0
M  V30 4889 H 630.636 8.65017 -0.777072 0
M  V30 4890 H 630.906 6.90173 -0.474152 0
M  V30 4891 H 630.039 7.66642 -2.79492 0
M  V30 4892 H 627.384 5.16254 -2.65229 0
M  V30 4893 H 627.104 7.06532 -0.329431 0
M  V30 4894 H 626.113 6.91023 -1.82047 0
M  V30 4895 H 627.947 8.90873 -1.62657 0
M  V30 4896 H 628.019 6.00104 0.892197 0
M  V30 4897 H 627.917 4.31733 2.69229 0
M  V30 4898 H 627.529 0.724835 1.8844 0
M  V30 4899 H 627.725 1.94716 3.16734 0
M  V30 4900 P 626.076 8.03563 -3.84925 0
M  V30 4901 O 625.856 8.85821 -5.0569 0
M  V30 4902 O 625.286 8.41101 -2.65469 0
M  V30 4903 O 625.826 6.4965 -4.18908 0
M  V30 4904 C 626.766 5.81037 -5.05421 0
M  V30 4905 C 626.036 4.78366 -5.89277 0
M  V30 4906 O 625.826 3.58302 -5.08433 0
M  V30 4907 C 624.636 5.17448 -6.36119 0
M  V30 4908 O 624.246 4.45271 -7.53232 0
M  V30 4909 C 623.756 4.74639 -5.19936 0
M  V30 4910 C 624.466 3.49432 -4.70418 0
M  V30 4911 N 624.416 3.32099 -3.22613 0
M  V30 4912 H 627.255 6.54213 -5.71376 0
M  V30 4913 H 627.527 5.30936 -4.43503 0
M  V30 4914 H 626.659 4.55889 -6.76652 0
M  V30 4915 H 624.004 2.61715 -5.17932 0
M  V30 4916 H 623.724 5.52155 -4.41878 0
M  V30 4917 H 622.733 4.51981 -5.53374 0
M  V30 4918 H 624.567 6.25124 -6.55234 0
M  V30 4919 P 622.696 4.23843 -7.83734 0
M  V30 4920 O 622.476 4.19407 -9.29784 0
M  V30 4921 O 621.906 5.24426 -7.09156 0
M  V30 4922 O 622.446 2.7935 -7.20758 0
M  V30 4923 C 623.386 1.7299 -7.50419 0
M  V30 4924 C 622.656 0.406376 -7.57911 0
M  V30 4925 O 622.446 -0.0897726 -6.21935 0
M  V30 4926 C 621.256 0.447224 -8.1878 0
M  V30 4927 O 620.866 -0.825065 -8.71101 0
M  V30 4928 C 620.376 0.783801 -6.99623 0
M  V30 4929 C 621.086 0.0619192 -5.85967 0
M  V30 4930 N 621.036 0.790462 -4.56202 0
M  V30 4931 H 623.875 1.93423 -8.4679 0
M  V30 4932 H 624.147 1.68852 -6.70877 0
M  V30 4933 H 623.279 -0.289041 -8.15388 0
M  V30 4934 H 620.624 -0.927006 -5.72848 0
M  V30 4935 H 620.344 1.86973 -6.82036 0
M  V30 4936 H 619.353 0.403953 -7.13357 0
M  V30 4937 H 621.187 1.20599 -8.97534 0
M  V30 4938 P 619.316 -1.17771 -8.83182 0
M  V30 4939 O 619.096 -2.07206 -9.98732 0
M  V30 4940 O 618.526 0.0743816 -8.81969 0
M  V30 4941 O 619.066 -1.97678 -7.474 0
M  V30 4942 C 620.006 -3.01133 -7.08783 0
M  V30 4943 C 619.276 -4.1203 -6.37546 0
M  V30 4944 O 619.066 -3.72887 -4.9796 0
M  V30 4945 C 617.876 -4.45085 -6.88694 0
M  V30 4946 O 617.486 -5.78836 -6.56315 0
M  V30 4947 C 616.996 -3.47817 -6.12078 0
M  V30 4948 C 617.706 -3.39414 -4.77697 0
M  V30 4949 N 617.656 -2.04615 -4.15333 0
M  V30 4950 C 617.506 -1.96929 -2.77162 0
M  V30 4951 O 617.416 -3.02017 -2.12006 0
M  V30 4952 N 617.456 -0.55485 -2.24237 0
M  V30 4953 C 617.556 0.367808 -2.9169 0
M  V30 4954 N 617.506 1.53426 -2.29427 0
M  V30 4955 C 617.706 0.319148 -4.33828 0
M  V30 4956 C 617.756 -0.920672 -4.90433 0
M  V30 4957 H 620.496 -3.41209 -7.98667 0
M  V30 4958 H 620.766 -2.5837 -6.41742 0
M  V30 4959 H 619.899 -5.02718 -6.42752 0
M  V30 4960 H 617.244 -4.11779 -4.09026 0
M  V30 4961 H 616.964 -2.49661 -6.61772 0
M  V30 4962 H 615.973 -3.86674 -6.00946 0
M  V30 4963 H 617.807 -4.29991 -7.97006 0
M  V30 4964 H 617.879 -1.00589 -5.98303 0
M  V30 4965 H 617.777 1.22639 -4.93799 0
M  V30 4966 H 617.389 1.56819 -1.27167 0
M  V30 4967 H 617.585 2.41062 -2.83063 0
M  V30 4968 P 615.936 -6.144 -6.45285 0
M  V30 4969 O 615.716 -7.54673 -6.86199 0
M  V30 4970 O 615.146 -5.12391 -7.179 0
M  V30 4971 O 615.686 -5.99236 -4.88467 0
M  V30 4972 C 616.626 -6.60234 -3.96415 0
M  V30 4973 C 615.896 -7.08079 -2.736 0
M  V30 4974 O 615.686 -5.94365 -1.8368 0
M  V30 4975 C 614.496 -7.64886 -2.9555 0
M  V30 4976 O 614.106 -8.5406 -1.90739 0
M  V30 4977 C 613.616 -6.4116 -2.90739 0
M  V30 4978 C 614.326 -5.55375 -1.86963 0
M  V30 4979 N 614.276 -4.09664 -2.15742 0
M  V30 4980 C 614.126 -3.22231 -1.08477 0
M  V30 4981 O 614.036 -3.68951 0.0600489 0
M  V30 4982 N 614.076 -1.76692 -1.48799 0
M  V30 4983 C 614.176 -1.41695 -2.57602 0
M  V30 4984 N 614.126 -0.107296 -2.75791 0
M  V30 4985 C 614.326 -2.29178 -3.69733 0
M  V30 4986 C 614.376 -3.62753 -3.42653 0
M  V30 4987 H 617.116 -7.45488 -4.45578 0
M  V30 4988 H 617.386 -5.86232 -3.67314 0
M  V30 4989 H 616.519 -7.84508 -2.24507 0
M  V30 4990 H 613.864 -5.73556 -0.888715 0
M  V30 4991 H 613.584 -5.9096 -3.88638 0
M  V30 4992 H 612.593 -6.66053 -2.58894 0
M  V30 4993 H 614.427 -8.16339 -3.92049 0
M  V30 4994 H 614.499 -4.33052 -4.24913 0
M  V30 4995 H 614.397 -1.9103 -4.71577 0
M  V30 4996 H 614.009 0.521221 -1.95056 0
M  V30 4997 H 614.205 0.286429 -3.70695 0
M  V30 4998 P 612.556 -8.7635 -1.60911 0
M  V30 4999 O 612.336 -10.1388 -1.11561 0
M  V30 5000 O 611.766 -8.36503 -2.79617 0
M  V30 5001 O 612.306 -7.71806 -0.42951 0
M  V30 5002 C 613.246 -7.67148 0.673689 0
M  V30 5003 C 612.516 -7.33374 1.95559 0
M  V30 5004 O 612.306 -5.88721 2.00726 0
M  V30 5005 C 611.116 -7.92526 2.10483 0
M  V30 5006 O 610.726 -8.02971 3.47653 0
M  V30 5007 C 610.236 -6.89602 1.41652 0
M  V30 5008 C 610.946 -5.59201 1.75185 0
M  V30 5009 N 610.896 -4.58235 0.662552 0
M  V30 5010 H 613.735 -8.65116 0.777161 0
M  V30 5011 H 614.007 -6.90173 0.474152 0
M  V30 5012 H 613.139 -7.66548 2.79458 0
M  V30 5013 P 609.176 -8.03563 3.84925 0
M  V30 5014 O 608.956 -8.85821 5.0569 0
M  V30 5015 O 608.386 -8.41101 2.65469 0
M  V30 5016 O 608.926 -6.49734 4.18962 0
M  V30 5017 C 609.866 -5.81037 5.05421 0
M  V30 5018 C 609.136 -4.79018 5.88876 0
M  V30 5019 O 608.926 -3.58359 5.08515 0
M  V30 5020 C 607.736 -5.17448 6.36119 0
M  V30 5021 O 607.346 -4.45322 7.53318 0
M  V30 5022 C 606.856 -4.74639 5.19936 0
M  V30 5023 C 607.566 -3.49432 4.70418 0
M  V30 5024 N 607.516 -3.31776 3.22945 0
M  V30 5025 C 607.366 -2.02742 2.72939 0
M  V30 5026 O 607.276 -1.08301 3.52749 0
M  V30 5027 N 607.316 -1.96117 1.22063 0
M  V30 5028 C 607.416 -2.8878 0.551566 0
M  V30 5029 N 607.366 -2.65609 -0.750198 0
M  V30 5030 C 607.566 -4.22457 1.03707 0
M  V30 5031 C 607.616 -4.37979 2.39113 0
M  V30 5032 H 610.356 -6.54138 5.7131 0
M  V30 5033 H 610.626 -5.30492 4.44033 0
M  V30 5034 H 609.759 -4.55945 6.76735 0
M  V30 5035 H 607.104 -2.6176 5.18021 0
M  V30 5036 H 606.824 -5.52233 4.41941 0
M  V30 5037 H 605.833 -4.52045 5.53452 0
M  V30 5038 H 607.667 -6.25124 6.55234 0
M  V30 5039 H 607.739 -5.37936 2.80552 0
M  V30 5040 H 607.637 -5.07528 0.359553 0
M  V30 5041 H 607.249 -1.69403 -1.09847 0
M  V30 5042 H 607.445 -3.43701 -1.41792 0
M  V30 5043 P 605.796 -4.23843 7.83734 0
M  V30 5044 O 605.576 -4.19407 9.29784 0
M  V30 5045 O 605.006 -5.24426 7.09156 0
M  V30 5046 O 605.546 -2.7935 7.20758 0
M  V30 5047 C 606.486 -1.7299 7.50419 0
M  V30 5048 C 605.756 -0.406376 7.57911 0
M  V30 5049 O 605.546 0.0897726 6.21935 0
M  V30 5050 C 604.356 -0.447224 8.1878 0
M  V30 5051 O 603.966 0.825065 8.71101 0
M  V30 5052 C 603.476 -0.783801 6.99623 0
M  V30 5053 C 604.186 -0.0619192 5.85967 0
M  V30 5054 N 604.136 -0.7859 4.56281 0
M  V30 5055 H 606.975 -1.93423 8.4679 0
M  V30 5056 H 607.247 -1.68181 6.71046 0
M  V30 5057 H 606.379 0.289041 8.15388 0
M  V30 5058 P 602.416 1.17771 8.83182 0
M  V30 5059 O 602.196 2.07206 9.98732 0
M  V30 5060 O 601.626 -0.0743816 8.81969 0
M  V30 5061 O 602.166 1.97652 7.47304 0
M  V30 5062 C 603.106 3.01133 7.08783 0
M  V30 5063 C 602.376 4.12613 6.37049 0
M  V30 5064 O 602.166 3.72827 4.97879 0
M  V30 5065 C 600.976 4.45085 6.88694 0
M  V30 5066 O 600.586 5.7877 6.5624 0
M  V30 5067 C 600.096 3.47817 6.12078 0
M  V30 5068 C 600.806 3.39414 4.77697 0
M  V30 5069 N 600.756 2.04199 4.15538 0
M  V30 5070 H 603.595 3.41248 7.98759 0
M  V30 5071 H 603.867 2.57728 6.42 0
M  V30 5072 H 602.999 5.02657 6.42673 0
M  V30 5073 H 600.344 4.11708 4.08956 0
M  V30 5074 H 600.064 2.49626 6.61679 0
M  V30 5075 H 599.073 3.8662 6.00862 0
M  V30 5076 H 600.907 4.29991 7.97006 0
M  V30 5077 P 599.036 6.144 6.45285 0
M  V30 5078 O 598.816 7.54673 6.86199 0
M  V30 5079 O 598.246 5.12391 7.179 0
M  V30 5080 O 598.786 5.99236 4.88467 0
M  V30 5081 C 599.726 6.60234 3.96415 0
M  V30 5082 C 598.996 7.08079 2.736 0
M  V30 5083 O 598.786 5.94365 1.8368 0
M  V30 5084 C 597.596 7.64886 2.9555 0
M  V30 5085 O 597.206 8.5406 1.90739 0
M  V30 5086 C 596.716 6.4116 2.90739 0
M  V30 5087 C 597.426 5.55375 1.86963 0
M  V30 5088 N 597.376 4.09664 2.15742 0
M  V30 5089 C 597.226 3.22231 1.08477 0
M  V30 5090 O 597.136 3.68951 -0.0600489 0
M  V30 5091 N 597.176 1.76692 1.48799 0
M  V30 5092 C 597.276 1.41695 2.57602 0
M  V30 5093 N 597.226 0.107296 2.75791 0
M  V30 5094 C 597.426 2.29178 3.69733 0
M  V30 5095 C 597.476 3.62753 3.42653 0
M  V30 5096 H 600.216 7.45488 4.45578 0
M  V30 5097 H 600.486 5.86232 3.67314 0
M  V30 5098 H 599.619 7.84508 2.24507 0
M  V30 5099 H 596.964 5.73556 0.888715 0
M  V30 5100 H 596.684 5.9096 3.88638 0
M  V30 5101 H 595.693 6.66053 2.58894 0
M  V30 5102 H 597.527 8.16339 3.92049 0
M  V30 5103 H 597.599 4.33052 4.24913 0
M  V30 5104 H 597.497 1.9103 4.71577 0
M  V30 5105 H 597.109 -0.521221 1.95056 0
M  V30 5106 H 597.305 -0.286429 3.70695 0
M  V30 5107 P 595.656 8.7635 1.60911 0
M  V30 5108 O 595.437 10.1388 1.11561 0
M  V30 5109 O 594.866 8.36503 2.79617 0
M  V30 5110 O 595.406 7.71806 0.42951 0
M  V30 5111 C 596.346 7.67148 -0.673689 0
M  V30 5112 C 595.616 7.33374 -1.95559 0
M  V30 5113 O 595.406 5.88721 -2.00726 0
M  V30 5114 C 594.216 7.92526 -2.10483 0
M  V30 5115 O 593.827 8.02971 -3.47653 0
M  V30 5116 C 593.337 6.89602 -1.41652 0
M  V30 5117 C 594.046 5.59201 -1.75185 0
M  V30 5118 N 593.996 4.58235 -0.662552 0
M  V30 5119 H 596.836 8.65116 -0.777161 0
M  V30 5120 H 597.107 6.90173 -0.474152 0
M  V30 5121 H 596.24 7.66548 -2.79458 0
M  V30 5122 P 592.277 8.03563 -3.84925 0
M  V30 5123 O 592.057 8.85821 -5.0569 0
M  V30 5124 O 591.487 8.41101 -2.65469 0
M  V30 5125 O 592.027 6.4965 -4.18908 0
M  V30 5126 C 592.967 5.80886 -5.05289 0
M  V30 5127 C 592.237 4.78366 -5.89277 0
M  V30 5128 O 592.027 3.58302 -5.08433 0
M  V30 5129 C 590.837 5.16748 -6.36559 0
M  V30 5130 O 590.447 4.45271 -7.53232 0
M  V30 5131 C 589.957 4.74572 -5.19863 0
M  V30 5132 C 590.667 3.49373 -4.70338 0
M  V30 5133 N 590.617 3.31704 -3.22876 0
M  V30 5134 C 590.467 2.03326 -2.74871 0
M  V30 5135 O 590.377 1.06486 -3.48076 0
M  V30 5136 N 590.427 1.91838 -1.37456 0
M  V30 5137 C 590.517 2.94295 -0.462035 0
M  V30 5138 C 590.667 4.25064 -1.05249 0
M  V30 5139 C 590.717 4.40214 -2.39192 0
M  V30 5140 H 593.458 6.54063 -5.71245 0
M  V30 5141 H 593.727 5.30339 -4.43905 0
M  V30 5142 H 592.86 4.55889 -6.76652 0
M  V30 5143 H 590.205 2.6167 -5.17842 0
M  V30 5144 H 589.926 5.52155 -4.41878 0
M  V30 5145 H 588.934 4.51918 -5.53297 0
M  V30 5146 H 590.768 6.25055 -6.55162 0
M  V30 5147 H 590.839 5.39798 -2.81523 0
M  V30 5148 P 588.897 4.23843 -7.83734 0
M  V30 5149 O 588.677 4.19407 -9.29784 0
M  V30 5150 O 588.107 5.24426 -7.09156 0
M  V30 5151 O 588.647 2.7935 -7.20758 0
M  V30 5152 C 589.587 1.7299 -7.50419 0
M  V30 5153 C 588.857 0.406376 -7.57911 0
M  V30 5154 O 588.647 -0.0897726 -6.21935 0
M  V30 5155 C 587.457 0.447224 -8.1878 0
M  V30 5156 O 587.067 -0.825065 -8.71101 0
M  V30 5157 C 586.577 0.783801 -6.99623 0
M  V30 5158 C 587.287 0.0619192 -5.85967 0
M  V30 5159 N 587.237 0.7859 -4.56281 0
M  V30 5160 H 590.076 1.93423 -8.4679 0
M  V30 5161 H 590.348 1.68181 -6.71046 0
M  V30 5162 H 589.48 -0.289041 -8.15388 0
M  V30 5163 P 585.517 -1.17771 -8.83182 0
M  V30 5164 O 585.297 -2.07206 -9.98732 0
M  V30 5165 O 584.727 0.0743816 -8.81969 0
M  V30 5166 O 585.267 -1.97678 -7.474 0
M  V30 5167 C 586.207 -3.01133 -7.08783 0
M  V30 5168 C 585.477 -4.1203 -6.37546 0
M  V30 5169 O 585.267 -3.72887 -4.9796 0
M  V30 5170 C 584.077 -4.45085 -6.88694 0
M  V30 5171 O 583.687 -5.78836 -6.56315 0
M  V30 5172 C 583.197 -3.47817 -6.12078 0
M  V30 5173 C 583.907 -3.39414 -4.77697 0
M  V30 5174 N 583.857 -2.04615 -4.15333 0
M  V30 5175 C 583.707 -1.96929 -2.77162 0
M  V30 5176 O 583.617 -3.02017 -2.12006 0
M  V30 5177 N 583.657 -0.55485 -2.24237 0
M  V30 5178 C 583.757 0.367808 -2.9169 0
M  V30 5179 N 583.707 1.53426 -2.29427 0
M  V30 5180 C 583.907 0.319148 -4.33828 0
M  V30 5181 C 583.957 -0.920672 -4.90433 0
M  V30 5182 H 586.697 -3.41209 -7.98667 0
M  V30 5183 H 586.967 -2.5837 -6.41742 0
M  V30 5184 H 586.1 -5.02718 -6.42752 0
M  V30 5185 H 583.445 -4.11779 -4.09026 0
M  V30 5186 H 583.165 -2.49661 -6.61772 0
M  V30 5187 H 582.174 -3.86674 -6.00946 0
M  V30 5188 H 584.008 -4.29991 -7.97006 0
M  V30 5189 H 584.08 -1.00589 -5.98303 0
M  V30 5190 H 583.978 1.22639 -4.93799 0
M  V30 5191 H 583.59 1.56819 -1.27167 0
M  V30 5192 H 583.786 2.41062 -2.83063 0
M  V30 5193 P 582.137 -6.144 -6.45285 0
M  V30 5194 O 581.917 -7.54673 -6.86199 0
M  V30 5195 O 581.347 -5.12391 -7.179 0
M  V30 5196 O 581.887 -5.99158 -4.88404 0
M  V30 5197 C 582.827 -6.60234 -3.96415 0
M  V30 5198 C 582.097 -7.08259 -2.72856 0
M  V30 5199 O 581.887 -5.9427 -1.83651 0
M  V30 5200 C 580.697 -7.64886 -2.9555 0
M  V30 5201 O 580.307 -8.53963 -1.90717 0
M  V30 5202 C 579.817 -6.4116 -2.90739 0
M  V30 5203 C 580.527 -5.55375 -1.86963 0
M  V30 5204 N 580.477 -4.09664 -2.15742 0
M  V30 5205 H 583.316 -7.45574 -4.45629 0
M  V30 5206 H 583.588 -5.86232 -3.67314 0
M  V30 5207 H 582.72 -7.84412 -2.24479 0
M  V30 5208 P 578.757 -8.7635 -1.60911 0
M  V30 5209 O 578.537 -10.1388 -1.11561 0
M  V30 5210 O 577.967 -8.36503 -2.79617 0
M  V30 5211 O 578.507 -7.71806 -0.42951 0
M  V30 5212 C 579.447 -7.67148 0.673689 0
M  V30 5213 C 578.717 -7.33374 1.95559 0
M  V30 5214 O 578.507 -5.88721 2.00726 0
M  V30 5215 C 577.317 -7.92526 2.10483 0
M  V30 5216 O 576.927 -8.02971 3.47653 0
M  V30 5217 C 576.437 -6.89602 1.41652 0
M  V30 5218 C 577.147 -5.59201 1.75185 0
M  V30 5219 N 577.097 -4.58235 0.662552 0
M  V30 5220 H 579.936 -8.65116 0.777161 0
M  V30 5221 H 580.208 -6.90173 0.474152 0
M  V30 5222 H 579.34 -7.66548 2.79458 0
M  V30 5223 P 575.377 -8.03563 3.84925 0
M  V30 5224 O 575.157 -8.85821 5.0569 0
M  V30 5225 O 574.587 -8.41101 2.65469 0
M  V30 5226 O 575.127 -6.4965 4.18908 0
M  V30 5227 C 576.067 -5.80886 5.05289 0
M  V30 5228 C 575.337 -4.78366 5.89277 0
M  V30 5229 O 575.127 -3.58302 5.08433 0
M  V30 5230 C 573.937 -5.16748 6.36559 0
M  V30 5231 O 573.547 -4.45271 7.53232 0
M  V30 5232 C 573.057 -4.74572 5.19863 0
M  V30 5233 C 573.767 -3.49373 4.70338 0
M  V30 5234 N 573.717 -3.31704 3.22876 0
M  V30 5235 C 573.567 -2.03326 2.74871 0
M  V30 5236 O 573.477 -1.06486 3.48076 0
M  V30 5237 N 573.527 -1.91838 1.37456 0
M  V30 5238 C 573.617 -2.94295 0.462035 0
M  V30 5239 O 573.567 -2.71763 -0.752928 0
M  V30 5240 C 573.767 -4.25064 1.05249 0
M  V30 5241 C 573.877 -5.39815 0.095697 0
M  V30 5242 C 573.817 -4.40214 2.39192 0
M  V30 5243 H 576.558 -6.54063 5.71245 0
M  V30 5244 H 576.827 -5.30339 4.43905 0
M  V30 5245 H 575.96 -4.55889 6.76652 0
M  V30 5246 H 573.305 -2.6167 5.17842 0
M  V30 5247 H 573.026 -5.52155 4.41878 0
M  V30 5248 H 572.034 -4.51918 5.53297 0
M  V30 5249 H 573.868 -6.25055 6.55162 0
M  V30 5250 H 573.939 -5.39798 2.81523 0
M  V30 5251 H 572.909 -5.91593 0.0279582 0
M  V30 5252 H 574.646 -6.10038 0.450573 0
M  V30 5253 H 574.158 -5.02007 -0.89937 0
M  V30 5254 H 573.422 -0.995326 1.00435 0
M  V30 5255 P 571.997 -4.23843 7.83734 0
M  V30 5256 O 571.777 -4.19407 9.29784 0
M  V30 5257 O 571.207 -5.24426 7.09156 0
M  V30 5258 O 571.747 -2.7935 7.20758 0
M  V30 5259 C 572.687 -1.7299 7.50419 0
M  V30 5260 C 571.957 -0.406376 7.57911 0
M  V30 5261 O 571.747 0.0897726 6.21935 0
M  V30 5262 C 570.557 -0.447224 8.1878 0
M  V30 5263 O 570.167 0.825065 8.71101 0
M  V30 5264 C 569.677 -0.783801 6.99623 0
M  V30 5265 C 570.387 -0.0619192 5.85967 0
M  V30 5266 N 570.337 -0.7859 4.56281 0
M  V30 5267 H 573.176 -1.93423 8.4679 0
M  V30 5268 H 573.448 -1.68181 6.71046 0
M  V30 5269 H 572.58 0.289041 8.15388 0
M  V30 5270 P 568.617 1.17771 8.83182 0
M  V30 5271 O 568.397 2.07206 9.98732 0
M  V30 5272 O 567.827 -0.0743816 8.81969 0
M  V30 5273 O 568.367 1.97652 7.47304 0
M  V30 5274 C 569.307 3.01133 7.08783 0
M  V30 5275 C 568.577 4.12613 6.37049 0
M  V30 5276 O 568.367 3.72827 4.97879 0
M  V30 5277 C 567.177 4.45085 6.88694 0
M  V30 5278 O 566.787 5.7877 6.5624 0
M  V30 5279 C 566.297 3.47817 6.12078 0
M  V30 5280 C 567.007 3.39414 4.77697 0
M  V30 5281 N 566.957 2.04615 4.15333 0
M  V30 5282 H 569.796 3.41248 7.98759 0
M  V30 5283 H 570.068 2.5837 6.41742 0
M  V30 5284 H 569.2 5.02657 6.42673 0
M  V30 5285 P 565.237 6.144 6.45285 0
M  V30 5286 O 565.017 7.54673 6.86199 0
M  V30 5287 O 564.447 5.12391 7.179 0
M  V30 5288 O 564.987 5.99158 4.88404 0
M  V30 5289 C 565.927 6.60234 3.96415 0
M  V30 5290 C 565.197 7.08259 2.72856 0
M  V30 5291 O 564.987 5.9427 1.83651 0
M  V30 5292 C 563.797 7.64886 2.9555 0
M  V30 5293 O 563.407 8.53963 1.90717 0
M  V30 5294 C 562.917 6.4116 2.90739 0
M  V30 5295 C 563.627 5.55375 1.86963 0
M  V30 5296 N 563.577 4.09664 2.15742 0
M  V30 5297 H 566.416 7.45574 4.45629 0
M  V30 5298 H 566.688 5.86232 3.67314 0
M  V30 5299 H 565.82 7.84412 2.24479 0
M  V30 5300 P 561.857 8.7635 1.60911 0
M  V30 5301 O 561.637 10.1388 1.11561 0
M  V30 5302 O 561.067 8.36503 2.79617 0
M  V30 5303 O 561.607 7.71806 0.42951 0
M  V30 5304 C 562.547 7.67148 -0.673689 0
M  V30 5305 C 561.817 7.33374 -1.95559 0
M  V30 5306 O 561.607 5.88721 -2.00726 0
M  V30 5307 C 560.417 7.92526 -2.10483 0
M  V30 5308 O 560.027 8.02971 -3.47653 0
M  V30 5309 C 559.537 6.89602 -1.41652 0
M  V30 5310 C 560.247 5.59201 -1.75185 0
M  V30 5311 N 560.197 4.58235 -0.662552 0
M  V30 5312 H 563.036 8.65116 -0.777161 0
M  V30 5313 H 563.308 6.90173 -0.474152 0
M  V30 5314 H 562.44 7.66548 -2.79458 0
M  V30 5315 P 558.477 8.03563 -3.84925 0
M  V30 5316 O 558.257 8.85821 -5.0569 0
M  V30 5317 O 557.687 8.41101 -2.65469 0
M  V30 5318 O 558.227 6.4965 -4.18908 0
M  V30 5319 C 559.167 5.81037 -5.05421 0
M  V30 5320 C 558.437 4.78366 -5.89277 0
M  V30 5321 O 558.227 3.58302 -5.08433 0
M  V30 5322 C 557.037 5.17448 -6.36119 0
M  V30 5323 O 556.647 4.45271 -7.53232 0
M  V30 5324 C 556.157 4.74639 -5.19936 0
M  V30 5325 C 556.867 3.49432 -4.70418 0
M  V30 5326 N 556.817 3.32099 -3.22613 0
M  V30 5327 H 559.656 6.54213 -5.71376 0
M  V30 5328 H 559.928 5.30936 -4.43503 0
M  V30 5329 H 559.06 4.55889 -6.76652 0
M  V30 5330 H 556.405 2.61715 -5.17932 0
M  V30 5331 H 556.125 5.52155 -4.41878 0
M  V30 5332 H 555.134 4.51981 -5.53374 0
M  V30 5333 H 556.968 6.25124 -6.55234 0
M  V30 5334 P 555.097 4.23843 -7.83734 0
M  V30 5335 O 554.877 4.19407 -9.29784 0
M  V30 5336 O 554.307 5.24426 -7.09156 0
M  V30 5337 O 554.847 2.7935 -7.20758 0
M  V30 5338 C 555.787 1.7299 -7.50419 0
M  V30 5339 C 555.057 0.406376 -7.57911 0
M  V30 5340 O 554.847 -0.0897726 -6.21935 0
M  V30 5341 C 553.657 0.447224 -8.1878 0
M  V30 5342 O 553.267 -0.825065 -8.71101 0
M  V30 5343 C 552.777 0.783801 -6.99623 0
M  V30 5344 C 553.487 0.0619192 -5.85967 0
M  V30 5345 N 553.437 0.7859 -4.56281 0
M  V30 5346 H 556.276 1.93423 -8.4679 0
M  V30 5347 H 556.548 1.68181 -6.71046 0
M  V30 5348 H 555.68 -0.289041 -8.15388 0
M  V30 5349 P 551.717 -1.17771 -8.83182 0
M  V30 5350 O 551.497 -2.07206 -9.98732 0
M  V30 5351 O 550.927 0.0743816 -8.81969 0
M  V30 5352 O 551.467 -1.97652 -7.47304 0
M  V30 5353 C 552.407 -3.01055 -7.08599 0
M  V30 5354 C 551.677 -4.12613 -6.37049 0
M  V30 5355 O 551.467 -3.72827 -4.97879 0
M  V30 5356 C 550.277 -4.45719 -6.88164 0
M  V30 5357 O 549.887 -5.7877 -6.5624 0
M  V30 5358 C 549.397 -3.47768 -6.11991 0
M  V30 5359 C 550.107 -3.39356 -4.77615 0
M  V30 5360 N 550.057 -2.04571 -4.15244 0
M  V30 5361 C 549.907 -1.98587 -2.78314 0
M  V30 5362 O 549.817 -2.98134 -2.08835 0
M  V30 5363 N 549.867 -0.714467 -2.24925 0
M  V30 5364 C 549.957 0.470001 -2.94169 0
M  V30 5365 O 549.907 1.55587 -2.35195 0
M  V30 5366 C 550.107 0.312541 -4.36783 0
M  V30 5367 C 550.217 1.57711 -5.16352 0
M  V30 5368 C 550.157 -0.914512 -4.92583 0
M  V30 5369 H 552.898 -3.41169 -7.98575 0
M  V30 5370 H 553.167 -2.58295 -6.41556 0
M  V30 5371 H 552.3 -5.02657 -6.42673 0
M  V30 5372 H 549.645 -4.11637 -4.08885 0
M  V30 5373 H 549.366 -2.49626 -6.61679 0
M  V30 5374 H 548.374 -3.86566 -6.00778 0
M  V30 5375 H 550.208 -4.29943 -7.96918 0
M  V30 5376 H 550.279 -1.00937 -6.00374 0
M  V30 5377 H 549.249 1.80153 -5.63503 0
M  V30 5378 H 550.986 1.4566 -5.94104 0
M  V30 5379 H 550.498 2.40664 -4.49645 0
M  V30 5380 H 549.762 -0.647622 -1.25697 0
M  V30 5381 P 548.337 -6.144 -6.45285 0
M  V30 5382 O 548.117 -7.54673 -6.86199 0
M  V30 5383 O 547.547 -5.12391 -7.179 0
M  V30 5384 O 548.087 -5.99158 -4.88404 0
M  V30 5385 C 549.027 -6.60234 -3.96415 0
M  V30 5386 C 548.297 -7.08259 -2.72856 0
M  V30 5387 O 548.087 -5.9427 -1.83651 0
M  V30 5388 C 546.897 -7.64886 -2.9555 0
M  V30 5389 O 546.507 -8.53963 -1.90717 0
M  V30 5390 C 546.017 -6.4116 -2.90739 0
M  V30 5391 C 546.727 -5.55375 -1.86963 0
M  V30 5392 N 546.677 -4.09664 -2.15742 0
M  V30 5393 H 549.516 -7.45574 -4.45629 0
M  V30 5394 H 549.788 -5.86232 -3.67314 0
M  V30 5395 H 548.92 -7.84412 -2.24479 0
M  V30 5396 P 544.957 -8.7635 -1.60911 0
M  V30 5397 O 544.737 -10.1388 -1.11561 0
M  V30 5398 O 544.167 -8.36503 -2.79617 0
M  V30 5399 O 544.707 -7.71906 -0.429565 0
M  V30 5400 C 545.647 -7.67148 0.673689 0
M  V30 5401 C 544.917 -7.33666 1.94851 0
M  V30 5402 O 544.707 -5.88816 2.00759 0
M  V30 5403 C 543.517 -7.92526 2.10483 0
M  V30 5404 O 543.127 -8.03063 3.47693 0
M  V30 5405 C 542.637 -6.89602 1.41652 0
M  V30 5406 C 543.347 -5.59201 1.75185 0
M  V30 5407 N 543.297 -4.58235 0.662552 0
M  V30 5408 C 543.147 -3.24451 1.01643 0
M  V30 5409 O 543.057 -2.94958 2.21722 0
M  V30 5410 N 543.097 -2.30408 -0.165238 0
M  V30 5411 C 543.197 -2.66048 -1.25118 0
M  V30 5412 N 543.147 -1.70787 -2.16813 0
M  V30 5413 C 543.347 -4.02732 -1.64413 0
M  V30 5414 C 543.397 -4.9488 -0.63991 0
M  V30 5415 H 546.137 -8.65017 0.777072 0
M  V30 5416 H 546.407 -6.90173 0.474152 0
M  V30 5417 H 545.54 -7.66642 2.79492 0
M  V30 5418 H 542.885 -5.16254 2.65229 0
M  V30 5419 H 542.605 -7.06532 0.329431 0
M  V30 5420 H 541.614 -6.91023 1.82047 0
M  V30 5421 H 543.448 -8.90873 1.62657 0
M  V30 5422 H 543.52 -6.00104 -0.892197 0
M  V30 5423 H 543.418 -4.31733 -2.69229 0
M  V30 5424 H 543.03 -0.724835 -1.8844 0
M  V30 5425 H 543.226 -1.94716 -3.16734 0
M  V30 5426 P 541.577 -8.03563 3.84925 0
M  V30 5427 O 541.357 -8.85821 5.0569 0
M  V30 5428 O 540.787 -8.41101 2.65469 0
M  V30 5429 O 541.327 -6.49734 4.18962 0
M  V30 5430 C 542.267 -5.81037 5.05421 0
M  V30 5431 C 541.537 -4.79018 5.88876 0
M  V30 5432 O 541.327 -3.58359 5.08515 0
M  V30 5433 C 540.137 -5.17448 6.36119 0
M  V30 5434 O 539.747 -4.45322 7.53318 0
M  V30 5435 C 539.257 -4.74639 5.19936 0
M  V30 5436 C 539.967 -3.49432 4.70418 0
M  V30 5437 N 539.917 -3.31776 3.22945 0
M  V30 5438 C 539.767 -2.02742 2.72939 0
M  V30 5439 O 539.677 -1.08301 3.52749 0
M  V30 5440 N 539.717 -1.96117 1.22063 0
M  V30 5441 C 539.817 -2.8878 0.551566 0
M  V30 5442 N 539.767 -2.65609 -0.750198 0
M  V30 5443 C 539.967 -4.22457 1.03707 0
M  V30 5444 C 540.017 -4.37979 2.39113 0
M  V30 5445 H 542.757 -6.54138 5.7131 0
M  V30 5446 H 543.027 -5.30492 4.44033 0
M  V30 5447 H 542.16 -4.55945 6.76735 0
M  V30 5448 H 539.505 -2.6176 5.18021 0
M  V30 5449 H 539.225 -5.52233 4.41941 0
M  V30 5450 H 538.234 -4.52045 5.53452 0
M  V30 5451 H 540.068 -6.25124 6.55234 0
M  V30 5452 H 540.14 -5.37936 2.80552 0
M  V30 5453 H 540.038 -5.07528 0.359553 0
M  V30 5454 H 539.65 -1.69403 -1.09847 0
M  V30 5455 H 539.846 -3.43701 -1.41792 0
M  V30 5456 P 538.197 -4.23843 7.83734 0
M  V30 5457 O 537.977 -4.19407 9.29784 0
M  V30 5458 O 537.407 -5.24426 7.09156 0
M  V30 5459 O 537.947 -2.7935 7.20758 0
M  V30 5460 C 538.887 -1.7299 7.50419 0
M  V30 5461 C 538.157 -0.406376 7.57911 0
M  V30 5462 O 537.947 0.0897726 6.21935 0
M  V30 5463 C 536.757 -0.447224 8.1878 0
M  V30 5464 O 536.367 0.825065 8.71101 0
M  V30 5465 C 535.877 -0.783801 6.99623 0
M  V30 5466 C 536.587 -0.0619192 5.85967 0
M  V30 5467 N 536.537 -0.790462 4.56202 0
M  V30 5468 H 539.376 -1.93423 8.4679 0
M  V30 5469 H 539.648 -1.68852 6.70877 0
M  V30 5470 H 538.78 0.289041 8.15388 0
M  V30 5471 H 536.125 0.927006 5.72848 0
M  V30 5472 H 535.845 -1.86973 6.82036 0
M  V30 5473 H 534.854 -0.403953 7.13357 0
M  V30 5474 H 536.688 -1.20599 8.97534 0
M  V30 5475 P 534.817 1.17771 8.83182 0
M  V30 5476 O 534.597 2.07206 9.98732 0
M  V30 5477 O 534.027 -0.0743816 8.81969 0
M  V30 5478 O 534.567 1.97652 7.47304 0
M  V30 5479 C 535.507 3.01133 7.08783 0
M  V30 5480 C 534.777 4.12613 6.37049 0
M  V30 5481 O 534.567 3.72827 4.97879 0
M  V30 5482 C 533.377 4.45085 6.88694 0
M  V30 5483 O 532.987 5.7877 6.5624 0
M  V30 5484 C 532.497 3.47817 6.12078 0
M  V30 5485 C 533.207 3.39414 4.77697 0
M  V30 5486 N 533.157 2.04615 4.15333 0
M  V30 5487 C 533.237 0.803897 4.75249 0
M  V30 5488 N 533.157 -0.197615 3.91502 0
M  V30 5489 C 533.017 0.413002 2.66823 0
M  V30 5490 C 532.887 -0.157221 1.38007 0
M  V30 5491 N 532.767 0.833136 0.390236 0
M  V30 5492 C 532.767 2.19402 0.623885 0
M  V30 5493 N 532.637 2.97622 -0.449677 0
M  V30 5494 N 532.897 2.73005 1.83601 0
M  V30 5495 C 533.017 1.78786 2.80935 0
M  V30 5496 H 535.996 3.41248 7.98759 0
M  V30 5497 H 536.268 2.5837 6.41742 0
M  V30 5498 H 535.4 5.02657 6.42673 0
M  V30 5499 P 531.437 6.144 6.45285 0
M  V30 5500 O 531.217 7.54673 6.86199 0
M  V30 5501 O 530.647 5.12391 7.179 0
M  V30 5502 O 531.187 5.99158 4.88404 0
M  V30 5503 C 532.127 6.60234 3.96415 0
M  V30 5504 C 531.397 7.08259 2.72856 0
M  V30 5505 O 531.187 5.9427 1.83651 0
M  V30 5506 C 529.997 7.64886 2.9555 0
M  V30 5507 O 529.607 8.53963 1.90717 0
M  V30 5508 C 529.117 6.4116 2.90739 0
M  V30 5509 C 529.827 5.55375 1.86963 0
M  V30 5510 N 529.777 4.09664 2.15742 0
M  V30 5511 H 532.616 7.45574 4.45629 0
M  V30 5512 H 532.888 5.86232 3.67314 0
M  V30 5513 H 532.02 7.84412 2.24479 0
M  V30 5514 P 528.057 8.7635 1.60911 0
M  V30 5515 O 527.837 10.1388 1.11561 0
M  V30 5516 O 527.267 8.36503 2.79617 0
M  V30 5517 O 527.807 7.71906 0.429565 0
M  V30 5518 C 528.747 7.67148 -0.673689 0
M  V30 5519 C 528.017 7.33666 -1.94851 0
M  V30 5520 O 527.807 5.88816 -2.00759 0
M  V30 5521 C 526.617 7.92526 -2.10483 0
M  V30 5522 O 526.227 8.03063 -3.47693 0
M  V30 5523 C 525.737 6.89602 -1.41652 0
M  V30 5524 C 526.447 5.59201 -1.75185 0
M  V30 5525 N 526.397 4.58235 -0.662552 0
M  V30 5526 C 526.247 3.24451 -1.01643 0
M  V30 5527 O 526.157 2.94958 -2.21722 0
M  V30 5528 N 526.197 2.30408 0.165238 0
M  V30 5529 C 526.297 2.66048 1.25118 0
M  V30 5530 N 526.247 1.70787 2.16813 0
M  V30 5531 C 526.447 4.02732 1.64413 0
M  V30 5532 C 526.497 4.9488 0.63991 0
M  V30 5533 H 529.237 8.65017 -0.777072 0
M  V30 5534 H 529.507 6.90173 -0.474152 0
M  V30 5535 H 528.64 7.66642 -2.79492 0
M  V30 5536 H 525.985 5.16254 -2.65229 0
M  V30 5537 H 525.705 7.06532 -0.329431 0
M  V30 5538 H 524.714 6.91023 -1.82047 0
M  V30 5539 H 526.548 8.90873 -1.62657 0
M  V30 5540 H 526.62 6.00104 0.892197 0
M  V30 5541 H 526.518 4.31733 2.69229 0
M  V30 5542 H 526.13 0.724835 1.8844 0
M  V30 5543 H 526.326 1.94716 3.16734 0
M  V30 5544 P 524.677 8.03563 -3.84925 0
M  V30 5545 O 524.457 8.85821 -5.0569 0
M  V30 5546 O 523.887 8.41101 -2.65469 0
M  V30 5547 O 524.427 6.4965 -4.18908 0
M  V30 5548 C 525.367 5.81037 -5.05421 0
M  V30 5549 C 524.637 4.78366 -5.89277 0
M  V30 5550 O 524.427 3.58302 -5.08433 0
M  V30 5551 C 523.237 5.17448 -6.36119 0
M  V30 5552 O 522.847 4.45271 -7.53232 0
M  V30 5553 C 522.357 4.74639 -5.19936 0
M  V30 5554 C 523.067 3.49432 -4.70418 0
M  V30 5555 N 523.017 3.31776 -3.22945 0
M  V30 5556 H 525.856 6.54213 -5.71376 0
M  V30 5557 H 526.128 5.30492 -4.44033 0
M  V30 5558 H 525.26 4.55889 -6.76652 0
M  V30 5559 P 521.297 4.23843 -7.83734 0
M  V30 5560 O 521.077 4.19407 -9.29784 0
M  V30 5561 O 520.507 5.24426 -7.09156 0
M  V30 5562 O 521.047 2.7935 -7.20758 0
M  V30 5563 C 521.987 1.72945 -7.50224 0
M  V30 5564 C 521.257 0.406376 -7.57911 0
M  V30 5565 O 521.047 -0.0897726 -6.21935 0
M  V30 5566 C 519.857 0.438983 -8.18724 0
M  V30 5567 O 519.467 -0.825065 -8.71101 0
M  V30 5568 C 518.977 0.783689 -6.99524 0
M  V30 5569 C 519.687 0.0619086 -5.85867 0
M  V30 5570 N 519.637 0.78573 -4.56183 0
M  V30 5571 C 519.487 0.0292889 -3.41887 0
M  V30 5572 O 519.397 -1.18445 -3.4419 0
M  V30 5573 N 519.447 0.744061 -2.23964 0
M  V30 5574 C 519.537 2.10932 -2.10362 0
M  V30 5575 O 519.487 2.64117 -0.98825 0
M  V30 5576 C 519.687 2.8202 -3.34994 0
M  V30 5577 C 519.797 4.31095 -3.25037 0
M  V30 5578 C 519.737 2.15547 -4.52261 0
M  V30 5579 H 522.478 1.93379 -8.46595 0
M  V30 5580 H 522.747 1.68132 -6.70852 0
M  V30 5581 H 521.88 -0.289041 -8.15388 0
M  V30 5582 H 519.225 -0.926847 -5.72749 0
M  V30 5583 H 518.946 1.86973 -6.82036 0
M  V30 5584 H 517.954 0.403896 -7.13257 0
M  V30 5585 H 519.788 1.20585 -8.97435 0
M  V30 5586 H 519.859 2.71231 -5.45042 0
M  V30 5587 H 518.829 4.76966 -3.49992 0
M  V30 5588 H 520.566 4.67047 -3.95024 0
M  V30 5589 H 520.078 4.58996 -2.22312 0
M  V30 5590 H 519.342 0.214893 -1.39758 0
M  V30 5591 P 517.917 -1.17771 -8.83182 0
M  V30 5592 O 517.697 -2.07206 -9.98732 0
M  V30 5593 O 517.127 0.0743816 -8.81969 0
M  V30 5594 O 517.667 -1.97678 -7.474 0
M  V30 5595 C 518.607 -3.01133 -7.08783 0
M  V30 5596 C 517.877 -4.1203 -6.37546 0
M  V30 5597 O 517.667 -3.72887 -4.9796 0
M  V30 5598 C 516.477 -4.45085 -6.88694 0
M  V30 5599 O 516.087 -5.78836 -6.56315 0
M  V30 5600 C 515.597 -3.47817 -6.12078 0
M  V30 5601 C 516.307 -3.39414 -4.77697 0
M  V30 5602 N 516.257 -2.04615 -4.15333 0
M  V30 5603 C 516.107 -1.96929 -2.77162 0
M  V30 5604 O 516.017 -3.02017 -2.12006 0
M  V30 5605 N 516.057 -0.55485 -2.24237 0
M  V30 5606 C 516.157 0.367808 -2.9169 0
M  V30 5607 N 516.107 1.53426 -2.29427 0
M  V30 5608 C 516.307 0.319148 -4.33828 0
M  V30 5609 C 516.357 -0.920672 -4.90433 0
M  V30 5610 H 519.097 -3.41209 -7.98667 0
M  V30 5611 H 519.367 -2.5837 -6.41742 0
M  V30 5612 H 518.5 -5.02718 -6.42752 0
M  V30 5613 H 515.845 -4.11779 -4.09026 0
M  V30 5614 H 515.565 -2.49661 -6.61772 0
M  V30 5615 H 514.574 -3.86674 -6.00946 0
M  V30 5616 H 516.408 -4.29991 -7.97006 0
M  V30 5617 H 516.48 -1.00589 -5.98303 0
M  V30 5618 H 516.378 1.22639 -4.93799 0
M  V30 5619 H 515.99 1.56819 -1.27167 0
M  V30 5620 H 516.186 2.41062 -2.83063 0
M  V30 5621 P 514.537 -6.144 -6.45285 0
M  V30 5622 O 514.317 -7.54673 -6.86199 0
M  V30 5623 O 513.747 -5.12391 -7.179 0
M  V30 5624 O 514.287 -5.99158 -4.88404 0
M  V30 5625 C 515.227 -6.60234 -3.96415 0
M  V30 5626 C 514.497 -7.08259 -2.72856 0
M  V30 5627 O 514.287 -5.9427 -1.83651 0
M  V30 5628 C 513.097 -7.64886 -2.9555 0
M  V30 5629 O 512.707 -8.53963 -1.90717 0
M  V30 5630 C 512.217 -6.4116 -2.90739 0
M  V30 5631 C 512.927 -5.55375 -1.86963 0
M  V30 5632 N 512.877 -4.09448 -2.16152 0
M  V30 5633 H 515.716 -7.45574 -4.45629 0
M  V30 5634 H 515.988 -5.85864 -3.679 0
M  V30 5635 H 515.12 -7.84412 -2.24479 0
M  V30 5636 H 512.465 -5.73457 -0.888562 0
M  V30 5637 H 512.185 -5.90877 -3.88583 0
M  V30 5638 H 511.194 -6.6596 -2.58858 0
M  V30 5639 H 513.028 -8.16339 -3.92049 0
M  V30 5640 P 511.157 -8.7635 -1.60911 0
M  V30 5641 O 510.937 -10.1388 -1.11561 0
M  V30 5642 O 510.367 -8.36503 -2.79617 0
M  V30 5643 O 510.907 -7.71806 -0.42951 0
M  V30 5644 C 511.847 -7.67148 0.673689 0
M  V30 5645 C 511.117 -7.33374 1.95559 0
M  V30 5646 O 510.907 -5.88721 2.00726 0
M  V30 5647 C 509.717 -7.92526 2.10483 0
M  V30 5648 O 509.327 -8.02971 3.47653 0
M  V30 5649 C 508.837 -6.89602 1.41652 0
M  V30 5650 C 509.547 -5.59201 1.75185 0
M  V30 5651 N 509.497 -4.58301 0.657969 0
M  V30 5652 H 512.336 -8.65116 0.777161 0
M  V30 5653 H 512.608 -6.9022 0.46725 0
M  V30 5654 H 511.74 -7.66548 2.79458 0
M  V30 5655 H 509.085 -5.16165 2.65183 0
M  V30 5656 H 508.805 -7.06433 0.329384 0
M  V30 5657 H 507.814 -6.90926 1.82021 0
M  V30 5658 H 509.648 -8.90873 1.62657 0
M  V30 5659 P 507.777 -8.03563 3.84925 0
M  V30 5660 O 507.557 -8.85821 5.0569 0
M  V30 5661 O 506.987 -8.41101 2.65469 0
M  V30 5662 O 507.527 -6.4965 4.18908 0
M  V30 5663 C 508.467 -5.81037 5.05421 0
M  V30 5664 C 507.737 -4.78366 5.89277 0
M  V30 5665 O 507.527 -3.58302 5.08433 0
M  V30 5666 C 506.337 -5.17448 6.36119 0
M  V30 5667 O 505.947 -4.45271 7.53232 0
M  V30 5668 C 505.457 -4.74639 5.19936 0
M  V30 5669 C 506.167 -3.49432 4.70418 0
M  V30 5670 N 506.117 -3.31776 3.22945 0
M  V30 5671 C 506.197 -4.27147 2.23315 0
M  V30 5672 N 506.117 -3.78447 1.02186 0
M  V30 5673 C 505.977 -2.41001 1.21732 0
M  V30 5674 C 505.847 -1.36111 0.27694 0
M  V30 5675 O 505.827 -1.42065 -0.951767 0
M  V30 5676 N 505.727 -0.113683 0.912949 0
M  V30 5677 C 505.727 0.0846396 2.27943 0
M  V30 5678 N 505.597 1.34737 2.6916 0
M  V30 5679 N 505.857 -0.902521 3.16379 0
M  V30 5680 C 505.977 -2.11937 2.56849 0
M  V30 5681 H 508.956 -6.54213 5.71376 0
M  V30 5682 H 509.228 -5.30492 4.44033 0
M  V30 5683 H 508.36 -4.55889 6.76652 0
M  V30 5684 H 505.705 -2.6176 5.18021 0
M  V30 5685 H 505.425 -5.52233 4.41941 0
M  V30 5686 H 504.434 -4.52045 5.53452 0
M  V30 5687 H 506.268 -6.25193 6.55307 0
M  V30 5688 H 506.317 -5.3351 2.43857 0
M  V30 5689 H 505.635 0.69331 0.330371 0
M  V30 5690 H 505.598 1.56433 3.6988 0
M  V30 5691 H 505.497 2.10701 2.00133 0
M  V30 5692 P 504.397 -4.23843 7.83734 0
M  V30 5693 O 504.177 -4.19407 9.29784 0
M  V30 5694 O 503.607 -5.24426 7.09156 0
M  V30 5695 O 504.147 -2.7935 7.20758 0
M  V30 5696 C 505.087 -1.7299 7.50419 0
M  V30 5697 C 504.357 -0.406376 7.57911 0
M  V30 5698 O 504.147 0.0897726 6.21935 0
M  V30 5699 C 502.957 -0.447224 8.1878 0
M  V30 5700 O 502.567 0.825065 8.71101 0
M  V30 5701 C 502.077 -0.783801 6.99623 0
M  V30 5702 C 502.787 -0.0619192 5.85967 0
M  V30 5703 N 502.737 -0.7859 4.56281 0
M  V30 5704 H 505.576 -1.93423 8.4679 0
M  V30 5705 H 505.848 -1.68181 6.71046 0
M  V30 5706 H 504.98 0.289041 8.15388 0
M  V30 5707 P 501.017 1.17771 8.83182 0
M  V30 5708 O 500.797 2.07206 9.98732 0
M  V30 5709 O 500.227 -0.0743816 8.81969 0
M  V30 5710 O 500.767 1.97652 7.47304 0
M  V30 5711 C 501.707 3.01133 7.08783 0
M  V30 5712 C 500.977 4.12613 6.37049 0
M  V30 5713 O 500.767 3.72827 4.97879 0
M  V30 5714 C 499.577 4.45085 6.88694 0
M  V30 5715 O 499.187 5.7877 6.5624 0
M  V30 5716 C 498.697 3.47817 6.12078 0
M  V30 5717 C 499.407 3.39414 4.77697 0
M  V30 5718 N 499.357 2.04615 4.15333 0
M  V30 5719 H 502.196 3.41248 7.98759 0
M  V30 5720 H 502.468 2.5837 6.41742 0
M  V30 5721 H 501.6 5.02657 6.42673 0
M  V30 5722 P 497.637 6.144 6.45285 0
M  V30 5723 O 497.417 7.54673 6.86199 0
M  V30 5724 O 496.847 5.12391 7.179 0
M  V30 5725 O 497.387 5.99158 4.88404 0
M  V30 5726 C 498.327 6.60062 3.96313 0
M  V30 5727 C 497.597 7.08259 2.72856 0
M  V30 5728 O 497.387 5.9427 1.83651 0
M  V30 5729 C 496.197 7.65087 2.94749 0
M  V30 5730 O 495.807 8.53963 1.90717 0
M  V30 5731 C 495.317 6.41069 2.90698 0
M  V30 5732 C 496.027 5.5528 1.86931 0
M  V30 5733 N 495.977 4.09575 2.15696 0
M  V30 5734 C 495.827 3.24249 1.08435 0
M  V30 5735 O 495.737 3.63946 -0.0628747 0
M  V30 5736 N 495.787 1.90009 1.39973 0
M  V30 5737 C 495.877 1.34884 2.65614 0
M  V30 5738 C 496.027 2.3145 3.71736 0
M  V30 5739 C 496.077 3.63518 3.44754 0
M  V30 5740 H 498.818 7.45402 4.45526 0
M  V30 5741 H 499.087 5.86062 3.67208 0
M  V30 5742 H 498.22 7.84412 2.24479 0
M  V30 5743 H 495.565 5.73358 0.888409 0
M  V30 5744 H 495.286 5.90877 3.88583 0
M  V30 5745 H 494.294 6.65867 2.58821 0
M  V30 5746 H 496.128 8.16248 3.92006 0
M  V30 5747 H 496.199 4.34551 4.26383 0
M  V30 5748 P 494.257 8.7635 1.60911 0
M  V30 5749 O 494.037 10.1388 1.11561 0
M  V30 5750 O 493.467 8.36503 2.79617 0
M  V30 5751 O 494.007 7.71806 0.42951 0
M  V30 5752 C 494.947 7.67148 -0.673689 0
M  V30 5753 C 494.217 7.33374 -1.95559 0
M  V30 5754 O 494.007 5.88721 -2.00726 0
M  V30 5755 C 492.817 7.92526 -2.10483 0
M  V30 5756 O 492.427 8.02971 -3.47653 0
M  V30 5757 C 491.937 6.89602 -1.41652 0
M  V30 5758 C 492.647 5.59201 -1.75185 0
M  V30 5759 N 492.597 4.58235 -0.662552 0
M  V30 5760 H 495.436 8.65116 -0.777161 0
M  V30 5761 H 495.708 6.90173 -0.474152 0
M  V30 5762 H 494.84 7.66548 -2.79458 0
M  V30 5763 P 490.877 8.03563 -3.84925 0
M  V30 5764 O 490.657 8.85821 -5.0569 0
M  V30 5765 O 490.087 8.41101 -2.65469 0
M  V30 5766 O 490.627 6.4965 -4.18908 0
M  V30 5767 C 491.567 5.81037 -5.05421 0
M  V30 5768 C 490.837 4.78366 -5.89277 0
M  V30 5769 O 490.627 3.58302 -5.08433 0
M  V30 5770 C 489.437 5.17448 -6.36119 0
M  V30 5771 O 489.047 4.45271 -7.53232 0
M  V30 5772 C 488.557 4.74639 -5.19936 0
M  V30 5773 C 489.267 3.49432 -4.70418 0
M  V30 5774 N 489.217 3.31776 -3.22945 0
M  V30 5775 C 489.297 4.27147 -2.23315 0
M  V30 5776 N 489.217 3.78447 -1.02186 0
M  V30 5777 C 489.077 2.41001 -1.21732 0
M  V30 5778 C 488.947 1.36111 -0.27694 0
M  V30 5779 O 488.927 1.42065 0.951767 0
M  V30 5780 N 488.827 0.113683 -0.912949 0
M  V30 5781 C 488.827 -0.0846396 -2.27943 0
M  V30 5782 N 488.697 -1.34737 -2.6916 0
M  V30 5783 N 488.957 0.902521 -3.16379 0
M  V30 5784 C 489.077 2.11937 -2.56849 0
M  V30 5785 H 492.056 6.54213 -5.71376 0
M  V30 5786 H 492.328 5.30492 -4.44033 0
M  V30 5787 H 491.46 4.55889 -6.76652 0
M  V30 5788 H 488.805 2.6176 -5.18021 0
M  V30 5789 H 488.525 5.52233 -4.41941 0
M  V30 5790 H 487.534 4.52045 -5.53452 0
M  V30 5791 H 489.368 6.25193 -6.55307 0
M  V30 5792 H 489.417 5.3351 -2.43857 0
M  V30 5793 H 488.735 -0.69331 -0.330371 0
M  V30 5794 H 488.698 -1.56433 -3.6988 0
M  V30 5795 H 488.597 -2.10701 -2.00133 0
M  V30 5796 P 487.497 4.23843 -7.83734 0
M  V30 5797 O 487.277 4.19407 -9.29784 0
M  V30 5798 O 486.707 5.24426 -7.09156 0
M  V30 5799 O 487.247 2.7935 -7.20758 0
M  V30 5800 C 488.187 1.7299 -7.50419 0
M  V30 5801 C 487.457 0.406376 -7.57911 0
M  V30 5802 O 487.247 -0.0897726 -6.21935 0
M  V30 5803 C 486.057 0.447224 -8.1878 0
M  V30 5804 O 485.667 -0.825065 -8.71101 0
M  V30 5805 C 485.177 0.783801 -6.99623 0
M  V30 5806 C 485.887 0.0619192 -5.85967 0
M  V30 5807 N 485.837 0.7859 -4.56281 0
M  V30 5808 H 488.676 1.93423 -8.4679 0
M  V30 5809 H 488.948 1.68181 -6.71046 0
M  V30 5810 H 488.08 -0.289041 -8.15388 0
M  V30 5811 P 484.117 -1.17771 -8.83182 0
M  V30 5812 O 483.897 -2.07206 -9.98732 0
M  V30 5813 O 483.327 0.0743816 -8.81969 0
M  V30 5814 O 483.867 -1.97652 -7.47304 0
M  V30 5815 C 484.807 -3.01133 -7.08783 0
M  V30 5816 C 484.077 -4.12613 -6.37049 0
M  V30 5817 O 483.867 -3.72827 -4.97879 0
M  V30 5818 C 482.677 -4.45085 -6.88694 0
M  V30 5819 O 482.287 -5.7877 -6.5624 0
M  V30 5820 C 481.797 -3.47817 -6.12078 0
M  V30 5821 C 482.507 -3.39414 -4.77697 0
M  V30 5822 N 482.457 -2.04615 -4.15333 0
M  V30 5823 H 485.296 -3.41248 -7.98759 0
M  V30 5824 H 485.568 -2.5837 -6.41742 0
M  V30 5825 H 484.7 -5.02657 -6.42673 0
M  V30 5826 P 480.737 -6.144 -6.45285 0
M  V30 5827 O 480.517 -7.54673 -6.86199 0
M  V30 5828 O 479.947 -5.12391 -7.179 0
M  V30 5829 O 480.487 -5.99158 -4.88404 0
M  V30 5830 C 481.427 -6.60234 -3.96415 0
M  V30 5831 C 480.697 -7.08259 -2.72856 0
M  V30 5832 O 480.487 -5.9427 -1.83651 0
M  V30 5833 C 479.297 -7.64886 -2.9555 0
M  V30 5834 O 478.907 -8.53963 -1.90717 0
M  V30 5835 C 478.417 -6.4116 -2.90739 0
M  V30 5836 C 479.127 -5.55375 -1.86963 0
M  V30 5837 N 479.077 -4.09664 -2.15742 0
M  V30 5838 H 481.916 -7.45574 -4.45629 0
M  V30 5839 H 482.188 -5.86232 -3.67314 0
M  V30 5840 H 481.32 -7.84412 -2.24479 0
M  V30 5841 P 477.357 -8.7635 -1.60911 0
M  V30 5842 O 477.137 -10.1388 -1.11561 0
M  V30 5843 O 476.567 -8.36503 -2.79617 0
M  V30 5844 O 477.107 -7.71806 -0.42951 0
M  V30 5845 C 478.047 -7.67148 0.673689 0
M  V30 5846 C 477.317 -7.33374 1.95559 0
M  V30 5847 O 477.107 -5.88721 2.00726 0
M  V30 5848 C 475.917 -7.92526 2.10483 0
M  V30 5849 O 475.527 -8.02971 3.47653 0
M  V30 5850 C 475.037 -6.89602 1.41652 0
M  V30 5851 C 475.747 -5.59201 1.75185 0
M  V30 5852 N 475.697 -4.58235 0.662552 0
M  V30 5853 H 478.536 -8.65116 0.777161 0
M  V30 5854 H 478.808 -6.90173 0.474152 0
M  V30 5855 H 477.94 -7.66548 2.79458 0
M  V30 5856 P 473.977 -8.03563 3.84925 0
M  V30 5857 O 473.757 -8.85821 5.0569 0
M  V30 5858 O 473.187 -8.41101 2.65469 0
M  V30 5859 O 473.727 -6.4965 4.18908 0
M  V30 5860 C 474.667 -5.81037 5.05421 0
M  V30 5861 C 473.937 -4.78366 5.89277 0
M  V30 5862 O 473.727 -3.58302 5.08433 0
M  V30 5863 C 472.537 -5.17448 6.36119 0
M  V30 5864 O 472.147 -4.45271 7.53232 0
M  V30 5865 C 471.657 -4.74639 5.19936 0
M  V30 5866 C 472.367 -3.49432 4.70418 0
M  V30 5867 N 472.317 -3.31776 3.22945 0
M  V30 5868 H 475.156 -6.54213 5.71376 0
M  V30 5869 H 475.428 -5.30492 4.44033 0
M  V30 5870 H 474.56 -4.55889 6.76652 0
M  V30 5871 P 470.597 -4.23843 7.83734 0
M  V30 5872 O 470.377 -4.19407 9.29784 0
M  V30 5873 O 469.807 -5.24426 7.09156 0
M  V30 5874 O 470.347 -2.7935 7.20758 0
M  V30 5875 C 471.287 -1.7299 7.50419 0
M  V30 5876 C 470.557 -0.406376 7.57911 0
M  V30 5877 O 470.347 0.0897726 6.21935 0
M  V30 5878 C 469.157 -0.447224 8.1878 0
M  V30 5879 O 468.767 0.825065 8.71101 0
M  V30 5880 C 468.277 -0.783801 6.99623 0
M  V30 5881 C 468.987 -0.0619192 5.85967 0
M  V30 5882 N 468.937 -0.7859 4.56281 0
M  V30 5883 H 471.776 -1.93423 8.4679 0
M  V30 5884 H 472.048 -1.68181 6.71046 0
M  V30 5885 H 471.18 0.289041 8.15388 0
M  V30 5886 P 467.217 1.17771 8.83182 0
M  V30 5887 O 466.997 2.07206 9.98732 0
M  V30 5888 O 466.427 -0.0743816 8.81969 0
M  V30 5889 O 466.967 1.97652 7.47304 0
M  V30 5890 C 467.907 3.01133 7.08783 0
M  V30 5891 C 467.177 4.12613 6.37049 0
M  V30 5892 O 466.967 3.72827 4.97879 0
M  V30 5893 C 465.777 4.45085 6.88694 0
M  V30 5894 O 465.387 5.7877 6.5624 0
M  V30 5895 C 464.897 3.47817 6.12078 0
M  V30 5896 C 465.607 3.39414 4.77697 0
M  V30 5897 N 465.557 2.04615 4.15333 0
M  V30 5898 H 468.396 3.41248 7.98759 0
M  V30 5899 H 468.668 2.5837 6.41742 0
M  V30 5900 H 467.8 5.02657 6.42673 0
M  V30 5901 P 463.837 6.144 6.45285 0
M  V30 5902 O 463.617 7.54673 6.86199 0
M  V30 5903 O 463.047 5.12391 7.179 0
M  V30 5904 O 463.587 5.99158 4.88404 0
M  V30 5905 C 464.527 6.60234 3.96415 0
M  V30 5906 C 463.797 7.08259 2.72856 0
M  V30 5907 O 463.587 5.9427 1.83651 0
M  V30 5908 C 462.397 7.64886 2.9555 0
M  V30 5909 O 462.007 8.53963 1.90717 0
M  V30 5910 C 461.517 6.4116 2.90739 0
M  V30 5911 C 462.227 5.55375 1.86963 0
M  V30 5912 N 462.177 4.09664 2.15742 0
M  V30 5913 H 465.016 7.45574 4.45629 0
M  V30 5914 H 465.288 5.86232 3.67314 0
M  V30 5915 H 464.42 7.84412 2.24479 0
M  V30 5916 P 460.457 8.7635 1.60911 0
M  V30 5917 O 460.237 10.1388 1.11561 0
M  V30 5918 O 459.667 8.36503 2.79617 0
M  V30 5919 O 460.207 7.71906 0.429565 0
M  V30 5920 C 461.147 7.67148 -0.673689 0
M  V30 5921 C 460.417 7.33666 -1.94851 0
M  V30 5922 O 460.207 5.88816 -2.00759 0
M  V30 5923 C 459.017 7.92526 -2.10483 0
M  V30 5924 O 458.627 8.03063 -3.47693 0
M  V30 5925 C 458.137 6.89602 -1.41652 0
M  V30 5926 C 458.847 5.59201 -1.75185 0
M  V30 5927 N 458.797 4.58235 -0.662552 0
M  V30 5928 C 458.647 3.24451 -1.01643 0
M  V30 5929 O 458.557 2.94958 -2.21722 0
M  V30 5930 N 458.597 2.30408 0.165238 0
M  V30 5931 C 458.697 2.66048 1.25118 0
M  V30 5932 N 458.647 1.70787 2.16813 0
M  V30 5933 C 458.847 4.02732 1.64413 0
M  V30 5934 C 458.897 4.9488 0.63991 0
M  V30 5935 H 461.637 8.65017 -0.777072 0
M  V30 5936 H 461.907 6.90173 -0.474152 0
M  V30 5937 H 461.04 7.66642 -2.79492 0
M  V30 5938 H 458.385 5.16254 -2.65229 0
M  V30 5939 H 458.105 7.06532 -0.329431 0
M  V30 5940 H 457.114 6.91023 -1.82047 0
M  V30 5941 H 458.948 8.90873 -1.62657 0
M  V30 5942 H 459.02 6.00104 0.892197 0
M  V30 5943 H 458.918 4.31733 2.69229 0
M  V30 5944 H 458.53 0.724835 1.8844 0
M  V30 5945 H 458.726 1.94716 3.16734 0
M  V30 5946 P 457.077 8.03563 -3.84925 0
M  V30 5947 O 456.857 8.85821 -5.0569 0
M  V30 5948 O 456.287 8.41101 -2.65469 0
M  V30 5949 O 456.827 6.4965 -4.18908 0
M  V30 5950 C 457.767 5.80886 -5.05289 0
M  V30 5951 C 457.037 4.78366 -5.89277 0
M  V30 5952 O 456.827 3.58302 -5.08433 0
M  V30 5953 C 455.637 5.16748 -6.36559 0
M  V30 5954 O 455.247 4.45271 -7.53232 0
M  V30 5955 C 454.757 4.74572 -5.19863 0
M  V30 5956 C 455.467 3.49373 -4.70338 0
M  V30 5957 N 455.417 3.31704 -3.22876 0
M  V30 5958 C 455.267 2.03326 -2.74871 0
M  V30 5959 O 455.177 1.06486 -3.48076 0
M  V30 5960 N 455.227 1.91838 -1.37456 0
M  V30 5961 C 455.317 2.94295 -0.462035 0
M  V30 5962 C 455.467 4.25064 -1.05249 0
M  V30 5963 C 455.517 4.40214 -2.39192 0
M  V30 5964 H 458.258 6.54063 -5.71245 0
M  V30 5965 H 458.527 5.30339 -4.43905 0
M  V30 5966 H 457.66 4.55889 -6.76652 0
M  V30 5967 H 455.005 2.6167 -5.17842 0
M  V30 5968 H 454.726 5.52155 -4.41878 0
M  V30 5969 H 453.734 4.51918 -5.53297 0
M  V30 5970 H 455.568 6.25055 -6.55162 0
M  V30 5971 H 455.639 5.39798 -2.81523 0
M  V30 5972 P 453.697 4.23843 -7.83734 0
M  V30 5973 O 453.477 4.19407 -9.29784 0
M  V30 5974 O 452.907 5.24426 -7.09156 0
M  V30 5975 O 453.447 2.7935 -7.20758 0
M  V30 5976 C 454.387 1.7299 -7.50419 0
M  V30 5977 C 453.657 0.406376 -7.57911 0
M  V30 5978 O 453.447 -0.0897726 -6.21935 0
M  V30 5979 C 452.257 0.447224 -8.1878 0
M  V30 5980 O 451.867 -0.825065 -8.71101 0
M  V30 5981 C 451.377 0.783801 -6.99623 0
M  V30 5982 C 452.087 0.0619192 -5.85967 0
M  V30 5983 N 452.037 0.7859 -4.56281 0
M  V30 5984 H 454.876 1.93423 -8.4679 0
M  V30 5985 H 455.148 1.68181 -6.71046 0
M  V30 5986 H 454.28 -0.289041 -8.15388 0
M  V30 5987 P 450.317 -1.17771 -8.83182 0
M  V30 5988 O 450.097 -2.07206 -9.98732 0
M  V30 5989 O 449.527 0.0743816 -8.81969 0
M  V30 5990 O 450.067 -1.97652 -7.47304 0
M  V30 5991 C 451.007 -3.01055 -7.08599 0
M  V30 5992 C 450.277 -4.12613 -6.37049 0
M  V30 5993 O 450.067 -3.72827 -4.97879 0
M  V30 5994 C 448.877 -4.45719 -6.88164 0
M  V30 5995 O 448.487 -5.7877 -6.5624 0
M  V30 5996 C 447.997 -3.47768 -6.11991 0
M  V30 5997 C 448.707 -3.39356 -4.77615 0
M  V30 5998 N 448.657 -2.04571 -4.15244 0
M  V30 5999 C 448.507 -1.98587 -2.78314 0
M  V30 6000 O 448.417 -2.98134 -2.08835 0
M  V30 6001 N 448.467 -0.714467 -2.24925 0
M  V30 6002 C 448.557 0.470001 -2.94169 0
M  V30 6003 O 448.507 1.55587 -2.35195 0
M  V30 6004 C 448.707 0.312541 -4.36783 0
M  V30 6005 C 448.817 1.57711 -5.16352 0
M  V30 6006 C 448.757 -0.914512 -4.92583 0
M  V30 6007 H 451.498 -3.41169 -7.98575 0
M  V30 6008 H 451.767 -2.58295 -6.41556 0
M  V30 6009 H 450.9 -5.02657 -6.42673 0
M  V30 6010 H 448.245 -4.11637 -4.08885 0
M  V30 6011 H 447.966 -2.49626 -6.61679 0
M  V30 6012 H 446.974 -3.86566 -6.00778 0
M  V30 6013 H 448.808 -4.29943 -7.96918 0
M  V30 6014 H 448.879 -1.00937 -6.00374 0
M  V30 6015 H 447.849 1.80153 -5.63503 0
M  V30 6016 H 449.586 1.4566 -5.94104 0
M  V30 6017 H 449.098 2.40664 -4.49645 0
M  V30 6018 H 448.362 -0.647622 -1.25697 0
M  V30 6019 P 446.937 -6.144 -6.45285 0
M  V30 6020 O 446.717 -7.54673 -6.86199 0
M  V30 6021 O 446.147 -5.12391 -7.179 0
M  V30 6022 O 446.687 -5.99236 -4.88467 0
M  V30 6023 C 447.627 -6.60234 -3.96415 0
M  V30 6024 C 446.897 -7.08079 -2.736 0
M  V30 6025 O 446.687 -5.94365 -1.8368 0
M  V30 6026 C 445.497 -7.64886 -2.9555 0
M  V30 6027 O 445.107 -8.5406 -1.90739 0
M  V30 6028 C 444.617 -6.4116 -2.90739 0
M  V30 6029 C 445.327 -5.55375 -1.86963 0
M  V30 6030 N 445.277 -4.09664 -2.15742 0
M  V30 6031 C 445.127 -3.22231 -1.08477 0
M  V30 6032 O 445.037 -3.68951 0.0600489 0
M  V30 6033 N 445.077 -1.76692 -1.48799 0
M  V30 6034 C 445.177 -1.41695 -2.57602 0
M  V30 6035 N 445.127 -0.107296 -2.75791 0
M  V30 6036 C 445.327 -2.29178 -3.69733 0
M  V30 6037 C 445.377 -3.62753 -3.42653 0
M  V30 6038 H 448.117 -7.45488 -4.45578 0
M  V30 6039 H 448.387 -5.86232 -3.67314 0
M  V30 6040 H 447.52 -7.84508 -2.24507 0
M  V30 6041 H 444.865 -5.73556 -0.888715 0
M  V30 6042 H 444.585 -5.9096 -3.88638 0
M  V30 6043 H 443.594 -6.66053 -2.58894 0
M  V30 6044 H 445.428 -8.16339 -3.92049 0
M  V30 6045 H 445.5 -4.33052 -4.24913 0
M  V30 6046 H 445.398 -1.9103 -4.71577 0
M  V30 6047 H 445.01 0.521221 -1.95056 0
M  V30 6048 H 445.206 0.286429 -3.70695 0
M  V30 6049 P 443.557 -8.7635 -1.60911 0
M  V30 6050 O 443.337 -10.1388 -1.11561 0
M  V30 6051 O 442.767 -8.36503 -2.79617 0
M  V30 6052 O 443.307 -7.71906 -0.429565 0
M  V30 6053 C 444.247 -7.67148 0.673689 0
M  V30 6054 C 443.517 -7.33666 1.94851 0
M  V30 6055 O 443.307 -5.88816 2.00759 0
M  V30 6056 C 442.117 -7.92526 2.10483 0
M  V30 6057 O 441.727 -8.03063 3.47693 0
M  V30 6058 C 441.237 -6.89602 1.41652 0
M  V30 6059 C 441.947 -5.59201 1.75185 0
M  V30 6060 N 441.897 -4.58235 0.662552 0
M  V30 6061 C 441.747 -3.24451 1.01643 0
M  V30 6062 O 441.657 -2.94958 2.21722 0
M  V30 6063 N 441.697 -2.30408 -0.165238 0
M  V30 6064 C 441.797 -2.66048 -1.25118 0
M  V30 6065 N 441.747 -1.70787 -2.16813 0
M  V30 6066 C 441.947 -4.02732 -1.64413 0
M  V30 6067 C 441.997 -4.9488 -0.63991 0
M  V30 6068 H 444.737 -8.65017 0.777072 0
M  V30 6069 H 445.007 -6.90173 0.474152 0
M  V30 6070 H 444.14 -7.66642 2.79492 0
M  V30 6071 H 441.485 -5.16254 2.65229 0
M  V30 6072 H 441.205 -7.06532 0.329431 0
M  V30 6073 H 440.214 -6.91023 1.82047 0
M  V30 6074 H 442.048 -8.90873 1.62657 0
M  V30 6075 H 442.12 -6.00104 -0.892197 0
M  V30 6076 H 442.018 -4.31733 -2.69229 0
M  V30 6077 H 441.63 -0.724835 -1.8844 0
M  V30 6078 H 441.826 -1.94716 -3.16734 0
M  V30 6079 P 440.177 -8.03563 3.84925 0
M  V30 6080 O 439.957 -8.85821 5.0569 0
M  V30 6081 O 439.387 -8.41101 2.65469 0
M  V30 6082 O 439.927 -6.4965 4.18908 0
M  V30 6083 C 440.867 -5.81037 5.05421 0
M  V30 6084 C 440.137 -4.78366 5.89277 0
M  V30 6085 O 439.927 -3.58302 5.08433 0
M  V30 6086 C 438.737 -5.17448 6.36119 0
M  V30 6087 O 438.347 -4.45271 7.53232 0
M  V30 6088 C 437.857 -4.74639 5.19936 0
M  V30 6089 C 438.567 -3.49432 4.70418 0
M  V30 6090 N 438.517 -3.31776 3.22945 0
M  V30 6091 H 441.356 -6.54213 5.71376 0
M  V30 6092 H 441.628 -5.30492 4.44033 0
M  V30 6093 H 440.76 -4.55889 6.76652 0
M  V30 6094 P 436.797 -4.23843 7.83734 0
M  V30 6095 O 436.577 -4.19407 9.29784 0
M  V30 6096 O 436.007 -5.24426 7.09156 0
M  V30 6097 O 436.547 -2.7935 7.20758 0
M  V30 6098 C 437.487 -1.72945 7.50224 0
M  V30 6099 C 436.757 -0.406376 7.57911 0
M  V30 6100 O 436.547 0.0897726 6.21935 0
M  V30 6101 C 435.357 -0.438983 8.18724 0
M  V30 6102 O 434.967 0.825065 8.71101 0
M  V30 6103 C 434.477 -0.783689 6.99524 0
M  V30 6104 C 435.187 -0.0619086 5.85867 0
M  V30 6105 N 435.137 -0.78573 4.56183 0
M  V30 6106 C 434.987 -0.0292889 3.41887 0
M  V30 6107 O 434.897 1.18445 3.4419 0
M  V30 6108 N 434.947 -0.744061 2.23964 0
M  V30 6109 C 435.037 -2.10932 2.10362 0
M  V30 6110 O 434.987 -2.64117 0.98825 0
M  V30 6111 C 435.187 -2.8202 3.34994 0
M  V30 6112 C 435.297 -4.31095 3.25037 0
M  V30 6113 C 435.237 -2.15547 4.52261 0
M  V30 6114 H 437.978 -1.93379 8.46595 0
M  V30 6115 H 438.247 -1.68132 6.70852 0
M  V30 6116 H 437.38 0.289041 8.15388 0
M  V30 6117 H 434.725 0.926847 5.72749 0
M  V30 6118 H 434.446 -1.86973 6.82036 0
M  V30 6119 H 433.454 -0.403896 7.13257 0
M  V30 6120 H 435.288 -1.20585 8.97435 0
M  V30 6121 H 435.359 -2.71231 5.45042 0
M  V30 6122 H 434.329 -4.76966 3.49992 0
M  V30 6123 H 436.066 -4.67047 3.95024 0
M  V30 6124 H 435.578 -4.58996 2.22312 0
M  V30 6125 H 434.842 -0.214893 1.39758 0
M  V30 6126 P 433.417 1.17771 8.83182 0
M  V30 6127 O 433.197 2.07206 9.98732 0
M  V30 6128 O 432.627 -0.0743816 8.81969 0
M  V30 6129 O 433.167 1.97652 7.47304 0
M  V30 6130 C 434.107 3.01055 7.08599 0
M  V30 6131 C 433.377 4.12613 6.37049 0
M  V30 6132 O 433.167 3.72827 4.97879 0
M  V30 6133 C 431.977 4.45719 6.88164 0
M  V30 6134 O 431.587 5.7877 6.5624 0
M  V30 6135 C 431.097 3.47768 6.11991 0
M  V30 6136 C 431.807 3.39356 4.77615 0
M  V30 6137 N 431.757 2.04571 4.15244 0
M  V30 6138 C 431.607 1.98587 2.78314 0
M  V30 6139 O 431.517 2.98134 2.08835 0
M  V30 6140 N 431.567 0.714467 2.24925 0
M  V30 6141 C 431.657 -0.470001 2.94169 0
M  V30 6142 C 431.807 -0.312541 4.36783 0
M  V30 6143 C 431.857 0.914512 4.92583 0
M  V30 6144 H 434.598 3.41169 7.98575 0
M  V30 6145 H 434.867 2.58295 6.41556 0
M  V30 6146 H 434 5.02657 6.42673 0
M  V30 6147 H 431.345 4.11637 4.08885 0
M  V30 6148 H 431.066 2.49626 6.61679 0
M  V30 6149 H 430.074 3.86566 6.00778 0
M  V30 6150 H 431.908 4.29943 7.96918 0
M  V30 6151 H 431.979 1.00937 6.00374 0
M  V30 6152 P 430.037 6.144 6.45285 0
M  V30 6153 O 429.817 7.54673 6.86199 0
M  V30 6154 O 429.247 5.12391 7.179 0
M  V30 6155 O 429.787 5.99158 4.88404 0
M  V30 6156 C 430.727 6.60062 3.96313 0
M  V30 6157 C 429.997 7.08259 2.72856 0
M  V30 6158 O 429.787 5.9427 1.83651 0
M  V30 6159 C 428.597 7.65087 2.94749 0
M  V30 6160 O 428.207 8.53963 1.90717 0
M  V30 6161 C 427.717 6.41069 2.90698 0
M  V30 6162 C 428.427 5.5528 1.86931 0
M  V30 6163 N 428.377 4.09575 2.15696 0
M  V30 6164 C 428.227 3.24249 1.08435 0
M  V30 6165 O 428.137 3.63946 -0.0628747 0
M  V30 6166 N 428.187 1.90009 1.39973 0
M  V30 6167 C 428.277 1.34884 2.65614 0
M  V30 6168 O 428.227 0.123716 2.81728 0
M  V30 6169 C 428.427 2.3145 3.71736 0
M  V30 6170 C 428.537 1.75913 5.10438 0
M  V30 6171 C 428.477 3.63518 3.44754 0
M  V30 6172 H 431.218 7.45402 4.45526 0
M  V30 6173 H 431.487 5.86062 3.67208 0
M  V30 6174 H 430.62 7.84412 2.24479 0
M  V30 6175 H 427.965 5.73358 0.888409 0
M  V30 6176 H 427.686 5.90877 3.88583 0
M  V30 6177 H 426.694 6.65867 2.58821 0
M  V30 6178 H 428.528 8.16248 3.92006 0
M  V30 6179 H 428.599 4.34551 4.26383 0
M  V30 6180 H 427.569 1.85471 5.61775 0
M  V30 6181 H 429.306 2.31364 5.66257 0
M  V30 6182 H 428.818 0.695936 5.05229 0
M  V30 6183 H 428.082 1.26277 0.63625 0
M  V30 6184 P 426.657 8.7635 1.60911 0
M  V30 6185 O 426.437 10.1388 1.11561 0
M  V30 6186 O 425.867 8.36503 2.79617 0
M  V30 6187 O 426.407 7.71806 0.42951 0
M  V30 6188 C 427.347 7.66948 -0.673514 0
M  V30 6189 C 426.617 7.33374 -1.95559 0
M  V30 6190 O 426.407 5.88721 -2.00726 0
M  V30 6191 C 425.217 7.92218 -2.1125 0
M  V30 6192 O 424.827 8.02971 -3.47653 0
M  V30 6193 C 424.337 6.89504 -1.41631 0
M  V30 6194 C 425.047 5.59106 -1.75155 0
M  V30 6195 N 424.997 4.58136 -0.662409 0
M  V30 6196 C 424.847 3.26059 -1.02863 0
M  V30 6197 O 424.757 2.90743 -2.19009 0
M  V30 6198 N 424.807 2.35995 0.0155585 0
M  V30 6199 C 424.897 2.65248 1.35603 0
M  V30 6200 O 424.847 1.75605 2.20651 0
M  V30 6201 C 425.047 4.05747 1.64698 0
M  V30 6202 C 425.157 4.42345 3.09553 0
M  V30 6203 C 425.097 4.96734 0.652411 0
M  V30 6204 H 427.838 8.64917 -0.776982 0
M  V30 6205 H 428.107 6.89974 -0.474015 0
M  V30 6206 H 427.24 7.66548 -2.79458 0
M  V30 6207 H 424.585 5.16076 -2.65138 0
M  V30 6208 H 424.306 7.06433 -0.329384 0
M  V30 6209 H 423.314 6.90829 -1.81996 0
M  V30 6210 H 425.148 8.90774 -1.62639 0
M  V30 6211 H 425.219 6.02181 0.895285 0
M  V30 6212 H 424.189 4.80252 3.45468 0
M  V30 6213 H 425.926 5.20015 3.22119 0
M  V30 6214 H 425.438 3.53269 3.67833 0
M  V30 6215 H 424.702 1.39558 -0.227499 0
M  V30 6216 P 423.278 8.03563 -3.84925 0
M  V30 6217 O 423.058 8.85821 -5.0569 0
M  V30 6218 O 422.488 8.41101 -2.65469 0
M  V30 6219 O 423.028 6.4965 -4.18908 0
M  V30 6220 C 423.968 5.81037 -5.05421 0
M  V30 6221 C 423.238 4.78366 -5.89277 0
M  V30 6222 O 423.028 3.58302 -5.08433 0
M  V30 6223 C 421.838 5.17448 -6.36119 0
M  V30 6224 O 421.448 4.45271 -7.53232 0
M  V30 6225 C 420.958 4.74639 -5.19936 0
M  V30 6226 C 421.668 3.49432 -4.70418 0
M  V30 6227 N 421.618 3.32099 -3.22613 0
M  V30 6228 H 424.457 6.54213 -5.71376 0
M  V30 6229 H 424.729 5.30936 -4.43503 0
M  V30 6230 H 423.861 4.55889 -6.76652 0
M  V30 6231 H 421.206 2.61715 -5.17932 0
M  V30 6232 H 420.926 5.52155 -4.41878 0
M  V30 6233 H 419.935 4.51981 -5.53374 0
M  V30 6234 H 421.769 6.25124 -6.55234 0
M  V30 6235 P 419.898 4.23843 -7.83734 0
M  V30 6236 O 419.678 4.19407 -9.29784 0
M  V30 6237 O 419.108 5.24426 -7.09156 0
M  V30 6238 O 419.648 2.7935 -7.20758 0
M  V30 6239 C 420.588 1.7299 -7.50419 0
M  V30 6240 C 419.858 0.406376 -7.57911 0
M  V30 6241 O 419.648 -0.0897726 -6.21935 0
M  V30 6242 C 418.458 0.447224 -8.1878 0
M  V30 6243 O 418.068 -0.825065 -8.71101 0
M  V30 6244 C 417.578 0.783801 -6.99623 0
M  V30 6245 C 418.288 0.0619192 -5.85967 0
M  V30 6246 N 418.238 0.7859 -4.56281 0
M  V30 6247 H 421.077 1.93423 -8.4679 0
M  V30 6248 H 421.349 1.68181 -6.71046 0
M  V30 6249 H 420.481 -0.289041 -8.15388 0
M  V30 6250 P 416.518 -1.17771 -8.83182 0
M  V30 6251 O 416.298 -2.07206 -9.98732 0
M  V30 6252 O 415.728 0.0743816 -8.81969 0
M  V30 6253 O 416.268 -1.97652 -7.47304 0
M  V30 6254 C 417.208 -3.01133 -7.08783 0
M  V30 6255 C 416.478 -4.12613 -6.37049 0
M  V30 6256 O 416.268 -3.72827 -4.97879 0
M  V30 6257 C 415.078 -4.45085 -6.88694 0
M  V30 6258 O 414.688 -5.7877 -6.5624 0
M  V30 6259 C 414.198 -3.47817 -6.12078 0
M  V30 6260 C 414.908 -3.39414 -4.77697 0
M  V30 6261 N 414.858 -2.04615 -4.15333 0
M  V30 6262 H 417.697 -3.41248 -7.98759 0
M  V30 6263 H 417.969 -2.5837 -6.41742 0
M  V30 6264 H 417.101 -5.02657 -6.42673 0
M  V30 6265 P 413.138 -6.144 -6.45285 0
M  V30 6266 O 412.918 -7.54673 -6.86199 0
M  V30 6267 O 412.348 -5.12391 -7.179 0
M  V30 6268 O 412.888 -5.99236 -4.88467 0
M  V30 6269 C 413.828 -6.60234 -3.96415 0
M  V30 6270 C 413.098 -7.08079 -2.736 0
M  V30 6271 O 412.888 -5.94365 -1.8368 0
M  V30 6272 C 411.698 -7.64886 -2.9555 0
M  V30 6273 O 411.308 -8.5406 -1.90739 0
M  V30 6274 C 410.818 -6.4116 -2.90739 0
M  V30 6275 C 411.528 -5.55375 -1.86963 0
M  V30 6276 N 411.478 -4.09664 -2.15742 0
M  V30 6277 C 411.328 -3.22231 -1.08477 0
M  V30 6278 O 411.238 -3.68951 0.0600489 0
M  V30 6279 N 411.278 -1.76692 -1.48799 0
M  V30 6280 C 411.378 -1.41695 -2.57602 0
M  V30 6281 N 411.328 -0.107296 -2.75791 0
M  V30 6282 C 411.528 -2.29178 -3.69733 0
M  V30 6283 C 411.578 -3.62753 -3.42653 0
M  V30 6284 H 414.318 -7.45488 -4.45578 0
M  V30 6285 H 414.588 -5.86232 -3.67314 0
M  V30 6286 H 413.721 -7.84508 -2.24507 0
M  V30 6287 H 411.066 -5.73556 -0.888715 0
M  V30 6288 H 410.786 -5.9096 -3.88638 0
M  V30 6289 H 409.795 -6.66053 -2.58894 0
M  V30 6290 H 411.629 -8.16339 -3.92049 0
M  V30 6291 H 411.701 -4.33052 -4.24913 0
M  V30 6292 H 411.599 -1.9103 -4.71577 0
M  V30 6293 H 411.211 0.521221 -1.95056 0
M  V30 6294 H 411.407 0.286429 -3.70695 0
M  V30 6295 P 409.758 -8.7635 -1.60911 0
M  V30 6296 O 409.538 -10.1388 -1.11561 0
M  V30 6297 O 408.968 -8.36503 -2.79617 0
M  V30 6298 O 409.508 -7.71806 -0.42951 0
M  V30 6299 C 410.448 -7.66948 0.673514 0
M  V30 6300 C 409.718 -7.33374 1.95559 0
M  V30 6301 O 409.508 -5.88721 2.00726 0
M  V30 6302 C 408.318 -7.92218 2.1125 0
M  V30 6303 O 407.928 -8.02971 3.47653 0
M  V30 6304 C 407.438 -6.89504 1.41631 0
M  V30 6305 C 408.148 -5.59106 1.75155 0
M  V30 6306 N 408.098 -4.58136 0.662409 0
M  V30 6307 C 407.948 -3.26059 1.02863 0
M  V30 6308 O 407.858 -2.90743 2.19009 0
M  V30 6309 N 407.908 -2.35995 -0.0155585 0
M  V30 6310 C 407.998 -2.65248 -1.35603 0
M  V30 6311 O 407.948 -1.75605 -2.20651 0
M  V30 6312 C 408.148 -4.05747 -1.64698 0
M  V30 6313 C 408.258 -4.42345 -3.09553 0
M  V30 6314 C 408.198 -4.96734 -0.652411 0
M  V30 6315 H 410.939 -8.64917 0.776982 0
M  V30 6316 H 411.208 -6.89974 0.474015 0
M  V30 6317 H 410.341 -7.66548 2.79458 0
M  V30 6318 H 407.686 -5.16076 2.65138 0
M  V30 6319 H 407.407 -7.06433 0.329384 0
M  V30 6320 H 406.415 -6.90829 1.81996 0
M  V30 6321 H 408.249 -8.90774 1.62639 0
M  V30 6322 H 408.32 -6.02181 -0.895285 0
M  V30 6323 H 407.29 -4.80252 -3.45468 0
M  V30 6324 H 409.027 -5.20015 -3.22119 0
M  V30 6325 H 408.539 -3.53269 -3.67833 0
M  V30 6326 H 407.803 -1.39558 0.227499 0
M  V30 6327 P 406.378 -8.03563 3.84925 0
M  V30 6328 O 406.158 -8.85821 5.0569 0
M  V30 6329 O 405.588 -8.41101 2.65469 0
M  V30 6330 O 406.128 -6.4965 4.18908 0
M  V30 6331 C 407.068 -5.81037 5.05421 0
M  V30 6332 C 406.338 -4.78366 5.89277 0
M  V30 6333 O 406.128 -3.58302 5.08433 0
M  V30 6334 C 404.938 -5.17448 6.36119 0
M  V30 6335 O 404.548 -4.45271 7.53232 0
M  V30 6336 C 404.058 -4.74639 5.19936 0
M  V30 6337 C 404.768 -3.49432 4.70418 0
M  V30 6338 N 404.718 -3.31776 3.22945 0
M  V30 6339 H 407.557 -6.54213 5.71376 0
M  V30 6340 H 407.829 -5.30492 4.44033 0
M  V30 6341 H 406.961 -4.55889 6.76652 0
M  V30 6342 P 402.998 -4.23843 7.83734 0
M  V30 6343 O 402.778 -4.19407 9.29784 0
M  V30 6344 O 402.208 -5.24426 7.09156 0
M  V30 6345 O 402.748 -2.7935 7.20758 0
M  V30 6346 C 403.688 -1.72945 7.50224 0
M  V30 6347 C 402.958 -0.406376 7.57911 0
M  V30 6348 O 402.748 0.0897726 6.21935 0
M  V30 6349 C 401.558 -0.438983 8.18724 0
M  V30 6350 O 401.168 0.825065 8.71101 0
M  V30 6351 C 400.678 -0.783689 6.99524 0
M  V30 6352 C 401.388 -0.0619086 5.85867 0
M  V30 6353 N 401.338 -0.78573 4.56183 0
M  V30 6354 C 401.188 -0.0292889 3.41887 0
M  V30 6355 O 401.098 1.18445 3.4419 0
M  V30 6356 N 401.148 -0.744061 2.23964 0
M  V30 6357 C 401.238 -2.10932 2.10362 0
M  V30 6358 O 401.188 -2.64117 0.98825 0
M  V30 6359 C 401.388 -2.8202 3.34994 0
M  V30 6360 C 401.498 -4.31095 3.25037 0
M  V30 6361 C 401.438 -2.15547 4.52261 0
M  V30 6362 H 404.179 -1.93379 8.46595 0
M  V30 6363 H 404.448 -1.68132 6.70852 0
M  V30 6364 H 403.581 0.289041 8.15388 0
M  V30 6365 H 400.926 0.926847 5.72749 0
M  V30 6366 H 400.647 -1.86973 6.82036 0
M  V30 6367 H 399.655 -0.403896 7.13257 0
M  V30 6368 H 401.489 -1.20585 8.97435 0
M  V30 6369 H 401.56 -2.71231 5.45042 0
M  V30 6370 H 400.53 -4.76966 3.49992 0
M  V30 6371 H 402.267 -4.67047 3.95024 0
M  V30 6372 H 401.779 -4.58996 2.22312 0
M  V30 6373 H 401.043 -0.214893 1.39758 0
M  V30 6374 P 399.618 1.17771 8.83182 0
M  V30 6375 O 399.398 2.07206 9.98732 0
M  V30 6376 O 398.828 -0.0743816 8.81969 0
M  V30 6377 O 399.368 1.97652 7.47304 0
M  V30 6378 C 400.308 3.01055 7.08599 0
M  V30 6379 C 399.578 4.12613 6.37049 0
M  V30 6380 O 399.368 3.72827 4.97879 0
M  V30 6381 C 398.178 4.45719 6.88164 0
M  V30 6382 O 397.788 5.7877 6.5624 0
M  V30 6383 C 397.298 3.47768 6.11991 0
M  V30 6384 C 398.008 3.39356 4.77615 0
M  V30 6385 N 397.958 2.04571 4.15244 0
M  V30 6386 C 397.808 1.98587 2.78314 0
M  V30 6387 O 397.718 2.98134 2.08835 0
M  V30 6388 N 397.768 0.714467 2.24925 0
M  V30 6389 C 397.858 -0.470001 2.94169 0
M  V30 6390 O 397.808 -1.55587 2.35195 0
M  V30 6391 C 398.008 -0.312541 4.36783 0
M  V30 6392 C 398.118 -1.57711 5.16352 0
M  V30 6393 C 398.058 0.914512 4.92583 0
M  V30 6394 H 400.799 3.41169 7.98575 0
M  V30 6395 H 401.068 2.58295 6.41556 0
M  V30 6396 H 400.201 5.02657 6.42673 0
M  V30 6397 H 397.546 4.11637 4.08885 0
M  V30 6398 H 397.267 2.49626 6.61679 0
M  V30 6399 H 396.275 3.86566 6.00778 0
M  V30 6400 H 398.109 4.29943 7.96918 0
M  V30 6401 H 398.18 1.00937 6.00374 0
M  V30 6402 H 397.15 -1.80153 5.63503 0
M  V30 6403 H 398.887 -1.4566 5.94104 0
M  V30 6404 H 398.399 -2.40664 4.49645 0
M  V30 6405 H 397.663 0.647622 1.25697 0
M  V30 6406 P 396.238 6.144 6.45285 0
M  V30 6407 O 396.018 7.54673 6.86199 0
M  V30 6408 O 395.448 5.12391 7.179 0
M  V30 6409 O 395.988 5.99158 4.88404 0
M  V30 6410 C 396.928 6.60234 3.96415 0
M  V30 6411 C 396.198 7.08259 2.72856 0
M  V30 6412 O 395.988 5.9427 1.83651 0
M  V30 6413 C 394.798 7.64886 2.9555 0
M  V30 6414 O 394.408 8.53963 1.90717 0
M  V30 6415 C 393.918 6.4116 2.90739 0
M  V30 6416 C 394.628 5.55375 1.86963 0
M  V30 6417 N 394.578 4.09664 2.15742 0
M  V30 6418 H 397.417 7.45574 4.45629 0
M  V30 6419 H 397.689 5.86232 3.67314 0
M  V30 6420 H 396.821 7.84412 2.24479 0
M  V30 6421 P 392.858 8.7635 1.60911 0
M  V30 6422 O 392.638 10.1388 1.11561 0
M  V30 6423 O 392.068 8.36503 2.79617 0
M  V30 6424 O 392.608 7.71806 0.42951 0
M  V30 6425 C 393.548 7.67148 -0.673689 0
M  V30 6426 C 392.818 7.33374 -1.95559 0
M  V30 6427 O 392.608 5.88721 -2.00726 0
M  V30 6428 C 391.418 7.92526 -2.10483 0
M  V30 6429 O 391.028 8.02971 -3.47653 0
M  V30 6430 C 390.538 6.89602 -1.41652 0
M  V30 6431 C 391.248 5.59201 -1.75185 0
M  V30 6432 N 391.198 4.58235 -0.662552 0
M  V30 6433 H 394.037 8.65116 -0.777161 0
M  V30 6434 H 394.309 6.90173 -0.474152 0
M  V30 6435 H 393.441 7.66548 -2.79458 0
M  V30 6436 P 389.478 8.03563 -3.84925 0
M  V30 6437 O 389.258 8.85821 -5.0569 0
M  V30 6438 O 388.688 8.41101 -2.65469 0
M  V30 6439 O 389.228 6.4965 -4.18908 0
M  V30 6440 C 390.168 5.81037 -5.05421 0
M  V30 6441 C 389.438 4.78366 -5.89277 0
M  V30 6442 O 389.228 3.58302 -5.08433 0
M  V30 6443 C 388.038 5.17448 -6.36119 0
M  V30 6444 O 387.648 4.45271 -7.53232 0
M  V30 6445 C 387.158 4.74639 -5.19936 0
M  V30 6446 C 387.868 3.49432 -4.70418 0
M  V30 6447 N 387.818 3.31776 -3.22945 0
M  V30 6448 H 390.657 6.54213 -5.71376 0
M  V30 6449 H 390.929 5.30492 -4.44033 0
M  V30 6450 H 390.061 4.55889 -6.76652 0
M  V30 6451 P 386.098 4.23843 -7.83734 0
M  V30 6452 O 385.878 4.19407 -9.29784 0
M  V30 6453 O 385.308 5.24426 -7.09156 0
M  V30 6454 O 385.848 2.7935 -7.20758 0
M  V30 6455 C 386.788 1.7299 -7.50419 0
M  V30 6456 C 386.058 0.406376 -7.57911 0
M  V30 6457 O 385.848 -0.0897726 -6.21935 0
M  V30 6458 C 384.658 0.447224 -8.1878 0
M  V30 6459 O 384.268 -0.825065 -8.71101 0
M  V30 6460 C 383.778 0.783801 -6.99623 0
M  V30 6461 C 384.488 0.0619192 -5.85967 0
M  V30 6462 N 384.438 0.7859 -4.56281 0
M  V30 6463 C 384.518 2.14308 -4.31736 0
M  V30 6464 N 384.438 2.46106 -3.05116 0
M  V30 6465 C 384.298 1.23422 -2.4014 0
M  V30 6466 C 384.168 0.938381 -1.02409 0
M  V30 6467 N 384.048 -0.444647 -0.805413 0
M  V30 6468 C 384.048 -1.40829 -1.79435 0
M  V30 6469 N 383.918 -2.67213 -1.38558 0
M  V30 6470 N 384.178 -1.12947 -3.09005 0
M  V30 6471 C 384.298 0.204887 -3.32369 0
M  V30 6472 H 387.277 1.93423 -8.4679 0
M  V30 6473 H 387.549 1.68181 -6.71046 0
M  V30 6474 H 386.681 -0.289041 -8.15388 0
M  V30 6475 P 382.718 -1.17771 -8.83182 0
M  V30 6476 O 382.498 -2.07206 -9.98732 0
M  V30 6477 O 381.928 0.0743816 -8.81969 0
M  V30 6478 O 382.468 -1.97652 -7.47304 0
M  V30 6479 C 383.408 -3.01133 -7.08783 0
M  V30 6480 C 382.678 -4.12613 -6.37049 0
M  V30 6481 O 382.468 -3.72827 -4.97879 0
M  V30 6482 C 381.278 -4.45085 -6.88694 0
M  V30 6483 O 380.888 -5.7877 -6.5624 0
M  V30 6484 C 380.398 -3.47817 -6.12078 0
M  V30 6485 C 381.108 -3.39414 -4.77697 0
M  V30 6486 N 381.058 -2.04199 -4.15538 0
M  V30 6487 H 383.897 -3.41248 -7.98759 0
M  V30 6488 H 384.169 -2.57728 -6.42 0
M  V30 6489 H 383.301 -5.02657 -6.42673 0
M  V30 6490 H 380.646 -4.11708 -4.08956 0
M  V30 6491 H 380.366 -2.49626 -6.61679 0
M  V30 6492 H 379.375 -3.8662 -6.00862 0
M  V30 6493 H 381.209 -4.29991 -7.97006 0
M  V30 6494 P 379.338 -6.144 -6.45285 0
M  V30 6495 O 379.118 -7.54673 -6.86199 0
M  V30 6496 O 378.548 -5.12391 -7.179 0
M  V30 6497 O 379.088 -5.99158 -4.88404 0
M  V30 6498 C 380.028 -6.60234 -3.96415 0
M  V30 6499 C 379.298 -7.08259 -2.72856 0
M  V30 6500 O 379.088 -5.9427 -1.83651 0
M  V30 6501 C 377.898 -7.64886 -2.9555 0
M  V30 6502 O 377.508 -8.53963 -1.90717 0
M  V30 6503 C 377.018 -6.4116 -2.90739 0
M  V30 6504 C 377.728 -5.55375 -1.86963 0
M  V30 6505 N 377.678 -4.09664 -2.15742 0
M  V30 6506 H 380.517 -7.45574 -4.45629 0
M  V30 6507 H 380.789 -5.86232 -3.67314 0
M  V30 6508 H 379.921 -7.84412 -2.24479 0
M  V30 6509 P 375.958 -8.7635 -1.60911 0
M  V30 6510 O 375.738 -10.1388 -1.11561 0
M  V30 6511 O 375.168 -8.36503 -2.79617 0
M  V30 6512 O 375.708 -7.71806 -0.42951 0
M  V30 6513 C 376.648 -7.67148 0.673689 0
M  V30 6514 C 375.918 -7.33374 1.95559 0
M  V30 6515 O 375.708 -5.88721 2.00726 0
M  V30 6516 C 374.518 -7.92526 2.10483 0
M  V30 6517 O 374.128 -8.02971 3.47653 0
M  V30 6518 C 373.638 -6.89602 1.41652 0
M  V30 6519 C 374.348 -5.59201 1.75185 0
M  V30 6520 N 374.298 -4.58235 0.662552 0
M  V30 6521 H 377.137 -8.65116 0.777161 0
M  V30 6522 H 377.409 -6.90173 0.474152 0
M  V30 6523 H 376.541 -7.66548 2.79458 0
M  V30 6524 P 372.578 -8.03563 3.84925 0
M  V30 6525 O 372.358 -8.85821 5.0569 0
M  V30 6526 O 371.788 -8.41101 2.65469 0
M  V30 6527 O 372.328 -6.4965 4.18908 0
M  V30 6528 C 373.268 -5.81037 5.05421 0
M  V30 6529 C 372.538 -4.78366 5.89277 0
M  V30 6530 O 372.328 -3.58302 5.08433 0
M  V30 6531 C 371.138 -5.17448 6.36119 0
M  V30 6532 O 370.748 -4.45271 7.53232 0
M  V30 6533 C 370.258 -4.74639 5.19936 0
M  V30 6534 C 370.968 -3.49432 4.70418 0
M  V30 6535 N 370.918 -3.31776 3.22945 0
M  V30 6536 H 373.757 -6.54213 5.71376 0
M  V30 6537 H 374.029 -5.30492 4.44033 0
M  V30 6538 H 373.161 -4.55889 6.76652 0
M  V30 6539 P 369.198 -4.23843 7.83734 0
M  V30 6540 O 368.978 -4.19407 9.29784 0
M  V30 6541 O 368.408 -5.24426 7.09156 0
M  V30 6542 O 368.948 -2.79386 7.20852 0
M  V30 6543 C 369.888 -1.7299 7.50419 0
M  V30 6544 C 369.158 -0.41401 7.5797 0
M  V30 6545 O 368.948 0.089787 6.22035 0
M  V30 6546 C 367.758 -0.447224 8.1878 0
M  V30 6547 O 367.368 0.825159 8.71201 0
M  V30 6548 C 366.878 -0.783801 6.99623 0
M  V30 6549 C 367.588 -0.0619192 5.85967 0
M  V30 6550 N 367.538 -0.7859 4.56281 0
M  V30 6551 C 367.388 -0.0359258 3.39981 0
M  V30 6552 O 367.298 1.19723 3.49038 0
M  V30 6553 N 367.338 -0.869151 2.14025 0
M  V30 6554 C 367.438 -2.01207 2.14363 0
M  V30 6555 N 367.388 -2.58978 0.954287 0
M  V30 6556 C 367.588 -2.80817 3.32215 0
M  V30 6557 C 367.638 -2.13785 4.50884 0
M  V30 6558 H 370.378 -1.93401 8.46693 0
M  V30 6559 H 370.648 -1.68181 6.71046 0
M  V30 6560 H 369.781 0.289076 8.15488 0
M  V30 6561 H 367.126 0.927166 5.72947 0
M  V30 6562 H 366.846 -1.87 6.82132 0
M  V30 6563 H 365.855 -0.404009 7.13457 0
M  V30 6564 H 367.689 -1.20599 8.97534 0
M  V30 6565 H 367.761 -2.70295 5.43162 0
M  V30 6566 H 367.659 -3.89465 3.27406 0
M  V30 6567 H 367.271 -2.01616 0.107046 0
M  V30 6568 H 367.467 -3.61403 0.873101 0
M  V30 6569 P 365.818 1.17771 8.83182 0
M  V30 6570 O 365.598 2.07206 9.98732 0
M  V30 6571 O 365.028 -0.0743816 8.81969 0
M  V30 6572 O 365.568 1.97652 7.47304 0
M  V30 6573 C 366.508 3.01133 7.08783 0
M  V30 6574 C 365.778 4.12613 6.37049 0
M  V30 6575 O 365.568 3.72827 4.97879 0
M  V30 6576 C 364.378 4.45085 6.88694 0
M  V30 6577 O 363.988 5.7877 6.5624 0
M  V30 6578 C 363.498 3.47817 6.12078 0
M  V30 6579 C 364.208 3.39414 4.77697 0
M  V30 6580 N 364.158 2.04615 4.15333 0
M  V30 6581 H 366.997 3.41248 7.98759 0
M  V30 6582 H 367.269 2.5837 6.41742 0
M  V30 6583 H 366.401 5.02657 6.42673 0
M  V30 6584 P 362.438 6.144 6.45285 0
M  V30 6585 O 362.218 7.54673 6.86199 0
M  V30 6586 O 361.648 5.12391 7.179 0
M  V30 6587 O 362.188 5.99158 4.88404 0
M  V30 6588 C 363.128 6.60234 3.96415 0
M  V30 6589 C 362.398 7.08259 2.72856 0
M  V30 6590 O 362.188 5.9427 1.83651 0
M  V30 6591 C 360.998 7.64886 2.9555 0
M  V30 6592 O 360.608 8.53963 1.90717 0
M  V30 6593 C 360.118 6.4116 2.90739 0
M  V30 6594 C 360.828 5.55375 1.86963 0
M  V30 6595 N 360.778 4.09448 2.16152 0
M  V30 6596 H 363.617 7.45574 4.45629 0
M  V30 6597 H 363.889 5.85864 3.679 0
M  V30 6598 H 363.021 7.84412 2.24479 0
M  V30 6599 H 360.366 5.73457 0.888562 0
M  V30 6600 H 360.086 5.90877 3.88583 0
M  V30 6601 H 359.095 6.6596 2.58858 0
M  V30 6602 H 360.929 8.16339 3.92049 0
M  V30 6603 P 359.058 8.7635 1.60911 0
M  V30 6604 O 358.838 10.1388 1.11561 0
M  V30 6605 O 358.268 8.36503 2.79617 0
M  V30 6606 O 358.808 7.71806 0.42951 0
M  V30 6607 C 359.748 7.67148 -0.673689 0
M  V30 6608 C 359.018 7.33374 -1.95559 0
M  V30 6609 O 358.808 5.88721 -2.00726 0
M  V30 6610 C 357.618 7.92526 -2.10483 0
M  V30 6611 O 357.228 8.02971 -3.47653 0
M  V30 6612 C 356.738 6.89602 -1.41652 0
M  V30 6613 C 357.448 5.59201 -1.75185 0
M  V30 6614 N 357.398 4.58235 -0.662552 0
M  V30 6615 H 360.237 8.65116 -0.777161 0
M  V30 6616 H 360.509 6.90173 -0.474152 0
M  V30 6617 H 359.641 7.66548 -2.79458 0
M  V30 6618 P 355.678 8.03563 -3.84925 0
M  V30 6619 O 355.458 8.85821 -5.0569 0
M  V30 6620 O 354.888 8.41101 -2.65469 0
M  V30 6621 O 355.428 6.4965 -4.18908 0
M  V30 6622 C 356.368 5.81037 -5.05421 0
M  V30 6623 C 355.638 4.78366 -5.89277 0
M  V30 6624 O 355.428 3.58302 -5.08433 0
M  V30 6625 C 354.238 5.17448 -6.36119 0
M  V30 6626 O 353.848 4.45271 -7.53232 0
M  V30 6627 C 353.358 4.74639 -5.19936 0
M  V30 6628 C 354.068 3.49432 -4.70418 0
M  V30 6629 N 354.018 3.31776 -3.22945 0
M  V30 6630 H 356.857 6.54213 -5.71376 0
M  V30 6631 H 357.129 5.30492 -4.44033 0
M  V30 6632 H 356.261 4.55889 -6.76652 0
M  V30 6633 P 352.298 4.23843 -7.83734 0
M  V30 6634 O 352.078 4.19407 -9.29784 0
M  V30 6635 O 351.508 5.24426 -7.09156 0
M  V30 6636 O 352.048 2.7935 -7.20758 0
M  V30 6637 C 352.988 1.7299 -7.50419 0
M  V30 6638 C 352.258 0.406376 -7.57911 0
M  V30 6639 O 352.048 -0.0897726 -6.21935 0
M  V30 6640 C 350.858 0.447224 -8.1878 0
M  V30 6641 O 350.468 -0.825065 -8.71101 0
M  V30 6642 C 349.978 0.783801 -6.99623 0
M  V30 6643 C 350.688 0.0619192 -5.85967 0
M  V30 6644 N 350.638 0.790462 -4.56202 0
M  V30 6645 H 353.477 1.93423 -8.4679 0
M  V30 6646 H 353.749 1.68852 -6.70877 0
M  V30 6647 H 352.881 -0.289041 -8.15388 0
M  V30 6648 H 350.226 -0.927006 -5.72848 0
M  V30 6649 H 349.946 1.86973 -6.82036 0
M  V30 6650 H 348.955 0.403953 -7.13357 0
M  V30 6651 H 350.789 1.20599 -8.97534 0
M  V30 6652 P 348.918 -1.17771 -8.83182 0
M  V30 6653 O 348.698 -2.07206 -9.98732 0
M  V30 6654 O 348.128 0.0743816 -8.81969 0
M  V30 6655 O 348.668 -1.97652 -7.47304 0
M  V30 6656 C 349.608 -3.01133 -7.08783 0
M  V30 6657 C 348.878 -4.12613 -6.37049 0
M  V30 6658 O 348.668 -3.72827 -4.97879 0
M  V30 6659 C 347.478 -4.45085 -6.88694 0
M  V30 6660 O 347.088 -5.7877 -6.5624 0
M  V30 6661 C 346.598 -3.47817 -6.12078 0
M  V30 6662 C 347.308 -3.39414 -4.77697 0
M  V30 6663 N 347.258 -2.04615 -4.15333 0
M  V30 6664 H 350.097 -3.41248 -7.98759 0
M  V30 6665 H 350.369 -2.5837 -6.41742 0
M  V30 6666 H 349.501 -5.02657 -6.42673 0
M  V30 6667 P 345.538 -6.144 -6.45285 0
M  V30 6668 O 345.318 -7.54673 -6.86199 0
M  V30 6669 O 344.748 -5.12391 -7.179 0
M  V30 6670 O 345.288 -5.99158 -4.88404 0
M  V30 6671 C 346.228 -6.60234 -3.96415 0
M  V30 6672 C 345.498 -7.08259 -2.72856 0
M  V30 6673 O 345.288 -5.9427 -1.83651 0
M  V30 6674 C 344.098 -7.64886 -2.9555 0
M  V30 6675 O 343.708 -8.53963 -1.90717 0
M  V30 6676 C 343.218 -6.4116 -2.90739 0
M  V30 6677 C 343.928 -5.55375 -1.86963 0
M  V30 6678 N 343.878 -4.09664 -2.15742 0
M  V30 6679 H 346.717 -7.45574 -4.45629 0
M  V30 6680 H 346.989 -5.86232 -3.67314 0
M  V30 6681 H 346.121 -7.84412 -2.24479 0
M  V30 6682 P 342.158 -8.7635 -1.60911 0
M  V30 6683 O 341.938 -10.1388 -1.11561 0
M  V30 6684 O 341.368 -8.36503 -2.79617 0
M  V30 6685 O 341.908 -7.71806 -0.42951 0
M  V30 6686 C 342.848 -7.67148 0.673689 0
M  V30 6687 C 342.118 -7.33374 1.95559 0
M  V30 6688 O 341.908 -5.88721 2.00726 0
M  V30 6689 C 340.718 -7.92526 2.10483 0
M  V30 6690 O 340.328 -8.02971 3.47653 0
M  V30 6691 C 339.838 -6.89602 1.41652 0
M  V30 6692 C 340.548 -5.59201 1.75185 0
M  V30 6693 N 340.498 -4.58301 0.657969 0
M  V30 6694 H 343.337 -8.65116 0.777161 0
M  V30 6695 H 343.609 -6.9022 0.46725 0
M  V30 6696 H 342.741 -7.66548 2.79458 0
M  V30 6697 H 340.086 -5.16165 2.65183 0
M  V30 6698 H 339.806 -7.06433 0.329384 0
M  V30 6699 H 338.815 -6.90926 1.82021 0
M  V30 6700 H 340.649 -8.90873 1.62657 0
M  V30 6701 P 338.778 -8.03563 3.84925 0
M  V30 6702 O 338.558 -8.85821 5.0569 0
M  V30 6703 O 337.988 -8.41101 2.65469 0
M  V30 6704 O 338.528 -6.4965 4.18908 0
M  V30 6705 C 339.468 -5.81037 5.05421 0
M  V30 6706 C 338.738 -4.78366 5.89277 0
M  V30 6707 O 338.528 -3.58302 5.08433 0
M  V30 6708 C 337.338 -5.17448 6.36119 0
M  V30 6709 O 336.948 -4.45271 7.53232 0
M  V30 6710 C 336.458 -4.74639 5.19936 0
M  V30 6711 C 337.168 -3.49432 4.70418 0
M  V30 6712 N 337.118 -3.31776 3.22945 0
M  V30 6713 H 339.957 -6.54213 5.71376 0
M  V30 6714 H 340.229 -5.30492 4.44033 0
M  V30 6715 H 339.361 -4.55889 6.76652 0
M  V30 6716 P 335.398 -4.23843 7.83734 0
M  V30 6717 O 335.178 -4.19407 9.29784 0
M  V30 6718 O 334.608 -5.24426 7.09156 0
M  V30 6719 O 335.148 -2.7935 7.20758 0
M  V30 6720 C 336.088 -1.7299 7.50419 0
M  V30 6721 C 335.358 -0.406376 7.57911 0
M  V30 6722 O 335.148 0.0897726 6.21935 0
M  V30 6723 C 333.958 -0.447224 8.1878 0
M  V30 6724 O 333.568 0.825065 8.71101 0
M  V30 6725 C 333.078 -0.783801 6.99623 0
M  V30 6726 C 333.788 -0.0619192 5.85967 0
M  V30 6727 N 333.738 -0.7859 4.56281 0
M  V30 6728 H 336.577 -1.93423 8.4679 0
M  V30 6729 H 336.849 -1.68181 6.71046 0
M  V30 6730 H 335.981 0.289041 8.15388 0
M  V30 6731 P 332.018 1.17771 8.83182 0
M  V30 6732 O 331.798 2.07206 9.98732 0
M  V30 6733 O 331.228 -0.0743816 8.81969 0
M  V30 6734 O 331.768 1.97652 7.47304 0
M  V30 6735 C 332.708 3.01133 7.08783 0
M  V30 6736 C 331.978 4.12613 6.37049 0
M  V30 6737 O 331.768 3.72827 4.97879 0
M  V30 6738 C 330.578 4.45085 6.88694 0
M  V30 6739 O 330.188 5.7877 6.5624 0
M  V30 6740 C 329.698 3.47817 6.12078 0
M  V30 6741 C 330.408 3.39414 4.77697 0
M  V30 6742 N 330.358 2.04615 4.15333 0
M  V30 6743 H 333.197 3.41248 7.98759 0
M  V30 6744 H 333.469 2.5837 6.41742 0
M  V30 6745 H 332.601 5.02657 6.42673 0
M  V30 6746 P 328.638 6.144 6.45285 0
M  V30 6747 O 328.418 7.54673 6.86199 0
M  V30 6748 O 327.848 5.12391 7.179 0
M  V30 6749 O 328.388 5.99158 4.88404 0
M  V30 6750 C 329.328 6.60234 3.96415 0
M  V30 6751 C 328.598 7.08259 2.72856 0
M  V30 6752 O 328.388 5.9427 1.83651 0
M  V30 6753 C 327.198 7.64886 2.9555 0
M  V30 6754 O 326.808 8.53963 1.90717 0
M  V30 6755 C 326.318 6.4116 2.90739 0
M  V30 6756 C 327.028 5.55375 1.86963 0
M  V30 6757 N 326.978 4.09664 2.15742 0
M  V30 6758 H 329.817 7.45574 4.45629 0
M  V30 6759 H 330.089 5.86232 3.67314 0
M  V30 6760 H 329.221 7.84412 2.24479 0
M  V30 6761 P 325.258 8.7635 1.60911 0
M  V30 6762 O 325.038 10.1388 1.11561 0
M  V30 6763 O 324.468 8.36503 2.79617 0
M  V30 6764 O 325.008 7.71806 0.42951 0
M  V30 6765 C 325.948 7.66948 -0.673514 0
M  V30 6766 C 325.218 7.33374 -1.95559 0
M  V30 6767 O 325.008 5.88721 -2.00726 0
M  V30 6768 C 323.818 7.92218 -2.1125 0
M  V30 6769 O 323.428 8.02971 -3.47653 0
M  V30 6770 C 322.938 6.89504 -1.41631 0
M  V30 6771 C 323.648 5.59106 -1.75155 0
M  V30 6772 N 323.598 4.58136 -0.662409 0
M  V30 6773 C 323.448 3.26059 -1.02863 0
M  V30 6774 O 323.358 2.90743 -2.19009 0
M  V30 6775 N 323.408 2.35995 0.0155585 0
M  V30 6776 C 323.498 2.65248 1.35603 0
M  V30 6777 C 323.648 4.05747 1.64698 0
M  V30 6778 C 323.698 4.96734 0.652411 0
M  V30 6779 H 326.439 8.64917 -0.776982 0
M  V30 6780 H 326.708 6.89974 -0.474015 0
M  V30 6781 H 325.841 7.66548 -2.79458 0
M  V30 6782 H 323.186 5.16076 -2.65138 0
M  V30 6783 H 322.907 7.06433 -0.329384 0
M  V30 6784 H 321.915 6.90829 -1.81996 0
M  V30 6785 H 323.749 8.90774 -1.62639 0
M  V30 6786 H 323.82 6.02181 0.895285 0
M  V30 6787 P 321.878 8.03563 -3.84925 0
M  V30 6788 O 321.658 8.85821 -5.0569 0
M  V30 6789 O 321.088 8.41101 -2.65469 0
M  V30 6790 O 321.628 6.4965 -4.18908 0
M  V30 6791 C 322.568 5.81037 -5.05421 0
M  V30 6792 C 321.838 4.78366 -5.89277 0
M  V30 6793 O 321.628 3.58302 -5.08433 0
M  V30 6794 C 320.438 5.17448 -6.36119 0
M  V30 6795 O 320.048 4.45271 -7.53232 0
M  V30 6796 C 319.558 4.74639 -5.19936 0
M  V30 6797 C 320.268 3.49432 -4.70418 0
M  V30 6798 N 320.218 3.32099 -3.22613 0
M  V30 6799 C 320.298 4.28245 -2.25527 0
M  V30 6800 N 320.228 3.80823 -1.04874 0
M  V30 6801 C 320.078 2.44571 -1.23535 0
M  V30 6802 C 319.948 1.37068 -0.330675 0
M  V30 6803 N 319.938 1.51472 0.990824 0
M  V30 6804 N 319.828 0.138614 -0.848756 0
M  V30 6805 C 319.838 -0.00675923 -2.16999 0
M  V30 6806 N 319.958 0.904372 -3.11122 0
M  V30 6807 C 320.078 2.12707 -2.56212 0
M  V30 6808 H 323.057 6.54213 -5.71376 0
M  V30 6809 H 323.329 5.30936 -4.43503 0
M  V30 6810 H 322.461 4.55889 -6.76652 0
M  V30 6811 H 319.806 2.61715 -5.17932 0
M  V30 6812 H 319.526 5.52155 -4.41878 0
M  V30 6813 H 318.535 4.51981 -5.53374 0
M  V30 6814 H 320.369 6.25124 -6.55234 0
M  V30 6815 H 320.41 5.34372 -2.47488 0
M  V30 6816 H 320.029 2.45153 1.4078 0
M  V30 6817 H 319.84 0.688422 1.59911 0
M  V30 6818 H 319.732 -1.02584 -2.52346 0
M  V30 6819 P 318.498 4.23843 -7.83734 0
M  V30 6820 O 318.278 4.19407 -9.29784 0
M  V30 6821 O 317.708 5.24426 -7.09156 0
M  V30 6822 O 318.248 2.7935 -7.20758 0
M  V30 6823 C 319.188 1.7299 -7.50419 0
M  V30 6824 C 318.458 0.406376 -7.57911 0
M  V30 6825 O 318.248 -0.0897726 -6.21935 0
M  V30 6826 C 317.058 0.447224 -8.1878 0
M  V30 6827 O 316.668 -0.825065 -8.71101 0
M  V30 6828 C 316.178 0.783801 -6.99623 0
M  V30 6829 C 316.888 0.0619192 -5.85967 0
M  V30 6830 N 316.838 0.7859 -4.56281 0
M  V30 6831 H 319.677 1.93423 -8.4679 0
M  V30 6832 H 319.949 1.68181 -6.71046 0
M  V30 6833 H 319.081 -0.289041 -8.15388 0
M  V30 6834 P 315.118 -1.17771 -8.83182 0
M  V30 6835 O 314.898 -2.07206 -9.98732 0
M  V30 6836 O 314.328 0.0743816 -8.81969 0
M  V30 6837 O 314.868 -1.97652 -7.47304 0
M  V30 6838 C 315.808 -3.01133 -7.08783 0
M  V30 6839 C 315.078 -4.12613 -6.37049 0
M  V30 6840 O 314.868 -3.72827 -4.97879 0
M  V30 6841 C 313.678 -4.45085 -6.88694 0
M  V30 6842 O 313.288 -5.7877 -6.5624 0
M  V30 6843 C 312.798 -3.47817 -6.12078 0
M  V30 6844 C 313.508 -3.39414 -4.77697 0
M  V30 6845 N 313.458 -2.04199 -4.15538 0
M  V30 6846 H 316.297 -3.41248 -7.98759 0
M  V30 6847 H 316.569 -2.57728 -6.42 0
M  V30 6848 H 315.701 -5.02657 -6.42673 0
M  V30 6849 H 313.046 -4.11708 -4.08956 0
M  V30 6850 H 312.766 -2.49626 -6.61679 0
M  V30 6851 H 311.775 -3.8662 -6.00862 0
M  V30 6852 H 313.609 -4.29991 -7.97006 0
M  V30 6853 P 311.738 -6.144 -6.45285 0
M  V30 6854 O 311.518 -7.54673 -6.86199 0
M  V30 6855 O 310.948 -5.12391 -7.179 0
M  V30 6856 O 311.488 -5.99158 -4.88404 0
M  V30 6857 C 312.428 -6.60234 -3.96415 0
M  V30 6858 C 311.698 -7.08259 -2.72856 0
M  V30 6859 O 311.488 -5.9427 -1.83651 0
M  V30 6860 C 310.298 -7.64886 -2.9555 0
M  V30 6861 O 309.908 -8.53963 -1.90717 0
M  V30 6862 C 309.418 -6.4116 -2.90739 0
M  V30 6863 C 310.128 -5.55375 -1.86963 0
M  V30 6864 N 310.078 -4.09664 -2.15742 0
M  V30 6865 H 312.917 -7.45574 -4.45629 0
M  V30 6866 H 313.189 -5.86232 -3.67314 0
M  V30 6867 H 312.321 -7.84412 -2.24479 0
M  V30 6868 P 308.358 -8.7635 -1.60911 0
M  V30 6869 O 308.138 -10.1388 -1.11561 0
M  V30 6870 O 307.568 -8.36503 -2.79617 0
M  V30 6871 O 308.108 -7.71806 -0.42951 0
M  V30 6872 C 309.048 -7.67148 0.673689 0
M  V30 6873 C 308.318 -7.33374 1.95559 0
M  V30 6874 O 308.108 -5.88721 2.00726 0
M  V30 6875 C 306.918 -7.92526 2.10483 0
M  V30 6876 O 306.528 -8.02971 3.47653 0
M  V30 6877 C 306.038 -6.89602 1.41652 0
M  V30 6878 C 306.748 -5.59201 1.75185 0
M  V30 6879 N 306.698 -4.58235 0.662552 0
M  V30 6880 H 309.537 -8.65116 0.777161 0
M  V30 6881 H 309.809 -6.90173 0.474152 0
M  V30 6882 H 308.941 -7.66548 2.79458 0
M  V30 6883 P 304.978 -8.03563 3.84925 0
M  V30 6884 O 304.758 -8.85821 5.0569 0
M  V30 6885 O 304.188 -8.41101 2.65469 0
M  V30 6886 O 304.728 -6.4965 4.18908 0
M  V30 6887 C 305.668 -5.81037 5.05421 0
M  V30 6888 C 304.938 -4.78366 5.89277 0
M  V30 6889 O 304.728 -3.58302 5.08433 0
M  V30 6890 C 303.538 -5.17448 6.36119 0
M  V30 6891 O 303.148 -4.45271 7.53232 0
M  V30 6892 C 302.658 -4.74639 5.19936 0
M  V30 6893 C 303.368 -3.49432 4.70418 0
M  V30 6894 N 303.318 -3.31776 3.22945 0
M  V30 6895 H 306.157 -6.54213 5.71376 0
M  V30 6896 H 306.429 -5.30492 4.44033 0
M  V30 6897 H 305.561 -4.55889 6.76652 0
M  V30 6898 P 301.598 -4.23843 7.83734 0
M  V30 6899 O 301.378 -4.19407 9.29784 0
M  V30 6900 O 300.808 -5.24426 7.09156 0
M  V30 6901 O 301.348 -2.7935 7.20758 0
M  V30 6902 C 302.288 -1.7299 7.50419 0
M  V30 6903 C 301.558 -0.406376 7.57911 0
M  V30 6904 O 301.348 0.0897726 6.21935 0
M  V30 6905 C 300.158 -0.447224 8.1878 0
M  V30 6906 O 299.768 0.825065 8.71101 0
M  V30 6907 C 299.278 -0.783801 6.99623 0
M  V30 6908 C 299.988 -0.0619192 5.85967 0
M  V30 6909 N 299.938 -0.7859 4.56281 0
M  V30 6910 H 302.777 -1.93423 8.4679 0
M  V30 6911 H 303.049 -1.68181 6.71046 0
M  V30 6912 H 302.181 0.289041 8.15388 0
M  V30 6913 P 298.218 1.17771 8.83182 0
M  V30 6914 O 297.998 2.07206 9.98732 0
M  V30 6915 O 297.428 -0.0743816 8.81969 0
M  V30 6916 O 297.968 1.97652 7.47304 0
M  V30 6917 C 298.908 3.01133 7.08783 0
M  V30 6918 C 298.178 4.12613 6.37049 0
M  V30 6919 O 297.968 3.72827 4.97879 0
M  V30 6920 C 296.778 4.45085 6.88694 0
M  V30 6921 O 296.388 5.7877 6.5624 0
M  V30 6922 C 295.898 3.47817 6.12078 0
M  V30 6923 C 296.608 3.39414 4.77697 0
M  V30 6924 N 296.558 2.04615 4.15333 0
M  V30 6925 H 299.397 3.41248 7.98759 0
M  V30 6926 H 299.669 2.5837 6.41742 0
M  V30 6927 H 298.801 5.02657 6.42673 0
M  V30 6928 P 294.838 6.144 6.45285 0
M  V30 6929 O 294.618 7.54673 6.86199 0
M  V30 6930 O 294.048 5.12391 7.179 0
M  V30 6931 O 294.588 5.99158 4.88404 0
M  V30 6932 C 295.528 6.60234 3.96415 0
M  V30 6933 C 294.798 7.08259 2.72856 0
M  V30 6934 O 294.588 5.9427 1.83651 0
M  V30 6935 C 293.398 7.64886 2.9555 0
M  V30 6936 O 293.008 8.53963 1.90717 0
M  V30 6937 C 292.518 6.4116 2.90739 0
M  V30 6938 C 293.228 5.55375 1.86963 0
M  V30 6939 N 293.178 4.09664 2.15742 0
M  V30 6940 H 296.017 7.45574 4.45629 0
M  V30 6941 H 296.289 5.86232 3.67314 0
M  V30 6942 H 295.421 7.84412 2.24479 0
M  V30 6943 P 291.458 8.7635 1.60911 0
M  V30 6944 O 291.238 10.1388 1.11561 0
M  V30 6945 O 290.668 8.36503 2.79617 0
M  V30 6946 O 291.208 7.71806 0.42951 0
M  V30 6947 C 292.148 7.67148 -0.673689 0
M  V30 6948 C 291.418 7.33374 -1.95559 0
M  V30 6949 O 291.208 5.88721 -2.00726 0
M  V30 6950 C 290.018 7.92526 -2.10483 0
M  V30 6951 O 289.628 8.02971 -3.47653 0
M  V30 6952 C 289.138 6.89602 -1.41652 0
M  V30 6953 C 289.848 5.59201 -1.75185 0
M  V30 6954 N 289.798 4.58235 -0.662552 0
M  V30 6955 H 292.637 8.65116 -0.777161 0
M  V30 6956 H 292.909 6.90173 -0.474152 0
M  V30 6957 H 292.041 7.66548 -2.79458 0
M  V30 6958 P 288.078 8.03563 -3.84925 0
M  V30 6959 O 287.858 8.85821 -5.0569 0
M  V30 6960 O 287.288 8.41101 -2.65469 0
M  V30 6961 O 287.828 6.4965 -4.18908 0
M  V30 6962 C 288.768 5.81037 -5.05421 0
M  V30 6963 C 288.038 4.78366 -5.89277 0
M  V30 6964 O 287.828 3.58302 -5.08433 0
M  V30 6965 C 286.638 5.17448 -6.36119 0
M  V30 6966 O 286.248 4.45271 -7.53232 0
M  V30 6967 C 285.758 4.74639 -5.19936 0
M  V30 6968 C 286.468 3.49432 -4.70418 0
M  V30 6969 N 286.418 3.31776 -3.22945 0
M  V30 6970 H 289.257 6.54213 -5.71376 0
M  V30 6971 H 289.529 5.30492 -4.44033 0
M  V30 6972 H 288.661 4.55889 -6.76652 0
M  V30 6973 P 284.698 4.23843 -7.83734 0
M  V30 6974 O 284.478 4.19407 -9.29784 0
M  V30 6975 O 283.908 5.24426 -7.09156 0
M  V30 6976 O 284.448 2.7935 -7.20758 0
M  V30 6977 C 285.388 1.7299 -7.50419 0
M  V30 6978 C 284.658 0.406376 -7.57911 0
M  V30 6979 O 284.448 -0.0897726 -6.21935 0
M  V30 6980 C 283.258 0.447224 -8.1878 0
M  V30 6981 O 282.868 -0.825065 -8.71101 0
M  V30 6982 C 282.378 0.783801 -6.99623 0
M  V30 6983 C 283.088 0.0619192 -5.85967 0
M  V30 6984 N 283.038 0.7859 -4.56281 0
M  V30 6985 H 285.877 1.93423 -8.4679 0
M  V30 6986 H 286.149 1.68181 -6.71046 0
M  V30 6987 H 285.281 -0.289041 -8.15388 0
M  V30 6988 P 281.318 -1.17771 -8.83182 0
M  V30 6989 O 281.098 -2.07206 -9.98732 0
M  V30 6990 O 280.528 0.0743816 -8.81969 0
M  V30 6991 O 281.068 -1.97652 -7.47304 0
M  V30 6992 C 282.008 -3.01055 -7.08599 0
M  V30 6993 C 281.278 -4.12613 -6.37049 0
M  V30 6994 O 281.068 -3.72827 -4.97879 0
M  V30 6995 C 279.878 -4.45719 -6.88164 0
M  V30 6996 O 279.488 -5.7877 -6.5624 0
M  V30 6997 C 278.998 -3.47768 -6.11991 0
M  V30 6998 C 279.708 -3.39356 -4.77615 0
M  V30 6999 N 279.658 -2.04571 -4.15244 0
M  V30 7000 C 279.508 -1.98587 -2.78314 0
M  V30 7001 O 279.418 -2.98134 -2.08835 0
M  V30 7002 N 279.468 -0.714467 -2.24925 0
M  V30 7003 C 279.558 0.470001 -2.94169 0
M  V30 7004 O 279.508 1.55587 -2.35195 0
M  V30 7005 C 279.708 0.312541 -4.36783 0
M  V30 7006 C 279.818 1.57711 -5.16352 0
M  V30 7007 C 279.758 -0.914512 -4.92583 0
M  V30 7008 H 282.499 -3.41169 -7.98575 0
M  V30 7009 H 282.768 -2.58295 -6.41556 0
M  V30 7010 H 281.901 -5.02657 -6.42673 0
M  V30 7011 H 279.246 -4.11637 -4.08885 0
M  V30 7012 H 278.967 -2.49626 -6.61679 0
M  V30 7013 H 277.975 -3.86566 -6.00778 0
M  V30 7014 H 279.809 -4.29943 -7.96918 0
M  V30 7015 H 279.88 -1.00937 -6.00374 0
M  V30 7016 H 278.85 1.80153 -5.63503 0
M  V30 7017 H 280.587 1.4566 -5.94104 0
M  V30 7018 H 280.099 2.40664 -4.49645 0
M  V30 7019 H 279.363 -0.647622 -1.25697 0
M  V30 7020 P 277.938 -6.144 -6.45285 0
M  V30 7021 O 277.718 -7.54673 -6.86199 0
M  V30 7022 O 277.148 -5.12391 -7.179 0
M  V30 7023 O 277.688 -5.99158 -4.88404 0
M  V30 7024 C 278.628 -6.60234 -3.96415 0
M  V30 7025 C 277.898 -7.08259 -2.72856 0
M  V30 7026 O 277.688 -5.9427 -1.83651 0
M  V30 7027 C 276.498 -7.64886 -2.9555 0
M  V30 7028 O 276.108 -8.53963 -1.90717 0
M  V30 7029 C 275.618 -6.4116 -2.90739 0
M  V30 7030 C 276.328 -5.55375 -1.86963 0
M  V30 7031 N 276.278 -4.09664 -2.15742 0
M  V30 7032 H 279.117 -7.45574 -4.45629 0
M  V30 7033 H 279.389 -5.86232 -3.67314 0
M  V30 7034 H 278.521 -7.84412 -2.24479 0
M  V30 7035 P 274.558 -8.7635 -1.60911 0
M  V30 7036 O 274.338 -10.1388 -1.11561 0
M  V30 7037 O 273.768 -8.36503 -2.79617 0
M  V30 7038 O 274.308 -7.71806 -0.42951 0
M  V30 7039 C 275.248 -7.67148 0.673689 0
M  V30 7040 C 274.518 -7.33374 1.95559 0
M  V30 7041 O 274.308 -5.88721 2.00726 0
M  V30 7042 C 273.118 -7.92526 2.10483 0
M  V30 7043 O 272.728 -8.02971 3.47653 0
M  V30 7044 C 272.238 -6.89602 1.41652 0
M  V30 7045 C 272.948 -5.59201 1.75185 0
M  V30 7046 N 272.898 -4.58235 0.662552 0
M  V30 7047 H 275.737 -8.65116 0.777161 0
M  V30 7048 H 276.009 -6.90173 0.474152 0
M  V30 7049 H 275.141 -7.66548 2.79458 0
M  V30 7050 P 271.178 -8.03563 3.84925 0
M  V30 7051 O 270.958 -8.85821 5.0569 0
M  V30 7052 O 270.388 -8.41101 2.65469 0
M  V30 7053 O 270.928 -6.4965 4.18908 0
M  V30 7054 C 271.868 -5.81037 5.05421 0
M  V30 7055 C 271.138 -4.78366 5.89277 0
M  V30 7056 O 270.928 -3.58302 5.08433 0
M  V30 7057 C 269.738 -5.17448 6.36119 0
M  V30 7058 O 269.348 -4.45271 7.53232 0
M  V30 7059 C 268.858 -4.74639 5.19936 0
M  V30 7060 C 269.568 -3.49432 4.70418 0
M  V30 7061 N 269.518 -3.31776 3.22945 0
M  V30 7062 H 272.357 -6.54213 5.71376 0
M  V30 7063 H 272.629 -5.30492 4.44033 0
M  V30 7064 H 271.761 -4.55889 6.76652 0
M  V30 7065 P 267.798 -4.23843 7.83734 0
M  V30 7066 O 267.578 -4.19407 9.29784 0
M  V30 7067 O 267.008 -5.24426 7.09156 0
M  V30 7068 O 267.548 -2.7935 7.20758 0
M  V30 7069 C 268.488 -1.7299 7.50419 0
M  V30 7070 C 267.758 -0.406376 7.57911 0
M  V30 7071 O 267.548 0.0897726 6.21935 0
M  V30 7072 C 266.358 -0.447224 8.1878 0
M  V30 7073 O 265.968 0.825065 8.71101 0
M  V30 7074 C 265.478 -0.783801 6.99623 0
M  V30 7075 C 266.188 -0.0619192 5.85967 0
M  V30 7076 N 266.138 -0.7859 4.56281 0
M  V30 7077 H 268.977 -1.93423 8.4679 0
M  V30 7078 H 269.249 -1.68181 6.71046 0
M  V30 7079 H 268.381 0.289041 8.15388 0
M  V30 7080 P 264.418 1.17771 8.83182 0
M  V30 7081 O 264.198 2.07206 9.98732 0
M  V30 7082 O 263.628 -0.0743816 8.81969 0
M  V30 7083 O 264.168 1.97652 7.47304 0
M  V30 7084 C 265.108 3.01133 7.08783 0
M  V30 7085 C 264.378 4.12613 6.37049 0
M  V30 7086 O 264.168 3.72827 4.97879 0
M  V30 7087 C 262.978 4.45085 6.88694 0
M  V30 7088 O 262.588 5.7877 6.5624 0
M  V30 7089 C 262.098 3.47817 6.12078 0
M  V30 7090 C 262.808 3.39414 4.77697 0
M  V30 7091 N 262.758 2.04615 4.15333 0
M  V30 7092 H 265.597 3.41248 7.98759 0
M  V30 7093 H 265.869 2.5837 6.41742 0
M  V30 7094 H 265.001 5.02657 6.42673 0
M  V30 7095 P 261.038 6.144 6.45285 0
M  V30 7096 O 260.818 7.54673 6.86199 0
M  V30 7097 O 260.248 5.12391 7.179 0
M  V30 7098 O 260.788 5.99158 4.88404 0
M  V30 7099 C 261.728 6.60234 3.96415 0
M  V30 7100 C 260.998 7.08259 2.72856 0
M  V30 7101 O 260.788 5.9427 1.83651 0
M  V30 7102 C 259.598 7.64886 2.9555 0
M  V30 7103 O 259.208 8.53963 1.90717 0
M  V30 7104 C 258.718 6.4116 2.90739 0
M  V30 7105 C 259.428 5.55375 1.86963 0
M  V30 7106 N 259.378 4.09664 2.15742 0
M  V30 7107 H 262.217 7.45574 4.45629 0
M  V30 7108 H 262.489 5.86232 3.67314 0
M  V30 7109 H 261.621 7.84412 2.24479 0
M  V30 7110 P 257.658 8.7635 1.60911 0
M  V30 7111 O 257.438 10.1388 1.11561 0
M  V30 7112 O 256.868 8.36503 2.79617 0
M  V30 7113 O 257.408 7.71806 0.42951 0
M  V30 7114 C 258.348 7.67148 -0.673689 0
M  V30 7115 C 257.618 7.33374 -1.95559 0
M  V30 7116 O 257.408 5.88721 -2.00726 0
M  V30 7117 C 256.218 7.92526 -2.10483 0
M  V30 7118 O 255.828 8.02971 -3.47653 0
M  V30 7119 C 255.338 6.89602 -1.41652 0
M  V30 7120 C 256.048 5.59201 -1.75185 0
M  V30 7121 N 255.998 4.58235 -0.662552 0
M  V30 7122 H 258.837 8.65116 -0.777161 0
M  V30 7123 H 259.109 6.90173 -0.474152 0
M  V30 7124 H 258.241 7.66548 -2.79458 0
M  V30 7125 P 254.279 8.03563 -3.84925 0
M  V30 7126 O 254.059 8.85821 -5.0569 0
M  V30 7127 O 253.489 8.41101 -2.65469 0
M  V30 7128 O 254.029 6.4965 -4.18908 0
M  V30 7129 C 254.969 5.80886 -5.05289 0
M  V30 7130 C 254.239 4.78366 -5.89277 0
M  V30 7131 O 254.029 3.58302 -5.08433 0
M  V30 7132 C 252.839 5.16748 -6.36559 0
M  V30 7133 O 252.449 4.45271 -7.53232 0
M  V30 7134 C 251.959 4.74572 -5.19863 0
M  V30 7135 C 252.669 3.49373 -4.70338 0
M  V30 7136 N 252.619 3.31704 -3.22876 0
M  V30 7137 C 252.469 2.03326 -2.74871 0
M  V30 7138 O 252.379 1.06486 -3.48076 0
M  V30 7139 N 252.429 1.91838 -1.37456 0
M  V30 7140 C 252.519 2.94295 -0.462035 0
M  V30 7141 O 252.469 2.71763 0.752928 0
M  V30 7142 C 252.669 4.25064 -1.05249 0
M  V30 7143 C 252.779 5.39815 -0.095697 0
M  V30 7144 C 252.719 4.40214 -2.39192 0
M  V30 7145 H 255.46 6.54063 -5.71245 0
M  V30 7146 H 255.729 5.30339 -4.43905 0
M  V30 7147 H 254.862 4.55889 -6.76652 0
M  V30 7148 H 252.207 2.6167 -5.17842 0
M  V30 7149 H 251.928 5.52155 -4.41878 0
M  V30 7150 H 250.936 4.51918 -5.53297 0
M  V30 7151 H 252.77 6.25055 -6.55162 0
M  V30 7152 H 252.841 5.39798 -2.81523 0
M  V30 7153 H 251.811 5.91593 -0.0279582 0
M  V30 7154 H 253.548 6.10038 -0.450573 0
M  V30 7155 H 253.06 5.02007 0.89937 0
M  V30 7156 H 252.324 0.995326 -1.00435 0
M  V30 7157 P 250.899 4.23843 -7.83734 0
M  V30 7158 O 250.679 4.19407 -9.29784 0
M  V30 7159 O 250.109 5.24426 -7.09156 0
M  V30 7160 O 250.649 2.7935 -7.20758 0
M  V30 7161 C 251.589 1.7299 -7.50419 0
M  V30 7162 C 250.859 0.406376 -7.57911 0
M  V30 7163 O 250.649 -0.0897726 -6.21935 0
M  V30 7164 C 249.459 0.447224 -8.1878 0
M  V30 7165 O 249.069 -0.825065 -8.71101 0
M  V30 7166 C 248.579 0.783801 -6.99623 0
M  V30 7167 C 249.289 0.0619192 -5.85967 0
M  V30 7168 N 249.239 0.7859 -4.56281 0
M  V30 7169 H 252.078 1.93423 -8.4679 0
M  V30 7170 H 252.35 1.68181 -6.71046 0
M  V30 7171 H 251.482 -0.289041 -8.15388 0
M  V30 7172 P 247.519 -1.17771 -8.83182 0
M  V30 7173 O 247.299 -2.07206 -9.98732 0
M  V30 7174 O 246.729 0.0743816 -8.81969 0
M  V30 7175 O 247.269 -1.97652 -7.47304 0
M  V30 7176 C 248.209 -3.01133 -7.08783 0
M  V30 7177 C 247.479 -4.12613 -6.37049 0
M  V30 7178 O 247.269 -3.72827 -4.97879 0
M  V30 7179 C 246.079 -4.45085 -6.88694 0
M  V30 7180 O 245.689 -5.7877 -6.5624 0
M  V30 7181 C 245.199 -3.47817 -6.12078 0
M  V30 7182 C 245.909 -3.39414 -4.77697 0
M  V30 7183 N 245.859 -2.04615 -4.15333 0
M  V30 7184 H 248.698 -3.41248 -7.98759 0
M  V30 7185 H 248.97 -2.5837 -6.41742 0
M  V30 7186 H 248.102 -5.02657 -6.42673 0
M  V30 7187 P 244.139 -6.144 -6.45285 0
M  V30 7188 O 243.919 -7.54673 -6.86199 0
M  V30 7189 O 243.349 -5.12391 -7.179 0
M  V30 7190 O 243.889 -5.99158 -4.88404 0
M  V30 7191 C 244.829 -6.60234 -3.96415 0
M  V30 7192 C 244.099 -7.08259 -2.72856 0
M  V30 7193 O 243.889 -5.9427 -1.83651 0
M  V30 7194 C 242.699 -7.64886 -2.9555 0
M  V30 7195 O 242.309 -8.53963 -1.90717 0
M  V30 7196 C 241.819 -6.4116 -2.90739 0
M  V30 7197 C 242.529 -5.55375 -1.86963 0
M  V30 7198 N 242.479 -4.09664 -2.15742 0
M  V30 7199 H 245.318 -7.45574 -4.45629 0
M  V30 7200 H 245.59 -5.86232 -3.67314 0
M  V30 7201 H 244.722 -7.84412 -2.24479 0
M  V30 7202 P 240.759 -8.7635 -1.60911 0
M  V30 7203 O 240.539 -10.1388 -1.11561 0
M  V30 7204 O 239.969 -8.36503 -2.79617 0
M  V30 7205 O 240.509 -7.71806 -0.42951 0
M  V30 7206 C 241.449 -7.67148 0.673689 0
M  V30 7207 C 240.719 -7.33374 1.95559 0
M  V30 7208 O 240.509 -5.88721 2.00726 0
M  V30 7209 C 239.319 -7.92526 2.10483 0
M  V30 7210 O 238.929 -8.02971 3.47653 0
M  V30 7211 C 238.439 -6.89602 1.41652 0
M  V30 7212 C 239.149 -5.59201 1.75185 0
M  V30 7213 N 239.099 -4.58235 0.662552 0
M  V30 7214 H 241.938 -8.65116 0.777161 0
M  V30 7215 H 242.21 -6.90173 0.474152 0
M  V30 7216 H 241.342 -7.66548 2.79458 0
M  V30 7217 P 237.379 -8.03563 3.84925 0
M  V30 7218 O 237.159 -8.85821 5.0569 0
M  V30 7219 O 236.589 -8.41101 2.65469 0
M  V30 7220 O 237.129 -6.4965 4.18908 0
M  V30 7221 C 238.069 -5.81037 5.05421 0
M  V30 7222 C 237.339 -4.78366 5.89277 0
M  V30 7223 O 237.129 -3.58302 5.08433 0
M  V30 7224 C 235.939 -5.17448 6.36119 0
M  V30 7225 O 235.549 -4.45271 7.53232 0
M  V30 7226 C 235.059 -4.74639 5.19936 0
M  V30 7227 C 235.769 -3.49432 4.70418 0
M  V30 7228 N 235.719 -3.31776 3.22945 0
M  V30 7229 H 238.558 -6.54213 5.71376 0
M  V30 7230 H 238.83 -5.30492 4.44033 0
M  V30 7231 H 237.962 -4.55889 6.76652 0
M  V30 7232 P 233.999 -4.23843 7.83734 0
M  V30 7233 O 233.779 -4.19407 9.29784 0
M  V30 7234 O 233.209 -5.24426 7.09156 0
M  V30 7235 O 233.749 -2.7935 7.20758 0
M  V30 7236 C 234.689 -1.7299 7.50419 0
M  V30 7237 C 233.959 -0.406376 7.57911 0
M  V30 7238 O 233.749 0.0897726 6.21935 0
M  V30 7239 C 232.559 -0.447224 8.1878 0
M  V30 7240 O 232.169 0.825065 8.71101 0
M  V30 7241 C 231.679 -0.783801 6.99623 0
M  V30 7242 C 232.389 -0.0619192 5.85967 0
M  V30 7243 N 232.339 -0.7859 4.56281 0
M  V30 7244 C 232.419 -2.14308 4.31736 0
M  V30 7245 N 232.339 -2.46106 3.05116 0
M  V30 7246 C 232.199 -1.23422 2.4014 0
M  V30 7247 C 232.069 -0.938381 1.02409 0
M  V30 7248 N 231.949 0.444647 0.805413 0
M  V30 7249 C 231.949 1.40829 1.79435 0
M  V30 7250 N 231.819 2.67213 1.38558 0
M  V30 7251 N 232.079 1.12947 3.09005 0
M  V30 7252 C 232.199 -0.204887 3.32369 0
M  V30 7253 H 235.178 -1.93423 8.4679 0
M  V30 7254 H 235.45 -1.68181 6.71046 0
M  V30 7255 H 234.582 0.289041 8.15388 0
M  V30 7256 P 230.619 1.17771 8.83182 0
M  V30 7257 O 230.399 2.07206 9.98732 0
M  V30 7258 O 229.829 -0.0743816 8.81969 0
M  V30 7259 O 230.369 1.97652 7.47304 0
M  V30 7260 C 231.309 3.01055 7.08599 0
M  V30 7261 C 230.579 4.12613 6.37049 0
M  V30 7262 O 230.369 3.72827 4.97879 0
M  V30 7263 C 229.179 4.45719 6.88164 0
M  V30 7264 O 228.789 5.7877 6.5624 0
M  V30 7265 C 228.299 3.47768 6.11991 0
M  V30 7266 C 229.009 3.39356 4.77615 0
M  V30 7267 N 228.959 2.04571 4.15244 0
M  V30 7268 C 228.809 1.98587 2.78314 0
M  V30 7269 O 228.719 2.98134 2.08835 0
M  V30 7270 N 228.769 0.714467 2.24925 0
M  V30 7271 C 228.859 -0.470001 2.94169 0
M  V30 7272 O 228.809 -1.55587 2.35195 0
M  V30 7273 C 229.009 -0.312541 4.36783 0
M  V30 7274 C 229.119 -1.57711 5.16352 0
M  V30 7275 C 229.059 0.914512 4.92583 0
M  V30 7276 H 231.8 3.41169 7.98575 0
M  V30 7277 H 232.069 2.58295 6.41556 0
M  V30 7278 H 231.202 5.02657 6.42673 0
M  V30 7279 H 228.547 4.11637 4.08885 0
M  V30 7280 H 228.268 2.49626 6.61679 0
M  V30 7281 H 227.276 3.86566 6.00778 0
M  V30 7282 H 229.11 4.29943 7.96918 0
M  V30 7283 H 229.181 1.00937 6.00374 0
M  V30 7284 H 228.151 -1.80153 5.63503 0
M  V30 7285 H 229.888 -1.4566 5.94104 0
M  V30 7286 H 229.4 -2.40664 4.49645 0
M  V30 7287 H 228.664 0.647622 1.25697 0
M  V30 7288 P 227.239 6.144 6.45285 0
M  V30 7289 O 227.019 7.54673 6.86199 0
M  V30 7290 O 226.449 5.12391 7.179 0
M  V30 7291 O 226.989 5.99158 4.88404 0
M  V30 7292 C 227.929 6.60234 3.96415 0
M  V30 7293 C 227.199 7.08259 2.72856 0
M  V30 7294 O 226.989 5.9427 1.83651 0
M  V30 7295 C 225.799 7.64886 2.9555 0
M  V30 7296 O 225.409 8.53963 1.90717 0
M  V30 7297 C 224.919 6.4116 2.90739 0
M  V30 7298 C 225.629 5.55375 1.86963 0
M  V30 7299 N 225.579 4.09664 2.15742 0
M  V30 7300 H 228.418 7.45574 4.45629 0
M  V30 7301 H 228.69 5.86232 3.67314 0
M  V30 7302 H 227.822 7.84412 2.24479 0
M  V30 7303 P 223.859 8.7635 1.60911 0
M  V30 7304 O 223.639 10.1388 1.11561 0
M  V30 7305 O 223.069 8.36503 2.79617 0
M  V30 7306 O 223.609 7.71806 0.42951 0
M  V30 7307 C 224.549 7.67148 -0.673689 0
M  V30 7308 C 223.819 7.33374 -1.95559 0
M  V30 7309 O 223.609 5.88721 -2.00726 0
M  V30 7310 C 222.419 7.92526 -2.10483 0
M  V30 7311 O 222.029 8.02971 -3.47653 0
M  V30 7312 C 221.539 6.89602 -1.41652 0
M  V30 7313 C 222.249 5.59201 -1.75185 0
M  V30 7314 N 222.199 4.58235 -0.662552 0
M  V30 7315 H 225.038 8.65116 -0.777161 0
M  V30 7316 H 225.31 6.90173 -0.474152 0
M  V30 7317 H 224.442 7.66548 -2.79458 0
M  V30 7318 P 220.479 8.03563 -3.84925 0
M  V30 7319 O 220.259 8.85821 -5.0569 0
M  V30 7320 O 219.689 8.41101 -2.65469 0
M  V30 7321 O 220.229 6.4965 -4.18908 0
M  V30 7322 C 221.169 5.81037 -5.05421 0
M  V30 7323 C 220.439 4.78366 -5.89277 0
M  V30 7324 O 220.229 3.58302 -5.08433 0
M  V30 7325 C 219.039 5.17448 -6.36119 0
M  V30 7326 O 218.649 4.45271 -7.53232 0
M  V30 7327 C 218.159 4.74639 -5.19936 0
M  V30 7328 C 218.869 3.49432 -4.70418 0
M  V30 7329 N 218.819 3.31776 -3.22945 0
M  V30 7330 H 221.658 6.54213 -5.71376 0
M  V30 7331 H 221.93 5.30492 -4.44033 0
M  V30 7332 H 221.062 4.55889 -6.76652 0
M  V30 7333 P 217.099 4.23843 -7.83734 0
M  V30 7334 O 216.879 4.19407 -9.29784 0
M  V30 7335 O 216.309 5.24426 -7.09156 0
M  V30 7336 O 216.849 2.7935 -7.20758 0
M  V30 7337 C 217.789 1.72945 -7.50224 0
M  V30 7338 C 217.059 0.406376 -7.57911 0
M  V30 7339 O 216.849 -0.0897726 -6.21935 0
M  V30 7340 C 215.659 0.438983 -8.18724 0
M  V30 7341 O 215.269 -0.825065 -8.71101 0
M  V30 7342 C 214.779 0.783689 -6.99524 0
M  V30 7343 C 215.489 0.0619086 -5.85867 0
M  V30 7344 N 215.439 0.78573 -4.56183 0
M  V30 7345 C 215.289 0.0292889 -3.41887 0
M  V30 7346 O 215.199 -1.18445 -3.4419 0
M  V30 7347 N 215.249 0.744061 -2.23964 0
M  V30 7348 C 215.339 2.10932 -2.10362 0
M  V30 7349 O 215.289 2.64117 -0.98825 0
M  V30 7350 C 215.489 2.8202 -3.34994 0
M  V30 7351 C 215.599 4.31095 -3.25037 0
M  V30 7352 C 215.539 2.15547 -4.52261 0
M  V30 7353 H 218.28 1.93379 -8.46595 0
M  V30 7354 H 218.549 1.68132 -6.70852 0
M  V30 7355 H 217.682 -0.289041 -8.15388 0
M  V30 7356 H 215.027 -0.926847 -5.72749 0
M  V30 7357 H 214.748 1.86973 -6.82036 0
M  V30 7358 H 213.756 0.403896 -7.13257 0
M  V30 7359 H 215.59 1.20585 -8.97435 0
M  V30 7360 H 215.661 2.71231 -5.45042 0
M  V30 7361 H 214.631 4.76966 -3.49992 0
M  V30 7362 H 216.368 4.67047 -3.95024 0
M  V30 7363 H 215.88 4.58996 -2.22312 0
M  V30 7364 H 215.144 0.214893 -1.39758 0
M  V30 7365 P 213.719 -1.17771 -8.83182 0
M  V30 7366 O 213.499 -2.07206 -9.98732 0
M  V30 7367 O 212.929 0.0743816 -8.81969 0
M  V30 7368 O 213.469 -1.97652 -7.47304 0
M  V30 7369 C 214.409 -3.01133 -7.08783 0
M  V30 7370 C 213.679 -4.12613 -6.37049 0
M  V30 7371 O 213.469 -3.72827 -4.97879 0
M  V30 7372 C 212.279 -4.45085 -6.88694 0
M  V30 7373 O 211.889 -5.7877 -6.5624 0
M  V30 7374 C 211.399 -3.47817 -6.12078 0
M  V30 7375 C 212.109 -3.39414 -4.77697 0
M  V30 7376 N 212.059 -2.04199 -4.15538 0
M  V30 7377 C 212.139 -0.821545 -4.76977 0
M  V30 7378 N 212.069 0.1794 -3.94592 0
M  V30 7379 C 211.919 -0.419121 -2.70776 0
M  V30 7380 C 211.789 0.109072 -1.40577 0
M  V30 7381 N 211.779 1.4104 -1.1344 0
M  V30 7382 N 211.669 -0.764381 -0.39411 0
M  V30 7383 C 211.679 -2.06587 -0.664135 0
M  V30 7384 N 211.799 -2.67948 -1.82153 0
M  V30 7385 C 211.919 -1.77942 -2.8147 0
M  V30 7386 H 214.898 -3.41248 -7.98759 0
M  V30 7387 H 215.17 -2.57728 -6.42 0
M  V30 7388 H 214.302 -5.02657 -6.42673 0
M  V30 7389 H 211.647 -4.11708 -4.08956 0
M  V30 7390 H 211.367 -2.49626 -6.61679 0
M  V30 7391 H 210.376 -3.8662 -6.00862 0
M  V30 7392 H 212.21 -4.29991 -7.97006 0
M  V30 7393 H 212.251 -0.702451 -5.84696 0
M  V30 7394 H 211.87 2.09647 -1.89651 0
M  V30 7395 H 211.681 1.73358 -0.160575 0
M  V30 7396 H 211.573 -2.71695 0.195838 0
M  V30 7397 P 210.339 -6.144 -6.45285 0
M  V30 7398 O 210.119 -7.54673 -6.86199 0
M  V30 7399 O 209.549 -5.12391 -7.179 0
M  V30 7400 O 210.089 -5.99158 -4.88404 0
M  V30 7401 C 211.029 -6.60234 -3.96415 0
M  V30 7402 C 210.299 -7.08259 -2.72856 0
M  V30 7403 O 210.089 -5.9427 -1.83651 0
M  V30 7404 C 208.899 -7.64886 -2.9555 0
M  V30 7405 O 208.509 -8.53963 -1.90717 0
M  V30 7406 C 208.019 -6.4116 -2.90739 0
M  V30 7407 C 208.729 -5.55375 -1.86963 0
M  V30 7408 N 208.679 -4.09664 -2.15742 0
M  V30 7409 C 208.759 -3.44381 -3.37233 0
M  V30 7410 N 208.679 -2.14131 -3.28347 0
M  V30 7411 C 208.539 -1.90247 -1.91588 0
M  V30 7412 C 208.409 -0.683992 -1.20892 0
M  V30 7413 O 208.389 0.46618 -1.64523 0
M  V30 7414 N 208.289 -0.903396 0.173998 0
M  V30 7415 C 208.289 -2.14171 0.784879 0
M  V30 7416 N 208.159 -2.1435 2.11317 0
M  V30 7417 N 208.419 -3.28784 0.119316 0
M  V30 7418 C 208.539 -3.0977 -1.22194 0
M  V30 7419 H 211.518 -7.45574 -4.45629 0
M  V30 7420 H 211.79 -5.86232 -3.67314 0
M  V30 7421 H 210.922 -7.84412 -2.24479 0
M  V30 7422 H 208.267 -5.73556 -0.888715 0
M  V30 7423 H 207.987 -5.9096 -3.88638 0
M  V30 7424 H 206.996 -6.66053 -2.58894 0
M  V30 7425 H 208.83 -8.16429 -3.92093 0
M  V30 7426 H 208.879 -3.96785 -4.32043 0
M  V30 7427 H 208.197 -0.0999567 0.761467 0
M  V30 7428 H 208.16 -3.03436 2.63076 0
M  V30 7429 H 208.059 -1.25228 2.62233 0
M  V30 7430 P 206.959 -8.7635 -1.60911 0
M  V30 7431 O 206.739 -10.1388 -1.11561 0
M  V30 7432 O 206.169 -8.36503 -2.79617 0
M  V30 7433 O 206.709 -7.71806 -0.42951 0
M  V30 7434 C 207.649 -7.67148 0.673689 0
M  V30 7435 C 206.919 -7.33374 1.95559 0
M  V30 7436 O 206.709 -5.88721 2.00726 0
M  V30 7437 C 205.519 -7.92526 2.10483 0
M  V30 7438 O 205.129 -8.02971 3.47653 0
M  V30 7439 C 204.639 -6.89602 1.41652 0
M  V30 7440 C 205.349 -5.59201 1.75185 0
M  V30 7441 N 205.299 -4.58235 0.662552 0
M  V30 7442 H 208.138 -8.65116 0.777161 0
M  V30 7443 H 208.41 -6.90173 0.474152 0
M  V30 7444 H 207.542 -7.66548 2.79458 0
M  V30 7445 P 203.579 -8.03563 3.84925 0
M  V30 7446 O 203.359 -8.85821 5.0569 0
M  V30 7447 O 202.789 -8.41101 2.65469 0
M  V30 7448 O 203.329 -6.4965 4.18908 0
M  V30 7449 C 204.269 -5.81037 5.05421 0
M  V30 7450 C 203.539 -4.78366 5.89277 0
M  V30 7451 O 203.329 -3.58302 5.08433 0
M  V30 7452 C 202.139 -5.17448 6.36119 0
M  V30 7453 O 201.749 -4.45271 7.53232 0
M  V30 7454 C 201.259 -4.74639 5.19936 0
M  V30 7455 C 201.969 -3.49432 4.70418 0
M  V30 7456 N 201.919 -3.31776 3.22945 0
M  V30 7457 H 204.758 -6.54213 5.71376 0
M  V30 7458 H 205.03 -5.30492 4.44033 0
M  V30 7459 H 204.162 -4.55889 6.76652 0
M  V30 7460 P 200.199 -4.23843 7.83734 0
M  V30 7461 O 199.979 -4.19407 9.29784 0
M  V30 7462 O 199.409 -5.24426 7.09156 0
M  V30 7463 O 199.949 -2.7935 7.20758 0
M  V30 7464 C 200.889 -1.7299 7.50419 0
M  V30 7465 C 200.159 -0.406376 7.57911 0
M  V30 7466 O 199.949 0.0897726 6.21935 0
M  V30 7467 C 198.759 -0.447224 8.1878 0
M  V30 7468 O 198.369 0.825065 8.71101 0
M  V30 7469 C 197.879 -0.783801 6.99623 0
M  V30 7470 C 198.589 -0.0619192 5.85967 0
M  V30 7471 N 198.539 -0.7859 4.56281 0
M  V30 7472 H 201.378 -1.93423 8.4679 0
M  V30 7473 H 201.65 -1.68181 6.71046 0
M  V30 7474 H 200.782 0.289041 8.15388 0
M  V30 7475 P 196.819 1.17771 8.83182 0
M  V30 7476 O 196.599 2.07206 9.98732 0
M  V30 7477 O 196.029 -0.0743816 8.81969 0
M  V30 7478 O 196.569 1.97652 7.47304 0
M  V30 7479 C 197.509 3.01133 7.08783 0
M  V30 7480 C 196.779 4.12613 6.37049 0
M  V30 7481 O 196.569 3.72827 4.97879 0
M  V30 7482 C 195.379 4.45085 6.88694 0
M  V30 7483 O 194.989 5.7877 6.5624 0
M  V30 7484 C 194.499 3.47817 6.12078 0
M  V30 7485 C 195.209 3.39414 4.77697 0
M  V30 7486 N 195.159 2.04615 4.15333 0
M  V30 7487 H 197.998 3.41248 7.98759 0
M  V30 7488 H 198.27 2.5837 6.41742 0
M  V30 7489 H 197.402 5.02657 6.42673 0
M  V30 7490 P 193.439 6.144 6.45285 0
M  V30 7491 O 193.219 7.54673 6.86199 0
M  V30 7492 O 192.649 5.12391 7.179 0
M  V30 7493 O 193.189 5.99158 4.88404 0
M  V30 7494 C 194.129 6.60234 3.96415 0
M  V30 7495 C 193.399 7.08259 2.72856 0
M  V30 7496 O 193.189 5.9427 1.83651 0
M  V30 7497 C 191.999 7.64886 2.9555 0
M  V30 7498 O 191.609 8.53963 1.90717 0
M  V30 7499 C 191.119 6.4116 2.90739 0
M  V30 7500 C 191.829 5.55375 1.86963 0
M  V30 7501 N 191.779 4.09664 2.15742 0
M  V30 7502 H 194.618 7.45574 4.45629 0
M  V30 7503 H 194.89 5.86232 3.67314 0
M  V30 7504 H 194.022 7.84412 2.24479 0
M  V30 7505 P 190.059 8.7635 1.60911 0
M  V30 7506 O 189.839 10.1388 1.11561 0
M  V30 7507 O 189.269 8.36503 2.79617 0
M  V30 7508 O 189.809 7.71806 0.42951 0
M  V30 7509 C 190.749 7.67148 -0.673689 0
M  V30 7510 C 190.019 7.33374 -1.95559 0
M  V30 7511 O 189.809 5.88721 -2.00726 0
M  V30 7512 C 188.619 7.92526 -2.10483 0
M  V30 7513 O 188.229 8.02971 -3.47653 0
M  V30 7514 C 187.739 6.89602 -1.41652 0
M  V30 7515 C 188.449 5.59201 -1.75185 0
M  V30 7516 N 188.399 4.58235 -0.662552 0
M  V30 7517 H 191.238 8.65116 -0.777161 0
M  V30 7518 H 191.51 6.90173 -0.474152 0
M  V30 7519 H 190.642 7.66548 -2.79458 0
M  V30 7520 P 186.679 8.03563 -3.84925 0
M  V30 7521 O 186.459 8.85821 -5.0569 0
M  V30 7522 O 185.889 8.41101 -2.65469 0
M  V30 7523 O 186.429 6.49734 -4.18962 0
M  V30 7524 C 187.369 5.81037 -5.05421 0
M  V30 7525 C 186.639 4.79018 -5.88876 0
M  V30 7526 O 186.429 3.58359 -5.08515 0
M  V30 7527 C 185.239 5.17448 -6.36119 0
M  V30 7528 O 184.849 4.45322 -7.53318 0
M  V30 7529 C 184.359 4.74639 -5.19936 0
M  V30 7530 C 185.069 3.49432 -4.70418 0
M  V30 7531 N 185.019 3.31776 -3.22945 0
M  V30 7532 C 184.869 2.02742 -2.72939 0
M  V30 7533 O 184.779 1.08301 -3.52749 0
M  V30 7534 N 184.819 1.96117 -1.22063 0
M  V30 7535 C 184.919 2.8878 -0.551566 0
M  V30 7536 N 184.869 2.65609 0.750198 0
M  V30 7537 C 185.069 4.22457 -1.03707 0
M  V30 7538 C 185.119 4.37979 -2.39113 0
M  V30 7539 H 187.859 6.54138 -5.7131 0
M  V30 7540 H 188.129 5.30492 -4.44033 0
M  V30 7541 H 187.262 4.55945 -6.76735 0
M  V30 7542 H 184.607 2.6176 -5.18021 0
M  V30 7543 H 184.327 5.52233 -4.41941 0
M  V30 7544 H 183.336 4.52045 -5.53452 0
M  V30 7545 H 185.17 6.25124 -6.55234 0
M  V30 7546 H 185.242 5.37936 -2.80552 0
M  V30 7547 H 185.14 5.07528 -0.359553 0
M  V30 7548 H 184.752 1.69403 1.09847 0
M  V30 7549 H 184.948 3.43701 1.41792 0
M  V30 7550 P 183.299 4.23843 -7.83734 0
M  V30 7551 O 183.079 4.19407 -9.29784 0
M  V30 7552 O 182.509 5.24426 -7.09156 0
M  V30 7553 O 183.049 2.79386 -7.20852 0
M  V30 7554 C 183.989 1.7299 -7.50419 0
M  V30 7555 C 183.259 0.41401 -7.5797 0
M  V30 7556 O 183.049 -0.089787 -6.22035 0
M  V30 7557 C 181.859 0.447224 -8.1878 0
M  V30 7558 O 181.469 -0.825159 -8.71201 0
M  V30 7559 C 180.979 0.783801 -6.99623 0
M  V30 7560 C 181.689 0.0619192 -5.85967 0
M  V30 7561 N 181.639 0.7859 -4.56281 0
M  V30 7562 C 181.489 0.0359258 -3.39981 0
M  V30 7563 O 181.399 -1.19723 -3.49038 0
M  V30 7564 N 181.439 0.869151 -2.14025 0
M  V30 7565 C 181.539 2.01207 -2.14363 0
M  V30 7566 N 181.489 2.58978 -0.954287 0
M  V30 7567 C 181.689 2.80817 -3.32215 0
M  V30 7568 C 181.739 2.13785 -4.50884 0
M  V30 7569 H 184.479 1.93401 -8.46693 0
M  V30 7570 H 184.749 1.68181 -6.71046 0
M  V30 7571 H 183.882 -0.289076 -8.15488 0
M  V30 7572 H 181.227 -0.927166 -5.72947 0
M  V30 7573 H 180.947 1.87 -6.82132 0
M  V30 7574 H 179.956 0.404009 -7.13457 0
M  V30 7575 H 181.79 1.20599 -8.97534 0
M  V30 7576 H 181.862 2.70295 -5.43162 0
M  V30 7577 H 181.76 3.89465 -3.27406 0
M  V30 7578 H 181.372 2.01616 -0.107046 0
M  V30 7579 H 181.568 3.61403 -0.873101 0
M  V30 7580 P 179.919 -1.17771 -8.83182 0
M  V30 7581 O 179.699 -2.07206 -9.98732 0
M  V30 7582 O 179.129 0.0743816 -8.81969 0
M  V30 7583 O 179.669 -1.97652 -7.47304 0
M  V30 7584 C 180.609 -3.01133 -7.08783 0
M  V30 7585 C 179.879 -4.12613 -6.37049 0
M  V30 7586 O 179.669 -3.72827 -4.97879 0
M  V30 7587 C 178.479 -4.45085 -6.88694 0
M  V30 7588 O 178.089 -5.7877 -6.5624 0
M  V30 7589 C 177.599 -3.47817 -6.12078 0
M  V30 7590 C 178.309 -3.39414 -4.77697 0
M  V30 7591 N 178.259 -2.04615 -4.15333 0
M  V30 7592 H 181.098 -3.41248 -7.98759 0
M  V30 7593 H 181.37 -2.5837 -6.41742 0
M  V30 7594 H 180.502 -5.02657 -6.42673 0
M  V30 7595 P 176.539 -6.144 -6.45285 0
M  V30 7596 O 176.319 -7.54673 -6.86199 0
M  V30 7597 O 175.749 -5.12391 -7.179 0
M  V30 7598 O 176.289 -5.99158 -4.88404 0
M  V30 7599 C 177.229 -6.60234 -3.96415 0
M  V30 7600 C 176.499 -7.08259 -2.72856 0
M  V30 7601 O 176.289 -5.9427 -1.83651 0
M  V30 7602 C 175.099 -7.64886 -2.9555 0
M  V30 7603 O 174.709 -8.53963 -1.90717 0
M  V30 7604 C 174.219 -6.4116 -2.90739 0
M  V30 7605 C 174.929 -5.55375 -1.86963 0
M  V30 7606 N 174.879 -4.09664 -2.15742 0
M  V30 7607 H 177.718 -7.45574 -4.45629 0
M  V30 7608 H 177.99 -5.86232 -3.67314 0
M  V30 7609 H 177.122 -7.84412 -2.24479 0
M  V30 7610 P 173.159 -8.7635 -1.60911 0
M  V30 7611 O 172.939 -10.1388 -1.11561 0
M  V30 7612 O 172.369 -8.36503 -2.79617 0
M  V30 7613 O 172.909 -7.71806 -0.42951 0
M  V30 7614 C 173.849 -7.66948 0.673514 0
M  V30 7615 C 173.119 -7.33374 1.95559 0
M  V30 7616 O 172.909 -5.88721 2.00726 0
M  V30 7617 C 171.719 -7.92218 2.1125 0
M  V30 7618 O 171.329 -8.02971 3.47653 0
M  V30 7619 C 170.839 -6.89504 1.41631 0
M  V30 7620 C 171.549 -5.59106 1.75155 0
M  V30 7621 N 171.499 -4.58136 0.662409 0
M  V30 7622 C 171.349 -3.26059 1.02863 0
M  V30 7623 O 171.259 -2.90743 2.19009 0
M  V30 7624 N 171.309 -2.35995 -0.0155585 0
M  V30 7625 C 171.399 -2.65248 -1.35603 0
M  V30 7626 O 171.349 -1.75605 -2.20651 0
M  V30 7627 C 171.549 -4.05747 -1.64698 0
M  V30 7628 C 171.659 -4.42345 -3.09553 0
M  V30 7629 C 171.599 -4.96734 -0.652411 0
M  V30 7630 H 174.34 -8.64917 0.776982 0
M  V30 7631 H 174.609 -6.89974 0.474015 0
M  V30 7632 H 173.742 -7.66548 2.79458 0
M  V30 7633 H 171.087 -5.16076 2.65138 0
M  V30 7634 H 170.808 -7.06433 0.329384 0
M  V30 7635 H 169.816 -6.90829 1.81996 0
M  V30 7636 H 171.65 -8.90774 1.62639 0
M  V30 7637 H 171.721 -6.02181 -0.895285 0
M  V30 7638 H 170.691 -4.80252 -3.45468 0
M  V30 7639 H 172.428 -5.20015 -3.22119 0
M  V30 7640 H 171.94 -3.53269 -3.67833 0
M  V30 7641 H 171.204 -1.39558 0.227499 0
M  V30 7642 P 169.779 -8.03563 3.84925 0
M  V30 7643 O 169.559 -8.85821 5.0569 0
M  V30 7644 O 168.989 -8.41101 2.65469 0
M  V30 7645 O 169.529 -6.4965 4.18908 0
M  V30 7646 C 170.469 -5.80886 5.05289 0
M  V30 7647 C 169.739 -4.78366 5.89277 0
M  V30 7648 O 169.529 -3.58302 5.08433 0
M  V30 7649 C 168.339 -5.16748 6.36559 0
M  V30 7650 O 167.949 -4.45271 7.53232 0
M  V30 7651 C 167.459 -4.74572 5.19863 0
M  V30 7652 C 168.169 -3.49373 4.70338 0
M  V30 7653 N 168.119 -3.31704 3.22876 0
M  V30 7654 C 167.969 -2.03326 2.74871 0
M  V30 7655 O 167.879 -1.06486 3.48076 0
M  V30 7656 N 167.929 -1.91838 1.37456 0
M  V30 7657 C 168.019 -2.94295 0.462035 0
M  V30 7658 O 167.969 -2.71763 -0.752928 0
M  V30 7659 C 168.169 -4.25064 1.05249 0
M  V30 7660 C 168.279 -5.39815 0.095697 0
M  V30 7661 C 168.219 -4.40214 2.39192 0
M  V30 7662 H 170.96 -6.54063 5.71245 0
M  V30 7663 H 171.229 -5.30339 4.43905 0
M  V30 7664 H 170.362 -4.55889 6.76652 0
M  V30 7665 H 167.707 -2.6167 5.17842 0
M  V30 7666 H 167.428 -5.52155 4.41878 0
M  V30 7667 H 166.436 -4.51918 5.53297 0
M  V30 7668 H 168.27 -6.25055 6.55162 0
M  V30 7669 H 168.341 -5.39798 2.81523 0
M  V30 7670 H 167.311 -5.91593 0.0279582 0
M  V30 7671 H 169.048 -6.10038 0.450573 0
M  V30 7672 H 168.56 -5.02007 -0.89937 0
M  V30 7673 H 167.824 -0.995326 1.00435 0
M  V30 7674 P 166.399 -4.23843 7.83734 0
M  V30 7675 O 166.179 -4.19407 9.29784 0
M  V30 7676 O 165.609 -5.24426 7.09156 0
M  V30 7677 O 166.149 -2.7935 7.20758 0
M  V30 7678 C 167.089 -1.7299 7.50419 0
M  V30 7679 C 166.359 -0.406376 7.57911 0
M  V30 7680 O 166.149 0.0897726 6.21935 0
M  V30 7681 C 164.959 -0.447224 8.1878 0
M  V30 7682 O 164.569 0.825065 8.71101 0
M  V30 7683 C 164.079 -0.783801 6.99623 0
M  V30 7684 C 164.789 -0.0619192 5.85967 0
M  V30 7685 N 164.739 -0.7859 4.56281 0
M  V30 7686 H 167.578 -1.93423 8.4679 0
M  V30 7687 H 167.85 -1.68181 6.71046 0
M  V30 7688 H 166.982 0.289041 8.15388 0
M  V30 7689 P 163.019 1.17771 8.83182 0
M  V30 7690 O 162.799 2.07206 9.98732 0
M  V30 7691 O 162.229 -0.0743816 8.81969 0
M  V30 7692 O 162.769 1.97652 7.47304 0
M  V30 7693 C 163.709 3.01055 7.08599 0
M  V30 7694 C 162.979 4.12613 6.37049 0
M  V30 7695 O 162.769 3.72827 4.97879 0
M  V30 7696 C 161.579 4.45719 6.88164 0
M  V30 7697 O 161.189 5.7877 6.5624 0
M  V30 7698 C 160.699 3.47768 6.11991 0
M  V30 7699 C 161.409 3.39356 4.77615 0
M  V30 7700 N 161.359 2.04571 4.15244 0
M  V30 7701 C 161.209 1.98587 2.78314 0
M  V30 7702 O 161.119 2.98134 2.08835 0
M  V30 7703 N 161.169 0.714467 2.24925 0
M  V30 7704 C 161.259 -0.470001 2.94169 0
M  V30 7705 O 161.209 -1.55587 2.35195 0
M  V30 7706 C 161.409 -0.312541 4.36783 0
M  V30 7707 C 161.519 -1.57711 5.16352 0
M  V30 7708 C 161.459 0.914512 4.92583 0
M  V30 7709 H 164.2 3.41169 7.98575 0
M  V30 7710 H 164.469 2.58295 6.41556 0
M  V30 7711 H 163.602 5.02657 6.42673 0
M  V30 7712 H 160.947 4.11637 4.08885 0
M  V30 7713 H 160.668 2.49626 6.61679 0
M  V30 7714 H 159.676 3.86566 6.00778 0
M  V30 7715 H 161.51 4.29943 7.96918 0
M  V30 7716 H 161.581 1.00937 6.00374 0
M  V30 7717 H 160.551 -1.80153 5.63503 0
M  V30 7718 H 162.288 -1.4566 5.94104 0
M  V30 7719 H 161.8 -2.40664 4.49645 0
M  V30 7720 H 161.064 0.647622 1.25697 0
M  V30 7721 P 159.639 6.144 6.45285 0
M  V30 7722 O 159.419 7.54673 6.86199 0
M  V30 7723 O 158.849 5.12391 7.179 0
M  V30 7724 O 159.389 5.99158 4.88404 0
M  V30 7725 C 160.329 6.60234 3.96415 0
M  V30 7726 C 159.599 7.08259 2.72856 0
M  V30 7727 O 159.389 5.9427 1.83651 0
M  V30 7728 C 158.199 7.64886 2.9555 0
M  V30 7729 O 157.809 8.53963 1.90717 0
M  V30 7730 C 157.319 6.4116 2.90739 0
M  V30 7731 C 158.029 5.55375 1.86963 0
M  V30 7732 N 157.979 4.09664 2.15742 0
M  V30 7733 H 160.818 7.45574 4.45629 0
M  V30 7734 H 161.09 5.86232 3.67314 0
M  V30 7735 H 160.222 7.84412 2.24479 0
M  V30 7736 P 156.259 8.7635 1.60911 0
M  V30 7737 O 156.039 10.1388 1.11561 0
M  V30 7738 O 155.469 8.36503 2.79617 0
M  V30 7739 O 156.009 7.71806 0.42951 0
M  V30 7740 C 156.949 7.67148 -0.673689 0
M  V30 7741 C 156.219 7.33374 -1.95559 0
M  V30 7742 O 156.009 5.88721 -2.00726 0
M  V30 7743 C 154.819 7.92526 -2.10483 0
M  V30 7744 O 154.429 8.02971 -3.47653 0
M  V30 7745 C 153.939 6.89602 -1.41652 0
M  V30 7746 C 154.649 5.59201 -1.75185 0
M  V30 7747 N 154.599 4.58235 -0.662552 0
M  V30 7748 H 157.438 8.65116 -0.777161 0
M  V30 7749 H 157.71 6.90173 -0.474152 0
M  V30 7750 H 156.842 7.66548 -2.79458 0
M  V30 7751 P 152.879 8.03563 -3.84925 0
M  V30 7752 O 152.659 8.85821 -5.0569 0
M  V30 7753 O 152.089 8.41101 -2.65469 0
M  V30 7754 O 152.629 6.4965 -4.18908 0
M  V30 7755 C 153.569 5.81037 -5.05421 0
M  V30 7756 C 152.839 4.78366 -5.89277 0
M  V30 7757 O 152.629 3.58302 -5.08433 0
M  V30 7758 C 151.439 5.17448 -6.36119 0
M  V30 7759 O 151.049 4.45271 -7.53232 0
M  V30 7760 C 150.559 4.74639 -5.19936 0
M  V30 7761 C 151.269 3.49432 -4.70418 0
M  V30 7762 N 151.219 3.31776 -3.22945 0
M  V30 7763 H 154.058 6.54213 -5.71376 0
M  V30 7764 H 154.33 5.30492 -4.44033 0
M  V30 7765 H 153.462 4.55889 -6.76652 0
M  V30 7766 P 149.499 4.23843 -7.83734 0
M  V30 7767 O 149.279 4.19407 -9.29784 0
M  V30 7768 O 148.709 5.24426 -7.09156 0
M  V30 7769 O 149.249 2.7935 -7.20758 0
M  V30 7770 C 150.189 1.7299 -7.50419 0
M  V30 7771 C 149.459 0.406376 -7.57911 0
M  V30 7772 O 149.249 -0.0897726 -6.21935 0
M  V30 7773 C 148.059 0.447224 -8.1878 0
M  V30 7774 O 147.669 -0.825065 -8.71101 0
M  V30 7775 C 147.179 0.783801 -6.99623 0
M  V30 7776 C 147.889 0.0619192 -5.85967 0
M  V30 7777 N 147.839 0.7859 -4.56281 0
M  V30 7778 H 150.678 1.93423 -8.4679 0
M  V30 7779 H 150.95 1.68181 -6.71046 0
M  V30 7780 H 150.082 -0.289041 -8.15388 0
M  V30 7781 P 146.119 -1.17771 -8.83182 0
M  V30 7782 O 145.899 -2.07206 -9.98732 0
M  V30 7783 O 145.329 0.0743816 -8.81969 0
M  V30 7784 O 145.869 -1.97652 -7.47304 0
M  V30 7785 C 146.809 -3.01055 -7.08599 0
M  V30 7786 C 146.079 -4.12613 -6.37049 0
M  V30 7787 O 145.869 -3.72827 -4.97879 0
M  V30 7788 C 144.679 -4.45719 -6.88164 0
M  V30 7789 O 144.289 -5.7877 -6.5624 0
M  V30 7790 C 143.799 -3.47768 -6.11991 0
M  V30 7791 C 144.509 -3.39356 -4.77615 0
M  V30 7792 N 144.459 -2.04571 -4.15244 0
M  V30 7793 C 144.309 -1.98587 -2.78314 0
M  V30 7794 O 144.219 -2.98134 -2.08835 0
M  V30 7795 N 144.269 -0.714467 -2.24925 0
M  V30 7796 C 144.359 0.470001 -2.94169 0
M  V30 7797 O 144.309 1.55587 -2.35195 0
M  V30 7798 C 144.509 0.312541 -4.36783 0
M  V30 7799 C 144.619 1.57711 -5.16352 0
M  V30 7800 C 144.559 -0.914512 -4.92583 0
M  V30 7801 H 147.3 -3.41169 -7.98575 0
M  V30 7802 H 147.569 -2.58295 -6.41556 0
M  V30 7803 H 146.702 -5.02657 -6.42673 0
M  V30 7804 H 144.047 -4.11637 -4.08885 0
M  V30 7805 H 143.768 -2.49626 -6.61679 0
M  V30 7806 H 142.776 -3.86566 -6.00778 0
M  V30 7807 H 144.61 -4.29943 -7.96918 0
M  V30 7808 H 144.681 -1.00937 -6.00374 0
M  V30 7809 H 143.651 1.80153 -5.63503 0
M  V30 7810 H 145.388 1.4566 -5.94104 0
M  V30 7811 H 144.9 2.40664 -4.49645 0
M  V30 7812 H 144.164 -0.647622 -1.25697 0
M  V30 7813 P 142.739 -6.144 -6.45285 0
M  V30 7814 O 142.519 -7.54673 -6.86199 0
M  V30 7815 O 141.949 -5.12391 -7.179 0
M  V30 7816 O 142.489 -5.99158 -4.88404 0
M  V30 7817 C 143.429 -6.60234 -3.96415 0
M  V30 7818 C 142.699 -7.08259 -2.72856 0
M  V30 7819 O 142.489 -5.9427 -1.83651 0
M  V30 7820 C 141.299 -7.64886 -2.9555 0
M  V30 7821 O 140.909 -8.53963 -1.90717 0
M  V30 7822 C 140.419 -6.4116 -2.90739 0
M  V30 7823 C 141.129 -5.55375 -1.86963 0
M  V30 7824 N 141.079 -4.09448 -2.16152 0
M  V30 7825 H 143.918 -7.45574 -4.45629 0
M  V30 7826 H 144.19 -5.85864 -3.679 0
M  V30 7827 H 143.322 -7.84412 -2.24479 0
M  V30 7828 H 140.667 -5.73457 -0.888562 0
M  V30 7829 H 140.387 -5.90877 -3.88583 0
M  V30 7830 H 139.396 -6.6596 -2.58858 0
M  V30 7831 H 141.23 -8.16339 -3.92049 0
M  V30 7832 P 139.359 -8.7635 -1.60911 0
M  V30 7833 O 139.139 -10.1388 -1.11561 0
M  V30 7834 O 138.569 -8.36503 -2.79617 0
M  V30 7835 O 139.109 -7.71806 -0.42951 0
M  V30 7836 C 140.049 -7.66948 0.673514 0
M  V30 7837 C 139.319 -7.33374 1.95559 0
M  V30 7838 O 139.109 -5.88721 2.00726 0
M  V30 7839 C 137.919 -7.92218 2.1125 0
M  V30 7840 O 137.529 -8.02971 3.47653 0
M  V30 7841 C 137.039 -6.89504 1.41631 0
M  V30 7842 C 137.749 -5.59106 1.75155 0
M  V30 7843 N 137.699 -4.58136 0.662409 0
M  V30 7844 C 137.549 -3.26059 1.02863 0
M  V30 7845 O 137.459 -2.90743 2.19009 0
M  V30 7846 N 137.509 -2.35995 -0.0155585 0
M  V30 7847 C 137.599 -2.65248 -1.35603 0
M  V30 7848 O 137.549 -1.75605 -2.20651 0
M  V30 7849 C 137.749 -4.05747 -1.64698 0
M  V30 7850 C 137.859 -4.42345 -3.09553 0
M  V30 7851 C 137.799 -4.96734 -0.652411 0
M  V30 7852 H 140.54 -8.64917 0.776982 0
M  V30 7853 H 140.809 -6.89974 0.474015 0
M  V30 7854 H 139.942 -7.66548 2.79458 0
M  V30 7855 H 137.287 -5.16076 2.65138 0
M  V30 7856 H 137.008 -7.06433 0.329384 0
M  V30 7857 H 136.016 -6.90829 1.81996 0
M  V30 7858 H 137.85 -8.90774 1.62639 0
M  V30 7859 H 137.921 -6.02181 -0.895285 0
M  V30 7860 H 136.891 -4.80252 -3.45468 0
M  V30 7861 H 138.628 -5.20015 -3.22119 0
M  V30 7862 H 138.14 -3.53269 -3.67833 0
M  V30 7863 H 137.404 -1.39558 0.227499 0
M  V30 7864 P 135.979 -8.03563 3.84925 0
M  V30 7865 O 135.759 -8.85821 5.0569 0
M  V30 7866 O 135.189 -8.41101 2.65469 0
M  V30 7867 O 135.729 -6.4965 4.18908 0
M  V30 7868 C 136.669 -5.80886 5.05289 0
M  V30 7869 C 135.939 -4.78366 5.89277 0
M  V30 7870 O 135.729 -3.58302 5.08433 0
M  V30 7871 C 134.539 -5.16748 6.36559 0
M  V30 7872 O 134.149 -4.45271 7.53232 0
M  V30 7873 C 133.659 -4.74572 5.19863 0
M  V30 7874 C 134.369 -3.49373 4.70338 0
M  V30 7875 N 134.319 -3.31704 3.22876 0
M  V30 7876 C 134.169 -2.03326 2.74871 0
M  V30 7877 O 134.079 -1.06486 3.48076 0
M  V30 7878 N 134.129 -1.91838 1.37456 0
M  V30 7879 C 134.219 -2.94295 0.462035 0
M  V30 7880 O 134.169 -2.71763 -0.752928 0
M  V30 7881 C 134.369 -4.25064 1.05249 0
M  V30 7882 C 134.479 -5.39815 0.095697 0
M  V30 7883 C 134.419 -4.40214 2.39192 0
M  V30 7884 H 137.16 -6.54063 5.71245 0
M  V30 7885 H 137.429 -5.30339 4.43905 0
M  V30 7886 H 136.562 -4.55889 6.76652 0
M  V30 7887 H 133.907 -2.6167 5.17842 0
M  V30 7888 H 133.628 -5.52155 4.41878 0
M  V30 7889 H 132.636 -4.51918 5.53297 0
M  V30 7890 H 134.47 -6.25055 6.55162 0
M  V30 7891 H 134.541 -5.39798 2.81523 0
M  V30 7892 H 133.511 -5.91593 0.0279582 0
M  V30 7893 H 135.248 -6.10038 0.450573 0
M  V30 7894 H 134.76 -5.02007 -0.89937 0
M  V30 7895 H 134.024 -0.995326 1.00435 0
M  V30 7896 P 132.599 -4.23843 7.83734 0
M  V30 7897 O 132.379 -4.19407 9.29784 0
M  V30 7898 O 131.809 -5.24426 7.09156 0
M  V30 7899 O 132.349 -2.7935 7.20758 0
M  V30 7900 C 133.289 -1.7299 7.50419 0
M  V30 7901 C 132.559 -0.406376 7.57911 0
M  V30 7902 O 132.349 0.0897726 6.21935 0
M  V30 7903 C 131.159 -0.447224 8.1878 0
M  V30 7904 O 130.769 0.825065 8.71101 0
M  V30 7905 C 130.279 -0.783801 6.99623 0
M  V30 7906 C 130.989 -0.0619192 5.85967 0
M  V30 7907 N 130.939 -0.790462 4.56202 0
M  V30 7908 H 133.778 -1.93423 8.4679 0
M  V30 7909 H 134.05 -1.68852 6.70877 0
M  V30 7910 H 133.182 0.289041 8.15388 0
M  V30 7911 H 130.527 0.927006 5.72848 0
M  V30 7912 H 130.247 -1.86973 6.82036 0
M  V30 7913 H 129.256 -0.403953 7.13357 0
M  V30 7914 H 131.09 -1.20599 8.97534 0
M  V30 7915 P 129.219 1.17771 8.83182 0
M  V30 7916 O 128.999 2.07206 9.98732 0
M  V30 7917 O 128.429 -0.0743816 8.81969 0
M  V30 7918 O 128.969 1.97652 7.47304 0
M  V30 7919 C 129.909 3.01133 7.08783 0
M  V30 7920 C 129.179 4.12613 6.37049 0
M  V30 7921 O 128.969 3.72827 4.97879 0
M  V30 7922 C 127.779 4.45085 6.88694 0
M  V30 7923 O 127.389 5.7877 6.5624 0
M  V30 7924 C 126.899 3.47817 6.12078 0
M  V30 7925 C 127.609 3.39414 4.77697 0
M  V30 7926 N 127.559 2.04199 4.15538 0
M  V30 7927 C 127.639 0.821545 4.76977 0
M  V30 7928 N 127.569 -0.1794 3.94592 0
M  V30 7929 C 127.419 0.419121 2.70776 0
M  V30 7930 C 127.289 -0.109072 1.40577 0
M  V30 7931 N 127.279 -1.4104 1.1344 0
M  V30 7932 N 127.169 0.764381 0.39411 0
M  V30 7933 C 127.179 2.06587 0.664135 0
M  V30 7934 N 127.299 2.67948 1.82153 0
M  V30 7935 C 127.419 1.77942 2.8147 0
M  V30 7936 H 130.398 3.41248 7.98759 0
M  V30 7937 H 130.67 2.57728 6.42 0
M  V30 7938 H 129.802 5.02657 6.42673 0
M  V30 7939 H 127.147 4.11708 4.08956 0
M  V30 7940 H 126.867 2.49626 6.61679 0
M  V30 7941 H 125.876 3.8662 6.00862 0
M  V30 7942 H 127.71 4.29991 7.97006 0
M  V30 7943 H 127.751 0.702451 5.84696 0
M  V30 7944 H 127.37 -2.09647 1.89651 0
M  V30 7945 H 127.181 -1.73358 0.160575 0
M  V30 7946 H 127.073 2.71695 -0.195838 0
M  V30 7947 P 125.839 6.144 6.45285 0
M  V30 7948 O 125.619 7.54673 6.86199 0
M  V30 7949 O 125.049 5.12391 7.179 0
M  V30 7950 O 125.589 5.99236 4.88467 0
M  V30 7951 C 126.529 6.60234 3.96415 0
M  V30 7952 C 125.799 7.08079 2.736 0
M  V30 7953 O 125.589 5.94365 1.8368 0
M  V30 7954 C 124.399 7.64886 2.9555 0
M  V30 7955 O 124.009 8.5406 1.90739 0
M  V30 7956 C 123.519 6.4116 2.90739 0
M  V30 7957 C 124.229 5.55375 1.86963 0
M  V30 7958 N 124.179 4.09664 2.15742 0
M  V30 7959 C 124.029 3.22231 1.08477 0
M  V30 7960 O 123.939 3.68951 -0.0600489 0
M  V30 7961 N 123.979 1.76692 1.48799 0
M  V30 7962 C 124.079 1.41695 2.57602 0
M  V30 7963 N 124.029 0.107296 2.75791 0
M  V30 7964 C 124.229 2.29178 3.69733 0
M  V30 7965 C 124.279 3.62753 3.42653 0
M  V30 7966 H 127.019 7.45488 4.45578 0
M  V30 7967 H 127.289 5.86232 3.67314 0
M  V30 7968 H 126.422 7.84508 2.24507 0
M  V30 7969 H 123.767 5.73556 0.888715 0
M  V30 7970 H 123.487 5.9096 3.88638 0
M  V30 7971 H 122.496 6.66053 2.58894 0
M  V30 7972 H 124.33 8.16339 3.92049 0
M  V30 7973 H 124.402 4.33052 4.24913 0
M  V30 7974 H 124.3 1.9103 4.71577 0
M  V30 7975 H 123.912 -0.521221 1.95056 0
M  V30 7976 H 124.108 -0.286429 3.70695 0
M  V30 7977 P 122.459 8.7635 1.60911 0
M  V30 7978 O 122.239 10.1388 1.11561 0
M  V30 7979 O 121.669 8.36503 2.79617 0
M  V30 7980 O 122.209 7.71806 0.42951 0
M  V30 7981 C 123.149 7.67148 -0.673689 0
M  V30 7982 C 122.419 7.33374 -1.95559 0
M  V30 7983 O 122.209 5.88721 -2.00726 0
M  V30 7984 C 121.019 7.92526 -2.10483 0
M  V30 7985 O 120.629 8.02971 -3.47653 0
M  V30 7986 C 120.139 6.89602 -1.41652 0
M  V30 7987 C 120.849 5.59201 -1.75185 0
M  V30 7988 N 120.799 4.58301 -0.657969 0
M  V30 7989 H 123.638 8.65116 -0.777161 0
M  V30 7990 H 123.91 6.9022 -0.46725 0
M  V30 7991 H 123.042 7.66548 -2.79458 0
M  V30 7992 H 120.387 5.16165 -2.65183 0
M  V30 7993 H 120.107 7.06433 -0.329384 0
M  V30 7994 H 119.116 6.90926 -1.82021 0
M  V30 7995 H 120.95 8.90873 -1.62657 0
M  V30 7996 P 119.079 8.03563 -3.84925 0
M  V30 7997 O 118.859 8.85821 -5.0569 0
M  V30 7998 O 118.289 8.41101 -2.65469 0
M  V30 7999 O 118.829 6.49734 -4.18962 0
M  V30 8000 C 119.769 5.81037 -5.05421 0
M  V30 8001 C 119.039 4.79018 -5.88876 0
M  V30 8002 O 118.829 3.58359 -5.08515 0
M  V30 8003 C 117.639 5.17448 -6.36119 0
M  V30 8004 O 117.249 4.45322 -7.53318 0
M  V30 8005 C 116.759 4.74639 -5.19936 0
M  V30 8006 C 117.469 3.49432 -4.70418 0
M  V30 8007 N 117.419 3.31776 -3.22945 0
M  V30 8008 C 117.269 2.02742 -2.72939 0
M  V30 8009 O 117.179 1.08301 -3.52749 0
M  V30 8010 N 117.219 1.96117 -1.22063 0
M  V30 8011 C 117.319 2.8878 -0.551566 0
M  V30 8012 N 117.269 2.65609 0.750198 0
M  V30 8013 C 117.469 4.22457 -1.03707 0
M  V30 8014 C 117.519 4.37979 -2.39113 0
M  V30 8015 H 120.259 6.54138 -5.7131 0
M  V30 8016 H 120.529 5.30492 -4.44033 0
M  V30 8017 H 119.662 4.55945 -6.76735 0
M  V30 8018 H 117.007 2.6176 -5.18021 0
M  V30 8019 H 116.727 5.52233 -4.41941 0
M  V30 8020 H 115.736 4.52045 -5.53452 0
M  V30 8021 H 117.57 6.25124 -6.55234 0
M  V30 8022 H 117.642 5.37936 -2.80552 0
M  V30 8023 H 117.54 5.07528 -0.359553 0
M  V30 8024 H 117.152 1.69403 1.09847 0
M  V30 8025 H 117.348 3.43701 1.41792 0
M  V30 8026 P 115.699 4.23843 -7.83734 0
M  V30 8027 O 115.479 4.19407 -9.29784 0
M  V30 8028 O 114.909 5.24426 -7.09156 0
M  V30 8029 O 115.449 2.7935 -7.20758 0
M  V30 8030 C 116.389 1.7299 -7.50419 0
M  V30 8031 C 115.659 0.406376 -7.57911 0
M  V30 8032 O 115.449 -0.0897726 -6.21935 0
M  V30 8033 C 114.259 0.447224 -8.1878 0
M  V30 8034 O 113.869 -0.825065 -8.71101 0
M  V30 8035 C 113.379 0.783801 -6.99623 0
M  V30 8036 C 114.089 0.0619192 -5.85967 0
M  V30 8037 N 114.039 0.7859 -4.56281 0
M  V30 8038 H 116.878 1.93423 -8.4679 0
M  V30 8039 H 117.15 1.68181 -6.71046 0
M  V30 8040 H 116.282 -0.289041 -8.15388 0
M  V30 8041 P 112.319 -1.17771 -8.83182 0
M  V30 8042 O 112.099 -2.07206 -9.98732 0
M  V30 8043 O 111.529 0.0743816 -8.81969 0
M  V30 8044 O 112.069 -1.97652 -7.47304 0
M  V30 8045 C 113.009 -3.01133 -7.08783 0
M  V30 8046 C 112.279 -4.12613 -6.37049 0
M  V30 8047 O 112.069 -3.72827 -4.97879 0
M  V30 8048 C 110.879 -4.45085 -6.88694 0
M  V30 8049 O 110.489 -5.7877 -6.5624 0
M  V30 8050 C 109.999 -3.47817 -6.12078 0
M  V30 8051 C 110.709 -3.39414 -4.77697 0
M  V30 8052 N 110.659 -2.04615 -4.15333 0
M  V30 8053 H 113.498 -3.41248 -7.98759 0
M  V30 8054 H 113.77 -2.5837 -6.41742 0
M  V30 8055 H 112.902 -5.02657 -6.42673 0
M  V30 8056 P 108.939 -6.144 -6.45285 0
M  V30 8057 O 108.719 -7.54673 -6.86199 0
M  V30 8058 O 108.149 -5.12391 -7.179 0
M  V30 8059 O 108.689 -5.99158 -4.88404 0
M  V30 8060 C 109.629 -6.60234 -3.96415 0
M  V30 8061 C 108.899 -7.08259 -2.72856 0
M  V30 8062 O 108.689 -5.9427 -1.83651 0
M  V30 8063 C 107.499 -7.64886 -2.9555 0
M  V30 8064 O 107.109 -8.53963 -1.90717 0
M  V30 8065 C 106.619 -6.4116 -2.90739 0
M  V30 8066 C 107.329 -5.55375 -1.86963 0
M  V30 8067 N 107.279 -4.09448 -2.16152 0
M  V30 8068 H 110.118 -7.45574 -4.45629 0
M  V30 8069 H 110.39 -5.85864 -3.679 0
M  V30 8070 H 109.522 -7.84412 -2.24479 0
M  V30 8071 H 106.867 -5.73457 -0.888562 0
M  V30 8072 H 106.587 -5.90877 -3.88583 0
M  V30 8073 H 105.596 -6.6596 -2.58858 0
M  V30 8074 H 107.43 -8.16339 -3.92049 0
M  V30 8075 P 105.559 -8.7635 -1.60911 0
M  V30 8076 O 105.339 -10.1388 -1.11561 0
M  V30 8077 O 104.769 -8.36503 -2.79617 0
M  V30 8078 O 105.309 -7.71806 -0.42951 0
M  V30 8079 C 106.249 -7.67148 0.673689 0
M  V30 8080 C 105.519 -7.33374 1.95559 0
M  V30 8081 O 105.309 -5.88721 2.00726 0
M  V30 8082 C 104.119 -7.92526 2.10483 0
M  V30 8083 O 103.729 -8.02971 3.47653 0
M  V30 8084 C 103.239 -6.89602 1.41652 0
M  V30 8085 C 103.949 -5.59201 1.75185 0
M  V30 8086 N 103.899 -4.58235 0.662552 0
M  V30 8087 H 106.738 -8.65116 0.777161 0
M  V30 8088 H 107.01 -6.90173 0.474152 0
M  V30 8089 H 106.142 -7.66548 2.79458 0
M  V30 8090 P 102.179 -8.03563 3.84925 0
M  V30 8091 O 101.959 -8.85821 5.0569 0
M  V30 8092 O 101.389 -8.41101 2.65469 0
M  V30 8093 O 101.929 -6.4965 4.18908 0
M  V30 8094 C 102.869 -5.81037 5.05421 0
M  V30 8095 C 102.139 -4.78366 5.89277 0
M  V30 8096 O 101.929 -3.58302 5.08433 0
M  V30 8097 C 100.739 -5.17448 6.36119 0
M  V30 8098 O 100.349 -4.45271 7.53232 0
M  V30 8099 C 99.8594 -4.74639 5.19936 0
M  V30 8100 C 100.569 -3.49432 4.70418 0
M  V30 8101 N 100.519 -3.31776 3.22945 0
M  V30 8102 H 103.358 -6.54213 5.71376 0
M  V30 8103 H 103.63 -5.30492 4.44033 0
M  V30 8104 H 102.762 -4.55889 6.76652 0
M  V30 8105 P 98.7994 -4.23843 7.83734 0
M  V30 8106 O 98.5794 -4.19407 9.29784 0
M  V30 8107 O 98.0094 -5.24426 7.09156 0
M  V30 8108 O 98.5494 -2.7935 7.20758 0
M  V30 8109 C 99.4894 -1.7299 7.50419 0
M  V30 8110 C 98.7594 -0.406376 7.57911 0
M  V30 8111 O 98.5494 0.0897726 6.21935 0
M  V30 8112 C 97.3594 -0.447224 8.1878 0
M  V30 8113 O 96.9694 0.825065 8.71101 0
M  V30 8114 C 96.4794 -0.783801 6.99623 0
M  V30 8115 C 97.1894 -0.0619192 5.85967 0
M  V30 8116 N 97.1394 -0.7859 4.56281 0
M  V30 8117 H 99.9784 -1.93423 8.4679 0
M  V30 8118 H 100.25 -1.68181 6.71046 0
M  V30 8119 H 99.3824 0.289041 8.15388 0
M  V30 8120 P 95.4195 1.17771 8.83182 0
M  V30 8121 O 95.1995 2.07206 9.98732 0
M  V30 8122 O 94.6295 -0.0743816 8.81969 0
M  V30 8123 O 95.1695 1.97652 7.47304 0
M  V30 8124 C 96.1095 3.01133 7.08783 0
M  V30 8125 C 95.3795 4.12613 6.37049 0
M  V30 8126 O 95.1695 3.72827 4.97879 0
M  V30 8127 C 93.9795 4.45085 6.88694 0
M  V30 8128 O 93.5895 5.7877 6.5624 0
M  V30 8129 C 93.0995 3.47817 6.12078 0
M  V30 8130 C 93.8095 3.39414 4.77697 0
M  V30 8131 N 93.7595 2.04615 4.15333 0
M  V30 8132 H 96.5985 3.41248 7.98759 0
M  V30 8133 H 96.8705 2.5837 6.41742 0
M  V30 8134 H 96.0025 5.02657 6.42673 0
M  V30 8135 P 92.0395 6.144 6.45285 0
M  V30 8136 O 91.8195 7.54673 6.86199 0
M  V30 8137 O 91.2495 5.12391 7.179 0
M  V30 8138 O 91.7895 5.99236 4.88467 0
M  V30 8139 C 92.7295 6.60234 3.96415 0
M  V30 8140 C 91.9995 7.08079 2.736 0
M  V30 8141 O 91.7895 5.94365 1.8368 0
M  V30 8142 C 90.5995 7.64886 2.9555 0
M  V30 8143 O 90.2095 8.5406 1.90739 0
M  V30 8144 C 89.7195 6.4116 2.90739 0
M  V30 8145 C 90.4295 5.55375 1.86963 0
M  V30 8146 N 90.3795 4.09664 2.15742 0
M  V30 8147 C 90.2295 3.22231 1.08477 0
M  V30 8148 O 90.1395 3.68951 -0.0600489 0
M  V30 8149 N 90.1795 1.76692 1.48799 0
M  V30 8150 C 90.2795 1.41695 2.57602 0
M  V30 8151 N 90.2295 0.107296 2.75791 0
M  V30 8152 C 90.4295 2.29178 3.69733 0
M  V30 8153 C 90.4795 3.62753 3.42653 0
M  V30 8154 H 93.2195 7.45488 4.45578 0
M  V30 8155 H 93.4895 5.86232 3.67314 0
M  V30 8156 H 92.6225 7.84508 2.24507 0
M  V30 8157 H 89.9675 5.73556 0.888715 0
M  V30 8158 H 89.6875 5.9096 3.88638 0
M  V30 8159 H 88.6965 6.66053 2.58894 0
M  V30 8160 H 90.5305 8.16339 3.92049 0
M  V30 8161 H 90.6025 4.33052 4.24913 0
M  V30 8162 H 90.5005 1.9103 4.71577 0
M  V30 8163 H 90.1125 -0.521221 1.95056 0
M  V30 8164 H 90.3085 -0.286429 3.70695 0
M  V30 8165 P 88.6595 8.7635 1.60911 0
M  V30 8166 O 88.4395 10.1388 1.11561 0
M  V30 8167 O 87.8695 8.36503 2.79617 0
M  V30 8168 O 88.4095 7.71806 0.42951 0
M  V30 8169 C 89.3495 7.67148 -0.673689 0
M  V30 8170 C 88.6195 7.33374 -1.95559 0
M  V30 8171 O 88.4095 5.88721 -2.00726 0
M  V30 8172 C 87.2195 7.92526 -2.10483 0
M  V30 8173 O 86.8295 8.02971 -3.47653 0
M  V30 8174 C 86.3395 6.89602 -1.41652 0
M  V30 8175 C 87.0495 5.59201 -1.75185 0
M  V30 8176 N 86.9995 4.58235 -0.662552 0
M  V30 8177 H 89.8385 8.65116 -0.777161 0
M  V30 8178 H 90.1105 6.90173 -0.474152 0
M  V30 8179 H 89.2425 7.66548 -2.79458 0
M  V30 8180 P 85.2795 8.03563 -3.84925 0
M  V30 8181 O 85.0595 8.85821 -5.0569 0
M  V30 8182 O 84.4895 8.41101 -2.65469 0
M  V30 8183 O 85.0295 6.4965 -4.18908 0
M  V30 8184 C 85.9695 5.81037 -5.05421 0
M  V30 8185 C 85.2395 4.78366 -5.89277 0
M  V30 8186 O 85.0295 3.58302 -5.08433 0
M  V30 8187 C 83.8395 5.17448 -6.36119 0
M  V30 8188 O 83.4495 4.45271 -7.53232 0
M  V30 8189 C 82.9595 4.74639 -5.19936 0
M  V30 8190 C 83.6695 3.49432 -4.70418 0
M  V30 8191 N 83.6195 3.31776 -3.22945 0
M  V30 8192 H 86.4585 6.54213 -5.71376 0
M  V30 8193 H 86.7305 5.30492 -4.44033 0
M  V30 8194 H 85.8625 4.55889 -6.76652 0
M  V30 8195 P 81.8995 4.23843 -7.83734 0
M  V30 8196 O 81.6795 4.19407 -9.29784 0
M  V30 8197 O 81.1095 5.24426 -7.09156 0
M  V30 8198 O 81.6495 2.7935 -7.20758 0
M  V30 8199 C 82.5895 1.7299 -7.50419 0
M  V30 8200 C 81.8595 0.406376 -7.57911 0
M  V30 8201 O 81.6495 -0.0897726 -6.21935 0
M  V30 8202 C 80.4595 0.447224 -8.1878 0
M  V30 8203 O 80.0695 -0.825065 -8.71101 0
M  V30 8204 C 79.5795 0.783801 -6.99623 0
M  V30 8205 C 80.2895 0.0619192 -5.85967 0
M  V30 8206 N 80.2395 0.7859 -4.56281 0
M  V30 8207 C 80.3195 2.14308 -4.31736 0
M  V30 8208 N 80.2395 2.46106 -3.05116 0
M  V30 8209 C 80.0995 1.23422 -2.4014 0
M  V30 8210 C 79.9695 0.938381 -1.02409 0
M  V30 8211 O 79.9495 1.70876 -0.0650402 0
M  V30 8212 N 79.8495 -0.444647 -0.805413 0
M  V30 8213 C 79.8495 -1.40829 -1.79435 0
M  V30 8214 N 79.7195 -2.67213 -1.38558 0
M  V30 8215 N 79.9795 -1.12947 -3.09005 0
M  V30 8216 C 80.0995 0.204887 -3.32369 0
M  V30 8217 H 83.0785 1.93423 -8.4679 0
M  V30 8218 H 83.3505 1.68181 -6.71046 0
M  V30 8219 H 82.4825 -0.289041 -8.15388 0
M  V30 8220 H 79.8275 -0.927166 -5.72947 0
M  V30 8221 H 79.5475 1.87 -6.82132 0
M  V30 8222 H 78.5565 0.404009 -7.13457 0
M  V30 8223 H 80.3905 1.20612 -8.97633 0
M  V30 8224 H 80.4395 2.88284 -5.10874 0
M  V30 8225 H 79.7575 -0.755087 0.140242 0
M  V30 8226 H 79.7205 -3.43967 -2.0729 0
M  V30 8227 H 79.6195 -2.88096 -0.380644 0
M  V30 8228 P 78.5196 -1.17771 -8.83182 0
M  V30 8229 O 78.2996 -2.07206 -9.98732 0
M  V30 8230 O 77.7296 0.0743816 -8.81969 0
M  V30 8231 O 78.2696 -1.97678 -7.474 0
M  V30 8232 C 79.2096 -3.01133 -7.08783 0
M  V30 8233 C 78.4796 -4.1203 -6.37546 0
M  V30 8234 O 78.2696 -3.72887 -4.9796 0
M  V30 8235 C 77.0796 -4.45085 -6.88694 0
M  V30 8236 O 76.6896 -5.78836 -6.56315 0
M  V30 8237 C 76.1996 -3.47817 -6.12078 0
M  V30 8238 C 76.9096 -3.39414 -4.77697 0
M  V30 8239 N 76.8596 -2.04615 -4.15333 0
M  V30 8240 C 76.7096 -1.96929 -2.77162 0
M  V30 8241 O 76.6196 -3.02017 -2.12006 0
M  V30 8242 N 76.6596 -0.55485 -2.24237 0
M  V30 8243 C 76.7596 0.367808 -2.9169 0
M  V30 8244 N 76.7096 1.53426 -2.29427 0
M  V30 8245 C 76.9096 0.319148 -4.33828 0
M  V30 8246 C 76.9596 -0.920672 -4.90433 0
M  V30 8247 H 79.6996 -3.41209 -7.98667 0
M  V30 8248 H 79.9696 -2.5837 -6.41742 0
M  V30 8249 H 79.1026 -5.02718 -6.42752 0
M  V30 8250 H 76.4476 -4.11779 -4.09026 0
M  V30 8251 H 76.1676 -2.49661 -6.61772 0
M  V30 8252 H 75.1766 -3.86674 -6.00946 0
M  V30 8253 H 77.0106 -4.29991 -7.97006 0
M  V30 8254 H 77.0826 -1.00589 -5.98303 0
M  V30 8255 H 76.9806 1.22639 -4.93799 0
M  V30 8256 H 76.5926 1.56819 -1.27167 0
M  V30 8257 H 76.7886 2.41062 -2.83063 0
M  V30 8258 P 75.1396 -6.144 -6.45285 0
M  V30 8259 O 74.9196 -7.54673 -6.86199 0
M  V30 8260 O 74.3496 -5.12391 -7.179 0
M  V30 8261 O 74.8896 -5.99158 -4.88404 0
M  V30 8262 C 75.8296 -6.60234 -3.96415 0
M  V30 8263 C 75.0996 -7.08259 -2.72856 0
M  V30 8264 O 74.8896 -5.9427 -1.83651 0
M  V30 8265 C 73.6996 -7.64886 -2.9555 0
M  V30 8266 O 73.3096 -8.53963 -1.90717 0
M  V30 8267 C 72.8196 -6.4116 -2.90739 0
M  V30 8268 C 73.5296 -5.55375 -1.86963 0
M  V30 8269 N 73.4796 -4.09448 -2.16152 0
M  V30 8270 H 76.3186 -7.45574 -4.45629 0
M  V30 8271 H 76.5906 -5.85864 -3.679 0
M  V30 8272 H 75.7226 -7.84412 -2.24479 0
M  V30 8273 H 73.0676 -5.73457 -0.888562 0
M  V30 8274 H 72.7876 -5.90877 -3.88583 0
M  V30 8275 H 71.7966 -6.6596 -2.58858 0
M  V30 8276 H 73.6306 -8.16339 -3.92049 0
M  V30 8277 P 71.7596 -8.7635 -1.60911 0
M  V30 8278 O 71.5396 -10.1388 -1.11561 0
M  V30 8279 O 70.9696 -8.36503 -2.79617 0
M  V30 8280 O 71.5096 -7.71806 -0.42951 0
M  V30 8281 C 72.4496 -7.67148 0.673689 0
M  V30 8282 C 71.7196 -7.33374 1.95559 0
M  V30 8283 O 71.5096 -5.88721 2.00726 0
M  V30 8284 C 70.3196 -7.92526 2.10483 0
M  V30 8285 O 69.9296 -8.02971 3.47653 0
M  V30 8286 C 69.4396 -6.89602 1.41652 0
M  V30 8287 C 70.1496 -5.59201 1.75185 0
M  V30 8288 N 70.0996 -4.58235 0.662552 0
M  V30 8289 H 72.9386 -8.65116 0.777161 0
M  V30 8290 H 73.2106 -6.90173 0.474152 0
M  V30 8291 H 72.3426 -7.66548 2.79458 0
M  V30 8292 P 68.3796 -8.03563 3.84925 0
M  V30 8293 O 68.1596 -8.85821 5.0569 0
M  V30 8294 O 67.5896 -8.41101 2.65469 0
M  V30 8295 O 68.1296 -6.4965 4.18908 0
M  V30 8296 C 69.0696 -5.81037 5.05421 0
M  V30 8297 C 68.3396 -4.78366 5.89277 0
M  V30 8298 O 68.1296 -3.58302 5.08433 0
M  V30 8299 C 66.9396 -5.17448 6.36119 0
M  V30 8300 O 66.5496 -4.45271 7.53232 0
M  V30 8301 C 66.0596 -4.74639 5.19936 0
M  V30 8302 C 66.7696 -3.49432 4.70418 0
M  V30 8303 N 66.7196 -3.31776 3.22945 0
M  V30 8304 H 69.5586 -6.54213 5.71376 0
M  V30 8305 H 69.8306 -5.30492 4.44033 0
M  V30 8306 H 68.9626 -4.55889 6.76652 0
M  V30 8307 P 64.9996 -4.23843 7.83734 0
M  V30 8308 O 64.7796 -4.19407 9.29784 0
M  V30 8309 O 64.2096 -5.24426 7.09156 0
M  V30 8310 O 64.7496 -2.7935 7.20758 0
M  V30 8311 C 65.6896 -1.7299 7.50419 0
M  V30 8312 C 64.9596 -0.406376 7.57911 0
M  V30 8313 O 64.7496 0.0897726 6.21935 0
M  V30 8314 C 63.5596 -0.447224 8.1878 0
M  V30 8315 O 63.1696 0.825065 8.71101 0
M  V30 8316 C 62.6796 -0.783801 6.99623 0
M  V30 8317 C 63.3896 -0.0619192 5.85967 0
M  V30 8318 N 63.3396 -0.7859 4.56281 0
M  V30 8319 H 66.1786 -1.93423 8.4679 0
M  V30 8320 H 66.4506 -1.68181 6.71046 0
M  V30 8321 H 65.5826 0.289041 8.15388 0
M  V30 8322 P 61.6197 1.17771 8.83182 0
M  V30 8323 O 61.3997 2.07206 9.98732 0
M  V30 8324 O 60.8297 -0.0743816 8.81969 0
M  V30 8325 O 61.3697 1.97652 7.47304 0
M  V30 8326 C 62.3097 3.01133 7.08783 0
M  V30 8327 C 61.5797 4.12613 6.37049 0
M  V30 8328 O 61.3697 3.72827 4.97879 0
M  V30 8329 C 60.1797 4.45085 6.88694 0
M  V30 8330 O 59.7897 5.7877 6.5624 0
M  V30 8331 C 59.2997 3.47817 6.12078 0
M  V30 8332 C 60.0097 3.39414 4.77697 0
M  V30 8333 N 59.9597 2.04199 4.15538 0
M  V30 8334 H 62.7987 3.41248 7.98759 0
M  V30 8335 H 63.0707 2.57728 6.42 0
M  V30 8336 H 62.2027 5.02657 6.42673 0
M  V30 8337 H 59.5477 4.11708 4.08956 0
M  V30 8338 H 59.2677 2.49626 6.61679 0
M  V30 8339 H 58.2767 3.8662 6.00862 0
M  V30 8340 H 60.1107 4.29991 7.97006 0
M  V30 8341 P 58.2397 6.144 6.45285 0
M  V30 8342 O 58.0197 7.54673 6.86199 0
M  V30 8343 O 57.4497 5.12391 7.179 0
M  V30 8344 O 57.9897 5.99236 4.88467 0
M  V30 8345 C 58.9297 6.60234 3.96415 0
M  V30 8346 C 58.1997 7.08079 2.736 0
M  V30 8347 O 57.9897 5.94365 1.8368 0
M  V30 8348 C 56.7997 7.64886 2.9555 0
M  V30 8349 O 56.4097 8.5406 1.90739 0
M  V30 8350 C 55.9197 6.4116 2.90739 0
M  V30 8351 C 56.6297 5.55375 1.86963 0
M  V30 8352 N 56.5797 4.09664 2.15742 0
M  V30 8353 C 56.4297 3.22231 1.08477 0
M  V30 8354 O 56.3397 3.68951 -0.0600489 0
M  V30 8355 N 56.3797 1.76692 1.48799 0
M  V30 8356 C 56.4797 1.41695 2.57602 0
M  V30 8357 N 56.4297 0.107296 2.75791 0
M  V30 8358 C 56.6297 2.29178 3.69733 0
M  V30 8359 C 56.6797 3.62753 3.42653 0
M  V30 8360 H 59.4197 7.45488 4.45578 0
M  V30 8361 H 59.6897 5.86232 3.67314 0
M  V30 8362 H 58.8227 7.84508 2.24507 0
M  V30 8363 H 56.1677 5.73556 0.888715 0
M  V30 8364 H 55.8877 5.9096 3.88638 0
M  V30 8365 H 54.8967 6.66053 2.58894 0
M  V30 8366 H 56.7307 8.16339 3.92049 0
M  V30 8367 H 56.8027 4.33052 4.24913 0
M  V30 8368 H 56.7007 1.9103 4.71577 0
M  V30 8369 H 56.3127 -0.521221 1.95056 0
M  V30 8370 H 56.5087 -0.286429 3.70695 0
M  V30 8371 P 54.8597 8.7635 1.60911 0
M  V30 8372 O 54.6397 10.1388 1.11561 0
M  V30 8373 O 54.0697 8.36503 2.79617 0
M  V30 8374 O 54.6097 7.71806 0.42951 0
M  V30 8375 C 55.5497 7.67148 -0.673689 0
M  V30 8376 C 54.8197 7.33374 -1.95559 0
M  V30 8377 O 54.6097 5.88721 -2.00726 0
M  V30 8378 C 53.4197 7.92526 -2.10483 0
M  V30 8379 O 53.0297 8.02971 -3.47653 0
M  V30 8380 C 52.5397 6.89602 -1.41652 0
M  V30 8381 C 53.2497 5.59201 -1.75185 0
M  V30 8382 N 53.1997 4.58235 -0.662552 0
M  V30 8383 H 56.0387 8.65116 -0.777161 0
M  V30 8384 H 56.3107 6.90173 -0.474152 0
M  V30 8385 H 55.4427 7.66548 -2.79458 0
M  V30 8386 P 51.4797 8.03563 -3.84925 0
M  V30 8387 O 51.2597 8.85821 -5.0569 0
M  V30 8388 O 50.6897 8.41101 -2.65469 0
M  V30 8389 O 51.2297 6.4965 -4.18908 0
M  V30 8390 C 52.1697 5.81037 -5.05421 0
M  V30 8391 C 51.4397 4.78366 -5.89277 0
M  V30 8392 O 51.2297 3.58302 -5.08433 0
M  V30 8393 C 50.0397 5.17448 -6.36119 0
M  V30 8394 O 49.6497 4.45271 -7.53232 0
M  V30 8395 C 49.1597 4.74639 -5.19936 0
M  V30 8396 C 49.8697 3.49432 -4.70418 0
M  V30 8397 N 49.8197 3.31776 -3.22945 0
M  V30 8398 H 52.6587 6.54213 -5.71376 0
M  V30 8399 H 52.9307 5.30492 -4.44033 0
M  V30 8400 H 52.0627 4.55889 -6.76652 0
M  V30 8401 P 48.0997 4.23843 -7.83734 0
M  V30 8402 O 47.8797 4.19407 -9.29784 0
M  V30 8403 O 47.3097 5.24426 -7.09156 0
M  V30 8404 O 47.8497 2.7935 -7.20758 0
M  V30 8405 C 48.7897 1.7299 -7.50419 0
M  V30 8406 C 48.0597 0.406376 -7.57911 0
M  V30 8407 O 47.8497 -0.0897726 -6.21935 0
M  V30 8408 C 46.6597 0.447224 -8.1878 0
M  V30 8409 O 46.2697 -0.825065 -8.71101 0
M  V30 8410 C 45.7797 0.783801 -6.99623 0
M  V30 8411 C 46.4897 0.0619192 -5.85967 0
M  V30 8412 N 46.4397 0.790462 -4.56202 0
M  V30 8413 H 49.2787 1.93423 -8.4679 0
M  V30 8414 H 49.5507 1.68852 -6.70877 0
M  V30 8415 H 48.6827 -0.289041 -8.15388 0
M  V30 8416 H 46.0277 -0.927006 -5.72848 0
M  V30 8417 H 45.7477 1.86973 -6.82036 0
M  V30 8418 H 44.7567 0.403953 -7.13357 0
M  V30 8419 H 46.5907 1.20599 -8.97534 0
M  V30 8420 P 44.7198 -1.17771 -8.83182 0
M  V30 8421 O 44.4998 -2.07206 -9.98732 0
M  V30 8422 O 43.9298 0.0743816 -8.81969 0
M  V30 8423 O 44.4698 -1.97652 -7.47304 0
M  V30 8424 C 45.4098 -3.01133 -7.08783 0
M  V30 8425 C 44.6798 -4.12613 -6.37049 0
M  V30 8426 O 44.4698 -3.72827 -4.97879 0
M  V30 8427 C 43.2798 -4.45085 -6.88694 0
M  V30 8428 O 42.8898 -5.7877 -6.5624 0
M  V30 8429 C 42.3998 -3.47817 -6.12078 0
M  V30 8430 C 43.1098 -3.39414 -4.77697 0
M  V30 8431 N 43.0598 -2.04199 -4.15538 0
M  V30 8432 H 45.8988 -3.41248 -7.98759 0
M  V30 8433 H 46.1708 -2.57728 -6.42 0
M  V30 8434 H 45.3028 -5.02657 -6.42673 0
M  V30 8435 H 42.6478 -4.11708 -4.08956 0
M  V30 8436 H 42.3678 -2.49626 -6.61679 0
M  V30 8437 H 41.3768 -3.8662 -6.00862 0
M  V30 8438 H 43.2108 -4.29991 -7.97006 0
M  V30 8439 P 41.3398 -6.144 -6.45285 0
M  V30 8440 O 41.1198 -7.54673 -6.86199 0
M  V30 8441 O 40.5498 -5.12391 -7.179 0
M  V30 8442 O 41.0898 -5.99158 -4.88404 0
M  V30 8443 C 42.0298 -6.60234 -3.96415 0
M  V30 8444 C 41.2998 -7.08259 -2.72856 0
M  V30 8445 O 41.0898 -5.9427 -1.83651 0
M  V30 8446 C 39.8998 -7.64886 -2.9555 0
M  V30 8447 O 39.5098 -8.53963 -1.90717 0
M  V30 8448 C 39.0198 -6.4116 -2.90739 0
M  V30 8449 C 39.7298 -5.55375 -1.86963 0
M  V30 8450 N 39.6798 -4.09664 -2.15742 0
M  V30 8451 H 42.5188 -7.45574 -4.45629 0
M  V30 8452 H 42.7908 -5.86232 -3.67314 0
M  V30 8453 H 41.9228 -7.84412 -2.24479 0
M  V30 8454 P 37.9598 -8.7635 -1.60911 0
M  V30 8455 O 37.7398 -10.1388 -1.11561 0
M  V30 8456 O 37.1698 -8.36503 -2.79617 0
M  V30 8457 O 37.7098 -7.71806 -0.42951 0
M  V30 8458 C 38.6498 -7.67148 0.673689 0
M  V30 8459 C 37.9198 -7.33374 1.95559 0
M  V30 8460 O 37.7098 -5.88721 2.00726 0
M  V30 8461 C 36.5198 -7.92526 2.10483 0
M  V30 8462 O 36.1298 -8.02971 3.47653 0
M  V30 8463 C 35.6398 -6.89602 1.41652 0
M  V30 8464 C 36.3498 -5.59201 1.75185 0
M  V30 8465 N 36.2998 -4.58301 0.657969 0
M  V30 8466 C 36.3798 -4.79019 -0.692603 0
M  V30 8467 N 36.3098 -3.69736 -1.38998 0
M  V30 8468 C 36.1598 -2.70474 -0.438135 0
M  V30 8469 C 36.0298 -1.30327 -0.538142 0
M  V30 8470 N 36.0198 -0.64304 -1.69192 0
M  V30 8471 N 35.9098 -0.611027 0.605183 0
M  V30 8472 C 35.9198 -1.27002 1.75953 0
M  V30 8473 N 36.0398 -2.56038 1.98546 0
M  V30 8474 C 36.1598 -3.22681 0.822541 0
M  V30 8475 H 39.1388 -8.65116 0.777161 0
M  V30 8476 H 39.4108 -6.9022 0.46725 0
M  V30 8477 H 38.5428 -7.66548 2.79458 0
M  V30 8478 H 35.8878 -5.16165 2.65183 0
M  V30 8479 H 35.6078 -7.06433 0.329384 0
M  V30 8480 H 34.6168 -6.90926 1.82021 0
M  V30 8481 H 36.4508 -8.90873 1.62657 0
M  V30 8482 H 36.4918 -5.77785 -1.13874 0
M  V30 8483 H 36.1108 -1.15585 -2.57991 0
M  V30 8484 H 35.9218 0.382989 -1.69835 0
M  V30 8485 H 35.8138 -0.653331 2.64449 0
M  V30 8486 P 34.5798 -8.03563 3.84925 0
M  V30 8487 O 34.3598 -8.85821 5.0569 0
M  V30 8488 O 33.7898 -8.41101 2.65469 0
M  V30 8489 O 34.3298 -6.4965 4.18908 0
M  V30 8490 C 35.2698 -5.81037 5.05421 0
M  V30 8491 C 34.5398 -4.78366 5.89277 0
M  V30 8492 O 34.3298 -3.58302 5.08433 0
M  V30 8493 C 33.1398 -5.17448 6.36119 0
M  V30 8494 O 32.7498 -4.45271 7.53232 0
M  V30 8495 C 32.2598 -4.74639 5.19936 0
M  V30 8496 C 32.9698 -3.49432 4.70418 0
M  V30 8497 N 32.9198 -3.32099 3.22613 0
M  V30 8498 C 32.9998 -4.28245 2.25527 0
M  V30 8499 N 32.9298 -3.80823 1.04874 0
M  V30 8500 C 32.7798 -2.44571 1.23535 0
M  V30 8501 C 32.6498 -1.37068 0.330675 0
M  V30 8502 N 32.6398 -1.51472 -0.990824 0
M  V30 8503 N 32.5298 -0.138614 0.848756 0
M  V30 8504 C 32.5398 0.00675923 2.16999 0
M  V30 8505 N 32.6598 -0.904372 3.11122 0
M  V30 8506 C 32.7798 -2.12707 2.56212 0
M  V30 8507 H 35.7588 -6.54213 5.71376 0
M  V30 8508 H 36.0308 -5.30936 4.43503 0
M  V30 8509 H 35.1628 -4.55889 6.76652 0
M  V30 8510 H 32.5078 -2.61715 5.17932 0
M  V30 8511 H 32.2278 -5.52155 4.41878 0
M  V30 8512 H 31.2368 -4.51981 5.53374 0
M  V30 8513 H 33.0708 -6.25124 6.55234 0
M  V30 8514 H 33.1118 -5.34372 2.47488 0
M  V30 8515 H 32.7308 -2.45153 -1.4078 0
M  V30 8516 H 32.5418 -0.688422 -1.59911 0
M  V30 8517 H 32.4338 1.02584 2.52346 0
M  V30 8518 P 31.1998 -4.23843 7.83734 0
M  V30 8519 O 30.9798 -4.19407 9.29784 0
M  V30 8520 O 30.4098 -5.24426 7.09156 0
M  V30 8521 O 30.9498 -2.7935 7.20758 0
M  V30 8522 C 31.8898 -1.72945 7.50224 0
M  V30 8523 C 31.1598 -0.406376 7.57911 0
M  V30 8524 O 30.9498 0.0897726 6.21935 0
M  V30 8525 C 29.7598 -0.438983 8.18724 0
M  V30 8526 O 29.3698 0.825065 8.71101 0
M  V30 8527 C 28.8798 -0.783689 6.99524 0
M  V30 8528 C 29.5898 -0.0619086 5.85867 0
M  V30 8529 N 29.5398 -0.78573 4.56183 0
M  V30 8530 C 29.3898 -0.0292889 3.41887 0
M  V30 8531 O 29.2998 1.18445 3.4419 0
M  V30 8532 N 29.3498 -0.744061 2.23964 0
M  V30 8533 C 29.4398 -2.10932 2.10362 0
M  V30 8534 C 29.5898 -2.8202 3.34994 0
M  V30 8535 C 29.6398 -2.15547 4.52261 0
M  V30 8536 H 32.3808 -1.93379 8.46595 0
M  V30 8537 H 32.6498 -1.68132 6.70852 0
M  V30 8538 H 31.7828 0.289041 8.15388 0
M  V30 8539 H 29.1278 0.926847 5.72749 0
M  V30 8540 H 28.8488 -1.86973 6.82036 0
M  V30 8541 H 27.8568 -0.403896 7.13257 0
M  V30 8542 H 29.6908 -1.20585 8.97435 0
M  V30 8543 H 29.7618 -2.71231 5.45042 0
M  V30 8544 P 27.8199 1.17771 8.83182 0
M  V30 8545 O 27.5999 2.07206 9.98732 0
M  V30 8546 O 27.0299 -0.0743816 8.81969 0
M  V30 8547 O 27.5699 1.97652 7.47304 0
M  V30 8548 C 28.5099 3.01133 7.08783 0
M  V30 8549 C 27.7799 4.12613 6.37049 0
M  V30 8550 O 27.5699 3.72827 4.97879 0
M  V30 8551 C 26.3799 4.45085 6.88694 0
M  V30 8552 O 25.9899 5.7877 6.5624 0
M  V30 8553 C 25.4999 3.47817 6.12078 0
M  V30 8554 C 26.2099 3.39414 4.77697 0
M  V30 8555 N 26.1599 2.04199 4.15538 0
M  V30 8556 H 28.9989 3.41248 7.98759 0
M  V30 8557 H 29.2709 2.57728 6.42 0
M  V30 8558 H 28.4029 5.02657 6.42673 0
M  V30 8559 H 25.7479 4.11708 4.08956 0
M  V30 8560 H 25.4679 2.49626 6.61679 0
M  V30 8561 H 24.4769 3.8662 6.00862 0
M  V30 8562 H 26.3109 4.29991 7.97006 0
M  V30 8563 P 24.4399 6.144 6.45285 0
M  V30 8564 O 24.2199 7.54673 6.86199 0
M  V30 8565 O 23.6499 5.12391 7.179 0
M  V30 8566 O 24.1899 5.99158 4.88404 0
M  V30 8567 C 25.1299 6.60234 3.96415 0
M  V30 8568 C 24.3999 7.08259 2.72856 0
M  V30 8569 O 24.1899 5.9427 1.83651 0
M  V30 8570 C 22.9999 7.64886 2.9555 0
M  V30 8571 O 22.6099 8.53963 1.90717 0
M  V30 8572 C 22.1199 6.4116 2.90739 0
M  V30 8573 C 22.8299 5.55375 1.86963 0
M  V30 8574 N 22.7799 4.09664 2.15742 0
M  V30 8575 H 25.6189 7.45574 4.45629 0
M  V30 8576 H 25.8909 5.86232 3.67314 0
M  V30 8577 H 25.0229 7.84412 2.24479 0
M  V30 8578 P 21.0599 8.7635 1.60911 0
M  V30 8579 O 20.8399 10.1388 1.11561 0
M  V30 8580 O 20.2699 8.36503 2.79617 0
M  V30 8581 O 20.8099 7.71806 0.42951 0
M  V30 8582 C 21.7499 7.67148 -0.673689 0
M  V30 8583 C 21.0199 7.33374 -1.95559 0
M  V30 8584 O 20.8099 5.88721 -2.00726 0
M  V30 8585 C 19.6199 7.92526 -2.10483 0
M  V30 8586 O 19.2299 8.02971 -3.47653 0
M  V30 8587 C 18.7399 6.89602 -1.41652 0
M  V30 8588 C 19.4499 5.59201 -1.75185 0
M  V30 8589 N 19.3999 4.58235 -0.662552 0
M  V30 8590 H 22.2389 8.65116 -0.777161 0
M  V30 8591 H 22.5109 6.90173 -0.474152 0
M  V30 8592 H 21.6429 7.66548 -2.79458 0
M  V30 8593 P 17.6799 8.03563 -3.84925 0
M  V30 8594 O 17.4599 8.85821 -5.0569 0
M  V30 8595 O 16.8899 8.41101 -2.65469 0
M  V30 8596 O 17.4299 6.4965 -4.18908 0
M  V30 8597 C 18.3699 5.81037 -5.05421 0
M  V30 8598 C 17.6399 4.78366 -5.89277 0
M  V30 8599 O 17.4299 3.58302 -5.08433 0
M  V30 8600 C 16.2399 5.17448 -6.36119 0
M  V30 8601 O 15.8499 4.45271 -7.53232 0
M  V30 8602 C 15.3599 4.74639 -5.19936 0
M  V30 8603 C 16.0699 3.49432 -4.70418 0
M  V30 8604 N 16.0199 3.31776 -3.22945 0
M  V30 8605 C 16.0999 4.27147 -2.23315 0
M  V30 8606 N 16.0199 3.78447 -1.02186 0
M  V30 8607 C 15.8799 2.41001 -1.21732 0
M  V30 8608 C 15.7499 1.36111 -0.27694 0
M  V30 8609 O 15.7299 1.42065 0.951767 0
M  V30 8610 N 15.6299 0.113683 -0.912949 0
M  V30 8611 C 15.6299 -0.0846396 -2.27943 0
M  V30 8612 N 15.4999 -1.34737 -2.6916 0
M  V30 8613 N 15.7599 0.902521 -3.16379 0
M  V30 8614 C 15.8799 2.11937 -2.56849 0
M  V30 8615 H 18.8589 6.54213 -5.71376 0
M  V30 8616 H 19.1309 5.30492 -4.44033 0
M  V30 8617 H 18.2629 4.55889 -6.76652 0
M  V30 8618 H 15.6079 2.6176 -5.18021 0
M  V30 8619 H 15.3279 5.52233 -4.41941 0
M  V30 8620 H 14.3369 4.52045 -5.53452 0
M  V30 8621 H 16.1709 6.25193 -6.55307 0
M  V30 8622 H 16.2199 5.3351 -2.43857 0
M  V30 8623 H 15.5379 -0.69331 -0.330371 0
M  V30 8624 H 15.5009 -1.56433 -3.6988 0
M  V30 8625 H 15.3999 -2.10701 -2.00133 0
M  V30 8626 P 14.2999 4.23843 -7.83734 0
M  V30 8627 O 14.0799 4.19407 -9.29784 0
M  V30 8628 O 13.5099 5.24426 -7.09156 0
M  V30 8629 O 14.0499 2.7935 -7.20758 0
M  V30 8630 C 14.9899 1.7299 -7.50419 0
M  V30 8631 C 14.2599 0.406376 -7.57911 0
M  V30 8632 O 14.0499 -0.0897726 -6.21935 0
M  V30 8633 C 12.8599 0.447224 -8.1878 0
M  V30 8634 O 12.4699 -0.825065 -8.71101 0
M  V30 8635 C 11.9799 0.783801 -6.99623 0
M  V30 8636 C 12.6899 0.0619192 -5.85967 0
M  V30 8637 N 12.6399 0.790462 -4.56202 0
M  V30 8638 H 15.4789 1.93423 -8.4679 0
M  V30 8639 H 15.7509 1.68852 -6.70877 0
M  V30 8640 H 14.8829 -0.289041 -8.15388 0
M  V30 8641 H 12.2279 -0.927006 -5.72848 0
M  V30 8642 H 11.9479 1.86973 -6.82036 0
M  V30 8643 H 10.9569 0.403953 -7.13357 0
M  V30 8644 H 12.7909 1.20599 -8.97534 0
M  V30 8645 P 10.92 -1.17771 -8.83182 0
M  V30 8646 O 10.7 -2.07206 -9.98732 0
M  V30 8647 O 10.13 0.0743816 -8.81969 0
M  V30 8648 O 10.67 -1.97652 -7.47304 0
M  V30 8649 C 11.61 -3.01133 -7.08783 0
M  V30 8650 C 10.88 -4.12613 -6.37049 0
M  V30 8651 O 10.67 -3.72827 -4.97879 0
M  V30 8652 C 9.47996 -4.45085 -6.88694 0
M  V30 8653 O 9.08996 -5.7877 -6.5624 0
M  V30 8654 C 8.59996 -3.47817 -6.12078 0
M  V30 8655 C 9.30996 -3.39414 -4.77697 0
M  V30 8656 N 9.25996 -2.04199 -4.15538 0
M  V30 8657 H 12.099 -3.41248 -7.98759 0
M  V30 8658 H 12.371 -2.57728 -6.42 0
M  V30 8659 H 11.503 -5.02657 -6.42673 0
M  V30 8660 H 8.84796 -4.11708 -4.08956 0
M  V30 8661 H 8.56796 -2.49626 -6.61679 0
M  V30 8662 H 7.57696 -3.8662 -6.00862 0
M  V30 8663 H 9.41096 -4.29991 -7.97006 0
M  V30 8664 P 7.53998 -6.144 -6.45285 0
M  V30 8665 O 7.31998 -7.54673 -6.86199 0
M  V30 8666 O 6.74998 -5.12391 -7.179 0
M  V30 8667 O 7.28998 -5.99158 -4.88404 0
M  V30 8668 C 8.22998 -6.60234 -3.96415 0
M  V30 8669 C 7.49998 -7.08259 -2.72856 0
M  V30 8670 O 7.28998 -5.9427 -1.83651 0
M  V30 8671 C 6.09998 -7.64886 -2.9555 0
M  V30 8672 O 5.70998 -8.53963 -1.90717 0
M  V30 8673 C 5.21998 -6.4116 -2.90739 0
M  V30 8674 C 5.92998 -5.55375 -1.86963 0
M  V30 8675 N 5.87998 -4.09448 -2.16152 0
M  V30 8676 H 8.71898 -7.45574 -4.45629 0
M  V30 8677 H 8.99098 -5.85864 -3.679 0
M  V30 8678 H 8.12298 -7.84412 -2.24479 0
M  V30 8679 H 5.46798 -5.73457 -0.888562 0
M  V30 8680 H 5.18798 -5.90877 -3.88583 0
M  V30 8681 H 4.19698 -6.6596 -2.58858 0
M  V30 8682 H 6.03098 -8.16339 -3.92049 0
M  V30 8683 P 4.16 -8.7635 -1.60911 0
M  V30 8684 O 3.94 -10.1388 -1.11561 0
M  V30 8685 O 3.37 -8.36503 -2.79617 0
M  V30 8686 O 3.91 -7.71806 -0.42951 0
M  V30 8687 C 4.85 -7.67148 0.673689 0
M  V30 8688 C 4.12 -7.33374 1.95559 0
M  V30 8689 O 3.91 -5.88721 2.00726 0
M  V30 8690 C 2.72 -7.92526 2.10483 0
M  V30 8691 O 2.33 -8.02971 3.47653 0
M  V30 8692 C 1.84 -6.89602 1.41652 0
M  V30 8693 C 2.55 -5.59201 1.75185 0
M  V30 8694 N 2.5 -4.58235 0.662552 0
M  V30 8695 H 5.339 -8.65116 0.777161 0
M  V30 8696 H 5.611 -6.90173 0.474152 0
M  V30 8697 H 4.743 -7.66548 2.79458 0
M  V30 8698 H 1.613 -8.66322 3.55694 0
M  V30 END ATOM
M  V30 BEGIN BOND
M  V30 END BOND
M  V30 END CTAB
M  END
$$$$
