drugbank_target|P11388 DNA topoisomerase 2-alpha (DB00218; DB00276; DB00380; DB00385; DB00444; DB00445; DB00467; DB00487; DB00537; DB00685; DB00694; DB00773; DB00978; DB00997; DB01059; DB01165; DB01177; DB01179; DB01204; DB01208; DB01645; DB04576; DB04967; DB04975; DB04978; DB05022; DB05129; DB05706; DB05920; DB06013; DB06042; DB06263; DB06362; DB06420; DB06421; DB09047)
 OpenBabel12092119393D

  0  0  0     0  0            999 V3000
M  V30 BEGIN CTAB
M  V30 COUNTS 58751 62921 0 0 0
M  V30 BEGIN ATOM
M  V30 1 H -1.547 9.37743 -1.21644 0
M  V30 2 O -1.44 8.89599 -0.40059 0
M  V30 3 P 0 8.91 0 0
M  V30 4 O 0.22 10.1746 0.733838 0
M  V30 5 O 0.79 8.73346 -1.23964 0
M  V30 6 O 0.25 7.66872 0.971405 0
M  V30 7 C -0.69 7.42405 2.04668 0
M  V30 8 C 0.04 6.86059 3.24661 0
M  V30 9 O 0.25 5.42934 3.03695 0
M  V30 10 C 1.44 7.41287 3.50796 0
M  V30 11 O 1.83 7.27073 4.86816 0
M  V30 12 C 2.32 6.5273 2.63741 0
M  V30 13 C 1.61 5.1842 2.73198 0
M  V30 14 N 1.66 4.38762 1.4784 0
M  V30 15 H -1.178 8.36899 2.3252 0
M  V30 16 H -1.45 6.70391 1.71179 0
M  V30 17 H -0.582 7.03638 4.13219 0
M  V30 18 H 2.073 4.59931 3.54016 0
M  V30 19 H 2.353 6.88995 1.59871 0
M  V30 20 H 3.344 6.4684 3.0373 0
M  V30 21 H 1.51 8.47002 3.20749 0
M  V30 22 P 3.37998 7.20834 5.23717 0
M  V30 23 O 3.59998 7.79853 6.57286 0
M  V30 24 O 4.16998 7.79239 4.12957 0
M  V30 25 O 3.62998 5.63315 5.29344 0
M  V30 26 C 2.68998 4.80255 6.01876 0
M  V30 27 C 3.41998 3.64202 6.65911 0
M  V30 28 O 3.62998 2.60694 5.64732 0
M  V30 29 C 4.81998 3.93473 7.1943 0
M  V30 30 O 5.20998 3.02071 8.21205 0
M  V30 31 C 5.69998 3.73047 5.97036 0
M  V30 32 C 4.98998 2.58828 5.25741 0
M  V30 33 N 5.03998 2.68068 3.77503 0
M  V30 34 H 2.20098 5.40332 6.79951 0
M  V30 35 H 1.93098 4.41613 5.32378 0
M  V30 36 H 2.79798 3.26331 7.47797 0
M  V30 37 P 6.75996 2.75334 8.47391 0
M  V30 38 O 6.97996 2.44571 9.90142 0
M  V30 39 O 7.54996 3.87688 7.92115 0
M  V30 40 O 7.00996 1.4459 7.59357 0
M  V30 41 C 6.06996 0.347608 7.69215 0
M  V30 42 C 6.79996 -0.96767 7.52806 0
M  V30 43 O 7.00996 -1.21036 6.1011 0
M  V30 44 C 8.19996 -1.04544 8.13308 0
M  V30 45 O 8.58996 -2.38311 8.41922 0
M  V30 46 C 9.07996 -0.491279 7.02284 0
M  V30 47 C 8.36996 -0.996264 5.77469 0
M  V30 48 N 8.41996 -0.0501916 4.62973 0
M  V30 49 H 5.58096 0.374722 8.67691 0
M  V30 50 H 5.31096 0.443485 6.90277 0
M  V30 51 H 6.17796 -1.75537 7.96793 0
M  V30 52 P 10.1399 -2.75334 8.47391 0
M  V30 53 O 10.3599 -3.84128 9.44797 0
M  V30 54 O 10.9299 -1.51947 8.68712 0
M  V30 55 O 10.3899 -3.29363 6.99321 0
M  V30 56 C 9.44994 -4.24011 6.4274 0
M  V30 57 C 10.1799 -5.20775 5.52155 0
M  V30 58 O 10.3899 -4.56534 4.22446 0
M  V30 59 C 11.5799 -5.62629 5.96531 0
M  V30 60 O 11.9699 -6.87667 5.41053 0
M  V30 61 C 12.4599 -4.52537 5.39283 0
M  V30 62 C 11.7499 -4.20027 4.08623 0
M  V30 63 N 11.7999 -2.76189 3.71603 0
M  V30 64 H 8.96094 -4.797 7.24003 0
M  V30 65 H 8.69094 -3.69856 5.84513 0
M  V30 66 H 9.55794 -6.10356 5.41441 0
M  V30 67 P 13.5199 -7.20834 5.23717 0
M  V30 68 O 13.7399 -8.66104 5.38572 0
M  V30 69 O 14.3099 -6.33544 6.1349 0
M  V30 70 O 13.7699 -6.7751 3.72168 0
M  V30 71 C 12.8299 -7.20825 2.7076 0
M  V30 72 C 13.5599 -7.45864 1.40599 0
M  V30 73 O 13.7699 -6.17651 0.734225 0
M  V30 74 C 14.9599 -8.05808 1.51899 0
M  V30 75 O 15.3499 -8.74358 0.335205 0
M  V30 76 C 15.8399 -6.83093 1.70294 0
M  V30 77 C 15.1299 -5.79992 0.836974 0
M  V30 78 N 15.1799 -4.41864 1.38293 0
M  V30 79 H 12.3409 -8.13644 3.0377 0
M  V30 80 H 12.0709 -6.42788 2.55485 0
M  V30 81 H 12.9379 -8.12039 0.792769 0
M  V30 82 P 16.8999 -8.91 1.09116e-15 0
M  V30 83 O 17.1199 -10.1726 -0.733694 0
M  V30 84 O 17.6899 -8.73148 1.23936 0
M  V30 85 O 17.1499 -7.66872 -0.971405 0
M  V30 86 C 16.2099 -7.42309 -2.04641 0
M  V30 87 C 16.9399 -6.86059 -3.24661 0
M  V30 88 O 17.1499 -5.42847 -3.03646 0
M  V30 89 C 18.3399 -7.41196 -3.50753 0
M  V30 90 O 18.7299 -7.27073 -4.86816 0
M  V30 91 C 19.2199 -6.5273 -2.63741 0
M  V30 92 C 18.5099 -5.1842 -2.73198 0
M  V30 93 N 18.5599 -4.38762 -1.4784 0
M  V30 94 H 15.7209 -8.36803 -2.32493 0
M  V30 95 H 15.4509 -6.70197 -1.71129 0
M  V30 96 H 16.3179 -7.03551 -4.13168 0
M  V30 97 P 20.2799 -7.20834 -5.23717 0
M  V30 98 O 20.4999 -7.79853 -6.57286 0
M  V30 99 O 21.0699 -7.79239 -4.12957 0
M  V30 100 O 20.5299 -5.63315 -5.29344 0
M  V30 101 C 19.5899 -4.80255 -6.01876 0
M  V30 102 C 20.3199 -3.64202 -6.65911 0
M  V30 103 O 20.5299 -2.60694 -5.64732 0
M  V30 104 C 21.7199 -3.93473 -7.1943 0
M  V30 105 O 22.1099 -3.02071 -8.21205 0
M  V30 106 C 22.5999 -3.73047 -5.97036 0
M  V30 107 C 21.8899 -2.58828 -5.25741 0
M  V30 108 N 21.9399 -2.68068 -3.77503 0
M  V30 109 H 19.1009 -5.40332 -6.79951 0
M  V30 110 H 18.8309 -4.41613 -5.32378 0
M  V30 111 H 19.6979 -3.26331 -7.47797 0
M  V30 112 P 23.6599 -2.75334 -8.47391 0
M  V30 113 O 23.8799 -2.44571 -9.90142 0
M  V30 114 O 24.4499 -3.87688 -7.92115 0
M  V30 115 O 23.9099 -1.4459 -7.59357 0
M  V30 116 C 22.9699 -0.347608 -7.69215 0
M  V30 117 C 23.6999 0.96767 -7.52806 0
M  V30 118 O 23.9099 1.21036 -6.1011 0
M  V30 119 C 25.0999 1.04544 -8.13308 0
M  V30 120 O 25.4899 2.38311 -8.41922 0
M  V30 121 C 25.9799 0.491279 -7.02284 0
M  V30 122 C 25.2699 0.996264 -5.77469 0
M  V30 123 N 25.3199 0.0501916 -4.62973 0
M  V30 124 H 22.4809 -0.374722 -8.67691 0
M  V30 125 H 22.2109 -0.443485 -6.90277 0
M  V30 126 H 23.0779 1.75537 -7.96793 0
M  V30 127 P 27.0398 2.75334 -8.47391 0
M  V30 128 O 27.2598 3.84128 -9.44797 0
M  V30 129 O 27.8298 1.51947 -8.68712 0
M  V30 130 O 27.2898 3.29363 -6.99321 0
M  V30 131 C 26.3498 4.24011 -6.4274 0
M  V30 132 C 27.0798 5.20775 -5.52155 0
M  V30 133 O 27.2898 4.56534 -4.22446 0
M  V30 134 C 28.4798 5.62629 -5.96531 0
M  V30 135 O 28.8698 6.87667 -5.41053 0
M  V30 136 C 29.3598 4.52537 -5.39283 0
M  V30 137 C 28.6498 4.20027 -4.08623 0
M  V30 138 N 28.6998 2.76189 -3.71603 0
M  V30 139 H 25.8608 4.797 -7.24003 0
M  V30 140 H 25.5908 3.69856 -5.84513 0
M  V30 141 H 26.4578 6.10356 -5.41441 0
M  V30 142 P 30.4198 7.20834 -5.23717 0
M  V30 143 O 30.6398 8.66104 -5.38572 0
M  V30 144 O 31.2098 6.33544 -6.1349 0
M  V30 145 O 30.6698 6.7751 -3.72168 0
M  V30 146 C 29.7298 7.20825 -2.7076 0
M  V30 147 C 30.4598 7.45864 -1.40599 0
M  V30 148 O 30.6698 6.17651 -0.734225 0
M  V30 149 C 31.8598 8.05808 -1.51899 0
M  V30 150 O 32.2498 8.74358 -0.335205 0
M  V30 151 C 32.7398 6.83093 -1.70294 0
M  V30 152 C 32.0298 5.79992 -0.836974 0
M  V30 153 N 32.0798 4.41864 -1.38293 0
M  V30 154 H 29.2408 8.13644 -3.0377 0
M  V30 155 H 28.9708 6.42788 -2.55485 0
M  V30 156 H 29.8378 8.12039 -0.792769 0
M  V30 157 P 33.7998 8.91 -2.18232e-15 0
M  V30 158 O 34.0198 10.1726 0.733694 0
M  V30 159 O 34.5898 8.73148 -1.23936 0
M  V30 160 O 34.0498 7.66872 0.971405 0
M  V30 161 C 33.1098 7.42309 2.04641 0
M  V30 162 C 33.8398 6.86059 3.24661 0
M  V30 163 O 34.0498 5.42847 3.03646 0
M  V30 164 C 35.2398 7.41196 3.50753 0
M  V30 165 O 35.6298 7.27073 4.86816 0
M  V30 166 C 36.1198 6.5273 2.63741 0
M  V30 167 C 35.4098 5.1842 2.73198 0
M  V30 168 N 35.4598 4.38762 1.4784 0
M  V30 169 H 32.6208 8.36803 2.32493 0
M  V30 170 H 32.3508 6.70197 1.71129 0
M  V30 171 H 33.2178 7.03551 4.13168 0
M  V30 172 P 37.1798 7.20834 5.23717 0
M  V30 173 O 37.3998 7.79853 6.57286 0
M  V30 174 O 37.9698 7.79239 4.12957 0
M  V30 175 O 37.4298 5.63315 5.29344 0
M  V30 176 C 36.4898 4.80255 6.01876 0
M  V30 177 C 37.2198 3.64202 6.65911 0
M  V30 178 O 37.4298 2.60694 5.64732 0
M  V30 179 C 38.6198 3.93473 7.1943 0
M  V30 180 O 39.0098 3.02071 8.21205 0
M  V30 181 C 39.4998 3.73047 5.97036 0
M  V30 182 C 38.7898 2.58828 5.25741 0
M  V30 183 N 38.8398 2.68068 3.77503 0
M  V30 184 H 36.0008 5.40332 6.79951 0
M  V30 185 H 35.7308 4.41613 5.32378 0
M  V30 186 H 36.5978 3.26331 7.47797 0
M  V30 187 P 40.5598 2.75334 8.47391 0
M  V30 188 O 40.7798 2.44619 9.90336 0
M  V30 189 O 41.3498 3.87776 7.92294 0
M  V30 190 O 40.8098 1.4459 7.59357 0
M  V30 191 C 39.8698 0.347653 7.69315 0
M  V30 192 C 40.5998 -0.96767 7.52806 0
M  V30 193 O 40.8098 -1.21055 6.10208 0
M  V30 194 C 41.9998 -1.04557 8.13408 0
M  V30 195 O 42.3898 -2.38311 8.41922 0
M  V30 196 C 42.8798 -0.491279 7.02284 0
M  V30 197 C 42.1698 -0.996264 5.77469 0
M  V30 198 N 42.2198 -0.0501916 4.62973 0
M  V30 199 H 39.3818 0.374765 8.67791 0
M  V30 200 H 39.1098 0.443613 6.90476 0
M  V30 201 H 39.9778 -1.75559 7.96891 0
M  V30 202 H 42.6328 -1.94563 5.46818 0
M  V30 203 H 42.9128 0.608651 7.04676 0
M  V30 204 H 43.9038 -0.889796 7.09039 0
M  V30 205 H 42.0698 -0.433128 9.04664 0
M  V30 206 P 43.9397 -2.75334 8.47391 0
M  V30 207 O 44.1597 -3.84128 9.44797 0
M  V30 208 O 44.7297 -1.51947 8.68712 0
M  V30 209 O 44.1897 -3.29363 6.99321 0
M  V30 210 C 43.2497 -4.24011 6.4274 0
M  V30 211 C 43.9797 -5.20775 5.52155 0
M  V30 212 O 44.1897 -4.56534 4.22446 0
M  V30 213 C 45.3797 -5.62629 5.96531 0
M  V30 214 O 45.7697 -6.87667 5.41053 0
M  V30 215 C 46.2597 -4.52537 5.39283 0
M  V30 216 C 45.5497 -4.20027 4.08623 0
M  V30 217 N 45.5997 -2.76189 3.71603 0
M  V30 218 H 42.7607 -4.797 7.24003 0
M  V30 219 H 42.4907 -3.69856 5.84513 0
M  V30 220 H 43.3577 -6.10356 5.41441 0
M  V30 221 P 47.3197 -7.20834 5.23717 0
M  V30 222 O 47.5397 -8.66104 5.38572 0
M  V30 223 O 48.1097 -6.33544 6.1349 0
M  V30 224 O 47.5697 -6.7751 3.72168 0
M  V30 225 C 46.6297 -7.20825 2.7076 0
M  V30 226 C 47.3597 -7.45864 1.40599 0
M  V30 227 O 47.5697 -6.17651 0.734225 0
M  V30 228 C 48.7597 -8.05808 1.51899 0
M  V30 229 O 49.1497 -8.74358 0.335205 0
M  V30 230 C 49.6397 -6.83093 1.70294 0
M  V30 231 C 48.9297 -5.79992 0.836974 0
M  V30 232 N 48.9797 -4.41864 1.38293 0
M  V30 233 H 46.1407 -8.13644 3.0377 0
M  V30 234 H 45.8707 -6.42788 2.55485 0
M  V30 235 H 46.7377 -8.12039 0.792769 0
M  V30 236 P 50.6997 -8.91 3.27348e-15 0
M  V30 237 O 50.9197 -10.1726 -0.733694 0
M  V30 238 O 51.4897 -8.73148 1.23936 0
M  V30 239 O 50.9497 -7.66872 -0.971405 0
M  V30 240 C 50.0097 -7.42309 -2.04641 0
M  V30 241 C 50.7397 -6.86059 -3.24661 0
M  V30 242 O 50.9497 -5.42847 -3.03646 0
M  V30 243 C 52.1397 -7.41196 -3.50753 0
M  V30 244 O 52.5297 -7.27073 -4.86816 0
M  V30 245 C 53.0197 -6.5273 -2.63741 0
M  V30 246 C 52.3097 -5.1842 -2.73198 0
M  V30 247 N 52.3597 -4.38762 -1.4784 0
M  V30 248 H 49.5207 -8.36803 -2.32493 0
M  V30 249 H 49.2507 -6.70197 -1.71129 0
M  V30 250 H 50.1177 -7.03551 -4.13168 0
M  V30 251 P 54.0797 -7.20834 -5.23717 0
M  V30 252 O 54.2997 -7.79853 -6.57286 0
M  V30 253 O 54.8697 -7.79239 -4.12957 0
M  V30 254 O 54.3297 -5.63315 -5.29344 0
M  V30 255 C 53.3897 -4.80255 -6.01876 0
M  V30 256 C 54.1197 -3.64202 -6.65911 0
M  V30 257 O 54.3297 -2.60694 -5.64732 0
M  V30 258 C 55.5197 -3.93473 -7.1943 0
M  V30 259 O 55.9097 -3.02071 -8.21205 0
M  V30 260 C 56.3997 -3.73047 -5.97036 0
M  V30 261 C 55.6897 -2.58828 -5.25741 0
M  V30 262 N 55.7397 -2.68068 -3.77503 0
M  V30 263 H 52.9007 -5.40332 -6.79951 0
M  V30 264 H 52.6307 -4.41613 -5.32378 0
M  V30 265 H 53.4977 -3.26331 -7.47797 0
M  V30 266 P 57.4597 -2.75334 -8.47391 0
M  V30 267 O 57.6797 -2.44571 -9.90142 0
M  V30 268 O 58.2497 -3.87688 -7.92115 0
M  V30 269 O 57.7097 -1.4459 -7.59357 0
M  V30 270 C 56.7697 -0.347608 -7.69215 0
M  V30 271 C 57.4997 0.96767 -7.52806 0
M  V30 272 O 57.7097 1.21036 -6.1011 0
M  V30 273 C 58.8997 1.04544 -8.13308 0
M  V30 274 O 59.2897 2.38311 -8.41922 0
M  V30 275 C 59.7797 0.491279 -7.02284 0
M  V30 276 C 59.0697 0.996264 -5.77469 0
M  V30 277 N 59.1197 0.0501916 -4.62973 0
M  V30 278 H 56.2807 -0.374722 -8.67691 0
M  V30 279 H 56.0107 -0.443485 -6.90277 0
M  V30 280 H 56.8777 1.75537 -7.96793 0
M  V30 281 P 60.8396 2.75334 -8.47391 0
M  V30 282 O 61.0596 3.84128 -9.44797 0
M  V30 283 O 61.6296 1.51947 -8.68712 0
M  V30 284 O 61.0896 3.29363 -6.99321 0
M  V30 285 C 60.1496 4.24011 -6.4274 0
M  V30 286 C 60.8796 5.20775 -5.52155 0
M  V30 287 O 61.0896 4.56534 -4.22446 0
M  V30 288 C 62.2796 5.62629 -5.96531 0
M  V30 289 O 62.6696 6.87667 -5.41053 0
M  V30 290 C 63.1596 4.52537 -5.39283 0
M  V30 291 C 62.4496 4.20027 -4.08623 0
M  V30 292 N 62.4996 2.76189 -3.71603 0
M  V30 293 H 59.6606 4.797 -7.24003 0
M  V30 294 H 59.3906 3.69856 -5.84513 0
M  V30 295 H 60.2576 6.10356 -5.41441 0
M  V30 296 P 64.2196 7.20834 -5.23717 0
M  V30 297 O 64.4396 8.66104 -5.38572 0
M  V30 298 O 65.0096 6.33544 -6.1349 0
M  V30 299 O 64.4696 6.7751 -3.72168 0
M  V30 300 C 63.5296 7.20825 -2.7076 0
M  V30 301 C 64.2596 7.45864 -1.40599 0
M  V30 302 O 64.4696 6.17651 -0.734225 0
M  V30 303 C 65.6596 8.05808 -1.51899 0
M  V30 304 O 66.0496 8.74358 -0.335205 0
M  V30 305 C 66.5396 6.83093 -1.70294 0
M  V30 306 C 65.8296 5.79992 -0.836974 0
M  V30 307 N 65.8796 4.41864 -1.38293 0
M  V30 308 H 63.0406 8.13644 -3.0377 0
M  V30 309 H 62.7706 6.42788 -2.55485 0
M  V30 310 H 63.6376 8.12039 -0.792769 0
M  V30 311 P 67.5996 8.91 -4.36464e-15 0
M  V30 312 O 67.8196 10.1726 0.733694 0
M  V30 313 O 68.3896 8.73148 -1.23936 0
M  V30 314 O 67.8496 7.66872 0.971405 0
M  V30 315 C 66.9096 7.42309 2.04641 0
M  V30 316 C 67.6396 6.86059 3.24661 0
M  V30 317 O 67.8496 5.42847 3.03646 0
M  V30 318 C 69.0396 7.41196 3.50753 0
M  V30 319 O 69.4296 7.27073 4.86816 0
M  V30 320 C 69.9196 6.5273 2.63741 0
M  V30 321 C 69.2096 5.1842 2.73198 0
M  V30 322 N 69.2596 4.38762 1.4784 0
M  V30 323 H 66.4206 8.36803 2.32493 0
M  V30 324 H 66.1506 6.70197 1.71129 0
M  V30 325 H 67.0176 7.03551 4.13168 0
M  V30 326 P 70.9796 7.20834 5.23717 0
M  V30 327 O 71.1996 7.79853 6.57286 0
M  V30 328 O 71.7696 7.79239 4.12957 0
M  V30 329 O 71.2296 5.63315 5.29344 0
M  V30 330 C 70.2896 4.80255 6.01876 0
M  V30 331 C 71.0196 3.64202 6.65911 0
M  V30 332 O 71.2296 2.60694 5.64732 0
M  V30 333 C 72.4196 3.93473 7.1943 0
M  V30 334 O 72.8096 3.02071 8.21205 0
M  V30 335 C 73.2996 3.73047 5.97036 0
M  V30 336 C 72.5896 2.58828 5.25741 0
M  V30 337 N 72.6396 2.68068 3.77503 0
M  V30 338 H 69.8006 5.40332 6.79951 0
M  V30 339 H 69.5306 4.41613 5.32378 0
M  V30 340 H 70.3976 3.26331 7.47797 0
M  V30 341 P 74.3596 2.75334 8.47391 0
M  V30 342 O 74.5796 2.44571 9.90142 0
M  V30 343 O 75.1496 3.87688 7.92115 0
M  V30 344 O 74.6096 1.4459 7.59357 0
M  V30 345 C 73.6696 0.347608 7.69215 0
M  V30 346 C 74.3996 -0.96767 7.52806 0
M  V30 347 O 74.6096 -1.21036 6.1011 0
M  V30 348 C 75.7996 -1.04544 8.13308 0
M  V30 349 O 76.1896 -2.38311 8.41922 0
M  V30 350 C 76.6796 -0.491279 7.02284 0
M  V30 351 C 75.9696 -0.996264 5.77469 0
M  V30 352 N 76.0196 -0.0501916 4.62973 0
M  V30 353 H 73.1806 0.374722 8.67691 0
M  V30 354 H 72.9106 0.443485 6.90277 0
M  V30 355 H 73.7776 -1.75537 7.96793 0
M  V30 356 P 77.7395 -2.75334 8.47391 0
M  V30 357 O 77.9595 -3.84204 9.44982 0
M  V30 358 O 78.5295 -1.51982 8.68909 0
M  V30 359 O 77.9895 -3.29363 6.99321 0
M  V30 360 C 77.0495 -4.24066 6.42823 0
M  V30 361 C 77.7795 -5.20775 5.52155 0
M  V30 362 O 77.9895 -4.56607 4.22514 0
M  V30 363 C 79.1795 -5.62697 5.96604 0
M  V30 364 O 79.5695 -6.87667 5.41053 0
M  V30 365 C 80.0595 -4.52537 5.39283 0
M  V30 366 C 79.3495 -4.20027 4.08623 0
M  V30 367 N 79.3995 -2.76189 3.71603 0
M  V30 368 C 79.3195 -1.66944 4.54297 0
M  V30 369 N 79.3895 -0.536169 3.91344 0
M  V30 370 C 79.5395 -0.901569 2.58849 0
M  V30 371 C 79.6695 -0.146599 1.40236 0
M  V30 372 N 79.6795 1.18234 1.37046 0
M  V30 373 N 79.7895 -0.822941 0.249738 0
M  V30 374 C 79.7795 -2.15179 0.280525 0
M  V30 375 N 79.6595 -2.96414 1.30822 0
M  V30 376 C 79.5395 -2.25804 2.44748 0
M  V30 377 H 76.5615 -4.79756 7.24086 0
M  V30 378 H 76.2895 -3.69963 5.84682 0
M  V30 379 H 77.1575 -6.10431 5.41508 0
M  V30 380 H 79.8125 -4.78816 3.28024 0
M  V30 381 H 80.0925 -3.64957 6.05871 0
M  V30 382 H 81.0835 -4.88748 5.21323 0
M  V30 383 H 79.2495 -5.66789 7.0643 0
M  V30 384 H 79.2085 -1.74684 5.62396 0
M  V30 385 H 79.5895 1.71949 2.24394 0
M  V30 386 H 79.7785 1.67511 0.470742 0
M  V30 387 H 79.8865 -2.63704 -0.6828 0
M  V30 388 P 81.1195 -7.20834 5.23717 0
M  V30 389 O 81.3395 -8.66104 5.38572 0
M  V30 390 O 81.9095 -6.33544 6.1349 0
M  V30 391 O 81.3695 -6.7751 3.72168 0
M  V30 392 C 80.4295 -7.20825 2.7076 0
M  V30 393 C 81.1595 -7.45864 1.40599 0
M  V30 394 O 81.3695 -6.17651 0.734225 0
M  V30 395 C 82.5595 -8.05808 1.51899 0
M  V30 396 O 82.9495 -8.74358 0.335205 0
M  V30 397 C 83.4395 -6.83093 1.70294 0
M  V30 398 C 82.7295 -5.79992 0.836974 0
M  V30 399 N 82.7795 -4.41864 1.38293 0
M  V30 400 H 79.9405 -8.13644 3.0377 0
M  V30 401 H 79.6705 -6.42788 2.55485 0
M  V30 402 H 80.5375 -8.12039 0.792769 0
M  V30 403 P 84.4995 -8.91 5.4558e-15 0
M  V30 404 O 84.7195 -10.1726 -0.733694 0
M  V30 405 O 85.2895 -8.73148 1.23936 0
M  V30 406 O 84.7495 -7.66872 -0.971405 0
M  V30 407 C 83.8095 -7.42309 -2.04641 0
M  V30 408 C 84.5395 -6.86059 -3.24661 0
M  V30 409 O 84.7495 -5.42847 -3.03646 0
M  V30 410 C 85.9395 -7.41196 -3.50753 0
M  V30 411 O 86.3295 -7.27073 -4.86816 0
M  V30 412 C 86.8195 -6.5273 -2.63741 0
M  V30 413 C 86.1095 -5.1842 -2.73198 0
M  V30 414 N 86.1595 -4.38762 -1.4784 0
M  V30 415 H 83.3205 -8.36803 -2.32493 0
M  V30 416 H 83.0505 -6.70197 -1.71129 0
M  V30 417 H 83.9175 -7.03551 -4.13168 0
M  V30 418 P 87.8795 -7.20834 -5.23717 0
M  V30 419 O 88.0995 -7.79853 -6.57286 0
M  V30 420 O 88.6695 -7.79239 -4.12957 0
M  V30 421 O 88.1295 -5.63315 -5.29344 0
M  V30 422 C 87.1895 -4.80255 -6.01876 0
M  V30 423 C 87.9195 -3.64202 -6.65911 0
M  V30 424 O 88.1295 -2.60694 -5.64732 0
M  V30 425 C 89.3195 -3.93473 -7.1943 0
M  V30 426 O 89.7095 -3.02071 -8.21205 0
M  V30 427 C 90.1995 -3.73047 -5.97036 0
M  V30 428 C 89.4895 -2.58828 -5.25741 0
M  V30 429 N 89.5395 -2.68068 -3.77503 0
M  V30 430 C 89.4595 -3.79715 -2.96723 0
M  V30 431 N 89.5395 -3.5377 -1.68852 0
M  V30 432 C 89.6795 -2.15054 -1.63254 0
M  V30 433 C 89.8095 -1.28964 -0.518571 0
M  V30 434 N 89.9295 0.0538097 -0.918425 0
M  V30 435 C 89.9295 0.494275 -2.22578 0
M  V30 436 N 90.0595 1.81086 -2.40434 0
M  V30 437 N 89.7995 -0.313645 -3.27502 0
M  V30 438 C 89.6795 -1.61829 -2.91033 0
M  V30 439 H 86.7005 -5.40332 -6.79951 0
M  V30 440 H 86.4305 -4.41613 -5.32378 0
M  V30 441 H 87.2975 -3.26331 -7.47797 0
M  V30 442 P 91.2595 -2.75334 -8.47391 0
M  V30 443 O 91.4795 -2.44571 -9.90142 0
M  V30 444 O 92.0495 -3.87688 -7.92115 0
M  V30 445 O 91.5095 -1.4459 -7.59357 0
M  V30 446 C 90.5695 -0.347608 -7.69215 0
M  V30 447 C 91.2995 0.96767 -7.52806 0
M  V30 448 O 91.5095 1.21036 -6.1011 0
M  V30 449 C 92.6995 1.04544 -8.13308 0
M  V30 450 O 93.0895 2.38311 -8.41922 0
M  V30 451 C 93.5795 0.491279 -7.02284 0
M  V30 452 C 92.8695 0.996264 -5.77469 0
M  V30 453 N 92.9195 0.0501916 -4.62973 0
M  V30 454 H 90.0805 -0.374722 -8.67691 0
M  V30 455 H 89.8105 -0.443485 -6.90277 0
M  V30 456 H 90.6775 1.75537 -7.96793 0
M  V30 457 P 94.6394 2.75334 -8.47391 0
M  V30 458 O 94.8594 3.84128 -9.44797 0
M  V30 459 O 95.4294 1.51947 -8.68712 0
M  V30 460 O 94.8894 3.29363 -6.99321 0
M  V30 461 C 93.9494 4.24011 -6.4274 0
M  V30 462 C 94.6794 5.20775 -5.52155 0
M  V30 463 O 94.8894 4.56534 -4.22446 0
M  V30 464 C 96.0794 5.62629 -5.96531 0
M  V30 465 O 96.4694 6.87667 -5.41053 0
M  V30 466 C 96.9594 4.52537 -5.39283 0
M  V30 467 C 96.2494 4.20027 -4.08623 0
M  V30 468 N 96.2994 2.76189 -3.71603 0
M  V30 469 H 93.4604 4.797 -7.24003 0
M  V30 470 H 93.1904 3.69856 -5.84513 0
M  V30 471 H 94.0574 6.10356 -5.41441 0
M  V30 472 P 98.0194 7.20834 -5.23717 0
M  V30 473 O 98.2394 8.66104 -5.38572 0
M  V30 474 O 98.8094 6.33544 -6.1349 0
M  V30 475 O 98.2694 6.7751 -3.72168 0
M  V30 476 C 97.3294 7.20825 -2.7076 0
M  V30 477 C 98.0594 7.45864 -1.40599 0
M  V30 478 O 98.2694 6.17651 -0.734225 0
M  V30 479 C 99.4594 8.05808 -1.51899 0
M  V30 480 O 99.8494 8.74358 -0.335205 0
M  V30 481 C 100.339 6.83093 -1.70294 0
M  V30 482 C 99.6294 5.79992 -0.836974 0
M  V30 483 N 99.6794 4.41864 -1.38293 0
M  V30 484 H 96.8404 8.13644 -3.0377 0
M  V30 485 H 96.5704 6.42788 -2.55485 0
M  V30 486 H 97.4374 8.12039 -0.792769 0
M  V30 487 P 101.399 8.91 -6.54696e-15 0
M  V30 488 O 101.619 10.1726 0.733694 0
M  V30 489 O 102.189 8.73148 -1.23936 0
M  V30 490 O 101.649 7.66872 0.971405 0
M  V30 491 C 100.709 7.42309 2.04641 0
M  V30 492 C 101.439 6.86059 3.24661 0
M  V30 493 O 101.649 5.42847 3.03646 0
M  V30 494 C 102.839 7.41196 3.50753 0
M  V30 495 O 103.229 7.27073 4.86816 0
M  V30 496 C 103.719 6.5273 2.63741 0
M  V30 497 C 103.009 5.1842 2.73198 0
M  V30 498 N 103.059 4.38762 1.4784 0
M  V30 499 H 100.22 8.36803 2.32493 0
M  V30 500 H 99.9504 6.70197 1.71129 0
M  V30 501 H 100.817 7.03551 4.13168 0
M  V30 502 P 104.779 7.20834 5.23717 0
M  V30 503 O 104.999 7.79853 6.57286 0
M  V30 504 O 105.569 7.79239 4.12957 0
M  V30 505 O 105.029 5.63315 5.29344 0
M  V30 506 C 104.089 4.80255 6.01876 0
M  V30 507 C 104.819 3.64202 6.65911 0
M  V30 508 O 105.029 2.60694 5.64732 0
M  V30 509 C 106.219 3.93473 7.1943 0
M  V30 510 O 106.609 3.02071 8.21205 0
M  V30 511 C 107.099 3.73047 5.97036 0
M  V30 512 C 106.389 2.58828 5.25741 0
M  V30 513 N 106.439 2.68068 3.77503 0
M  V30 514 C 106.359 3.79715 2.96723 0
M  V30 515 N 106.439 3.5377 1.68852 0
M  V30 516 C 106.579 2.15054 1.63254 0
M  V30 517 C 106.709 1.28964 0.518571 0
M  V30 518 N 106.829 -0.0538097 0.918425 0
M  V30 519 C 106.829 -0.494275 2.22578 0
M  V30 520 N 106.959 -1.81086 2.40434 0
M  V30 521 N 106.699 0.313645 3.27502 0
M  V30 522 C 106.579 1.61829 2.91033 0
M  V30 523 H 103.6 5.40332 6.79951 0
M  V30 524 H 103.33 4.41613 5.32378 0
M  V30 525 H 104.197 3.26331 7.47797 0
M  V30 526 P 108.159 2.75334 8.47391 0
M  V30 527 O 108.379 2.44571 9.90142 0
M  V30 528 O 108.949 3.87688 7.92115 0
M  V30 529 O 108.409 1.4459 7.59357 0
M  V30 530 C 107.469 0.347608 7.69215 0
M  V30 531 C 108.199 -0.96767 7.52806 0
M  V30 532 O 108.409 -1.21036 6.1011 0
M  V30 533 C 109.599 -1.04544 8.13308 0
M  V30 534 O 109.989 -2.38311 8.41922 0
M  V30 535 C 110.479 -0.491279 7.02284 0
M  V30 536 C 109.769 -0.996264 5.77469 0
M  V30 537 N 109.819 -0.0501916 4.62973 0
M  V30 538 H 106.98 0.374722 8.67691 0
M  V30 539 H 106.71 0.443485 6.90277 0
M  V30 540 H 107.577 -1.75537 7.96793 0
M  V30 541 P 111.539 -2.75334 8.47391 0
M  V30 542 O 111.759 -3.84166 9.4489 0
M  V30 543 O 112.329 -1.51964 8.6881 0
M  V30 544 O 111.789 -3.29363 6.99321 0
M  V30 545 C 110.849 -4.23956 6.42656 0
M  V30 546 C 111.579 -5.20775 5.52155 0
M  V30 547 O 111.789 -4.56534 4.22446 0
M  V30 548 C 112.979 -5.62629 5.96531 0
M  V30 549 O 113.369 -6.87667 5.41053 0
M  V30 550 C 113.859 -4.52537 5.39283 0
M  V30 551 C 113.149 -4.20027 4.08623 0
M  V30 552 N 113.199 -2.7613 3.71522 0
M  V30 553 C 113.349 -2.45612 2.37989 0
M  V30 554 O 113.439 -3.30919 1.51621 0
M  V30 555 N 113.389 -1.10684 2.08435 0
M  V30 556 C 113.299 -0.0690084 2.9792 0
M  V30 557 C 113.149 -0.481522 4.35345 0
M  V30 558 C 113.099 -1.78906 4.67968 0
M  V30 559 H 110.359 -4.797 7.24003 0
M  V30 560 H 110.09 -3.69802 5.84429 0
M  V30 561 H 110.957 -6.10356 5.41441 0
M  V30 562 H 113.612 -4.78651 3.27911 0
M  V30 563 H 113.891 -3.64957 6.05871 0
M  V30 564 H 114.883 -4.8868 5.2125 0
M  V30 565 H 113.049 -5.66726 7.06352 0
M  V30 566 H 112.978 -2.07737 5.72367 0
M  V30 567 P 114.919 -7.20834 5.23717 0
M  V30 568 O 115.139 -8.66104 5.38572 0
M  V30 569 O 115.709 -6.33544 6.1349 0
M  V30 570 O 115.169 -6.7751 3.72168 0
M  V30 571 C 114.229 -7.20825 2.7076 0
M  V30 572 C 114.959 -7.45864 1.40599 0
M  V30 573 O 115.169 -6.17651 0.734225 0
M  V30 574 C 116.359 -8.05808 1.51899 0
M  V30 575 O 116.749 -8.74358 0.335205 0
M  V30 576 C 117.239 -6.83093 1.70294 0
M  V30 577 C 116.529 -5.79992 0.836974 0
M  V30 578 N 116.579 -4.41864 1.38293 0
M  V30 579 H 113.74 -8.13644 3.0377 0
M  V30 580 H 113.47 -6.42788 2.55485 0
M  V30 581 H 114.337 -8.12039 0.792769 0
M  V30 582 P 118.299 -8.91 7.63812e-15 0
M  V30 583 O 118.519 -10.1726 -0.733694 0
M  V30 584 O 119.089 -8.73148 1.23936 0
M  V30 585 O 118.549 -7.66872 -0.971405 0
M  V30 586 C 117.609 -7.42309 -2.04641 0
M  V30 587 C 118.339 -6.86059 -3.24661 0
M  V30 588 O 118.549 -5.42847 -3.03646 0
M  V30 589 C 119.739 -7.41196 -3.50753 0
M  V30 590 O 120.129 -7.27073 -4.86816 0
M  V30 591 C 120.619 -6.5273 -2.63741 0
M  V30 592 C 119.909 -5.1842 -2.73198 0
M  V30 593 N 119.959 -4.38762 -1.4784 0
M  V30 594 H 117.12 -8.36803 -2.32493 0
M  V30 595 H 116.85 -6.70197 -1.71129 0
M  V30 596 H 117.717 -7.03551 -4.13168 0
M  V30 597 P 121.679 -7.20834 -5.23717 0
M  V30 598 O 121.899 -7.79853 -6.57286 0
M  V30 599 O 122.469 -7.79239 -4.12957 0
M  V30 600 O 121.929 -5.63315 -5.29344 0
M  V30 601 C 120.989 -4.80255 -6.01876 0
M  V30 602 C 121.719 -3.64202 -6.65911 0
M  V30 603 O 121.929 -2.60694 -5.64732 0
M  V30 604 C 123.119 -3.93473 -7.1943 0
M  V30 605 O 123.509 -3.02071 -8.21205 0
M  V30 606 C 123.999 -3.73047 -5.97036 0
M  V30 607 C 123.289 -2.58828 -5.25741 0
M  V30 608 N 123.339 -2.68068 -3.77503 0
M  V30 609 H 120.5 -5.40332 -6.79951 0
M  V30 610 H 120.23 -4.41613 -5.32378 0
M  V30 611 H 121.097 -3.26331 -7.47797 0
M  V30 612 P 125.059 -2.75334 -8.47391 0
M  V30 613 O 125.279 -2.44595 -9.90239 0
M  V30 614 O 125.849 -3.87732 -7.92204 0
M  V30 615 O 125.309 -1.4459 -7.59357 0
M  V30 616 C 124.369 -0.347563 -7.69115 0
M  V30 617 C 125.099 0.96767 -7.52806 0
M  V30 618 O 125.309 1.21036 -6.1011 0
M  V30 619 C 126.499 1.04544 -8.13308 0
M  V30 620 O 126.889 2.38311 -8.41922 0
M  V30 621 C 127.379 0.491279 -7.02284 0
M  V30 622 C 126.669 0.996264 -5.77469 0
M  V30 623 N 126.719 0.0501808 -4.62873 0
M  V30 624 C 126.869 0.588177 -3.36904 0
M  V30 625 O 126.959 1.78598 -3.17173 0
M  V30 626 N 126.909 -0.329694 -2.33686 0
M  V30 627 C 126.819 -1.6953 -2.45079 0
M  V30 628 O 126.869 -2.41926 -1.44899 0
M  V30 629 C 126.669 -2.16933 -3.80505 0
M  V30 630 C 126.559 -3.65373 -3.97621 0
M  V30 631 C 126.619 -1.30326 -4.83752 0
M  V30 632 H 123.879 -0.374722 -8.67691 0
M  V30 633 H 123.61 -0.443421 -6.90177 0
M  V30 634 H 124.477 1.75537 -7.96793 0
M  V30 635 H 127.132 1.94496 -5.46629 0
M  V30 636 H 127.411 -0.608651 -7.04676 0
M  V30 637 H 128.403 0.889672 -7.08939 0
M  V30 638 H 126.569 0.43308 -9.04564 0
M  V30 639 H 126.498 -1.68366 -5.8516 0
M  V30 640 H 127.528 -4.05985 -4.30448 0
M  V30 641 H 125.791 -3.88028 -4.72875 0
M  V30 642 H 126.279 -4.11381 -3.01609 0
M  V30 643 H 127.015 0.0393617 -1.41345 0
M  V30 644 P 128.439 2.75334 -8.47391 0
M  V30 645 O 128.659 3.84128 -9.44797 0
M  V30 646 O 129.229 1.51947 -8.68712 0
M  V30 647 O 128.689 3.29363 -6.99321 0
M  V30 648 C 127.749 4.24011 -6.4274 0
M  V30 649 C 128.479 5.20775 -5.52155 0
M  V30 650 O 128.689 4.56534 -4.22446 0
M  V30 651 C 129.879 5.62629 -5.96531 0
M  V30 652 O 130.269 6.87667 -5.41053 0
M  V30 653 C 130.759 4.52537 -5.39283 0
M  V30 654 C 130.049 4.20027 -4.08623 0
M  V30 655 N 130.099 2.76189 -3.71603 0
M  V30 656 H 127.26 4.797 -7.24003 0
M  V30 657 H 126.99 3.69856 -5.84513 0
M  V30 658 H 127.857 6.10356 -5.41441 0
M  V30 659 P 131.819 7.20834 -5.23717 0
M  V30 660 O 132.039 8.66104 -5.38572 0
M  V30 661 O 132.609 6.33544 -6.1349 0
M  V30 662 O 132.069 6.7751 -3.72168 0
M  V30 663 C 131.129 7.20825 -2.7076 0
M  V30 664 C 131.859 7.45864 -1.40599 0
M  V30 665 O 132.069 6.17651 -0.734225 0
M  V30 666 C 133.259 8.05808 -1.51899 0
M  V30 667 O 133.649 8.74358 -0.335205 0
M  V30 668 C 134.139 6.83093 -1.70294 0
M  V30 669 C 133.429 5.79992 -0.836974 0
M  V30 670 N 133.479 4.41864 -1.38293 0
M  V30 671 H 130.64 8.13644 -3.0377 0
M  V30 672 H 130.37 6.42788 -2.55485 0
M  V30 673 H 131.237 8.12039 -0.792769 0
M  V30 674 P 135.199 8.91 -8.72928e-15 0
M  V30 675 O 135.419 10.1726 0.733694 0
M  V30 676 O 135.989 8.73148 -1.23936 0
M  V30 677 O 135.449 7.66872 0.971405 0
M  V30 678 C 134.509 7.42309 2.04641 0
M  V30 679 C 135.239 6.86059 3.24661 0
M  V30 680 O 135.449 5.42847 3.03646 0
M  V30 681 C 136.639 7.41196 3.50753 0
M  V30 682 O 137.029 7.27073 4.86816 0
M  V30 683 C 137.519 6.5273 2.63741 0
M  V30 684 C 136.809 5.1842 2.73198 0
M  V30 685 N 136.859 4.38762 1.4784 0
M  V30 686 H 134.02 8.36803 2.32493 0
M  V30 687 H 133.75 6.70197 1.71129 0
M  V30 688 H 134.617 7.03551 4.13168 0
M  V30 689 P 138.579 7.20834 5.23717 0
M  V30 690 O 138.799 7.80006 6.57415 0
M  V30 691 O 139.369 7.79416 4.13051 0
M  V30 692 O 138.829 5.63315 5.29344 0
M  V30 693 C 137.889 4.80318 6.01954 0
M  V30 694 C 138.619 3.64202 6.65911 0
M  V30 695 O 138.829 2.60736 5.64823 0
M  V30 696 C 140.019 3.93521 7.19518 0
M  V30 697 O 140.409 3.02071 8.21205 0
M  V30 698 C 140.899 3.73047 5.97036 0
M  V30 699 C 140.189 2.58828 5.25741 0
M  V30 700 N 140.239 2.68068 3.77503 0
M  V30 701 H 137.401 5.40394 6.8003 0
M  V30 702 H 137.129 4.41741 5.32532 0
M  V30 703 H 137.997 3.26371 7.47889 0
M  V30 704 H 140.652 1.64007 5.56746 0
M  V30 705 H 140.932 4.63439 5.3432 0
M  V30 706 H 141.923 3.44776 6.25925 0
M  V30 707 H 140.089 4.96707 7.57347 0
M  V30 708 P 141.959 2.75334 8.47391 0
M  V30 709 O 142.179 2.44571 9.90142 0
M  V30 710 O 142.749 3.87688 7.92115 0
M  V30 711 O 142.209 1.4459 7.59357 0
M  V30 712 C 141.269 0.347608 7.69215 0
M  V30 713 C 141.999 -0.96767 7.52806 0
M  V30 714 O 142.209 -1.21036 6.1011 0
M  V30 715 C 143.399 -1.04544 8.13308 0
M  V30 716 O 143.789 -2.38311 8.41922 0
M  V30 717 C 144.279 -0.491279 7.02284 0
M  V30 718 C 143.569 -0.996264 5.77469 0
M  V30 719 N 143.619 -0.0501916 4.62973 0
M  V30 720 H 140.78 0.374722 8.67691 0
M  V30 721 H 140.51 0.443485 6.90277 0
M  V30 722 H 141.377 -1.75537 7.96793 0
M  V30 723 P 145.339 -2.75334 8.47391 0
M  V30 724 O 145.559 -3.84128 9.44797 0
M  V30 725 O 146.129 -1.51947 8.68712 0
M  V30 726 O 145.589 -3.29363 6.99321 0
M  V30 727 C 144.649 -4.24011 6.4274 0
M  V30 728 C 145.379 -5.20775 5.52155 0
M  V30 729 O 145.589 -4.56534 4.22446 0
M  V30 730 C 146.779 -5.62629 5.96531 0
M  V30 731 O 147.169 -6.87667 5.41053 0
M  V30 732 C 147.659 -4.52537 5.39283 0
M  V30 733 C 146.949 -4.20027 4.08623 0
M  V30 734 N 146.999 -2.76189 3.71603 0
M  V30 735 H 144.16 -4.797 7.24003 0
M  V30 736 H 143.89 -3.69856 5.84513 0
M  V30 737 H 144.757 -6.10356 5.41441 0
M  V30 738 P 148.719 -7.20834 5.23717 0
M  V30 739 O 148.939 -8.66104 5.38572 0
M  V30 740 O 149.509 -6.33544 6.1349 0
M  V30 741 O 148.969 -6.7751 3.72168 0
M  V30 742 C 148.029 -7.20825 2.7076 0
M  V30 743 C 148.759 -7.45864 1.40599 0
M  V30 744 O 148.969 -6.17651 0.734225 0
M  V30 745 C 150.159 -8.05808 1.51899 0
M  V30 746 O 150.549 -8.74358 0.335205 0
M  V30 747 C 151.039 -6.83093 1.70294 0
M  V30 748 C 150.329 -5.79992 0.836974 0
M  V30 749 N 150.379 -4.41864 1.38293 0
M  V30 750 H 147.54 -8.13644 3.0377 0
M  V30 751 H 147.27 -6.42788 2.55485 0
M  V30 752 H 148.137 -8.12039 0.792769 0
M  V30 753 P 152.099 -8.91 9.82044e-15 0
M  V30 754 O 152.319 -10.1726 -0.733694 0
M  V30 755 O 152.889 -8.73148 1.23936 0
M  V30 756 O 152.349 -7.66872 -0.971405 0
M  V30 757 C 151.409 -7.42309 -2.04641 0
M  V30 758 C 152.139 -6.86059 -3.24661 0
M  V30 759 O 152.349 -5.42847 -3.03646 0
M  V30 760 C 153.539 -7.41196 -3.50753 0
M  V30 761 O 153.929 -7.27073 -4.86816 0
M  V30 762 C 154.419 -6.5273 -2.63741 0
M  V30 763 C 153.709 -5.1842 -2.73198 0
M  V30 764 N 153.759 -4.38762 -1.4784 0
M  V30 765 C 153.679 -4.81605 -0.168631 0
M  V30 766 N 153.759 -3.85454 0.713363 0
M  V30 767 C 153.899 -2.6994 -0.0566958 0
M  V30 768 C 154.029 -1.34815 0.338502 0
M  V30 769 N 154.149 -0.496304 -0.77465 0
M  V30 770 C 154.149 -0.908403 -2.09122 0
M  V30 771 N 154.279 0.0517805 -3.00955 0
M  V30 772 N 154.019 -2.17875 -2.46519 0
M  V30 773 C 153.899 -3.01988 -1.4033 0
M  V30 774 H 150.92 -8.36803 -2.32493 0
M  V30 775 H 150.65 -6.70197 -1.71129 0
M  V30 776 H 151.517 -7.03551 -4.13168 0
M  V30 777 P 155.479 -7.20834 -5.23717 0
M  V30 778 O 155.699 -7.79853 -6.57286 0
M  V30 779 O 156.269 -7.79239 -4.12957 0
M  V30 780 O 155.729 -5.63315 -5.29344 0
M  V30 781 C 154.789 -4.80255 -6.01876 0
M  V30 782 C 155.519 -3.64202 -6.65911 0
M  V30 783 O 155.729 -2.60694 -5.64732 0
M  V30 784 C 156.919 -3.93473 -7.1943 0
M  V30 785 O 157.309 -3.02071 -8.21205 0
M  V30 786 C 157.799 -3.73047 -5.97036 0
M  V30 787 C 157.089 -2.58828 -5.25741 0
M  V30 788 N 157.139 -2.68068 -3.77503 0
M  V30 789 H 154.3 -5.40332 -6.79951 0
M  V30 790 H 154.03 -4.41613 -5.32378 0
M  V30 791 H 154.897 -3.26331 -7.47797 0
M  V30 792 P 158.859 -2.75334 -8.47391 0
M  V30 793 O 159.079 -2.44571 -9.90142 0
M  V30 794 O 159.649 -3.87688 -7.92115 0
M  V30 795 O 159.109 -1.4459 -7.59357 0
M  V30 796 C 158.169 -0.347608 -7.69215 0
M  V30 797 C 158.899 0.96767 -7.52806 0
M  V30 798 O 159.109 1.21036 -6.1011 0
M  V30 799 C 160.299 1.04544 -8.13308 0
M  V30 800 O 160.689 2.38311 -8.41922 0
M  V30 801 C 161.179 0.491279 -7.02284 0
M  V30 802 C 160.469 0.996264 -5.77469 0
M  V30 803 N 160.519 0.0501916 -4.62973 0
M  V30 804 H 157.68 -0.374722 -8.67691 0
M  V30 805 H 157.41 -0.443485 -6.90277 0
M  V30 806 H 158.277 1.75537 -7.96793 0
M  V30 807 P 162.239 2.75334 -8.47391 0
M  V30 808 O 162.459 3.84166 -9.4489 0
M  V30 809 O 163.029 1.51964 -8.6881 0
M  V30 810 O 162.489 3.29363 -6.99321 0
M  V30 811 C 161.549 4.23956 -6.42656 0
M  V30 812 C 162.279 5.20775 -5.52155 0
M  V30 813 O 162.489 4.56534 -4.22446 0
M  V30 814 C 163.679 5.62629 -5.96531 0
M  V30 815 O 164.069 6.87667 -5.41053 0
M  V30 816 C 164.559 4.52537 -5.39283 0
M  V30 817 C 163.849 4.20027 -4.08623 0
M  V30 818 N 163.899 2.7613 -3.71522 0
M  V30 819 C 164.049 2.45612 -2.37989 0
M  V30 820 O 164.139 3.30919 -1.51621 0
M  V30 821 N 164.089 1.10684 -2.08435 0
M  V30 822 C 163.999 0.0690084 -2.9792 0
M  V30 823 O 164.049 -1.10553 -2.59426 0
M  V30 824 C 163.849 0.481522 -4.35345 0
M  V30 825 C 163.739 -0.618778 -5.36443 0
M  V30 826 C 163.799 1.78906 -4.67968 0
M  V30 827 H 161.059 4.797 -7.24003 0
M  V30 828 H 160.79 3.69802 -5.84429 0
M  V30 829 H 161.657 6.10356 -5.41441 0
M  V30 830 H 164.312 4.78651 -3.27911 0
M  V30 831 H 164.591 3.64957 -6.05871 0
M  V30 832 H 165.583 4.8868 -5.2125 0
M  V30 833 H 163.749 5.66726 -7.06352 0
M  V30 834 H 163.678 2.07737 -5.72367 0
M  V30 835 H 164.708 -0.754375 -5.86871 0
M  V30 836 H 162.971 -0.359721 -6.10641 0
M  V30 837 H 163.459 -1.55533 -4.8581 0
M  V30 838 H 164.195 0.862651 -1.12037 0
M  V30 839 P 165.619 7.20834 -5.23717 0
M  V30 840 O 165.839 8.66189 -5.38625 0
M  V30 841 O 166.409 6.33615 -6.1356 0
M  V30 842 O 165.869 6.7751 -3.72168 0
M  V30 843 C 164.929 7.20732 -2.70725 0
M  V30 844 C 165.659 7.45864 -1.40599 0
M  V30 845 O 165.869 6.17651 -0.734225 0
M  V30 846 C 167.059 8.05808 -1.51899 0
M  V30 847 O 167.449 8.74358 -0.335205 0
M  V30 848 C 167.939 6.83093 -1.70294 0
M  V30 849 C 167.229 5.79992 -0.836974 0
M  V30 850 N 167.279 4.41769 -1.38263 0
M  V30 851 C 167.429 3.38591 -0.481702 0
M  V30 852 O 167.519 3.56839 0.718452 0
M  V30 853 N 167.469 2.1206 -1.03569 0
M  V30 854 C 167.379 1.80696 -2.36966 0
M  V30 855 C 167.229 2.94845 -3.23898 0
M  V30 856 C 167.179 4.19803 -2.73435 0
M  V30 857 H 164.439 8.13644 -3.0377 0
M  V30 858 H 164.17 6.42695 -2.55448 0
M  V30 859 H 165.037 8.12039 -0.792769 0
M  V30 860 H 167.692 5.79978 0.160587 0
M  V30 861 H 167.971 6.51379 -2.75643 0
M  V30 862 H 168.963 7.01734 -1.34462 0
M  V30 863 H 167.129 8.73674 -2.38337 0
M  V30 864 H 167.058 5.04492 -3.4095 0
M  V30 865 P 168.999 8.91 -1.09116e-14 0
M  V30 866 O 169.219 10.1726 0.733694 0
M  V30 867 O 169.789 8.73148 -1.23936 0
M  V30 868 O 169.249 7.66872 0.971405 0
M  V30 869 C 168.309 7.42309 2.04641 0
M  V30 870 C 169.039 6.86059 3.24661 0
M  V30 871 O 169.249 5.42847 3.03646 0
M  V30 872 C 170.439 7.41196 3.50753 0
M  V30 873 O 170.829 7.27073 4.86816 0
M  V30 874 C 171.319 6.5273 2.63741 0
M  V30 875 C 170.609 5.1842 2.73198 0
M  V30 876 N 170.659 4.38762 1.4784 0
M  V30 877 H 167.82 8.36803 2.32493 0
M  V30 878 H 167.55 6.70197 1.71129 0
M  V30 879 H 168.417 7.03551 4.13168 0
M  V30 880 P 172.379 7.20834 5.23717 0
M  V30 881 O 172.599 7.79853 6.57286 0
M  V30 882 O 173.169 7.79239 4.12957 0
M  V30 883 O 172.629 5.63315 5.29344 0
M  V30 884 C 171.689 4.80255 6.01876 0
M  V30 885 C 172.419 3.64202 6.65911 0
M  V30 886 O 172.629 2.60694 5.64732 0
M  V30 887 C 173.819 3.93473 7.1943 0
M  V30 888 O 174.209 3.02071 8.21205 0
M  V30 889 C 174.699 3.73047 5.97036 0
M  V30 890 C 173.989 2.58828 5.25741 0
M  V30 891 N 174.039 2.68068 3.77503 0
M  V30 892 C 173.959 3.79715 2.96723 0
M  V30 893 N 174.039 3.5377 1.68852 0
M  V30 894 C 174.179 2.15054 1.63254 0
M  V30 895 C 174.309 1.28964 0.518571 0
M  V30 896 O 174.329 1.56826 -0.679156 0
M  V30 897 N 174.429 -0.0538097 0.918425 0
M  V30 898 C 174.429 -0.494275 2.22578 0
M  V30 899 N 174.559 -1.81086 2.40434 0
M  V30 900 N 174.299 0.313645 3.27502 0
M  V30 901 C 174.179 1.61829 2.91033 0
M  V30 902 H 171.2 5.40332 6.79951 0
M  V30 903 H 170.93 4.41613 5.32378 0
M  V30 904 H 171.797 3.26331 7.47797 0
M  V30 905 H 174.452 1.63422 5.56814 0
M  V30 906 H 174.731 4.63374 5.34244 0
M  V30 907 H 175.723 3.44728 6.25838 0
M  V30 908 H 173.889 4.96652 7.57263 0
M  V30 909 H 173.84 4.80617 3.3614 0
M  V30 910 H 174.522 -0.742702 0.199384 0
M  V30 911 H 174.559 -2.20598 3.35588 0
M  V30 912 H 174.66 -2.43518 1.58945 0
M  V30 913 P 175.759 2.75334 8.47391 0
M  V30 914 O 175.979 2.44571 9.90142 0
M  V30 915 O 176.549 3.87688 7.92115 0
M  V30 916 O 176.009 1.4459 7.59357 0
M  V30 917 C 175.069 0.347608 7.69215 0
M  V30 918 C 175.799 -0.96767 7.52806 0
M  V30 919 O 176.009 -1.21036 6.1011 0
M  V30 920 C 177.199 -1.04544 8.13308 0
M  V30 921 O 177.589 -2.38311 8.41922 0
M  V30 922 C 178.079 -0.491279 7.02284 0
M  V30 923 C 177.369 -0.996264 5.77469 0
M  V30 924 N 177.419 -0.0501916 4.62973 0
M  V30 925 H 174.58 0.374722 8.67691 0
M  V30 926 H 174.31 0.443485 6.90277 0
M  V30 927 H 175.177 -1.75537 7.96793 0
M  V30 928 P 179.139 -2.75334 8.47391 0
M  V30 929 O 179.359 -3.84128 9.44797 0
M  V30 930 O 179.929 -1.51947 8.68712 0
M  V30 931 O 179.389 -3.29363 6.99321 0
M  V30 932 C 178.449 -4.24011 6.4274 0
M  V30 933 C 179.179 -5.20775 5.52155 0
M  V30 934 O 179.389 -4.56534 4.22446 0
M  V30 935 C 180.579 -5.62629 5.96531 0
M  V30 936 O 180.969 -6.87667 5.41053 0
M  V30 937 C 181.459 -4.52537 5.39283 0
M  V30 938 C 180.749 -4.20027 4.08623 0
M  V30 939 N 180.799 -2.76189 3.71603 0
M  V30 940 H 177.96 -4.797 7.24003 0
M  V30 941 H 177.69 -3.69856 5.84513 0
M  V30 942 H 178.557 -6.10356 5.41441 0
M  V30 943 P 182.519 -7.20834 5.23717 0
M  V30 944 O 182.739 -8.66104 5.38572 0
M  V30 945 O 183.309 -6.33544 6.1349 0
M  V30 946 O 182.769 -6.7751 3.72168 0
M  V30 947 C 181.829 -7.20825 2.7076 0
M  V30 948 C 182.559 -7.45864 1.40599 0
M  V30 949 O 182.769 -6.17651 0.734225 0
M  V30 950 C 183.959 -8.05808 1.51899 0
M  V30 951 O 184.349 -8.74358 0.335205 0
M  V30 952 C 184.839 -6.83093 1.70294 0
M  V30 953 C 184.129 -5.79992 0.836974 0
M  V30 954 N 184.179 -4.41864 1.38293 0
M  V30 955 H 181.34 -8.13644 3.0377 0
M  V30 956 H 181.07 -6.42788 2.55485 0
M  V30 957 H 181.937 -8.12039 0.792769 0
M  V30 958 P 185.899 -8.91 -8.29613e-14 0
M  V30 959 O 186.119 -10.1726 -0.733694 0
M  V30 960 O 186.689 -8.73148 1.23936 0
M  V30 961 O 186.149 -7.66872 -0.971405 0
M  V30 962 C 185.209 -7.42309 -2.04641 0
M  V30 963 C 185.939 -6.86059 -3.24661 0
M  V30 964 O 186.149 -5.42847 -3.03646 0
M  V30 965 C 187.339 -7.41196 -3.50753 0
M  V30 966 O 187.729 -7.27073 -4.86816 0
M  V30 967 C 188.219 -6.5273 -2.63741 0
M  V30 968 C 187.509 -5.1842 -2.73198 0
M  V30 969 N 187.559 -4.38762 -1.4784 0
M  V30 970 H 184.72 -8.36803 -2.32493 0
M  V30 971 H 184.45 -6.70197 -1.71129 0
M  V30 972 H 185.317 -7.03551 -4.13168 0
M  V30 973 P 189.279 -7.20834 -5.23717 0
M  V30 974 O 189.499 -7.79853 -6.57286 0
M  V30 975 O 190.069 -7.79239 -4.12957 0
M  V30 976 O 189.529 -5.63315 -5.29344 0
M  V30 977 C 188.589 -4.80255 -6.01876 0
M  V30 978 C 189.319 -3.64202 -6.65911 0
M  V30 979 O 189.529 -2.60694 -5.64732 0
M  V30 980 C 190.719 -3.93473 -7.1943 0
M  V30 981 O 191.109 -3.02071 -8.21205 0
M  V30 982 C 191.599 -3.73047 -5.97036 0
M  V30 983 C 190.889 -2.58828 -5.25741 0
M  V30 984 N 190.939 -2.68068 -3.77503 0
M  V30 985 H 188.1 -5.40332 -6.79951 0
M  V30 986 H 187.83 -4.41613 -5.32378 0
M  V30 987 H 188.697 -3.26331 -7.47797 0
M  V30 988 P 192.659 -2.75334 -8.47391 0
M  V30 989 O 192.879 -2.44595 -9.90239 0
M  V30 990 O 193.449 -3.87732 -7.92204 0
M  V30 991 O 192.909 -1.4459 -7.59357 0
M  V30 992 C 191.969 -0.347563 -7.69115 0
M  V30 993 C 192.699 0.96767 -7.52806 0
M  V30 994 O 192.909 1.21036 -6.1011 0
M  V30 995 C 194.099 1.04544 -8.13308 0
M  V30 996 O 194.489 2.38311 -8.41922 0
M  V30 997 C 194.979 0.491279 -7.02284 0
M  V30 998 C 194.269 0.996264 -5.77469 0
M  V30 999 N 194.319 0.0501808 -4.62873 0
M  V30 1000 C 194.469 0.588177 -3.36904 0
M  V30 1001 O 194.559 1.78598 -3.17173 0
M  V30 1002 N 194.509 -0.329694 -2.33686 0
M  V30 1003 C 194.419 -1.6953 -2.45079 0
M  V30 1004 O 194.469 -2.41926 -1.44899 0
M  V30 1005 C 194.269 -2.16933 -3.80505 0
M  V30 1006 C 194.159 -3.65373 -3.97621 0
M  V30 1007 C 194.219 -1.30326 -4.83752 0
M  V30 1008 H 191.479 -0.374722 -8.67691 0
M  V30 1009 H 191.21 -0.443421 -6.90177 0
M  V30 1010 H 192.077 1.75537 -7.96793 0
M  V30 1011 H 194.732 1.94496 -5.46629 0
M  V30 1012 H 195.011 -0.608651 -7.04676 0
M  V30 1013 H 196.003 0.889672 -7.08939 0
M  V30 1014 H 194.169 0.43308 -9.04564 0
M  V30 1015 H 194.098 -1.68366 -5.8516 0
M  V30 1016 H 195.128 -4.05985 -4.30448 0
M  V30 1017 H 193.391 -3.88028 -4.72875 0
M  V30 1018 H 193.879 -4.11381 -3.01609 0
M  V30 1019 H 194.615 0.0393617 -1.41345 0
M  V30 1020 P 196.039 2.75334 -8.47391 0
M  V30 1021 O 196.259 3.84128 -9.44797 0
M  V30 1022 O 196.829 1.51947 -8.68712 0
M  V30 1023 O 196.289 3.29363 -6.99321 0
M  V30 1024 C 195.349 4.24011 -6.4274 0
M  V30 1025 C 196.079 5.20775 -5.52155 0
M  V30 1026 O 196.289 4.56534 -4.22446 0
M  V30 1027 C 197.479 5.62629 -5.96531 0
M  V30 1028 O 197.869 6.87667 -5.41053 0
M  V30 1029 C 198.359 4.52537 -5.39283 0
M  V30 1030 C 197.649 4.20027 -4.08623 0
M  V30 1031 N 197.699 2.76189 -3.71603 0
M  V30 1032 H 194.86 4.797 -7.24003 0
M  V30 1033 H 194.59 3.69856 -5.84513 0
M  V30 1034 H 195.457 6.10356 -5.41441 0
M  V30 1035 P 199.419 7.20834 -5.23717 0
M  V30 1036 O 199.639 8.66104 -5.38572 0
M  V30 1037 O 200.209 6.33544 -6.1349 0
M  V30 1038 O 199.669 6.7751 -3.72168 0
M  V30 1039 C 198.729 7.20825 -2.7076 0
M  V30 1040 C 199.459 7.45864 -1.40599 0
M  V30 1041 O 199.669 6.17651 -0.734225 0
M  V30 1042 C 200.859 8.05808 -1.51899 0
M  V30 1043 O 201.249 8.74358 -0.335205 0
M  V30 1044 C 201.739 6.83093 -1.70294 0
M  V30 1045 C 201.029 5.79992 -0.836974 0
M  V30 1046 N 201.079 4.41864 -1.38293 0
M  V30 1047 H 198.24 8.13644 -3.0377 0
M  V30 1048 H 197.97 6.42788 -2.55485 0
M  V30 1049 H 198.837 8.12039 -0.792769 0
M  V30 1050 P 202.799 8.91 2.40144e-13 0
M  V30 1051 O 203.019 10.1746 0.733838 0
M  V30 1052 O 203.589 8.73346 -1.23964 0
M  V30 1053 O 203.049 7.66872 0.971405 0
M  V30 1054 C 202.109 7.42405 2.04668 0
M  V30 1055 C 202.839 6.86059 3.24661 0
M  V30 1056 O 203.049 5.42934 3.03695 0
M  V30 1057 C 204.239 7.41287 3.50796 0
M  V30 1058 O 204.629 7.27073 4.86816 0
M  V30 1059 C 205.119 6.5273 2.63741 0
M  V30 1060 C 204.409 5.1842 2.73198 0
M  V30 1061 N 204.459 4.38762 1.4784 0
M  V30 1062 H 201.621 8.36899 2.3252 0
M  V30 1063 H 201.349 6.70391 1.71179 0
M  V30 1064 H 202.217 7.03638 4.13219 0
M  V30 1065 H 204.872 4.59931 3.54016 0
M  V30 1066 H 205.152 6.88995 1.59871 0
M  V30 1067 H 206.143 6.4684 3.0373 0
M  V30 1068 H 204.309 8.47002 3.20749 0
M  V30 1069 P 206.179 7.20834 5.23717 0
M  V30 1070 O 206.399 7.80006 6.57415 0
M  V30 1071 O 206.969 7.79416 4.13051 0
M  V30 1072 O 206.429 5.63315 5.29344 0
M  V30 1073 C 205.489 4.80318 6.01954 0
M  V30 1074 C 206.219 3.64202 6.65911 0
M  V30 1075 O 206.429 2.60736 5.64823 0
M  V30 1076 C 207.619 3.93521 7.19518 0
M  V30 1077 O 208.009 3.02071 8.21205 0
M  V30 1078 C 208.499 3.73047 5.97036 0
M  V30 1079 C 207.789 2.58828 5.25741 0
M  V30 1080 N 207.839 2.68068 3.77503 0
M  V30 1081 H 205.001 5.40394 6.8003 0
M  V30 1082 H 204.729 4.41741 5.32532 0
M  V30 1083 H 205.597 3.26371 7.47889 0
M  V30 1084 H 208.252 1.64007 5.56746 0
M  V30 1085 H 208.532 4.63439 5.3432 0
M  V30 1086 H 209.523 3.44776 6.25925 0
M  V30 1087 H 207.689 4.96707 7.57347 0
M  V30 1088 P 209.559 2.75334 8.47391 0
M  V30 1089 O 209.779 2.44571 9.90142 0
M  V30 1090 O 210.349 3.87688 7.92115 0
M  V30 1091 O 209.809 1.4459 7.59357 0
M  V30 1092 C 208.869 0.347608 7.69215 0
M  V30 1093 C 209.599 -0.96767 7.52806 0
M  V30 1094 O 209.809 -1.21036 6.1011 0
M  V30 1095 C 210.999 -1.04544 8.13308 0
M  V30 1096 O 211.389 -2.38311 8.41922 0
M  V30 1097 C 211.879 -0.491279 7.02284 0
M  V30 1098 C 211.169 -0.996264 5.77469 0
M  V30 1099 N 211.219 -0.0501916 4.62973 0
M  V30 1100 H 208.38 0.374722 8.67691 0
M  V30 1101 H 208.11 0.443485 6.90277 0
M  V30 1102 H 208.977 -1.75537 7.96793 0
M  V30 1103 P 212.939 -2.75334 8.47391 0
M  V30 1104 O 213.159 -3.84166 9.4489 0
M  V30 1105 O 213.729 -1.51964 8.6881 0
M  V30 1106 O 213.189 -3.29363 6.99321 0
M  V30 1107 C 212.249 -4.23956 6.42656 0
M  V30 1108 C 212.979 -5.20775 5.52155 0
M  V30 1109 O 213.189 -4.56534 4.22446 0
M  V30 1110 C 214.379 -5.62629 5.96531 0
M  V30 1111 O 214.769 -6.87667 5.41053 0
M  V30 1112 C 215.259 -4.52537 5.39283 0
M  V30 1113 C 214.549 -4.20027 4.08623 0
M  V30 1114 N 214.599 -2.7613 3.71522 0
M  V30 1115 C 214.749 -2.45612 2.37989 0
M  V30 1116 O 214.839 -3.30919 1.51621 0
M  V30 1117 N 214.789 -1.10684 2.08435 0
M  V30 1118 C 214.699 -0.0690084 2.9792 0
M  V30 1119 C 214.549 -0.481522 4.35345 0
M  V30 1120 C 214.499 -1.78906 4.67968 0
M  V30 1121 H 211.759 -4.797 7.24003 0
M  V30 1122 H 211.49 -3.69802 5.84429 0
M  V30 1123 H 212.357 -6.10356 5.41441 0
M  V30 1124 H 215.012 -4.78651 3.27911 0
M  V30 1125 H 215.291 -3.64957 6.05871 0
M  V30 1126 H 216.283 -4.8868 5.2125 0
M  V30 1127 H 214.449 -5.66726 7.06352 0
M  V30 1128 H 214.378 -2.07737 5.72367 0
M  V30 1129 P 216.319 -7.20834 5.23717 0
M  V30 1130 O 216.539 -8.66104 5.38572 0
M  V30 1131 O 217.109 -6.33544 6.1349 0
M  V30 1132 O 216.569 -6.7751 3.72168 0
M  V30 1133 C 215.629 -7.20825 2.7076 0
M  V30 1134 C 216.359 -7.45864 1.40599 0
M  V30 1135 O 216.569 -6.17651 0.734225 0
M  V30 1136 C 217.759 -8.05808 1.51899 0
M  V30 1137 O 218.149 -8.74358 0.335205 0
M  V30 1138 C 218.639 -6.83093 1.70294 0
M  V30 1139 C 217.929 -5.79992 0.836974 0
M  V30 1140 N 217.979 -4.41864 1.38293 0
M  V30 1141 H 215.14 -8.13644 3.0377 0
M  V30 1142 H 214.87 -6.42788 2.55485 0
M  V30 1143 H 215.737 -8.12039 0.792769 0
M  V30 1144 P 219.699 -8.91 -3.97326e-13 0
M  V30 1145 O 219.919 -10.1726 -0.733694 0
M  V30 1146 O 220.489 -8.73148 1.23936 0
M  V30 1147 O 219.949 -7.66872 -0.971405 0
M  V30 1148 C 219.009 -7.42309 -2.04641 0
M  V30 1149 C 219.739 -6.86059 -3.24661 0
M  V30 1150 O 219.949 -5.42847 -3.03646 0
M  V30 1151 C 221.139 -7.41196 -3.50753 0
M  V30 1152 O 221.529 -7.27073 -4.86816 0
M  V30 1153 C 222.019 -6.5273 -2.63741 0
M  V30 1154 C 221.309 -5.1842 -2.73198 0
M  V30 1155 N 221.359 -4.38762 -1.4784 0
M  V30 1156 H 218.52 -8.36803 -2.32493 0
M  V30 1157 H 218.25 -6.70197 -1.71129 0
M  V30 1158 H 219.117 -7.03551 -4.13168 0
M  V30 1159 P 223.079 -7.20834 -5.23717 0
M  V30 1160 O 223.299 -7.79853 -6.57286 0
M  V30 1161 O 223.869 -7.79239 -4.12957 0
M  V30 1162 O 223.329 -5.63315 -5.29344 0
M  V30 1163 C 222.389 -4.80255 -6.01876 0
M  V30 1164 C 223.119 -3.64202 -6.65911 0
M  V30 1165 O 223.329 -2.60694 -5.64732 0
M  V30 1166 C 224.519 -3.93473 -7.1943 0
M  V30 1167 O 224.909 -3.02071 -8.21205 0
M  V30 1168 C 225.399 -3.73047 -5.97036 0
M  V30 1169 C 224.689 -2.58828 -5.25741 0
M  V30 1170 N 224.739 -2.68068 -3.77503 0
M  V30 1171 H 221.9 -5.40332 -6.79951 0
M  V30 1172 H 221.63 -4.41613 -5.32378 0
M  V30 1173 H 222.497 -3.26331 -7.47797 0
M  V30 1174 P 226.459 -2.75334 -8.47391 0
M  V30 1175 O 226.679 -2.44571 -9.90142 0
M  V30 1176 O 227.249 -3.87688 -7.92115 0
M  V30 1177 O 226.709 -1.4459 -7.59357 0
M  V30 1178 C 225.769 -0.347608 -7.69215 0
M  V30 1179 C 226.499 0.96767 -7.52806 0
M  V30 1180 O 226.709 1.21036 -6.1011 0
M  V30 1181 C 227.899 1.04544 -8.13308 0
M  V30 1182 O 228.289 2.38311 -8.41922 0
M  V30 1183 C 228.779 0.491279 -7.02284 0
M  V30 1184 C 228.069 0.996264 -5.77469 0
M  V30 1185 N 228.119 0.0501916 -4.62973 0
M  V30 1186 H 225.28 -0.374722 -8.67691 0
M  V30 1187 H 225.01 -0.443485 -6.90277 0
M  V30 1188 H 225.877 1.75537 -7.96793 0
M  V30 1189 P 229.839 2.75334 -8.47391 0
M  V30 1190 O 230.059 3.84128 -9.44797 0
M  V30 1191 O 230.629 1.51947 -8.68712 0
M  V30 1192 O 230.089 3.29363 -6.99321 0
M  V30 1193 C 229.149 4.24011 -6.4274 0
M  V30 1194 C 229.879 5.20775 -5.52155 0
M  V30 1195 O 230.089 4.56534 -4.22446 0
M  V30 1196 C 231.279 5.62629 -5.96531 0
M  V30 1197 O 231.669 6.87667 -5.41053 0
M  V30 1198 C 232.159 4.52537 -5.39283 0
M  V30 1199 C 231.449 4.20027 -4.08623 0
M  V30 1200 N 231.499 2.76189 -3.71603 0
M  V30 1201 C 231.419 1.64862 -4.52822 0
M  V30 1202 N 231.499 0.512671 -3.88633 0
M  V30 1203 C 231.639 0.888083 -2.54977 0
M  V30 1204 C 231.769 0.094668 -1.38677 0
M  V30 1205 O 231.789 -1.13053 -1.28163 0
M  V30 1206 N 231.889 0.890102 -0.232633 0
M  V30 1207 C 231.889 2.26958 -0.21772 0
M  V30 1208 N 232.019 2.84626 0.97925 0
M  V30 1209 N 231.759 3.0178 -1.31033 0
M  V30 1210 C 231.639 2.26781 -2.43843 0
M  V30 1211 H 228.66 4.797 -7.24003 0
M  V30 1212 H 228.39 3.69856 -5.84513 0
M  V30 1213 H 229.257 6.10356 -5.41441 0
M  V30 1214 H 231.912 4.79061 -3.27488 0
M  V30 1215 H 232.191 3.64906 -6.05785 0
M  V30 1216 H 233.183 4.8868 -5.2125 0
M  V30 1217 H 231.349 5.66726 -7.06352 0
M  V30 1218 H 231.3 1.71169 -5.60966 0
M  V30 1219 H 231.982 0.419134 0.644739 0
M  V30 1220 H 232.019 3.87332 1.06098 0
M  V30 1221 H 232.12 2.26417 1.82483 0
M  V30 1222 P 233.219 7.20834 -5.23717 0
M  V30 1223 O 233.439 8.66104 -5.38572 0
M  V30 1224 O 234.009 6.33544 -6.1349 0
M  V30 1225 O 233.469 6.7751 -3.72168 0
M  V30 1226 C 232.529 7.20825 -2.7076 0
M  V30 1227 C 233.259 7.45864 -1.40599 0
M  V30 1228 O 233.469 6.17651 -0.734225 0
M  V30 1229 C 234.659 8.05808 -1.51899 0
M  V30 1230 O 235.049 8.74358 -0.335205 0
M  V30 1231 C 235.539 6.83093 -1.70294 0
M  V30 1232 C 234.829 5.79992 -0.836974 0
M  V30 1233 N 234.879 4.41864 -1.38293 0
M  V30 1234 H 232.04 8.13644 -3.0377 0
M  V30 1235 H 231.77 6.42788 -2.55485 0
M  V30 1236 H 232.637 8.12039 -0.792769 0
M  V30 1237 P 236.599 8.91 5.54508e-13 0
M  V30 1238 O 236.819 10.1726 0.733694 0
M  V30 1239 O 237.389 8.73148 -1.23936 0
M  V30 1240 O 236.849 7.66872 0.971405 0
M  V30 1241 C 235.909 7.42309 2.04641 0
M  V30 1242 C 236.639 6.86059 3.24661 0
M  V30 1243 O 236.849 5.42847 3.03646 0
M  V30 1244 C 238.039 7.41196 3.50753 0
M  V30 1245 O 238.429 7.27073 4.86816 0
M  V30 1246 C 238.919 6.5273 2.63741 0
M  V30 1247 C 238.209 5.1842 2.73198 0
M  V30 1248 N 238.259 4.38762 1.4784 0
M  V30 1249 H 235.42 8.36803 2.32493 0
M  V30 1250 H 235.15 6.70197 1.71129 0
M  V30 1251 H 236.017 7.03551 4.13168 0
M  V30 1252 P 239.979 7.20834 5.23717 0
M  V30 1253 O 240.199 7.7993 6.57351 0
M  V30 1254 O 240.769 7.79328 4.13004 0
M  V30 1255 O 240.229 5.63315 5.29344 0
M  V30 1256 C 239.289 4.80193 6.01798 0
M  V30 1257 C 240.019 3.64202 6.65911 0
M  V30 1258 O 240.229 2.60694 5.64732 0
M  V30 1259 C 241.419 3.93473 7.1943 0
M  V30 1260 O 241.809 3.02071 8.21205 0
M  V30 1261 C 242.299 3.73047 5.97036 0
M  V30 1262 C 241.589 2.58828 5.25741 0
M  V30 1263 N 241.639 2.6801 3.77422 0
M  V30 1264 C 241.789 1.50443 3.07133 0
M  V30 1265 O 241.879 0.419406 3.61576 0
M  V30 1266 N 241.829 1.6403 1.69677 0
M  V30 1267 C 241.739 2.81206 0.986255 0
M  V30 1268 C 241.589 3.99158 1.80325 0
M  V30 1269 C 241.539 3.89779 3.1476 0
M  V30 1270 H 238.799 5.40332 6.79951 0
M  V30 1271 H 238.53 4.41549 5.32301 0
M  V30 1272 H 239.397 3.26331 7.47797 0
M  V30 1273 H 242.052 1.6395 5.56554 0
M  V30 1274 H 242.331 4.63439 5.3432 0
M  V30 1275 H 243.323 3.44728 6.25838 0
M  V30 1276 H 241.489 4.96652 7.57263 0
M  V30 1277 H 241.418 4.80159 3.74441 0
M  V30 1278 P 243.359 2.75334 8.47391 0
M  V30 1279 O 243.579 2.44571 9.90142 0
M  V30 1280 O 244.149 3.87688 7.92115 0
M  V30 1281 O 243.609 1.4459 7.59357 0
M  V30 1282 C 242.669 0.347608 7.69215 0
M  V30 1283 C 243.399 -0.96767 7.52806 0
M  V30 1284 O 243.609 -1.21036 6.1011 0
M  V30 1285 C 244.799 -1.04544 8.13308 0
M  V30 1286 O 245.189 -2.38311 8.41922 0
M  V30 1287 C 245.679 -0.491279 7.02284 0
M  V30 1288 C 244.969 -0.996264 5.77469 0
M  V30 1289 N 245.019 -0.0501916 4.62973 0
M  V30 1290 C 244.939 1.32786 4.63244 0
M  V30 1291 N 245.019 1.86957 3.44545 0
M  V30 1292 C 245.159 0.780241 2.58481 0
M  V30 1293 C 245.289 0.738536 1.17757 0
M  V30 1294 N 245.409 -0.58337 0.711393 0
M  V30 1295 C 245.409 -1.70816 1.51017 0
M  V30 1296 N 245.539 -2.87826 0.880757 0
M  V30 1297 N 245.279 -1.67126 2.8339 0
M  V30 1298 C 245.159 -0.401421 3.30572 0
M  V30 1299 H 242.18 0.374722 8.67691 0
M  V30 1300 H 241.91 0.443485 6.90277 0
M  V30 1301 H 242.777 -1.75537 7.96793 0
M  V30 1302 P 246.739 -2.75334 8.47391 0
M  V30 1303 O 246.959 -3.84128 9.44797 0
M  V30 1304 O 247.529 -1.51947 8.68712 0
M  V30 1305 O 246.989 -3.29363 6.99321 0
M  V30 1306 C 246.049 -4.24011 6.4274 0
M  V30 1307 C 246.779 -5.20775 5.52155 0
M  V30 1308 O 246.989 -4.56534 4.22446 0
M  V30 1309 C 248.179 -5.62629 5.96531 0
M  V30 1310 O 248.569 -6.87667 5.41053 0
M  V30 1311 C 249.059 -4.52537 5.39283 0
M  V30 1312 C 248.349 -4.20027 4.08623 0
M  V30 1313 N 248.399 -2.76189 3.71603 0
M  V30 1314 H 245.56 -4.797 7.24003 0
M  V30 1315 H 245.29 -3.69856 5.84513 0
M  V30 1316 H 246.157 -6.10356 5.41441 0
M  V30 1317 P 250.119 -7.20834 5.23717 0
M  V30 1318 O 250.339 -8.66104 5.38572 0
M  V30 1319 O 250.909 -6.33544 6.1349 0
M  V30 1320 O 250.369 -6.7751 3.72168 0
M  V30 1321 C 249.429 -7.20825 2.7076 0
M  V30 1322 C 250.159 -7.45864 1.40599 0
M  V30 1323 O 250.369 -6.17651 0.734225 0
M  V30 1324 C 251.559 -8.05808 1.51899 0
M  V30 1325 O 251.949 -8.74358 0.335205 0
M  V30 1326 C 252.439 -6.83093 1.70294 0
M  V30 1327 C 251.729 -5.79992 0.836974 0
M  V30 1328 N 251.779 -4.41864 1.38293 0
M  V30 1329 H 248.94 -8.13644 3.0377 0
M  V30 1330 H 248.67 -6.42788 2.55485 0
M  V30 1331 H 249.537 -8.12039 0.792769 0
M  V30 1332 P 253.498 -8.91 -7.1169e-13 0
M  V30 1333 O 253.718 -10.1736 -0.733766 0
M  V30 1334 O 254.288 -8.73247 1.2395 0
M  V30 1335 O 253.748 -7.66872 -0.971405 0
M  V30 1336 C 252.808 -7.42212 -2.04614 0
M  V30 1337 C 253.538 -6.86059 -3.24661 0
M  V30 1338 O 253.748 -5.42847 -3.03646 0
M  V30 1339 C 254.938 -7.41196 -3.50753 0
M  V30 1340 O 255.328 -7.27073 -4.86816 0
M  V30 1341 C 255.818 -6.5273 -2.63741 0
M  V30 1342 C 255.108 -5.1842 -2.73198 0
M  V30 1343 N 255.158 -4.38668 -1.47808 0
M  V30 1344 C 255.308 -3.02239 -1.60048 0
M  V30 1345 O 255.398 -2.46459 -2.67869 0
M  V30 1346 N 255.348 -2.32436 -0.408571 0
M  V30 1347 C 255.258 -2.85471 0.854993 0
M  V30 1348 O 255.308 -2.12566 1.8531 0
M  V30 1349 C 255.108 -4.28918 0.887335 0
M  V30 1350 C 254.998 -4.91066 2.24619 0
M  V30 1351 C 255.058 -5.00349 -0.255399 0
M  V30 1352 H 252.318 -8.36803 -2.32493 0
M  V30 1353 H 252.049 -6.701 -1.71105 0
M  V30 1354 H 252.916 -7.03551 -4.13168 0
M  V30 1355 H 255.571 -4.59773 -3.53894 0
M  V30 1356 H 255.85 -6.88995 -1.59871 0
M  V30 1357 H 256.842 -6.46749 -3.03687 0
M  V30 1358 H 255.008 -8.46908 -3.20714 0
M  V30 1359 H 254.937 -6.08548 -0.206986 0
M  V30 1360 H 255.967 -5.34836 2.53099 0
M  V30 1361 H 254.23 -5.69638 2.2291 0
M  V30 1362 H 254.718 -4.13971 2.98044 0
M  V30 1363 H 255.454 -1.33211 -0.474216 0
M  V30 1364 P 256.878 -7.20834 -5.23717 0
M  V30 1365 O 257.098 -7.79853 -6.57286 0
M  V30 1366 O 257.668 -7.79239 -4.12957 0
M  V30 1367 O 257.128 -5.63315 -5.29344 0
M  V30 1368 C 256.188 -4.80255 -6.01876 0
M  V30 1369 C 256.918 -3.64202 -6.65911 0
M  V30 1370 O 257.128 -2.60694 -5.64732 0
M  V30 1371 C 258.318 -3.93473 -7.1943 0
M  V30 1372 O 258.708 -3.02071 -8.21205 0
M  V30 1373 C 259.198 -3.73047 -5.97036 0
M  V30 1374 C 258.488 -2.58828 -5.25741 0
M  V30 1375 N 258.538 -2.68068 -3.77503 0
M  V30 1376 H 255.699 -5.40332 -6.79951 0
M  V30 1377 H 255.429 -4.41613 -5.32378 0
M  V30 1378 H 256.296 -3.26331 -7.47797 0
M  V30 1379 P 260.258 -2.75334 -8.47391 0
M  V30 1380 O 260.478 -2.44571 -9.90142 0
M  V30 1381 O 261.048 -3.87688 -7.92115 0
M  V30 1382 O 260.508 -1.4459 -7.59357 0
M  V30 1383 C 259.568 -0.347608 -7.69215 0
M  V30 1384 C 260.298 0.96767 -7.52806 0
M  V30 1385 O 260.508 1.21036 -6.1011 0
M  V30 1386 C 261.698 1.04544 -8.13308 0
M  V30 1387 O 262.088 2.38311 -8.41922 0
M  V30 1388 C 262.578 0.491279 -7.02284 0
M  V30 1389 C 261.868 0.996264 -5.77469 0
M  V30 1390 N 261.918 0.0501916 -4.62973 0
M  V30 1391 H 259.079 -0.374722 -8.67691 0
M  V30 1392 H 258.809 -0.443485 -6.90277 0
M  V30 1393 H 259.676 1.75537 -7.96793 0
M  V30 1394 P 263.638 2.75334 -8.47391 0
M  V30 1395 O 263.858 3.84128 -9.44797 0
M  V30 1396 O 264.428 1.51947 -8.68712 0
M  V30 1397 O 263.888 3.29363 -6.99321 0
M  V30 1398 C 262.948 4.24011 -6.4274 0
M  V30 1399 C 263.678 5.20775 -5.52155 0
M  V30 1400 O 263.888 4.56534 -4.22446 0
M  V30 1401 C 265.078 5.62629 -5.96531 0
M  V30 1402 O 265.468 6.87667 -5.41053 0
M  V30 1403 C 265.958 4.52537 -5.39283 0
M  V30 1404 C 265.248 4.20027 -4.08623 0
M  V30 1405 N 265.298 2.76189 -3.71603 0
M  V30 1406 H 262.459 4.797 -7.24003 0
M  V30 1407 H 262.189 3.69856 -5.84513 0
M  V30 1408 H 263.056 6.10356 -5.41441 0
M  V30 1409 P 267.018 7.20834 -5.23717 0
M  V30 1410 O 267.238 8.66104 -5.38572 0
M  V30 1411 O 267.808 6.33544 -6.1349 0
M  V30 1412 O 267.268 6.7751 -3.72168 0
M  V30 1413 C 266.328 7.20825 -2.7076 0
M  V30 1414 C 267.058 7.45864 -1.40599 0
M  V30 1415 O 267.268 6.17651 -0.734225 0
M  V30 1416 C 268.458 8.05808 -1.51899 0
M  V30 1417 O 268.848 8.74358 -0.335205 0
M  V30 1418 C 269.338 6.83093 -1.70294 0
M  V30 1419 C 268.628 5.79992 -0.836974 0
M  V30 1420 N 268.678 4.41864 -1.38293 0
M  V30 1421 C 268.598 3.99538 -2.69438 0
M  V30 1422 N 268.678 2.69909 -2.84277 0
M  V30 1423 C 268.818 2.21719 -1.5408 0
M  V30 1424 C 268.948 0.891712 -1.06628 0
M  V30 1425 O 268.968 -0.161298 -1.70137 0
M  V30 1426 N 269.068 0.856846 0.334985 0
M  V30 1427 C 269.068 1.9641 1.15789 0
M  V30 1428 N 269.198 1.72708 2.46522 0
M  V30 1429 N 268.938 3.21165 0.713741 0
M  V30 1430 C 268.818 3.26797 -0.639748 0
M  V30 1431 H 265.839 8.13644 -3.0377 0
M  V30 1432 H 265.569 6.42788 -2.55485 0
M  V30 1433 H 266.436 8.12039 -0.792769 0
M  V30 1434 H 269.091 5.80061 0.166416 0
M  V30 1435 H 269.37 6.51287 -2.75604 0
M  V30 1436 H 270.362 7.01734 -1.34462 0
M  V30 1437 H 268.528 8.73674 -2.38337 0
M  V30 1438 H 268.479 4.68207 -3.53221 0
M  V30 1439 H 269.161 -0.0398818 0.767965 0
M  V30 1440 H 269.198 2.50995 3.13503 0
M  V30 1441 H 269.299 0.759148 2.80716 0
M  V30 1442 P 270.398 8.91 8.68872e-13 0
M  V30 1443 O 270.618 10.1726 0.733694 0
M  V30 1444 O 271.188 8.73148 -1.23936 0
M  V30 1445 O 270.648 7.66872 0.971405 0
M  V30 1446 C 269.708 7.42309 2.04641 0
M  V30 1447 C 270.438 6.86059 3.24661 0
M  V30 1448 O 270.648 5.42847 3.03646 0
M  V30 1449 C 271.838 7.41196 3.50753 0
M  V30 1450 O 272.228 7.27073 4.86816 0
M  V30 1451 C 272.718 6.5273 2.63741 0
M  V30 1452 C 272.008 5.1842 2.73198 0
M  V30 1453 N 272.058 4.38762 1.4784 0
M  V30 1454 H 269.219 8.36803 2.32493 0
M  V30 1455 H 268.949 6.70197 1.71129 0
M  V30 1456 H 269.816 7.03551 4.13168 0
M  V30 1457 P 273.778 7.20834 5.23717 0
M  V30 1458 O 273.998 7.7993 6.57351 0
M  V30 1459 O 274.568 7.79328 4.13004 0
M  V30 1460 O 274.028 5.63315 5.29344 0
M  V30 1461 C 273.088 4.80193 6.01798 0
M  V30 1462 C 273.818 3.64202 6.65911 0
M  V30 1463 O 274.028 2.60694 5.64732 0
M  V30 1464 C 275.218 3.93473 7.1943 0
M  V30 1465 O 275.608 3.02071 8.21205 0
M  V30 1466 C 276.098 3.73047 5.97036 0
M  V30 1467 C 275.388 2.58828 5.25741 0
M  V30 1468 N 275.438 2.6801 3.77422 0
M  V30 1469 C 275.588 1.50443 3.07133 0
M  V30 1470 O 275.678 0.419406 3.61576 0
M  V30 1471 N 275.628 1.6403 1.69677 0
M  V30 1472 C 275.538 2.81206 0.986255 0
M  V30 1473 C 275.388 3.99158 1.80325 0
M  V30 1474 C 275.338 3.89779 3.1476 0
M  V30 1475 H 272.598 5.40332 6.79951 0
M  V30 1476 H 272.329 4.41549 5.32301 0
M  V30 1477 H 273.196 3.26331 7.47797 0
M  V30 1478 H 275.851 1.6395 5.56554 0
M  V30 1479 H 276.13 4.63439 5.3432 0
M  V30 1480 H 277.122 3.44728 6.25838 0
M  V30 1481 H 275.288 4.96652 7.57263 0
M  V30 1482 H 275.217 4.80159 3.74441 0
M  V30 1483 P 277.158 2.75334 8.47391 0
M  V30 1484 O 277.378 2.44571 9.90142 0
M  V30 1485 O 277.948 3.87688 7.92115 0
M  V30 1486 O 277.408 1.4459 7.59357 0
M  V30 1487 C 276.468 0.347608 7.69215 0
M  V30 1488 C 277.198 -0.96767 7.52806 0
M  V30 1489 O 277.408 -1.21036 6.1011 0
M  V30 1490 C 278.598 -1.04544 8.13308 0
M  V30 1491 O 278.988 -2.38311 8.41922 0
M  V30 1492 C 279.478 -0.491279 7.02284 0
M  V30 1493 C 278.768 -0.996264 5.77469 0
M  V30 1494 N 278.818 -0.0501916 4.62973 0
M  V30 1495 H 275.979 0.374722 8.67691 0
M  V30 1496 H 275.709 0.443485 6.90277 0
M  V30 1497 H 276.576 -1.75537 7.96793 0
M  V30 1498 P 280.538 -2.75334 8.47391 0
M  V30 1499 O 280.758 -3.84128 9.44797 0
M  V30 1500 O 281.328 -1.51947 8.68712 0
M  V30 1501 O 280.788 -3.29363 6.99321 0
M  V30 1502 C 279.848 -4.24011 6.4274 0
M  V30 1503 C 280.578 -5.20775 5.52155 0
M  V30 1504 O 280.788 -4.56534 4.22446 0
M  V30 1505 C 281.978 -5.62629 5.96531 0
M  V30 1506 O 282.368 -6.87667 5.41053 0
M  V30 1507 C 282.858 -4.52537 5.39283 0
M  V30 1508 C 282.148 -4.20027 4.08623 0
M  V30 1509 N 282.198 -2.76189 3.71603 0
M  V30 1510 H 279.359 -4.797 7.24003 0
M  V30 1511 H 279.089 -3.69856 5.84513 0
M  V30 1512 H 279.956 -6.10356 5.41441 0
M  V30 1513 P 283.918 -7.20834 5.23717 0
M  V30 1514 O 284.138 -8.66104 5.38572 0
M  V30 1515 O 284.708 -6.33544 6.1349 0
M  V30 1516 O 284.168 -6.7751 3.72168 0
M  V30 1517 C 283.228 -7.20825 2.7076 0
M  V30 1518 C 283.958 -7.45864 1.40599 0
M  V30 1519 O 284.168 -6.17651 0.734225 0
M  V30 1520 C 285.358 -8.05808 1.51899 0
M  V30 1521 O 285.748 -8.74358 0.335205 0
M  V30 1522 C 286.238 -6.83093 1.70294 0
M  V30 1523 C 285.528 -5.79992 0.836974 0
M  V30 1524 N 285.578 -4.41864 1.38293 0
M  V30 1525 H 282.739 -8.13644 3.0377 0
M  V30 1526 H 282.469 -6.42788 2.55485 0
M  V30 1527 H 283.336 -8.12039 0.792769 0
M  V30 1528 P 287.298 -8.91 -1.02605e-12 0
M  V30 1529 O 287.518 -10.1726 -0.733694 0
M  V30 1530 O 288.088 -8.73148 1.23936 0
M  V30 1531 O 287.548 -7.66872 -0.971405 0
M  V30 1532 C 286.608 -7.42309 -2.04641 0
M  V30 1533 C 287.338 -6.86059 -3.24661 0
M  V30 1534 O 287.548 -5.42847 -3.03646 0
M  V30 1535 C 288.738 -7.41196 -3.50753 0
M  V30 1536 O 289.128 -7.27073 -4.86816 0
M  V30 1537 C 289.618 -6.5273 -2.63741 0
M  V30 1538 C 288.908 -5.1842 -2.73198 0
M  V30 1539 N 288.958 -4.38762 -1.4784 0
M  V30 1540 H 286.119 -8.36803 -2.32493 0
M  V30 1541 H 285.849 -6.70197 -1.71129 0
M  V30 1542 H 286.716 -7.03551 -4.13168 0
M  V30 1543 P 290.678 -7.20834 -5.23717 0
M  V30 1544 O 290.898 -7.79853 -6.57286 0
M  V30 1545 O 291.468 -7.79239 -4.12957 0
M  V30 1546 O 290.928 -5.63315 -5.29344 0
M  V30 1547 C 289.988 -4.80255 -6.01876 0
M  V30 1548 C 290.718 -3.64202 -6.65911 0
M  V30 1549 O 290.928 -2.60694 -5.64732 0
M  V30 1550 C 292.118 -3.93473 -7.1943 0
M  V30 1551 O 292.508 -3.02071 -8.21205 0
M  V30 1552 C 292.998 -3.73047 -5.97036 0
M  V30 1553 C 292.288 -2.58828 -5.25741 0
M  V30 1554 N 292.338 -2.68068 -3.77503 0
M  V30 1555 H 289.499 -5.40332 -6.79951 0
M  V30 1556 H 289.229 -4.41613 -5.32378 0
M  V30 1557 H 290.096 -3.26331 -7.47797 0
M  V30 1558 P 294.058 -2.75334 -8.47391 0
M  V30 1559 O 294.278 -2.44571 -9.90142 0
M  V30 1560 O 294.848 -3.87688 -7.92115 0
M  V30 1561 O 294.308 -1.4459 -7.59357 0
M  V30 1562 C 293.368 -0.347608 -7.69215 0
M  V30 1563 C 294.098 0.96767 -7.52806 0
M  V30 1564 O 294.308 1.21036 -6.1011 0
M  V30 1565 C 295.498 1.04544 -8.13308 0
M  V30 1566 O 295.888 2.38311 -8.41922 0
M  V30 1567 C 296.378 0.491279 -7.02284 0
M  V30 1568 C 295.668 0.996264 -5.77469 0
M  V30 1569 N 295.718 0.0501916 -4.62973 0
M  V30 1570 H 292.879 -0.374722 -8.67691 0
M  V30 1571 H 292.609 -0.443485 -6.90277 0
M  V30 1572 H 293.476 1.75537 -7.96793 0
M  V30 1573 P 297.438 2.75334 -8.47391 0
M  V30 1574 O 297.658 3.84128 -9.44797 0
M  V30 1575 O 298.228 1.51947 -8.68712 0
M  V30 1576 O 297.688 3.29363 -6.99321 0
M  V30 1577 C 296.748 4.24011 -6.4274 0
M  V30 1578 C 297.478 5.20775 -5.52155 0
M  V30 1579 O 297.688 4.56534 -4.22446 0
M  V30 1580 C 298.878 5.62629 -5.96531 0
M  V30 1581 O 299.268 6.87667 -5.41053 0
M  V30 1582 C 299.758 4.52537 -5.39283 0
M  V30 1583 C 299.048 4.20027 -4.08623 0
M  V30 1584 N 299.098 2.76189 -3.71603 0
M  V30 1585 H 296.259 4.797 -7.24003 0
M  V30 1586 H 295.989 3.69856 -5.84513 0
M  V30 1587 H 296.856 6.10356 -5.41441 0
M  V30 1588 P 300.818 7.20834 -5.23717 0
M  V30 1589 O 301.038 8.66104 -5.38572 0
M  V30 1590 O 301.608 6.33544 -6.1349 0
M  V30 1591 O 301.068 6.7751 -3.72168 0
M  V30 1592 C 300.128 7.20825 -2.7076 0
M  V30 1593 C 300.858 7.45864 -1.40599 0
M  V30 1594 O 301.068 6.17651 -0.734225 0
M  V30 1595 C 302.258 8.05808 -1.51899 0
M  V30 1596 O 302.648 8.74358 -0.335205 0
M  V30 1597 C 303.138 6.83093 -1.70294 0
M  V30 1598 C 302.428 5.79992 -0.836974 0
M  V30 1599 N 302.478 4.41864 -1.38293 0
M  V30 1600 H 299.639 8.13644 -3.0377 0
M  V30 1601 H 299.369 6.42788 -2.55485 0
M  V30 1602 H 300.236 8.12039 -0.792769 0
M  V30 1603 P 304.198 8.91 1.18324e-12 0
M  V30 1604 O 304.418 10.1726 0.733694 0
M  V30 1605 O 304.988 8.73148 -1.23936 0
M  V30 1606 O 304.448 7.66872 0.971405 0
M  V30 1607 C 303.508 7.42309 2.04641 0
M  V30 1608 C 304.238 6.86059 3.24661 0
M  V30 1609 O 304.448 5.42847 3.03646 0
M  V30 1610 C 305.638 7.41196 3.50753 0
M  V30 1611 O 306.028 7.27073 4.86816 0
M  V30 1612 C 306.518 6.5273 2.63741 0
M  V30 1613 C 305.808 5.1842 2.73198 0
M  V30 1614 N 305.858 4.38762 1.4784 0
M  V30 1615 H 303.019 8.36803 2.32493 0
M  V30 1616 H 302.749 6.70197 1.71129 0
M  V30 1617 H 303.616 7.03551 4.13168 0
M  V30 1618 P 307.578 7.20834 5.23717 0
M  V30 1619 O 307.798 7.80006 6.57415 0
M  V30 1620 O 308.368 7.79416 4.13051 0
M  V30 1621 O 307.828 5.63315 5.29344 0
M  V30 1622 C 306.888 4.80318 6.01954 0
M  V30 1623 C 307.618 3.64202 6.65911 0
M  V30 1624 O 307.828 2.60736 5.64823 0
M  V30 1625 C 309.018 3.93521 7.19518 0
M  V30 1626 O 309.408 3.02071 8.21205 0
M  V30 1627 C 309.898 3.73047 5.97036 0
M  V30 1628 C 309.188 2.58828 5.25741 0
M  V30 1629 N 309.238 2.68068 3.77503 0
M  V30 1630 C 309.158 3.80474 2.99159 0
M  V30 1631 N 309.228 3.55622 1.71925 0
M  V30 1632 C 309.378 2.1832 1.65733 0
M  V30 1633 C 309.508 1.28842 0.572777 0
M  V30 1634 N 309.518 1.66875 -0.70098 0
M  V30 1635 N 309.628 -0.016788 0.859836 0
M  V30 1636 C 309.618 -0.398145 2.13316 0
M  V30 1637 N 309.498 0.328224 3.22333 0
M  V30 1638 C 309.378 1.62992 2.90383 0
M  V30 1639 H 306.4 5.40394 6.8003 0
M  V30 1640 H 306.128 4.41741 5.32532 0
M  V30 1641 H 306.996 3.26371 7.47889 0
M  V30 1642 H 309.651 1.64007 5.56746 0
M  V30 1643 H 309.931 4.63439 5.3432 0
M  V30 1644 H 310.922 3.44776 6.25925 0
M  V30 1645 H 309.088 4.96707 7.57347 0
M  V30 1646 H 309.047 4.8089 3.39924 0
M  V30 1647 H 309.428 2.66547 -0.941919 0
M  V30 1648 H 309.617 0.965341 -1.44766 0
M  V30 1649 H 309.725 -1.46427 2.29697 0
M  V30 1650 P 310.958 2.75334 8.47391 0
M  V30 1651 O 311.178 2.44619 9.90336 0
M  V30 1652 O 311.748 3.87776 7.92294 0
M  V30 1653 O 311.208 1.4459 7.59357 0
M  V30 1654 C 310.268 0.347653 7.69315 0
M  V30 1655 C 310.998 -0.96767 7.52806 0
M  V30 1656 O 311.208 -1.21055 6.10208 0
M  V30 1657 C 312.398 -1.04557 8.13408 0
M  V30 1658 O 312.788 -2.38311 8.41922 0
M  V30 1659 C 313.278 -0.491279 7.02284 0
M  V30 1660 C 312.568 -0.996264 5.77469 0
M  V30 1661 N 312.618 -0.0501916 4.62973 0
M  V30 1662 C 312.538 1.31969 4.65661 0
M  V30 1663 N 312.608 1.86649 3.48119 0
M  V30 1664 C 312.758 0.792089 2.62406 0
M  V30 1665 C 312.888 0.705684 1.2207 0
M  V30 1666 N 312.898 1.76207 0.413762 0
M  V30 1667 N 313.008 -0.518981 0.685754 0
M  V30 1668 C 312.998 -1.57595 1.49174 0
M  V30 1669 N 312.878 -1.62909 2.80066 0
M  V30 1670 C 312.758 -0.388195 3.3073 0
M  V30 1671 H 309.78 0.374765 8.67791 0
M  V30 1672 H 309.508 0.443613 6.90476 0
M  V30 1673 H 310.376 -1.75559 7.96891 0
M  V30 1674 H 313.031 -1.94563 5.46818 0
M  V30 1675 H 313.311 0.608651 7.04676 0
M  V30 1676 H 314.302 -0.889796 7.09039 0
M  V30 1677 H 312.468 -0.433128 9.04664 0
M  V30 1678 H 312.427 1.89246 5.57664 0
M  V30 1679 H 312.808 2.71005 0.804694 0
M  V30 1680 H 312.997 1.63189 -0.603768 0
M  V30 1681 H 313.105 -2.53475 0.997614 0
M  V30 1682 P 314.338 -2.75334 8.47391 0
M  V30 1683 O 314.558 -3.84128 9.44797 0
M  V30 1684 O 315.128 -1.51947 8.68712 0
M  V30 1685 O 314.588 -3.29363 6.99321 0
M  V30 1686 C 313.648 -4.24011 6.4274 0
M  V30 1687 C 314.378 -5.20775 5.52155 0
M  V30 1688 O 314.588 -4.56534 4.22446 0
M  V30 1689 C 315.778 -5.62629 5.96531 0
M  V30 1690 O 316.168 -6.87667 5.41053 0
M  V30 1691 C 316.658 -4.52537 5.39283 0
M  V30 1692 C 315.948 -4.20027 4.08623 0
M  V30 1693 N 315.998 -2.76189 3.71603 0
M  V30 1694 H 313.159 -4.797 7.24003 0
M  V30 1695 H 312.889 -3.69856 5.84513 0
M  V30 1696 H 313.756 -6.10356 5.41441 0
M  V30 1697 P 317.718 -7.20834 5.23717 0
M  V30 1698 O 317.938 -8.66104 5.38572 0
M  V30 1699 O 318.508 -6.33544 6.1349 0
M  V30 1700 O 317.968 -6.7751 3.72168 0
M  V30 1701 C 317.028 -7.20825 2.7076 0
M  V30 1702 C 317.758 -7.45864 1.40599 0
M  V30 1703 O 317.968 -6.17651 0.734225 0
M  V30 1704 C 319.158 -8.05808 1.51899 0
M  V30 1705 O 319.548 -8.74358 0.335205 0
M  V30 1706 C 320.038 -6.83093 1.70294 0
M  V30 1707 C 319.328 -5.79992 0.836974 0
M  V30 1708 N 319.378 -4.41864 1.38293 0
M  V30 1709 H 316.539 -8.13644 3.0377 0
M  V30 1710 H 316.269 -6.42788 2.55485 0
M  V30 1711 H 317.136 -8.12039 0.792769 0
M  V30 1712 P 321.098 -8.91 -1.34042e-12 0
M  V30 1713 O 321.318 -10.1726 -0.733694 0
M  V30 1714 O 321.888 -8.73148 1.23936 0
M  V30 1715 O 321.348 -7.66872 -0.971405 0
M  V30 1716 C 320.408 -7.42309 -2.04641 0
M  V30 1717 C 321.138 -6.86059 -3.24661 0
M  V30 1718 O 321.348 -5.42847 -3.03646 0
M  V30 1719 C 322.538 -7.41196 -3.50753 0
M  V30 1720 O 322.928 -7.27073 -4.86816 0
M  V30 1721 C 323.418 -6.5273 -2.63741 0
M  V30 1722 C 322.708 -5.1842 -2.73198 0
M  V30 1723 N 322.758 -4.38762 -1.4784 0
M  V30 1724 H 319.919 -8.36803 -2.32493 0
M  V30 1725 H 319.649 -6.70197 -1.71129 0
M  V30 1726 H 320.516 -7.03551 -4.13168 0
M  V30 1727 P 324.478 -7.20834 -5.23717 0
M  V30 1728 O 324.698 -7.79853 -6.57286 0
M  V30 1729 O 325.268 -7.79239 -4.12957 0
M  V30 1730 O 324.728 -5.63315 -5.29344 0
M  V30 1731 C 323.788 -4.80255 -6.01876 0
M  V30 1732 C 324.518 -3.64202 -6.65911 0
M  V30 1733 O 324.728 -2.60694 -5.64732 0
M  V30 1734 C 325.918 -3.93473 -7.1943 0
M  V30 1735 O 326.308 -3.02071 -8.21205 0
M  V30 1736 C 326.798 -3.73047 -5.97036 0
M  V30 1737 C 326.088 -2.58828 -5.25741 0
M  V30 1738 N 326.138 -2.68068 -3.77503 0
M  V30 1739 H 323.299 -5.40332 -6.79951 0
M  V30 1740 H 323.029 -4.41613 -5.32378 0
M  V30 1741 H 323.896 -3.26331 -7.47797 0
M  V30 1742 P 327.858 -2.75334 -8.47391 0
M  V30 1743 O 328.078 -2.44571 -9.90142 0
M  V30 1744 O 328.648 -3.87688 -7.92115 0
M  V30 1745 O 328.108 -1.4459 -7.59357 0
M  V30 1746 C 327.168 -0.347608 -7.69215 0
M  V30 1747 C 327.898 0.96767 -7.52806 0
M  V30 1748 O 328.108 1.21036 -6.1011 0
M  V30 1749 C 329.298 1.04544 -8.13308 0
M  V30 1750 O 329.688 2.38311 -8.41922 0
M  V30 1751 C 330.178 0.491279 -7.02284 0
M  V30 1752 C 329.468 0.996264 -5.77469 0
M  V30 1753 N 329.518 0.0501916 -4.62973 0
M  V30 1754 C 329.438 -1.32786 -4.63244 0
M  V30 1755 N 329.518 -1.86957 -3.44545 0
M  V30 1756 C 329.658 -0.780241 -2.58481 0
M  V30 1757 C 329.788 -0.738536 -1.17757 0
M  V30 1758 N 329.908 0.58337 -0.711393 0
M  V30 1759 C 329.908 1.70816 -1.51017 0
M  V30 1760 N 330.038 2.87826 -0.880757 0
M  V30 1761 N 329.778 1.67126 -2.8339 0
M  V30 1762 C 329.658 0.401421 -3.30572 0
M  V30 1763 H 326.679 -0.374722 -8.67691 0
M  V30 1764 H 326.409 -0.443485 -6.90277 0
M  V30 1765 H 327.276 1.75537 -7.96793 0
M  V30 1766 P 331.238 2.75334 -8.47391 0
M  V30 1767 O 331.458 3.84128 -9.44797 0
M  V30 1768 O 332.028 1.51947 -8.68712 0
M  V30 1769 O 331.488 3.29363 -6.99321 0
M  V30 1770 C 330.548 4.24011 -6.4274 0
M  V30 1771 C 331.278 5.20775 -5.52155 0
M  V30 1772 O 331.488 4.56534 -4.22446 0
M  V30 1773 C 332.678 5.62629 -5.96531 0
M  V30 1774 O 333.068 6.87667 -5.41053 0
M  V30 1775 C 333.558 4.52537 -5.39283 0
M  V30 1776 C 332.848 4.20027 -4.08623 0
M  V30 1777 N 332.898 2.76189 -3.71603 0
M  V30 1778 H 330.059 4.797 -7.24003 0
M  V30 1779 H 329.789 3.69856 -5.84513 0
M  V30 1780 H 330.656 6.10356 -5.41441 0
M  V30 1781 P 334.618 7.20834 -5.23717 0
M  V30 1782 O 334.838 8.66104 -5.38572 0
M  V30 1783 O 335.408 6.33544 -6.1349 0
M  V30 1784 O 334.868 6.7751 -3.72168 0
M  V30 1785 C 333.928 7.20825 -2.7076 0
M  V30 1786 C 334.658 7.45864 -1.40599 0
M  V30 1787 O 334.868 6.17651 -0.734225 0
M  V30 1788 C 336.058 8.05808 -1.51899 0
M  V30 1789 O 336.448 8.74358 -0.335205 0
M  V30 1790 C 336.938 6.83093 -1.70294 0
M  V30 1791 C 336.228 5.79992 -0.836974 0
M  V30 1792 N 336.278 4.41864 -1.38293 0
M  V30 1793 H 333.439 8.13644 -3.0377 0
M  V30 1794 H 333.169 6.42788 -2.55485 0
M  V30 1795 H 334.036 8.12039 -0.792769 0
M  V30 1796 P 337.998 8.91 1.4976e-12 0
M  V30 1797 O 338.218 10.1726 0.733694 0
M  V30 1798 O 338.788 8.73148 -1.23936 0
M  V30 1799 O 338.248 7.66872 0.971405 0
M  V30 1800 C 337.308 7.42309 2.04641 0
M  V30 1801 C 338.038 6.86059 3.24661 0
M  V30 1802 O 338.248 5.42847 3.03646 0
M  V30 1803 C 339.438 7.41196 3.50753 0
M  V30 1804 O 339.828 7.27073 4.86816 0
M  V30 1805 C 340.318 6.5273 2.63741 0
M  V30 1806 C 339.608 5.1842 2.73198 0
M  V30 1807 N 339.658 4.38762 1.4784 0
M  V30 1808 H 336.819 8.36803 2.32493 0
M  V30 1809 H 336.549 6.70197 1.71129 0
M  V30 1810 H 337.416 7.03551 4.13168 0
M  V30 1811 P 341.378 7.20834 5.23717 0
M  V30 1812 O 341.598 7.80006 6.57415 0
M  V30 1813 O 342.168 7.79416 4.13051 0
M  V30 1814 O 341.628 5.63315 5.29344 0
M  V30 1815 C 340.688 4.80318 6.01954 0
M  V30 1816 C 341.418 3.64202 6.65911 0
M  V30 1817 O 341.628 2.60736 5.64823 0
M  V30 1818 C 342.818 3.93521 7.19518 0
M  V30 1819 O 343.208 3.02071 8.21205 0
M  V30 1820 C 343.698 3.73047 5.97036 0
M  V30 1821 C 342.988 2.58828 5.25741 0
M  V30 1822 N 343.038 2.68068 3.77503 0
M  V30 1823 H 340.2 5.40394 6.8003 0
M  V30 1824 H 339.928 4.41741 5.32532 0
M  V30 1825 H 340.796 3.26371 7.47889 0
M  V30 1826 H 343.451 1.64007 5.56746 0
M  V30 1827 H 343.731 4.63439 5.3432 0
M  V30 1828 H 344.722 3.44776 6.25925 0
M  V30 1829 H 342.888 4.96707 7.57347 0
M  V30 1830 P 344.758 2.75334 8.47391 0
M  V30 1831 O 344.978 2.44571 9.90142 0
M  V30 1832 O 345.548 3.87688 7.92115 0
M  V30 1833 O 345.008 1.4459 7.59357 0
M  V30 1834 C 344.068 0.347608 7.69215 0
M  V30 1835 C 344.798 -0.96767 7.52806 0
M  V30 1836 O 345.008 -1.21036 6.1011 0
M  V30 1837 C 346.198 -1.04544 8.13308 0
M  V30 1838 O 346.588 -2.38311 8.41922 0
M  V30 1839 C 347.078 -0.491279 7.02284 0
M  V30 1840 C 346.368 -0.996264 5.77469 0
M  V30 1841 N 346.418 -0.0501916 4.62973 0
M  V30 1842 H 343.579 0.374722 8.67691 0
M  V30 1843 H 343.309 0.443485 6.90277 0
M  V30 1844 H 344.176 -1.75537 7.96793 0
M  V30 1845 P 348.138 -2.75334 8.47391 0
M  V30 1846 O 348.358 -3.84166 9.4489 0
M  V30 1847 O 348.928 -1.51964 8.6881 0
M  V30 1848 O 348.388 -3.29363 6.99321 0
M  V30 1849 C 347.448 -4.24011 6.4274 0
M  V30 1850 C 348.178 -5.20775 5.52155 0
M  V30 1851 O 348.388 -4.56534 4.22446 0
M  V30 1852 C 349.578 -5.62629 5.96531 0
M  V30 1853 O 349.968 -6.87667 5.41053 0
M  V30 1854 C 350.458 -4.52537 5.39283 0
M  V30 1855 C 349.748 -4.20027 4.08623 0
M  V30 1856 N 349.798 -2.7613 3.71522 0
M  V30 1857 C 349.948 -2.43702 2.37085 0
M  V30 1858 O 350.038 -3.3531 1.54039 0
M  V30 1859 N 349.998 -0.951103 2.10621 0
M  V30 1860 C 349.898 -0.165021 2.93537 0
M  V30 1861 N 349.948 1.09723 2.53253 0
M  V30 1862 C 349.748 -0.469576 4.32458 0
M  V30 1863 C 349.698 -1.78658 4.65921 0
M  V30 1864 H 346.958 -4.79645 7.23919 0
M  V30 1865 H 346.689 -3.69802 5.84429 0
M  V30 1866 H 347.556 -6.10431 5.41508 0
M  V30 1867 H 350.211 -4.78733 3.27967 0
M  V30 1868 H 350.49 -3.64957 6.05871 0
M  V30 1869 H 351.482 -4.8868 5.2125 0
M  V30 1870 H 349.648 -5.66726 7.06352 0
M  V30 1871 H 349.576 -2.06987 5.70299 0
M  V30 1872 H 349.678 0.314383 5.07728 0
M  V30 1873 H 350.066 1.31363 1.5319 0
M  V30 1874 H 349.869 1.85978 3.21943 0
M  V30 1875 P 351.518 -7.20834 5.23717 0
M  V30 1876 O 351.738 -8.66104 5.38572 0
M  V30 1877 O 352.308 -6.33544 6.1349 0
M  V30 1878 O 351.768 -6.7751 3.72168 0
M  V30 1879 C 350.828 -7.20825 2.7076 0
M  V30 1880 C 351.558 -7.45864 1.40599 0
M  V30 1881 O 351.768 -6.17651 0.734225 0
M  V30 1882 C 352.958 -8.05808 1.51899 0
M  V30 1883 O 353.348 -8.74358 0.335205 0
M  V30 1884 C 353.838 -6.83093 1.70294 0
M  V30 1885 C 353.128 -5.79992 0.836974 0
M  V30 1886 N 353.178 -4.41864 1.38293 0
M  V30 1887 H 350.339 -8.13644 3.0377 0
M  V30 1888 H 350.069 -6.42788 2.55485 0
M  V30 1889 H 350.936 -8.12039 0.792769 0
M  V30 1890 P 354.898 -8.91 -1.65478e-12 0
M  V30 1891 O 355.118 -10.1726 -0.733694 0
M  V30 1892 O 355.688 -8.73148 1.23936 0
M  V30 1893 O 355.148 -7.66872 -0.971405 0
M  V30 1894 C 354.208 -7.42309 -2.04641 0
M  V30 1895 C 354.938 -6.86059 -3.24661 0
M  V30 1896 O 355.148 -5.42847 -3.03646 0
M  V30 1897 C 356.338 -7.41196 -3.50753 0
M  V30 1898 O 356.728 -7.27073 -4.86816 0
M  V30 1899 C 357.218 -6.5273 -2.63741 0
M  V30 1900 C 356.508 -5.1842 -2.73198 0
M  V30 1901 N 356.558 -4.38762 -1.4784 0
M  V30 1902 C 356.478 -4.81605 -0.168631 0
M  V30 1903 N 356.558 -3.85454 0.713363 0
M  V30 1904 C 356.698 -2.6994 -0.0566958 0
M  V30 1905 C 356.828 -1.34815 0.338502 0
M  V30 1906 N 356.948 -0.496304 -0.77465 0
M  V30 1907 C 356.948 -0.908403 -2.09122 0
M  V30 1908 N 357.078 0.0517805 -3.00955 0
M  V30 1909 N 356.818 -2.17875 -2.46519 0
M  V30 1910 C 356.698 -3.01988 -1.4033 0
M  V30 1911 H 353.719 -8.36803 -2.32493 0
M  V30 1912 H 353.449 -6.70197 -1.71129 0
M  V30 1913 H 354.316 -7.03551 -4.13168 0
M  V30 1914 P 358.278 -7.20834 -5.23717 0
M  V30 1915 O 358.498 -7.79853 -6.57286 0
M  V30 1916 O 359.068 -7.79239 -4.12957 0
M  V30 1917 O 358.528 -5.63315 -5.29344 0
M  V30 1918 C 357.588 -4.80255 -6.01876 0
M  V30 1919 C 358.318 -3.64202 -6.65911 0
M  V30 1920 O 358.528 -2.60694 -5.64732 0
M  V30 1921 C 359.718 -3.93473 -7.1943 0
M  V30 1922 O 360.108 -3.02071 -8.21205 0
M  V30 1923 C 360.598 -3.73047 -5.97036 0
M  V30 1924 C 359.888 -2.58828 -5.25741 0
M  V30 1925 N 359.938 -2.68068 -3.77503 0
M  V30 1926 H 357.099 -5.40332 -6.79951 0
M  V30 1927 H 356.829 -4.41613 -5.32378 0
M  V30 1928 H 357.696 -3.26331 -7.47797 0
M  V30 1929 P 361.658 -2.75334 -8.47391 0
M  V30 1930 O 361.878 -2.44595 -9.90239 0
M  V30 1931 O 362.448 -3.87732 -7.92204 0
M  V30 1932 O 361.908 -1.4459 -7.59357 0
M  V30 1933 C 360.968 -0.347563 -7.69115 0
M  V30 1934 C 361.698 0.96767 -7.52806 0
M  V30 1935 O 361.908 1.21036 -6.1011 0
M  V30 1936 C 363.098 1.04544 -8.13308 0
M  V30 1937 O 363.488 2.38311 -8.41922 0
M  V30 1938 C 363.978 0.491279 -7.02284 0
M  V30 1939 C 363.268 0.996264 -5.77469 0
M  V30 1940 N 363.318 0.0501808 -4.62873 0
M  V30 1941 C 363.468 0.588177 -3.36904 0
M  V30 1942 O 363.558 1.78598 -3.17173 0
M  V30 1943 N 363.508 -0.329694 -2.33686 0
M  V30 1944 C 363.418 -1.6953 -2.45079 0
M  V30 1945 O 363.468 -2.41926 -1.44899 0
M  V30 1946 C 363.268 -2.16933 -3.80505 0
M  V30 1947 C 363.158 -3.65373 -3.97621 0
M  V30 1948 C 363.218 -1.30326 -4.83752 0
M  V30 1949 H 360.478 -0.374722 -8.67691 0
M  V30 1950 H 360.209 -0.443421 -6.90177 0
M  V30 1951 H 361.076 1.75537 -7.96793 0
M  V30 1952 H 363.731 1.94496 -5.46629 0
M  V30 1953 H 364.01 -0.608651 -7.04676 0
M  V30 1954 H 365.002 0.889672 -7.08939 0
M  V30 1955 H 363.168 0.43308 -9.04564 0
M  V30 1956 H 363.097 -1.68366 -5.8516 0
M  V30 1957 H 364.127 -4.05985 -4.30448 0
M  V30 1958 H 362.39 -3.88028 -4.72875 0
M  V30 1959 H 362.878 -4.11381 -3.01609 0
M  V30 1960 H 363.614 0.0393617 -1.41345 0
M  V30 1961 P 365.038 2.75334 -8.47391 0
M  V30 1962 O 365.258 3.84128 -9.44797 0
M  V30 1963 O 365.828 1.51947 -8.68712 0
M  V30 1964 O 365.288 3.29363 -6.99321 0
M  V30 1965 C 364.348 4.24011 -6.4274 0
M  V30 1966 C 365.078 5.20775 -5.52155 0
M  V30 1967 O 365.288 4.56534 -4.22446 0
M  V30 1968 C 366.478 5.62629 -5.96531 0
M  V30 1969 O 366.868 6.87667 -5.41053 0
M  V30 1970 C 367.358 4.52537 -5.39283 0
M  V30 1971 C 366.648 4.20027 -4.08623 0
M  V30 1972 N 366.698 2.76189 -3.71603 0
M  V30 1973 H 363.859 4.797 -7.24003 0
M  V30 1974 H 363.589 3.69856 -5.84513 0
M  V30 1975 H 364.456 6.10356 -5.41441 0
M  V30 1976 P 368.418 7.20834 -5.23717 0
M  V30 1977 O 368.638 8.66104 -5.38572 0
M  V30 1978 O 369.208 6.33544 -6.1349 0
M  V30 1979 O 368.668 6.7751 -3.72168 0
M  V30 1980 C 367.728 7.20825 -2.7076 0
M  V30 1981 C 368.458 7.45864 -1.40599 0
M  V30 1982 O 368.668 6.17651 -0.734225 0
M  V30 1983 C 369.858 8.05808 -1.51899 0
M  V30 1984 O 370.248 8.74358 -0.335205 0
M  V30 1985 C 370.738 6.83093 -1.70294 0
M  V30 1986 C 370.028 5.79992 -0.836974 0
M  V30 1987 N 370.078 4.41864 -1.38293 0
M  V30 1988 H 367.239 8.13644 -3.0377 0
M  V30 1989 H 366.969 6.42788 -2.55485 0
M  V30 1990 H 367.836 8.12039 -0.792769 0
M  V30 1991 P 371.798 8.91 1.81197e-12 0
M  V30 1992 O 372.018 10.1726 0.733694 0
M  V30 1993 O 372.588 8.73148 -1.23936 0
M  V30 1994 O 372.048 7.66872 0.971405 0
M  V30 1995 C 371.108 7.42309 2.04641 0
M  V30 1996 C 371.838 6.86059 3.24661 0
M  V30 1997 O 372.048 5.42847 3.03646 0
M  V30 1998 C 373.238 7.41196 3.50753 0
M  V30 1999 O 373.628 7.27073 4.86816 0
M  V30 2000 C 374.118 6.5273 2.63741 0
M  V30 2001 C 373.408 5.1842 2.73198 0
M  V30 2002 N 373.458 4.38762 1.4784 0
M  V30 2003 H 370.619 8.36803 2.32493 0
M  V30 2004 H 370.349 6.70197 1.71129 0
M  V30 2005 H 371.216 7.03551 4.13168 0
M  V30 2006 P 375.178 7.20834 5.23717 0
M  V30 2007 O 375.398 7.79853 6.57286 0
M  V30 2008 O 375.968 7.79239 4.12957 0
M  V30 2009 O 375.428 5.63315 5.29344 0
M  V30 2010 C 374.488 4.80255 6.01876 0
M  V30 2011 C 375.218 3.64202 6.65911 0
M  V30 2012 O 375.428 2.60694 5.64732 0
M  V30 2013 C 376.618 3.93473 7.1943 0
M  V30 2014 O 377.008 3.02071 8.21205 0
M  V30 2015 C 377.498 3.73047 5.97036 0
M  V30 2016 C 376.788 2.58828 5.25741 0
M  V30 2017 N 376.838 2.68068 3.77503 0
M  V30 2018 H 373.999 5.40332 6.79951 0
M  V30 2019 H 373.729 4.41613 5.32378 0
M  V30 2020 H 374.596 3.26331 7.47797 0
M  V30 2021 P 378.558 2.75334 8.47391 0
M  V30 2022 O 378.778 2.44571 9.90142 0
M  V30 2023 O 379.348 3.87688 7.92115 0
M  V30 2024 O 378.808 1.4459 7.59357 0
M  V30 2025 C 377.868 0.347608 7.69215 0
M  V30 2026 C 378.598 -0.96767 7.52806 0
M  V30 2027 O 378.808 -1.21036 6.1011 0
M  V30 2028 C 379.998 -1.04544 8.13308 0
M  V30 2029 O 380.388 -2.38311 8.41922 0
M  V30 2030 C 380.878 -0.491279 7.02284 0
M  V30 2031 C 380.168 -0.996264 5.77469 0
M  V30 2032 N 380.218 -0.0501916 4.62973 0
M  V30 2033 H 377.379 0.374722 8.67691 0
M  V30 2034 H 377.109 0.443485 6.90277 0
M  V30 2035 H 377.976 -1.75537 7.96793 0
M  V30 2036 P 381.938 -2.75334 8.47391 0
M  V30 2037 O 382.158 -3.84128 9.44797 0
M  V30 2038 O 382.728 -1.51947 8.68712 0
M  V30 2039 O 382.188 -3.29363 6.99321 0
M  V30 2040 C 381.248 -4.24011 6.4274 0
M  V30 2041 C 381.978 -5.20775 5.52155 0
M  V30 2042 O 382.188 -4.56534 4.22446 0
M  V30 2043 C 383.378 -5.62629 5.96531 0
M  V30 2044 O 383.768 -6.87667 5.41053 0
M  V30 2045 C 384.258 -4.52537 5.39283 0
M  V30 2046 C 383.548 -4.20027 4.08623 0
M  V30 2047 N 383.598 -2.76189 3.71603 0
M  V30 2048 H 380.759 -4.797 7.24003 0
M  V30 2049 H 380.489 -3.69856 5.84513 0
M  V30 2050 H 381.356 -6.10356 5.41441 0
M  V30 2051 P 385.318 -7.20834 5.23717 0
M  V30 2052 O 385.538 -8.66104 5.38572 0
M  V30 2053 O 386.108 -6.33544 6.1349 0
M  V30 2054 O 385.568 -6.7751 3.72168 0
M  V30 2055 C 384.628 -7.20825 2.7076 0
M  V30 2056 C 385.358 -7.45864 1.40599 0
M  V30 2057 O 385.568 -6.17651 0.734225 0
M  V30 2058 C 386.758 -8.05808 1.51899 0
M  V30 2059 O 387.148 -8.74358 0.335205 0
M  V30 2060 C 387.638 -6.83093 1.70294 0
M  V30 2061 C 386.928 -5.79992 0.836974 0
M  V30 2062 N 386.978 -4.41864 1.38293 0
M  V30 2063 H 384.139 -8.13644 3.0377 0
M  V30 2064 H 383.869 -6.42788 2.55485 0
M  V30 2065 H 384.736 -8.12039 0.792769 0
M  V30 2066 P 388.698 -8.91 -1.96915e-12 0
M  V30 2067 O 388.918 -10.1726 -0.733694 0
M  V30 2068 O 389.488 -8.73148 1.23936 0
M  V30 2069 O 388.948 -7.66872 -0.971405 0
M  V30 2070 C 388.008 -7.42309 -2.04641 0
M  V30 2071 C 388.738 -6.86059 -3.24661 0
M  V30 2072 O 388.948 -5.42847 -3.03646 0
M  V30 2073 C 390.138 -7.41196 -3.50753 0
M  V30 2074 O 390.528 -7.27073 -4.86816 0
M  V30 2075 C 391.018 -6.5273 -2.63741 0
M  V30 2076 C 390.308 -5.1842 -2.73198 0
M  V30 2077 N 390.358 -4.38762 -1.4784 0
M  V30 2078 H 387.519 -8.36803 -2.32493 0
M  V30 2079 H 387.249 -6.70197 -1.71129 0
M  V30 2080 H 388.116 -7.03551 -4.13168 0
M  V30 2081 P 392.078 -7.20834 -5.23717 0
M  V30 2082 O 392.298 -7.79853 -6.57286 0
M  V30 2083 O 392.868 -7.79239 -4.12957 0
M  V30 2084 O 392.328 -5.63315 -5.29344 0
M  V30 2085 C 391.388 -4.80255 -6.01876 0
M  V30 2086 C 392.118 -3.64202 -6.65911 0
M  V30 2087 O 392.328 -2.60694 -5.64732 0
M  V30 2088 C 393.518 -3.93473 -7.1943 0
M  V30 2089 O 393.908 -3.02071 -8.21205 0
M  V30 2090 C 394.398 -3.73047 -5.97036 0
M  V30 2091 C 393.688 -2.58828 -5.25741 0
M  V30 2092 N 393.738 -2.68068 -3.77503 0
M  V30 2093 H 390.899 -5.40332 -6.79951 0
M  V30 2094 H 390.629 -4.41613 -5.32378 0
M  V30 2095 H 391.496 -3.26331 -7.47797 0
M  V30 2096 P 395.458 -2.75334 -8.47391 0
M  V30 2097 O 395.678 -2.44571 -9.90142 0
M  V30 2098 O 396.248 -3.87688 -7.92115 0
M  V30 2099 O 395.708 -1.4459 -7.59357 0
M  V30 2100 C 394.768 -0.347608 -7.69215 0
M  V30 2101 C 395.498 0.96767 -7.52806 0
M  V30 2102 O 395.708 1.21036 -6.1011 0
M  V30 2103 C 396.898 1.04544 -8.13308 0
M  V30 2104 O 397.288 2.38311 -8.41922 0
M  V30 2105 C 397.778 0.491279 -7.02284 0
M  V30 2106 C 397.068 0.996264 -5.77469 0
M  V30 2107 N 397.118 0.0501916 -4.62973 0
M  V30 2108 H 394.279 -0.374722 -8.67691 0
M  V30 2109 H 394.009 -0.443485 -6.90277 0
M  V30 2110 H 394.876 1.75537 -7.96793 0
M  V30 2111 P 398.838 2.75334 -8.47391 0
M  V30 2112 O 399.058 3.84204 -9.44982 0
M  V30 2113 O 399.628 1.51982 -8.68909 0
M  V30 2114 O 399.088 3.29363 -6.99321 0
M  V30 2115 C 398.148 4.24066 -6.42823 0
M  V30 2116 C 398.878 5.20775 -5.52155 0
M  V30 2117 O 399.088 4.56607 -4.22514 0
M  V30 2118 C 400.278 5.62697 -5.96604 0
M  V30 2119 O 400.668 6.87667 -5.41053 0
M  V30 2120 C 401.158 4.52537 -5.39283 0
M  V30 2121 C 400.448 4.20027 -4.08623 0
M  V30 2122 N 400.498 2.76189 -3.71603 0
M  V30 2123 H 397.66 4.79756 -7.24086 0
M  V30 2124 H 397.388 3.69963 -5.84682 0
M  V30 2125 H 398.256 6.10431 -5.41508 0
M  V30 2126 H 400.911 4.78816 -3.28024 0
M  V30 2127 H 401.191 3.64957 -6.05871 0
M  V30 2128 H 402.182 4.88748 -5.21323 0
M  V30 2129 H 400.348 5.66789 -7.0643 0
M  V30 2130 P 402.218 7.20834 -5.23717 0
M  V30 2131 O 402.438 8.66104 -5.38572 0
M  V30 2132 O 403.008 6.33544 -6.1349 0
M  V30 2133 O 402.468 6.7751 -3.72168 0
M  V30 2134 C 401.528 7.20825 -2.7076 0
M  V30 2135 C 402.258 7.45864 -1.40599 0
M  V30 2136 O 402.468 6.17651 -0.734225 0
M  V30 2137 C 403.658 8.05808 -1.51899 0
M  V30 2138 O 404.048 8.74358 -0.335205 0
M  V30 2139 C 404.538 6.83093 -1.70294 0
M  V30 2140 C 403.828 5.79992 -0.836974 0
M  V30 2141 N 403.878 4.41864 -1.38293 0
M  V30 2142 H 401.039 8.13644 -3.0377 0
M  V30 2143 H 400.769 6.42788 -2.55485 0
M  V30 2144 H 401.636 8.12039 -0.792769 0
M  V30 2145 P 405.598 8.91 2.12633e-12 0
M  V30 2146 O 405.818 10.1726 0.733694 0
M  V30 2147 O 406.388 8.73148 -1.23936 0
M  V30 2148 O 405.848 7.66872 0.971405 0
M  V30 2149 C 404.908 7.42309 2.04641 0
M  V30 2150 C 405.638 6.86059 3.24661 0
M  V30 2151 O 405.848 5.42847 3.03646 0
M  V30 2152 C 407.038 7.41196 3.50753 0
M  V30 2153 O 407.428 7.27073 4.86816 0
M  V30 2154 C 407.918 6.5273 2.63741 0
M  V30 2155 C 407.208 5.1842 2.73198 0
M  V30 2156 N 407.258 4.38762 1.4784 0
M  V30 2157 H 404.419 8.36803 2.32493 0
M  V30 2158 H 404.149 6.70197 1.71129 0
M  V30 2159 H 405.016 7.03551 4.13168 0
M  V30 2160 P 408.978 7.20834 5.23717 0
M  V30 2161 O 409.198 7.79853 6.57286 0
M  V30 2162 O 409.768 7.79239 4.12957 0
M  V30 2163 O 409.228 5.63315 5.29344 0
M  V30 2164 C 408.288 4.80255 6.01876 0
M  V30 2165 C 409.018 3.64202 6.65911 0
M  V30 2166 O 409.228 2.60694 5.64732 0
M  V30 2167 C 410.418 3.93473 7.1943 0
M  V30 2168 O 410.808 3.02071 8.21205 0
M  V30 2169 C 411.298 3.73047 5.97036 0
M  V30 2170 C 410.588 2.58828 5.25741 0
M  V30 2171 N 410.638 2.68068 3.77503 0
M  V30 2172 C 410.558 3.79715 2.96723 0
M  V30 2173 N 410.638 3.5377 1.68852 0
M  V30 2174 C 410.778 2.15054 1.63254 0
M  V30 2175 C 410.908 1.28964 0.518571 0
M  V30 2176 O 410.928 1.56826 -0.679156 0
M  V30 2177 N 411.028 -0.0538097 0.918425 0
M  V30 2178 C 411.028 -0.494275 2.22578 0
M  V30 2179 N 411.158 -1.81086 2.40434 0
M  V30 2180 N 410.898 0.313645 3.27502 0
M  V30 2181 C 410.778 1.61829 2.91033 0
M  V30 2182 H 407.799 5.40332 6.79951 0
M  V30 2183 H 407.529 4.41613 5.32378 0
M  V30 2184 H 408.396 3.26331 7.47797 0
M  V30 2185 H 411.051 1.63422 5.56814 0
M  V30 2186 H 411.33 4.63374 5.34244 0
M  V30 2187 H 412.322 3.44728 6.25838 0
M  V30 2188 H 410.488 4.96652 7.57263 0
M  V30 2189 H 410.439 4.80617 3.3614 0
M  V30 2190 H 411.121 -0.742702 0.199384 0
M  V30 2191 H 411.158 -2.20598 3.35588 0
M  V30 2192 H 411.259 -2.43518 1.58945 0
M  V30 2193 P 412.358 2.75334 8.47391 0
M  V30 2194 O 412.578 2.44571 9.90142 0
M  V30 2195 O 413.148 3.87688 7.92115 0
M  V30 2196 O 412.608 1.4459 7.59357 0
M  V30 2197 C 411.668 0.347608 7.69215 0
M  V30 2198 C 412.398 -0.96767 7.52806 0
M  V30 2199 O 412.608 -1.21036 6.1011 0
M  V30 2200 C 413.798 -1.04544 8.13308 0
M  V30 2201 O 414.188 -2.38311 8.41922 0
M  V30 2202 C 414.678 -0.491279 7.02284 0
M  V30 2203 C 413.968 -0.996264 5.77469 0
M  V30 2204 N 414.018 -0.0501916 4.62973 0
M  V30 2205 H 411.179 0.374722 8.67691 0
M  V30 2206 H 410.909 0.443485 6.90277 0
M  V30 2207 H 411.776 -1.75537 7.96793 0
M  V30 2208 P 415.738 -2.75334 8.47391 0
M  V30 2209 O 415.958 -3.84128 9.44797 0
M  V30 2210 O 416.528 -1.51947 8.68712 0
M  V30 2211 O 415.988 -3.29363 6.99321 0
M  V30 2212 C 415.048 -4.24011 6.4274 0
M  V30 2213 C 415.778 -5.20775 5.52155 0
M  V30 2214 O 415.988 -4.56534 4.22446 0
M  V30 2215 C 417.178 -5.62629 5.96531 0
M  V30 2216 O 417.568 -6.87667 5.41053 0
M  V30 2217 C 418.058 -4.52537 5.39283 0
M  V30 2218 C 417.348 -4.20027 4.08623 0
M  V30 2219 N 417.398 -2.76189 3.71603 0
M  V30 2220 C 417.318 -1.64862 4.52822 0
M  V30 2221 N 417.398 -0.512671 3.88633 0
M  V30 2222 C 417.538 -0.888083 2.54977 0
M  V30 2223 C 417.668 -0.094668 1.38677 0
M  V30 2224 O 417.688 1.13053 1.28163 0
M  V30 2225 N 417.788 -0.890102 0.232633 0
M  V30 2226 C 417.788 -2.26958 0.21772 0
M  V30 2227 N 417.918 -2.84626 -0.97925 0
M  V30 2228 N 417.658 -3.0178 1.31033 0
M  V30 2229 C 417.538 -2.26781 2.43843 0
M  V30 2230 H 414.559 -4.797 7.24003 0
M  V30 2231 H 414.289 -3.69856 5.84513 0
M  V30 2232 H 415.156 -6.10356 5.41441 0
M  V30 2233 H 417.811 -4.79061 3.27488 0
M  V30 2234 H 418.09 -3.64906 6.05785 0
M  V30 2235 H 419.082 -4.8868 5.2125 0
M  V30 2236 H 417.248 -5.66726 7.06352 0
M  V30 2237 H 417.199 -1.71169 5.60966 0
M  V30 2238 H 417.881 -0.419134 -0.644739 0
M  V30 2239 H 417.918 -3.87332 -1.06098 0
M  V30 2240 H 418.019 -2.26417 -1.82483 0
M  V30 2241 P 419.118 -7.20834 5.23717 0
M  V30 2242 O 419.338 -8.66104 5.38572 0
M  V30 2243 O 419.908 -6.33544 6.1349 0
M  V30 2244 O 419.368 -6.7751 3.72168 0
M  V30 2245 C 418.428 -7.20825 2.7076 0
M  V30 2246 C 419.158 -7.45864 1.40599 0
M  V30 2247 O 419.368 -6.17651 0.734225 0
M  V30 2248 C 420.558 -8.05808 1.51899 0
M  V30 2249 O 420.948 -8.74358 0.335205 0
M  V30 2250 C 421.438 -6.83093 1.70294 0
M  V30 2251 C 420.728 -5.79992 0.836974 0
M  V30 2252 N 420.778 -4.41864 1.38293 0
M  V30 2253 H 417.939 -8.13644 3.0377 0
M  V30 2254 H 417.669 -6.42788 2.55485 0
M  V30 2255 H 418.536 -8.12039 0.792769 0
M  V30 2256 P 422.497 -8.91 -2.28351e-12 0
M  V30 2257 O 422.717 -10.1726 -0.733694 0
M  V30 2258 O 423.287 -8.73148 1.23936 0
M  V30 2259 O 422.747 -7.66872 -0.971405 0
M  V30 2260 C 421.807 -7.42309 -2.04641 0
M  V30 2261 C 422.537 -6.86059 -3.24661 0
M  V30 2262 O 422.747 -5.42847 -3.03646 0
M  V30 2263 C 423.937 -7.41196 -3.50753 0
M  V30 2264 O 424.327 -7.27073 -4.86816 0
M  V30 2265 C 424.817 -6.5273 -2.63741 0
M  V30 2266 C 424.107 -5.1842 -2.73198 0
M  V30 2267 N 424.157 -4.38762 -1.4784 0
M  V30 2268 H 421.318 -8.36803 -2.32493 0
M  V30 2269 H 421.048 -6.70197 -1.71129 0
M  V30 2270 H 421.915 -7.03551 -4.13168 0
M  V30 2271 P 425.877 -7.20834 -5.23717 0
M  V30 2272 O 426.097 -7.79853 -6.57286 0
M  V30 2273 O 426.667 -7.79239 -4.12957 0
M  V30 2274 O 426.127 -5.63315 -5.29344 0
M  V30 2275 C 425.187 -4.80255 -6.01876 0
M  V30 2276 C 425.917 -3.64202 -6.65911 0
M  V30 2277 O 426.127 -2.60694 -5.64732 0
M  V30 2278 C 427.317 -3.93473 -7.1943 0
M  V30 2279 O 427.707 -3.02071 -8.21205 0
M  V30 2280 C 428.197 -3.73047 -5.97036 0
M  V30 2281 C 427.487 -2.58828 -5.25741 0
M  V30 2282 N 427.537 -2.68068 -3.77503 0
M  V30 2283 H 424.698 -5.40332 -6.79951 0
M  V30 2284 H 424.428 -4.41613 -5.32378 0
M  V30 2285 H 425.295 -3.26331 -7.47797 0
M  V30 2286 P 429.257 -2.75334 -8.47391 0
M  V30 2287 O 429.477 -2.44571 -9.90142 0
M  V30 2288 O 430.047 -3.87688 -7.92115 0
M  V30 2289 O 429.507 -1.4459 -7.59357 0
M  V30 2290 C 428.567 -0.347608 -7.69215 0
M  V30 2291 C 429.297 0.96767 -7.52806 0
M  V30 2292 O 429.507 1.21036 -6.1011 0
M  V30 2293 C 430.697 1.04544 -8.13308 0
M  V30 2294 O 431.087 2.38311 -8.41922 0
M  V30 2295 C 431.577 0.491279 -7.02284 0
M  V30 2296 C 430.867 0.996264 -5.77469 0
M  V30 2297 N 430.917 0.0501916 -4.62973 0
M  V30 2298 H 428.078 -0.374722 -8.67691 0
M  V30 2299 H 427.808 -0.443485 -6.90277 0
M  V30 2300 H 428.675 1.75537 -7.96793 0
M  V30 2301 P 432.637 2.75334 -8.47391 0
M  V30 2302 O 432.857 3.84128 -9.44797 0
M  V30 2303 O 433.427 1.51947 -8.68712 0
M  V30 2304 O 432.887 3.29363 -6.99321 0
M  V30 2305 C 431.947 4.24011 -6.4274 0
M  V30 2306 C 432.677 5.20775 -5.52155 0
M  V30 2307 O 432.887 4.56534 -4.22446 0
M  V30 2308 C 434.077 5.62629 -5.96531 0
M  V30 2309 O 434.467 6.87667 -5.41053 0
M  V30 2310 C 434.957 4.52537 -5.39283 0
M  V30 2311 C 434.247 4.20027 -4.08623 0
M  V30 2312 N 434.297 2.76189 -3.71603 0
M  V30 2313 H 431.458 4.797 -7.24003 0
M  V30 2314 H 431.188 3.69856 -5.84513 0
M  V30 2315 H 432.055 6.10356 -5.41441 0
M  V30 2316 P 436.017 7.20834 -5.23717 0
M  V30 2317 O 436.237 8.66274 -5.38678 0
M  V30 2318 O 436.807 6.33687 -6.13629 0
M  V30 2319 O 436.267 6.7751 -3.72168 0
M  V30 2320 C 435.327 7.20919 -2.70795 0
M  V30 2321 C 436.057 7.45864 -1.40599 0
M  V30 2322 O 436.267 6.17751 -0.734343 0
M  V30 2323 C 437.457 8.05906 -1.51917 0
M  V30 2324 O 437.847 8.74358 -0.335205 0
M  V30 2325 C 438.337 6.83093 -1.70294 0
M  V30 2326 C 437.627 5.79992 -0.836974 0
M  V30 2327 N 437.677 4.41864 -1.38293 0
M  V30 2328 H 434.839 8.13738 -3.03804 0
M  V30 2329 H 434.567 6.42974 -2.55559 0
M  V30 2330 H 435.435 8.12139 -0.792866 0
M  V30 2331 H 438.09 5.80178 0.160643 0
M  V30 2332 H 438.37 6.51379 -2.75643 0
M  V30 2333 H 439.361 7.01832 -1.3448 0
M  V30 2334 H 437.527 8.73771 -2.38364 0
M  V30 2335 P 439.397 8.91 2.44069e-12 0
M  V30 2336 O 439.617 10.1726 0.733694 0
M  V30 2337 O 440.187 8.73148 -1.23936 0
M  V30 2338 O 439.647 7.66872 0.971405 0
M  V30 2339 C 438.707 7.42309 2.04641 0
M  V30 2340 C 439.437 6.86059 3.24661 0
M  V30 2341 O 439.647 5.42847 3.03646 0
M  V30 2342 C 440.837 7.41196 3.50753 0
M  V30 2343 O 441.227 7.27073 4.86816 0
M  V30 2344 C 441.717 6.5273 2.63741 0
M  V30 2345 C 441.007 5.1842 2.73198 0
M  V30 2346 N 441.057 4.38762 1.4784 0
M  V30 2347 H 438.218 8.36803 2.32493 0
M  V30 2348 H 437.948 6.70197 1.71129 0
M  V30 2349 H 438.815 7.03551 4.13168 0
M  V30 2350 P 442.777 7.20834 5.23717 0
M  V30 2351 O 442.997 7.79853 6.57286 0
M  V30 2352 O 443.567 7.79239 4.12957 0
M  V30 2353 O 443.027 5.63315 5.29344 0
M  V30 2354 C 442.087 4.80255 6.01876 0
M  V30 2355 C 442.817 3.64202 6.65911 0
M  V30 2356 O 443.027 2.60694 5.64732 0
M  V30 2357 C 444.217 3.93473 7.1943 0
M  V30 2358 O 444.607 3.02071 8.21205 0
M  V30 2359 C 445.097 3.73047 5.97036 0
M  V30 2360 C 444.387 2.58828 5.25741 0
M  V30 2361 N 444.437 2.68068 3.77503 0
M  V30 2362 H 441.598 5.40332 6.79951 0
M  V30 2363 H 441.328 4.41613 5.32378 0
M  V30 2364 H 442.195 3.26331 7.47797 0
M  V30 2365 P 446.157 2.75334 8.47391 0
M  V30 2366 O 446.377 2.44571 9.90142 0
M  V30 2367 O 446.947 3.87688 7.92115 0
M  V30 2368 O 446.407 1.4459 7.59357 0
M  V30 2369 C 445.467 0.347608 7.69215 0
M  V30 2370 C 446.197 -0.96767 7.52806 0
M  V30 2371 O 446.407 -1.21036 6.1011 0
M  V30 2372 C 447.597 -1.04544 8.13308 0
M  V30 2373 O 447.987 -2.38311 8.41922 0
M  V30 2374 C 448.477 -0.491279 7.02284 0
M  V30 2375 C 447.767 -0.996264 5.77469 0
M  V30 2376 N 447.817 -0.0501916 4.62973 0
M  V30 2377 H 444.978 0.374722 8.67691 0
M  V30 2378 H 444.708 0.443485 6.90277 0
M  V30 2379 H 445.575 -1.75537 7.96793 0
M  V30 2380 P 449.537 -2.75334 8.47391 0
M  V30 2381 O 449.757 -3.84128 9.44797 0
M  V30 2382 O 450.327 -1.51947 8.68712 0
M  V30 2383 O 449.787 -3.29363 6.99321 0
M  V30 2384 C 448.847 -4.24011 6.4274 0
M  V30 2385 C 449.577 -5.20775 5.52155 0
M  V30 2386 O 449.787 -4.56534 4.22446 0
M  V30 2387 C 450.977 -5.62629 5.96531 0
M  V30 2388 O 451.367 -6.87667 5.41053 0
M  V30 2389 C 451.857 -4.52537 5.39283 0
M  V30 2390 C 451.147 -4.20027 4.08623 0
M  V30 2391 N 451.197 -2.76189 3.71603 0
M  V30 2392 H 448.358 -4.797 7.24003 0
M  V30 2393 H 448.088 -3.69856 5.84513 0
M  V30 2394 H 448.955 -6.10356 5.41441 0
M  V30 2395 P 452.917 -7.20834 5.23717 0
M  V30 2396 O 453.137 -8.66274 5.38678 0
M  V30 2397 O 453.707 -6.33687 6.13629 0
M  V30 2398 O 453.167 -6.7751 3.72168 0
M  V30 2399 C 452.227 -7.20919 2.70795 0
M  V30 2400 C 452.957 -7.45864 1.40599 0
M  V30 2401 O 453.167 -6.17751 0.734343 0
M  V30 2402 C 454.357 -8.05906 1.51917 0
M  V30 2403 O 454.747 -8.74358 0.335205 0
M  V30 2404 C 455.237 -6.83093 1.70294 0
M  V30 2405 C 454.527 -5.79992 0.836974 0
M  V30 2406 N 454.577 -4.41864 1.38293 0
M  V30 2407 H 451.739 -8.13738 3.03804 0
M  V30 2408 H 451.467 -6.42974 2.55559 0
M  V30 2409 H 452.335 -8.12139 0.792866 0
M  V30 2410 H 454.99 -5.80178 -0.160643 0
M  V30 2411 H 455.27 -6.51379 2.75643 0
M  V30 2412 H 456.261 -7.01832 1.3448 0
M  V30 2413 H 454.427 -8.73771 2.38364 0
M  V30 2414 P 456.297 -8.91 -2.59788e-12 0
M  V30 2415 O 456.517 -10.1736 -0.733766 0
M  V30 2416 O 457.087 -8.73247 1.2395 0
M  V30 2417 O 456.547 -7.66872 -0.971405 0
M  V30 2418 C 455.607 -7.42212 -2.04614 0
M  V30 2419 C 456.337 -6.86059 -3.24661 0
M  V30 2420 O 456.547 -5.42847 -3.03646 0
M  V30 2421 C 457.737 -7.41196 -3.50753 0
M  V30 2422 O 458.127 -7.27073 -4.86816 0
M  V30 2423 C 458.617 -6.5273 -2.63741 0
M  V30 2424 C 457.907 -5.1842 -2.73198 0
M  V30 2425 N 457.957 -4.38668 -1.47808 0
M  V30 2426 C 458.107 -3.02239 -1.60048 0
M  V30 2427 O 458.197 -2.46459 -2.67869 0
M  V30 2428 N 458.147 -2.32436 -0.408571 0
M  V30 2429 C 458.057 -2.85471 0.854993 0
M  V30 2430 C 457.907 -4.28918 0.887335 0
M  V30 2431 C 457.857 -5.00349 -0.255399 0
M  V30 2432 H 455.117 -8.36803 -2.32493 0
M  V30 2433 H 454.848 -6.701 -1.71105 0
M  V30 2434 H 455.715 -7.03551 -4.13168 0
M  V30 2435 H 458.37 -4.59773 -3.53894 0
M  V30 2436 H 458.649 -6.88995 -1.59871 0
M  V30 2437 H 459.641 -6.46749 -3.03687 0
M  V30 2438 H 457.807 -8.46908 -3.20714 0
M  V30 2439 H 457.736 -6.08548 -0.206986 0
M  V30 2440 P 459.677 -7.20834 -5.23717 0
M  V30 2441 O 459.897 -7.79853 -6.57286 0
M  V30 2442 O 460.467 -7.79239 -4.12957 0
M  V30 2443 O 459.927 -5.63315 -5.29344 0
M  V30 2444 C 458.987 -4.80255 -6.01876 0
M  V30 2445 C 459.717 -3.64202 -6.65911 0
M  V30 2446 O 459.927 -2.60694 -5.64732 0
M  V30 2447 C 461.117 -3.93473 -7.1943 0
M  V30 2448 O 461.507 -3.02071 -8.21205 0
M  V30 2449 C 461.997 -3.73047 -5.97036 0
M  V30 2450 C 461.287 -2.58828 -5.25741 0
M  V30 2451 N 461.337 -2.68068 -3.77503 0
M  V30 2452 H 458.498 -5.40332 -6.79951 0
M  V30 2453 H 458.228 -4.41613 -5.32378 0
M  V30 2454 H 459.095 -3.26331 -7.47797 0
M  V30 2455 P 463.057 -2.75334 -8.47391 0
M  V30 2456 O 463.277 -2.44571 -9.90142 0
M  V30 2457 O 463.847 -3.87688 -7.92115 0
M  V30 2458 O 463.307 -1.4459 -7.59357 0
M  V30 2459 C 462.367 -0.347608 -7.69215 0
M  V30 2460 C 463.097 0.96767 -7.52806 0
M  V30 2461 O 463.307 1.21036 -6.1011 0
M  V30 2462 C 464.497 1.04544 -8.13308 0
M  V30 2463 O 464.887 2.38311 -8.41922 0
M  V30 2464 C 465.377 0.491279 -7.02284 0
M  V30 2465 C 464.667 0.996264 -5.77469 0
M  V30 2466 N 464.717 0.0501916 -4.62973 0
M  V30 2467 H 461.878 -0.374722 -8.67691 0
M  V30 2468 H 461.608 -0.443485 -6.90277 0
M  V30 2469 H 462.475 1.75537 -7.96793 0
M  V30 2470 P 466.437 2.75334 -8.47391 0
M  V30 2471 O 466.657 3.84204 -9.44982 0
M  V30 2472 O 467.227 1.51982 -8.68909 0
M  V30 2473 O 466.687 3.29363 -6.99321 0
M  V30 2474 C 465.747 4.24066 -6.42823 0
M  V30 2475 C 466.477 5.20775 -5.52155 0
M  V30 2476 O 466.687 4.56607 -4.22514 0
M  V30 2477 C 467.877 5.62697 -5.96604 0
M  V30 2478 O 468.267 6.87667 -5.41053 0
M  V30 2479 C 468.757 4.52537 -5.39283 0
M  V30 2480 C 468.047 4.20027 -4.08623 0
M  V30 2481 N 468.097 2.76189 -3.71603 0
M  V30 2482 C 468.017 1.66944 -4.54297 0
M  V30 2483 N 468.087 0.536169 -3.91344 0
M  V30 2484 C 468.237 0.901569 -2.58849 0
M  V30 2485 C 468.367 0.146599 -1.40236 0
M  V30 2486 N 468.377 -1.18234 -1.37046 0
M  V30 2487 N 468.487 0.822941 -0.249738 0
M  V30 2488 C 468.477 2.15179 -0.280525 0
M  V30 2489 N 468.357 2.96414 -1.30822 0
M  V30 2490 C 468.237 2.25804 -2.44748 0
M  V30 2491 H 465.259 4.79756 -7.24086 0
M  V30 2492 H 464.987 3.69963 -5.84682 0
M  V30 2493 H 465.855 6.10431 -5.41508 0
M  V30 2494 H 468.51 4.78816 -3.28024 0
M  V30 2495 H 468.79 3.64957 -6.05871 0
M  V30 2496 H 469.781 4.88748 -5.21323 0
M  V30 2497 H 467.947 5.66789 -7.0643 0
M  V30 2498 H 467.906 1.74684 -5.62396 0
M  V30 2499 H 468.287 -1.71949 -2.24394 0
M  V30 2500 H 468.476 -1.67511 -0.470742 0
M  V30 2501 H 468.584 2.63704 0.6828 0
M  V30 2502 P 469.817 7.20834 -5.23717 0
M  V30 2503 O 470.037 8.66104 -5.38572 0
M  V30 2504 O 470.607 6.33544 -6.1349 0
M  V30 2505 O 470.067 6.7751 -3.72168 0
M  V30 2506 C 469.127 7.20825 -2.7076 0
M  V30 2507 C 469.857 7.45864 -1.40599 0
M  V30 2508 O 470.067 6.17651 -0.734225 0
M  V30 2509 C 471.257 8.05808 -1.51899 0
M  V30 2510 O 471.647 8.74358 -0.335205 0
M  V30 2511 C 472.137 6.83093 -1.70294 0
M  V30 2512 C 471.427 5.79992 -0.836974 0
M  V30 2513 N 471.477 4.41864 -1.38293 0
M  V30 2514 H 468.638 8.13644 -3.0377 0
M  V30 2515 H 468.368 6.42788 -2.55485 0
M  V30 2516 H 469.235 8.12039 -0.792769 0
M  V30 2517 P 473.197 8.91 2.75506e-12 0
M  V30 2518 O 473.417 10.1726 0.733694 0
M  V30 2519 O 473.987 8.73148 -1.23936 0
M  V30 2520 O 473.447 7.66872 0.971405 0
M  V30 2521 C 472.507 7.42309 2.04641 0
M  V30 2522 C 473.237 6.86059 3.24661 0
M  V30 2523 O 473.447 5.42847 3.03646 0
M  V30 2524 C 474.637 7.41196 3.50753 0
M  V30 2525 O 475.027 7.27073 4.86816 0
M  V30 2526 C 475.517 6.5273 2.63741 0
M  V30 2527 C 474.807 5.1842 2.73198 0
M  V30 2528 N 474.857 4.38762 1.4784 0
M  V30 2529 H 472.018 8.36803 2.32493 0
M  V30 2530 H 471.748 6.70197 1.71129 0
M  V30 2531 H 472.615 7.03551 4.13168 0
M  V30 2532 P 476.577 7.20834 5.23717 0
M  V30 2533 O 476.797 7.79853 6.57286 0
M  V30 2534 O 477.367 7.79239 4.12957 0
M  V30 2535 O 476.827 5.63315 5.29344 0
M  V30 2536 C 475.887 4.80255 6.01876 0
M  V30 2537 C 476.617 3.64202 6.65911 0
M  V30 2538 O 476.827 2.60694 5.64732 0
M  V30 2539 C 478.017 3.93473 7.1943 0
M  V30 2540 O 478.407 3.02071 8.21205 0
M  V30 2541 C 478.897 3.73047 5.97036 0
M  V30 2542 C 478.187 2.58828 5.25741 0
M  V30 2543 N 478.237 2.68068 3.77503 0
M  V30 2544 H 475.398 5.40332 6.79951 0
M  V30 2545 H 475.128 4.41613 5.32378 0
M  V30 2546 H 475.995 3.26331 7.47797 0
M  V30 2547 P 479.957 2.75334 8.47391 0
M  V30 2548 O 480.177 2.44571 9.90142 0
M  V30 2549 O 480.747 3.87688 7.92115 0
M  V30 2550 O 480.207 1.4459 7.59357 0
M  V30 2551 C 479.267 0.347608 7.69215 0
M  V30 2552 C 479.997 -0.96767 7.52806 0
M  V30 2553 O 480.207 -1.21036 6.1011 0
M  V30 2554 C 481.397 -1.04544 8.13308 0
M  V30 2555 O 481.787 -2.38311 8.41922 0
M  V30 2556 C 482.277 -0.491279 7.02284 0
M  V30 2557 C 481.567 -0.996264 5.77469 0
M  V30 2558 N 481.617 -0.0501916 4.62973 0
M  V30 2559 C 481.537 1.32786 4.63244 0
M  V30 2560 N 481.617 1.86957 3.44545 0
M  V30 2561 C 481.757 0.780241 2.58481 0
M  V30 2562 C 481.887 0.738536 1.17757 0
M  V30 2563 O 481.907 1.66794 0.372349 0
M  V30 2564 N 482.007 -0.58337 0.711393 0
M  V30 2565 C 482.007 -1.70816 1.51017 0
M  V30 2566 N 482.137 -2.87826 0.880757 0
M  V30 2567 N 481.877 -1.67126 2.8339 0
M  V30 2568 C 481.757 -0.401421 3.30572 0
M  V30 2569 H 478.778 0.374722 8.67691 0
M  V30 2570 H 478.508 0.443485 6.90277 0
M  V30 2571 H 479.375 -1.75537 7.96793 0
M  V30 2572 H 482.03 -1.95076 5.46529 0
M  V30 2573 H 482.309 0.608565 7.04577 0
M  V30 2574 H 483.301 -0.889672 7.08939 0
M  V30 2575 H 481.467 -0.43308 9.04564 0
M  V30 2576 H 481.418 1.91249 5.54442 0
M  V30 2577 H 482.1 -0.718054 -0.275244 0
M  V30 2578 H 482.137 -3.75721 1.41832 0
M  V30 2579 H 482.238 -2.90436 -0.145468 0
M  V30 2580 P 483.337 -2.75334 8.47391 0
M  V30 2581 O 483.557 -3.84128 9.44797 0
M  V30 2582 O 484.127 -1.51947 8.68712 0
M  V30 2583 O 483.587 -3.29363 6.99321 0
M  V30 2584 C 482.647 -4.24011 6.4274 0
M  V30 2585 C 483.377 -5.20775 5.52155 0
M  V30 2586 O 483.587 -4.56534 4.22446 0
M  V30 2587 C 484.777 -5.62629 5.96531 0
M  V30 2588 O 485.167 -6.87667 5.41053 0
M  V30 2589 C 485.657 -4.52537 5.39283 0
M  V30 2590 C 484.947 -4.20027 4.08623 0
M  V30 2591 N 484.997 -2.76189 3.71603 0
M  V30 2592 H 482.158 -4.797 7.24003 0
M  V30 2593 H 481.888 -3.69856 5.84513 0
M  V30 2594 H 482.755 -6.10356 5.41441 0
M  V30 2595 P 486.717 -7.20834 5.23717 0
M  V30 2596 O 486.937 -8.66104 5.38572 0
M  V30 2597 O 487.507 -6.33544 6.1349 0
M  V30 2598 O 486.967 -6.7751 3.72168 0
M  V30 2599 C 486.027 -7.20825 2.7076 0
M  V30 2600 C 486.757 -7.45864 1.40599 0
M  V30 2601 O 486.967 -6.17651 0.734225 0
M  V30 2602 C 488.157 -8.05808 1.51899 0
M  V30 2603 O 488.547 -8.74358 0.335205 0
M  V30 2604 C 489.037 -6.83093 1.70294 0
M  V30 2605 C 488.327 -5.79992 0.836974 0
M  V30 2606 N 488.377 -4.41864 1.38293 0
M  V30 2607 H 485.538 -8.13644 3.0377 0
M  V30 2608 H 485.268 -6.42788 2.55485 0
M  V30 2609 H 486.135 -8.12039 0.792769 0
M  V30 2610 P 490.097 -8.91 -2.91224e-12 0
M  V30 2611 O 490.317 -10.1726 -0.733694 0
M  V30 2612 O 490.887 -8.73148 1.23936 0
M  V30 2613 O 490.347 -7.66872 -0.971405 0
M  V30 2614 C 489.407 -7.42309 -2.04641 0
M  V30 2615 C 490.137 -6.86059 -3.24661 0
M  V30 2616 O 490.347 -5.42847 -3.03646 0
M  V30 2617 C 491.537 -7.41196 -3.50753 0
M  V30 2618 O 491.927 -7.27073 -4.86816 0
M  V30 2619 C 492.417 -6.5273 -2.63741 0
M  V30 2620 C 491.707 -5.1842 -2.73198 0
M  V30 2621 N 491.757 -4.38762 -1.4784 0
M  V30 2622 H 488.918 -8.36803 -2.32493 0
M  V30 2623 H 488.648 -6.70197 -1.71129 0
M  V30 2624 H 489.515 -7.03551 -4.13168 0
M  V30 2625 P 493.477 -7.20834 -5.23717 0
M  V30 2626 O 493.697 -7.7993 -6.57351 0
M  V30 2627 O 494.267 -7.79328 -4.13004 0
M  V30 2628 O 493.727 -5.63315 -5.29344 0
M  V30 2629 C 492.787 -4.80193 -6.01798 0
M  V30 2630 C 493.517 -3.64202 -6.65911 0
M  V30 2631 O 493.727 -2.60694 -5.64732 0
M  V30 2632 C 494.917 -3.93473 -7.1943 0
M  V30 2633 O 495.307 -3.02071 -8.21205 0
M  V30 2634 C 495.797 -3.73047 -5.97036 0
M  V30 2635 C 495.087 -2.58828 -5.25741 0
M  V30 2636 N 495.137 -2.6801 -3.77422 0
M  V30 2637 C 495.287 -1.50443 -3.07133 0
M  V30 2638 O 495.377 -0.419406 -3.61576 0
M  V30 2639 N 495.327 -1.6403 -1.69677 0
M  V30 2640 C 495.237 -2.81206 -0.986255 0
M  V30 2641 O 495.287 -2.80892 0.249754 0
M  V30 2642 C 495.087 -3.99158 -1.80325 0
M  V30 2643 C 494.977 -5.29309 -1.06921 0
M  V30 2644 C 495.037 -3.89779 -3.1476 0
M  V30 2645 H 492.297 -5.40332 -6.79951 0
M  V30 2646 H 492.028 -4.41549 -5.32301 0
M  V30 2647 H 492.895 -3.26331 -7.47797 0
M  V30 2648 H 495.55 -1.6395 -5.56554 0
M  V30 2649 H 495.829 -4.63439 -5.3432 0
M  V30 2650 H 496.821 -3.44728 -6.25838 0
M  V30 2651 H 494.987 -4.96652 -7.57263 0
M  V30 2652 H 494.916 -4.80159 -3.74441 0
M  V30 2653 H 495.946 -5.81459 -1.09608 0
M  V30 2654 H 494.209 -5.9187 -1.54487 0
M  V30 2655 H 494.697 -5.10095 -0.0220288 0
M  V30 2656 H 495.433 -0.798962 -1.16664 0
M  V30 2657 P 496.857 -2.75334 -8.47391 0
M  V30 2658 O 497.077 -2.44571 -9.90142 0
M  V30 2659 O 497.647 -3.87688 -7.92115 0
M  V30 2660 O 497.107 -1.4459 -7.59357 0
M  V30 2661 C 496.167 -0.347608 -7.69215 0
M  V30 2662 C 496.897 0.96767 -7.52806 0
M  V30 2663 O 497.107 1.21036 -6.1011 0
M  V30 2664 C 498.297 1.04544 -8.13308 0
M  V30 2665 O 498.687 2.38311 -8.41922 0
M  V30 2666 C 499.177 0.491279 -7.02284 0
M  V30 2667 C 498.467 0.996264 -5.77469 0
M  V30 2668 N 498.517 0.0501916 -4.62973 0
M  V30 2669 H 495.678 -0.374722 -8.67691 0
M  V30 2670 H 495.408 -0.443485 -6.90277 0
M  V30 2671 H 496.275 1.75537 -7.96793 0
M  V30 2672 P 500.237 2.75334 -8.47391 0
M  V30 2673 O 500.457 3.84128 -9.44797 0
M  V30 2674 O 501.027 1.51947 -8.68712 0
M  V30 2675 O 500.487 3.29363 -6.99321 0
M  V30 2676 C 499.547 4.24011 -6.4274 0
M  V30 2677 C 500.277 5.20775 -5.52155 0
M  V30 2678 O 500.487 4.56534 -4.22446 0
M  V30 2679 C 501.677 5.62629 -5.96531 0
M  V30 2680 O 502.067 6.87667 -5.41053 0
M  V30 2681 C 502.557 4.52537 -5.39283 0
M  V30 2682 C 501.847 4.20027 -4.08623 0
M  V30 2683 N 501.897 2.76189 -3.71603 0
M  V30 2684 H 499.058 4.797 -7.24003 0
M  V30 2685 H 498.788 3.69856 -5.84513 0
M  V30 2686 H 499.655 6.10356 -5.41441 0
M  V30 2687 P 503.617 7.20834 -5.23717 0
M  V30 2688 O 503.837 8.66104 -5.38572 0
M  V30 2689 O 504.407 6.33544 -6.1349 0
M  V30 2690 O 503.867 6.7751 -3.72168 0
M  V30 2691 C 502.927 7.20825 -2.7076 0
M  V30 2692 C 503.657 7.45864 -1.40599 0
M  V30 2693 O 503.867 6.17651 -0.734225 0
M  V30 2694 C 505.057 8.05808 -1.51899 0
M  V30 2695 O 505.447 8.74358 -0.335205 0
M  V30 2696 C 505.937 6.83093 -1.70294 0
M  V30 2697 C 505.227 5.79992 -0.836974 0
M  V30 2698 N 505.277 4.41864 -1.38293 0
M  V30 2699 H 502.438 8.13644 -3.0377 0
M  V30 2700 H 502.168 6.42788 -2.55485 0
M  V30 2701 H 503.035 8.12039 -0.792769 0
M  V30 2702 P 506.997 8.91 3.06942e-12 0
M  V30 2703 O 507.217 10.1736 0.733766 0
M  V30 2704 O 507.787 8.73247 -1.2395 0
M  V30 2705 O 507.247 7.66872 0.971405 0
M  V30 2706 C 506.307 7.42212 2.04614 0
M  V30 2707 C 507.037 6.86059 3.24661 0
M  V30 2708 O 507.247 5.42847 3.03646 0
M  V30 2709 C 508.437 7.41196 3.50753 0
M  V30 2710 O 508.827 7.27073 4.86816 0
M  V30 2711 C 509.317 6.5273 2.63741 0
M  V30 2712 C 508.607 5.1842 2.73198 0
M  V30 2713 N 508.657 4.38668 1.47808 0
M  V30 2714 C 508.807 3.02239 1.60048 0
M  V30 2715 O 508.897 2.46459 2.67869 0
M  V30 2716 N 508.847 2.32436 0.408571 0
M  V30 2717 C 508.757 2.85471 -0.854993 0
M  V30 2718 C 508.607 4.28918 -0.887335 0
M  V30 2719 C 508.557 5.00349 0.255399 0
M  V30 2720 H 505.817 8.36803 2.32493 0
M  V30 2721 H 505.548 6.701 1.71105 0
M  V30 2722 H 506.415 7.03551 4.13168 0
M  V30 2723 H 509.07 4.59773 3.53894 0
M  V30 2724 H 509.349 6.88995 1.59871 0
M  V30 2725 H 510.341 6.46749 3.03687 0
M  V30 2726 H 508.507 8.46908 3.20714 0
M  V30 2727 H 508.436 6.08548 0.206986 0
M  V30 2728 P 510.377 7.20834 5.23717 0
M  V30 2729 O 510.597 7.79853 6.57286 0
M  V30 2730 O 511.167 7.79239 4.12957 0
M  V30 2731 O 510.627 5.63315 5.29344 0
M  V30 2732 C 509.687 4.80255 6.01876 0
M  V30 2733 C 510.417 3.64202 6.65911 0
M  V30 2734 O 510.627 2.60694 5.64732 0
M  V30 2735 C 511.817 3.93473 7.1943 0
M  V30 2736 O 512.207 3.02071 8.21205 0
M  V30 2737 C 512.697 3.73047 5.97036 0
M  V30 2738 C 511.987 2.58828 5.25741 0
M  V30 2739 N 512.037 2.68068 3.77503 0
M  V30 2740 H 509.198 5.40332 6.79951 0
M  V30 2741 H 508.928 4.41613 5.32378 0
M  V30 2742 H 509.795 3.26331 7.47797 0
M  V30 2743 P 513.757 2.75334 8.47391 0
M  V30 2744 O 513.977 2.44571 9.90142 0
M  V30 2745 O 514.547 3.87688 7.92115 0
M  V30 2746 O 514.007 1.4459 7.59357 0
M  V30 2747 C 513.067 0.347608 7.69215 0
M  V30 2748 C 513.797 -0.96767 7.52806 0
M  V30 2749 O 514.007 -1.21036 6.1011 0
M  V30 2750 C 515.197 -1.04544 8.13308 0
M  V30 2751 O 515.587 -2.38311 8.41922 0
M  V30 2752 C 516.077 -0.491279 7.02284 0
M  V30 2753 C 515.367 -0.996264 5.77469 0
M  V30 2754 N 515.417 -0.0501916 4.62973 0
M  V30 2755 H 512.578 0.374722 8.67691 0
M  V30 2756 H 512.308 0.443485 6.90277 0
M  V30 2757 H 513.175 -1.75537 7.96793 0
M  V30 2758 P 517.137 -2.75334 8.47391 0
M  V30 2759 O 517.357 -3.84128 9.44797 0
M  V30 2760 O 517.927 -1.51947 8.68712 0
M  V30 2761 O 517.387 -3.29363 6.99321 0
M  V30 2762 C 516.447 -4.24011 6.4274 0
M  V30 2763 C 517.177 -5.20775 5.52155 0
M  V30 2764 O 517.387 -4.56534 4.22446 0
M  V30 2765 C 518.577 -5.62629 5.96531 0
M  V30 2766 O 518.967 -6.87667 5.41053 0
M  V30 2767 C 519.457 -4.52537 5.39283 0
M  V30 2768 C 518.747 -4.20027 4.08623 0
M  V30 2769 N 518.797 -2.76189 3.71603 0
M  V30 2770 H 515.958 -4.797 7.24003 0
M  V30 2771 H 515.688 -3.69856 5.84513 0
M  V30 2772 H 516.555 -6.10356 5.41441 0
M  V30 2773 P 520.517 -7.20834 5.23717 0
M  V30 2774 O 520.737 -8.66104 5.38572 0
M  V30 2775 O 521.307 -6.33544 6.1349 0
M  V30 2776 O 520.767 -6.7751 3.72168 0
M  V30 2777 C 519.827 -7.20825 2.7076 0
M  V30 2778 C 520.557 -7.45864 1.40599 0
M  V30 2779 O 520.767 -6.17651 0.734225 0
M  V30 2780 C 521.957 -8.05808 1.51899 0
M  V30 2781 O 522.347 -8.74358 0.335205 0
M  V30 2782 C 522.837 -6.83093 1.70294 0
M  V30 2783 C 522.127 -5.79992 0.836974 0
M  V30 2784 N 522.177 -4.41864 1.38293 0
M  V30 2785 H 519.338 -8.13644 3.0377 0
M  V30 2786 H 519.068 -6.42788 2.55485 0
M  V30 2787 H 519.935 -8.12039 0.792769 0
M  V30 2788 P 523.897 -8.91 -3.22661e-12 0
M  V30 2789 O 524.117 -10.1726 -0.733694 0
M  V30 2790 O 524.687 -8.73148 1.23936 0
M  V30 2791 O 524.147 -7.66872 -0.971405 0
M  V30 2792 C 523.207 -7.42309 -2.04641 0
M  V30 2793 C 523.937 -6.86059 -3.24661 0
M  V30 2794 O 524.147 -5.42847 -3.03646 0
M  V30 2795 C 525.337 -7.41196 -3.50753 0
M  V30 2796 O 525.727 -7.27073 -4.86816 0
M  V30 2797 C 526.217 -6.5273 -2.63741 0
M  V30 2798 C 525.507 -5.1842 -2.73198 0
M  V30 2799 N 525.557 -4.38762 -1.4784 0
M  V30 2800 H 522.718 -8.36803 -2.32493 0
M  V30 2801 H 522.448 -6.70197 -1.71129 0
M  V30 2802 H 523.315 -7.03551 -4.13168 0
M  V30 2803 P 527.277 -7.20834 -5.23717 0
M  V30 2804 O 527.497 -7.79853 -6.57286 0
M  V30 2805 O 528.067 -7.79239 -4.12957 0
M  V30 2806 O 527.527 -5.63315 -5.29344 0
M  V30 2807 C 526.587 -4.80255 -6.01876 0
M  V30 2808 C 527.317 -3.64202 -6.65911 0
M  V30 2809 O 527.527 -2.60694 -5.64732 0
M  V30 2810 C 528.717 -3.93473 -7.1943 0
M  V30 2811 O 529.107 -3.02071 -8.21205 0
M  V30 2812 C 529.597 -3.73047 -5.97036 0
M  V30 2813 C 528.887 -2.58828 -5.25741 0
M  V30 2814 N 528.937 -2.68068 -3.77503 0
M  V30 2815 H 526.098 -5.40332 -6.79951 0
M  V30 2816 H 525.828 -4.41613 -5.32378 0
M  V30 2817 H 526.695 -3.26331 -7.47797 0
M  V30 2818 P 530.657 -2.75334 -8.47391 0
M  V30 2819 O 530.877 -2.44571 -9.90142 0
M  V30 2820 O 531.447 -3.87688 -7.92115 0
M  V30 2821 O 530.907 -1.4459 -7.59357 0
M  V30 2822 C 529.967 -0.347608 -7.69215 0
M  V30 2823 C 530.697 0.96767 -7.52806 0
M  V30 2824 O 530.907 1.21036 -6.1011 0
M  V30 2825 C 532.097 1.04544 -8.13308 0
M  V30 2826 O 532.487 2.38311 -8.41922 0
M  V30 2827 C 532.977 0.491279 -7.02284 0
M  V30 2828 C 532.267 0.996264 -5.77469 0
M  V30 2829 N 532.317 0.0501916 -4.62973 0
M  V30 2830 H 529.478 -0.374722 -8.67691 0
M  V30 2831 H 529.208 -0.443485 -6.90277 0
M  V30 2832 H 530.075 1.75537 -7.96793 0
M  V30 2833 P 534.037 2.75334 -8.47391 0
M  V30 2834 O 534.257 3.84166 -9.4489 0
M  V30 2835 O 534.827 1.51964 -8.6881 0
M  V30 2836 O 534.287 3.29363 -6.99321 0
M  V30 2837 C 533.347 4.23956 -6.42656 0
M  V30 2838 C 534.077 5.20775 -5.52155 0
M  V30 2839 O 534.287 4.56534 -4.22446 0
M  V30 2840 C 535.477 5.62629 -5.96531 0
M  V30 2841 O 535.867 6.87667 -5.41053 0
M  V30 2842 C 536.357 4.52537 -5.39283 0
M  V30 2843 C 535.647 4.20027 -4.08623 0
M  V30 2844 N 535.697 2.7613 -3.71522 0
M  V30 2845 C 535.847 2.45612 -2.37989 0
M  V30 2846 O 535.937 3.30919 -1.51621 0
M  V30 2847 N 535.887 1.10684 -2.08435 0
M  V30 2848 C 535.797 0.0690084 -2.9792 0
M  V30 2849 O 535.847 -1.10553 -2.59426 0
M  V30 2850 C 535.647 0.481522 -4.35345 0
M  V30 2851 C 535.537 -0.618778 -5.36443 0
M  V30 2852 C 535.597 1.78906 -4.67968 0
M  V30 2853 H 532.857 4.797 -7.24003 0
M  V30 2854 H 532.588 3.69802 -5.84429 0
M  V30 2855 H 533.455 6.10356 -5.41441 0
M  V30 2856 H 536.11 4.78651 -3.27911 0
M  V30 2857 H 536.389 3.64957 -6.05871 0
M  V30 2858 H 537.381 4.8868 -5.2125 0
M  V30 2859 H 535.547 5.66726 -7.06352 0
M  V30 2860 H 535.476 2.07737 -5.72367 0
M  V30 2861 H 536.506 -0.754375 -5.86871 0
M  V30 2862 H 534.769 -0.359721 -6.10641 0
M  V30 2863 H 535.257 -1.55533 -4.8581 0
M  V30 2864 H 535.993 0.862651 -1.12037 0
M  V30 2865 P 537.417 7.20834 -5.23717 0
M  V30 2866 O 537.637 8.66104 -5.38572 0
M  V30 2867 O 538.207 6.33544 -6.1349 0
M  V30 2868 O 537.667 6.7751 -3.72168 0
M  V30 2869 C 536.727 7.20825 -2.7076 0
M  V30 2870 C 537.457 7.45864 -1.40599 0
M  V30 2871 O 537.667 6.17651 -0.734225 0
M  V30 2872 C 538.857 8.05808 -1.51899 0
M  V30 2873 O 539.247 8.74358 -0.335205 0
M  V30 2874 C 539.737 6.83093 -1.70294 0
M  V30 2875 C 539.027 5.79992 -0.836974 0
M  V30 2876 N 539.077 4.41864 -1.38293 0
M  V30 2877 C 538.997 3.99538 -2.69438 0
M  V30 2878 N 539.077 2.69909 -2.84277 0
M  V30 2879 C 539.217 2.21719 -1.5408 0
M  V30 2880 C 539.347 0.891712 -1.06628 0
M  V30 2881 O 539.367 -0.161298 -1.70137 0
M  V30 2882 N 539.467 0.856846 0.334985 0
M  V30 2883 C 539.467 1.9641 1.15789 0
M  V30 2884 N 539.597 1.72708 2.46522 0
M  V30 2885 N 539.337 3.21165 0.713741 0
M  V30 2886 C 539.217 3.26797 -0.639748 0
M  V30 2887 H 536.238 8.13644 -3.0377 0
M  V30 2888 H 535.968 6.42788 -2.55485 0
M  V30 2889 H 536.835 8.12039 -0.792769 0
M  V30 2890 H 539.49 5.80061 0.166416 0
M  V30 2891 H 539.769 6.51287 -2.75604 0
M  V30 2892 H 540.761 7.01734 -1.34462 0
M  V30 2893 H 538.927 8.73674 -2.38337 0
M  V30 2894 H 538.878 4.68207 -3.53221 0
M  V30 2895 H 539.56 -0.0398818 0.767965 0
M  V30 2896 H 539.597 2.50995 3.13503 0
M  V30 2897 H 539.698 0.759148 2.80716 0
M  V30 2898 P 540.797 8.91 3.38379e-12 0
M  V30 2899 O 541.017 10.1726 0.733694 0
M  V30 2900 O 541.587 8.73148 -1.23936 0
M  V30 2901 O 541.047 7.66872 0.971405 0
M  V30 2902 C 540.107 7.42309 2.04641 0
M  V30 2903 C 540.837 6.86059 3.24661 0
M  V30 2904 O 541.047 5.42847 3.03646 0
M  V30 2905 C 542.237 7.41196 3.50753 0
M  V30 2906 O 542.627 7.27073 4.86816 0
M  V30 2907 C 543.117 6.5273 2.63741 0
M  V30 2908 C 542.407 5.1842 2.73198 0
M  V30 2909 N 542.457 4.38762 1.4784 0
M  V30 2910 C 542.377 4.81605 0.168631 0
M  V30 2911 N 542.457 3.85454 -0.713363 0
M  V30 2912 C 542.597 2.6994 0.0566958 0
M  V30 2913 C 542.727 1.34815 -0.338502 0
M  V30 2914 O 542.747 0.869548 -1.47125 0
M  V30 2915 N 542.847 0.496304 0.77465 0
M  V30 2916 C 542.847 0.908403 2.09122 0
M  V30 2917 N 542.977 -0.0517805 3.00955 0
M  V30 2918 N 542.717 2.17875 2.46519 0
M  V30 2919 C 542.597 3.01988 1.4033 0
M  V30 2920 H 539.618 8.36803 2.32493 0
M  V30 2921 H 539.348 6.70197 1.71129 0
M  V30 2922 H 540.215 7.03551 4.13168 0
M  V30 2923 H 542.87 4.59498 3.54415 0
M  V30 2924 H 543.149 6.88898 1.59848 0
M  V30 2925 H 544.141 6.46749 3.03687 0
M  V30 2926 H 542.307 8.46908 3.20714 0
M  V30 2927 H 542.258 5.86405 -0.105564 0
M  V30 2928 H 542.94 -0.483664 0.597855 0
M  V30 2929 H 542.977 0.187865 4.0116 0
M  V30 2930 H 543.078 -1.03585 2.71726 0
M  V30 2931 P 544.177 7.20834 5.23717 0
M  V30 2932 O 544.397 7.79853 6.57286 0
M  V30 2933 O 544.967 7.79239 4.12957 0
M  V30 2934 O 544.427 5.63315 5.29344 0
M  V30 2935 C 543.487 4.80255 6.01876 0
M  V30 2936 C 544.217 3.64202 6.65911 0
M  V30 2937 O 544.427 2.60694 5.64732 0
M  V30 2938 C 545.617 3.93473 7.1943 0
M  V30 2939 O 546.007 3.02071 8.21205 0
M  V30 2940 C 546.497 3.73047 5.97036 0
M  V30 2941 C 545.787 2.58828 5.25741 0
M  V30 2942 N 545.837 2.68068 3.77503 0
M  V30 2943 C 545.757 3.79715 2.96723 0
M  V30 2944 N 545.837 3.5377 1.68852 0
M  V30 2945 C 545.977 2.15054 1.63254 0
M  V30 2946 C 546.107 1.28964 0.518571 0
M  V30 2947 N 546.227 -0.0538097 0.918425 0
M  V30 2948 C 546.227 -0.494275 2.22578 0
M  V30 2949 N 546.357 -1.81086 2.40434 0
M  V30 2950 N 546.097 0.313645 3.27502 0
M  V30 2951 C 545.977 1.61829 2.91033 0
M  V30 2952 H 542.998 5.40332 6.79951 0
M  V30 2953 H 542.728 4.41613 5.32378 0
M  V30 2954 H 543.595 3.26331 7.47797 0
M  V30 2955 P 547.557 2.75334 8.47391 0
M  V30 2956 O 547.777 2.44571 9.90142 0
M  V30 2957 O 548.347 3.87688 7.92115 0
M  V30 2958 O 547.807 1.4459 7.59357 0
M  V30 2959 C 546.867 0.347608 7.69215 0
M  V30 2960 C 547.597 -0.96767 7.52806 0
M  V30 2961 O 547.807 -1.21036 6.1011 0
M  V30 2962 C 548.997 -1.04544 8.13308 0
M  V30 2963 O 549.387 -2.38311 8.41922 0
M  V30 2964 C 549.877 -0.491279 7.02284 0
M  V30 2965 C 549.167 -0.996264 5.77469 0
M  V30 2966 N 549.217 -0.0501916 4.62973 0
M  V30 2967 H 546.378 0.374722 8.67691 0
M  V30 2968 H 546.108 0.443485 6.90277 0
M  V30 2969 H 546.975 -1.75537 7.96793 0
M  V30 2970 P 550.937 -2.75334 8.47391 0
M  V30 2971 O 551.157 -3.84128 9.44797 0
M  V30 2972 O 551.727 -1.51947 8.68712 0
M  V30 2973 O 551.187 -3.29363 6.99321 0
M  V30 2974 C 550.247 -4.24011 6.4274 0
M  V30 2975 C 550.977 -5.20775 5.52155 0
M  V30 2976 O 551.187 -4.56534 4.22446 0
M  V30 2977 C 552.377 -5.62629 5.96531 0
M  V30 2978 O 552.767 -6.87667 5.41053 0
M  V30 2979 C 553.257 -4.52537 5.39283 0
M  V30 2980 C 552.547 -4.20027 4.08623 0
M  V30 2981 N 552.597 -2.76189 3.71603 0
M  V30 2982 C 552.517 -1.64862 4.52822 0
M  V30 2983 N 552.597 -0.512671 3.88633 0
M  V30 2984 C 552.737 -0.888083 2.54977 0
M  V30 2985 C 552.867 -0.094668 1.38677 0
M  V30 2986 O 552.887 1.13053 1.28163 0
M  V30 2987 N 552.987 -0.890102 0.232633 0
M  V30 2988 C 552.987 -2.26958 0.21772 0
M  V30 2989 N 553.117 -2.84626 -0.97925 0
M  V30 2990 N 552.857 -3.0178 1.31033 0
M  V30 2991 C 552.737 -2.26781 2.43843 0
M  V30 2992 H 549.758 -4.797 7.24003 0
M  V30 2993 H 549.488 -3.69856 5.84513 0
M  V30 2994 H 550.355 -6.10356 5.41441 0
M  V30 2995 H 553.01 -4.79061 3.27488 0
M  V30 2996 H 553.289 -3.64906 6.05785 0
M  V30 2997 H 554.281 -4.8868 5.2125 0
M  V30 2998 H 552.447 -5.66726 7.06352 0
M  V30 2999 H 552.398 -1.71169 5.60966 0
M  V30 3000 H 553.08 -0.419134 -0.644739 0
M  V30 3001 H 553.117 -3.87332 -1.06098 0
M  V30 3002 H 553.218 -2.26417 -1.82483 0
M  V30 3003 P 554.317 -7.20834 5.23717 0
M  V30 3004 O 554.537 -8.66189 5.38625 0
M  V30 3005 O 555.107 -6.33615 6.1356 0
M  V30 3006 O 554.567 -6.7751 3.72168 0
M  V30 3007 C 553.627 -7.20732 2.70725 0
M  V30 3008 C 554.357 -7.45864 1.40599 0
M  V30 3009 O 554.567 -6.17651 0.734225 0
M  V30 3010 C 555.757 -8.05808 1.51899 0
M  V30 3011 O 556.147 -8.74358 0.335205 0
M  V30 3012 C 556.637 -6.83093 1.70294 0
M  V30 3013 C 555.927 -5.79992 0.836974 0
M  V30 3014 N 555.977 -4.41769 1.38263 0
M  V30 3015 C 556.127 -3.38591 0.481702 0
M  V30 3016 O 556.217 -3.56839 -0.718452 0
M  V30 3017 N 556.167 -2.1206 1.03569 0
M  V30 3018 C 556.077 -1.80696 2.36966 0
M  V30 3019 C 555.927 -2.94845 3.23898 0
M  V30 3020 C 555.877 -4.19803 2.73435 0
M  V30 3021 H 553.137 -8.13644 3.0377 0
M  V30 3022 H 552.868 -6.42695 2.55448 0
M  V30 3023 H 553.735 -8.12039 0.792769 0
M  V30 3024 H 556.39 -5.79978 -0.160587 0
M  V30 3025 H 556.669 -6.51379 2.75643 0
M  V30 3026 H 557.661 -7.01734 1.34462 0
M  V30 3027 H 555.827 -8.73674 2.38337 0
M  V30 3028 H 555.756 -5.04492 3.4095 0
M  V30 3029 P 557.697 -8.91 -3.54097e-12 0
M  V30 3030 O 557.917 -10.1726 -0.733694 0
M  V30 3031 O 558.487 -8.73148 1.23936 0
M  V30 3032 O 557.947 -7.66872 -0.971405 0
M  V30 3033 C 557.007 -7.42309 -2.04641 0
M  V30 3034 C 557.737 -6.86059 -3.24661 0
M  V30 3035 O 557.947 -5.42847 -3.03646 0
M  V30 3036 C 559.137 -7.41196 -3.50753 0
M  V30 3037 O 559.527 -7.27073 -4.86816 0
M  V30 3038 C 560.017 -6.5273 -2.63741 0
M  V30 3039 C 559.307 -5.1842 -2.73198 0
M  V30 3040 N 559.357 -4.38762 -1.4784 0
M  V30 3041 C 559.277 -4.81605 -0.168631 0
M  V30 3042 N 559.357 -3.85454 0.713363 0
M  V30 3043 C 559.497 -2.6994 -0.0566958 0
M  V30 3044 C 559.627 -1.34815 0.338502 0
M  V30 3045 O 559.647 -0.869548 1.47125 0
M  V30 3046 N 559.747 -0.496304 -0.77465 0
M  V30 3047 C 559.747 -0.908403 -2.09122 0
M  V30 3048 N 559.877 0.0517805 -3.00955 0
M  V30 3049 N 559.617 -2.17875 -2.46519 0
M  V30 3050 C 559.497 -3.01988 -1.4033 0
M  V30 3051 H 556.518 -8.36803 -2.32493 0
M  V30 3052 H 556.248 -6.70197 -1.71129 0
M  V30 3053 H 557.115 -7.03551 -4.13168 0
M  V30 3054 H 559.77 -4.59498 -3.54415 0
M  V30 3055 H 560.049 -6.88898 -1.59848 0
M  V30 3056 H 561.041 -6.46749 -3.03687 0
M  V30 3057 H 559.207 -8.46908 -3.20714 0
M  V30 3058 H 559.158 -5.86405 0.105564 0
M  V30 3059 H 559.84 0.483664 -0.597855 0
M  V30 3060 H 559.877 -0.187865 -4.0116 0
M  V30 3061 H 559.978 1.03585 -2.71726 0
M  V30 3062 P 561.077 -7.20834 -5.23717 0
M  V30 3063 O 561.297 -7.80006 -6.57415 0
M  V30 3064 O 561.867 -7.79416 -4.13051 0
M  V30 3065 O 561.327 -5.63315 -5.29344 0
M  V30 3066 C 560.387 -4.80318 -6.01954 0
M  V30 3067 C 561.117 -3.64202 -6.65911 0
M  V30 3068 O 561.327 -2.60736 -5.64823 0
M  V30 3069 C 562.517 -3.93521 -7.19518 0
M  V30 3070 O 562.907 -3.02071 -8.21205 0
M  V30 3071 C 563.397 -3.73047 -5.97036 0
M  V30 3072 C 562.687 -2.58828 -5.25741 0
M  V30 3073 N 562.737 -2.68068 -3.77503 0
M  V30 3074 C 562.657 -3.80474 -2.99159 0
M  V30 3075 N 562.727 -3.55622 -1.71925 0
M  V30 3076 C 562.877 -2.1832 -1.65733 0
M  V30 3077 C 563.007 -1.28842 -0.572777 0
M  V30 3078 N 563.017 -1.66875 0.70098 0
M  V30 3079 N 563.127 0.016788 -0.859836 0
M  V30 3080 C 563.117 0.398145 -2.13316 0
M  V30 3081 N 562.997 -0.328224 -3.22333 0
M  V30 3082 C 562.877 -1.62992 -2.90383 0
M  V30 3083 H 559.899 -5.40394 -6.8003 0
M  V30 3084 H 559.627 -4.41741 -5.32532 0
M  V30 3085 H 560.495 -3.26371 -7.47889 0
M  V30 3086 H 563.15 -1.64007 -5.56746 0
M  V30 3087 H 563.43 -4.63439 -5.3432 0
M  V30 3088 H 564.421 -3.44776 -6.25925 0
M  V30 3089 H 562.587 -4.96707 -7.57347 0
M  V30 3090 H 562.546 -4.8089 -3.39924 0
M  V30 3091 H 562.927 -2.66547 0.941919 0
M  V30 3092 H 563.116 -0.965341 1.44766 0
M  V30 3093 H 563.224 1.46427 -2.29697 0
M  V30 3094 P 564.457 -2.75334 -8.47391 0
M  V30 3095 O 564.677 -2.44571 -9.90142 0
M  V30 3096 O 565.247 -3.87688 -7.92115 0
M  V30 3097 O 564.707 -1.4459 -7.59357 0
M  V30 3098 C 563.767 -0.347608 -7.69215 0
M  V30 3099 C 564.497 0.96767 -7.52806 0
M  V30 3100 O 564.707 1.21036 -6.1011 0
M  V30 3101 C 565.897 1.04544 -8.13308 0
M  V30 3102 O 566.287 2.38311 -8.41922 0
M  V30 3103 C 566.777 0.491279 -7.02284 0
M  V30 3104 C 566.067 0.996264 -5.77469 0
M  V30 3105 N 566.117 0.0501916 -4.62973 0
M  V30 3106 H 563.278 -0.374722 -8.67691 0
M  V30 3107 H 563.008 -0.443485 -6.90277 0
M  V30 3108 H 563.875 1.75537 -7.96793 0
M  V30 3109 P 567.837 2.75334 -8.47391 0
M  V30 3110 O 568.057 3.84128 -9.44797 0
M  V30 3111 O 568.627 1.51947 -8.68712 0
M  V30 3112 O 568.087 3.29363 -6.99321 0
M  V30 3113 C 567.147 4.24011 -6.4274 0
M  V30 3114 C 567.877 5.20775 -5.52155 0
M  V30 3115 O 568.087 4.56534 -4.22446 0
M  V30 3116 C 569.277 5.62629 -5.96531 0
M  V30 3117 O 569.667 6.87667 -5.41053 0
M  V30 3118 C 570.157 4.52537 -5.39283 0
M  V30 3119 C 569.447 4.20027 -4.08623 0
M  V30 3120 N 569.497 2.76189 -3.71603 0
M  V30 3121 H 566.658 4.797 -7.24003 0
M  V30 3122 H 566.388 3.69856 -5.84513 0
M  V30 3123 H 567.255 6.10356 -5.41441 0
M  V30 3124 P 571.217 7.20834 -5.23717 0
M  V30 3125 O 571.437 8.66189 -5.38625 0
M  V30 3126 O 572.007 6.33615 -6.1356 0
M  V30 3127 O 571.467 6.7751 -3.72168 0
M  V30 3128 C 570.527 7.20825 -2.7076 0
M  V30 3129 C 571.257 7.45864 -1.40599 0
M  V30 3130 O 571.467 6.17651 -0.734225 0
M  V30 3131 C 572.657 8.05808 -1.51899 0
M  V30 3132 O 573.047 8.74358 -0.335205 0
M  V30 3133 C 573.537 6.83093 -1.70294 0
M  V30 3134 C 572.827 5.79992 -0.836974 0
M  V30 3135 N 572.877 4.41769 -1.38263 0
M  V30 3136 C 573.027 3.36514 -0.485617 0
M  V30 3137 O 573.117 3.61814 0.724703 0
M  V30 3138 N 573.077 2.00746 -1.14492 0
M  V30 3139 C 572.977 1.85887 -2.27776 0
M  V30 3140 N 573.027 0.600907 -2.69379 0
M  V30 3141 C 572.827 2.92182 -3.22265 0
M  V30 3142 C 572.777 4.18399 -2.71925 0
M  V30 3143 H 570.037 8.1355 -3.03735 0
M  V30 3144 H 569.768 6.42695 -2.55448 0
M  V30 3145 H 570.635 8.12139 -0.792866 0
M  V30 3146 H 573.29 5.80078 0.160615 0
M  V30 3147 H 573.569 6.51379 -2.75643 0
M  V30 3148 H 574.561 7.01734 -1.34462 0
M  V30 3149 H 572.727 8.73674 -2.38337 0
M  V30 3150 H 572.655 5.02669 -3.39718 0
M  V30 3151 H 572.757 2.73001 -4.29239 0
M  V30 3152 H 573.145 -0.162318 -2.01146 0
M  V30 3153 H 572.948 0.387742 -3.69773 0
M  V30 3154 P 574.597 8.91 3.69815e-12 0
M  V30 3155 O 574.817 10.1726 0.733694 0
M  V30 3156 O 575.387 8.73148 -1.23936 0
M  V30 3157 O 574.847 7.66872 0.971405 0
M  V30 3158 C 573.907 7.42309 2.04641 0
M  V30 3159 C 574.637 6.86059 3.24661 0
M  V30 3160 O 574.847 5.42847 3.03646 0
M  V30 3161 C 576.037 7.41196 3.50753 0
M  V30 3162 O 576.427 7.27073 4.86816 0
M  V30 3163 C 576.917 6.5273 2.63741 0
M  V30 3164 C 576.207 5.1842 2.73198 0
M  V30 3165 N 576.257 4.38762 1.4784 0
M  V30 3166 H 573.418 8.36803 2.32493 0
M  V30 3167 H 573.148 6.70197 1.71129 0
M  V30 3168 H 574.015 7.03551 4.13168 0
M  V30 3169 P 577.977 7.20834 5.23717 0
M  V30 3170 O 578.197 7.79853 6.57286 0
M  V30 3171 O 578.767 7.79239 4.12957 0
M  V30 3172 O 578.227 5.63315 5.29344 0
M  V30 3173 C 577.287 4.80255 6.01876 0
M  V30 3174 C 578.017 3.64202 6.65911 0
M  V30 3175 O 578.227 2.60694 5.64732 0
M  V30 3176 C 579.417 3.93473 7.1943 0
M  V30 3177 O 579.807 3.02071 8.21205 0
M  V30 3178 C 580.297 3.73047 5.97036 0
M  V30 3179 C 579.587 2.58828 5.25741 0
M  V30 3180 N 579.637 2.68068 3.77503 0
M  V30 3181 H 576.798 5.40332 6.79951 0
M  V30 3182 H 576.528 4.41613 5.32378 0
M  V30 3183 H 577.395 3.26331 7.47797 0
M  V30 3184 P 581.357 2.75334 8.47391 0
M  V30 3185 O 581.577 2.44571 9.90142 0
M  V30 3186 O 582.147 3.87688 7.92115 0
M  V30 3187 O 581.607 1.4459 7.59357 0
M  V30 3188 C 580.667 0.347608 7.69215 0
M  V30 3189 C 581.397 -0.96767 7.52806 0
M  V30 3190 O 581.607 -1.21036 6.1011 0
M  V30 3191 C 582.797 -1.04544 8.13308 0
M  V30 3192 O 583.187 -2.38311 8.41922 0
M  V30 3193 C 583.677 -0.491279 7.02284 0
M  V30 3194 C 582.967 -0.996264 5.77469 0
M  V30 3195 N 583.017 -0.0501916 4.62973 0
M  V30 3196 H 580.178 0.374722 8.67691 0
M  V30 3197 H 579.908 0.443485 6.90277 0
M  V30 3198 H 580.775 -1.75537 7.96793 0
M  V30 3199 P 584.737 -2.75334 8.47391 0
M  V30 3200 O 584.957 -3.84128 9.44797 0
M  V30 3201 O 585.527 -1.51947 8.68712 0
M  V30 3202 O 584.987 -3.29363 6.99321 0
M  V30 3203 C 584.047 -4.24011 6.4274 0
M  V30 3204 C 584.777 -5.20775 5.52155 0
M  V30 3205 O 584.987 -4.56534 4.22446 0
M  V30 3206 C 586.177 -5.62629 5.96531 0
M  V30 3207 O 586.567 -6.87667 5.41053 0
M  V30 3208 C 587.057 -4.52537 5.39283 0
M  V30 3209 C 586.347 -4.20027 4.08623 0
M  V30 3210 N 586.397 -2.76189 3.71603 0
M  V30 3211 H 583.558 -4.797 7.24003 0
M  V30 3212 H 583.288 -3.69856 5.84513 0
M  V30 3213 H 584.155 -6.10356 5.41441 0
M  V30 3214 P 588.117 -7.20834 5.23717 0
M  V30 3215 O 588.337 -8.66189 5.38625 0
M  V30 3216 O 588.907 -6.33615 6.1356 0
M  V30 3217 O 588.367 -6.7751 3.72168 0
M  V30 3218 C 587.427 -7.20732 2.70725 0
M  V30 3219 C 588.157 -7.45864 1.40599 0
M  V30 3220 O 588.367 -6.17651 0.734225 0
M  V30 3221 C 589.557 -8.05808 1.51899 0
M  V30 3222 O 589.947 -8.74358 0.335205 0
M  V30 3223 C 590.437 -6.83093 1.70294 0
M  V30 3224 C 589.727 -5.79992 0.836974 0
M  V30 3225 N 589.777 -4.41769 1.38263 0
M  V30 3226 C 589.927 -3.38591 0.481702 0
M  V30 3227 O 590.017 -3.56839 -0.718452 0
M  V30 3228 N 589.967 -2.1206 1.03569 0
M  V30 3229 C 589.877 -1.80696 2.36966 0
M  V30 3230 O 589.927 -0.630473 2.74862 0
M  V30 3231 C 589.727 -2.94845 3.23898 0
M  V30 3232 C 589.617 -2.65253 4.70362 0
M  V30 3233 C 589.677 -4.19803 2.73435 0
M  V30 3234 H 586.937 -8.13644 3.0377 0
M  V30 3235 H 586.668 -6.42695 2.55448 0
M  V30 3236 H 587.535 -8.12039 0.792769 0
M  V30 3237 H 590.19 -5.79978 -0.160587 0
M  V30 3238 H 590.469 -6.51379 2.75643 0
M  V30 3239 H 591.461 -7.01734 1.34462 0
M  V30 3240 H 589.627 -8.73674 2.38337 0
M  V30 3241 H 589.556 -5.04492 3.4095 0
M  V30 3242 H 590.586 -2.83924 5.1913 0
M  V30 3243 H 588.849 -3.29824 5.15163 0
M  V30 3244 H 589.337 -1.59723 4.84449 0
M  V30 3245 H 590.073 -1.35644 0.399345 0
M  V30 3246 P 591.496 -8.91 -3.85533e-12 0
M  V30 3247 O 591.716 -10.1726 -0.733694 0
M  V30 3248 O 592.286 -8.73148 1.23936 0
M  V30 3249 O 591.746 -7.66872 -0.971405 0
M  V30 3250 C 590.806 -7.42309 -2.04641 0
M  V30 3251 C 591.536 -6.86059 -3.24661 0
M  V30 3252 O 591.746 -5.42847 -3.03646 0
M  V30 3253 C 592.937 -7.41196 -3.50753 0
M  V30 3254 O 593.327 -7.27073 -4.86816 0
M  V30 3255 C 593.817 -6.5273 -2.63741 0
M  V30 3256 C 593.106 -5.1842 -2.73198 0
M  V30 3257 N 593.156 -4.38762 -1.4784 0
M  V30 3258 H 590.317 -8.36803 -2.32493 0
M  V30 3259 H 590.048 -6.70197 -1.71129 0
M  V30 3260 H 590.914 -7.03551 -4.13168 0
M  V30 3261 P 594.876 -7.20834 -5.23717 0
M  V30 3262 O 595.096 -7.79853 -6.57286 0
M  V30 3263 O 595.666 -7.79239 -4.12957 0
M  V30 3264 O 595.126 -5.63315 -5.29344 0
M  V30 3265 C 594.186 -4.80255 -6.01876 0
M  V30 3266 C 594.916 -3.64202 -6.65911 0
M  V30 3267 O 595.126 -2.60694 -5.64732 0
M  V30 3268 C 596.316 -3.93473 -7.1943 0
M  V30 3269 O 596.706 -3.02071 -8.21205 0
M  V30 3270 C 597.196 -3.73047 -5.97036 0
M  V30 3271 C 596.486 -2.58828 -5.25741 0
M  V30 3272 N 596.536 -2.68068 -3.77503 0
M  V30 3273 H 593.697 -5.40332 -6.79951 0
M  V30 3274 H 593.427 -4.41613 -5.32378 0
M  V30 3275 H 594.294 -3.26331 -7.47797 0
M  V30 3276 P 598.256 -2.75334 -8.47391 0
M  V30 3277 O 598.476 -2.44595 -9.90239 0
M  V30 3278 O 599.046 -3.87732 -7.92204 0
M  V30 3279 O 598.506 -1.4459 -7.59357 0
M  V30 3280 C 597.566 -0.347563 -7.69115 0
M  V30 3281 C 598.296 0.96767 -7.52806 0
M  V30 3282 O 598.506 1.21036 -6.1011 0
M  V30 3283 C 599.696 1.04544 -8.13308 0
M  V30 3284 O 600.086 2.38311 -8.41922 0
M  V30 3285 C 600.576 0.491279 -7.02284 0
M  V30 3286 C 599.866 0.996264 -5.77469 0
M  V30 3287 N 599.916 0.0501808 -4.62873 0
M  V30 3288 C 600.066 0.588177 -3.36904 0
M  V30 3289 O 600.156 1.78598 -3.17173 0
M  V30 3290 N 600.106 -0.329694 -2.33686 0
M  V30 3291 C 600.016 -1.6953 -2.45079 0
M  V30 3292 O 600.066 -2.41926 -1.44899 0
M  V30 3293 C 599.866 -2.16933 -3.80505 0
M  V30 3294 C 599.756 -3.65373 -3.97621 0
M  V30 3295 C 599.816 -1.30326 -4.83752 0
M  V30 3296 H 597.076 -0.374722 -8.67691 0
M  V30 3297 H 596.807 -0.443421 -6.90177 0
M  V30 3298 H 597.674 1.75537 -7.96793 0
M  V30 3299 H 600.329 1.94496 -5.46629 0
M  V30 3300 H 600.608 -0.608651 -7.04676 0
M  V30 3301 H 601.6 0.889672 -7.08939 0
M  V30 3302 H 599.766 0.43308 -9.04564 0
M  V30 3303 H 599.695 -1.68366 -5.8516 0
M  V30 3304 H 600.725 -4.05985 -4.30448 0
M  V30 3305 H 598.988 -3.88028 -4.72875 0
M  V30 3306 H 599.476 -4.11381 -3.01609 0
M  V30 3307 H 600.212 0.0393617 -1.41345 0
M  V30 3308 P 601.636 2.75334 -8.47391 0
M  V30 3309 O 601.856 3.84128 -9.44797 0
M  V30 3310 O 602.426 1.51947 -8.68712 0
M  V30 3311 O 601.886 3.29363 -6.99321 0
M  V30 3312 C 600.946 4.24011 -6.4274 0
M  V30 3313 C 601.676 5.20775 -5.52155 0
M  V30 3314 O 601.886 4.56534 -4.22446 0
M  V30 3315 C 603.076 5.62629 -5.96531 0
M  V30 3316 O 603.466 6.87667 -5.41053 0
M  V30 3317 C 603.956 4.52537 -5.39283 0
M  V30 3318 C 603.246 4.20027 -4.08623 0
M  V30 3319 N 603.296 2.76189 -3.71603 0
M  V30 3320 H 600.457 4.797 -7.24003 0
M  V30 3321 H 600.187 3.69856 -5.84513 0
M  V30 3322 H 601.054 6.10356 -5.41441 0
M  V30 3323 P 605.016 7.20834 -5.23717 0
M  V30 3324 O 605.236 8.66104 -5.38572 0
M  V30 3325 O 605.806 6.33544 -6.1349 0
M  V30 3326 O 605.266 6.7751 -3.72168 0
M  V30 3327 C 604.326 7.20825 -2.7076 0
M  V30 3328 C 605.056 7.45864 -1.40599 0
M  V30 3329 O 605.266 6.17651 -0.734225 0
M  V30 3330 C 606.456 8.05808 -1.51899 0
M  V30 3331 O 606.846 8.74358 -0.335205 0
M  V30 3332 C 607.336 6.83093 -1.70294 0
M  V30 3333 C 606.626 5.79992 -0.836974 0
M  V30 3334 N 606.676 4.41864 -1.38293 0
M  V30 3335 H 603.837 8.13644 -3.0377 0
M  V30 3336 H 603.567 6.42788 -2.55485 0
M  V30 3337 H 604.434 8.12039 -0.792769 0
M  V30 3338 P 608.396 8.91 4.01252e-12 0
M  V30 3339 O 608.616 10.1736 0.733766 0
M  V30 3340 O 609.186 8.73247 -1.2395 0
M  V30 3341 O 608.646 7.66872 0.971405 0
M  V30 3342 C 607.706 7.42212 2.04614 0
M  V30 3343 C 608.436 6.86059 3.24661 0
M  V30 3344 O 608.646 5.42847 3.03646 0
M  V30 3345 C 609.836 7.41196 3.50753 0
M  V30 3346 O 610.226 7.27073 4.86816 0
M  V30 3347 C 610.716 6.5273 2.63741 0
M  V30 3348 C 610.006 5.1842 2.73198 0
M  V30 3349 N 610.056 4.38668 1.47808 0
M  V30 3350 C 610.206 3.02239 1.60048 0
M  V30 3351 O 610.296 2.46459 2.67869 0
M  V30 3352 N 610.246 2.32436 0.408571 0
M  V30 3353 C 610.156 2.85471 -0.854993 0
M  V30 3354 O 610.206 2.12566 -1.8531 0
M  V30 3355 C 610.006 4.28918 -0.887335 0
M  V30 3356 C 609.896 4.91066 -2.24619 0
M  V30 3357 C 609.956 5.00349 0.255399 0
M  V30 3358 H 607.216 8.36803 2.32493 0
M  V30 3359 H 606.947 6.701 1.71105 0
M  V30 3360 H 607.814 7.03551 4.13168 0
M  V30 3361 H 610.469 4.59773 3.53894 0
M  V30 3362 H 610.748 6.88995 1.59871 0
M  V30 3363 H 611.74 6.46749 3.03687 0
M  V30 3364 H 609.906 8.46908 3.20714 0
M  V30 3365 H 609.835 6.08548 0.206986 0
M  V30 3366 H 610.865 5.34836 -2.53099 0
M  V30 3367 H 609.128 5.69638 -2.2291 0
M  V30 3368 H 609.616 4.13971 -2.98044 0
M  V30 3369 H 610.352 1.33211 0.474216 0
M  V30 3370 P 611.776 7.20834 5.23717 0
M  V30 3371 O 611.996 7.80006 6.57415 0
M  V30 3372 O 612.566 7.79416 4.13051 0
M  V30 3373 O 612.026 5.63315 5.29344 0
M  V30 3374 C 611.086 4.80318 6.01954 0
M  V30 3375 C 611.816 3.64202 6.65911 0
M  V30 3376 O 612.026 2.60736 5.64823 0
M  V30 3377 C 613.216 3.93521 7.19518 0
M  V30 3378 O 613.606 3.02071 8.21205 0
M  V30 3379 C 614.096 3.73047 5.97036 0
M  V30 3380 C 613.386 2.58828 5.25741 0
M  V30 3381 N 613.436 2.68068 3.77503 0
M  V30 3382 C 613.356 3.80474 2.99159 0
M  V30 3383 N 613.426 3.55622 1.71925 0
M  V30 3384 C 613.576 2.1832 1.65733 0
M  V30 3385 C 613.706 1.28842 0.572777 0
M  V30 3386 N 613.716 1.66875 -0.70098 0
M  V30 3387 N 613.826 -0.016788 0.859836 0
M  V30 3388 C 613.816 -0.398145 2.13316 0
M  V30 3389 N 613.696 0.328224 3.22333 0
M  V30 3390 C 613.576 1.62992 2.90383 0
M  V30 3391 H 610.598 5.40394 6.8003 0
M  V30 3392 H 610.326 4.41741 5.32532 0
M  V30 3393 H 611.194 3.26371 7.47889 0
M  V30 3394 H 613.849 1.64007 5.56746 0
M  V30 3395 H 614.129 4.63439 5.3432 0
M  V30 3396 H 615.12 3.44776 6.25925 0
M  V30 3397 H 613.286 4.96707 7.57347 0
M  V30 3398 H 613.245 4.8089 3.39924 0
M  V30 3399 H 613.626 2.66547 -0.941919 0
M  V30 3400 H 613.815 0.965341 -1.44766 0
M  V30 3401 H 613.923 -1.46427 2.29697 0
M  V30 3402 P 615.156 2.75334 8.47391 0
M  V30 3403 O 615.376 2.44571 9.90142 0
M  V30 3404 O 615.946 3.87688 7.92115 0
M  V30 3405 O 615.406 1.4459 7.59357 0
M  V30 3406 C 614.466 0.347608 7.69215 0
M  V30 3407 C 615.196 -0.96767 7.52806 0
M  V30 3408 O 615.406 -1.21036 6.1011 0
M  V30 3409 C 616.596 -1.04544 8.13308 0
M  V30 3410 O 616.986 -2.38311 8.41922 0
M  V30 3411 C 617.476 -0.491279 7.02284 0
M  V30 3412 C 616.766 -0.996264 5.77469 0
M  V30 3413 N 616.816 -0.0501916 4.62973 0
M  V30 3414 H 613.977 0.374722 8.67691 0
M  V30 3415 H 613.707 0.443485 6.90277 0
M  V30 3416 H 614.574 -1.75537 7.96793 0
M  V30 3417 P 618.536 -2.75334 8.47391 0
M  V30 3418 O 618.756 -3.84128 9.44797 0
M  V30 3419 O 619.326 -1.51947 8.68712 0
M  V30 3420 O 618.786 -3.29363 6.99321 0
M  V30 3421 C 617.846 -4.24011 6.4274 0
M  V30 3422 C 618.576 -5.20775 5.52155 0
M  V30 3423 O 618.786 -4.56534 4.22446 0
M  V30 3424 C 619.976 -5.62629 5.96531 0
M  V30 3425 O 620.366 -6.87667 5.41053 0
M  V30 3426 C 620.856 -4.52537 5.39283 0
M  V30 3427 C 620.146 -4.20027 4.08623 0
M  V30 3428 N 620.196 -2.76189 3.71603 0
M  V30 3429 C 620.116 -1.64862 4.52822 0
M  V30 3430 N 620.196 -0.512671 3.88633 0
M  V30 3431 C 620.336 -0.888083 2.54977 0
M  V30 3432 C 620.466 -0.094668 1.38677 0
M  V30 3433 N 620.586 -0.890102 0.232633 0
M  V30 3434 C 620.586 -2.26958 0.21772 0
M  V30 3435 N 620.716 -2.84626 -0.97925 0
M  V30 3436 N 620.456 -3.0178 1.31033 0
M  V30 3437 C 620.336 -2.26781 2.43843 0
M  V30 3438 H 617.357 -4.797 7.24003 0
M  V30 3439 H 617.087 -3.69856 5.84513 0
M  V30 3440 H 617.954 -6.10356 5.41441 0
M  V30 3441 P 621.916 -7.20834 5.23717 0
M  V30 3442 O 622.136 -8.66104 5.38572 0
M  V30 3443 O 622.706 -6.33544 6.1349 0
M  V30 3444 O 622.166 -6.7751 3.72168 0
M  V30 3445 C 621.226 -7.20825 2.7076 0
M  V30 3446 C 621.956 -7.45864 1.40599 0
M  V30 3447 O 622.166 -6.17651 0.734225 0
M  V30 3448 C 623.356 -8.05808 1.51899 0
M  V30 3449 O 623.746 -8.74358 0.335205 0
M  V30 3450 C 624.236 -6.83093 1.70294 0
M  V30 3451 C 623.526 -5.79992 0.836974 0
M  V30 3452 N 623.576 -4.41864 1.38293 0
M  V30 3453 H 620.737 -8.13644 3.0377 0
M  V30 3454 H 620.467 -6.42788 2.55485 0
M  V30 3455 H 621.334 -8.12039 0.792769 0
M  V30 3456 P 625.296 -8.91 -4.1697e-12 0
M  V30 3457 O 625.516 -10.1736 -0.733766 0
M  V30 3458 O 626.086 -8.73247 1.2395 0
M  V30 3459 O 625.546 -7.66872 -0.971405 0
M  V30 3460 C 624.606 -7.42212 -2.04614 0
M  V30 3461 C 625.336 -6.86059 -3.24661 0
M  V30 3462 O 625.546 -5.42847 -3.03646 0
M  V30 3463 C 626.736 -7.41196 -3.50753 0
M  V30 3464 O 627.126 -7.27073 -4.86816 0
M  V30 3465 C 627.616 -6.5273 -2.63741 0
M  V30 3466 C 626.906 -5.1842 -2.73198 0
M  V30 3467 N 626.956 -4.38668 -1.47808 0
M  V30 3468 C 627.106 -3.02239 -1.60048 0
M  V30 3469 O 627.196 -2.46459 -2.67869 0
M  V30 3470 N 627.146 -2.32436 -0.408571 0
M  V30 3471 C 627.056 -2.85471 0.854993 0
M  V30 3472 C 626.906 -4.28918 0.887335 0
M  V30 3473 C 626.856 -5.00349 -0.255399 0
M  V30 3474 H 624.116 -8.36803 -2.32493 0
M  V30 3475 H 623.847 -6.701 -1.71105 0
M  V30 3476 H 624.714 -7.03551 -4.13168 0
M  V30 3477 H 627.369 -4.59773 -3.53894 0
M  V30 3478 H 627.648 -6.88995 -1.59871 0
M  V30 3479 H 628.64 -6.46749 -3.03687 0
M  V30 3480 H 626.806 -8.46908 -3.20714 0
M  V30 3481 H 626.735 -6.08548 -0.206986 0
M  V30 3482 P 628.676 -7.20834 -5.23717 0
M  V30 3483 O 628.896 -7.79853 -6.57286 0
M  V30 3484 O 629.466 -7.79239 -4.12957 0
M  V30 3485 O 628.926 -5.63315 -5.29344 0
M  V30 3486 C 627.986 -4.80255 -6.01876 0
M  V30 3487 C 628.716 -3.64202 -6.65911 0
M  V30 3488 O 628.926 -2.60694 -5.64732 0
M  V30 3489 C 630.116 -3.93473 -7.1943 0
M  V30 3490 O 630.506 -3.02071 -8.21205 0
M  V30 3491 C 630.996 -3.73047 -5.97036 0
M  V30 3492 C 630.286 -2.58828 -5.25741 0
M  V30 3493 N 630.336 -2.68068 -3.77503 0
M  V30 3494 H 627.497 -5.40332 -6.79951 0
M  V30 3495 H 627.227 -4.41613 -5.32378 0
M  V30 3496 H 628.094 -3.26331 -7.47797 0
M  V30 3497 P 632.056 -2.75334 -8.47391 0
M  V30 3498 O 632.276 -2.44571 -9.90142 0
M  V30 3499 O 632.846 -3.87688 -7.92115 0
M  V30 3500 O 632.306 -1.4459 -7.59357 0
M  V30 3501 C 631.366 -0.347608 -7.69215 0
M  V30 3502 C 632.096 0.96767 -7.52806 0
M  V30 3503 O 632.306 1.21036 -6.1011 0
M  V30 3504 C 633.496 1.04544 -8.13308 0
M  V30 3505 O 633.886 2.38311 -8.41922 0
M  V30 3506 C 634.376 0.491279 -7.02284 0
M  V30 3507 C 633.666 0.996264 -5.77469 0
M  V30 3508 N 633.716 0.0501916 -4.62973 0
M  V30 3509 H 630.877 -0.374722 -8.67691 0
M  V30 3510 H 630.607 -0.443485 -6.90277 0
M  V30 3511 H 631.474 1.75537 -7.96793 0
M  V30 3512 P 635.436 2.75334 -8.47391 0
M  V30 3513 O 635.656 3.84204 -9.44982 0
M  V30 3514 O 636.226 1.51982 -8.68909 0
M  V30 3515 O 635.686 3.29363 -6.99321 0
M  V30 3516 C 634.746 4.24066 -6.42823 0
M  V30 3517 C 635.476 5.20775 -5.52155 0
M  V30 3518 O 635.686 4.56607 -4.22514 0
M  V30 3519 C 636.876 5.62697 -5.96604 0
M  V30 3520 O 637.266 6.87667 -5.41053 0
M  V30 3521 C 637.756 4.52537 -5.39283 0
M  V30 3522 C 637.046 4.20027 -4.08623 0
M  V30 3523 N 637.096 2.76189 -3.71603 0
M  V30 3524 H 634.258 4.79756 -7.24086 0
M  V30 3525 H 633.986 3.69963 -5.84682 0
M  V30 3526 H 634.854 6.10431 -5.41508 0
M  V30 3527 H 637.509 4.78816 -3.28024 0
M  V30 3528 H 637.789 3.64957 -6.05871 0
M  V30 3529 H 638.78 4.88748 -5.21323 0
M  V30 3530 H 636.946 5.66789 -7.0643 0
M  V30 3531 P 638.816 7.20834 -5.23717 0
M  V30 3532 O 639.036 8.66104 -5.38572 0
M  V30 3533 O 639.606 6.33544 -6.1349 0
M  V30 3534 O 639.066 6.7751 -3.72168 0
M  V30 3535 C 638.126 7.20825 -2.7076 0
M  V30 3536 C 638.856 7.45864 -1.40599 0
M  V30 3537 O 639.066 6.17651 -0.734225 0
M  V30 3538 C 640.256 8.05808 -1.51899 0
M  V30 3539 O 640.646 8.74358 -0.335205 0
M  V30 3540 C 641.136 6.83093 -1.70294 0
M  V30 3541 C 640.426 5.79992 -0.836974 0
M  V30 3542 N 640.476 4.41864 -1.38293 0
M  V30 3543 H 637.637 8.13644 -3.0377 0
M  V30 3544 H 637.367 6.42788 -2.55485 0
M  V30 3545 H 638.234 8.12039 -0.792769 0
M  V30 3546 P 642.196 8.91 4.32688e-12 0
M  V30 3547 O 642.416 10.1726 0.733694 0
M  V30 3548 O 642.986 8.73148 -1.23936 0
M  V30 3549 O 642.446 7.66872 0.971405 0
M  V30 3550 C 641.506 7.42309 2.04641 0
M  V30 3551 C 642.236 6.86059 3.24661 0
M  V30 3552 O 642.446 5.42847 3.03646 0
M  V30 3553 C 643.636 7.41196 3.50753 0
M  V30 3554 O 644.026 7.27073 4.86816 0
M  V30 3555 C 644.516 6.5273 2.63741 0
M  V30 3556 C 643.806 5.1842 2.73198 0
M  V30 3557 N 643.856 4.38762 1.4784 0
M  V30 3558 H 641.017 8.36803 2.32493 0
M  V30 3559 H 640.747 6.70197 1.71129 0
M  V30 3560 H 641.614 7.03551 4.13168 0
M  V30 3561 P 645.576 7.20834 5.23717 0
M  V30 3562 O 645.796 7.79853 6.57286 0
M  V30 3563 O 646.366 7.79239 4.12957 0
M  V30 3564 O 645.826 5.63315 5.29344 0
M  V30 3565 C 644.886 4.80255 6.01876 0
M  V30 3566 C 645.616 3.64202 6.65911 0
M  V30 3567 O 645.826 2.60694 5.64732 0
M  V30 3568 C 647.016 3.93473 7.1943 0
M  V30 3569 O 647.406 3.02071 8.21205 0
M  V30 3570 C 647.896 3.73047 5.97036 0
M  V30 3571 C 647.186 2.58828 5.25741 0
M  V30 3572 N 647.236 2.68068 3.77503 0
M  V30 3573 H 644.397 5.40332 6.79951 0
M  V30 3574 H 644.127 4.41613 5.32378 0
M  V30 3575 H 644.994 3.26331 7.47797 0
M  V30 3576 P 648.956 2.75334 8.47391 0
M  V30 3577 O 649.176 2.44595 9.90239 0
M  V30 3578 O 649.746 3.87732 7.92204 0
M  V30 3579 O 649.206 1.4459 7.59357 0
M  V30 3580 C 648.266 0.347563 7.69115 0
M  V30 3581 C 648.996 -0.96767 7.52806 0
M  V30 3582 O 649.206 -1.21036 6.1011 0
M  V30 3583 C 650.396 -1.04544 8.13308 0
M  V30 3584 O 650.786 -2.38311 8.41922 0
M  V30 3585 C 651.276 -0.491279 7.02284 0
M  V30 3586 C 650.566 -0.996264 5.77469 0
M  V30 3587 N 650.616 -0.0501808 4.62873 0
M  V30 3588 C 650.766 -0.588177 3.36904 0
M  V30 3589 O 650.856 -1.78598 3.17173 0
M  V30 3590 N 650.806 0.329694 2.33686 0
M  V30 3591 C 650.716 1.6953 2.45079 0
M  V30 3592 O 650.766 2.41926 1.44899 0
M  V30 3593 C 650.566 2.16933 3.80505 0
M  V30 3594 C 650.456 3.65373 3.97621 0
M  V30 3595 C 650.516 1.30326 4.83752 0
M  V30 3596 H 647.776 0.374722 8.67691 0
M  V30 3597 H 647.507 0.443421 6.90177 0
M  V30 3598 H 648.374 -1.75537 7.96793 0
M  V30 3599 H 651.029 -1.94496 5.46629 0
M  V30 3600 H 651.308 0.608651 7.04676 0
M  V30 3601 H 652.3 -0.889672 7.08939 0
M  V30 3602 H 650.466 -0.43308 9.04564 0
M  V30 3603 H 650.395 1.68366 5.8516 0
M  V30 3604 H 651.425 4.05985 4.30448 0
M  V30 3605 H 649.688 3.88028 4.72875 0
M  V30 3606 H 650.176 4.11381 3.01609 0
M  V30 3607 H 650.912 -0.0393617 1.41345 0
M  V30 3608 P 652.336 -2.75334 8.47391 0
M  V30 3609 O 652.556 -3.84204 9.44982 0
M  V30 3610 O 653.126 -1.51982 8.68909 0
M  V30 3611 O 652.586 -3.29363 6.99321 0
M  V30 3612 C 651.646 -4.24066 6.42823 0
M  V30 3613 C 652.376 -5.20775 5.52155 0
M  V30 3614 O 652.586 -4.56607 4.22514 0
M  V30 3615 C 653.776 -5.62697 5.96604 0
M  V30 3616 O 654.166 -6.87667 5.41053 0
M  V30 3617 C 654.656 -4.52537 5.39283 0
M  V30 3618 C 653.946 -4.20027 4.08623 0
M  V30 3619 N 653.996 -2.76189 3.71603 0
M  V30 3620 H 651.158 -4.79756 7.24086 0
M  V30 3621 H 650.886 -3.69963 5.84682 0
M  V30 3622 H 651.754 -6.10431 5.41508 0
M  V30 3623 H 654.409 -4.78816 3.28024 0
M  V30 3624 H 654.689 -3.64957 6.05871 0
M  V30 3625 H 655.68 -4.88748 5.21323 0
M  V30 3626 H 653.846 -5.66789 7.0643 0
M  V30 3627 P 655.716 -7.20834 5.23717 0
M  V30 3628 O 655.936 -8.66274 5.38678 0
M  V30 3629 O 656.506 -6.33687 6.13629 0
M  V30 3630 O 655.966 -6.7751 3.72168 0
M  V30 3631 C 655.026 -7.20919 2.70795 0
M  V30 3632 C 655.756 -7.45864 1.40599 0
M  V30 3633 O 655.966 -6.17751 0.734343 0
M  V30 3634 C 657.156 -8.05906 1.51917 0
M  V30 3635 O 657.546 -8.74358 0.335205 0
M  V30 3636 C 658.036 -6.83093 1.70294 0
M  V30 3637 C 657.326 -5.79992 0.836974 0
M  V30 3638 N 657.376 -4.41864 1.38293 0
M  V30 3639 H 654.538 -8.13738 3.03804 0
M  V30 3640 H 654.266 -6.42974 2.55559 0
M  V30 3641 H 655.134 -8.12139 0.792866 0
M  V30 3642 H 657.789 -5.80178 -0.160643 0
M  V30 3643 H 658.069 -6.51379 2.75643 0
M  V30 3644 H 659.06 -7.01832 1.3448 0
M  V30 3645 H 657.226 -8.73771 2.38364 0
M  V30 3646 P 659.096 -8.91 -4.48406e-12 0
M  V30 3647 O 659.316 -10.1726 -0.733694 0
M  V30 3648 O 659.886 -8.73148 1.23936 0
M  V30 3649 O 659.346 -7.66872 -0.971405 0
M  V30 3650 C 658.406 -7.42309 -2.04641 0
M  V30 3651 C 659.136 -6.86059 -3.24661 0
M  V30 3652 O 659.346 -5.42847 -3.03646 0
M  V30 3653 C 660.536 -7.41196 -3.50753 0
M  V30 3654 O 660.926 -7.27073 -4.86816 0
M  V30 3655 C 661.416 -6.5273 -2.63741 0
M  V30 3656 C 660.706 -5.1842 -2.73198 0
M  V30 3657 N 660.756 -4.38762 -1.4784 0
M  V30 3658 H 657.917 -8.36803 -2.32493 0
M  V30 3659 H 657.647 -6.70197 -1.71129 0
M  V30 3660 H 658.514 -7.03551 -4.13168 0
M  V30 3661 P 662.476 -7.20834 -5.23717 0
M  V30 3662 O 662.696 -7.79853 -6.57286 0
M  V30 3663 O 663.266 -7.79239 -4.12957 0
M  V30 3664 O 662.726 -5.63315 -5.29344 0
M  V30 3665 C 661.786 -4.80255 -6.01876 0
M  V30 3666 C 662.516 -3.64202 -6.65911 0
M  V30 3667 O 662.726 -2.60694 -5.64732 0
M  V30 3668 C 663.916 -3.93473 -7.1943 0
M  V30 3669 O 664.306 -3.02071 -8.21205 0
M  V30 3670 C 664.796 -3.73047 -5.97036 0
M  V30 3671 C 664.086 -2.58828 -5.25741 0
M  V30 3672 N 664.136 -2.68068 -3.77503 0
M  V30 3673 H 661.297 -5.40332 -6.79951 0
M  V30 3674 H 661.027 -4.41613 -5.32378 0
M  V30 3675 H 661.894 -3.26331 -7.47797 0
M  V30 3676 P 665.856 -2.75334 -8.47391 0
M  V30 3677 O 666.076 -2.44619 -9.90336 0
M  V30 3678 O 666.646 -3.87776 -7.92294 0
M  V30 3679 O 666.106 -1.4459 -7.59357 0
M  V30 3680 C 665.166 -0.347653 -7.69315 0
M  V30 3681 C 665.896 0.96767 -7.52806 0
M  V30 3682 O 666.106 1.21055 -6.10208 0
M  V30 3683 C 667.296 1.04557 -8.13408 0
M  V30 3684 O 667.686 2.38311 -8.41922 0
M  V30 3685 C 668.176 0.491279 -7.02284 0
M  V30 3686 C 667.466 0.996264 -5.77469 0
M  V30 3687 N 667.516 0.0501916 -4.62973 0
M  V30 3688 H 664.678 -0.374765 -8.67791 0
M  V30 3689 H 664.406 -0.443613 -6.90476 0
M  V30 3690 H 665.274 1.75559 -7.96891 0
M  V30 3691 H 667.929 1.94563 -5.46818 0
M  V30 3692 H 668.209 -0.608651 -7.04676 0
M  V30 3693 H 669.2 0.889796 -7.09039 0
M  V30 3694 H 667.366 0.433128 -9.04664 0
M  V30 3695 P 669.236 2.75334 -8.47391 0
M  V30 3696 O 669.456 3.84128 -9.44797 0
M  V30 3697 O 670.026 1.51947 -8.68712 0
M  V30 3698 O 669.486 3.29363 -6.99321 0
M  V30 3699 C 668.546 4.24011 -6.4274 0
M  V30 3700 C 669.276 5.20775 -5.52155 0
M  V30 3701 O 669.486 4.56534 -4.22446 0
M  V30 3702 C 670.676 5.62629 -5.96531 0
M  V30 3703 O 671.066 6.87667 -5.41053 0
M  V30 3704 C 671.556 4.52537 -5.39283 0
M  V30 3705 C 670.846 4.20027 -4.08623 0
M  V30 3706 N 670.896 2.76189 -3.71603 0
M  V30 3707 C 670.816 1.64862 -4.52822 0
M  V30 3708 N 670.896 0.512671 -3.88633 0
M  V30 3709 C 671.036 0.888083 -2.54977 0
M  V30 3710 C 671.166 0.094668 -1.38677 0
M  V30 3711 O 671.186 -1.13053 -1.28163 0
M  V30 3712 N 671.286 0.890102 -0.232633 0
M  V30 3713 C 671.286 2.26958 -0.21772 0
M  V30 3714 N 671.416 2.84626 0.97925 0
M  V30 3715 N 671.156 3.0178 -1.31033 0
M  V30 3716 C 671.036 2.26781 -2.43843 0
M  V30 3717 H 668.057 4.797 -7.24003 0
M  V30 3718 H 667.787 3.69856 -5.84513 0
M  V30 3719 H 668.654 6.10356 -5.41441 0
M  V30 3720 H 671.309 4.79061 -3.27488 0
M  V30 3721 H 671.588 3.64906 -6.05785 0
M  V30 3722 H 672.58 4.8868 -5.2125 0
M  V30 3723 H 670.746 5.66726 -7.06352 0
M  V30 3724 H 670.697 1.71169 -5.60966 0
M  V30 3725 H 671.379 0.419134 0.644739 0
M  V30 3726 H 671.416 3.87332 1.06098 0
M  V30 3727 H 671.517 2.26417 1.82483 0
M  V30 3728 P 672.616 7.20834 -5.23717 0
M  V30 3729 O 672.836 8.66104 -5.38572 0
M  V30 3730 O 673.406 6.33544 -6.1349 0
M  V30 3731 O 672.866 6.7751 -3.72168 0
M  V30 3732 C 671.926 7.20825 -2.7076 0
M  V30 3733 C 672.656 7.45864 -1.40599 0
M  V30 3734 O 672.866 6.17651 -0.734225 0
M  V30 3735 C 674.056 8.05808 -1.51899 0
M  V30 3736 O 674.446 8.74358 -0.335205 0
M  V30 3737 C 674.936 6.83093 -1.70294 0
M  V30 3738 C 674.226 5.79992 -0.836974 0
M  V30 3739 N 674.276 4.41864 -1.38293 0
M  V30 3740 C 674.196 3.99538 -2.69438 0
M  V30 3741 N 674.276 2.69909 -2.84277 0
M  V30 3742 C 674.416 2.21719 -1.5408 0
M  V30 3743 C 674.546 0.891712 -1.06628 0
M  V30 3744 N 674.666 0.856846 0.334985 0
M  V30 3745 C 674.666 1.9641 1.15789 0
M  V30 3746 N 674.796 1.72708 2.46522 0
M  V30 3747 N 674.536 3.21165 0.713741 0
M  V30 3748 C 674.416 3.26797 -0.639748 0
M  V30 3749 H 671.437 8.13644 -3.0377 0
M  V30 3750 H 671.167 6.42788 -2.55485 0
M  V30 3751 H 672.034 8.12039 -0.792769 0
M  V30 3752 P 675.996 8.91 4.64125e-12 0
M  V30 3753 O 676.216 10.1746 0.733838 0
M  V30 3754 O 676.786 8.73346 -1.23964 0
M  V30 3755 O 676.246 7.66872 0.971405 0
M  V30 3756 C 675.306 7.42405 2.04668 0
M  V30 3757 C 676.036 6.86059 3.24661 0
M  V30 3758 O 676.246 5.42934 3.03695 0
M  V30 3759 C 677.436 7.41287 3.50796 0
M  V30 3760 O 677.826 7.27073 4.86816 0
M  V30 3761 C 678.316 6.5273 2.63741 0
M  V30 3762 C 677.606 5.1842 2.73198 0
M  V30 3763 N 677.656 4.38762 1.4784 0
M  V30 3764 C 677.576 4.83651 0.183876 0
M  V30 3765 N 677.646 3.88759 -0.699393 0
M  V30 3766 C 677.796 2.7404 0.0575568 0
M  V30 3767 C 677.926 1.37902 -0.293928 0
M  V30 3768 N 677.936 0.938021 -1.54797 0
M  V30 3769 N 678.046 0.491817 0.70549 0
M  V30 3770 C 678.036 0.931735 1.95979 0
M  V30 3771 N 677.916 2.16017 2.41481 0
M  V30 3772 C 677.796 3.02547 1.39121 0
M  V30 3773 H 674.818 8.36899 2.3252 0
M  V30 3774 H 674.546 6.70391 1.71179 0
M  V30 3775 H 675.414 7.03638 4.13219 0
M  V30 3776 H 678.069 4.59931 3.54016 0
M  V30 3777 H 678.349 6.88995 1.59871 0
M  V30 3778 H 679.34 6.4684 3.0373 0
M  V30 3779 H 677.506 8.47002 3.20749 0
M  V30 3780 H 677.465 5.8885 -0.0765548 0
M  V30 3781 H 677.846 1.60276 -2.32875 0
M  V30 3782 H 678.035 -0.0699355 -1.73859 0
M  V30 3783 H 678.143 0.165507 2.71897 0
M  V30 3784 P 679.376 7.20834 5.23717 0
M  V30 3785 O 679.596 7.79853 6.57286 0
M  V30 3786 O 680.166 7.79239 4.12957 0
M  V30 3787 O 679.626 5.63315 5.29344 0
M  V30 3788 C 678.686 4.80255 6.01876 0
M  V30 3789 C 679.416 3.64202 6.65911 0
M  V30 3790 O 679.626 2.60694 5.64732 0
M  V30 3791 C 680.816 3.93473 7.1943 0
M  V30 3792 O 681.206 3.02071 8.21205 0
M  V30 3793 C 681.696 3.73047 5.97036 0
M  V30 3794 C 680.986 2.58828 5.25741 0
M  V30 3795 N 681.036 2.68068 3.77503 0
M  V30 3796 C 680.956 3.79715 2.96723 0
M  V30 3797 N 681.036 3.5377 1.68852 0
M  V30 3798 C 681.176 2.15054 1.63254 0
M  V30 3799 C 681.306 1.28964 0.518571 0
M  V30 3800 O 681.326 1.56826 -0.679156 0
M  V30 3801 N 681.426 -0.0538097 0.918425 0
M  V30 3802 C 681.426 -0.494275 2.22578 0
M  V30 3803 N 681.556 -1.81086 2.40434 0
M  V30 3804 N 681.296 0.313645 3.27502 0
M  V30 3805 C 681.176 1.61829 2.91033 0
M  V30 3806 H 678.197 5.40332 6.79951 0
M  V30 3807 H 677.927 4.41613 5.32378 0
M  V30 3808 H 678.794 3.26331 7.47797 0
M  V30 3809 H 681.449 1.63422 5.56814 0
M  V30 3810 H 681.728 4.63374 5.34244 0
M  V30 3811 H 682.72 3.44728 6.25838 0
M  V30 3812 H 680.886 4.96652 7.57263 0
M  V30 3813 H 680.837 4.80617 3.3614 0
M  V30 3814 H 681.519 -0.742702 0.199384 0
M  V30 3815 H 681.556 -2.20598 3.35588 0
M  V30 3816 H 681.657 -2.43518 1.58945 0
M  V30 3817 P 682.756 2.75334 8.47391 0
M  V30 3818 O 682.976 2.44571 9.90142 0
M  V30 3819 O 683.546 3.87688 7.92115 0
M  V30 3820 O 683.006 1.4459 7.59357 0
M  V30 3821 C 682.066 0.347608 7.69215 0
M  V30 3822 C 682.796 -0.96767 7.52806 0
M  V30 3823 O 683.006 -1.21036 6.1011 0
M  V30 3824 C 684.196 -1.04544 8.13308 0
M  V30 3825 O 684.586 -2.38311 8.41922 0
M  V30 3826 C 685.076 -0.491279 7.02284 0
M  V30 3827 C 684.366 -0.996264 5.77469 0
M  V30 3828 N 684.416 -0.0501916 4.62973 0
M  V30 3829 H 681.577 0.374722 8.67691 0
M  V30 3830 H 681.307 0.443485 6.90277 0
M  V30 3831 H 682.174 -1.75537 7.96793 0
M  V30 3832 P 686.136 -2.75334 8.47391 0
M  V30 3833 O 686.356 -3.84204 9.44982 0
M  V30 3834 O 686.926 -1.51982 8.68909 0
M  V30 3835 O 686.386 -3.29363 6.99321 0
M  V30 3836 C 685.446 -4.24066 6.42823 0
M  V30 3837 C 686.176 -5.20775 5.52155 0
M  V30 3838 O 686.386 -4.56607 4.22514 0
M  V30 3839 C 687.576 -5.62697 5.96604 0
M  V30 3840 O 687.966 -6.87667 5.41053 0
M  V30 3841 C 688.456 -4.52537 5.39283 0
M  V30 3842 C 687.746 -4.20027 4.08623 0
M  V30 3843 N 687.796 -2.76189 3.71603 0
M  V30 3844 H 684.958 -4.79756 7.24086 0
M  V30 3845 H 684.686 -3.69963 5.84682 0
M  V30 3846 H 685.554 -6.10431 5.41508 0
M  V30 3847 H 688.209 -4.78816 3.28024 0
M  V30 3848 H 688.489 -3.64957 6.05871 0
M  V30 3849 H 689.48 -4.88748 5.21323 0
M  V30 3850 H 687.646 -5.66789 7.0643 0
M  V30 3851 P 689.516 -7.20834 5.23717 0
M  V30 3852 O 689.736 -8.66104 5.38572 0
M  V30 3853 O 690.306 -6.33544 6.1349 0
M  V30 3854 O 689.766 -6.7751 3.72168 0
M  V30 3855 C 688.826 -7.20825 2.7076 0
M  V30 3856 C 689.556 -7.45864 1.40599 0
M  V30 3857 O 689.766 -6.17651 0.734225 0
M  V30 3858 C 690.956 -8.05808 1.51899 0
M  V30 3859 O 691.346 -8.74358 0.335205 0
M  V30 3860 C 691.836 -6.83093 1.70294 0
M  V30 3861 C 691.126 -5.79992 0.836974 0
M  V30 3862 N 691.176 -4.41864 1.38293 0
M  V30 3863 H 688.337 -8.13644 3.0377 0
M  V30 3864 H 688.067 -6.42788 2.55485 0
M  V30 3865 H 688.934 -8.12039 0.792769 0
M  V30 3866 P 692.896 -8.91 -4.67181e-12 0
M  V30 3867 O 693.116 -10.1726 -0.733694 0
M  V30 3868 O 693.686 -8.73148 1.23936 0
M  V30 3869 O 693.146 -7.66872 -0.971405 0
M  V30 3870 C 692.206 -7.42309 -2.04641 0
M  V30 3871 C 692.936 -6.86059 -3.24661 0
M  V30 3872 O 693.146 -5.42847 -3.03646 0
M  V30 3873 C 694.336 -7.41196 -3.50753 0
M  V30 3874 O 694.726 -7.27073 -4.86816 0
M  V30 3875 C 695.216 -6.5273 -2.63741 0
M  V30 3876 C 694.506 -5.1842 -2.73198 0
M  V30 3877 N 694.556 -4.38762 -1.4784 0
M  V30 3878 H 691.717 -8.36803 -2.32493 0
M  V30 3879 H 691.447 -6.70197 -1.71129 0
M  V30 3880 H 692.314 -7.03551 -4.13168 0
M  V30 3881 P 696.276 -7.20834 -5.23717 0
M  V30 3882 O 696.496 -7.79853 -6.57286 0
M  V30 3883 O 697.066 -7.79239 -4.12957 0
M  V30 3884 O 696.526 -5.63315 -5.29344 0
M  V30 3885 C 695.586 -4.80255 -6.01876 0
M  V30 3886 C 696.316 -3.64202 -6.65911 0
M  V30 3887 O 696.526 -2.60694 -5.64732 0
M  V30 3888 C 697.716 -3.93473 -7.1943 0
M  V30 3889 O 698.106 -3.02071 -8.21205 0
M  V30 3890 C 698.596 -3.73047 -5.97036 0
M  V30 3891 C 697.886 -2.58828 -5.25741 0
M  V30 3892 N 697.936 -2.68068 -3.77503 0
M  V30 3893 H 695.097 -5.40332 -6.79951 0
M  V30 3894 H 694.827 -4.41613 -5.32378 0
M  V30 3895 H 695.694 -3.26331 -7.47797 0
M  V30 3896 P 699.656 -2.75334 -8.47391 0
M  V30 3897 O 699.876 -2.44571 -9.90142 0
M  V30 3898 O 700.446 -3.87688 -7.92115 0
M  V30 3899 O 699.906 -1.4459 -7.59357 0
M  V30 3900 C 698.966 -0.347608 -7.69215 0
M  V30 3901 C 699.696 0.96767 -7.52806 0
M  V30 3902 O 699.906 1.21036 -6.1011 0
M  V30 3903 C 701.096 1.04544 -8.13308 0
M  V30 3904 O 701.486 2.38311 -8.41922 0
M  V30 3905 C 701.976 0.491279 -7.02284 0
M  V30 3906 C 701.266 0.996264 -5.77469 0
M  V30 3907 N 701.316 0.0501916 -4.62973 0
M  V30 3908 H 698.477 -0.374722 -8.67691 0
M  V30 3909 H 698.207 -0.443485 -6.90277 0
M  V30 3910 H 699.074 1.75537 -7.96793 0
M  V30 3911 P 703.036 2.75334 -8.47391 0
M  V30 3912 O 703.256 3.84128 -9.44797 0
M  V30 3913 O 703.826 1.51947 -8.68712 0
M  V30 3914 O 703.286 3.29363 -6.99321 0
M  V30 3915 C 702.346 4.24011 -6.4274 0
M  V30 3916 C 703.076 5.20775 -5.52155 0
M  V30 3917 O 703.286 4.56534 -4.22446 0
M  V30 3918 C 704.476 5.62629 -5.96531 0
M  V30 3919 O 704.866 6.87667 -5.41053 0
M  V30 3920 C 705.356 4.52537 -5.39283 0
M  V30 3921 C 704.646 4.20027 -4.08623 0
M  V30 3922 N 704.696 2.76189 -3.71603 0
M  V30 3923 H 701.857 4.797 -7.24003 0
M  V30 3924 H 701.587 3.69856 -5.84513 0
M  V30 3925 H 702.454 6.10356 -5.41441 0
M  V30 3926 P 706.416 7.20834 -5.23717 0
M  V30 3927 O 706.636 8.66104 -5.38572 0
M  V30 3928 O 707.206 6.33544 -6.1349 0
M  V30 3929 O 706.666 6.7751 -3.72168 0
M  V30 3930 C 705.726 7.20825 -2.7076 0
M  V30 3931 C 706.456 7.45864 -1.40599 0
M  V30 3932 O 706.666 6.17651 -0.734225 0
M  V30 3933 C 707.856 8.05808 -1.51899 0
M  V30 3934 O 708.246 8.74358 -0.335205 0
M  V30 3935 C 708.736 6.83093 -1.70294 0
M  V30 3936 C 708.026 5.79992 -0.836974 0
M  V30 3937 N 708.076 4.41864 -1.38293 0
M  V30 3938 H 705.237 8.13644 -3.0377 0
M  V30 3939 H 704.967 6.42788 -2.55485 0
M  V30 3940 H 705.834 8.12039 -0.792769 0
M  V30 3941 P 709.796 8.91 4.82899e-12 0
M  V30 3942 O 710.016 10.1726 0.733694 0
M  V30 3943 O 710.586 8.73148 -1.23936 0
M  V30 3944 O 710.046 7.66872 0.971405 0
M  V30 3945 C 709.106 7.42309 2.04641 0
M  V30 3946 C 709.836 6.86059 3.24661 0
M  V30 3947 O 710.046 5.42847 3.03646 0
M  V30 3948 C 711.236 7.41196 3.50753 0
M  V30 3949 O 711.626 7.27073 4.86816 0
M  V30 3950 C 712.116 6.5273 2.63741 0
M  V30 3951 C 711.406 5.1842 2.73198 0
M  V30 3952 N 711.456 4.38762 1.4784 0
M  V30 3953 C 711.376 4.81605 0.168631 0
M  V30 3954 N 711.456 3.85454 -0.713363 0
M  V30 3955 C 711.596 2.6994 0.0566958 0
M  V30 3956 C 711.726 1.34815 -0.338502 0
M  V30 3957 O 711.746 0.869548 -1.47125 0
M  V30 3958 N 711.846 0.496304 0.77465 0
M  V30 3959 C 711.846 0.908403 2.09122 0
M  V30 3960 N 711.976 -0.0517805 3.00955 0
M  V30 3961 N 711.716 2.17875 2.46519 0
M  V30 3962 C 711.596 3.01988 1.4033 0
M  V30 3963 H 708.617 8.36803 2.32493 0
M  V30 3964 H 708.347 6.70197 1.71129 0
M  V30 3965 H 709.214 7.03551 4.13168 0
M  V30 3966 H 711.869 4.59498 3.54415 0
M  V30 3967 H 712.148 6.88898 1.59848 0
M  V30 3968 H 713.14 6.46749 3.03687 0
M  V30 3969 H 711.306 8.46908 3.20714 0
M  V30 3970 H 711.257 5.86405 -0.105564 0
M  V30 3971 H 711.939 -0.483664 0.597855 0
M  V30 3972 H 711.976 0.187865 4.0116 0
M  V30 3973 H 712.077 -1.03585 2.71726 0
M  V30 3974 P 713.176 7.20834 5.23717 0
M  V30 3975 O 713.396 7.79853 6.57286 0
M  V30 3976 O 713.966 7.79239 4.12957 0
M  V30 3977 O 713.426 5.63315 5.29344 0
M  V30 3978 C 712.486 4.80255 6.01876 0
M  V30 3979 C 713.216 3.64202 6.65911 0
M  V30 3980 O 713.426 2.60694 5.64732 0
M  V30 3981 C 714.616 3.93473 7.1943 0
M  V30 3982 O 715.006 3.02071 8.21205 0
M  V30 3983 C 715.496 3.73047 5.97036 0
M  V30 3984 C 714.786 2.58828 5.25741 0
M  V30 3985 N 714.836 2.68068 3.77503 0
M  V30 3986 H 711.997 5.40332 6.79951 0
M  V30 3987 H 711.727 4.41613 5.32378 0
M  V30 3988 H 712.594 3.26331 7.47797 0
M  V30 3989 P 716.556 2.75334 8.47391 0
M  V30 3990 O 716.776 2.44571 9.90142 0
M  V30 3991 O 717.346 3.87688 7.92115 0
M  V30 3992 O 716.806 1.4459 7.59357 0
M  V30 3993 C 715.866 0.347608 7.69215 0
M  V30 3994 C 716.596 -0.96767 7.52806 0
M  V30 3995 O 716.806 -1.21036 6.1011 0
M  V30 3996 C 717.996 -1.04544 8.13308 0
M  V30 3997 O 718.386 -2.38311 8.41922 0
M  V30 3998 C 718.876 -0.491279 7.02284 0
M  V30 3999 C 718.166 -0.996264 5.77469 0
M  V30 4000 N 718.216 -0.0501916 4.62973 0
M  V30 4001 H 715.377 0.374722 8.67691 0
M  V30 4002 H 715.107 0.443485 6.90277 0
M  V30 4003 H 715.974 -1.75537 7.96793 0
M  V30 4004 P 719.936 -2.75334 8.47391 0
M  V30 4005 O 720.156 -3.84166 9.4489 0
M  V30 4006 O 720.726 -1.51964 8.6881 0
M  V30 4007 O 720.186 -3.29363 6.99321 0
M  V30 4008 C 719.246 -4.23956 6.42656 0
M  V30 4009 C 719.976 -5.20775 5.52155 0
M  V30 4010 O 720.186 -4.56534 4.22446 0
M  V30 4011 C 721.376 -5.62629 5.96531 0
M  V30 4012 O 721.766 -6.87667 5.41053 0
M  V30 4013 C 722.256 -4.52537 5.39283 0
M  V30 4014 C 721.546 -4.20027 4.08623 0
M  V30 4015 N 721.596 -2.7613 3.71522 0
M  V30 4016 C 721.746 -2.45612 2.37989 0
M  V30 4017 O 721.836 -3.30919 1.51621 0
M  V30 4018 N 721.786 -1.10684 2.08435 0
M  V30 4019 C 721.696 -0.0690084 2.9792 0
M  V30 4020 C 721.546 -0.481522 4.35345 0
M  V30 4021 C 721.496 -1.78906 4.67968 0
M  V30 4022 H 718.756 -4.797 7.24003 0
M  V30 4023 H 718.487 -3.69802 5.84429 0
M  V30 4024 H 719.354 -6.10356 5.41441 0
M  V30 4025 H 722.009 -4.78651 3.27911 0
M  V30 4026 H 722.288 -3.64957 6.05871 0
M  V30 4027 H 723.28 -4.8868 5.2125 0
M  V30 4028 H 721.446 -5.66726 7.06352 0
M  V30 4029 H 721.375 -2.07737 5.72367 0
M  V30 4030 P 723.316 -7.20834 5.23717 0
M  V30 4031 O 723.536 -8.66189 5.38625 0
M  V30 4032 O 724.106 -6.33615 6.1356 0
M  V30 4033 O 723.566 -6.7751 3.72168 0
M  V30 4034 C 722.626 -7.20732 2.70725 0
M  V30 4035 C 723.356 -7.45864 1.40599 0
M  V30 4036 O 723.566 -6.17651 0.734225 0
M  V30 4037 C 724.756 -8.05808 1.51899 0
M  V30 4038 O 725.146 -8.74358 0.335205 0
M  V30 4039 C 725.636 -6.83093 1.70294 0
M  V30 4040 C 724.926 -5.79992 0.836974 0
M  V30 4041 N 724.976 -4.41769 1.38263 0
M  V30 4042 C 725.126 -3.38591 0.481702 0
M  V30 4043 O 725.216 -3.56839 -0.718452 0
M  V30 4044 N 725.166 -2.1206 1.03569 0
M  V30 4045 C 725.076 -1.80696 2.36966 0
M  V30 4046 O 725.126 -0.630473 2.74862 0
M  V30 4047 C 724.926 -2.94845 3.23898 0
M  V30 4048 C 724.816 -2.65253 4.70362 0
M  V30 4049 C 724.876 -4.19803 2.73435 0
M  V30 4050 H 722.136 -8.13644 3.0377 0
M  V30 4051 H 721.867 -6.42695 2.55448 0
M  V30 4052 H 722.734 -8.12039 0.792769 0
M  V30 4053 H 725.389 -5.79978 -0.160587 0
M  V30 4054 H 725.668 -6.51379 2.75643 0
M  V30 4055 H 726.66 -7.01734 1.34462 0
M  V30 4056 H 724.826 -8.73674 2.38337 0
M  V30 4057 H 724.755 -5.04492 3.4095 0
M  V30 4058 H 725.785 -2.83924 5.1913 0
M  V30 4059 H 724.048 -3.29824 5.15163 0
M  V30 4060 H 724.536 -1.59723 4.84449 0
M  V30 4061 H 725.272 -1.35644 0.399345 0
M  V30 4062 P 726.696 -8.91 -4.98617e-12 0
M  V30 4063 O 726.916 -10.1736 -0.733766 0
M  V30 4064 O 727.486 -8.73247 1.2395 0
M  V30 4065 O 726.946 -7.66872 -0.971405 0
M  V30 4066 C 726.006 -7.42309 -2.04641 0
M  V30 4067 C 726.736 -6.86059 -3.24661 0
M  V30 4068 O 726.946 -5.42847 -3.03646 0
M  V30 4069 C 728.136 -7.41196 -3.50753 0
M  V30 4070 O 728.526 -7.27073 -4.86816 0
M  V30 4071 C 729.016 -6.5273 -2.63741 0
M  V30 4072 C 728.306 -5.1842 -2.73198 0
M  V30 4073 N 728.356 -4.38668 -1.47808 0
M  V30 4074 C 728.506 -3.00789 -1.58511 0
M  V30 4075 O 728.596 -2.50116 -2.71298 0
M  V30 4076 N 728.556 -2.29703 -0.253698 0
M  V30 4077 C 728.456 -2.84269 0.750133 0
M  V30 4078 N 728.506 -2.06951 1.82612 0
M  V30 4079 C 728.306 -4.25803 0.889776 0
M  V30 4080 C 728.256 -4.98326 -0.259363 0
M  V30 4081 H 725.516 -8.36707 -2.32466 0
M  V30 4082 H 725.247 -6.701 -1.71105 0
M  V30 4083 H 726.114 -7.03638 -4.13219 0
M  V30 4084 H 728.769 -4.59852 -3.53955 0
M  V30 4085 H 729.048 -6.88995 -1.59871 0
M  V30 4086 H 730.04 -6.46749 -3.03687 0
M  V30 4087 H 728.206 -8.46908 -3.20714 0
M  V30 4088 H 728.134 -6.06349 -0.206238 0
M  V30 4089 H 728.236 -4.73163 1.86796 0
M  V30 4090 H 728.624 -1.05099 1.72271 0
M  V30 4091 H 728.427 -2.48716 2.76361 0
M  V30 4092 P 730.076 -7.20834 -5.23717 0
M  V30 4093 O 730.296 -7.79853 -6.57286 0
M  V30 4094 O 730.866 -7.79239 -4.12957 0
M  V30 4095 O 730.326 -5.63315 -5.29344 0
M  V30 4096 C 729.386 -4.80255 -6.01876 0
M  V30 4097 C 730.116 -3.64202 -6.65911 0
M  V30 4098 O 730.326 -2.60694 -5.64732 0
M  V30 4099 C 731.516 -3.93473 -7.1943 0
M  V30 4100 O 731.906 -3.02071 -8.21205 0
M  V30 4101 C 732.396 -3.73047 -5.97036 0
M  V30 4102 C 731.686 -2.58828 -5.25741 0
M  V30 4103 N 731.736 -2.68068 -3.77503 0
M  V30 4104 H 728.897 -5.40332 -6.79951 0
M  V30 4105 H 728.627 -4.41613 -5.32378 0
M  V30 4106 H 729.494 -3.26331 -7.47797 0
M  V30 4107 P 733.456 -2.75334 -8.47391 0
M  V30 4108 O 733.676 -2.44595 -9.90239 0
M  V30 4109 O 734.246 -3.87732 -7.92204 0
M  V30 4110 O 733.706 -1.4459 -7.59357 0
M  V30 4111 C 732.766 -0.347563 -7.69115 0
M  V30 4112 C 733.496 0.96767 -7.52806 0
M  V30 4113 O 733.706 1.21036 -6.1011 0
M  V30 4114 C 734.896 1.04544 -8.13308 0
M  V30 4115 O 735.286 2.38311 -8.41922 0
M  V30 4116 C 735.776 0.491279 -7.02284 0
M  V30 4117 C 735.066 0.996264 -5.77469 0
M  V30 4118 N 735.116 0.0501808 -4.62873 0
M  V30 4119 C 735.266 0.588177 -3.36904 0
M  V30 4120 O 735.356 1.78598 -3.17173 0
M  V30 4121 N 735.306 -0.329694 -2.33686 0
M  V30 4122 C 735.216 -1.6953 -2.45079 0
M  V30 4123 O 735.266 -2.41926 -1.44899 0
M  V30 4124 C 735.066 -2.16933 -3.80505 0
M  V30 4125 C 734.956 -3.65373 -3.97621 0
M  V30 4126 C 735.016 -1.30326 -4.83752 0
M  V30 4127 H 732.276 -0.374722 -8.67691 0
M  V30 4128 H 732.007 -0.443421 -6.90177 0
M  V30 4129 H 732.874 1.75537 -7.96793 0
M  V30 4130 H 735.529 1.94496 -5.46629 0
M  V30 4131 H 735.808 -0.608651 -7.04676 0
M  V30 4132 H 736.8 0.889672 -7.08939 0
M  V30 4133 H 734.966 0.43308 -9.04564 0
M  V30 4134 H 734.895 -1.68366 -5.8516 0
M  V30 4135 H 735.925 -4.05985 -4.30448 0
M  V30 4136 H 734.188 -3.88028 -4.72875 0
M  V30 4137 H 734.676 -4.11381 -3.01609 0
M  V30 4138 H 735.412 0.0393617 -1.41345 0
M  V30 4139 P 736.836 2.75334 -8.47391 0
M  V30 4140 O 737.056 3.84128 -9.44797 0
M  V30 4141 O 737.626 1.51947 -8.68712 0
M  V30 4142 O 737.086 3.29363 -6.99321 0
M  V30 4143 C 736.146 4.24011 -6.4274 0
M  V30 4144 C 736.876 5.20775 -5.52155 0
M  V30 4145 O 737.086 4.56534 -4.22446 0
M  V30 4146 C 738.276 5.62629 -5.96531 0
M  V30 4147 O 738.666 6.87667 -5.41053 0
M  V30 4148 C 739.156 4.52537 -5.39283 0
M  V30 4149 C 738.446 4.20027 -4.08623 0
M  V30 4150 N 738.496 2.76189 -3.71603 0
M  V30 4151 H 735.657 4.797 -7.24003 0
M  V30 4152 H 735.387 3.69856 -5.84513 0
M  V30 4153 H 736.254 6.10356 -5.41441 0
M  V30 4154 P 740.216 7.20834 -5.23717 0
M  V30 4155 O 740.436 8.66104 -5.38572 0
M  V30 4156 O 741.006 6.33544 -6.1349 0
M  V30 4157 O 740.466 6.7751 -3.72168 0
M  V30 4158 C 739.526 7.20825 -2.7076 0
M  V30 4159 C 740.256 7.45864 -1.40599 0
M  V30 4160 O 740.466 6.17651 -0.734225 0
M  V30 4161 C 741.656 8.05808 -1.51899 0
M  V30 4162 O 742.046 8.74358 -0.335205 0
M  V30 4163 C 742.536 6.83093 -1.70294 0
M  V30 4164 C 741.826 5.79992 -0.836974 0
M  V30 4165 N 741.876 4.41864 -1.38293 0
M  V30 4166 H 739.037 8.13644 -3.0377 0
M  V30 4167 H 738.767 6.42788 -2.55485 0
M  V30 4168 H 739.634 8.12039 -0.792769 0
M  V30 4169 P 743.596 8.91 5.14336e-12 0
M  V30 4170 O 743.816 10.1726 0.733694 0
M  V30 4171 O 744.386 8.73148 -1.23936 0
M  V30 4172 O 743.846 7.66872 0.971405 0
M  V30 4173 C 742.906 7.42309 2.04641 0
M  V30 4174 C 743.636 6.86059 3.24661 0
M  V30 4175 O 743.846 5.42847 3.03646 0
M  V30 4176 C 745.036 7.41196 3.50753 0
M  V30 4177 O 745.426 7.27073 4.86816 0
M  V30 4178 C 745.916 6.5273 2.63741 0
M  V30 4179 C 745.206 5.1842 2.73198 0
M  V30 4180 N 745.256 4.38762 1.4784 0
M  V30 4181 H 742.417 8.36803 2.32493 0
M  V30 4182 H 742.147 6.70197 1.71129 0
M  V30 4183 H 743.014 7.03551 4.13168 0
M  V30 4184 P 746.976 7.20834 5.23717 0
M  V30 4185 O 747.196 7.79853 6.57286 0
M  V30 4186 O 747.766 7.79239 4.12957 0
M  V30 4187 O 747.226 5.63315 5.29344 0
M  V30 4188 C 746.286 4.80255 6.01876 0
M  V30 4189 C 747.016 3.64202 6.65911 0
M  V30 4190 O 747.226 2.60694 5.64732 0
M  V30 4191 C 748.416 3.93473 7.1943 0
M  V30 4192 O 748.806 3.02071 8.21205 0
M  V30 4193 C 749.296 3.73047 5.97036 0
M  V30 4194 C 748.586 2.58828 5.25741 0
M  V30 4195 N 748.636 2.68068 3.77503 0
M  V30 4196 H 745.797 5.40332 6.79951 0
M  V30 4197 H 745.527 4.41613 5.32378 0
M  V30 4198 H 746.394 3.26331 7.47797 0
M  V30 4199 P 750.356 2.75334 8.47391 0
M  V30 4200 O 750.576 2.44571 9.90142 0
M  V30 4201 O 751.146 3.87688 7.92115 0
M  V30 4202 O 750.606 1.4459 7.59357 0
M  V30 4203 C 749.666 0.347608 7.69215 0
M  V30 4204 C 750.396 -0.96767 7.52806 0
M  V30 4205 O 750.606 -1.21036 6.1011 0
M  V30 4206 C 751.796 -1.04544 8.13308 0
M  V30 4207 O 752.186 -2.38311 8.41922 0
M  V30 4208 C 752.676 -0.491279 7.02284 0
M  V30 4209 C 751.966 -0.996264 5.77469 0
M  V30 4210 N 752.016 -0.0501916 4.62973 0
M  V30 4211 H 749.177 0.374722 8.67691 0
M  V30 4212 H 748.907 0.443485 6.90277 0
M  V30 4213 H 749.774 -1.75537 7.96793 0
M  V30 4214 P 753.736 -2.75334 8.47391 0
M  V30 4215 O 753.956 -3.84128 9.44797 0
M  V30 4216 O 754.526 -1.51947 8.68712 0
M  V30 4217 O 753.986 -3.29363 6.99321 0
M  V30 4218 C 753.046 -4.24011 6.4274 0
M  V30 4219 C 753.776 -5.20775 5.52155 0
M  V30 4220 O 753.986 -4.56534 4.22446 0
M  V30 4221 C 755.176 -5.62629 5.96531 0
M  V30 4222 O 755.566 -6.87667 5.41053 0
M  V30 4223 C 756.056 -4.52537 5.39283 0
M  V30 4224 C 755.346 -4.20027 4.08623 0
M  V30 4225 N 755.396 -2.76189 3.71603 0
M  V30 4226 H 752.557 -4.797 7.24003 0
M  V30 4227 H 752.287 -3.69856 5.84513 0
M  V30 4228 H 753.154 -6.10356 5.41441 0
M  V30 4229 P 757.116 -7.20834 5.23717 0
M  V30 4230 O 757.336 -8.66104 5.38572 0
M  V30 4231 O 757.906 -6.33544 6.1349 0
M  V30 4232 O 757.366 -6.7751 3.72168 0
M  V30 4233 C 756.426 -7.20825 2.7076 0
M  V30 4234 C 757.156 -7.45864 1.40599 0
M  V30 4235 O 757.366 -6.17651 0.734225 0
M  V30 4236 C 758.556 -8.05808 1.51899 0
M  V30 4237 O 758.946 -8.74358 0.335205 0
M  V30 4238 C 759.436 -6.83093 1.70294 0
M  V30 4239 C 758.726 -5.79992 0.836974 0
M  V30 4240 N 758.776 -4.41864 1.38293 0
M  V30 4241 H 755.937 -8.13644 3.0377 0
M  V30 4242 H 755.667 -6.42788 2.55485 0
M  V30 4243 H 756.534 -8.12039 0.792769 0
M  V30 4244 P 760.496 -8.91 -5.30054e-12 0
M  V30 4245 O 760.716 -10.1726 -0.733694 0
M  V30 4246 O 761.286 -8.73148 1.23936 0
M  V30 4247 O 760.746 -7.66872 -0.971405 0
M  V30 4248 C 759.806 -7.42309 -2.04641 0
M  V30 4249 C 760.536 -6.86059 -3.24661 0
M  V30 4250 O 760.746 -5.42847 -3.03646 0
M  V30 4251 C 761.936 -7.41196 -3.50753 0
M  V30 4252 O 762.326 -7.27073 -4.86816 0
M  V30 4253 C 762.816 -6.5273 -2.63741 0
M  V30 4254 C 762.106 -5.1842 -2.73198 0
M  V30 4255 N 762.156 -4.38762 -1.4784 0
M  V30 4256 H 759.317 -8.36803 -2.32493 0
M  V30 4257 H 759.047 -6.70197 -1.71129 0
M  V30 4258 H 759.914 -7.03551 -4.13168 0
M  V30 4259 P 763.875 -7.20834 -5.23717 0
M  V30 4260 O 764.095 -7.79853 -6.57286 0
M  V30 4261 O 764.665 -7.79239 -4.12957 0
M  V30 4262 O 764.125 -5.63315 -5.29344 0
M  V30 4263 C 763.185 -4.80255 -6.01876 0
M  V30 4264 C 763.915 -3.64202 -6.65911 0
M  V30 4265 O 764.125 -2.60694 -5.64732 0
M  V30 4266 C 765.315 -3.93473 -7.1943 0
M  V30 4267 O 765.705 -3.02071 -8.21205 0
M  V30 4268 C 766.195 -3.73047 -5.97036 0
M  V30 4269 C 765.485 -2.58828 -5.25741 0
M  V30 4270 N 765.535 -2.68068 -3.77503 0
M  V30 4271 H 762.696 -5.40332 -6.79951 0
M  V30 4272 H 762.426 -4.41613 -5.32378 0
M  V30 4273 H 763.293 -3.26331 -7.47797 0
M  V30 4274 P 767.255 -2.75334 -8.47391 0
M  V30 4275 O 767.475 -2.44619 -9.90336 0
M  V30 4276 O 768.045 -3.87776 -7.92294 0
M  V30 4277 O 767.505 -1.4459 -7.59357 0
M  V30 4278 C 766.565 -0.347653 -7.69315 0
M  V30 4279 C 767.295 0.96767 -7.52806 0
M  V30 4280 O 767.505 1.21055 -6.10208 0
M  V30 4281 C 768.695 1.04557 -8.13408 0
M  V30 4282 O 769.085 2.38311 -8.41922 0
M  V30 4283 C 769.575 0.491279 -7.02284 0
M  V30 4284 C 768.865 0.996264 -5.77469 0
M  V30 4285 N 768.915 0.0501916 -4.62973 0
M  V30 4286 H 766.077 -0.374765 -8.67791 0
M  V30 4287 H 765.805 -0.443613 -6.90476 0
M  V30 4288 H 766.673 1.75559 -7.96891 0
M  V30 4289 H 769.328 1.94563 -5.46818 0
M  V30 4290 H 769.608 -0.608651 -7.04676 0
M  V30 4291 H 770.599 0.889796 -7.09039 0
M  V30 4292 H 768.765 0.433128 -9.04664 0
M  V30 4293 P 770.635 2.75334 -8.47391 0
M  V30 4294 O 770.855 3.84128 -9.44797 0
M  V30 4295 O 771.425 1.51947 -8.68712 0
M  V30 4296 O 770.885 3.29363 -6.99321 0
M  V30 4297 C 769.945 4.24011 -6.4274 0
M  V30 4298 C 770.675 5.20775 -5.52155 0
M  V30 4299 O 770.885 4.56534 -4.22446 0
M  V30 4300 C 772.075 5.62629 -5.96531 0
M  V30 4301 O 772.465 6.87667 -5.41053 0
M  V30 4302 C 772.955 4.52537 -5.39283 0
M  V30 4303 C 772.245 4.20027 -4.08623 0
M  V30 4304 N 772.295 2.76189 -3.71603 0
M  V30 4305 H 769.456 4.797 -7.24003 0
M  V30 4306 H 769.186 3.69856 -5.84513 0
M  V30 4307 H 770.053 6.10356 -5.41441 0
M  V30 4308 P 774.015 7.20834 -5.23717 0
M  V30 4309 O 774.235 8.66104 -5.38572 0
M  V30 4310 O 774.805 6.33544 -6.1349 0
M  V30 4311 O 774.265 6.7751 -3.72168 0
M  V30 4312 C 773.325 7.20825 -2.7076 0
M  V30 4313 C 774.055 7.45864 -1.40599 0
M  V30 4314 O 774.265 6.17651 -0.734225 0
M  V30 4315 C 775.455 8.05808 -1.51899 0
M  V30 4316 O 775.845 8.74358 -0.335205 0
M  V30 4317 C 776.335 6.83093 -1.70294 0
M  V30 4318 C 775.625 5.79992 -0.836974 0
M  V30 4319 N 775.675 4.41864 -1.38293 0
M  V30 4320 H 772.836 8.13644 -3.0377 0
M  V30 4321 H 772.566 6.42788 -2.55485 0
M  V30 4322 H 773.433 8.12039 -0.792769 0
M  V30 4323 P 777.395 8.91 5.45772e-12 0
M  V30 4324 O 777.615 10.1726 0.733694 0
M  V30 4325 O 778.185 8.73148 -1.23936 0
M  V30 4326 O 777.645 7.66872 0.971405 0
M  V30 4327 C 776.705 7.42309 2.04641 0
M  V30 4328 C 777.435 6.86059 3.24661 0
M  V30 4329 O 777.645 5.42847 3.03646 0
M  V30 4330 C 778.835 7.41196 3.50753 0
M  V30 4331 O 779.225 7.27073 4.86816 0
M  V30 4332 C 779.715 6.5273 2.63741 0
M  V30 4333 C 779.005 5.1842 2.73198 0
M  V30 4334 N 779.055 4.38762 1.4784 0
M  V30 4335 H 776.216 8.36803 2.32493 0
M  V30 4336 H 775.946 6.70197 1.71129 0
M  V30 4337 H 776.813 7.03551 4.13168 0
M  V30 4338 P 780.775 7.20834 5.23717 0
M  V30 4339 O 780.995 7.79853 6.57286 0
M  V30 4340 O 781.565 7.79239 4.12957 0
M  V30 4341 O 781.025 5.63315 5.29344 0
M  V30 4342 C 780.085 4.80255 6.01876 0
M  V30 4343 C 780.815 3.64202 6.65911 0
M  V30 4344 O 781.025 2.60694 5.64732 0
M  V30 4345 C 782.215 3.93473 7.1943 0
M  V30 4346 O 782.605 3.02071 8.21205 0
M  V30 4347 C 783.095 3.73047 5.97036 0
M  V30 4348 C 782.385 2.58828 5.25741 0
M  V30 4349 N 782.435 2.68068 3.77503 0
M  V30 4350 H 779.596 5.40332 6.79951 0
M  V30 4351 H 779.326 4.41613 5.32378 0
M  V30 4352 H 780.193 3.26331 7.47797 0
M  V30 4353 P 784.155 2.75334 8.47391 0
M  V30 4354 O 784.375 2.44571 9.90142 0
M  V30 4355 O 784.945 3.87688 7.92115 0
M  V30 4356 O 784.405 1.4459 7.59357 0
M  V30 4357 C 783.465 0.347608 7.69215 0
M  V30 4358 C 784.195 -0.96767 7.52806 0
M  V30 4359 O 784.405 -1.21036 6.1011 0
M  V30 4360 C 785.595 -1.04544 8.13308 0
M  V30 4361 O 785.985 -2.38311 8.41922 0
M  V30 4362 C 786.475 -0.491279 7.02284 0
M  V30 4363 C 785.765 -0.996264 5.77469 0
M  V30 4364 N 785.815 -0.0501916 4.62973 0
M  V30 4365 H 782.976 0.374722 8.67691 0
M  V30 4366 H 782.706 0.443485 6.90277 0
M  V30 4367 H 783.573 -1.75537 7.96793 0
M  V30 4368 P 787.535 -2.75334 8.47391 0
M  V30 4369 O 787.755 -3.84128 9.44797 0
M  V30 4370 O 788.325 -1.51947 8.68712 0
M  V30 4371 O 787.785 -3.29363 6.99321 0
M  V30 4372 C 786.845 -4.24011 6.4274 0
M  V30 4373 C 787.575 -5.20775 5.52155 0
M  V30 4374 O 787.785 -4.56534 4.22446 0
M  V30 4375 C 788.975 -5.62629 5.96531 0
M  V30 4376 O 789.365 -6.87667 5.41053 0
M  V30 4377 C 789.855 -4.52537 5.39283 0
M  V30 4378 C 789.145 -4.20027 4.08623 0
M  V30 4379 N 789.195 -2.76189 3.71603 0
M  V30 4380 H 786.356 -4.797 7.24003 0
M  V30 4381 H 786.086 -3.69856 5.84513 0
M  V30 4382 H 786.953 -6.10356 5.41441 0
M  V30 4383 P 790.915 -7.20834 5.23717 0
M  V30 4384 O 791.135 -8.66104 5.38572 0
M  V30 4385 O 791.705 -6.33544 6.1349 0
M  V30 4386 O 791.165 -6.7751 3.72168 0
M  V30 4387 C 790.225 -7.20825 2.7076 0
M  V30 4388 C 790.955 -7.45864 1.40599 0
M  V30 4389 O 791.165 -6.17651 0.734225 0
M  V30 4390 C 792.355 -8.05808 1.51899 0
M  V30 4391 O 792.745 -8.74358 0.335205 0
M  V30 4392 C 793.235 -6.83093 1.70294 0
M  V30 4393 C 792.525 -5.79992 0.836974 0
M  V30 4394 N 792.575 -4.41864 1.38293 0
M  V30 4395 H 789.736 -8.13644 3.0377 0
M  V30 4396 H 789.466 -6.42788 2.55485 0
M  V30 4397 H 790.333 -8.12039 0.792769 0
M  V30 4398 P 794.295 -8.91 -5.6149e-12 0
M  V30 4399 O 794.515 -10.1726 -0.733694 0
M  V30 4400 O 795.085 -8.73148 1.23936 0
M  V30 4401 O 794.545 -7.66872 -0.971405 0
M  V30 4402 C 793.605 -7.42309 -2.04641 0
M  V30 4403 C 794.335 -6.86059 -3.24661 0
M  V30 4404 O 794.545 -5.42847 -3.03646 0
M  V30 4405 C 795.735 -7.41196 -3.50753 0
M  V30 4406 O 796.125 -7.27073 -4.86816 0
M  V30 4407 C 796.615 -6.5273 -2.63741 0
M  V30 4408 C 795.905 -5.1842 -2.73198 0
M  V30 4409 N 795.955 -4.38762 -1.4784 0
M  V30 4410 H 793.116 -8.36803 -2.32493 0
M  V30 4411 H 792.846 -6.70197 -1.71129 0
M  V30 4412 H 793.713 -7.03551 -4.13168 0
M  V30 4413 P 797.675 -7.20834 -5.23717 0
M  V30 4414 O 797.895 -7.80006 -6.57415 0
M  V30 4415 O 798.465 -7.79416 -4.13051 0
M  V30 4416 O 797.925 -5.63315 -5.29344 0
M  V30 4417 C 796.985 -4.80318 -6.01954 0
M  V30 4418 C 797.715 -3.64202 -6.65911 0
M  V30 4419 O 797.925 -2.60736 -5.64823 0
M  V30 4420 C 799.115 -3.93521 -7.19518 0
M  V30 4421 O 799.505 -3.02071 -8.21205 0
M  V30 4422 C 799.995 -3.73047 -5.97036 0
M  V30 4423 C 799.285 -2.58828 -5.25741 0
M  V30 4424 N 799.335 -2.68068 -3.77503 0
M  V30 4425 C 799.255 -3.80474 -2.99159 0
M  V30 4426 N 799.325 -3.55622 -1.71925 0
M  V30 4427 C 799.475 -2.1832 -1.65733 0
M  V30 4428 C 799.605 -1.28842 -0.572777 0
M  V30 4429 N 799.615 -1.66875 0.70098 0
M  V30 4430 N 799.725 0.016788 -0.859836 0
M  V30 4431 C 799.715 0.398145 -2.13316 0
M  V30 4432 N 799.595 -0.328224 -3.22333 0
M  V30 4433 C 799.475 -1.62992 -2.90383 0
M  V30 4434 H 796.497 -5.40394 -6.8003 0
M  V30 4435 H 796.225 -4.41741 -5.32532 0
M  V30 4436 H 797.093 -3.26371 -7.47889 0
M  V30 4437 H 799.748 -1.64007 -5.56746 0
M  V30 4438 H 800.028 -4.63439 -5.3432 0
M  V30 4439 H 801.019 -3.44776 -6.25925 0
M  V30 4440 H 799.185 -4.96707 -7.57347 0
M  V30 4441 H 799.144 -4.8089 -3.39924 0
M  V30 4442 H 799.525 -2.66547 0.941919 0
M  V30 4443 H 799.714 -0.965341 1.44766 0
M  V30 4444 H 799.822 1.46427 -2.29697 0
M  V30 4445 P 801.055 -2.75334 -8.47391 0
M  V30 4446 O 801.275 -2.44571 -9.90142 0
M  V30 4447 O 801.845 -3.87688 -7.92115 0
M  V30 4448 O 801.305 -1.4459 -7.59357 0
M  V30 4449 C 800.365 -0.347608 -7.69215 0
M  V30 4450 C 801.095 0.96767 -7.52806 0
M  V30 4451 O 801.305 1.21036 -6.1011 0
M  V30 4452 C 802.495 1.04544 -8.13308 0
M  V30 4453 O 802.885 2.38311 -8.41922 0
M  V30 4454 C 803.375 0.491279 -7.02284 0
M  V30 4455 C 802.665 0.996264 -5.77469 0
M  V30 4456 N 802.715 0.0501916 -4.62973 0
M  V30 4457 H 799.876 -0.374722 -8.67691 0
M  V30 4458 H 799.606 -0.443485 -6.90277 0
M  V30 4459 H 800.473 1.75537 -7.96793 0
M  V30 4460 P 804.435 2.75334 -8.47391 0
M  V30 4461 O 804.655 3.84204 -9.44982 0
M  V30 4462 O 805.225 1.51982 -8.68909 0
M  V30 4463 O 804.685 3.29363 -6.99321 0
M  V30 4464 C 803.745 4.24066 -6.42823 0
M  V30 4465 C 804.475 5.20775 -5.52155 0
M  V30 4466 O 804.685 4.56607 -4.22514 0
M  V30 4467 C 805.875 5.62697 -5.96604 0
M  V30 4468 O 806.265 6.87667 -5.41053 0
M  V30 4469 C 806.755 4.52537 -5.39283 0
M  V30 4470 C 806.045 4.20027 -4.08623 0
M  V30 4471 N 806.095 2.76189 -3.71603 0
M  V30 4472 H 803.257 4.79756 -7.24086 0
M  V30 4473 H 802.985 3.69963 -5.84682 0
M  V30 4474 H 803.853 6.10431 -5.41508 0
M  V30 4475 H 806.508 4.78816 -3.28024 0
M  V30 4476 H 806.788 3.64957 -6.05871 0
M  V30 4477 H 807.779 4.88748 -5.21323 0
M  V30 4478 H 805.945 5.66789 -7.0643 0
M  V30 4479 P 807.815 7.20834 -5.23717 0
M  V30 4480 O 808.035 8.66104 -5.38572 0
M  V30 4481 O 808.605 6.33544 -6.1349 0
M  V30 4482 O 808.065 6.7751 -3.72168 0
M  V30 4483 C 807.125 7.20825 -2.7076 0
M  V30 4484 C 807.855 7.45864 -1.40599 0
M  V30 4485 O 808.065 6.17651 -0.734225 0
M  V30 4486 C 809.255 8.05808 -1.51899 0
M  V30 4487 O 809.645 8.74358 -0.335205 0
M  V30 4488 C 810.135 6.83093 -1.70294 0
M  V30 4489 C 809.425 5.79992 -0.836974 0
M  V30 4490 N 809.475 4.41864 -1.38293 0
M  V30 4491 H 806.636 8.13644 -3.0377 0
M  V30 4492 H 806.366 6.42788 -2.55485 0
M  V30 4493 H 807.233 8.12039 -0.792769 0
M  V30 4494 P 811.195 8.91 5.77209e-12 0
M  V30 4495 O 811.415 10.1726 0.733694 0
M  V30 4496 O 811.985 8.73148 -1.23936 0
M  V30 4497 O 811.445 7.66872 0.971405 0
M  V30 4498 C 810.505 7.42309 2.04641 0
M  V30 4499 C 811.235 6.86059 3.24661 0
M  V30 4500 O 811.445 5.42847 3.03646 0
M  V30 4501 C 812.635 7.41196 3.50753 0
M  V30 4502 O 813.025 7.27073 4.86816 0
M  V30 4503 C 813.515 6.5273 2.63741 0
M  V30 4504 C 812.805 5.1842 2.73198 0
M  V30 4505 N 812.855 4.38762 1.4784 0
M  V30 4506 C 812.775 4.81605 0.168631 0
M  V30 4507 N 812.855 3.85454 -0.713363 0
M  V30 4508 C 812.995 2.6994 0.0566958 0
M  V30 4509 C 813.125 1.34815 -0.338502 0
M  V30 4510 N 813.245 0.496304 0.77465 0
M  V30 4511 C 813.245 0.908403 2.09122 0
M  V30 4512 N 813.375 -0.0517805 3.00955 0
M  V30 4513 N 813.115 2.17875 2.46519 0
M  V30 4514 C 812.995 3.01988 1.4033 0
M  V30 4515 H 810.016 8.36803 2.32493 0
M  V30 4516 H 809.746 6.70197 1.71129 0
M  V30 4517 H 810.613 7.03551 4.13168 0
M  V30 4518 P 814.575 7.20834 5.23717 0
M  V30 4519 O 814.795 7.79853 6.57286 0
M  V30 4520 O 815.365 7.79239 4.12957 0
M  V30 4521 O 814.825 5.63315 5.29344 0
M  V30 4522 C 813.885 4.80255 6.01876 0
M  V30 4523 C 814.615 3.64202 6.65911 0
M  V30 4524 O 814.825 2.60694 5.64732 0
M  V30 4525 C 816.015 3.93473 7.1943 0
M  V30 4526 O 816.405 3.02071 8.21205 0
M  V30 4527 C 816.895 3.73047 5.97036 0
M  V30 4528 C 816.185 2.58828 5.25741 0
M  V30 4529 N 816.235 2.68068 3.77503 0
M  V30 4530 C 816.155 3.79715 2.96723 0
M  V30 4531 N 816.235 3.5377 1.68852 0
M  V30 4532 C 816.375 2.15054 1.63254 0
M  V30 4533 C 816.505 1.28964 0.518571 0
M  V30 4534 N 816.625 -0.0538097 0.918425 0
M  V30 4535 C 816.625 -0.494275 2.22578 0
M  V30 4536 N 816.755 -1.81086 2.40434 0
M  V30 4537 N 816.495 0.313645 3.27502 0
M  V30 4538 C 816.375 1.61829 2.91033 0
M  V30 4539 H 813.396 5.40332 6.79951 0
M  V30 4540 H 813.126 4.41613 5.32378 0
M  V30 4541 H 813.993 3.26331 7.47797 0
M  V30 4542 P 817.955 2.75334 8.47391 0
M  V30 4543 O 818.175 2.44619 9.90336 0
M  V30 4544 O 818.745 3.87776 7.92294 0
M  V30 4545 O 818.205 1.4459 7.59357 0
M  V30 4546 C 817.265 0.347653 7.69315 0
M  V30 4547 C 817.995 -0.96767 7.52806 0
M  V30 4548 O 818.205 -1.21055 6.10208 0
M  V30 4549 C 819.395 -1.04557 8.13408 0
M  V30 4550 O 819.785 -2.38311 8.41922 0
M  V30 4551 C 820.275 -0.491279 7.02284 0
M  V30 4552 C 819.565 -0.996264 5.77469 0
M  V30 4553 N 819.615 -0.0501916 4.62973 0
M  V30 4554 C 819.535 1.31969 4.65661 0
M  V30 4555 N 819.605 1.86649 3.48119 0
M  V30 4556 C 819.755 0.792089 2.62406 0
M  V30 4557 C 819.885 0.705684 1.2207 0
M  V30 4558 N 819.895 1.76207 0.413762 0
M  V30 4559 N 820.005 -0.518981 0.685754 0
M  V30 4560 C 819.995 -1.57595 1.49174 0
M  V30 4561 N 819.875 -1.62909 2.80066 0
M  V30 4562 C 819.755 -0.388195 3.3073 0
M  V30 4563 H 816.777 0.374765 8.67791 0
M  V30 4564 H 816.505 0.443613 6.90476 0
M  V30 4565 H 817.373 -1.75559 7.96891 0
M  V30 4566 H 820.028 -1.94563 5.46818 0
M  V30 4567 H 820.308 0.608651 7.04676 0
M  V30 4568 H 821.299 -0.889796 7.09039 0
M  V30 4569 H 819.465 -0.433128 9.04664 0
M  V30 4570 H 819.424 1.89246 5.57664 0
M  V30 4571 H 819.805 2.71005 0.804694 0
M  V30 4572 H 819.994 1.63189 -0.603768 0
M  V30 4573 H 820.102 -2.53475 0.997614 0
M  V30 4574 P 821.335 -2.75334 8.47391 0
M  V30 4575 O 821.555 -3.84166 9.4489 0
M  V30 4576 O 822.125 -1.51964 8.6881 0
M  V30 4577 O 821.585 -3.29363 6.99321 0
M  V30 4578 C 820.645 -4.23956 6.42656 0
M  V30 4579 C 821.375 -5.20775 5.52155 0
M  V30 4580 O 821.585 -4.56534 4.22446 0
M  V30 4581 C 822.775 -5.62629 5.96531 0
M  V30 4582 O 823.165 -6.87667 5.41053 0
M  V30 4583 C 823.655 -4.52537 5.39283 0
M  V30 4584 C 822.945 -4.20027 4.08623 0
M  V30 4585 N 822.995 -2.7613 3.71522 0
M  V30 4586 C 823.145 -2.45612 2.37989 0
M  V30 4587 O 823.235 -3.30919 1.51621 0
M  V30 4588 N 823.185 -1.10684 2.08435 0
M  V30 4589 C 823.095 -0.0690084 2.9792 0
M  V30 4590 C 822.945 -0.481522 4.35345 0
M  V30 4591 C 822.895 -1.78906 4.67968 0
M  V30 4592 H 820.155 -4.797 7.24003 0
M  V30 4593 H 819.886 -3.69802 5.84429 0
M  V30 4594 H 820.753 -6.10356 5.41441 0
M  V30 4595 H 823.408 -4.78651 3.27911 0
M  V30 4596 H 823.687 -3.64957 6.05871 0
M  V30 4597 H 824.679 -4.8868 5.2125 0
M  V30 4598 H 822.845 -5.66726 7.06352 0
M  V30 4599 H 822.774 -2.07737 5.72367 0
M  V30 4600 P 824.715 -7.20834 5.23717 0
M  V30 4601 O 824.935 -8.66104 5.38572 0
M  V30 4602 O 825.505 -6.33544 6.1349 0
M  V30 4603 O 824.965 -6.7751 3.72168 0
M  V30 4604 C 824.025 -7.20825 2.7076 0
M  V30 4605 C 824.755 -7.45864 1.40599 0
M  V30 4606 O 824.965 -6.17651 0.734225 0
M  V30 4607 C 826.155 -8.05808 1.51899 0
M  V30 4608 O 826.545 -8.74358 0.335205 0
M  V30 4609 C 827.035 -6.83093 1.70294 0
M  V30 4610 C 826.325 -5.79992 0.836974 0
M  V30 4611 N 826.375 -4.41864 1.38293 0
M  V30 4612 H 823.536 -8.13644 3.0377 0
M  V30 4613 H 823.266 -6.42788 2.55485 0
M  V30 4614 H 824.133 -8.12039 0.792769 0
M  V30 4615 P 828.095 -8.91 -5.92927e-12 0
M  V30 4616 O 828.315 -10.1726 -0.733694 0
M  V30 4617 O 828.885 -8.73148 1.23936 0
M  V30 4618 O 828.345 -7.66872 -0.971405 0
M  V30 4619 C 827.405 -7.42309 -2.04641 0
M  V30 4620 C 828.135 -6.86059 -3.24661 0
M  V30 4621 O 828.345 -5.42847 -3.03646 0
M  V30 4622 C 829.535 -7.41196 -3.50753 0
M  V30 4623 O 829.925 -7.27073 -4.86816 0
M  V30 4624 C 830.415 -6.5273 -2.63741 0
M  V30 4625 C 829.705 -5.1842 -2.73198 0
M  V30 4626 N 829.755 -4.38762 -1.4784 0
M  V30 4627 H 826.916 -8.36803 -2.32493 0
M  V30 4628 H 826.646 -6.70197 -1.71129 0
M  V30 4629 H 827.513 -7.03551 -4.13168 0
M  V30 4630 P 831.475 -7.20834 -5.23717 0
M  V30 4631 O 831.695 -7.80006 -6.57415 0
M  V30 4632 O 832.265 -7.79416 -4.13051 0
M  V30 4633 O 831.725 -5.63315 -5.29344 0
M  V30 4634 C 830.785 -4.80318 -6.01954 0
M  V30 4635 C 831.515 -3.64202 -6.65911 0
M  V30 4636 O 831.725 -2.60736 -5.64823 0
M  V30 4637 C 832.915 -3.93521 -7.19518 0
M  V30 4638 O 833.305 -3.02071 -8.21205 0
M  V30 4639 C 833.795 -3.73047 -5.97036 0
M  V30 4640 C 833.085 -2.58828 -5.25741 0
M  V30 4641 N 833.135 -2.68068 -3.77503 0
M  V30 4642 C 833.055 -3.80474 -2.99159 0
M  V30 4643 N 833.125 -3.55622 -1.71925 0
M  V30 4644 C 833.275 -2.1832 -1.65733 0
M  V30 4645 C 833.405 -1.28842 -0.572777 0
M  V30 4646 N 833.415 -1.66875 0.70098 0
M  V30 4647 N 833.525 0.016788 -0.859836 0
M  V30 4648 C 833.515 0.398145 -2.13316 0
M  V30 4649 N 833.395 -0.328224 -3.22333 0
M  V30 4650 C 833.275 -1.62992 -2.90383 0
M  V30 4651 H 830.297 -5.40394 -6.8003 0
M  V30 4652 H 830.025 -4.41741 -5.32532 0
M  V30 4653 H 830.893 -3.26371 -7.47889 0
M  V30 4654 H 833.548 -1.64007 -5.56746 0
M  V30 4655 H 833.828 -4.63439 -5.3432 0
M  V30 4656 H 834.819 -3.44776 -6.25925 0
M  V30 4657 H 832.985 -4.96707 -7.57347 0
M  V30 4658 H 832.944 -4.8089 -3.39924 0
M  V30 4659 H 833.325 -2.66547 0.941919 0
M  V30 4660 H 833.514 -0.965341 1.44766 0
M  V30 4661 H 833.622 1.46427 -2.29697 0
M  V30 4662 P 834.855 -2.75334 -8.47391 0
M  V30 4663 O 835.075 -2.44571 -9.90142 0
M  V30 4664 O 835.645 -3.87688 -7.92115 0
M  V30 4665 O 835.105 -1.4459 -7.59357 0
M  V30 4666 C 834.165 -0.347608 -7.69215 0
M  V30 4667 C 834.895 0.96767 -7.52806 0
M  V30 4668 O 835.105 1.21036 -6.1011 0
M  V30 4669 C 836.295 1.04544 -8.13308 0
M  V30 4670 O 836.685 2.38311 -8.41922 0
M  V30 4671 C 837.175 0.491279 -7.02284 0
M  V30 4672 C 836.465 0.996264 -5.77469 0
M  V30 4673 N 836.515 0.0501916 -4.62973 0
M  V30 4674 C 836.435 -1.32786 -4.63244 0
M  V30 4675 N 836.515 -1.86957 -3.44545 0
M  V30 4676 C 836.655 -0.780241 -2.58481 0
M  V30 4677 C 836.785 -0.738536 -1.17757 0
M  V30 4678 O 836.805 -1.66794 -0.372349 0
M  V30 4679 N 836.905 0.58337 -0.711393 0
M  V30 4680 C 836.905 1.70816 -1.51017 0
M  V30 4681 N 837.035 2.87826 -0.880757 0
M  V30 4682 N 836.775 1.67126 -2.8339 0
M  V30 4683 C 836.655 0.401421 -3.30572 0
M  V30 4684 H 833.676 -0.374722 -8.67691 0
M  V30 4685 H 833.406 -0.443485 -6.90277 0
M  V30 4686 H 834.273 1.75537 -7.96793 0
M  V30 4687 H 836.928 1.95076 -5.46529 0
M  V30 4688 H 837.207 -0.608565 -7.04577 0
M  V30 4689 H 838.199 0.889672 -7.08939 0
M  V30 4690 H 836.365 0.43308 -9.04564 0
M  V30 4691 H 836.316 -1.91249 -5.54442 0
M  V30 4692 H 836.998 0.718054 0.275244 0
M  V30 4693 H 837.035 3.75721 -1.41832 0
M  V30 4694 H 837.136 2.90436 0.145468 0
M  V30 4695 P 838.235 2.75334 -8.47391 0
M  V30 4696 O 838.455 3.84128 -9.44797 0
M  V30 4697 O 839.025 1.51947 -8.68712 0
M  V30 4698 O 838.485 3.29363 -6.99321 0
M  V30 4699 C 837.545 4.24011 -6.4274 0
M  V30 4700 C 838.275 5.20775 -5.52155 0
M  V30 4701 O 838.485 4.56534 -4.22446 0
M  V30 4702 C 839.675 5.62629 -5.96531 0
M  V30 4703 O 840.065 6.87667 -5.41053 0
M  V30 4704 C 840.555 4.52537 -5.39283 0
M  V30 4705 C 839.845 4.20027 -4.08623 0
M  V30 4706 N 839.895 2.76189 -3.71603 0
M  V30 4707 H 837.056 4.797 -7.24003 0
M  V30 4708 H 836.786 3.69856 -5.84513 0
M  V30 4709 H 837.653 6.10356 -5.41441 0
M  V30 4710 P 841.615 7.20834 -5.23717 0
M  V30 4711 O 841.835 8.66189 -5.38625 0
M  V30 4712 O 842.405 6.33615 -6.1356 0
M  V30 4713 O 841.865 6.7751 -3.72168 0
M  V30 4714 C 840.925 7.20732 -2.70725 0
M  V30 4715 C 841.655 7.45864 -1.40599 0
M  V30 4716 O 841.865 6.17651 -0.734225 0
M  V30 4717 C 843.055 8.05808 -1.51899 0
M  V30 4718 O 843.445 8.74358 -0.335205 0
M  V30 4719 C 843.935 6.83093 -1.70294 0
M  V30 4720 C 843.225 5.79992 -0.836974 0
M  V30 4721 N 843.275 4.41769 -1.38263 0
M  V30 4722 C 843.425 3.38591 -0.481702 0
M  V30 4723 O 843.515 3.56839 0.718452 0
M  V30 4724 N 843.465 2.1206 -1.03569 0
M  V30 4725 C 843.375 1.80696 -2.36966 0
M  V30 4726 O 843.425 0.630473 -2.74862 0
M  V30 4727 C 843.225 2.94845 -3.23898 0
M  V30 4728 C 843.115 2.65253 -4.70362 0
M  V30 4729 C 843.175 4.19803 -2.73435 0
M  V30 4730 H 840.435 8.13644 -3.0377 0
M  V30 4731 H 840.166 6.42695 -2.55448 0
M  V30 4732 H 841.033 8.12039 -0.792769 0
M  V30 4733 H 843.688 5.79978 0.160587 0
M  V30 4734 H 843.967 6.51379 -2.75643 0
M  V30 4735 H 844.959 7.01734 -1.34462 0
M  V30 4736 H 843.125 8.73674 -2.38337 0
M  V30 4737 H 843.054 5.04492 -3.4095 0
M  V30 4738 H 844.084 2.83924 -5.1913 0
M  V30 4739 H 842.347 3.29824 -5.15163 0
M  V30 4740 H 842.835 1.59723 -4.84449 0
M  V30 4741 H 843.571 1.35644 -0.399345 0
M  V30 4742 P 844.995 8.91 6.08645e-12 0
M  V30 4743 O 845.215 10.1726 0.733694 0
M  V30 4744 O 845.785 8.73148 -1.23936 0
M  V30 4745 O 845.245 7.66872 0.971405 0
M  V30 4746 C 844.305 7.42309 2.04641 0
M  V30 4747 C 845.035 6.86059 3.24661 0
M  V30 4748 O 845.245 5.42847 3.03646 0
M  V30 4749 C 846.435 7.41196 3.50753 0
M  V30 4750 O 846.825 7.27073 4.86816 0
M  V30 4751 C 847.315 6.5273 2.63741 0
M  V30 4752 C 846.605 5.1842 2.73198 0
M  V30 4753 N 846.655 4.38762 1.4784 0
M  V30 4754 H 843.816 8.36803 2.32493 0
M  V30 4755 H 843.546 6.70197 1.71129 0
M  V30 4756 H 844.413 7.03551 4.13168 0
M  V30 4757 P 848.375 7.20834 5.23717 0
M  V30 4758 O 848.595 7.79853 6.57286 0
M  V30 4759 O 849.165 7.79239 4.12957 0
M  V30 4760 O 848.625 5.63315 5.29344 0
M  V30 4761 C 847.685 4.80255 6.01876 0
M  V30 4762 C 848.415 3.64202 6.65911 0
M  V30 4763 O 848.625 2.60694 5.64732 0
M  V30 4764 C 849.815 3.93473 7.1943 0
M  V30 4765 O 850.205 3.02071 8.21205 0
M  V30 4766 C 850.695 3.73047 5.97036 0
M  V30 4767 C 849.985 2.58828 5.25741 0
M  V30 4768 N 850.035 2.68068 3.77503 0
M  V30 4769 H 847.196 5.40332 6.79951 0
M  V30 4770 H 846.926 4.41613 5.32378 0
M  V30 4771 H 847.793 3.26331 7.47797 0
M  V30 4772 P 851.755 2.75334 8.47391 0
M  V30 4773 O 851.975 2.44571 9.90142 0
M  V30 4774 O 852.545 3.87688 7.92115 0
M  V30 4775 O 852.005 1.4459 7.59357 0
M  V30 4776 C 851.065 0.347608 7.69215 0
M  V30 4777 C 851.795 -0.96767 7.52806 0
M  V30 4778 O 852.005 -1.21036 6.1011 0
M  V30 4779 C 853.195 -1.04544 8.13308 0
M  V30 4780 O 853.585 -2.38311 8.41922 0
M  V30 4781 C 854.075 -0.491279 7.02284 0
M  V30 4782 C 853.365 -0.996264 5.77469 0
M  V30 4783 N 853.415 -0.0501916 4.62973 0
M  V30 4784 H 850.576 0.374722 8.67691 0
M  V30 4785 H 850.306 0.443485 6.90277 0
M  V30 4786 H 851.173 -1.75537 7.96793 0
M  V30 4787 P 855.135 -2.75334 8.47391 0
M  V30 4788 O 855.355 -3.84128 9.44797 0
M  V30 4789 O 855.925 -1.51947 8.68712 0
M  V30 4790 O 855.385 -3.29363 6.99321 0
M  V30 4791 C 854.445 -4.24011 6.4274 0
M  V30 4792 C 855.175 -5.20775 5.52155 0
M  V30 4793 O 855.385 -4.56534 4.22446 0
M  V30 4794 C 856.575 -5.62629 5.96531 0
M  V30 4795 O 856.965 -6.87667 5.41053 0
M  V30 4796 C 857.455 -4.52537 5.39283 0
M  V30 4797 C 856.745 -4.20027 4.08623 0
M  V30 4798 N 856.795 -2.76189 3.71603 0
M  V30 4799 H 853.956 -4.797 7.24003 0
M  V30 4800 H 853.686 -3.69856 5.84513 0
M  V30 4801 H 854.553 -6.10356 5.41441 0
M  V30 4802 P 858.515 -7.20834 5.23717 0
M  V30 4803 O 858.735 -8.66104 5.38572 0
M  V30 4804 O 859.305 -6.33544 6.1349 0
M  V30 4805 O 858.765 -6.7751 3.72168 0
M  V30 4806 C 857.825 -7.20825 2.7076 0
M  V30 4807 C 858.555 -7.45864 1.40599 0
M  V30 4808 O 858.765 -6.17651 0.734225 0
M  V30 4809 C 859.955 -8.05808 1.51899 0
M  V30 4810 O 860.345 -8.74358 0.335205 0
M  V30 4811 C 860.835 -6.83093 1.70294 0
M  V30 4812 C 860.125 -5.79992 0.836974 0
M  V30 4813 N 860.175 -4.41864 1.38293 0
M  V30 4814 H 857.336 -8.13644 3.0377 0
M  V30 4815 H 857.066 -6.42788 2.55485 0
M  V30 4816 H 857.933 -8.12039 0.792769 0
M  V30 4817 P 861.895 -8.91 -6.24363e-12 0
M  V30 4818 O 862.115 -10.1726 -0.733694 0
M  V30 4819 O 862.685 -8.73148 1.23936 0
M  V30 4820 O 862.145 -7.66872 -0.971405 0
M  V30 4821 C 861.205 -7.42309 -2.04641 0
M  V30 4822 C 861.935 -6.86059 -3.24661 0
M  V30 4823 O 862.145 -5.42847 -3.03646 0
M  V30 4824 C 863.335 -7.41196 -3.50753 0
M  V30 4825 O 863.725 -7.27073 -4.86816 0
M  V30 4826 C 864.215 -6.5273 -2.63741 0
M  V30 4827 C 863.505 -5.1842 -2.73198 0
M  V30 4828 N 863.555 -4.38762 -1.4784 0
M  V30 4829 H 860.716 -8.36803 -2.32493 0
M  V30 4830 H 860.446 -6.70197 -1.71129 0
M  V30 4831 H 861.313 -7.03551 -4.13168 0
M  V30 4832 P 865.275 -7.20834 -5.23717 0
M  V30 4833 O 865.495 -7.79853 -6.57286 0
M  V30 4834 O 866.065 -7.79239 -4.12957 0
M  V30 4835 O 865.525 -5.63315 -5.29344 0
M  V30 4836 C 864.585 -4.80255 -6.01876 0
M  V30 4837 C 865.315 -3.64202 -6.65911 0
M  V30 4838 O 865.525 -2.60694 -5.64732 0
M  V30 4839 C 866.715 -3.93473 -7.1943 0
M  V30 4840 O 867.105 -3.02071 -8.21205 0
M  V30 4841 C 867.595 -3.73047 -5.97036 0
M  V30 4842 C 866.885 -2.58828 -5.25741 0
M  V30 4843 N 866.935 -2.68068 -3.77503 0
M  V30 4844 H 864.096 -5.40332 -6.79951 0
M  V30 4845 H 863.826 -4.41613 -5.32378 0
M  V30 4846 H 864.693 -3.26331 -7.47797 0
M  V30 4847 P 868.655 -2.75334 -8.47391 0
M  V30 4848 O 868.875 -2.44571 -9.90142 0
M  V30 4849 O 869.445 -3.87688 -7.92115 0
M  V30 4850 O 868.905 -1.4459 -7.59357 0
M  V30 4851 C 867.965 -0.347608 -7.69215 0
M  V30 4852 C 868.695 0.96767 -7.52806 0
M  V30 4853 O 868.905 1.21036 -6.1011 0
M  V30 4854 C 870.095 1.04544 -8.13308 0
M  V30 4855 O 870.485 2.38311 -8.41922 0
M  V30 4856 C 870.975 0.491279 -7.02284 0
M  V30 4857 C 870.265 0.996264 -5.77469 0
M  V30 4858 N 870.315 0.0501916 -4.62973 0
M  V30 4859 H 867.476 -0.374722 -8.67691 0
M  V30 4860 H 867.206 -0.443485 -6.90277 0
M  V30 4861 H 868.073 1.75537 -7.96793 0
M  V30 4862 P 872.035 2.75334 -8.47391 0
M  V30 4863 O 872.255 3.84128 -9.44797 0
M  V30 4864 O 872.825 1.51947 -8.68712 0
M  V30 4865 O 872.285 3.29363 -6.99321 0
M  V30 4866 C 871.345 4.24011 -6.4274 0
M  V30 4867 C 872.075 5.20775 -5.52155 0
M  V30 4868 O 872.285 4.56534 -4.22446 0
M  V30 4869 C 873.475 5.62629 -5.96531 0
M  V30 4870 O 873.865 6.87667 -5.41053 0
M  V30 4871 C 874.355 4.52537 -5.39283 0
M  V30 4872 C 873.645 4.20027 -4.08623 0
M  V30 4873 N 873.695 2.76189 -3.71603 0
M  V30 4874 C 873.615 1.64862 -4.52822 0
M  V30 4875 N 873.695 0.512671 -3.88633 0
M  V30 4876 C 873.835 0.888083 -2.54977 0
M  V30 4877 C 873.965 0.094668 -1.38677 0
M  V30 4878 O 873.985 -1.13053 -1.28163 0
M  V30 4879 N 874.085 0.890102 -0.232633 0
M  V30 4880 C 874.085 2.26958 -0.21772 0
M  V30 4881 N 874.215 2.84626 0.97925 0
M  V30 4882 N 873.955 3.0178 -1.31033 0
M  V30 4883 C 873.835 2.26781 -2.43843 0
M  V30 4884 H 870.856 4.797 -7.24003 0
M  V30 4885 H 870.586 3.69856 -5.84513 0
M  V30 4886 H 871.453 6.10356 -5.41441 0
M  V30 4887 H 874.108 4.79061 -3.27488 0
M  V30 4888 H 874.387 3.64906 -6.05785 0
M  V30 4889 H 875.379 4.8868 -5.2125 0
M  V30 4890 H 873.545 5.66726 -7.06352 0
M  V30 4891 H 873.496 1.71169 -5.60966 0
M  V30 4892 H 874.178 0.419134 0.644739 0
M  V30 4893 H 874.215 3.87332 1.06098 0
M  V30 4894 H 874.316 2.26417 1.82483 0
M  V30 4895 P 875.415 7.20834 -5.23717 0
M  V30 4896 O 875.635 8.66104 -5.38572 0
M  V30 4897 O 876.205 6.33544 -6.1349 0
M  V30 4898 O 875.665 6.7751 -3.72168 0
M  V30 4899 C 874.725 7.20825 -2.7076 0
M  V30 4900 C 875.455 7.45864 -1.40599 0
M  V30 4901 O 875.665 6.17651 -0.734225 0
M  V30 4902 C 876.855 8.05808 -1.51899 0
M  V30 4903 O 877.245 8.74358 -0.335205 0
M  V30 4904 C 877.735 6.83093 -1.70294 0
M  V30 4905 C 877.025 5.79992 -0.836974 0
M  V30 4906 N 877.075 4.41864 -1.38293 0
M  V30 4907 H 874.236 8.13644 -3.0377 0
M  V30 4908 H 873.966 6.42788 -2.55485 0
M  V30 4909 H 874.833 8.12039 -0.792769 0
M  V30 4910 P 878.795 8.91 6.40081e-12 0
M  V30 4911 O 879.015 10.1726 0.733694 0
M  V30 4912 O 879.585 8.73148 -1.23936 0
M  V30 4913 O 879.045 7.66872 0.971405 0
M  V30 4914 C 878.105 7.42309 2.04641 0
M  V30 4915 C 878.835 6.86059 3.24661 0
M  V30 4916 O 879.045 5.42847 3.03646 0
M  V30 4917 C 880.235 7.41196 3.50753 0
M  V30 4918 O 880.625 7.27073 4.86816 0
M  V30 4919 C 881.115 6.5273 2.63741 0
M  V30 4920 C 880.405 5.1842 2.73198 0
M  V30 4921 N 880.455 4.38762 1.4784 0
M  V30 4922 H 877.616 8.36803 2.32493 0
M  V30 4923 H 877.346 6.70197 1.71129 0
M  V30 4924 H 878.213 7.03551 4.13168 0
M  V30 4925 P 882.175 7.20834 5.23717 0
M  V30 4926 O 882.395 7.79853 6.57286 0
M  V30 4927 O 882.965 7.79239 4.12957 0
M  V30 4928 O 882.425 5.63315 5.29344 0
M  V30 4929 C 881.485 4.80255 6.01876 0
M  V30 4930 C 882.215 3.64202 6.65911 0
M  V30 4931 O 882.425 2.60694 5.64732 0
M  V30 4932 C 883.615 3.93473 7.1943 0
M  V30 4933 O 884.005 3.02071 8.21205 0
M  V30 4934 C 884.495 3.73047 5.97036 0
M  V30 4935 C 883.785 2.58828 5.25741 0
M  V30 4936 N 883.835 2.68068 3.77503 0
M  V30 4937 H 880.996 5.40332 6.79951 0
M  V30 4938 H 880.726 4.41613 5.32378 0
M  V30 4939 H 881.593 3.26331 7.47797 0
M  V30 4940 P 885.555 2.75334 8.47391 0
M  V30 4941 O 885.775 2.44571 9.90142 0
M  V30 4942 O 886.345 3.87688 7.92115 0
M  V30 4943 O 885.805 1.4459 7.59357 0
M  V30 4944 C 884.865 0.347608 7.69215 0
M  V30 4945 C 885.595 -0.96767 7.52806 0
M  V30 4946 O 885.805 -1.21036 6.1011 0
M  V30 4947 C 886.995 -1.04544 8.13308 0
M  V30 4948 O 887.385 -2.38311 8.41922 0
M  V30 4949 C 887.875 -0.491279 7.02284 0
M  V30 4950 C 887.165 -0.996264 5.77469 0
M  V30 4951 N 887.215 -0.0501916 4.62973 0
M  V30 4952 H 884.376 0.374722 8.67691 0
M  V30 4953 H 884.106 0.443485 6.90277 0
M  V30 4954 H 884.973 -1.75537 7.96793 0
M  V30 4955 P 888.935 -2.75334 8.47391 0
M  V30 4956 O 889.155 -3.84128 9.44797 0
M  V30 4957 O 889.725 -1.51947 8.68712 0
M  V30 4958 O 889.185 -3.29363 6.99321 0
M  V30 4959 C 888.245 -4.24011 6.4274 0
M  V30 4960 C 888.975 -5.20775 5.52155 0
M  V30 4961 O 889.185 -4.56534 4.22446 0
M  V30 4962 C 890.375 -5.62629 5.96531 0
M  V30 4963 O 890.765 -6.87667 5.41053 0
M  V30 4964 C 891.255 -4.52537 5.39283 0
M  V30 4965 C 890.545 -4.20027 4.08623 0
M  V30 4966 N 890.595 -2.76189 3.71603 0
M  V30 4967 H 887.756 -4.797 7.24003 0
M  V30 4968 H 887.486 -3.69856 5.84513 0
M  V30 4969 H 888.353 -6.10356 5.41441 0
M  V30 4970 P 892.315 -7.20834 5.23717 0
M  V30 4971 O 892.535 -8.66104 5.38572 0
M  V30 4972 O 893.105 -6.33544 6.1349 0
M  V30 4973 O 892.565 -6.7751 3.72168 0
M  V30 4974 C 891.625 -7.20825 2.7076 0
M  V30 4975 C 892.355 -7.45864 1.40599 0
M  V30 4976 O 892.565 -6.17651 0.734225 0
M  V30 4977 C 893.755 -8.05808 1.51899 0
M  V30 4978 O 894.145 -8.74358 0.335205 0
M  V30 4979 C 894.635 -6.83093 1.70294 0
M  V30 4980 C 893.925 -5.79992 0.836974 0
M  V30 4981 N 893.975 -4.41864 1.38293 0
M  V30 4982 H 891.136 -8.13644 3.0377 0
M  V30 4983 H 890.866 -6.42788 2.55485 0
M  V30 4984 H 891.733 -8.12039 0.792769 0
M  V30 4985 P 895.695 -8.91 -6.558e-12 0
M  V30 4986 O 895.915 -10.1726 -0.733694 0
M  V30 4987 O 896.485 -8.73148 1.23936 0
M  V30 4988 O 895.945 -7.66872 -0.971405 0
M  V30 4989 C 895.005 -7.42309 -2.04641 0
M  V30 4990 C 895.735 -6.86059 -3.24661 0
M  V30 4991 O 895.945 -5.42847 -3.03646 0
M  V30 4992 C 897.135 -7.41196 -3.50753 0
M  V30 4993 O 897.525 -7.27073 -4.86816 0
M  V30 4994 C 898.015 -6.5273 -2.63741 0
M  V30 4995 C 897.305 -5.1842 -2.73198 0
M  V30 4996 N 897.355 -4.38762 -1.4784 0
M  V30 4997 C 897.275 -4.81605 -0.168631 0
M  V30 4998 N 897.355 -3.85454 0.713363 0
M  V30 4999 C 897.495 -2.6994 -0.0566958 0
M  V30 5000 C 897.625 -1.34815 0.338502 0
M  V30 5001 O 897.645 -0.869548 1.47125 0
M  V30 5002 N 897.745 -0.496304 -0.77465 0
M  V30 5003 C 897.745 -0.908403 -2.09122 0
M  V30 5004 N 897.875 0.0517805 -3.00955 0
M  V30 5005 N 897.615 -2.17875 -2.46519 0
M  V30 5006 C 897.495 -3.01988 -1.4033 0
M  V30 5007 H 894.516 -8.36803 -2.32493 0
M  V30 5008 H 894.246 -6.70197 -1.71129 0
M  V30 5009 H 895.113 -7.03551 -4.13168 0
M  V30 5010 H 897.768 -4.59498 -3.54415 0
M  V30 5011 H 898.047 -6.88898 -1.59848 0
M  V30 5012 H 899.039 -6.46749 -3.03687 0
M  V30 5013 H 897.205 -8.46908 -3.20714 0
M  V30 5014 H 897.156 -5.86405 0.105564 0
M  V30 5015 H 897.838 0.483664 -0.597855 0
M  V30 5016 H 897.875 -0.187865 -4.0116 0
M  V30 5017 H 897.976 1.03585 -2.71726 0
M  V30 5018 P 899.075 -7.20834 -5.23717 0
M  V30 5019 O 899.295 -7.79853 -6.57286 0
M  V30 5020 O 899.865 -7.79239 -4.12957 0
M  V30 5021 O 899.325 -5.63315 -5.29344 0
M  V30 5022 C 898.385 -4.80255 -6.01876 0
M  V30 5023 C 899.115 -3.64202 -6.65911 0
M  V30 5024 O 899.325 -2.60694 -5.64732 0
M  V30 5025 C 900.515 -3.93473 -7.1943 0
M  V30 5026 O 900.905 -3.02071 -8.21205 0
M  V30 5027 C 901.395 -3.73047 -5.97036 0
M  V30 5028 C 900.685 -2.58828 -5.25741 0
M  V30 5029 N 900.735 -2.68068 -3.77503 0
M  V30 5030 H 897.896 -5.40332 -6.79951 0
M  V30 5031 H 897.626 -4.41613 -5.32378 0
M  V30 5032 H 898.493 -3.26331 -7.47797 0
M  V30 5033 P 902.455 -2.75334 -8.47391 0
M  V30 5034 O 902.675 -2.44571 -9.90142 0
M  V30 5035 O 903.245 -3.87688 -7.92115 0
M  V30 5036 O 902.705 -1.4459 -7.59357 0
M  V30 5037 C 901.765 -0.347608 -7.69215 0
M  V30 5038 C 902.495 0.96767 -7.52806 0
M  V30 5039 O 902.705 1.21036 -6.1011 0
M  V30 5040 C 903.895 1.04544 -8.13308 0
M  V30 5041 O 904.285 2.38311 -8.41922 0
M  V30 5042 C 904.775 0.491279 -7.02284 0
M  V30 5043 C 904.065 0.996264 -5.77469 0
M  V30 5044 N 904.115 0.0501916 -4.62973 0
M  V30 5045 C 904.035 -1.32786 -4.63244 0
M  V30 5046 N 904.115 -1.86957 -3.44545 0
M  V30 5047 C 904.255 -0.780241 -2.58481 0
M  V30 5048 C 904.385 -0.738536 -1.17757 0
M  V30 5049 N 904.505 0.58337 -0.711393 0
M  V30 5050 C 904.505 1.70816 -1.51017 0
M  V30 5051 N 904.635 2.87826 -0.880757 0
M  V30 5052 N 904.375 1.67126 -2.8339 0
M  V30 5053 C 904.255 0.401421 -3.30572 0
M  V30 5054 H 901.276 -0.374722 -8.67691 0
M  V30 5055 H 901.006 -0.443485 -6.90277 0
M  V30 5056 H 901.873 1.75537 -7.96793 0
M  V30 5057 P 905.835 2.75334 -8.47391 0
M  V30 5058 O 906.055 3.84128 -9.44797 0
M  V30 5059 O 906.625 1.51947 -8.68712 0
M  V30 5060 O 906.085 3.29363 -6.99321 0
M  V30 5061 C 905.145 4.24011 -6.4274 0
M  V30 5062 C 905.875 5.20775 -5.52155 0
M  V30 5063 O 906.085 4.56534 -4.22446 0
M  V30 5064 C 907.275 5.62629 -5.96531 0
M  V30 5065 O 907.665 6.87667 -5.41053 0
M  V30 5066 C 908.155 4.52537 -5.39283 0
M  V30 5067 C 907.445 4.20027 -4.08623 0
M  V30 5068 N 907.495 2.76189 -3.71603 0
M  V30 5069 H 904.656 4.797 -7.24003 0
M  V30 5070 H 904.386 3.69856 -5.84513 0
M  V30 5071 H 905.253 6.10356 -5.41441 0
M  V30 5072 P 909.215 7.20834 -5.23717 0
M  V30 5073 O 909.435 8.66189 -5.38625 0
M  V30 5074 O 910.005 6.33615 -6.1356 0
M  V30 5075 O 909.465 6.7751 -3.72168 0
M  V30 5076 C 908.525 7.20732 -2.70725 0
M  V30 5077 C 909.255 7.45864 -1.40599 0
M  V30 5078 O 909.465 6.17651 -0.734225 0
M  V30 5079 C 910.655 8.05808 -1.51899 0
M  V30 5080 O 911.045 8.74358 -0.335205 0
M  V30 5081 C 911.535 6.83093 -1.70294 0
M  V30 5082 C 910.825 5.79992 -0.836974 0
M  V30 5083 N 910.875 4.41769 -1.38263 0
M  V30 5084 C 911.025 3.38591 -0.481702 0
M  V30 5085 O 911.115 3.56839 0.718452 0
M  V30 5086 N 911.065 2.1206 -1.03569 0
M  V30 5087 C 910.975 1.80696 -2.36966 0
M  V30 5088 C 910.825 2.94845 -3.23898 0
M  V30 5089 C 910.775 4.19803 -2.73435 0
M  V30 5090 H 908.035 8.13644 -3.0377 0
M  V30 5091 H 907.766 6.42695 -2.55448 0
M  V30 5092 H 908.633 8.12039 -0.792769 0
M  V30 5093 H 911.288 5.79978 0.160587 0
M  V30 5094 H 911.567 6.51379 -2.75643 0
M  V30 5095 H 912.559 7.01734 -1.34462 0
M  V30 5096 H 910.725 8.73674 -2.38337 0
M  V30 5097 H 910.654 5.04492 -3.4095 0
M  V30 5098 P 912.595 8.91 6.71518e-12 0
M  V30 5099 O 912.815 10.1726 0.733694 0
M  V30 5100 O 913.385 8.73148 -1.23936 0
M  V30 5101 O 912.845 7.66872 0.971405 0
M  V30 5102 C 911.905 7.42309 2.04641 0
M  V30 5103 C 912.635 6.86059 3.24661 0
M  V30 5104 O 912.845 5.42847 3.03646 0
M  V30 5105 C 914.035 7.41196 3.50753 0
M  V30 5106 O 914.425 7.27073 4.86816 0
M  V30 5107 C 914.915 6.5273 2.63741 0
M  V30 5108 C 914.205 5.1842 2.73198 0
M  V30 5109 N 914.255 4.38762 1.4784 0
M  V30 5110 H 911.416 8.36803 2.32493 0
M  V30 5111 H 911.146 6.70197 1.71129 0
M  V30 5112 H 912.013 7.03551 4.13168 0
M  V30 5113 P 915.975 7.20834 5.23717 0
M  V30 5114 O 916.195 7.79853 6.57286 0
M  V30 5115 O 916.765 7.79239 4.12957 0
M  V30 5116 O 916.225 5.63315 5.29344 0
M  V30 5117 C 915.285 4.80255 6.01876 0
M  V30 5118 C 916.015 3.64202 6.65911 0
M  V30 5119 O 916.225 2.60694 5.64732 0
M  V30 5120 C 917.415 3.93473 7.1943 0
M  V30 5121 O 917.805 3.02071 8.21205 0
M  V30 5122 C 918.295 3.73047 5.97036 0
M  V30 5123 C 917.585 2.58828 5.25741 0
M  V30 5124 N 917.635 2.68068 3.77503 0
M  V30 5125 H 914.796 5.40332 6.79951 0
M  V30 5126 H 914.526 4.41613 5.32378 0
M  V30 5127 H 915.393 3.26331 7.47797 0
M  V30 5128 P 919.355 2.75334 8.47391 0
M  V30 5129 O 919.575 2.44619 9.90336 0
M  V30 5130 O 920.145 3.87776 7.92294 0
M  V30 5131 O 919.605 1.4459 7.59357 0
M  V30 5132 C 918.665 0.347653 7.69315 0
M  V30 5133 C 919.395 -0.96767 7.52806 0
M  V30 5134 O 919.605 -1.21055 6.10208 0
M  V30 5135 C 920.795 -1.04557 8.13408 0
M  V30 5136 O 921.185 -2.38311 8.41922 0
M  V30 5137 C 921.675 -0.491279 7.02284 0
M  V30 5138 C 920.965 -0.996264 5.77469 0
M  V30 5139 N 921.015 -0.0501916 4.62973 0
M  V30 5140 H 918.177 0.374765 8.67791 0
M  V30 5141 H 917.905 0.443613 6.90476 0
M  V30 5142 H 918.773 -1.75559 7.96891 0
M  V30 5143 H 921.428 -1.94563 5.46818 0
M  V30 5144 H 921.708 0.608651 7.04676 0
M  V30 5145 H 922.699 -0.889796 7.09039 0
M  V30 5146 H 920.865 -0.433128 9.04664 0
M  V30 5147 P 922.735 -2.75334 8.47391 0
M  V30 5148 O 922.955 -3.84166 9.4489 0
M  V30 5149 O 923.525 -1.51964 8.6881 0
M  V30 5150 O 922.985 -3.29363 6.99321 0
M  V30 5151 C 922.045 -4.23956 6.42656 0
M  V30 5152 C 922.775 -5.20775 5.52155 0
M  V30 5153 O 922.985 -4.56534 4.22446 0
M  V30 5154 C 924.175 -5.62629 5.96531 0
M  V30 5155 O 924.565 -6.87667 5.41053 0
M  V30 5156 C 925.055 -4.52537 5.39283 0
M  V30 5157 C 924.345 -4.20027 4.08623 0
M  V30 5158 N 924.395 -2.7613 3.71522 0
M  V30 5159 C 924.545 -2.45612 2.37989 0
M  V30 5160 O 924.635 -3.30919 1.51621 0
M  V30 5161 N 924.585 -1.10684 2.08435 0
M  V30 5162 C 924.495 -0.0690084 2.9792 0
M  V30 5163 C 924.345 -0.481522 4.35345 0
M  V30 5164 C 924.295 -1.78906 4.67968 0
M  V30 5165 H 921.555 -4.797 7.24003 0
M  V30 5166 H 921.286 -3.69802 5.84429 0
M  V30 5167 H 922.153 -6.10356 5.41441 0
M  V30 5168 H 924.808 -4.78651 3.27911 0
M  V30 5169 H 925.087 -3.64957 6.05871 0
M  V30 5170 H 926.079 -4.8868 5.2125 0
M  V30 5171 H 924.245 -5.66726 7.06352 0
M  V30 5172 H 924.174 -2.07737 5.72367 0
M  V30 5173 P 926.115 -7.20834 5.23717 0
M  V30 5174 O 926.335 -8.66104 5.38572 0
M  V30 5175 O 926.905 -6.33544 6.1349 0
M  V30 5176 O 926.365 -6.7751 3.72168 0
M  V30 5177 C 925.425 -7.20825 2.7076 0
M  V30 5178 C 926.155 -7.45864 1.40599 0
M  V30 5179 O 926.365 -6.17651 0.734225 0
M  V30 5180 C 927.555 -8.05808 1.51899 0
M  V30 5181 O 927.945 -8.74358 0.335205 0
M  V30 5182 C 928.435 -6.83093 1.70294 0
M  V30 5183 C 927.725 -5.79992 0.836974 0
M  V30 5184 N 927.775 -4.41864 1.38293 0
M  V30 5185 H 924.936 -8.13644 3.0377 0
M  V30 5186 H 924.666 -6.42788 2.55485 0
M  V30 5187 H 925.533 -8.12039 0.792769 0
M  V30 5188 P 929.495 -8.91 -6.87236e-12 0
M  V30 5189 O 929.715 -10.1726 -0.733694 0
M  V30 5190 O 930.285 -8.73148 1.23936 0
M  V30 5191 O 929.745 -7.66872 -0.971405 0
M  V30 5192 C 928.805 -7.42309 -2.04641 0
M  V30 5193 C 929.535 -6.86059 -3.24661 0
M  V30 5194 O 929.745 -5.42847 -3.03646 0
M  V30 5195 C 930.935 -7.41196 -3.50753 0
M  V30 5196 O 931.325 -7.27073 -4.86816 0
M  V30 5197 C 931.815 -6.5273 -2.63741 0
M  V30 5198 C 931.105 -5.1842 -2.73198 0
M  V30 5199 N 931.155 -4.38762 -1.4784 0
M  V30 5200 H 928.316 -8.36803 -2.32493 0
M  V30 5201 H 928.046 -6.70197 -1.71129 0
M  V30 5202 H 928.913 -7.03551 -4.13168 0
M  V30 5203 P 932.874 -7.20834 -5.23717 0
M  V30 5204 O 933.094 -7.79853 -6.57286 0
M  V30 5205 O 933.664 -7.79239 -4.12957 0
M  V30 5206 O 933.124 -5.63315 -5.29344 0
M  V30 5207 C 932.184 -4.80255 -6.01876 0
M  V30 5208 C 932.914 -3.64202 -6.65911 0
M  V30 5209 O 933.124 -2.60694 -5.64732 0
M  V30 5210 C 934.314 -3.93473 -7.1943 0
M  V30 5211 O 934.704 -3.02071 -8.21205 0
M  V30 5212 C 935.194 -3.73047 -5.97036 0
M  V30 5213 C 934.484 -2.58828 -5.25741 0
M  V30 5214 N 934.534 -2.68068 -3.77503 0
M  V30 5215 H 931.695 -5.40332 -6.79951 0
M  V30 5216 H 931.425 -4.41613 -5.32378 0
M  V30 5217 H 932.292 -3.26331 -7.47797 0
M  V30 5218 P 936.254 -2.75334 -8.47391 0
M  V30 5219 O 936.474 -2.44571 -9.90142 0
M  V30 5220 O 937.044 -3.87688 -7.92115 0
M  V30 5221 O 936.504 -1.4459 -7.59357 0
M  V30 5222 C 935.564 -0.347608 -7.69215 0
M  V30 5223 C 936.294 0.96767 -7.52806 0
M  V30 5224 O 936.504 1.21036 -6.1011 0
M  V30 5225 C 937.694 1.04544 -8.13308 0
M  V30 5226 O 938.084 2.38311 -8.41922 0
M  V30 5227 C 938.574 0.491279 -7.02284 0
M  V30 5228 C 937.864 0.996264 -5.77469 0
M  V30 5229 N 937.914 0.0501916 -4.62973 0
M  V30 5230 H 935.075 -0.374722 -8.67691 0
M  V30 5231 H 934.805 -0.443485 -6.90277 0
M  V30 5232 H 935.672 1.75537 -7.96793 0
M  V30 5233 P 939.634 2.75334 -8.47391 0
M  V30 5234 O 939.854 3.84128 -9.44797 0
M  V30 5235 O 940.424 1.51947 -8.68712 0
M  V30 5236 O 939.884 3.29363 -6.99321 0
M  V30 5237 C 938.944 4.24011 -6.4274 0
M  V30 5238 C 939.674 5.20775 -5.52155 0
M  V30 5239 O 939.884 4.56534 -4.22446 0
M  V30 5240 C 941.074 5.62629 -5.96531 0
M  V30 5241 O 941.464 6.87667 -5.41053 0
M  V30 5242 C 941.954 4.52537 -5.39283 0
M  V30 5243 C 941.244 4.20027 -4.08623 0
M  V30 5244 N 941.294 2.76189 -3.71603 0
M  V30 5245 H 938.455 4.797 -7.24003 0
M  V30 5246 H 938.185 3.69856 -5.84513 0
M  V30 5247 H 939.052 6.10356 -5.41441 0
M  V30 5248 P 943.014 7.20834 -5.23717 0
M  V30 5249 O 943.234 8.66104 -5.38572 0
M  V30 5250 O 943.804 6.33544 -6.1349 0
M  V30 5251 O 943.264 6.7751 -3.72168 0
M  V30 5252 C 942.324 7.20825 -2.7076 0
M  V30 5253 C 943.054 7.45864 -1.40599 0
M  V30 5254 O 943.264 6.17651 -0.734225 0
M  V30 5255 C 944.454 8.05808 -1.51899 0
M  V30 5256 O 944.844 8.74358 -0.335205 0
M  V30 5257 C 945.334 6.83093 -1.70294 0
M  V30 5258 C 944.624 5.79992 -0.836974 0
M  V30 5259 N 944.674 4.41864 -1.38293 0
M  V30 5260 H 941.835 8.13644 -3.0377 0
M  V30 5261 H 941.565 6.42788 -2.55485 0
M  V30 5262 H 942.432 8.12039 -0.792769 0
M  V30 5263 P 946.394 8.91 7.02954e-12 0
M  V30 5264 O 946.614 10.1726 0.733694 0
M  V30 5265 O 947.184 8.73148 -1.23936 0
M  V30 5266 O 946.644 7.66872 0.971405 0
M  V30 5267 C 945.704 7.42309 2.04641 0
M  V30 5268 C 946.434 6.86059 3.24661 0
M  V30 5269 O 946.644 5.42847 3.03646 0
M  V30 5270 C 947.834 7.41196 3.50753 0
M  V30 5271 O 948.224 7.27073 4.86816 0
M  V30 5272 C 948.714 6.5273 2.63741 0
M  V30 5273 C 948.004 5.1842 2.73198 0
M  V30 5274 N 948.054 4.38762 1.4784 0
M  V30 5275 H 945.215 8.36803 2.32493 0
M  V30 5276 H 944.945 6.70197 1.71129 0
M  V30 5277 H 945.812 7.03551 4.13168 0
M  V30 5278 P 949.774 7.20834 5.23717 0
M  V30 5279 O 949.994 7.7993 6.57351 0
M  V30 5280 O 950.564 7.79328 4.13004 0
M  V30 5281 O 950.024 5.63315 5.29344 0
M  V30 5282 C 949.084 4.80193 6.01798 0
M  V30 5283 C 949.814 3.64202 6.65911 0
M  V30 5284 O 950.024 2.60694 5.64732 0
M  V30 5285 C 951.214 3.93473 7.1943 0
M  V30 5286 O 951.604 3.02071 8.21205 0
M  V30 5287 C 952.094 3.73047 5.97036 0
M  V30 5288 C 951.384 2.58828 5.25741 0
M  V30 5289 N 951.434 2.6801 3.77422 0
M  V30 5290 C 951.584 1.50443 3.07133 0
M  V30 5291 O 951.674 0.419406 3.61576 0
M  V30 5292 N 951.624 1.6403 1.69677 0
M  V30 5293 C 951.534 2.81206 0.986255 0
M  V30 5294 O 951.584 2.80892 -0.249754 0
M  V30 5295 C 951.384 3.99158 1.80325 0
M  V30 5296 C 951.274 5.29309 1.06921 0
M  V30 5297 C 951.334 3.89779 3.1476 0
M  V30 5298 H 948.594 5.40332 6.79951 0
M  V30 5299 H 948.325 4.41549 5.32301 0
M  V30 5300 H 949.192 3.26331 7.47797 0
M  V30 5301 H 951.847 1.6395 5.56554 0
M  V30 5302 H 952.126 4.63439 5.3432 0
M  V30 5303 H 953.118 3.44728 6.25838 0
M  V30 5304 H 951.284 4.96652 7.57263 0
M  V30 5305 H 951.213 4.80159 3.74441 0
M  V30 5306 H 952.243 5.81459 1.09608 0
M  V30 5307 H 950.506 5.9187 1.54487 0
M  V30 5308 H 950.994 5.10095 0.0220288 0
M  V30 5309 H 951.73 0.798962 1.16664 0
M  V30 5310 P 953.154 2.75334 8.47391 0
M  V30 5311 O 953.374 2.44571 9.90142 0
M  V30 5312 O 953.944 3.87688 7.92115 0
M  V30 5313 O 953.404 1.4459 7.59357 0
M  V30 5314 C 952.464 0.347608 7.69215 0
M  V30 5315 C 953.194 -0.96767 7.52806 0
M  V30 5316 O 953.404 -1.21036 6.1011 0
M  V30 5317 C 954.594 -1.04544 8.13308 0
M  V30 5318 O 954.984 -2.38311 8.41922 0
M  V30 5319 C 955.474 -0.491279 7.02284 0
M  V30 5320 C 954.764 -0.996264 5.77469 0
M  V30 5321 N 954.814 -0.0501916 4.62973 0
M  V30 5322 C 954.734 1.32786 4.63244 0
M  V30 5323 N 954.814 1.86957 3.44545 0
M  V30 5324 C 954.954 0.780241 2.58481 0
M  V30 5325 C 955.084 0.738536 1.17757 0
M  V30 5326 O 955.104 1.66794 0.372349 0
M  V30 5327 N 955.204 -0.58337 0.711393 0
M  V30 5328 C 955.204 -1.70816 1.51017 0
M  V30 5329 N 955.334 -2.87826 0.880757 0
M  V30 5330 N 955.074 -1.67126 2.8339 0
M  V30 5331 C 954.954 -0.401421 3.30572 0
M  V30 5332 H 951.975 0.374722 8.67691 0
M  V30 5333 H 951.705 0.443485 6.90277 0
M  V30 5334 H 952.572 -1.75537 7.96793 0
M  V30 5335 H 955.227 -1.95076 5.46529 0
M  V30 5336 H 955.506 0.608565 7.04577 0
M  V30 5337 H 956.498 -0.889672 7.08939 0
M  V30 5338 H 954.664 -0.43308 9.04564 0
M  V30 5339 H 954.615 1.91249 5.54442 0
M  V30 5340 H 955.297 -0.718054 -0.275244 0
M  V30 5341 H 955.334 -3.75721 1.41832 0
M  V30 5342 H 955.435 -2.90436 -0.145468 0
M  V30 5343 P 956.534 -2.75334 8.47391 0
M  V30 5344 O 956.754 -3.84128 9.44797 0
M  V30 5345 O 957.324 -1.51947 8.68712 0
M  V30 5346 O 956.784 -3.29363 6.99321 0
M  V30 5347 C 955.844 -4.24011 6.4274 0
M  V30 5348 C 956.574 -5.20775 5.52155 0
M  V30 5349 O 956.784 -4.56534 4.22446 0
M  V30 5350 C 957.974 -5.62629 5.96531 0
M  V30 5351 O 958.364 -6.87667 5.41053 0
M  V30 5352 C 958.854 -4.52537 5.39283 0
M  V30 5353 C 958.144 -4.20027 4.08623 0
M  V30 5354 N 958.194 -2.76189 3.71603 0
M  V30 5355 H 955.355 -4.797 7.24003 0
M  V30 5356 H 955.085 -3.69856 5.84513 0
M  V30 5357 H 955.952 -6.10356 5.41441 0
M  V30 5358 P 959.914 -7.20834 5.23717 0
M  V30 5359 O 960.134 -8.66104 5.38572 0
M  V30 5360 O 960.704 -6.33544 6.1349 0
M  V30 5361 O 960.164 -6.7751 3.72168 0
M  V30 5362 C 959.224 -7.20825 2.7076 0
M  V30 5363 C 959.954 -7.45864 1.40599 0
M  V30 5364 O 960.164 -6.17651 0.734225 0
M  V30 5365 C 961.354 -8.05808 1.51899 0
M  V30 5366 O 961.744 -8.74358 0.335205 0
M  V30 5367 C 962.234 -6.83093 1.70294 0
M  V30 5368 C 961.524 -5.79992 0.836974 0
M  V30 5369 N 961.574 -4.41864 1.38293 0
M  V30 5370 H 958.735 -8.13644 3.0377 0
M  V30 5371 H 958.465 -6.42788 2.55485 0
M  V30 5372 H 959.332 -8.12039 0.792769 0
M  V30 5373 P 963.294 -8.91 -7.18673e-12 0
M  V30 5374 O 963.514 -10.1726 -0.733694 0
M  V30 5375 O 964.084 -8.73148 1.23936 0
M  V30 5376 O 963.544 -7.66872 -0.971405 0
M  V30 5377 C 962.604 -7.42309 -2.04641 0
M  V30 5378 C 963.334 -6.86059 -3.24661 0
M  V30 5379 O 963.544 -5.42847 -3.03646 0
M  V30 5380 C 964.734 -7.41196 -3.50753 0
M  V30 5381 O 965.124 -7.27073 -4.86816 0
M  V30 5382 C 965.614 -6.5273 -2.63741 0
M  V30 5383 C 964.904 -5.1842 -2.73198 0
M  V30 5384 N 964.954 -4.38762 -1.4784 0
M  V30 5385 H 962.115 -8.36803 -2.32493 0
M  V30 5386 H 961.845 -6.70197 -1.71129 0
M  V30 5387 H 962.712 -7.03551 -4.13168 0
M  V30 5388 P 966.674 -7.20834 -5.23717 0
M  V30 5389 O 966.894 -7.79853 -6.57286 0
M  V30 5390 O 967.464 -7.79239 -4.12957 0
M  V30 5391 O 966.924 -5.63315 -5.29344 0
M  V30 5392 C 965.984 -4.80255 -6.01876 0
M  V30 5393 C 966.714 -3.64202 -6.65911 0
M  V30 5394 O 966.924 -2.60694 -5.64732 0
M  V30 5395 C 968.114 -3.93473 -7.1943 0
M  V30 5396 O 968.504 -3.02071 -8.21205 0
M  V30 5397 C 968.994 -3.73047 -5.97036 0
M  V30 5398 C 968.284 -2.58828 -5.25741 0
M  V30 5399 N 968.334 -2.68068 -3.77503 0
M  V30 5400 H 965.495 -5.40332 -6.79951 0
M  V30 5401 H 965.225 -4.41613 -5.32378 0
M  V30 5402 H 966.092 -3.26331 -7.47797 0
M  V30 5403 P 970.054 -2.75334 -8.47391 0
M  V30 5404 O 970.274 -2.44571 -9.90142 0
M  V30 5405 O 970.844 -3.87688 -7.92115 0
M  V30 5406 O 970.304 -1.4459 -7.59357 0
M  V30 5407 C 969.364 -0.347608 -7.69215 0
M  V30 5408 C 970.094 0.96767 -7.52806 0
M  V30 5409 O 970.304 1.21036 -6.1011 0
M  V30 5410 C 971.494 1.04544 -8.13308 0
M  V30 5411 O 971.884 2.38311 -8.41922 0
M  V30 5412 C 972.374 0.491279 -7.02284 0
M  V30 5413 C 971.664 0.996264 -5.77469 0
M  V30 5414 N 971.714 0.0501916 -4.62973 0
M  V30 5415 H 968.875 -0.374722 -8.67691 0
M  V30 5416 H 968.605 -0.443485 -6.90277 0
M  V30 5417 H 969.472 1.75537 -7.96793 0
M  V30 5418 P 973.434 2.75334 -8.47391 0
M  V30 5419 O 973.654 3.84128 -9.44797 0
M  V30 5420 O 974.224 1.51947 -8.68712 0
M  V30 5421 O 973.684 3.29363 -6.99321 0
M  V30 5422 C 972.744 4.24011 -6.4274 0
M  V30 5423 C 973.474 5.20775 -5.52155 0
M  V30 5424 O 973.684 4.56534 -4.22446 0
M  V30 5425 C 974.874 5.62629 -5.96531 0
M  V30 5426 O 975.264 6.87667 -5.41053 0
M  V30 5427 C 975.754 4.52537 -5.39283 0
M  V30 5428 C 975.044 4.20027 -4.08623 0
M  V30 5429 N 975.094 2.76189 -3.71603 0
M  V30 5430 H 972.255 4.797 -7.24003 0
M  V30 5431 H 971.985 3.69856 -5.84513 0
M  V30 5432 H 972.852 6.10356 -5.41441 0
M  V30 5433 P 976.814 7.20834 -5.23717 0
M  V30 5434 O 977.034 8.66274 -5.38678 0
M  V30 5435 O 977.604 6.33687 -6.13629 0
M  V30 5436 O 977.064 6.7751 -3.72168 0
M  V30 5437 C 976.124 7.20919 -2.70795 0
M  V30 5438 C 976.854 7.45864 -1.40599 0
M  V30 5439 O 977.064 6.17751 -0.734343 0
M  V30 5440 C 978.254 8.05906 -1.51917 0
M  V30 5441 O 978.644 8.74358 -0.335205 0
M  V30 5442 C 979.134 6.83093 -1.70294 0
M  V30 5443 C 978.424 5.79992 -0.836974 0
M  V30 5444 N 978.474 4.41864 -1.38293 0
M  V30 5445 H 975.636 8.13738 -3.03804 0
M  V30 5446 H 975.364 6.42974 -2.55559 0
M  V30 5447 H 976.232 8.12139 -0.792866 0
M  V30 5448 H 978.887 5.80178 0.160643 0
M  V30 5449 H 979.167 6.51379 -2.75643 0
M  V30 5450 H 980.158 7.01832 -1.3448 0
M  V30 5451 H 978.324 8.73771 -2.38364 0
M  V30 5452 P 980.194 8.91 7.34391e-12 0
M  V30 5453 O 980.414 10.1726 0.733694 0
M  V30 5454 O 980.984 8.73148 -1.23936 0
M  V30 5455 O 980.444 7.66872 0.971405 0
M  V30 5456 C 979.504 7.42309 2.04641 0
M  V30 5457 C 980.234 6.86059 3.24661 0
M  V30 5458 O 980.444 5.42847 3.03646 0
M  V30 5459 C 981.634 7.41196 3.50753 0
M  V30 5460 O 982.024 7.27073 4.86816 0
M  V30 5461 C 982.514 6.5273 2.63741 0
M  V30 5462 C 981.804 5.1842 2.73198 0
M  V30 5463 N 981.854 4.38762 1.4784 0
M  V30 5464 H 979.015 8.36803 2.32493 0
M  V30 5465 H 978.745 6.70197 1.71129 0
M  V30 5466 H 979.612 7.03551 4.13168 0
M  V30 5467 P 983.574 7.20834 5.23717 0
M  V30 5468 O 983.794 7.79853 6.57286 0
M  V30 5469 O 984.364 7.79239 4.12957 0
M  V30 5470 O 983.824 5.63315 5.29344 0
M  V30 5471 C 982.884 4.80255 6.01876 0
M  V30 5472 C 983.614 3.64202 6.65911 0
M  V30 5473 O 983.824 2.60694 5.64732 0
M  V30 5474 C 985.014 3.93473 7.1943 0
M  V30 5475 O 985.404 3.02071 8.21205 0
M  V30 5476 C 985.894 3.73047 5.97036 0
M  V30 5477 C 985.184 2.58828 5.25741 0
M  V30 5478 N 985.234 2.68068 3.77503 0
M  V30 5479 H 982.395 5.40332 6.79951 0
M  V30 5480 H 982.125 4.41613 5.32378 0
M  V30 5481 H 982.992 3.26331 7.47797 0
M  V30 5482 P 986.954 2.75334 8.47391 0
M  V30 5483 O 987.174 2.44571 9.90142 0
M  V30 5484 O 987.744 3.87688 7.92115 0
M  V30 5485 O 987.204 1.4459 7.59357 0
M  V30 5486 C 986.264 0.347608 7.69215 0
M  V30 5487 C 986.994 -0.96767 7.52806 0
M  V30 5488 O 987.204 -1.21036 6.1011 0
M  V30 5489 C 988.394 -1.04544 8.13308 0
M  V30 5490 O 988.784 -2.38311 8.41922 0
M  V30 5491 C 989.274 -0.491279 7.02284 0
M  V30 5492 C 988.564 -0.996264 5.77469 0
M  V30 5493 N 988.614 -0.0501916 4.62973 0
M  V30 5494 H 985.775 0.374722 8.67691 0
M  V30 5495 H 985.505 0.443485 6.90277 0
M  V30 5496 H 986.372 -1.75537 7.96793 0
M  V30 5497 P 990.334 -2.75334 8.47391 0
M  V30 5498 O 990.554 -3.84128 9.44797 0
M  V30 5499 O 991.124 -1.51947 8.68712 0
M  V30 5500 O 990.584 -3.29363 6.99321 0
M  V30 5501 C 989.644 -4.24011 6.4274 0
M  V30 5502 C 990.374 -5.20775 5.52155 0
M  V30 5503 O 990.584 -4.56534 4.22446 0
M  V30 5504 C 991.774 -5.62629 5.96531 0
M  V30 5505 O 992.164 -6.87667 5.41053 0
M  V30 5506 C 992.654 -4.52537 5.39283 0
M  V30 5507 C 991.944 -4.20027 4.08623 0
M  V30 5508 N 991.994 -2.76189 3.71603 0
M  V30 5509 H 989.155 -4.797 7.24003 0
M  V30 5510 H 988.885 -3.69856 5.84513 0
M  V30 5511 H 989.752 -6.10356 5.41441 0
M  V30 5512 P 993.714 -7.20834 5.23717 0
M  V30 5513 O 993.934 -8.66274 5.38678 0
M  V30 5514 O 994.504 -6.33687 6.13629 0
M  V30 5515 O 993.964 -6.7751 3.72168 0
M  V30 5516 C 993.024 -7.20919 2.70795 0
M  V30 5517 C 993.754 -7.45864 1.40599 0
M  V30 5518 O 993.964 -6.17751 0.734343 0
M  V30 5519 C 995.154 -8.05906 1.51917 0
M  V30 5520 O 995.544 -8.74358 0.335205 0
M  V30 5521 C 996.034 -6.83093 1.70294 0
M  V30 5522 C 995.324 -5.79992 0.836974 0
M  V30 5523 N 995.374 -4.41864 1.38293 0
M  V30 5524 H 992.536 -8.13738 3.03804 0
M  V30 5525 H 992.264 -6.42974 2.55559 0
M  V30 5526 H 993.132 -8.12139 0.792866 0
M  V30 5527 H 995.787 -5.80178 -0.160643 0
M  V30 5528 H 996.067 -6.51379 2.75643 0
M  V30 5529 H 997.058 -7.01832 1.3448 0
M  V30 5530 H 995.224 -8.73771 2.38364 0
M  V30 5531 P 997.094 -8.91 -7.50109e-12 0
M  V30 5532 O 997.314 -10.1726 -0.733694 0
M  V30 5533 O 997.884 -8.73148 1.23936 0
M  V30 5534 O 997.344 -7.66872 -0.971405 0
M  V30 5535 C 996.404 -7.42309 -2.04641 0
M  V30 5536 C 997.134 -6.86059 -3.24661 0
M  V30 5537 O 997.344 -5.42847 -3.03646 0
M  V30 5538 C 998.534 -7.41196 -3.50753 0
M  V30 5539 O 998.924 -7.27073 -4.86816 0
M  V30 5540 C 999.414 -6.5273 -2.63741 0
M  V30 5541 C 998.704 -5.1842 -2.73198 0
M  V30 5542 N 998.754 -4.38762 -1.4784 0
M  V30 5543 C 998.674 -4.81605 -0.168631 0
M  V30 5544 N 998.754 -3.85454 0.713363 0
M  V30 5545 C 998.894 -2.6994 -0.0566958 0
M  V30 5546 C 999.024 -1.34815 0.338502 0
M  V30 5547 N 999.144 -0.496304 -0.77465 0
M  V30 5548 C 999.144 -0.908403 -2.09122 0
M  V30 5549 N 999.274 0.0517805 -3.00955 0
M  V30 5550 N 999.014 -2.17875 -2.46519 0
M  V30 5551 C 998.894 -3.01988 -1.4033 0
M  V30 5552 H 995.915 -8.36803 -2.32493 0
M  V30 5553 H 995.645 -6.70197 -1.71129 0
M  V30 5554 H 996.512 -7.03551 -4.13168 0
M  V30 5555 P 1000.47 -7.20834 -5.23717 0
M  V30 5556 O 1000.69 -7.80006 -6.57415 0
M  V30 5557 O 1001.26 -7.79416 -4.13051 0
M  V30 5558 O 1000.72 -5.63315 -5.29344 0
M  V30 5559 C 999.784 -4.80318 -6.01954 0
M  V30 5560 C 1000.51 -3.64202 -6.65911 0
M  V30 5561 O 1000.72 -2.60736 -5.64823 0
M  V30 5562 C 1001.91 -3.93521 -7.19518 0
M  V30 5563 O 1002.3 -3.02071 -8.21205 0
M  V30 5564 C 1002.79 -3.73047 -5.97036 0
M  V30 5565 C 1002.08 -2.58828 -5.25741 0
M  V30 5566 N 1002.13 -2.68068 -3.77503 0
M  V30 5567 H 999.296 -5.40394 -6.8003 0
M  V30 5568 H 999.024 -4.41741 -5.32532 0
M  V30 5569 H 999.892 -3.26371 -7.47889 0
M  V30 5570 H 1002.55 -1.64007 -5.56746 0
M  V30 5571 H 1002.83 -4.63439 -5.3432 0
M  V30 5572 H 1003.82 -3.44776 -6.25925 0
M  V30 5573 H 1001.98 -4.96707 -7.57347 0
M  V30 5574 P 1003.85 -2.75334 -8.47391 0
M  V30 5575 O 1004.07 -2.44571 -9.90142 0
M  V30 5576 O 1004.64 -3.87688 -7.92115 0
M  V30 5577 O 1004.1 -1.4459 -7.59357 0
M  V30 5578 C 1003.16 -0.347608 -7.69215 0
M  V30 5579 C 1003.89 0.96767 -7.52806 0
M  V30 5580 O 1004.1 1.21036 -6.1011 0
M  V30 5581 C 1005.29 1.04544 -8.13308 0
M  V30 5582 O 1005.68 2.38311 -8.41922 0
M  V30 5583 C 1006.17 0.491279 -7.02284 0
M  V30 5584 C 1005.46 0.996264 -5.77469 0
M  V30 5585 N 1005.51 0.0501916 -4.62973 0
M  V30 5586 H 1002.68 -0.374722 -8.67691 0
M  V30 5587 H 1002.41 -0.443485 -6.90277 0
M  V30 5588 H 1003.27 1.75537 -7.96793 0
M  V30 5589 P 1007.23 2.75334 -8.47391 0
M  V30 5590 O 1007.45 3.84128 -9.44797 0
M  V30 5591 O 1008.02 1.51947 -8.68712 0
M  V30 5592 O 1007.48 3.29363 -6.99321 0
M  V30 5593 C 1006.54 4.24011 -6.4274 0
M  V30 5594 C 1007.27 5.20775 -5.52155 0
M  V30 5595 O 1007.48 4.56534 -4.22446 0
M  V30 5596 C 1008.67 5.62629 -5.96531 0
M  V30 5597 O 1009.06 6.87667 -5.41053 0
M  V30 5598 C 1009.55 4.52537 -5.39283 0
M  V30 5599 C 1008.84 4.20027 -4.08623 0
M  V30 5600 N 1008.89 2.76189 -3.71603 0
M  V30 5601 H 1006.06 4.797 -7.24003 0
M  V30 5602 H 1005.79 3.69856 -5.84513 0
M  V30 5603 H 1006.65 6.10356 -5.41441 0
M  V30 5604 P 1010.61 7.20834 -5.23717 0
M  V30 5605 O 1010.83 8.66189 -5.38625 0
M  V30 5606 O 1011.4 6.33615 -6.1356 0
M  V30 5607 O 1010.86 6.7751 -3.72168 0
M  V30 5608 C 1009.92 7.20825 -2.7076 0
M  V30 5609 C 1010.65 7.45864 -1.40599 0
M  V30 5610 O 1010.86 6.17651 -0.734225 0
M  V30 5611 C 1012.05 8.05808 -1.51899 0
M  V30 5612 O 1012.44 8.74358 -0.335205 0
M  V30 5613 C 1012.93 6.83093 -1.70294 0
M  V30 5614 C 1012.22 5.79992 -0.836974 0
M  V30 5615 N 1012.27 4.41769 -1.38263 0
M  V30 5616 C 1012.42 3.36514 -0.485617 0
M  V30 5617 O 1012.51 3.61814 0.724703 0
M  V30 5618 N 1012.47 2.00746 -1.14492 0
M  V30 5619 C 1012.37 1.85887 -2.27776 0
M  V30 5620 N 1012.42 0.600907 -2.69379 0
M  V30 5621 C 1012.22 2.92182 -3.22265 0
M  V30 5622 C 1012.17 4.18399 -2.71925 0
M  V30 5623 H 1009.43 8.1355 -3.03735 0
M  V30 5624 H 1009.17 6.42695 -2.55448 0
M  V30 5625 H 1010.03 8.12139 -0.792866 0
M  V30 5626 H 1012.69 5.80078 0.160615 0
M  V30 5627 H 1012.97 6.51379 -2.75643 0
M  V30 5628 H 1013.96 7.01734 -1.34462 0
M  V30 5629 H 1012.12 8.73674 -2.38337 0
M  V30 5630 H 1012.05 5.02669 -3.39718 0
M  V30 5631 H 1012.15 2.73001 -4.29239 0
M  V30 5632 H 1012.54 -0.162318 -2.01146 0
M  V30 5633 H 1012.35 0.387742 -3.69773 0
M  V30 5634 P 1013.99 8.91 7.65827e-12 0
M  V30 5635 O 1014.21 10.1726 0.733694 0
M  V30 5636 O 1014.78 8.73148 -1.23936 0
M  V30 5637 O 1014.24 7.66872 0.971405 0
M  V30 5638 C 1013.3 7.42309 2.04641 0
M  V30 5639 C 1014.03 6.86059 3.24661 0
M  V30 5640 O 1014.24 5.42847 3.03646 0
M  V30 5641 C 1015.43 7.41196 3.50753 0
M  V30 5642 O 1015.82 7.27073 4.86816 0
M  V30 5643 C 1016.31 6.5273 2.63741 0
M  V30 5644 C 1015.6 5.1842 2.73198 0
M  V30 5645 N 1015.65 4.38762 1.4784 0
M  V30 5646 H 1012.82 8.36803 2.32493 0
M  V30 5647 H 1012.55 6.70197 1.71129 0
M  V30 5648 H 1013.41 7.03551 4.13168 0
M  V30 5649 P 1017.37 7.20834 5.23717 0
M  V30 5650 O 1017.59 7.7993 6.57351 0
M  V30 5651 O 1018.16 7.79328 4.13004 0
M  V30 5652 O 1017.62 5.63315 5.29344 0
M  V30 5653 C 1016.68 4.80193 6.01798 0
M  V30 5654 C 1017.41 3.64202 6.65911 0
M  V30 5655 O 1017.62 2.60694 5.64732 0
M  V30 5656 C 1018.81 3.93473 7.1943 0
M  V30 5657 O 1019.2 3.02071 8.21205 0
M  V30 5658 C 1019.69 3.73047 5.97036 0
M  V30 5659 C 1018.98 2.58828 5.25741 0
M  V30 5660 N 1019.03 2.6801 3.77422 0
M  V30 5661 C 1019.18 1.50443 3.07133 0
M  V30 5662 O 1019.27 0.419406 3.61576 0
M  V30 5663 N 1019.22 1.6403 1.69677 0
M  V30 5664 C 1019.13 2.81206 0.986255 0
M  V30 5665 O 1019.18 2.80892 -0.249754 0
M  V30 5666 C 1018.98 3.99158 1.80325 0
M  V30 5667 C 1018.87 5.29309 1.06921 0
M  V30 5668 C 1018.93 3.89779 3.1476 0
M  V30 5669 H 1016.19 5.40332 6.79951 0
M  V30 5670 H 1015.92 4.41549 5.32301 0
M  V30 5671 H 1016.79 3.26331 7.47797 0
M  V30 5672 H 1019.45 1.6395 5.56554 0
M  V30 5673 H 1019.73 4.63439 5.3432 0
M  V30 5674 H 1020.72 3.44728 6.25838 0
M  V30 5675 H 1018.88 4.96652 7.57263 0
M  V30 5676 H 1018.81 4.80159 3.74441 0
M  V30 5677 H 1019.84 5.81459 1.09608 0
M  V30 5678 H 1018.11 5.9187 1.54487 0
M  V30 5679 H 1018.59 5.10095 0.0220288 0
M  V30 5680 H 1019.33 0.798962 1.16664 0
M  V30 5681 P 1020.75 2.75334 8.47391 0
M  V30 5682 O 1020.97 2.44619 9.90336 0
M  V30 5683 O 1021.54 3.87776 7.92294 0
M  V30 5684 O 1021 1.4459 7.59357 0
M  V30 5685 C 1020.06 0.347653 7.69315 0
M  V30 5686 C 1020.79 -0.96767 7.52806 0
M  V30 5687 O 1021 -1.21055 6.10208 0
M  V30 5688 C 1022.19 -1.04557 8.13408 0
M  V30 5689 O 1022.58 -2.38311 8.41922 0
M  V30 5690 C 1023.07 -0.491279 7.02284 0
M  V30 5691 C 1022.36 -0.996264 5.77469 0
M  V30 5692 N 1022.41 -0.0501916 4.62973 0
M  V30 5693 H 1019.58 0.374765 8.67791 0
M  V30 5694 H 1019.3 0.443613 6.90476 0
M  V30 5695 H 1020.17 -1.75559 7.96891 0
M  V30 5696 H 1022.83 -1.94563 5.46818 0
M  V30 5697 H 1023.11 0.608651 7.04676 0
M  V30 5698 H 1024.1 -0.889796 7.09039 0
M  V30 5699 H 1022.26 -0.433128 9.04664 0
M  V30 5700 P 1024.13 -2.75334 8.47391 0
M  V30 5701 O 1024.35 -3.84128 9.44797 0
M  V30 5702 O 1024.92 -1.51947 8.68712 0
M  V30 5703 O 1024.38 -3.29363 6.99321 0
M  V30 5704 C 1023.44 -4.24011 6.4274 0
M  V30 5705 C 1024.17 -5.20775 5.52155 0
M  V30 5706 O 1024.38 -4.56534 4.22446 0
M  V30 5707 C 1025.57 -5.62629 5.96531 0
M  V30 5708 O 1025.96 -6.87667 5.41053 0
M  V30 5709 C 1026.45 -4.52537 5.39283 0
M  V30 5710 C 1025.74 -4.20027 4.08623 0
M  V30 5711 N 1025.79 -2.76189 3.71603 0
M  V30 5712 H 1022.95 -4.797 7.24003 0
M  V30 5713 H 1022.68 -3.69856 5.84513 0
M  V30 5714 H 1023.55 -6.10356 5.41441 0
M  V30 5715 P 1027.51 -7.20834 5.23717 0
M  V30 5716 O 1027.73 -8.66104 5.38572 0
M  V30 5717 O 1028.3 -6.33544 6.1349 0
M  V30 5718 O 1027.76 -6.7751 3.72168 0
M  V30 5719 C 1026.82 -7.20825 2.7076 0
M  V30 5720 C 1027.55 -7.45864 1.40599 0
M  V30 5721 O 1027.76 -6.17651 0.734225 0
M  V30 5722 C 1028.95 -8.05808 1.51899 0
M  V30 5723 O 1029.34 -8.74358 0.335205 0
M  V30 5724 C 1029.83 -6.83093 1.70294 0
M  V30 5725 C 1029.12 -5.79992 0.836974 0
M  V30 5726 N 1029.17 -4.41864 1.38293 0
M  V30 5727 H 1026.33 -8.13644 3.0377 0
M  V30 5728 H 1026.06 -6.42788 2.55485 0
M  V30 5729 H 1026.93 -8.12039 0.792769 0
M  V30 5730 P 1030.89 -8.91 -7.81545e-12 0
M  V30 5731 O 1031.11 -10.1726 -0.733694 0
M  V30 5732 O 1031.68 -8.73148 1.23936 0
M  V30 5733 O 1031.14 -7.66872 -0.971405 0
M  V30 5734 C 1030.2 -7.42309 -2.04641 0
M  V30 5735 C 1030.93 -6.86059 -3.24661 0
M  V30 5736 O 1031.14 -5.42847 -3.03646 0
M  V30 5737 C 1032.33 -7.41196 -3.50753 0
M  V30 5738 O 1032.72 -7.27073 -4.86816 0
M  V30 5739 C 1033.21 -6.5273 -2.63741 0
M  V30 5740 C 1032.5 -5.1842 -2.73198 0
M  V30 5741 N 1032.55 -4.38762 -1.4784 0
M  V30 5742 H 1029.71 -8.36803 -2.32493 0
M  V30 5743 H 1029.44 -6.70197 -1.71129 0
M  V30 5744 H 1030.31 -7.03551 -4.13168 0
M  V30 5745 P 1034.27 -7.20834 -5.23717 0
M  V30 5746 O 1034.49 -7.79853 -6.57286 0
M  V30 5747 O 1035.06 -7.79239 -4.12957 0
M  V30 5748 O 1034.52 -5.63315 -5.29344 0
M  V30 5749 C 1033.58 -4.80255 -6.01876 0
M  V30 5750 C 1034.31 -3.64202 -6.65911 0
M  V30 5751 O 1034.52 -2.60694 -5.64732 0
M  V30 5752 C 1035.71 -3.93473 -7.1943 0
M  V30 5753 O 1036.1 -3.02071 -8.21205 0
M  V30 5754 C 1036.59 -3.73047 -5.97036 0
M  V30 5755 C 1035.88 -2.58828 -5.25741 0
M  V30 5756 N 1035.93 -2.68068 -3.77503 0
M  V30 5757 C 1035.85 -3.79715 -2.96723 0
M  V30 5758 N 1035.93 -3.5377 -1.68852 0
M  V30 5759 C 1036.07 -2.15054 -1.63254 0
M  V30 5760 C 1036.2 -1.28964 -0.518571 0
M  V30 5761 O 1036.22 -1.56826 0.679156 0
M  V30 5762 N 1036.32 0.0538097 -0.918425 0
M  V30 5763 C 1036.32 0.494275 -2.22578 0
M  V30 5764 N 1036.45 1.81086 -2.40434 0
M  V30 5765 N 1036.19 -0.313645 -3.27502 0
M  V30 5766 C 1036.07 -1.61829 -2.91033 0
M  V30 5767 H 1033.09 -5.40332 -6.79951 0
M  V30 5768 H 1032.82 -4.41613 -5.32378 0
M  V30 5769 H 1033.69 -3.26331 -7.47797 0
M  V30 5770 H 1036.35 -1.63422 -5.56814 0
M  V30 5771 H 1036.63 -4.63374 -5.34244 0
M  V30 5772 H 1037.62 -3.44728 -6.25838 0
M  V30 5773 H 1035.78 -4.96652 -7.57263 0
M  V30 5774 H 1035.73 -4.80617 -3.3614 0
M  V30 5775 H 1036.42 0.742702 -0.199384 0
M  V30 5776 H 1036.45 2.20598 -3.35588 0
M  V30 5777 H 1036.55 2.43518 -1.58945 0
M  V30 5778 P 1037.65 -2.75334 -8.47391 0
M  V30 5779 O 1037.87 -2.44571 -9.90142 0
M  V30 5780 O 1038.44 -3.87688 -7.92115 0
M  V30 5781 O 1037.9 -1.4459 -7.59357 0
M  V30 5782 C 1036.96 -0.347608 -7.69215 0
M  V30 5783 C 1037.69 0.96767 -7.52806 0
M  V30 5784 O 1037.9 1.21036 -6.1011 0
M  V30 5785 C 1039.09 1.04544 -8.13308 0
M  V30 5786 O 1039.48 2.38311 -8.41922 0
M  V30 5787 C 1039.97 0.491279 -7.02284 0
M  V30 5788 C 1039.26 0.996264 -5.77469 0
M  V30 5789 N 1039.31 0.0501916 -4.62973 0
M  V30 5790 H 1036.47 -0.374722 -8.67691 0
M  V30 5791 H 1036.2 -0.443485 -6.90277 0
M  V30 5792 H 1037.07 1.75537 -7.96793 0
M  V30 5793 P 1041.03 2.75334 -8.47391 0
M  V30 5794 O 1041.25 3.84128 -9.44797 0
M  V30 5795 O 1041.82 1.51947 -8.68712 0
M  V30 5796 O 1041.28 3.29363 -6.99321 0
M  V30 5797 C 1040.34 4.24011 -6.4274 0
M  V30 5798 C 1041.07 5.20775 -5.52155 0
M  V30 5799 O 1041.28 4.56534 -4.22446 0
M  V30 5800 C 1042.47 5.62629 -5.96531 0
M  V30 5801 O 1042.86 6.87667 -5.41053 0
M  V30 5802 C 1043.35 4.52537 -5.39283 0
M  V30 5803 C 1042.64 4.20027 -4.08623 0
M  V30 5804 N 1042.69 2.76189 -3.71603 0
M  V30 5805 H 1039.85 4.797 -7.24003 0
M  V30 5806 H 1039.58 3.69856 -5.84513 0
M  V30 5807 H 1040.45 6.10356 -5.41441 0
M  V30 5808 P 1044.41 7.20834 -5.23717 0
M  V30 5809 O 1044.63 8.66104 -5.38572 0
M  V30 5810 O 1045.2 6.33544 -6.1349 0
M  V30 5811 O 1044.66 6.7751 -3.72168 0
M  V30 5812 C 1043.72 7.20825 -2.7076 0
M  V30 5813 C 1044.45 7.45864 -1.40599 0
M  V30 5814 O 1044.66 6.17651 -0.734225 0
M  V30 5815 C 1045.85 8.05808 -1.51899 0
M  V30 5816 O 1046.24 8.74358 -0.335205 0
M  V30 5817 C 1046.73 6.83093 -1.70294 0
M  V30 5818 C 1046.02 5.79992 -0.836974 0
M  V30 5819 N 1046.07 4.41864 -1.38293 0
M  V30 5820 H 1043.23 8.13644 -3.0377 0
M  V30 5821 H 1042.96 6.42788 -2.55485 0
M  V30 5822 H 1043.83 8.12039 -0.792769 0
M  V30 5823 P 1047.79 8.91 7.97264e-12 0
M  V30 5824 O 1048.01 10.1726 0.733694 0
M  V30 5825 O 1048.58 8.73148 -1.23936 0
M  V30 5826 O 1048.04 7.66872 0.971405 0
M  V30 5827 C 1047.1 7.42309 2.04641 0
M  V30 5828 C 1047.83 6.86059 3.24661 0
M  V30 5829 O 1048.04 5.42847 3.03646 0
M  V30 5830 C 1049.23 7.41196 3.50753 0
M  V30 5831 O 1049.62 7.27073 4.86816 0
M  V30 5832 C 1050.11 6.5273 2.63741 0
M  V30 5833 C 1049.4 5.1842 2.73198 0
M  V30 5834 N 1049.45 4.38762 1.4784 0
M  V30 5835 H 1046.61 8.36803 2.32493 0
M  V30 5836 H 1046.34 6.70197 1.71129 0
M  V30 5837 H 1047.21 7.03551 4.13168 0
M  V30 5838 P 1051.17 7.20834 5.23717 0
M  V30 5839 O 1051.39 7.79853 6.57286 0
M  V30 5840 O 1051.96 7.79239 4.12957 0
M  V30 5841 O 1051.42 5.63315 5.29344 0
M  V30 5842 C 1050.48 4.80255 6.01876 0
M  V30 5843 C 1051.21 3.64202 6.65911 0
M  V30 5844 O 1051.42 2.60694 5.64732 0
M  V30 5845 C 1052.61 3.93473 7.1943 0
M  V30 5846 O 1053 3.02071 8.21205 0
M  V30 5847 C 1053.49 3.73047 5.97036 0
M  V30 5848 C 1052.78 2.58828 5.25741 0
M  V30 5849 N 1052.83 2.68068 3.77503 0
M  V30 5850 H 1049.99 5.40332 6.79951 0
M  V30 5851 H 1049.72 4.41613 5.32378 0
M  V30 5852 H 1050.59 3.26331 7.47797 0
M  V30 5853 P 1054.55 2.75334 8.47391 0
M  V30 5854 O 1054.77 2.44571 9.90142 0
M  V30 5855 O 1055.34 3.87688 7.92115 0
M  V30 5856 O 1054.8 1.4459 7.59357 0
M  V30 5857 C 1053.86 0.347608 7.69215 0
M  V30 5858 C 1054.59 -0.96767 7.52806 0
M  V30 5859 O 1054.8 -1.21036 6.1011 0
M  V30 5860 C 1055.99 -1.04544 8.13308 0
M  V30 5861 O 1056.38 -2.38311 8.41922 0
M  V30 5862 C 1056.87 -0.491279 7.02284 0
M  V30 5863 C 1056.16 -0.996264 5.77469 0
M  V30 5864 N 1056.21 -0.0501916 4.62973 0
M  V30 5865 H 1053.37 0.374722 8.67691 0
M  V30 5866 H 1053.1 0.443485 6.90277 0
M  V30 5867 H 1053.97 -1.75537 7.96793 0
M  V30 5868 P 1057.93 -2.75334 8.47391 0
M  V30 5869 O 1058.15 -3.84128 9.44797 0
M  V30 5870 O 1058.72 -1.51947 8.68712 0
M  V30 5871 O 1058.18 -3.29363 6.99321 0
M  V30 5872 C 1057.24 -4.24011 6.4274 0
M  V30 5873 C 1057.97 -5.20775 5.52155 0
M  V30 5874 O 1058.18 -4.56534 4.22446 0
M  V30 5875 C 1059.37 -5.62629 5.96531 0
M  V30 5876 O 1059.76 -6.87667 5.41053 0
M  V30 5877 C 1060.25 -4.52537 5.39283 0
M  V30 5878 C 1059.54 -4.20027 4.08623 0
M  V30 5879 N 1059.59 -2.76189 3.71603 0
M  V30 5880 H 1056.75 -4.797 7.24003 0
M  V30 5881 H 1056.48 -3.69856 5.84513 0
M  V30 5882 H 1057.35 -6.10356 5.41441 0
M  V30 5883 P 1061.31 -7.20834 5.23717 0
M  V30 5884 O 1061.53 -8.66104 5.38572 0
M  V30 5885 O 1062.1 -6.33544 6.1349 0
M  V30 5886 O 1061.56 -6.7751 3.72168 0
M  V30 5887 C 1060.62 -7.20825 2.7076 0
M  V30 5888 C 1061.35 -7.45864 1.40599 0
M  V30 5889 O 1061.56 -6.17651 0.734225 0
M  V30 5890 C 1062.75 -8.05808 1.51899 0
M  V30 5891 O 1063.14 -8.74358 0.335205 0
M  V30 5892 C 1063.63 -6.83093 1.70294 0
M  V30 5893 C 1062.92 -5.79992 0.836974 0
M  V30 5894 N 1062.97 -4.41864 1.38293 0
M  V30 5895 H 1060.13 -8.13644 3.0377 0
M  V30 5896 H 1059.86 -6.42788 2.55485 0
M  V30 5897 H 1060.73 -8.12039 0.792769 0
M  V30 5898 P 1064.69 -8.91 -8.12982e-12 0
M  V30 5899 O 1064.91 -10.1726 -0.733694 0
M  V30 5900 O 1065.48 -8.73148 1.23936 0
M  V30 5901 O 1064.94 -7.66872 -0.971405 0
M  V30 5902 C 1064 -7.42309 -2.04641 0
M  V30 5903 C 1064.73 -6.86059 -3.24661 0
M  V30 5904 O 1064.94 -5.42847 -3.03646 0
M  V30 5905 C 1066.13 -7.41196 -3.50753 0
M  V30 5906 O 1066.52 -7.27073 -4.86816 0
M  V30 5907 C 1067.01 -6.5273 -2.63741 0
M  V30 5908 C 1066.3 -5.1842 -2.73198 0
M  V30 5909 N 1066.35 -4.38762 -1.4784 0
M  V30 5910 H 1063.51 -8.36803 -2.32493 0
M  V30 5911 H 1063.24 -6.70197 -1.71129 0
M  V30 5912 H 1064.11 -7.03551 -4.13168 0
M  V30 5913 P 1068.07 -7.20834 -5.23717 0
M  V30 5914 O 1068.29 -7.79853 -6.57286 0
M  V30 5915 O 1068.86 -7.79239 -4.12957 0
M  V30 5916 O 1068.32 -5.63315 -5.29344 0
M  V30 5917 C 1067.38 -4.80255 -6.01876 0
M  V30 5918 C 1068.11 -3.64202 -6.65911 0
M  V30 5919 O 1068.32 -2.60694 -5.64732 0
M  V30 5920 C 1069.51 -3.93473 -7.1943 0
M  V30 5921 O 1069.9 -3.02071 -8.21205 0
M  V30 5922 C 1070.39 -3.73047 -5.97036 0
M  V30 5923 C 1069.68 -2.58828 -5.25741 0
M  V30 5924 N 1069.73 -2.68068 -3.77503 0
M  V30 5925 H 1066.89 -5.40332 -6.79951 0
M  V30 5926 H 1066.62 -4.41613 -5.32378 0
M  V30 5927 H 1067.49 -3.26331 -7.47797 0
M  V30 5928 P 1071.45 -2.75334 -8.47391 0
M  V30 5929 O 1071.67 -2.44619 -9.90336 0
M  V30 5930 O 1072.24 -3.87776 -7.92294 0
M  V30 5931 O 1071.7 -1.4459 -7.59357 0
M  V30 5932 C 1070.76 -0.347653 -7.69315 0
M  V30 5933 C 1071.49 0.96767 -7.52806 0
M  V30 5934 O 1071.7 1.21055 -6.10208 0
M  V30 5935 C 1072.89 1.04557 -8.13408 0
M  V30 5936 O 1073.28 2.38311 -8.41922 0
M  V30 5937 C 1073.77 0.491279 -7.02284 0
M  V30 5938 C 1073.06 0.996264 -5.77469 0
M  V30 5939 N 1073.11 0.0501916 -4.62973 0
M  V30 5940 C 1073.03 -1.31969 -4.65661 0
M  V30 5941 N 1073.1 -1.86649 -3.48119 0
M  V30 5942 C 1073.25 -0.792089 -2.62406 0
M  V30 5943 C 1073.38 -0.705684 -1.2207 0
M  V30 5944 N 1073.39 -1.76207 -0.413762 0
M  V30 5945 N 1073.5 0.518981 -0.685754 0
M  V30 5946 C 1073.49 1.57595 -1.49174 0
M  V30 5947 N 1073.37 1.62909 -2.80066 0
M  V30 5948 C 1073.25 0.388195 -3.3073 0
M  V30 5949 H 1070.28 -0.374765 -8.67791 0
M  V30 5950 H 1070 -0.443613 -6.90476 0
M  V30 5951 H 1070.87 1.75559 -7.96891 0
M  V30 5952 H 1073.53 1.94563 -5.46818 0
M  V30 5953 H 1073.81 -0.608651 -7.04676 0
M  V30 5954 H 1074.8 0.889796 -7.09039 0
M  V30 5955 H 1072.96 0.433128 -9.04664 0
M  V30 5956 H 1072.92 -1.89246 -5.57664 0
M  V30 5957 H 1073.3 -2.71005 -0.804694 0
M  V30 5958 H 1073.49 -1.63189 0.603768 0
M  V30 5959 H 1073.6 2.53475 -0.997614 0
M  V30 5960 P 1074.83 2.75334 -8.47391 0
M  V30 5961 O 1075.05 3.84166 -9.4489 0
M  V30 5962 O 1075.62 1.51964 -8.6881 0
M  V30 5963 O 1075.08 3.29363 -6.99321 0
M  V30 5964 C 1074.14 4.23956 -6.42656 0
M  V30 5965 C 1074.87 5.20775 -5.52155 0
M  V30 5966 O 1075.08 4.56534 -4.22446 0
M  V30 5967 C 1076.27 5.62629 -5.96531 0
M  V30 5968 O 1076.66 6.87667 -5.41053 0
M  V30 5969 C 1077.15 4.52537 -5.39283 0
M  V30 5970 C 1076.44 4.20027 -4.08623 0
M  V30 5971 N 1076.49 2.7613 -3.71522 0
M  V30 5972 C 1076.64 2.45612 -2.37989 0
M  V30 5973 O 1076.73 3.30919 -1.51621 0
M  V30 5974 N 1076.68 1.10684 -2.08435 0
M  V30 5975 C 1076.59 0.0690084 -2.9792 0
M  V30 5976 O 1076.64 -1.10553 -2.59426 0
M  V30 5977 C 1076.44 0.481522 -4.35345 0
M  V30 5978 C 1076.33 -0.618778 -5.36443 0
M  V30 5979 C 1076.39 1.78906 -4.67968 0
M  V30 5980 H 1073.65 4.797 -7.24003 0
M  V30 5981 H 1073.38 3.69802 -5.84429 0
M  V30 5982 H 1074.25 6.10356 -5.41441 0
M  V30 5983 H 1076.91 4.78651 -3.27911 0
M  V30 5984 H 1077.19 3.64957 -6.05871 0
M  V30 5985 H 1078.18 4.8868 -5.2125 0
M  V30 5986 H 1076.34 5.66726 -7.06352 0
M  V30 5987 H 1076.27 2.07737 -5.72367 0
M  V30 5988 H 1077.3 -0.754375 -5.86871 0
M  V30 5989 H 1075.57 -0.359721 -6.10641 0
M  V30 5990 H 1076.05 -1.55533 -4.8581 0
M  V30 5991 H 1076.79 0.862651 -1.12037 0
M  V30 5992 P 1078.21 7.20834 -5.23717 0
M  V30 5993 O 1078.43 8.66104 -5.38572 0
M  V30 5994 O 1079 6.33544 -6.1349 0
M  V30 5995 O 1078.46 6.7751 -3.72168 0
M  V30 5996 C 1077.52 7.20825 -2.7076 0
M  V30 5997 C 1078.25 7.45864 -1.40599 0
M  V30 5998 O 1078.46 6.17651 -0.734225 0
M  V30 5999 C 1079.65 8.05808 -1.51899 0
M  V30 6000 O 1080.04 8.74358 -0.335205 0
M  V30 6001 C 1080.53 6.83093 -1.70294 0
M  V30 6002 C 1079.82 5.79992 -0.836974 0
M  V30 6003 N 1079.87 4.41864 -1.38293 0
M  V30 6004 H 1077.03 8.13644 -3.0377 0
M  V30 6005 H 1076.76 6.42788 -2.55485 0
M  V30 6006 H 1077.63 8.12039 -0.792769 0
M  V30 6007 P 1081.59 8.91 8.287e-12 0
M  V30 6008 O 1081.81 10.1726 0.733694 0
M  V30 6009 O 1082.38 8.73148 -1.23936 0
M  V30 6010 O 1081.84 7.66872 0.971405 0
M  V30 6011 C 1080.9 7.42309 2.04641 0
M  V30 6012 C 1081.63 6.86059 3.24661 0
M  V30 6013 O 1081.84 5.42847 3.03646 0
M  V30 6014 C 1083.03 7.41196 3.50753 0
M  V30 6015 O 1083.42 7.27073 4.86816 0
M  V30 6016 C 1083.91 6.5273 2.63741 0
M  V30 6017 C 1083.2 5.1842 2.73198 0
M  V30 6018 N 1083.25 4.38762 1.4784 0
M  V30 6019 H 1080.41 8.36803 2.32493 0
M  V30 6020 H 1080.14 6.70197 1.71129 0
M  V30 6021 H 1081.01 7.03551 4.13168 0
M  V30 6022 P 1084.97 7.20834 5.23717 0
M  V30 6023 O 1085.19 7.79853 6.57286 0
M  V30 6024 O 1085.76 7.79239 4.12957 0
M  V30 6025 O 1085.22 5.63315 5.29344 0
M  V30 6026 C 1084.28 4.80255 6.01876 0
M  V30 6027 C 1085.01 3.64202 6.65911 0
M  V30 6028 O 1085.22 2.60694 5.64732 0
M  V30 6029 C 1086.41 3.93473 7.1943 0
M  V30 6030 O 1086.8 3.02071 8.21205 0
M  V30 6031 C 1087.29 3.73047 5.97036 0
M  V30 6032 C 1086.58 2.58828 5.25741 0
M  V30 6033 N 1086.63 2.68068 3.77503 0
M  V30 6034 C 1086.55 3.79715 2.96723 0
M  V30 6035 N 1086.63 3.5377 1.68852 0
M  V30 6036 C 1086.77 2.15054 1.63254 0
M  V30 6037 C 1086.9 1.28964 0.518571 0
M  V30 6038 O 1086.92 1.56826 -0.679156 0
M  V30 6039 N 1087.02 -0.0538097 0.918425 0
M  V30 6040 C 1087.02 -0.494275 2.22578 0
M  V30 6041 N 1087.15 -1.81086 2.40434 0
M  V30 6042 N 1086.89 0.313645 3.27502 0
M  V30 6043 C 1086.77 1.61829 2.91033 0
M  V30 6044 H 1083.79 5.40332 6.79951 0
M  V30 6045 H 1083.52 4.41613 5.32378 0
M  V30 6046 H 1084.39 3.26331 7.47797 0
M  V30 6047 H 1087.05 1.63422 5.56814 0
M  V30 6048 H 1087.33 4.63374 5.34244 0
M  V30 6049 H 1088.32 3.44728 6.25838 0
M  V30 6050 H 1086.48 4.96652 7.57263 0
M  V30 6051 H 1086.43 4.80617 3.3614 0
M  V30 6052 H 1087.12 -0.742702 0.199384 0
M  V30 6053 H 1087.15 -2.20598 3.35588 0
M  V30 6054 H 1087.25 -2.43518 1.58945 0
M  V30 6055 P 1088.35 2.75334 8.47391 0
M  V30 6056 O 1088.57 2.44571 9.90142 0
M  V30 6057 O 1089.14 3.87688 7.92115 0
M  V30 6058 O 1088.6 1.4459 7.59357 0
M  V30 6059 C 1087.66 0.347608 7.69215 0
M  V30 6060 C 1088.39 -0.96767 7.52806 0
M  V30 6061 O 1088.6 -1.21036 6.1011 0
M  V30 6062 C 1089.79 -1.04544 8.13308 0
M  V30 6063 O 1090.18 -2.38311 8.41922 0
M  V30 6064 C 1090.67 -0.491279 7.02284 0
M  V30 6065 C 1089.96 -0.996264 5.77469 0
M  V30 6066 N 1090.01 -0.0501916 4.62973 0
M  V30 6067 C 1089.93 1.32786 4.63244 0
M  V30 6068 N 1090.01 1.86957 3.44545 0
M  V30 6069 C 1090.15 0.780241 2.58481 0
M  V30 6070 C 1090.28 0.738536 1.17757 0
M  V30 6071 O 1090.3 1.66794 0.372349 0
M  V30 6072 N 1090.4 -0.58337 0.711393 0
M  V30 6073 C 1090.4 -1.70816 1.51017 0
M  V30 6074 N 1090.53 -2.87826 0.880757 0
M  V30 6075 N 1090.27 -1.67126 2.8339 0
M  V30 6076 C 1090.15 -0.401421 3.30572 0
M  V30 6077 H 1087.17 0.374722 8.67691 0
M  V30 6078 H 1086.9 0.443485 6.90277 0
M  V30 6079 H 1087.77 -1.75537 7.96793 0
M  V30 6080 H 1090.43 -1.95076 5.46529 0
M  V30 6081 H 1090.71 0.608565 7.04577 0
M  V30 6082 H 1091.7 -0.889672 7.08939 0
M  V30 6083 H 1089.86 -0.43308 9.04564 0
M  V30 6084 H 1089.81 1.91249 5.54442 0
M  V30 6085 H 1090.5 -0.718054 -0.275244 0
M  V30 6086 H 1090.53 -3.75721 1.41832 0
M  V30 6087 H 1090.63 -2.90436 -0.145468 0
M  V30 6088 P 1091.73 -2.75334 8.47391 0
M  V30 6089 O 1091.95 -3.84128 9.44797 0
M  V30 6090 O 1092.52 -1.51947 8.68712 0
M  V30 6091 O 1091.98 -3.29363 6.99321 0
M  V30 6092 C 1091.04 -4.24011 6.4274 0
M  V30 6093 C 1091.77 -5.20775 5.52155 0
M  V30 6094 O 1091.98 -4.56534 4.22446 0
M  V30 6095 C 1093.17 -5.62629 5.96531 0
M  V30 6096 O 1093.56 -6.87667 5.41053 0
M  V30 6097 C 1094.05 -4.52537 5.39283 0
M  V30 6098 C 1093.34 -4.20027 4.08623 0
M  V30 6099 N 1093.39 -2.76189 3.71603 0
M  V30 6100 C 1093.31 -1.64862 4.52822 0
M  V30 6101 N 1093.39 -0.512671 3.88633 0
M  V30 6102 C 1093.53 -0.888083 2.54977 0
M  V30 6103 C 1093.66 -0.094668 1.38677 0
M  V30 6104 N 1093.78 -0.890102 0.232633 0
M  V30 6105 C 1093.78 -2.26958 0.21772 0
M  V30 6106 N 1093.91 -2.84626 -0.97925 0
M  V30 6107 N 1093.65 -3.0178 1.31033 0
M  V30 6108 C 1093.53 -2.26781 2.43843 0
M  V30 6109 H 1090.55 -4.797 7.24003 0
M  V30 6110 H 1090.28 -3.69856 5.84513 0
M  V30 6111 H 1091.15 -6.10356 5.41441 0
M  V30 6112 P 1095.11 -7.20834 5.23717 0
M  V30 6113 O 1095.33 -8.66274 5.38678 0
M  V30 6114 O 1095.9 -6.33687 6.13629 0
M  V30 6115 O 1095.36 -6.7751 3.72168 0
M  V30 6116 C 1094.42 -7.20919 2.70795 0
M  V30 6117 C 1095.15 -7.45864 1.40599 0
M  V30 6118 O 1095.36 -6.17751 0.734343 0
M  V30 6119 C 1096.55 -8.05906 1.51917 0
M  V30 6120 O 1096.94 -8.74358 0.335205 0
M  V30 6121 C 1097.43 -6.83093 1.70294 0
M  V30 6122 C 1096.72 -5.79992 0.836974 0
M  V30 6123 N 1096.77 -4.41864 1.38293 0
M  V30 6124 H 1093.94 -8.13738 3.03804 0
M  V30 6125 H 1093.66 -6.42974 2.55559 0
M  V30 6126 H 1094.53 -8.12139 0.792866 0
M  V30 6127 H 1097.19 -5.80178 -0.160643 0
M  V30 6128 H 1097.47 -6.51379 2.75643 0
M  V30 6129 H 1098.46 -7.01832 1.3448 0
M  V30 6130 H 1096.62 -8.73771 2.38364 0
M  V30 6131 P 1098.49 -8.91 -8.44418e-12 0
M  V30 6132 O 1098.71 -10.1726 -0.733694 0
M  V30 6133 O 1099.28 -8.73148 1.23936 0
M  V30 6134 O 1098.74 -7.66872 -0.971405 0
M  V30 6135 C 1097.8 -7.42309 -2.04641 0
M  V30 6136 C 1098.53 -6.86059 -3.24661 0
M  V30 6137 O 1098.74 -5.42847 -3.03646 0
M  V30 6138 C 1099.93 -7.41196 -3.50753 0
M  V30 6139 O 1100.32 -7.27073 -4.86816 0
M  V30 6140 C 1100.81 -6.5273 -2.63741 0
M  V30 6141 C 1100.1 -5.1842 -2.73198 0
M  V30 6142 N 1100.15 -4.38762 -1.4784 0
M  V30 6143 H 1097.31 -8.36803 -2.32493 0
M  V30 6144 H 1097.04 -6.70197 -1.71129 0
M  V30 6145 H 1097.91 -7.03551 -4.13168 0
M  V30 6146 P 1101.87 -7.20834 -5.23717 0
M  V30 6147 O 1102.09 -7.79853 -6.57286 0
M  V30 6148 O 1102.66 -7.79239 -4.12957 0
M  V30 6149 O 1102.12 -5.63315 -5.29344 0
M  V30 6150 C 1101.18 -4.80255 -6.01876 0
M  V30 6151 C 1101.91 -3.64202 -6.65911 0
M  V30 6152 O 1102.12 -2.60694 -5.64732 0
M  V30 6153 C 1103.31 -3.93473 -7.1943 0
M  V30 6154 O 1103.7 -3.02071 -8.21205 0
M  V30 6155 C 1104.19 -3.73047 -5.97036 0
M  V30 6156 C 1103.48 -2.58828 -5.25741 0
M  V30 6157 N 1103.53 -2.68068 -3.77503 0
M  V30 6158 H 1100.69 -5.40332 -6.79951 0
M  V30 6159 H 1100.42 -4.41613 -5.32378 0
M  V30 6160 H 1101.29 -3.26331 -7.47797 0
M  V30 6161 P 1105.25 -2.75334 -8.47391 0
M  V30 6162 O 1105.47 -2.44595 -9.90239 0
M  V30 6163 O 1106.04 -3.87732 -7.92204 0
M  V30 6164 O 1105.5 -1.4459 -7.59357 0
M  V30 6165 C 1104.56 -0.347563 -7.69115 0
M  V30 6166 C 1105.29 0.96767 -7.52806 0
M  V30 6167 O 1105.5 1.21036 -6.1011 0
M  V30 6168 C 1106.69 1.04544 -8.13308 0
M  V30 6169 O 1107.08 2.38311 -8.41922 0
M  V30 6170 C 1107.57 0.491279 -7.02284 0
M  V30 6171 C 1106.86 0.996264 -5.77469 0
M  V30 6172 N 1106.91 0.0501808 -4.62873 0
M  V30 6173 C 1107.06 0.588177 -3.36904 0
M  V30 6174 O 1107.15 1.78598 -3.17173 0
M  V30 6175 N 1107.1 -0.329694 -2.33686 0
M  V30 6176 C 1107.01 -1.6953 -2.45079 0
M  V30 6177 C 1106.86 -2.16933 -3.80505 0
M  V30 6178 C 1106.81 -1.30326 -4.83752 0
M  V30 6179 H 1104.07 -0.374722 -8.67691 0
M  V30 6180 H 1103.8 -0.443421 -6.90177 0
M  V30 6181 H 1104.67 1.75537 -7.96793 0
M  V30 6182 H 1107.33 1.94496 -5.46629 0
M  V30 6183 H 1107.61 -0.608651 -7.04676 0
M  V30 6184 H 1108.6 0.889672 -7.08939 0
M  V30 6185 H 1106.76 0.43308 -9.04564 0
M  V30 6186 H 1106.69 -1.68366 -5.8516 0
M  V30 6187 P 1108.63 2.75334 -8.47391 0
M  V30 6188 O 1108.85 3.84128 -9.44797 0
M  V30 6189 O 1109.42 1.51947 -8.68712 0
M  V30 6190 O 1108.88 3.29363 -6.99321 0
M  V30 6191 C 1107.94 4.24011 -6.4274 0
M  V30 6192 C 1108.67 5.20775 -5.52155 0
M  V30 6193 O 1108.88 4.56534 -4.22446 0
M  V30 6194 C 1110.07 5.62629 -5.96531 0
M  V30 6195 O 1110.46 6.87667 -5.41053 0
M  V30 6196 C 1110.95 4.52537 -5.39283 0
M  V30 6197 C 1110.24 4.20027 -4.08623 0
M  V30 6198 N 1110.29 2.76189 -3.71603 0
M  V30 6199 H 1107.45 4.797 -7.24003 0
M  V30 6200 H 1107.18 3.69856 -5.84513 0
M  V30 6201 H 1108.05 6.10356 -5.41441 0
M  V30 6202 P 1112.01 7.20834 -5.23717 0
M  V30 6203 O 1112.23 8.66274 -5.38678 0
M  V30 6204 O 1112.8 6.33687 -6.13629 0
M  V30 6205 O 1112.26 6.7751 -3.72168 0
M  V30 6206 C 1111.32 7.20919 -2.70795 0
M  V30 6207 C 1112.05 7.45864 -1.40599 0
M  V30 6208 O 1112.26 6.17751 -0.734343 0
M  V30 6209 C 1113.45 8.05906 -1.51917 0
M  V30 6210 O 1113.84 8.74358 -0.335205 0
M  V30 6211 C 1114.33 6.83093 -1.70294 0
M  V30 6212 C 1113.62 5.79992 -0.836974 0
M  V30 6213 N 1113.67 4.41864 -1.38293 0
M  V30 6214 C 1113.59 4.02089 -2.69407 0
M  V30 6215 N 1113.66 2.73403 -2.85089 0
M  V30 6216 C 1113.81 2.25086 -1.5642 0
M  V30 6217 C 1113.94 0.942887 -1.04836 0
M  V30 6218 N 1113.95 -0.150999 -1.80369 0
M  V30 6219 N 1114.06 0.812565 0.28167 0
M  V30 6220 C 1114.05 1.90572 1.03784 0
M  V30 6221 N 1113.93 3.167 0.683905 0
M  V30 6222 C 1113.81 3.26538 -0.652815 0
M  V30 6223 H 1110.84 8.13738 -3.03804 0
M  V30 6224 H 1110.56 6.42974 -2.55559 0
M  V30 6225 H 1111.43 8.12139 -0.792866 0
M  V30 6226 H 1114.09 5.80178 0.160643 0
M  V30 6227 H 1114.37 6.51379 -2.75643 0
M  V30 6228 H 1115.36 7.01832 -1.3448 0
M  V30 6229 H 1113.52 8.73771 -2.38364 0
M  V30 6230 H 1113.48 4.7189 -3.52311 0
M  V30 6231 H 1113.86 -0.0721434 -2.82608 0
M  V30 6232 H 1114.05 -1.0785 -1.36544 0
M  V30 6233 H 1114.16 1.73207 2.10241 0
M  V30 6234 P 1115.39 8.91 8.60137e-12 0
M  V30 6235 O 1115.61 10.1726 0.733694 0
M  V30 6236 O 1116.18 8.73148 -1.23936 0
M  V30 6237 O 1115.64 7.66872 0.971405 0
M  V30 6238 C 1114.7 7.42309 2.04641 0
M  V30 6239 C 1115.43 6.86059 3.24661 0
M  V30 6240 O 1115.64 5.42847 3.03646 0
M  V30 6241 C 1116.83 7.41196 3.50753 0
M  V30 6242 O 1117.22 7.27073 4.86816 0
M  V30 6243 C 1117.71 6.5273 2.63741 0
M  V30 6244 C 1117 5.1842 2.73198 0
M  V30 6245 N 1117.05 4.38762 1.4784 0
M  V30 6246 H 1114.21 8.36803 2.32493 0
M  V30 6247 H 1113.94 6.70197 1.71129 0
M  V30 6248 H 1114.81 7.03551 4.13168 0
M  V30 6249 P 1118.77 7.20834 5.23717 0
M  V30 6250 O 1118.99 7.79853 6.57286 0
M  V30 6251 O 1119.56 7.79239 4.12957 0
M  V30 6252 O 1119.02 5.63315 5.29344 0
M  V30 6253 C 1118.08 4.80255 6.01876 0
M  V30 6254 C 1118.81 3.64202 6.65911 0
M  V30 6255 O 1119.02 2.60694 5.64732 0
M  V30 6256 C 1120.21 3.93473 7.1943 0
M  V30 6257 O 1120.6 3.02071 8.21205 0
M  V30 6258 C 1121.09 3.73047 5.97036 0
M  V30 6259 C 1120.38 2.58828 5.25741 0
M  V30 6260 N 1120.43 2.68068 3.77503 0
M  V30 6261 H 1117.59 5.40332 6.79951 0
M  V30 6262 H 1117.32 4.41613 5.32378 0
M  V30 6263 H 1118.19 3.26331 7.47797 0
M  V30 6264 P 1122.15 2.75334 8.47391 0
M  V30 6265 O 1122.37 2.44571 9.90142 0
M  V30 6266 O 1122.94 3.87688 7.92115 0
M  V30 6267 O 1122.4 1.4459 7.59357 0
M  V30 6268 C 1121.46 0.347608 7.69215 0
M  V30 6269 C 1122.19 -0.96767 7.52806 0
M  V30 6270 O 1122.4 -1.21036 6.1011 0
M  V30 6271 C 1123.59 -1.04544 8.13308 0
M  V30 6272 O 1123.98 -2.38311 8.41922 0
M  V30 6273 C 1124.47 -0.491279 7.02284 0
M  V30 6274 C 1123.76 -0.996264 5.77469 0
M  V30 6275 N 1123.81 -0.0501916 4.62973 0
M  V30 6276 H 1120.97 0.374722 8.67691 0
M  V30 6277 H 1120.7 0.443485 6.90277 0
M  V30 6278 H 1121.57 -1.75537 7.96793 0
M  V30 6279 P 1125.53 -2.75334 8.47391 0
M  V30 6280 O 1125.75 -3.84128 9.44797 0
M  V30 6281 O 1126.32 -1.51947 8.68712 0
M  V30 6282 O 1125.78 -3.29363 6.99321 0
M  V30 6283 C 1124.84 -4.24011 6.4274 0
M  V30 6284 C 1125.57 -5.20775 5.52155 0
M  V30 6285 O 1125.78 -4.56534 4.22446 0
M  V30 6286 C 1126.97 -5.62629 5.96531 0
M  V30 6287 O 1127.36 -6.87667 5.41053 0
M  V30 6288 C 1127.85 -4.52537 5.39283 0
M  V30 6289 C 1127.14 -4.20027 4.08623 0
M  V30 6290 N 1127.19 -2.76189 3.71603 0
M  V30 6291 H 1124.35 -4.797 7.24003 0
M  V30 6292 H 1124.08 -3.69856 5.84513 0
M  V30 6293 H 1124.95 -6.10356 5.41441 0
M  V30 6294 P 1128.91 -7.20834 5.23717 0
M  V30 6295 O 1129.13 -8.66189 5.38625 0
M  V30 6296 O 1129.7 -6.33615 6.1356 0
M  V30 6297 O 1129.16 -6.7751 3.72168 0
M  V30 6298 C 1128.22 -7.20732 2.70725 0
M  V30 6299 C 1128.95 -7.45864 1.40599 0
M  V30 6300 O 1129.16 -6.17651 0.734225 0
M  V30 6301 C 1130.35 -8.05808 1.51899 0
M  V30 6302 O 1130.74 -8.74358 0.335205 0
M  V30 6303 C 1131.23 -6.83093 1.70294 0
M  V30 6304 C 1130.52 -5.79992 0.836974 0
M  V30 6305 N 1130.57 -4.41769 1.38263 0
M  V30 6306 C 1130.72 -3.38591 0.481702 0
M  V30 6307 O 1130.81 -3.56839 -0.718452 0
M  V30 6308 N 1130.76 -2.1206 1.03569 0
M  V30 6309 C 1130.67 -1.80696 2.36966 0
M  V30 6310 O 1130.72 -0.630473 2.74862 0
M  V30 6311 C 1130.52 -2.94845 3.23898 0
M  V30 6312 C 1130.41 -2.65253 4.70362 0
M  V30 6313 C 1130.47 -4.19803 2.73435 0
M  V30 6314 H 1127.73 -8.13644 3.0377 0
M  V30 6315 H 1127.46 -6.42695 2.55448 0
M  V30 6316 H 1128.33 -8.12039 0.792769 0
M  V30 6317 H 1130.99 -5.79978 -0.160587 0
M  V30 6318 H 1131.27 -6.51379 2.75643 0
M  V30 6319 H 1132.26 -7.01734 1.34462 0
M  V30 6320 H 1130.42 -8.73674 2.38337 0
M  V30 6321 H 1130.35 -5.04492 3.4095 0
M  V30 6322 H 1131.38 -2.83924 5.1913 0
M  V30 6323 H 1129.65 -3.29824 5.15163 0
M  V30 6324 H 1130.13 -1.59723 4.84449 0
M  V30 6325 H 1130.87 -1.35644 0.399345 0
M  V30 6326 P 1132.29 -8.91 -8.75855e-12 0
M  V30 6327 O 1132.51 -10.1726 -0.733694 0
M  V30 6328 O 1133.08 -8.73148 1.23936 0
M  V30 6329 O 1132.54 -7.66872 -0.971405 0
M  V30 6330 C 1131.6 -7.42309 -2.04641 0
M  V30 6331 C 1132.33 -6.86059 -3.24661 0
M  V30 6332 O 1132.54 -5.42847 -3.03646 0
M  V30 6333 C 1133.73 -7.41196 -3.50753 0
M  V30 6334 O 1134.12 -7.27073 -4.86816 0
M  V30 6335 C 1134.61 -6.5273 -2.63741 0
M  V30 6336 C 1133.9 -5.1842 -2.73198 0
M  V30 6337 N 1133.95 -4.38762 -1.4784 0
M  V30 6338 H 1131.11 -8.36803 -2.32493 0
M  V30 6339 H 1130.84 -6.70197 -1.71129 0
M  V30 6340 H 1131.71 -7.03551 -4.13168 0
M  V30 6341 P 1135.67 -7.20834 -5.23717 0
M  V30 6342 O 1135.89 -7.79853 -6.57286 0
M  V30 6343 O 1136.46 -7.79239 -4.12957 0
M  V30 6344 O 1135.92 -5.63315 -5.29344 0
M  V30 6345 C 1134.98 -4.80255 -6.01876 0
M  V30 6346 C 1135.71 -3.64202 -6.65911 0
M  V30 6347 O 1135.92 -2.60694 -5.64732 0
M  V30 6348 C 1137.11 -3.93473 -7.1943 0
M  V30 6349 O 1137.5 -3.02071 -8.21205 0
M  V30 6350 C 1137.99 -3.73047 -5.97036 0
M  V30 6351 C 1137.28 -2.58828 -5.25741 0
M  V30 6352 N 1137.33 -2.68068 -3.77503 0
M  V30 6353 H 1134.49 -5.40332 -6.79951 0
M  V30 6354 H 1134.22 -4.41613 -5.32378 0
M  V30 6355 H 1135.09 -3.26331 -7.47797 0
M  V30 6356 P 1139.05 -2.75334 -8.47391 0
M  V30 6357 O 1139.27 -2.44571 -9.90142 0
M  V30 6358 O 1139.84 -3.87688 -7.92115 0
M  V30 6359 O 1139.3 -1.4459 -7.59357 0
M  V30 6360 C 1138.36 -0.347608 -7.69215 0
M  V30 6361 C 1139.09 0.96767 -7.52806 0
M  V30 6362 O 1139.3 1.21036 -6.1011 0
M  V30 6363 C 1140.49 1.04544 -8.13308 0
M  V30 6364 O 1140.88 2.38311 -8.41922 0
M  V30 6365 C 1141.37 0.491279 -7.02284 0
M  V30 6366 C 1140.66 0.996264 -5.77469 0
M  V30 6367 N 1140.71 0.0501916 -4.62973 0
M  V30 6368 H 1137.87 -0.374722 -8.67691 0
M  V30 6369 H 1137.6 -0.443485 -6.90277 0
M  V30 6370 H 1138.47 1.75537 -7.96793 0
M  V30 6371 P 1142.43 2.75334 -8.47391 0
M  V30 6372 O 1142.65 3.84128 -9.44797 0
M  V30 6373 O 1143.22 1.51947 -8.68712 0
M  V30 6374 O 1142.68 3.29363 -6.99321 0
M  V30 6375 C 1141.74 4.24011 -6.4274 0
M  V30 6376 C 1142.47 5.20775 -5.52155 0
M  V30 6377 O 1142.68 4.56534 -4.22446 0
M  V30 6378 C 1143.87 5.62629 -5.96531 0
M  V30 6379 O 1144.26 6.87667 -5.41053 0
M  V30 6380 C 1144.75 4.52537 -5.39283 0
M  V30 6381 C 1144.04 4.20027 -4.08623 0
M  V30 6382 N 1144.09 2.76189 -3.71603 0
M  V30 6383 H 1141.25 4.797 -7.24003 0
M  V30 6384 H 1140.98 3.69856 -5.84513 0
M  V30 6385 H 1141.85 6.10356 -5.41441 0
M  V30 6386 P 1145.81 7.20834 -5.23717 0
M  V30 6387 O 1146.03 8.66104 -5.38572 0
M  V30 6388 O 1146.6 6.33544 -6.1349 0
M  V30 6389 O 1146.06 6.7751 -3.72168 0
M  V30 6390 C 1145.12 7.20825 -2.7076 0
M  V30 6391 C 1145.85 7.45864 -1.40599 0
M  V30 6392 O 1146.06 6.17651 -0.734225 0
M  V30 6393 C 1147.25 8.05808 -1.51899 0
M  V30 6394 O 1147.64 8.74358 -0.335205 0
M  V30 6395 C 1148.13 6.83093 -1.70294 0
M  V30 6396 C 1147.42 5.79992 -0.836974 0
M  V30 6397 N 1147.47 4.41864 -1.38293 0
M  V30 6398 H 1144.63 8.13644 -3.0377 0
M  V30 6399 H 1144.36 6.42788 -2.55485 0
M  V30 6400 H 1145.23 8.12039 -0.792769 0
M  V30 6401 P 1149.19 8.91 8.91573e-12 0
M  V30 6402 O 1149.41 10.1726 0.733694 0
M  V30 6403 O 1149.98 8.73148 -1.23936 0
M  V30 6404 O 1149.44 7.66872 0.971405 0
M  V30 6405 C 1148.5 7.42309 2.04641 0
M  V30 6406 C 1149.23 6.86059 3.24661 0
M  V30 6407 O 1149.44 5.42847 3.03646 0
M  V30 6408 C 1150.63 7.41196 3.50753 0
M  V30 6409 O 1151.02 7.27073 4.86816 0
M  V30 6410 C 1151.51 6.5273 2.63741 0
M  V30 6411 C 1150.8 5.1842 2.73198 0
M  V30 6412 N 1150.85 4.38762 1.4784 0
M  V30 6413 H 1148.01 8.36803 2.32493 0
M  V30 6414 H 1147.74 6.70197 1.71129 0
M  V30 6415 H 1148.61 7.03551 4.13168 0
M  V30 6416 P 1152.57 7.20834 5.23717 0
M  V30 6417 O 1152.79 7.79853 6.57286 0
M  V30 6418 O 1153.36 7.79239 4.12957 0
M  V30 6419 O 1152.82 5.63315 5.29344 0
M  V30 6420 C 1151.88 4.80255 6.01876 0
M  V30 6421 C 1152.61 3.64202 6.65911 0
M  V30 6422 O 1152.82 2.60694 5.64732 0
M  V30 6423 C 1154.01 3.93473 7.1943 0
M  V30 6424 O 1154.4 3.02071 8.21205 0
M  V30 6425 C 1154.89 3.73047 5.97036 0
M  V30 6426 C 1154.18 2.58828 5.25741 0
M  V30 6427 N 1154.23 2.68068 3.77503 0
M  V30 6428 H 1151.39 5.40332 6.79951 0
M  V30 6429 H 1151.12 4.41613 5.32378 0
M  V30 6430 H 1151.99 3.26331 7.47797 0
M  V30 6431 P 1155.95 2.75334 8.47391 0
M  V30 6432 O 1156.17 2.44571 9.90142 0
M  V30 6433 O 1156.74 3.87688 7.92115 0
M  V30 6434 O 1156.2 1.4459 7.59357 0
M  V30 6435 C 1155.26 0.347608 7.69215 0
M  V30 6436 C 1155.99 -0.96767 7.52806 0
M  V30 6437 O 1156.2 -1.21036 6.1011 0
M  V30 6438 C 1157.39 -1.04544 8.13308 0
M  V30 6439 O 1157.78 -2.38311 8.41922 0
M  V30 6440 C 1158.27 -0.491279 7.02284 0
M  V30 6441 C 1157.56 -0.996264 5.77469 0
M  V30 6442 N 1157.61 -0.0501916 4.62973 0
M  V30 6443 H 1154.77 0.374722 8.67691 0
M  V30 6444 H 1154.5 0.443485 6.90277 0
M  V30 6445 H 1155.37 -1.75537 7.96793 0
M  V30 6446 P 1159.33 -2.75334 8.47391 0
M  V30 6447 O 1159.55 -3.84128 9.44797 0
M  V30 6448 O 1160.12 -1.51947 8.68712 0
M  V30 6449 O 1159.58 -3.29363 6.99321 0
M  V30 6450 C 1158.64 -4.24011 6.4274 0
M  V30 6451 C 1159.37 -5.20775 5.52155 0
M  V30 6452 O 1159.58 -4.56534 4.22446 0
M  V30 6453 C 1160.77 -5.62629 5.96531 0
M  V30 6454 O 1161.16 -6.87667 5.41053 0
M  V30 6455 C 1161.65 -4.52537 5.39283 0
M  V30 6456 C 1160.94 -4.20027 4.08623 0
M  V30 6457 N 1160.99 -2.76189 3.71603 0
M  V30 6458 H 1158.15 -4.797 7.24003 0
M  V30 6459 H 1157.88 -3.69856 5.84513 0
M  V30 6460 H 1158.75 -6.10356 5.41441 0
M  V30 6461 P 1162.71 -7.20834 5.23717 0
M  V30 6462 O 1162.93 -8.66104 5.38572 0
M  V30 6463 O 1163.5 -6.33544 6.1349 0
M  V30 6464 O 1162.96 -6.7751 3.72168 0
M  V30 6465 C 1162.02 -7.20825 2.7076 0
M  V30 6466 C 1162.75 -7.45864 1.40599 0
M  V30 6467 O 1162.96 -6.17651 0.734225 0
M  V30 6468 C 1164.15 -8.05808 1.51899 0
M  V30 6469 O 1164.54 -8.74358 0.335205 0
M  V30 6470 C 1165.03 -6.83093 1.70294 0
M  V30 6471 C 1164.32 -5.79992 0.836974 0
M  V30 6472 N 1164.37 -4.41864 1.38293 0
M  V30 6473 H 1161.53 -8.13644 3.0377 0
M  V30 6474 H 1161.26 -6.42788 2.55485 0
M  V30 6475 H 1162.13 -8.12039 0.792769 0
M  V30 6476 P 1166.09 -8.91 -9.07291e-12 0
M  V30 6477 O 1166.31 -10.1726 -0.733694 0
M  V30 6478 O 1166.88 -8.73148 1.23936 0
M  V30 6479 O 1166.34 -7.66872 -0.971405 0
M  V30 6480 C 1165.4 -7.42309 -2.04641 0
M  V30 6481 C 1166.13 -6.86059 -3.24661 0
M  V30 6482 O 1166.34 -5.42847 -3.03646 0
M  V30 6483 C 1167.53 -7.41196 -3.50753 0
M  V30 6484 O 1167.92 -7.27073 -4.86816 0
M  V30 6485 C 1168.41 -6.5273 -2.63741 0
M  V30 6486 C 1167.7 -5.1842 -2.73198 0
M  V30 6487 N 1167.75 -4.38762 -1.4784 0
M  V30 6488 H 1164.91 -8.36803 -2.32493 0
M  V30 6489 H 1164.64 -6.70197 -1.71129 0
M  V30 6490 H 1165.51 -7.03551 -4.13168 0
M  V30 6491 P 1169.47 -7.20834 -5.23717 0
M  V30 6492 O 1169.69 -7.79853 -6.57286 0
M  V30 6493 O 1170.26 -7.79239 -4.12957 0
M  V30 6494 O 1169.72 -5.63315 -5.29344 0
M  V30 6495 C 1168.78 -4.80255 -6.01876 0
M  V30 6496 C 1169.51 -3.64202 -6.65911 0
M  V30 6497 O 1169.72 -2.60694 -5.64732 0
M  V30 6498 C 1170.91 -3.93473 -7.1943 0
M  V30 6499 O 1171.3 -3.02071 -8.21205 0
M  V30 6500 C 1171.79 -3.73047 -5.97036 0
M  V30 6501 C 1171.08 -2.58828 -5.25741 0
M  V30 6502 N 1171.13 -2.68068 -3.77503 0
M  V30 6503 C 1171.05 -3.79715 -2.96723 0
M  V30 6504 N 1171.13 -3.5377 -1.68852 0
M  V30 6505 C 1171.27 -2.15054 -1.63254 0
M  V30 6506 C 1171.4 -1.28964 -0.518571 0
M  V30 6507 O 1171.42 -1.56826 0.679156 0
M  V30 6508 N 1171.52 0.0538097 -0.918425 0
M  V30 6509 C 1171.52 0.494275 -2.22578 0
M  V30 6510 N 1171.65 1.81086 -2.40434 0
M  V30 6511 N 1171.39 -0.313645 -3.27502 0
M  V30 6512 C 1171.27 -1.61829 -2.91033 0
M  V30 6513 H 1168.29 -5.40332 -6.79951 0
M  V30 6514 H 1168.02 -4.41613 -5.32378 0
M  V30 6515 H 1168.89 -3.26331 -7.47797 0
M  V30 6516 H 1171.55 -1.63422 -5.56814 0
M  V30 6517 H 1171.83 -4.63374 -5.34244 0
M  V30 6518 H 1172.82 -3.44728 -6.25838 0
M  V30 6519 H 1170.98 -4.96652 -7.57263 0
M  V30 6520 H 1170.93 -4.80617 -3.3614 0
M  V30 6521 H 1171.62 0.742702 -0.199384 0
M  V30 6522 H 1171.65 2.20598 -3.35588 0
M  V30 6523 H 1171.75 2.43518 -1.58945 0
M  V30 6524 P 1172.85 -2.75334 -8.47391 0
M  V30 6525 O 1173.07 -2.44571 -9.90142 0
M  V30 6526 O 1173.64 -3.87688 -7.92115 0
M  V30 6527 O 1173.1 -1.4459 -7.59357 0
M  V30 6528 C 1172.16 -0.347608 -7.69215 0
M  V30 6529 C 1172.89 0.96767 -7.52806 0
M  V30 6530 O 1173.1 1.21036 -6.1011 0
M  V30 6531 C 1174.29 1.04544 -8.13308 0
M  V30 6532 O 1174.68 2.38311 -8.41922 0
M  V30 6533 C 1175.17 0.491279 -7.02284 0
M  V30 6534 C 1174.46 0.996264 -5.77469 0
M  V30 6535 N 1174.51 0.0501916 -4.62973 0
M  V30 6536 C 1174.43 -1.32786 -4.63244 0
M  V30 6537 N 1174.51 -1.86957 -3.44545 0
M  V30 6538 C 1174.65 -0.780241 -2.58481 0
M  V30 6539 C 1174.78 -0.738536 -1.17757 0
M  V30 6540 O 1174.8 -1.66794 -0.372349 0
M  V30 6541 N 1174.9 0.58337 -0.711393 0
M  V30 6542 C 1174.9 1.70816 -1.51017 0
M  V30 6543 N 1175.03 2.87826 -0.880757 0
M  V30 6544 N 1174.77 1.67126 -2.8339 0
M  V30 6545 C 1174.65 0.401421 -3.30572 0
M  V30 6546 H 1171.67 -0.374722 -8.67691 0
M  V30 6547 H 1171.4 -0.443485 -6.90277 0
M  V30 6548 H 1172.27 1.75537 -7.96793 0
M  V30 6549 H 1174.93 1.95076 -5.46529 0
M  V30 6550 H 1175.21 -0.608565 -7.04577 0
M  V30 6551 H 1176.2 0.889672 -7.08939 0
M  V30 6552 H 1174.36 0.43308 -9.04564 0
M  V30 6553 H 1174.31 -1.91249 -5.54442 0
M  V30 6554 H 1175 0.718054 0.275244 0
M  V30 6555 H 1175.03 3.75721 -1.41832 0
M  V30 6556 H 1175.13 2.90436 0.145468 0
M  V30 6557 P 1176.23 2.75334 -8.47391 0
M  V30 6558 O 1176.45 3.84128 -9.44797 0
M  V30 6559 O 1177.02 1.51947 -8.68712 0
M  V30 6560 O 1176.48 3.29363 -6.99321 0
M  V30 6561 C 1175.54 4.24011 -6.4274 0
M  V30 6562 C 1176.27 5.20775 -5.52155 0
M  V30 6563 O 1176.48 4.56534 -4.22446 0
M  V30 6564 C 1177.67 5.62629 -5.96531 0
M  V30 6565 O 1178.06 6.87667 -5.41053 0
M  V30 6566 C 1178.55 4.52537 -5.39283 0
M  V30 6567 C 1177.84 4.20027 -4.08623 0
M  V30 6568 N 1177.89 2.76189 -3.71603 0
M  V30 6569 H 1175.05 4.797 -7.24003 0
M  V30 6570 H 1174.78 3.69856 -5.84513 0
M  V30 6571 H 1175.65 6.10356 -5.41441 0
M  V30 6572 P 1179.61 7.20834 -5.23717 0
M  V30 6573 O 1179.83 8.66274 -5.38678 0
M  V30 6574 O 1180.4 6.33687 -6.13629 0
M  V30 6575 O 1179.86 6.7751 -3.72168 0
M  V30 6576 C 1178.92 7.20919 -2.70795 0
M  V30 6577 C 1179.65 7.45864 -1.40599 0
M  V30 6578 O 1179.86 6.17751 -0.734343 0
M  V30 6579 C 1181.05 8.05906 -1.51917 0
M  V30 6580 O 1181.44 8.74358 -0.335205 0
M  V30 6581 C 1181.93 6.83093 -1.70294 0
M  V30 6582 C 1181.22 5.79992 -0.836974 0
M  V30 6583 N 1181.27 4.41864 -1.38293 0
M  V30 6584 C 1181.19 4.02089 -2.69407 0
M  V30 6585 N 1181.26 2.73403 -2.85089 0
M  V30 6586 C 1181.41 2.25086 -1.5642 0
M  V30 6587 C 1181.54 0.942887 -1.04836 0
M  V30 6588 N 1181.55 -0.150999 -1.80369 0
M  V30 6589 N 1181.66 0.812565 0.28167 0
M  V30 6590 C 1181.65 1.90572 1.03784 0
M  V30 6591 N 1181.53 3.167 0.683905 0
M  V30 6592 C 1181.41 3.26538 -0.652815 0
M  V30 6593 H 1178.44 8.13738 -3.03804 0
M  V30 6594 H 1178.16 6.42974 -2.55559 0
M  V30 6595 H 1179.03 8.12139 -0.792866 0
M  V30 6596 H 1181.69 5.80178 0.160643 0
M  V30 6597 H 1181.97 6.51379 -2.75643 0
M  V30 6598 H 1182.96 7.01832 -1.3448 0
M  V30 6599 H 1181.12 8.73771 -2.38364 0
M  V30 6600 H 1181.08 4.7189 -3.52311 0
M  V30 6601 H 1181.46 -0.0721434 -2.82608 0
M  V30 6602 H 1181.65 -1.0785 -1.36544 0
M  V30 6603 H 1181.76 1.73207 2.10241 0
M  V30 6604 P 1182.99 8.91 9.23009e-12 0
M  V30 6605 O 1183.21 10.1726 0.733694 0
M  V30 6606 O 1183.78 8.73148 -1.23936 0
M  V30 6607 O 1183.24 7.66872 0.971405 0
M  V30 6608 C 1182.3 7.42309 2.04641 0
M  V30 6609 C 1183.03 6.86059 3.24661 0
M  V30 6610 O 1183.24 5.42847 3.03646 0
M  V30 6611 C 1184.43 7.41196 3.50753 0
M  V30 6612 O 1184.82 7.27073 4.86816 0
M  V30 6613 C 1185.31 6.5273 2.63741 0
M  V30 6614 C 1184.6 5.1842 2.73198 0
M  V30 6615 N 1184.65 4.38762 1.4784 0
M  V30 6616 H 1181.81 8.36803 2.32493 0
M  V30 6617 H 1181.54 6.70197 1.71129 0
M  V30 6618 H 1182.41 7.03551 4.13168 0
M  V30 6619 P 1186.37 7.20834 5.23717 0
M  V30 6620 O 1186.59 7.79853 6.57286 0
M  V30 6621 O 1187.16 7.79239 4.12957 0
M  V30 6622 O 1186.62 5.63315 5.29344 0
M  V30 6623 C 1185.68 4.80255 6.01876 0
M  V30 6624 C 1186.41 3.64202 6.65911 0
M  V30 6625 O 1186.62 2.60694 5.64732 0
M  V30 6626 C 1187.81 3.93473 7.1943 0
M  V30 6627 O 1188.2 3.02071 8.21205 0
M  V30 6628 C 1188.69 3.73047 5.97036 0
M  V30 6629 C 1187.98 2.58828 5.25741 0
M  V30 6630 N 1188.03 2.68068 3.77503 0
M  V30 6631 H 1185.19 5.40332 6.79951 0
M  V30 6632 H 1184.92 4.41613 5.32378 0
M  V30 6633 H 1185.79 3.26331 7.47797 0
M  V30 6634 P 1189.75 2.75334 8.47391 0
M  V30 6635 O 1189.97 2.44619 9.90336 0
M  V30 6636 O 1190.54 3.87776 7.92294 0
M  V30 6637 O 1190 1.4459 7.59357 0
M  V30 6638 C 1189.06 0.347653 7.69315 0
M  V30 6639 C 1189.79 -0.96767 7.52806 0
M  V30 6640 O 1190 -1.21055 6.10208 0
M  V30 6641 C 1191.19 -1.04557 8.13408 0
M  V30 6642 O 1191.58 -2.38311 8.41922 0
M  V30 6643 C 1192.07 -0.491279 7.02284 0
M  V30 6644 C 1191.36 -0.996264 5.77469 0
M  V30 6645 N 1191.41 -0.0501916 4.62973 0
M  V30 6646 C 1191.33 1.31969 4.65661 0
M  V30 6647 N 1191.4 1.86649 3.48119 0
M  V30 6648 C 1191.55 0.792089 2.62406 0
M  V30 6649 C 1191.68 0.705684 1.2207 0
M  V30 6650 N 1191.69 1.76207 0.413762 0
M  V30 6651 N 1191.8 -0.518981 0.685754 0
M  V30 6652 C 1191.79 -1.57595 1.49174 0
M  V30 6653 N 1191.67 -1.62909 2.80066 0
M  V30 6654 C 1191.55 -0.388195 3.3073 0
M  V30 6655 H 1188.57 0.374765 8.67791 0
M  V30 6656 H 1188.3 0.443613 6.90476 0
M  V30 6657 H 1189.17 -1.75559 7.96891 0
M  V30 6658 H 1191.83 -1.94563 5.46818 0
M  V30 6659 H 1192.11 0.608651 7.04676 0
M  V30 6660 H 1193.1 -0.889796 7.09039 0
M  V30 6661 H 1191.26 -0.433128 9.04664 0
M  V30 6662 H 1191.22 1.89246 5.57664 0
M  V30 6663 H 1191.6 2.71005 0.804694 0
M  V30 6664 H 1191.79 1.63189 -0.603768 0
M  V30 6665 H 1191.9 -2.53475 0.997614 0
M  V30 6666 P 1193.13 -2.75334 8.47391 0
M  V30 6667 O 1193.35 -3.84204 9.44982 0
M  V30 6668 O 1193.92 -1.51982 8.68909 0
M  V30 6669 O 1193.38 -3.29363 6.99321 0
M  V30 6670 C 1192.44 -4.24066 6.42823 0
M  V30 6671 C 1193.17 -5.20775 5.52155 0
M  V30 6672 O 1193.38 -4.56607 4.22514 0
M  V30 6673 C 1194.57 -5.62697 5.96604 0
M  V30 6674 O 1194.96 -6.87667 5.41053 0
M  V30 6675 C 1195.45 -4.52537 5.39283 0
M  V30 6676 C 1194.74 -4.20027 4.08623 0
M  V30 6677 N 1194.79 -2.76189 3.71603 0
M  V30 6678 H 1191.95 -4.79756 7.24086 0
M  V30 6679 H 1191.68 -3.69963 5.84682 0
M  V30 6680 H 1192.55 -6.10431 5.41508 0
M  V30 6681 H 1195.21 -4.78816 3.28024 0
M  V30 6682 H 1195.49 -3.64957 6.05871 0
M  V30 6683 H 1196.48 -4.88748 5.21323 0
M  V30 6684 H 1194.64 -5.66789 7.0643 0
M  V30 6685 P 1196.51 -7.20834 5.23717 0
M  V30 6686 O 1196.73 -8.66104 5.38572 0
M  V30 6687 O 1197.3 -6.33544 6.1349 0
M  V30 6688 O 1196.76 -6.7751 3.72168 0
M  V30 6689 C 1195.82 -7.20825 2.7076 0
M  V30 6690 C 1196.55 -7.45864 1.40599 0
M  V30 6691 O 1196.76 -6.17651 0.734225 0
M  V30 6692 C 1197.95 -8.05808 1.51899 0
M  V30 6693 O 1198.34 -8.74358 0.335205 0
M  V30 6694 C 1198.83 -6.83093 1.70294 0
M  V30 6695 C 1198.12 -5.79992 0.836974 0
M  V30 6696 N 1198.17 -4.41864 1.38293 0
M  V30 6697 H 1195.33 -8.13644 3.0377 0
M  V30 6698 H 1195.06 -6.42788 2.55485 0
M  V30 6699 H 1195.93 -8.12039 0.792769 0
M  V30 6700 P 1199.89 -8.91 -9.38728e-12 0
M  V30 6701 O 1200.11 -10.1726 -0.733694 0
M  V30 6702 O 1200.68 -8.73148 1.23936 0
M  V30 6703 O 1200.14 -7.66872 -0.971405 0
M  V30 6704 C 1199.2 -7.42309 -2.04641 0
M  V30 6705 C 1199.93 -6.86059 -3.24661 0
M  V30 6706 O 1200.14 -5.42847 -3.03646 0
M  V30 6707 C 1201.33 -7.41196 -3.50753 0
M  V30 6708 O 1201.72 -7.27073 -4.86816 0
M  V30 6709 C 1202.21 -6.5273 -2.63741 0
M  V30 6710 C 1201.5 -5.1842 -2.73198 0
M  V30 6711 N 1201.55 -4.38762 -1.4784 0
M  V30 6712 H 1198.71 -8.36803 -2.32493 0
M  V30 6713 H 1198.44 -6.70197 -1.71129 0
M  V30 6714 H 1199.31 -7.03551 -4.13168 0
M  V30 6715 P 1203.27 -7.20834 -5.23717 0
M  V30 6716 O 1203.49 -7.79853 -6.57286 0
M  V30 6717 O 1204.06 -7.79239 -4.12957 0
M  V30 6718 O 1203.52 -5.63315 -5.29344 0
M  V30 6719 C 1202.58 -4.80255 -6.01876 0
M  V30 6720 C 1203.31 -3.64202 -6.65911 0
M  V30 6721 O 1203.52 -2.60694 -5.64732 0
M  V30 6722 C 1204.71 -3.93473 -7.1943 0
M  V30 6723 O 1205.1 -3.02071 -8.21205 0
M  V30 6724 C 1205.59 -3.73047 -5.97036 0
M  V30 6725 C 1204.88 -2.58828 -5.25741 0
M  V30 6726 N 1204.93 -2.68068 -3.77503 0
M  V30 6727 H 1202.09 -5.40332 -6.79951 0
M  V30 6728 H 1201.82 -4.41613 -5.32378 0
M  V30 6729 H 1202.69 -3.26331 -7.47797 0
M  V30 6730 P 1206.65 -2.75334 -8.47391 0
M  V30 6731 O 1206.87 -2.44571 -9.90142 0
M  V30 6732 O 1207.44 -3.87688 -7.92115 0
M  V30 6733 O 1206.9 -1.4459 -7.59357 0
M  V30 6734 C 1205.96 -0.347608 -7.69215 0
M  V30 6735 C 1206.69 0.96767 -7.52806 0
M  V30 6736 O 1206.9 1.21036 -6.1011 0
M  V30 6737 C 1208.09 1.04544 -8.13308 0
M  V30 6738 O 1208.48 2.38311 -8.41922 0
M  V30 6739 C 1208.97 0.491279 -7.02284 0
M  V30 6740 C 1208.26 0.996264 -5.77469 0
M  V30 6741 N 1208.31 0.0501916 -4.62973 0
M  V30 6742 H 1205.47 -0.374722 -8.67691 0
M  V30 6743 H 1205.2 -0.443485 -6.90277 0
M  V30 6744 H 1206.07 1.75537 -7.96793 0
M  V30 6745 P 1210.03 2.75334 -8.47391 0
M  V30 6746 O 1210.25 3.84204 -9.44982 0
M  V30 6747 O 1210.82 1.51982 -8.68909 0
M  V30 6748 O 1210.28 3.29363 -6.99321 0
M  V30 6749 C 1209.34 4.24066 -6.42823 0
M  V30 6750 C 1210.07 5.20775 -5.52155 0
M  V30 6751 O 1210.28 4.56607 -4.22514 0
M  V30 6752 C 1211.47 5.62697 -5.96604 0
M  V30 6753 O 1211.86 6.87667 -5.41053 0
M  V30 6754 C 1212.35 4.52537 -5.39283 0
M  V30 6755 C 1211.64 4.20027 -4.08623 0
M  V30 6756 N 1211.69 2.76189 -3.71603 0
M  V30 6757 H 1208.85 4.79756 -7.24086 0
M  V30 6758 H 1208.58 3.69963 -5.84682 0
M  V30 6759 H 1209.45 6.10431 -5.41508 0
M  V30 6760 H 1212.11 4.78816 -3.28024 0
M  V30 6761 H 1212.39 3.64957 -6.05871 0
M  V30 6762 H 1213.38 4.88748 -5.21323 0
M  V30 6763 H 1211.54 5.66789 -7.0643 0
M  V30 6764 P 1213.41 7.20834 -5.23717 0
M  V30 6765 O 1213.63 8.66274 -5.38678 0
M  V30 6766 O 1214.2 6.33687 -6.13629 0
M  V30 6767 O 1213.66 6.7751 -3.72168 0
M  V30 6768 C 1212.72 7.20919 -2.70795 0
M  V30 6769 C 1213.45 7.45864 -1.40599 0
M  V30 6770 O 1213.66 6.17751 -0.734343 0
M  V30 6771 C 1214.85 8.05906 -1.51917 0
M  V30 6772 O 1215.24 8.74358 -0.335205 0
M  V30 6773 C 1215.73 6.83093 -1.70294 0
M  V30 6774 C 1215.02 5.79992 -0.836974 0
M  V30 6775 N 1215.07 4.41864 -1.38293 0
M  V30 6776 H 1212.23 8.13738 -3.03804 0
M  V30 6777 H 1211.96 6.42974 -2.55559 0
M  V30 6778 H 1212.83 8.12139 -0.792866 0
M  V30 6779 H 1215.49 5.80178 0.160643 0
M  V30 6780 H 1215.77 6.51379 -2.75643 0
M  V30 6781 H 1216.76 7.01832 -1.3448 0
M  V30 6782 H 1214.92 8.73771 -2.38364 0
M  V30 6783 P 1216.79 8.91 9.54446e-12 0
M  V30 6784 O 1217.01 10.1746 0.733838 0
M  V30 6785 O 1217.58 8.73346 -1.23964 0
M  V30 6786 O 1217.04 7.66872 0.971405 0
M  V30 6787 C 1216.1 7.42405 2.04668 0
M  V30 6788 C 1216.83 6.86059 3.24661 0
M  V30 6789 O 1217.04 5.42934 3.03695 0
M  V30 6790 C 1218.23 7.41287 3.50796 0
M  V30 6791 O 1218.62 7.27073 4.86816 0
M  V30 6792 C 1219.11 6.5273 2.63741 0
M  V30 6793 C 1218.4 5.1842 2.73198 0
M  V30 6794 N 1218.45 4.38762 1.4784 0
M  V30 6795 H 1215.61 8.36899 2.3252 0
M  V30 6796 H 1215.34 6.70391 1.71179 0
M  V30 6797 H 1216.21 7.03638 4.13219 0
M  V30 6798 H 1218.87 4.59931 3.54016 0
M  V30 6799 H 1219.15 6.88995 1.59871 0
M  V30 6800 H 1220.14 6.4684 3.0373 0
M  V30 6801 H 1218.3 8.47002 3.20749 0
M  V30 6802 P 1220.17 7.20834 5.23717 0
M  V30 6803 O 1220.39 7.79853 6.57286 0
M  V30 6804 O 1220.96 7.79239 4.12957 0
M  V30 6805 O 1220.42 5.63315 5.29344 0
M  V30 6806 C 1219.48 4.80255 6.01876 0
M  V30 6807 C 1220.21 3.64202 6.65911 0
M  V30 6808 O 1220.42 2.60694 5.64732 0
M  V30 6809 C 1221.61 3.93473 7.1943 0
M  V30 6810 O 1222 3.02071 8.21205 0
M  V30 6811 C 1222.49 3.73047 5.97036 0
M  V30 6812 C 1221.78 2.58828 5.25741 0
M  V30 6813 N 1221.83 2.68068 3.77503 0
M  V30 6814 H 1218.99 5.40332 6.79951 0
M  V30 6815 H 1218.72 4.41613 5.32378 0
M  V30 6816 H 1219.59 3.26331 7.47797 0
M  V30 6817 P 1223.55 2.75334 8.47391 0
M  V30 6818 O 1223.77 2.44571 9.90142 0
M  V30 6819 O 1224.34 3.87688 7.92115 0
M  V30 6820 O 1223.8 1.4459 7.59357 0
M  V30 6821 C 1222.86 0.347608 7.69215 0
M  V30 6822 C 1223.59 -0.96767 7.52806 0
M  V30 6823 O 1223.8 -1.21036 6.1011 0
M  V30 6824 C 1224.99 -1.04544 8.13308 0
M  V30 6825 O 1225.38 -2.38311 8.41922 0
M  V30 6826 C 1225.87 -0.491279 7.02284 0
M  V30 6827 C 1225.16 -0.996264 5.77469 0
M  V30 6828 N 1225.21 -0.0501916 4.62973 0
M  V30 6829 H 1222.37 0.374722 8.67691 0
M  V30 6830 H 1222.1 0.443485 6.90277 0
M  V30 6831 H 1222.97 -1.75537 7.96793 0
M  V30 6832 P 1226.93 -2.75334 8.47391 0
M  V30 6833 O 1227.15 -3.84128 9.44797 0
M  V30 6834 O 1227.72 -1.51947 8.68712 0
M  V30 6835 O 1227.18 -3.29363 6.99321 0
M  V30 6836 C 1226.24 -4.24011 6.4274 0
M  V30 6837 C 1226.97 -5.20775 5.52155 0
M  V30 6838 O 1227.18 -4.56534 4.22446 0
M  V30 6839 C 1228.37 -5.62629 5.96531 0
M  V30 6840 O 1228.76 -6.87667 5.41053 0
M  V30 6841 C 1229.25 -4.52537 5.39283 0
M  V30 6842 C 1228.54 -4.20027 4.08623 0
M  V30 6843 N 1228.59 -2.76189 3.71603 0
M  V30 6844 H 1225.75 -4.797 7.24003 0
M  V30 6845 H 1225.48 -3.69856 5.84513 0
M  V30 6846 H 1226.35 -6.10356 5.41441 0
M  V30 6847 P 1230.31 -7.20834 5.23717 0
M  V30 6848 O 1230.53 -8.66104 5.38572 0
M  V30 6849 O 1231.1 -6.33544 6.1349 0
M  V30 6850 O 1230.56 -6.7751 3.72168 0
M  V30 6851 C 1229.62 -7.20825 2.7076 0
M  V30 6852 C 1230.35 -7.45864 1.40599 0
M  V30 6853 O 1230.56 -6.17651 0.734225 0
M  V30 6854 C 1231.75 -8.05808 1.51899 0
M  V30 6855 O 1232.14 -8.74358 0.335205 0
M  V30 6856 C 1232.63 -6.83093 1.70294 0
M  V30 6857 C 1231.92 -5.79992 0.836974 0
M  V30 6858 N 1231.97 -4.41864 1.38293 0
M  V30 6859 H 1229.13 -8.13644 3.0377 0
M  V30 6860 H 1228.86 -6.42788 2.55485 0
M  V30 6861 H 1229.73 -8.12039 0.792769 0
M  V30 6862 P 1233.69 -8.91 -9.70164e-12 0
M  V30 6863 O 1233.91 -10.1746 -0.733838 0
M  V30 6864 O 1234.48 -8.73346 1.23964 0
M  V30 6865 O 1233.94 -7.66872 -0.971405 0
M  V30 6866 C 1233 -7.42405 -2.04668 0
M  V30 6867 C 1233.73 -6.86059 -3.24661 0
M  V30 6868 O 1233.94 -5.42934 -3.03695 0
M  V30 6869 C 1235.13 -7.41287 -3.50796 0
M  V30 6870 O 1235.52 -7.27073 -4.86816 0
M  V30 6871 C 1236.01 -6.5273 -2.63741 0
M  V30 6872 C 1235.3 -5.1842 -2.73198 0
M  V30 6873 N 1235.35 -4.38762 -1.4784 0
M  V30 6874 C 1235.27 -4.83651 -0.183876 0
M  V30 6875 N 1235.34 -3.88759 0.699393 0
M  V30 6876 C 1235.49 -2.7404 -0.0575568 0
M  V30 6877 C 1235.62 -1.37902 0.293928 0
M  V30 6878 N 1235.63 -0.938021 1.54797 0
M  V30 6879 N 1235.74 -0.491817 -0.70549 0
M  V30 6880 C 1235.73 -0.931735 -1.95979 0
M  V30 6881 N 1235.61 -2.16017 -2.41481 0
M  V30 6882 C 1235.49 -3.02547 -1.39121 0
M  V30 6883 H 1232.51 -8.36899 -2.3252 0
M  V30 6884 H 1232.24 -6.70391 -1.71179 0
M  V30 6885 H 1233.11 -7.03638 -4.13219 0
M  V30 6886 H 1235.77 -4.59931 -3.54016 0
M  V30 6887 H 1236.05 -6.88995 -1.59871 0
M  V30 6888 H 1237.04 -6.4684 -3.0373 0
M  V30 6889 H 1235.2 -8.47002 -3.20749 0
M  V30 6890 H 1235.16 -5.8885 0.0765548 0
M  V30 6891 H 1235.54 -1.60276 2.32875 0
M  V30 6892 H 1235.73 0.0699355 1.73859 0
M  V30 6893 H 1235.84 -0.165507 -2.71897 0
M  V30 6894 P 1237.07 -7.20834 -5.23717 0
M  V30 6895 O 1237.29 -7.79853 -6.57286 0
M  V30 6896 O 1237.86 -7.79239 -4.12957 0
M  V30 6897 O 1237.32 -5.63315 -5.29344 0
M  V30 6898 C 1236.38 -4.80255 -6.01876 0
M  V30 6899 C 1237.11 -3.64202 -6.65911 0
M  V30 6900 O 1237.32 -2.60694 -5.64732 0
M  V30 6901 C 1238.51 -3.93473 -7.1943 0
M  V30 6902 O 1238.9 -3.02071 -8.21205 0
M  V30 6903 C 1239.39 -3.73047 -5.97036 0
M  V30 6904 C 1238.68 -2.58828 -5.25741 0
M  V30 6905 N 1238.73 -2.68068 -3.77503 0
M  V30 6906 H 1235.89 -5.40332 -6.79951 0
M  V30 6907 H 1235.62 -4.41613 -5.32378 0
M  V30 6908 H 1236.49 -3.26331 -7.47797 0
M  V30 6909 P 1240.45 -2.75334 -8.47391 0
M  V30 6910 O 1240.67 -2.44571 -9.90142 0
M  V30 6911 O 1241.24 -3.87688 -7.92115 0
M  V30 6912 O 1240.7 -1.4459 -7.59357 0
M  V30 6913 C 1239.76 -0.347608 -7.69215 0
M  V30 6914 C 1240.49 0.96767 -7.52806 0
M  V30 6915 O 1240.7 1.21036 -6.1011 0
M  V30 6916 C 1241.89 1.04544 -8.13308 0
M  V30 6917 O 1242.28 2.38311 -8.41922 0
M  V30 6918 C 1242.77 0.491279 -7.02284 0
M  V30 6919 C 1242.06 0.996264 -5.77469 0
M  V30 6920 N 1242.11 0.0501916 -4.62973 0
M  V30 6921 H 1239.27 -0.374722 -8.67691 0
M  V30 6922 H 1239 -0.443485 -6.90277 0
M  V30 6923 H 1239.87 1.75537 -7.96793 0
M  V30 6924 P 1243.83 2.75334 -8.47391 0
M  V30 6925 O 1244.05 3.84128 -9.44797 0
M  V30 6926 O 1244.62 1.51947 -8.68712 0
M  V30 6927 O 1244.08 3.29363 -6.99321 0
M  V30 6928 C 1243.14 4.24011 -6.4274 0
M  V30 6929 C 1243.87 5.20775 -5.52155 0
M  V30 6930 O 1244.08 4.56534 -4.22446 0
M  V30 6931 C 1245.27 5.62629 -5.96531 0
M  V30 6932 O 1245.66 6.87667 -5.41053 0
M  V30 6933 C 1246.15 4.52537 -5.39283 0
M  V30 6934 C 1245.44 4.20027 -4.08623 0
M  V30 6935 N 1245.49 2.76189 -3.71603 0
M  V30 6936 H 1242.65 4.797 -7.24003 0
M  V30 6937 H 1242.38 3.69856 -5.84513 0
M  V30 6938 H 1243.25 6.10356 -5.41441 0
M  V30 6939 P 1247.21 7.20834 -5.23717 0
M  V30 6940 O 1247.43 8.66104 -5.38572 0
M  V30 6941 O 1248 6.33544 -6.1349 0
M  V30 6942 O 1247.46 6.7751 -3.72168 0
M  V30 6943 C 1246.52 7.20825 -2.7076 0
M  V30 6944 C 1247.25 7.45864 -1.40599 0
M  V30 6945 O 1247.46 6.17651 -0.734225 0
M  V30 6946 C 1248.65 8.05808 -1.51899 0
M  V30 6947 O 1249.04 8.74358 -0.335205 0
M  V30 6948 C 1249.53 6.83093 -1.70294 0
M  V30 6949 C 1248.82 5.79992 -0.836974 0
M  V30 6950 N 1248.87 4.41864 -1.38293 0
M  V30 6951 H 1246.03 8.13644 -3.0377 0
M  V30 6952 H 1245.76 6.42788 -2.55485 0
M  V30 6953 H 1246.63 8.12039 -0.792769 0
M  V30 6954 P 1250.59 8.91 9.85882e-12 0
M  V30 6955 O 1250.81 10.1726 0.733694 0
M  V30 6956 O 1251.38 8.73148 -1.23936 0
M  V30 6957 O 1250.84 7.66872 0.971405 0
M  V30 6958 C 1249.9 7.42309 2.04641 0
M  V30 6959 C 1250.63 6.86059 3.24661 0
M  V30 6960 O 1250.84 5.42847 3.03646 0
M  V30 6961 C 1252.03 7.41196 3.50753 0
M  V30 6962 O 1252.42 7.27073 4.86816 0
M  V30 6963 C 1252.91 6.5273 2.63741 0
M  V30 6964 C 1252.2 5.1842 2.73198 0
M  V30 6965 N 1252.25 4.38762 1.4784 0
M  V30 6966 H 1249.41 8.36803 2.32493 0
M  V30 6967 H 1249.14 6.70197 1.71129 0
M  V30 6968 H 1250.01 7.03551 4.13168 0
M  V30 6969 P 1253.97 7.20834 5.23717 0
M  V30 6970 O 1254.19 7.7993 6.57351 0
M  V30 6971 O 1254.76 7.79328 4.13004 0
M  V30 6972 O 1254.22 5.63315 5.29344 0
M  V30 6973 C 1253.28 4.80193 6.01798 0
M  V30 6974 C 1254.01 3.64202 6.65911 0
M  V30 6975 O 1254.22 2.60694 5.64732 0
M  V30 6976 C 1255.41 3.93473 7.1943 0
M  V30 6977 O 1255.8 3.02071 8.21205 0
M  V30 6978 C 1256.29 3.73047 5.97036 0
M  V30 6979 C 1255.58 2.58828 5.25741 0
M  V30 6980 N 1255.63 2.6801 3.77422 0
M  V30 6981 C 1255.78 1.50443 3.07133 0
M  V30 6982 O 1255.87 0.419406 3.61576 0
M  V30 6983 N 1255.82 1.6403 1.69677 0
M  V30 6984 C 1255.73 2.81206 0.986255 0
M  V30 6985 O 1255.78 2.80892 -0.249754 0
M  V30 6986 C 1255.58 3.99158 1.80325 0
M  V30 6987 C 1255.47 5.29309 1.06921 0
M  V30 6988 C 1255.53 3.89779 3.1476 0
M  V30 6989 H 1252.79 5.40332 6.79951 0
M  V30 6990 H 1252.52 4.41549 5.32301 0
M  V30 6991 H 1253.39 3.26331 7.47797 0
M  V30 6992 H 1256.05 1.6395 5.56554 0
M  V30 6993 H 1256.32 4.63439 5.3432 0
M  V30 6994 H 1257.32 3.44728 6.25838 0
M  V30 6995 H 1255.48 4.96652 7.57263 0
M  V30 6996 H 1255.41 4.80159 3.74441 0
M  V30 6997 H 1256.44 5.81459 1.09608 0
M  V30 6998 H 1254.7 5.9187 1.54487 0
M  V30 6999 H 1255.19 5.10095 0.0220288 0
M  V30 7000 H 1255.93 0.798962 1.16664 0
M  V30 7001 P 1257.35 2.75334 8.47391 0
M  V30 7002 O 1257.57 2.44571 9.90142 0
M  V30 7003 O 1258.14 3.87688 7.92115 0
M  V30 7004 O 1257.6 1.4459 7.59357 0
M  V30 7005 C 1256.66 0.347608 7.69215 0
M  V30 7006 C 1257.39 -0.96767 7.52806 0
M  V30 7007 O 1257.6 -1.21036 6.1011 0
M  V30 7008 C 1258.79 -1.04544 8.13308 0
M  V30 7009 O 1259.18 -2.38311 8.41922 0
M  V30 7010 C 1259.67 -0.491279 7.02284 0
M  V30 7011 C 1258.96 -0.996264 5.77469 0
M  V30 7012 N 1259.01 -0.0501916 4.62973 0
M  V30 7013 H 1256.17 0.374722 8.67691 0
M  V30 7014 H 1255.9 0.443485 6.90277 0
M  V30 7015 H 1256.77 -1.75537 7.96793 0
M  V30 7016 P 1260.73 -2.75334 8.47391 0
M  V30 7017 O 1260.95 -3.84128 9.44797 0
M  V30 7018 O 1261.52 -1.51947 8.68712 0
M  V30 7019 O 1260.98 -3.29363 6.99321 0
M  V30 7020 C 1260.04 -4.24011 6.4274 0
M  V30 7021 C 1260.77 -5.20775 5.52155 0
M  V30 7022 O 1260.98 -4.56534 4.22446 0
M  V30 7023 C 1262.17 -5.62629 5.96531 0
M  V30 7024 O 1262.56 -6.87667 5.41053 0
M  V30 7025 C 1263.05 -4.52537 5.39283 0
M  V30 7026 C 1262.34 -4.20027 4.08623 0
M  V30 7027 N 1262.39 -2.76189 3.71603 0
M  V30 7028 H 1259.55 -4.797 7.24003 0
M  V30 7029 H 1259.28 -3.69856 5.84513 0
M  V30 7030 H 1260.15 -6.10356 5.41441 0
M  V30 7031 P 1264.11 -7.20834 5.23717 0
M  V30 7032 O 1264.33 -8.66104 5.38572 0
M  V30 7033 O 1264.9 -6.33544 6.1349 0
M  V30 7034 O 1264.36 -6.7751 3.72168 0
M  V30 7035 C 1263.42 -7.20825 2.7076 0
M  V30 7036 C 1264.15 -7.45864 1.40599 0
M  V30 7037 O 1264.36 -6.17651 0.734225 0
M  V30 7038 C 1265.55 -8.05808 1.51899 0
M  V30 7039 O 1265.94 -8.74358 0.335205 0
M  V30 7040 C 1266.43 -6.83093 1.70294 0
M  V30 7041 C 1265.72 -5.79992 0.836974 0
M  V30 7042 N 1265.77 -4.41864 1.38293 0
M  V30 7043 H 1262.93 -8.13644 3.0377 0
M  V30 7044 H 1262.66 -6.42788 2.55485 0
M  V30 7045 H 1263.53 -8.12039 0.792769 0
M  V30 7046 P 1267.49 -8.91 -1.0016e-11 0
M  V30 7047 O 1267.71 -10.1726 -0.733694 0
M  V30 7048 O 1268.28 -8.73148 1.23936 0
M  V30 7049 O 1267.74 -7.66872 -0.971405 0
M  V30 7050 C 1266.8 -7.42309 -2.04641 0
M  V30 7051 C 1267.53 -6.86059 -3.24661 0
M  V30 7052 O 1267.74 -5.42847 -3.03646 0
M  V30 7053 C 1268.93 -7.41196 -3.50753 0
M  V30 7054 O 1269.32 -7.27073 -4.86816 0
M  V30 7055 C 1269.81 -6.5273 -2.63741 0
M  V30 7056 C 1269.1 -5.1842 -2.73198 0
M  V30 7057 N 1269.15 -4.38762 -1.4784 0
M  V30 7058 H 1266.31 -8.36803 -2.32493 0
M  V30 7059 H 1266.04 -6.70197 -1.71129 0
M  V30 7060 H 1266.91 -7.03551 -4.13168 0
M  V30 7061 P 1270.87 -7.20834 -5.23717 0
M  V30 7062 O 1271.09 -7.7993 -6.57351 0
M  V30 7063 O 1271.66 -7.79328 -4.13004 0
M  V30 7064 O 1271.12 -5.63315 -5.29344 0
M  V30 7065 C 1270.18 -4.80193 -6.01798 0
M  V30 7066 C 1270.91 -3.64202 -6.65911 0
M  V30 7067 O 1271.12 -2.60694 -5.64732 0
M  V30 7068 C 1272.31 -3.93473 -7.1943 0
M  V30 7069 O 1272.7 -3.02071 -8.21205 0
M  V30 7070 C 1273.19 -3.73047 -5.97036 0
M  V30 7071 C 1272.48 -2.58828 -5.25741 0
M  V30 7072 N 1272.53 -2.6801 -3.77422 0
M  V30 7073 C 1272.68 -1.50443 -3.07133 0
M  V30 7074 O 1272.77 -0.419406 -3.61576 0
M  V30 7075 N 1272.72 -1.6403 -1.69677 0
M  V30 7076 C 1272.63 -2.81206 -0.986255 0
M  V30 7077 O 1272.68 -2.80892 0.249754 0
M  V30 7078 C 1272.48 -3.99158 -1.80325 0
M  V30 7079 C 1272.37 -5.29309 -1.06921 0
M  V30 7080 C 1272.43 -3.89779 -3.1476 0
M  V30 7081 H 1269.69 -5.40332 -6.79951 0
M  V30 7082 H 1269.42 -4.41549 -5.32301 0
M  V30 7083 H 1270.29 -3.26331 -7.47797 0
M  V30 7084 H 1272.95 -1.6395 -5.56554 0
M  V30 7085 H 1273.22 -4.63439 -5.3432 0
M  V30 7086 H 1274.22 -3.44728 -6.25838 0
M  V30 7087 H 1272.38 -4.96652 -7.57263 0
M  V30 7088 H 1272.31 -4.80159 -3.74441 0
M  V30 7089 H 1273.34 -5.81459 -1.09608 0
M  V30 7090 H 1271.6 -5.9187 -1.54487 0
M  V30 7091 H 1272.09 -5.10095 -0.0220288 0
M  V30 7092 H 1272.83 -0.798962 -1.16664 0
M  V30 7093 P 1274.25 -2.75334 -8.47391 0
M  V30 7094 O 1274.47 -2.44571 -9.90142 0
M  V30 7095 O 1275.04 -3.87688 -7.92115 0
M  V30 7096 O 1274.5 -1.4459 -7.59357 0
M  V30 7097 C 1273.56 -0.347608 -7.69215 0
M  V30 7098 C 1274.29 0.96767 -7.52806 0
M  V30 7099 O 1274.5 1.21036 -6.1011 0
M  V30 7100 C 1275.69 1.04544 -8.13308 0
M  V30 7101 O 1276.08 2.38311 -8.41922 0
M  V30 7102 C 1276.57 0.491279 -7.02284 0
M  V30 7103 C 1275.86 0.996264 -5.77469 0
M  V30 7104 N 1275.91 0.0501916 -4.62973 0
M  V30 7105 H 1273.07 -0.374722 -8.67691 0
M  V30 7106 H 1272.8 -0.443485 -6.90277 0
M  V30 7107 H 1273.67 1.75537 -7.96793 0
M  V30 7108 P 1277.63 2.75334 -8.47391 0
M  V30 7109 O 1277.85 3.84128 -9.44797 0
M  V30 7110 O 1278.42 1.51947 -8.68712 0
M  V30 7111 O 1277.88 3.29363 -6.99321 0
M  V30 7112 C 1276.94 4.24011 -6.4274 0
M  V30 7113 C 1277.67 5.20775 -5.52155 0
M  V30 7114 O 1277.88 4.56534 -4.22446 0
M  V30 7115 C 1279.07 5.62629 -5.96531 0
M  V30 7116 O 1279.46 6.87667 -5.41053 0
M  V30 7117 C 1279.95 4.52537 -5.39283 0
M  V30 7118 C 1279.24 4.20027 -4.08623 0
M  V30 7119 N 1279.29 2.76189 -3.71603 0
M  V30 7120 H 1276.45 4.797 -7.24003 0
M  V30 7121 H 1276.18 3.69856 -5.84513 0
M  V30 7122 H 1277.05 6.10356 -5.41441 0
M  V30 7123 P 1281.01 7.20834 -5.23717 0
M  V30 7124 O 1281.23 8.66104 -5.38572 0
M  V30 7125 O 1281.8 6.33544 -6.1349 0
M  V30 7126 O 1281.26 6.7751 -3.72168 0
M  V30 7127 C 1280.32 7.20825 -2.7076 0
M  V30 7128 C 1281.05 7.45864 -1.40599 0
M  V30 7129 O 1281.26 6.17651 -0.734225 0
M  V30 7130 C 1282.45 8.05808 -1.51899 0
M  V30 7131 O 1282.84 8.74358 -0.335205 0
M  V30 7132 C 1283.33 6.83093 -1.70294 0
M  V30 7133 C 1282.62 5.79992 -0.836974 0
M  V30 7134 N 1282.67 4.41864 -1.38293 0
M  V30 7135 H 1279.83 8.13644 -3.0377 0
M  V30 7136 H 1279.56 6.42788 -2.55485 0
M  V30 7137 H 1280.43 8.12039 -0.792769 0
M  V30 7138 P 1284.39 8.91 1.01732e-11 0
M  V30 7139 O 1284.61 10.1746 0.733838 0
M  V30 7140 O 1285.18 8.73346 -1.23964 0
M  V30 7141 O 1284.64 7.66872 0.971405 0
M  V30 7142 C 1283.7 7.42405 2.04668 0
M  V30 7143 C 1284.43 6.86059 3.24661 0
M  V30 7144 O 1284.64 5.42934 3.03695 0
M  V30 7145 C 1285.83 7.41287 3.50796 0
M  V30 7146 O 1286.22 7.27073 4.86816 0
M  V30 7147 C 1286.71 6.5273 2.63741 0
M  V30 7148 C 1286 5.1842 2.73198 0
M  V30 7149 N 1286.05 4.38762 1.4784 0
M  V30 7150 H 1283.21 8.36899 2.3252 0
M  V30 7151 H 1282.94 6.70391 1.71179 0
M  V30 7152 H 1283.81 7.03638 4.13219 0
M  V30 7153 H 1286.47 4.59931 3.54016 0
M  V30 7154 H 1286.75 6.88995 1.59871 0
M  V30 7155 H 1287.74 6.4684 3.0373 0
M  V30 7156 H 1285.9 8.47002 3.20749 0
M  V30 7157 P 1287.77 7.20834 5.23717 0
M  V30 7158 O 1287.99 7.7993 6.57351 0
M  V30 7159 O 1288.56 7.79328 4.13004 0
M  V30 7160 O 1288.02 5.63315 5.29344 0
M  V30 7161 C 1287.08 4.80193 6.01798 0
M  V30 7162 C 1287.81 3.64202 6.65911 0
M  V30 7163 O 1288.02 2.60694 5.64732 0
M  V30 7164 C 1289.21 3.93473 7.1943 0
M  V30 7165 O 1289.6 3.02071 8.21205 0
M  V30 7166 C 1290.09 3.73047 5.97036 0
M  V30 7167 C 1289.38 2.58828 5.25741 0
M  V30 7168 N 1289.43 2.6801 3.77422 0
M  V30 7169 C 1289.58 1.50443 3.07133 0
M  V30 7170 O 1289.67 0.419406 3.61576 0
M  V30 7171 N 1289.62 1.6403 1.69677 0
M  V30 7172 C 1289.53 2.81206 0.986255 0
M  V30 7173 O 1289.58 2.80892 -0.249754 0
M  V30 7174 C 1289.38 3.99158 1.80325 0
M  V30 7175 C 1289.27 5.29309 1.06921 0
M  V30 7176 C 1289.33 3.89779 3.1476 0
M  V30 7177 H 1286.59 5.40332 6.79951 0
M  V30 7178 H 1286.32 4.41549 5.32301 0
M  V30 7179 H 1287.19 3.26331 7.47797 0
M  V30 7180 H 1289.85 1.6395 5.56554 0
M  V30 7181 H 1290.12 4.63439 5.3432 0
M  V30 7182 H 1291.12 3.44728 6.25838 0
M  V30 7183 H 1289.28 4.96652 7.57263 0
M  V30 7184 H 1289.21 4.80159 3.74441 0
M  V30 7185 H 1290.24 5.81459 1.09608 0
M  V30 7186 H 1288.5 5.9187 1.54487 0
M  V30 7187 H 1288.99 5.10095 0.0220288 0
M  V30 7188 H 1289.73 0.798962 1.16664 0
M  V30 7189 P 1291.15 2.75334 8.47391 0
M  V30 7190 O 1291.37 2.44571 9.90142 0
M  V30 7191 O 1291.94 3.87688 7.92115 0
M  V30 7192 O 1291.4 1.4459 7.59357 0
M  V30 7193 C 1290.46 0.347608 7.69215 0
M  V30 7194 C 1291.19 -0.96767 7.52806 0
M  V30 7195 O 1291.4 -1.21036 6.1011 0
M  V30 7196 C 1292.59 -1.04544 8.13308 0
M  V30 7197 O 1292.98 -2.38311 8.41922 0
M  V30 7198 C 1293.47 -0.491279 7.02284 0
M  V30 7199 C 1292.76 -0.996264 5.77469 0
M  V30 7200 N 1292.81 -0.0501916 4.62973 0
M  V30 7201 H 1289.97 0.374722 8.67691 0
M  V30 7202 H 1289.7 0.443485 6.90277 0
M  V30 7203 H 1290.57 -1.75537 7.96793 0
M  V30 7204 P 1294.53 -2.75334 8.47391 0
M  V30 7205 O 1294.75 -3.84128 9.44797 0
M  V30 7206 O 1295.32 -1.51947 8.68712 0
M  V30 7207 O 1294.78 -3.29363 6.99321 0
M  V30 7208 C 1293.84 -4.24011 6.4274 0
M  V30 7209 C 1294.57 -5.20775 5.52155 0
M  V30 7210 O 1294.78 -4.56534 4.22446 0
M  V30 7211 C 1295.97 -5.62629 5.96531 0
M  V30 7212 O 1296.36 -6.87667 5.41053 0
M  V30 7213 C 1296.85 -4.52537 5.39283 0
M  V30 7214 C 1296.14 -4.20027 4.08623 0
M  V30 7215 N 1296.19 -2.76189 3.71603 0
M  V30 7216 H 1293.35 -4.797 7.24003 0
M  V30 7217 H 1293.08 -3.69856 5.84513 0
M  V30 7218 H 1293.95 -6.10356 5.41441 0
M  V30 7219 P 1297.91 -7.20834 5.23717 0
M  V30 7220 O 1298.13 -8.66104 5.38572 0
M  V30 7221 O 1298.7 -6.33544 6.1349 0
M  V30 7222 O 1298.16 -6.7751 3.72168 0
M  V30 7223 C 1297.22 -7.20825 2.7076 0
M  V30 7224 C 1297.95 -7.45864 1.40599 0
M  V30 7225 O 1298.16 -6.17651 0.734225 0
M  V30 7226 C 1299.35 -8.05808 1.51899 0
M  V30 7227 O 1299.74 -8.74358 0.335205 0
M  V30 7228 C 1300.23 -6.83093 1.70294 0
M  V30 7229 C 1299.52 -5.79992 0.836974 0
M  V30 7230 N 1299.57 -4.41864 1.38293 0
M  V30 7231 H 1296.73 -8.13644 3.0377 0
M  V30 7232 H 1296.46 -6.42788 2.55485 0
M  V30 7233 H 1297.33 -8.12039 0.792769 0
M  V30 7234 P 1301.29 -8.91 -1.03304e-11 0
M  V30 7235 O 1301.51 -10.1726 -0.733694 0
M  V30 7236 O 1302.08 -8.73148 1.23936 0
M  V30 7237 O 1301.54 -7.66872 -0.971405 0
M  V30 7238 C 1300.6 -7.42309 -2.04641 0
M  V30 7239 C 1301.33 -6.86059 -3.24661 0
M  V30 7240 O 1301.54 -5.42847 -3.03646 0
M  V30 7241 C 1302.73 -7.41196 -3.50753 0
M  V30 7242 O 1303.12 -7.27073 -4.86816 0
M  V30 7243 C 1303.61 -6.5273 -2.63741 0
M  V30 7244 C 1302.9 -5.1842 -2.73198 0
M  V30 7245 N 1302.95 -4.38762 -1.4784 0
M  V30 7246 H 1300.11 -8.36803 -2.32493 0
M  V30 7247 H 1299.84 -6.70197 -1.71129 0
M  V30 7248 H 1300.71 -7.03551 -4.13168 0
M  V30 7249 P 1304.67 -7.20834 -5.23717 0
M  V30 7250 O 1304.89 -7.79853 -6.57286 0
M  V30 7251 O 1305.46 -7.79239 -4.12957 0
M  V30 7252 O 1304.92 -5.63315 -5.29344 0
M  V30 7253 C 1303.98 -4.80255 -6.01876 0
M  V30 7254 C 1304.71 -3.64202 -6.65911 0
M  V30 7255 O 1304.92 -2.60694 -5.64732 0
M  V30 7256 C 1306.11 -3.93473 -7.1943 0
M  V30 7257 O 1306.5 -3.02071 -8.21205 0
M  V30 7258 C 1306.99 -3.73047 -5.97036 0
M  V30 7259 C 1306.28 -2.58828 -5.25741 0
M  V30 7260 N 1306.33 -2.68068 -3.77503 0
M  V30 7261 H 1303.49 -5.40332 -6.79951 0
M  V30 7262 H 1303.22 -4.41613 -5.32378 0
M  V30 7263 H 1304.09 -3.26331 -7.47797 0
M  V30 7264 P 1308.05 -2.75334 -8.47391 0
M  V30 7265 O 1308.27 -2.44571 -9.90142 0
M  V30 7266 O 1308.84 -3.87688 -7.92115 0
M  V30 7267 O 1308.3 -1.4459 -7.59357 0
M  V30 7268 C 1307.36 -0.347608 -7.69215 0
M  V30 7269 C 1308.09 0.96767 -7.52806 0
M  V30 7270 O 1308.3 1.21036 -6.1011 0
M  V30 7271 C 1309.49 1.04544 -8.13308 0
M  V30 7272 O 1309.88 2.38311 -8.41922 0
M  V30 7273 C 1310.37 0.491279 -7.02284 0
M  V30 7274 C 1309.66 0.996264 -5.77469 0
M  V30 7275 N 1309.71 0.0501916 -4.62973 0
M  V30 7276 H 1306.87 -0.374722 -8.67691 0
M  V30 7277 H 1306.6 -0.443485 -6.90277 0
M  V30 7278 H 1307.47 1.75537 -7.96793 0
M  V30 7279 P 1311.43 2.75334 -8.47391 0
M  V30 7280 O 1311.65 3.84128 -9.44797 0
M  V30 7281 O 1312.22 1.51947 -8.68712 0
M  V30 7282 O 1311.68 3.29363 -6.99321 0
M  V30 7283 C 1310.74 4.24011 -6.4274 0
M  V30 7284 C 1311.47 5.20775 -5.52155 0
M  V30 7285 O 1311.68 4.56534 -4.22446 0
M  V30 7286 C 1312.87 5.62629 -5.96531 0
M  V30 7287 O 1313.26 6.87667 -5.41053 0
M  V30 7288 C 1313.75 4.52537 -5.39283 0
M  V30 7289 C 1313.04 4.20027 -4.08623 0
M  V30 7290 N 1313.09 2.76189 -3.71603 0
M  V30 7291 C 1313.01 1.64862 -4.52822 0
M  V30 7292 N 1313.09 0.512671 -3.88633 0
M  V30 7293 C 1313.23 0.888083 -2.54977 0
M  V30 7294 C 1313.36 0.094668 -1.38677 0
M  V30 7295 O 1313.38 -1.13053 -1.28163 0
M  V30 7296 N 1313.48 0.890102 -0.232633 0
M  V30 7297 C 1313.48 2.26958 -0.21772 0
M  V30 7298 N 1313.61 2.84626 0.97925 0
M  V30 7299 N 1313.35 3.0178 -1.31033 0
M  V30 7300 C 1313.23 2.26781 -2.43843 0
M  V30 7301 H 1310.25 4.797 -7.24003 0
M  V30 7302 H 1309.98 3.69856 -5.84513 0
M  V30 7303 H 1310.85 6.10356 -5.41441 0
M  V30 7304 H 1313.51 4.79061 -3.27488 0
M  V30 7305 H 1313.78 3.64906 -6.05785 0
M  V30 7306 H 1314.78 4.8868 -5.2125 0
M  V30 7307 H 1312.94 5.66726 -7.06352 0
M  V30 7308 H 1312.89 1.71169 -5.60966 0
M  V30 7309 H 1313.58 0.419134 0.644739 0
M  V30 7310 H 1313.61 3.87332 1.06098 0
M  V30 7311 H 1313.71 2.26417 1.82483 0
M  V30 7312 P 1314.81 7.20834 -5.23717 0
M  V30 7313 O 1315.03 8.66104 -5.38572 0
M  V30 7314 O 1315.6 6.33544 -6.1349 0
M  V30 7315 O 1315.06 6.7751 -3.72168 0
M  V30 7316 C 1314.12 7.20825 -2.7076 0
M  V30 7317 C 1314.85 7.45864 -1.40599 0
M  V30 7318 O 1315.06 6.17651 -0.734225 0
M  V30 7319 C 1316.25 8.05808 -1.51899 0
M  V30 7320 O 1316.64 8.74358 -0.335205 0
M  V30 7321 C 1317.13 6.83093 -1.70294 0
M  V30 7322 C 1316.42 5.79992 -0.836974 0
M  V30 7323 N 1316.47 4.41864 -1.38293 0
M  V30 7324 H 1313.63 8.13644 -3.0377 0
M  V30 7325 H 1313.36 6.42788 -2.55485 0
M  V30 7326 H 1314.23 8.12039 -0.792769 0
M  V30 7327 P 1318.19 8.91 1.04876e-11 0
M  V30 7328 O 1318.41 10.1736 0.733766 0
M  V30 7329 O 1318.98 8.73247 -1.2395 0
M  V30 7330 O 1318.44 7.66872 0.971405 0
M  V30 7331 C 1317.5 7.42212 2.04614 0
M  V30 7332 C 1318.23 6.86059 3.24661 0
M  V30 7333 O 1318.44 5.42847 3.03646 0
M  V30 7334 C 1319.63 7.41196 3.50753 0
M  V30 7335 O 1320.02 7.27073 4.86816 0
M  V30 7336 C 1320.51 6.5273 2.63741 0
M  V30 7337 C 1319.8 5.1842 2.73198 0
M  V30 7338 N 1319.85 4.38668 1.47808 0
M  V30 7339 C 1320 3.02239 1.60048 0
M  V30 7340 O 1320.09 2.46459 2.67869 0
M  V30 7341 N 1320.04 2.32436 0.408571 0
M  V30 7342 C 1319.95 2.85471 -0.854993 0
M  V30 7343 O 1320 2.12566 -1.8531 0
M  V30 7344 C 1319.8 4.28918 -0.887335 0
M  V30 7345 C 1319.69 4.91066 -2.24619 0
M  V30 7346 C 1319.75 5.00349 0.255399 0
M  V30 7347 H 1317.01 8.36803 2.32493 0
M  V30 7348 H 1316.74 6.701 1.71105 0
M  V30 7349 H 1317.61 7.03551 4.13168 0
M  V30 7350 H 1320.27 4.59773 3.53894 0
M  V30 7351 H 1320.54 6.88995 1.59871 0
M  V30 7352 H 1321.54 6.46749 3.03687 0
M  V30 7353 H 1319.7 8.46908 3.20714 0
M  V30 7354 H 1319.63 6.08548 0.206986 0
M  V30 7355 H 1320.66 5.34836 -2.53099 0
M  V30 7356 H 1318.92 5.69638 -2.2291 0
M  V30 7357 H 1319.41 4.13971 -2.98044 0
M  V30 7358 H 1320.15 1.33211 0.474216 0
M  V30 7359 P 1321.57 7.20834 5.23717 0
M  V30 7360 O 1321.79 7.7993 6.57351 0
M  V30 7361 O 1322.36 7.79328 4.13004 0
M  V30 7362 O 1321.82 5.63315 5.29344 0
M  V30 7363 C 1320.88 4.80255 6.01876 0
M  V30 7364 C 1321.61 3.64202 6.65911 0
M  V30 7365 O 1321.82 2.60694 5.64732 0
M  V30 7366 C 1323.01 3.93473 7.1943 0
M  V30 7367 O 1323.4 3.02071 8.21205 0
M  V30 7368 C 1323.89 3.73047 5.97036 0
M  V30 7369 C 1323.18 2.58828 5.25741 0
M  V30 7370 N 1323.23 2.6801 3.77422 0
M  V30 7371 C 1323.38 1.50173 3.05038 0
M  V30 7372 O 1323.47 0.428832 3.665 0
M  V30 7373 N 1323.43 1.70922 1.55541 0
M  V30 7374 C 1323.33 2.7407 1.06402 0
M  V30 7375 N 1323.38 2.74764 -0.260931 0
M  V30 7376 C 1323.18 3.96781 1.78296 0
M  V30 7377 C 1323.13 3.87909 3.13891 0
M  V30 7378 H 1320.39 5.4027 6.79873 0
M  V30 7379 H 1320.12 4.41549 5.32301 0
M  V30 7380 H 1320.99 3.26371 7.47889 0
M  V30 7381 H 1323.65 1.63978 5.5665 0
M  V30 7382 H 1323.92 4.63439 5.3432 0
M  V30 7383 H 1324.92 3.44728 6.25838 0
M  V30 7384 H 1323.08 4.96652 7.57263 0
M  V30 7385 H 1323.01 4.78425 3.73088 0
M  V30 7386 H 1323.11 4.92593 1.26997 0
M  V30 7387 H 1323.5 1.86285 -0.77595 0
M  V30 7388 H 1323.3 3.63657 -0.773896 0
M  V30 7389 P 1324.95 2.75334 8.47391 0
M  V30 7390 O 1325.17 2.44571 9.90142 0
M  V30 7391 O 1325.74 3.87688 7.92115 0
M  V30 7392 O 1325.2 1.4459 7.59357 0
M  V30 7393 C 1324.26 0.347608 7.69215 0
M  V30 7394 C 1324.99 -0.96767 7.52806 0
M  V30 7395 O 1325.2 -1.21036 6.1011 0
M  V30 7396 C 1326.39 -1.04544 8.13308 0
M  V30 7397 O 1326.78 -2.38311 8.41922 0
M  V30 7398 C 1327.27 -0.491279 7.02284 0
M  V30 7399 C 1326.56 -0.996264 5.77469 0
M  V30 7400 N 1326.61 -0.0501916 4.62973 0
M  V30 7401 H 1323.77 0.374722 8.67691 0
M  V30 7402 H 1323.5 0.443485 6.90277 0
M  V30 7403 H 1324.37 -1.75537 7.96793 0
M  V30 7404 P 1328.33 -2.75334 8.47391 0
M  V30 7405 O 1328.55 -3.84128 9.44797 0
M  V30 7406 O 1329.12 -1.51947 8.68712 0
M  V30 7407 O 1328.58 -3.29363 6.99321 0
M  V30 7408 C 1327.64 -4.24011 6.4274 0
M  V30 7409 C 1328.37 -5.20775 5.52155 0
M  V30 7410 O 1328.58 -4.56534 4.22446 0
M  V30 7411 C 1329.77 -5.62629 5.96531 0
M  V30 7412 O 1330.16 -6.87667 5.41053 0
M  V30 7413 C 1330.65 -4.52537 5.39283 0
M  V30 7414 C 1329.94 -4.20027 4.08623 0
M  V30 7415 N 1329.99 -2.76189 3.71603 0
M  V30 7416 H 1327.15 -4.797 7.24003 0
M  V30 7417 H 1326.88 -3.69856 5.84513 0
M  V30 7418 H 1327.75 -6.10356 5.41441 0
M  V30 7419 P 1331.71 -7.20834 5.23717 0
M  V30 7420 O 1331.93 -8.66104 5.38572 0
M  V30 7421 O 1332.5 -6.33544 6.1349 0
M  V30 7422 O 1331.96 -6.7751 3.72168 0
M  V30 7423 C 1331.02 -7.20825 2.7076 0
M  V30 7424 C 1331.75 -7.45864 1.40599 0
M  V30 7425 O 1331.96 -6.17651 0.734225 0
M  V30 7426 C 1333.15 -8.05808 1.51899 0
M  V30 7427 O 1333.54 -8.74358 0.335205 0
M  V30 7428 C 1334.03 -6.83093 1.70294 0
M  V30 7429 C 1333.32 -5.79992 0.836974 0
M  V30 7430 N 1333.37 -4.41864 1.38293 0
M  V30 7431 H 1330.53 -8.13644 3.0377 0
M  V30 7432 H 1330.26 -6.42788 2.55485 0
M  V30 7433 H 1331.13 -8.12039 0.792769 0
M  V30 7434 P 1335.09 -8.91 -1.06447e-11 0
M  V30 7435 O 1335.31 -10.1726 -0.733694 0
M  V30 7436 O 1335.88 -8.73148 1.23936 0
M  V30 7437 O 1335.34 -7.66872 -0.971405 0
M  V30 7438 C 1334.4 -7.42309 -2.04641 0
M  V30 7439 C 1335.13 -6.86059 -3.24661 0
M  V30 7440 O 1335.34 -5.42847 -3.03646 0
M  V30 7441 C 1336.53 -7.41196 -3.50753 0
M  V30 7442 O 1336.92 -7.27073 -4.86816 0
M  V30 7443 C 1337.41 -6.5273 -2.63741 0
M  V30 7444 C 1336.7 -5.1842 -2.73198 0
M  V30 7445 N 1336.75 -4.38762 -1.4784 0
M  V30 7446 H 1333.91 -8.36803 -2.32493 0
M  V30 7447 H 1333.64 -6.70197 -1.71129 0
M  V30 7448 H 1334.51 -7.03551 -4.13168 0
M  V30 7449 P 1338.47 -7.20834 -5.23717 0
M  V30 7450 O 1338.69 -7.79853 -6.57286 0
M  V30 7451 O 1339.26 -7.79239 -4.12957 0
M  V30 7452 O 1338.72 -5.63315 -5.29344 0
M  V30 7453 C 1337.78 -4.80255 -6.01876 0
M  V30 7454 C 1338.51 -3.64202 -6.65911 0
M  V30 7455 O 1338.72 -2.60694 -5.64732 0
M  V30 7456 C 1339.91 -3.93473 -7.1943 0
M  V30 7457 O 1340.3 -3.02071 -8.21205 0
M  V30 7458 C 1340.79 -3.73047 -5.97036 0
M  V30 7459 C 1340.08 -2.58828 -5.25741 0
M  V30 7460 N 1340.13 -2.68068 -3.77503 0
M  V30 7461 H 1337.29 -5.40332 -6.79951 0
M  V30 7462 H 1337.02 -4.41613 -5.32378 0
M  V30 7463 H 1337.89 -3.26331 -7.47797 0
M  V30 7464 P 1341.85 -2.75334 -8.47391 0
M  V30 7465 O 1342.07 -2.44571 -9.90142 0
M  V30 7466 O 1342.64 -3.87688 -7.92115 0
M  V30 7467 O 1342.1 -1.4459 -7.59357 0
M  V30 7468 C 1341.16 -0.347608 -7.69215 0
M  V30 7469 C 1341.89 0.96767 -7.52806 0
M  V30 7470 O 1342.1 1.21036 -6.1011 0
M  V30 7471 C 1343.29 1.04544 -8.13308 0
M  V30 7472 O 1343.68 2.38311 -8.41922 0
M  V30 7473 C 1344.17 0.491279 -7.02284 0
M  V30 7474 C 1343.46 0.996264 -5.77469 0
M  V30 7475 N 1343.51 0.0501916 -4.62973 0
M  V30 7476 H 1340.67 -0.374722 -8.67691 0
M  V30 7477 H 1340.4 -0.443485 -6.90277 0
M  V30 7478 H 1341.27 1.75537 -7.96793 0
M  V30 7479 P 1345.23 2.75334 -8.47391 0
M  V30 7480 O 1345.45 3.84128 -9.44797 0
M  V30 7481 O 1346.02 1.51947 -8.68712 0
M  V30 7482 O 1345.48 3.29363 -6.99321 0
M  V30 7483 C 1344.54 4.24011 -6.4274 0
M  V30 7484 C 1345.27 5.20775 -5.52155 0
M  V30 7485 O 1345.48 4.56534 -4.22446 0
M  V30 7486 C 1346.67 5.62629 -5.96531 0
M  V30 7487 O 1347.06 6.87667 -5.41053 0
M  V30 7488 C 1347.55 4.52537 -5.39283 0
M  V30 7489 C 1346.84 4.20027 -4.08623 0
M  V30 7490 N 1346.89 2.76189 -3.71603 0
M  V30 7491 H 1344.05 4.797 -7.24003 0
M  V30 7492 H 1343.78 3.69856 -5.84513 0
M  V30 7493 H 1344.65 6.10356 -5.41441 0
M  V30 7494 P 1348.61 7.20834 -5.23717 0
M  V30 7495 O 1348.83 8.66104 -5.38572 0
M  V30 7496 O 1349.4 6.33544 -6.1349 0
M  V30 7497 O 1348.86 6.7751 -3.72168 0
M  V30 7498 C 1347.92 7.20825 -2.7076 0
M  V30 7499 C 1348.65 7.45864 -1.40599 0
M  V30 7500 O 1348.86 6.17651 -0.734225 0
M  V30 7501 C 1350.05 8.05808 -1.51899 0
M  V30 7502 O 1350.44 8.74358 -0.335205 0
M  V30 7503 C 1350.93 6.83093 -1.70294 0
M  V30 7504 C 1350.22 5.79992 -0.836974 0
M  V30 7505 N 1350.27 4.41864 -1.38293 0
M  V30 7506 H 1347.43 8.13644 -3.0377 0
M  V30 7507 H 1347.16 6.42788 -2.55485 0
M  V30 7508 H 1348.03 8.12039 -0.792769 0
M  V30 7509 P 1351.99 8.91 1.08019e-11 0
M  V30 7510 O 1352.21 10.1746 0.733838 0
M  V30 7511 O 1352.78 8.73346 -1.23964 0
M  V30 7512 O 1352.24 7.66872 0.971405 0
M  V30 7513 C 1351.3 7.42405 2.04668 0
M  V30 7514 C 1352.03 6.86059 3.24661 0
M  V30 7515 O 1352.24 5.42934 3.03695 0
M  V30 7516 C 1353.43 7.41287 3.50796 0
M  V30 7517 O 1353.82 7.27073 4.86816 0
M  V30 7518 C 1354.31 6.5273 2.63741 0
M  V30 7519 C 1353.6 5.1842 2.73198 0
M  V30 7520 N 1353.65 4.38762 1.4784 0
M  V30 7521 C 1353.57 4.83651 0.183876 0
M  V30 7522 N 1353.64 3.88759 -0.699393 0
M  V30 7523 C 1353.79 2.7404 0.0575568 0
M  V30 7524 C 1353.92 1.37902 -0.293928 0
M  V30 7525 N 1353.93 0.938021 -1.54797 0
M  V30 7526 N 1354.04 0.491817 0.70549 0
M  V30 7527 C 1354.03 0.931735 1.95979 0
M  V30 7528 N 1353.91 2.16017 2.41481 0
M  V30 7529 C 1353.79 3.02547 1.39121 0
M  V30 7530 H 1350.81 8.36899 2.3252 0
M  V30 7531 H 1350.54 6.70391 1.71179 0
M  V30 7532 H 1351.41 7.03638 4.13219 0
M  V30 7533 H 1354.06 4.59931 3.54016 0
M  V30 7534 H 1354.34 6.88995 1.59871 0
M  V30 7535 H 1355.34 6.4684 3.0373 0
M  V30 7536 H 1353.5 8.47002 3.20749 0
M  V30 7537 H 1353.46 5.8885 -0.0765548 0
M  V30 7538 H 1353.84 1.60276 -2.32875 0
M  V30 7539 H 1354.03 -0.0699355 -1.73859 0
M  V30 7540 H 1354.14 0.165507 2.71897 0
M  V30 7541 P 1355.37 7.20834 5.23717 0
M  V30 7542 O 1355.59 7.80006 6.57415 0
M  V30 7543 O 1356.16 7.79416 4.13051 0
M  V30 7544 O 1355.62 5.63315 5.29344 0
M  V30 7545 C 1354.68 4.80318 6.01954 0
M  V30 7546 C 1355.41 3.64202 6.65911 0
M  V30 7547 O 1355.62 2.60736 5.64823 0
M  V30 7548 C 1356.81 3.93521 7.19518 0
M  V30 7549 O 1357.2 3.02071 8.21205 0
M  V30 7550 C 1357.69 3.73047 5.97036 0
M  V30 7551 C 1356.98 2.58828 5.25741 0
M  V30 7552 N 1357.03 2.68068 3.77503 0
M  V30 7553 C 1356.95 3.80474 2.99159 0
M  V30 7554 N 1357.02 3.55622 1.71925 0
M  V30 7555 C 1357.17 2.1832 1.65733 0
M  V30 7556 C 1357.3 1.28842 0.572777 0
M  V30 7557 N 1357.31 1.66875 -0.70098 0
M  V30 7558 N 1357.42 -0.016788 0.859836 0
M  V30 7559 C 1357.41 -0.398145 2.13316 0
M  V30 7560 N 1357.29 0.328224 3.22333 0
M  V30 7561 C 1357.17 1.62992 2.90383 0
M  V30 7562 H 1354.19 5.40394 6.8003 0
M  V30 7563 H 1353.92 4.41741 5.32532 0
M  V30 7564 H 1354.79 3.26371 7.47889 0
M  V30 7565 H 1357.44 1.64007 5.56746 0
M  V30 7566 H 1357.72 4.63439 5.3432 0
M  V30 7567 H 1358.72 3.44776 6.25925 0
M  V30 7568 H 1356.88 4.96707 7.57347 0
M  V30 7569 H 1356.84 4.8089 3.39924 0
M  V30 7570 H 1357.22 2.66547 -0.941919 0
M  V30 7571 H 1357.41 0.965341 -1.44766 0
M  V30 7572 H 1357.52 -1.46427 2.29697 0
M  V30 7573 P 1358.75 2.75334 8.47391 0
M  V30 7574 O 1358.97 2.44571 9.90142 0
M  V30 7575 O 1359.54 3.87688 7.92115 0
M  V30 7576 O 1359 1.4459 7.59357 0
M  V30 7577 C 1358.06 0.347608 7.69215 0
M  V30 7578 C 1358.79 -0.96767 7.52806 0
M  V30 7579 O 1359 -1.21036 6.1011 0
M  V30 7580 C 1360.19 -1.04544 8.13308 0
M  V30 7581 O 1360.58 -2.38311 8.41922 0
M  V30 7582 C 1361.07 -0.491279 7.02284 0
M  V30 7583 C 1360.36 -0.996264 5.77469 0
M  V30 7584 N 1360.41 -0.0501916 4.62973 0
M  V30 7585 H 1357.57 0.374722 8.67691 0
M  V30 7586 H 1357.3 0.443485 6.90277 0
M  V30 7587 H 1358.17 -1.75537 7.96793 0
M  V30 7588 P 1362.13 -2.75334 8.47391 0
M  V30 7589 O 1362.35 -3.84128 9.44797 0
M  V30 7590 O 1362.92 -1.51947 8.68712 0
M  V30 7591 O 1362.38 -3.29363 6.99321 0
M  V30 7592 C 1361.44 -4.24011 6.4274 0
M  V30 7593 C 1362.17 -5.20775 5.52155 0
M  V30 7594 O 1362.38 -4.56534 4.22446 0
M  V30 7595 C 1363.57 -5.62629 5.96531 0
M  V30 7596 O 1363.96 -6.87667 5.41053 0
M  V30 7597 C 1364.45 -4.52537 5.39283 0
M  V30 7598 C 1363.74 -4.20027 4.08623 0
M  V30 7599 N 1363.79 -2.76189 3.71603 0
M  V30 7600 C 1363.71 -1.64862 4.52822 0
M  V30 7601 N 1363.79 -0.512671 3.88633 0
M  V30 7602 C 1363.93 -0.888083 2.54977 0
M  V30 7603 C 1364.06 -0.094668 1.38677 0
M  V30 7604 O 1364.08 1.13053 1.28163 0
M  V30 7605 N 1364.18 -0.890102 0.232633 0
M  V30 7606 C 1364.18 -2.26958 0.21772 0
M  V30 7607 N 1364.31 -2.84626 -0.97925 0
M  V30 7608 N 1364.05 -3.0178 1.31033 0
M  V30 7609 C 1363.93 -2.26781 2.43843 0
M  V30 7610 H 1360.95 -4.797 7.24003 0
M  V30 7611 H 1360.68 -3.69856 5.84513 0
M  V30 7612 H 1361.55 -6.10356 5.41441 0
M  V30 7613 H 1364.2 -4.79061 3.27488 0
M  V30 7614 H 1364.48 -3.64906 6.05785 0
M  V30 7615 H 1365.48 -4.8868 5.2125 0
M  V30 7616 H 1363.64 -5.66726 7.06352 0
M  V30 7617 H 1363.59 -1.71169 5.60966 0
M  V30 7618 H 1364.27 -0.419134 -0.644739 0
M  V30 7619 H 1364.31 -3.87332 -1.06098 0
M  V30 7620 H 1364.41 -2.26417 -1.82483 0
M  V30 7621 P 1365.51 -7.20834 5.23717 0
M  V30 7622 O 1365.73 -8.66189 5.38625 0
M  V30 7623 O 1366.3 -6.33615 6.1356 0
M  V30 7624 O 1365.76 -6.7751 3.72168 0
M  V30 7625 C 1364.82 -7.20825 2.7076 0
M  V30 7626 C 1365.55 -7.45864 1.40599 0
M  V30 7627 O 1365.76 -6.17651 0.734225 0
M  V30 7628 C 1366.95 -8.05808 1.51899 0
M  V30 7629 O 1367.34 -8.74358 0.335205 0
M  V30 7630 C 1367.83 -6.83093 1.70294 0
M  V30 7631 C 1367.12 -5.79992 0.836974 0
M  V30 7632 N 1367.17 -4.41769 1.38263 0
M  V30 7633 C 1367.32 -3.36514 0.485617 0
M  V30 7634 O 1367.41 -3.61814 -0.724703 0
M  V30 7635 N 1367.37 -2.00746 1.14492 0
M  V30 7636 C 1367.27 -1.85887 2.27776 0
M  V30 7637 N 1367.32 -0.600907 2.69379 0
M  V30 7638 C 1367.12 -2.92182 3.22265 0
M  V30 7639 C 1367.07 -4.18399 2.71925 0
M  V30 7640 H 1364.33 -8.1355 3.03735 0
M  V30 7641 H 1364.06 -6.42695 2.55448 0
M  V30 7642 H 1364.93 -8.12139 0.792866 0
M  V30 7643 H 1367.58 -5.80078 -0.160615 0
M  V30 7644 H 1367.86 -6.51379 2.75643 0
M  V30 7645 H 1368.86 -7.01734 1.34462 0
M  V30 7646 H 1367.02 -8.73674 2.38337 0
M  V30 7647 H 1366.95 -5.02669 3.39718 0
M  V30 7648 H 1367.05 -2.73001 4.29239 0
M  V30 7649 H 1367.44 0.162318 2.01146 0
M  V30 7650 H 1367.24 -0.387742 3.69773 0
M  V30 7651 P 1368.89 -8.91 -1.09591e-11 0
M  V30 7652 O 1369.11 -10.1726 -0.733694 0
M  V30 7653 O 1369.68 -8.73148 1.23936 0
M  V30 7654 O 1369.14 -7.66872 -0.971405 0
M  V30 7655 C 1368.2 -7.42309 -2.04641 0
M  V30 7656 C 1368.93 -6.86059 -3.24661 0
M  V30 7657 O 1369.14 -5.42847 -3.03646 0
M  V30 7658 C 1370.33 -7.41196 -3.50753 0
M  V30 7659 O 1370.72 -7.27073 -4.86816 0
M  V30 7660 C 1371.21 -6.5273 -2.63741 0
M  V30 7661 C 1370.5 -5.1842 -2.73198 0
M  V30 7662 N 1370.55 -4.38762 -1.4784 0
M  V30 7663 C 1370.47 -4.81605 -0.168631 0
M  V30 7664 N 1370.55 -3.85454 0.713363 0
M  V30 7665 C 1370.69 -2.6994 -0.0566958 0
M  V30 7666 C 1370.82 -1.34815 0.338502 0
M  V30 7667 O 1370.84 -0.869548 1.47125 0
M  V30 7668 N 1370.94 -0.496304 -0.77465 0
M  V30 7669 C 1370.94 -0.908403 -2.09122 0
M  V30 7670 N 1371.07 0.0517805 -3.00955 0
M  V30 7671 N 1370.81 -2.17875 -2.46519 0
M  V30 7672 C 1370.69 -3.01988 -1.4033 0
M  V30 7673 H 1367.71 -8.36803 -2.32493 0
M  V30 7674 H 1367.44 -6.70197 -1.71129 0
M  V30 7675 H 1368.31 -7.03551 -4.13168 0
M  V30 7676 H 1370.96 -4.59498 -3.54415 0
M  V30 7677 H 1371.24 -6.88898 -1.59848 0
M  V30 7678 H 1372.24 -6.46749 -3.03687 0
M  V30 7679 H 1370.4 -8.46908 -3.20714 0
M  V30 7680 H 1370.35 -5.86405 0.105564 0
M  V30 7681 H 1371.03 0.483664 -0.597855 0
M  V30 7682 H 1371.07 -0.187865 -4.0116 0
M  V30 7683 H 1371.17 1.03585 -2.71726 0
M  V30 7684 P 1372.27 -7.20834 -5.23717 0
M  V30 7685 O 1372.49 -7.79853 -6.57286 0
M  V30 7686 O 1373.06 -7.79239 -4.12957 0
M  V30 7687 O 1372.52 -5.63315 -5.29344 0
M  V30 7688 C 1371.58 -4.80255 -6.01876 0
M  V30 7689 C 1372.31 -3.64202 -6.65911 0
M  V30 7690 O 1372.52 -2.60694 -5.64732 0
M  V30 7691 C 1373.71 -3.93473 -7.1943 0
M  V30 7692 O 1374.1 -3.02071 -8.21205 0
M  V30 7693 C 1374.59 -3.73047 -5.97036 0
M  V30 7694 C 1373.88 -2.58828 -5.25741 0
M  V30 7695 N 1373.93 -2.68068 -3.77503 0
M  V30 7696 H 1371.09 -5.40332 -6.79951 0
M  V30 7697 H 1370.82 -4.41613 -5.32378 0
M  V30 7698 H 1371.69 -3.26331 -7.47797 0
M  V30 7699 P 1375.65 -2.75334 -8.47391 0
M  V30 7700 O 1375.87 -2.44571 -9.90142 0
M  V30 7701 O 1376.44 -3.87688 -7.92115 0
M  V30 7702 O 1375.9 -1.4459 -7.59357 0
M  V30 7703 C 1374.96 -0.347608 -7.69215 0
M  V30 7704 C 1375.69 0.96767 -7.52806 0
M  V30 7705 O 1375.9 1.21036 -6.1011 0
M  V30 7706 C 1377.09 1.04544 -8.13308 0
M  V30 7707 O 1377.48 2.38311 -8.41922 0
M  V30 7708 C 1377.97 0.491279 -7.02284 0
M  V30 7709 C 1377.26 0.996264 -5.77469 0
M  V30 7710 N 1377.31 0.0501916 -4.62973 0
M  V30 7711 H 1374.47 -0.374722 -8.67691 0
M  V30 7712 H 1374.2 -0.443485 -6.90277 0
M  V30 7713 H 1375.07 1.75537 -7.96793 0
M  V30 7714 P 1379.03 2.75334 -8.47391 0
M  V30 7715 O 1379.25 3.84128 -9.44797 0
M  V30 7716 O 1379.82 1.51947 -8.68712 0
M  V30 7717 O 1379.28 3.29363 -6.99321 0
M  V30 7718 C 1378.34 4.24011 -6.4274 0
M  V30 7719 C 1379.07 5.20775 -5.52155 0
M  V30 7720 O 1379.28 4.56534 -4.22446 0
M  V30 7721 C 1380.47 5.62629 -5.96531 0
M  V30 7722 O 1380.86 6.87667 -5.41053 0
M  V30 7723 C 1381.35 4.52537 -5.39283 0
M  V30 7724 C 1380.64 4.20027 -4.08623 0
M  V30 7725 N 1380.69 2.76189 -3.71603 0
M  V30 7726 H 1377.85 4.797 -7.24003 0
M  V30 7727 H 1377.58 3.69856 -5.84513 0
M  V30 7728 H 1378.45 6.10356 -5.41441 0
M  V30 7729 P 1382.41 7.20834 -5.23717 0
M  V30 7730 O 1382.63 8.66104 -5.38572 0
M  V30 7731 O 1383.2 6.33544 -6.1349 0
M  V30 7732 O 1382.66 6.7751 -3.72168 0
M  V30 7733 C 1381.72 7.20825 -2.7076 0
M  V30 7734 C 1382.45 7.45864 -1.40599 0
M  V30 7735 O 1382.66 6.17651 -0.734225 0
M  V30 7736 C 1383.85 8.05808 -1.51899 0
M  V30 7737 O 1384.24 8.74358 -0.335205 0
M  V30 7738 C 1384.73 6.83093 -1.70294 0
M  V30 7739 C 1384.02 5.79992 -0.836974 0
M  V30 7740 N 1384.07 4.41864 -1.38293 0
M  V30 7741 H 1381.23 8.13644 -3.0377 0
M  V30 7742 H 1380.96 6.42788 -2.55485 0
M  V30 7743 H 1381.83 8.12039 -0.792769 0
M  V30 7744 P 1385.79 8.91 1.03566e-11 0
M  V30 7745 O 1386.01 10.1726 0.733694 0
M  V30 7746 O 1386.58 8.73148 -1.23936 0
M  V30 7747 O 1386.04 7.66872 0.971405 0
M  V30 7748 C 1385.1 7.42309 2.04641 0
M  V30 7749 C 1385.83 6.86059 3.24661 0
M  V30 7750 O 1386.04 5.42847 3.03646 0
M  V30 7751 C 1387.23 7.41196 3.50753 0
M  V30 7752 O 1387.62 7.27073 4.86816 0
M  V30 7753 C 1388.11 6.5273 2.63741 0
M  V30 7754 C 1387.4 5.1842 2.73198 0
M  V30 7755 N 1387.45 4.38762 1.4784 0
M  V30 7756 H 1384.61 8.36803 2.32493 0
M  V30 7757 H 1384.34 6.70197 1.71129 0
M  V30 7758 H 1385.21 7.03551 4.13168 0
M  V30 7759 P 1389.17 7.20834 5.23717 0
M  V30 7760 O 1389.39 7.79853 6.57286 0
M  V30 7761 O 1389.96 7.79239 4.12957 0
M  V30 7762 O 1389.42 5.63315 5.29344 0
M  V30 7763 C 1388.48 4.80255 6.01876 0
M  V30 7764 C 1389.21 3.64202 6.65911 0
M  V30 7765 O 1389.42 2.60694 5.64732 0
M  V30 7766 C 1390.61 3.93473 7.1943 0
M  V30 7767 O 1391 3.02071 8.21205 0
M  V30 7768 C 1391.49 3.73047 5.97036 0
M  V30 7769 C 1390.78 2.58828 5.25741 0
M  V30 7770 N 1390.83 2.68068 3.77503 0
M  V30 7771 H 1387.99 5.40332 6.79951 0
M  V30 7772 H 1387.72 4.41613 5.32378 0
M  V30 7773 H 1388.59 3.26331 7.47797 0
M  V30 7774 P 1392.55 2.75334 8.47391 0
M  V30 7775 O 1392.77 2.44571 9.90142 0
M  V30 7776 O 1393.34 3.87688 7.92115 0
M  V30 7777 O 1392.8 1.4459 7.59357 0
M  V30 7778 C 1391.86 0.347608 7.69215 0
M  V30 7779 C 1392.59 -0.96767 7.52806 0
M  V30 7780 O 1392.8 -1.21036 6.1011 0
M  V30 7781 C 1393.99 -1.04544 8.13308 0
M  V30 7782 O 1394.38 -2.38311 8.41922 0
M  V30 7783 C 1394.87 -0.491279 7.02284 0
M  V30 7784 C 1394.16 -0.996264 5.77469 0
M  V30 7785 N 1394.21 -0.0501916 4.62973 0
M  V30 7786 H 1391.37 0.374722 8.67691 0
M  V30 7787 H 1391.1 0.443485 6.90277 0
M  V30 7788 H 1391.97 -1.75537 7.96793 0
M  V30 7789 P 1395.93 -2.75334 8.47391 0
M  V30 7790 O 1396.15 -3.84204 9.44982 0
M  V30 7791 O 1396.72 -1.51982 8.68909 0
M  V30 7792 O 1396.18 -3.29363 6.99321 0
M  V30 7793 C 1395.24 -4.24066 6.42823 0
M  V30 7794 C 1395.97 -5.20775 5.52155 0
M  V30 7795 O 1396.18 -4.56607 4.22514 0
M  V30 7796 C 1397.37 -5.62697 5.96604 0
M  V30 7797 O 1397.76 -6.87667 5.41053 0
M  V30 7798 C 1398.25 -4.52537 5.39283 0
M  V30 7799 C 1397.54 -4.20027 4.08623 0
M  V30 7800 N 1397.59 -2.76189 3.71603 0
M  V30 7801 H 1394.75 -4.79756 7.24086 0
M  V30 7802 H 1394.48 -3.69963 5.84682 0
M  V30 7803 H 1395.35 -6.10431 5.41508 0
M  V30 7804 H 1398 -4.78816 3.28024 0
M  V30 7805 H 1398.28 -3.64957 6.05871 0
M  V30 7806 H 1399.28 -4.88748 5.21323 0
M  V30 7807 H 1397.44 -5.66789 7.0643 0
M  V30 7808 P 1399.31 -7.20834 5.23717 0
M  V30 7809 O 1399.53 -8.66104 5.38572 0
M  V30 7810 O 1400.1 -6.33544 6.1349 0
M  V30 7811 O 1399.56 -6.7751 3.72168 0
M  V30 7812 C 1398.62 -7.20825 2.7076 0
M  V30 7813 C 1399.35 -7.45864 1.40599 0
M  V30 7814 O 1399.56 -6.17651 0.734225 0
M  V30 7815 C 1400.75 -8.05808 1.51899 0
M  V30 7816 O 1401.14 -8.74358 0.335205 0
M  V30 7817 C 1401.63 -6.83093 1.70294 0
M  V30 7818 C 1400.92 -5.79992 0.836974 0
M  V30 7819 N 1400.97 -4.41864 1.38293 0
M  V30 7820 H 1398.13 -8.13644 3.0377 0
M  V30 7821 H 1397.86 -6.42788 2.55485 0
M  V30 7822 H 1398.73 -8.12039 0.792769 0
M  V30 7823 P 1402.69 -8.91 -9.24756e-12 0
M  V30 7824 O 1402.91 -10.1726 -0.733694 0
M  V30 7825 O 1403.48 -8.73148 1.23936 0
M  V30 7826 O 1402.94 -7.66872 -0.971405 0
M  V30 7827 C 1402 -7.42309 -2.04641 0
M  V30 7828 C 1402.73 -6.86059 -3.24661 0
M  V30 7829 O 1402.94 -5.42847 -3.03646 0
M  V30 7830 C 1404.13 -7.41196 -3.50753 0
M  V30 7831 O 1404.52 -7.27073 -4.86816 0
M  V30 7832 C 1405.01 -6.5273 -2.63741 0
M  V30 7833 C 1404.3 -5.1842 -2.73198 0
M  V30 7834 N 1404.35 -4.38762 -1.4784 0
M  V30 7835 H 1401.51 -8.36803 -2.32493 0
M  V30 7836 H 1401.24 -6.70197 -1.71129 0
M  V30 7837 H 1402.11 -7.03551 -4.13168 0
M  V30 7838 P 1406.07 -7.20834 -5.23717 0
M  V30 7839 O 1406.29 -7.79853 -6.57286 0
M  V30 7840 O 1406.86 -7.79239 -4.12957 0
M  V30 7841 O 1406.32 -5.63315 -5.29344 0
M  V30 7842 C 1405.38 -4.80255 -6.01876 0
M  V30 7843 C 1406.11 -3.64202 -6.65911 0
M  V30 7844 O 1406.32 -2.60694 -5.64732 0
M  V30 7845 C 1407.51 -3.93473 -7.1943 0
M  V30 7846 O 1407.9 -3.02071 -8.21205 0
M  V30 7847 C 1408.39 -3.73047 -5.97036 0
M  V30 7848 C 1407.68 -2.58828 -5.25741 0
M  V30 7849 N 1407.73 -2.68068 -3.77503 0
M  V30 7850 H 1404.89 -5.40332 -6.79951 0
M  V30 7851 H 1404.62 -4.41613 -5.32378 0
M  V30 7852 H 1405.49 -3.26331 -7.47797 0
M  V30 7853 P 1409.45 -2.75334 -8.47391 0
M  V30 7854 O 1409.67 -2.44571 -9.90142 0
M  V30 7855 O 1410.24 -3.87688 -7.92115 0
M  V30 7856 O 1409.7 -1.4459 -7.59357 0
M  V30 7857 C 1408.76 -0.347608 -7.69215 0
M  V30 7858 C 1409.49 0.96767 -7.52806 0
M  V30 7859 O 1409.7 1.21036 -6.1011 0
M  V30 7860 C 1410.89 1.04544 -8.13308 0
M  V30 7861 O 1411.28 2.38311 -8.41922 0
M  V30 7862 C 1411.77 0.491279 -7.02284 0
M  V30 7863 C 1411.06 0.996264 -5.77469 0
M  V30 7864 N 1411.11 0.0501916 -4.62973 0
M  V30 7865 H 1408.27 -0.374722 -8.67691 0
M  V30 7866 H 1408 -0.443485 -6.90277 0
M  V30 7867 H 1408.87 1.75537 -7.96793 0
M  V30 7868 P 1412.83 2.75334 -8.47391 0
M  V30 7869 O 1413.05 3.84204 -9.44982 0
M  V30 7870 O 1413.62 1.51982 -8.68909 0
M  V30 7871 O 1413.08 3.29363 -6.99321 0
M  V30 7872 C 1412.14 4.24066 -6.42823 0
M  V30 7873 C 1412.87 5.20775 -5.52155 0
M  V30 7874 O 1413.08 4.56607 -4.22514 0
M  V30 7875 C 1414.27 5.62697 -5.96604 0
M  V30 7876 O 1414.66 6.87667 -5.41053 0
M  V30 7877 C 1415.15 4.52537 -5.39283 0
M  V30 7878 C 1414.44 4.20027 -4.08623 0
M  V30 7879 N 1414.49 2.76189 -3.71603 0
M  V30 7880 C 1414.41 1.66944 -4.54297 0
M  V30 7881 N 1414.48 0.536169 -3.91344 0
M  V30 7882 C 1414.63 0.901569 -2.58849 0
M  V30 7883 C 1414.76 0.146599 -1.40236 0
M  V30 7884 N 1414.77 -1.18234 -1.37046 0
M  V30 7885 N 1414.88 0.822941 -0.249738 0
M  V30 7886 C 1414.87 2.15179 -0.280525 0
M  V30 7887 N 1414.75 2.96414 -1.30822 0
M  V30 7888 C 1414.63 2.25804 -2.44748 0
M  V30 7889 H 1411.65 4.79756 -7.24086 0
M  V30 7890 H 1411.38 3.69963 -5.84682 0
M  V30 7891 H 1412.25 6.10431 -5.41508 0
M  V30 7892 H 1414.9 4.78816 -3.28024 0
M  V30 7893 H 1415.18 3.64957 -6.05871 0
M  V30 7894 H 1416.18 4.88748 -5.21323 0
M  V30 7895 H 1414.34 5.66789 -7.0643 0
M  V30 7896 H 1414.3 1.74684 -5.62396 0
M  V30 7897 H 1414.68 -1.71949 -2.24394 0
M  V30 7898 H 1414.87 -1.67511 -0.470742 0
M  V30 7899 H 1414.98 2.63704 0.6828 0
M  V30 7900 P 1416.21 7.20834 -5.23717 0
M  V30 7901 O 1416.43 8.66104 -5.38572 0
M  V30 7902 O 1417 6.33544 -6.1349 0
M  V30 7903 O 1416.46 6.7751 -3.72168 0
M  V30 7904 C 1415.52 7.20825 -2.7076 0
M  V30 7905 C 1416.25 7.45864 -1.40599 0
M  V30 7906 O 1416.46 6.17651 -0.734225 0
M  V30 7907 C 1417.65 8.05808 -1.51899 0
M  V30 7908 O 1418.04 8.74358 -0.335205 0
M  V30 7909 C 1418.53 6.83093 -1.70294 0
M  V30 7910 C 1417.82 5.79992 -0.836974 0
M  V30 7911 N 1417.87 4.41864 -1.38293 0
M  V30 7912 H 1415.03 8.13644 -3.0377 0
M  V30 7913 H 1414.76 6.42788 -2.55485 0
M  V30 7914 H 1415.63 8.12039 -0.792769 0
M  V30 7915 P 1419.59 8.91 8.13856e-12 0
M  V30 7916 O 1419.81 10.1726 0.733694 0
M  V30 7917 O 1420.38 8.73148 -1.23936 0
M  V30 7918 O 1419.84 7.66872 0.971405 0
M  V30 7919 C 1418.9 7.42309 2.04641 0
M  V30 7920 C 1419.63 6.86059 3.24661 0
M  V30 7921 O 1419.84 5.42847 3.03646 0
M  V30 7922 C 1421.03 7.41196 3.50753 0
M  V30 7923 O 1421.42 7.27073 4.86816 0
M  V30 7924 C 1421.91 6.5273 2.63741 0
M  V30 7925 C 1421.2 5.1842 2.73198 0
M  V30 7926 N 1421.25 4.38762 1.4784 0
M  V30 7927 H 1418.41 8.36803 2.32493 0
M  V30 7928 H 1418.14 6.70197 1.71129 0
M  V30 7929 H 1419.01 7.03551 4.13168 0
M  V30 7930 P 1422.97 7.20834 5.23717 0
M  V30 7931 O 1423.19 7.79853 6.57286 0
M  V30 7932 O 1423.76 7.79239 4.12957 0
M  V30 7933 O 1423.22 5.63315 5.29344 0
M  V30 7934 C 1422.28 4.80255 6.01876 0
M  V30 7935 C 1423.01 3.64202 6.65911 0
M  V30 7936 O 1423.22 2.60694 5.64732 0
M  V30 7937 C 1424.41 3.93473 7.1943 0
M  V30 7938 O 1424.8 3.02071 8.21205 0
M  V30 7939 C 1425.29 3.73047 5.97036 0
M  V30 7940 C 1424.58 2.58828 5.25741 0
M  V30 7941 N 1424.63 2.68068 3.77503 0
M  V30 7942 H 1421.79 5.40332 6.79951 0
M  V30 7943 H 1421.52 4.41613 5.32378 0
M  V30 7944 H 1422.39 3.26331 7.47797 0
M  V30 7945 P 1426.35 2.75334 8.47391 0
M  V30 7946 O 1426.57 2.44571 9.90142 0
M  V30 7947 O 1427.14 3.87688 7.92115 0
M  V30 7948 O 1426.6 1.4459 7.59357 0
M  V30 7949 C 1425.66 0.347608 7.69215 0
M  V30 7950 C 1426.39 -0.96767 7.52806 0
M  V30 7951 O 1426.6 -1.21036 6.1011 0
M  V30 7952 C 1427.79 -1.04544 8.13308 0
M  V30 7953 O 1428.18 -2.38311 8.41922 0
M  V30 7954 C 1428.67 -0.491279 7.02284 0
M  V30 7955 C 1427.96 -0.996264 5.77469 0
M  V30 7956 N 1428.01 -0.0501916 4.62973 0
M  V30 7957 H 1425.17 0.374722 8.67691 0
M  V30 7958 H 1424.9 0.443485 6.90277 0
M  V30 7959 H 1425.77 -1.75537 7.96793 0
M  V30 7960 P 1429.73 -2.75334 8.47391 0
M  V30 7961 O 1429.95 -3.84128 9.44797 0
M  V30 7962 O 1430.52 -1.51947 8.68712 0
M  V30 7963 O 1429.98 -3.29363 6.99321 0
M  V30 7964 C 1429.04 -4.24011 6.4274 0
M  V30 7965 C 1429.77 -5.20775 5.52155 0
M  V30 7966 O 1429.98 -4.56534 4.22446 0
M  V30 7967 C 1431.17 -5.62629 5.96531 0
M  V30 7968 O 1431.56 -6.87667 5.41053 0
M  V30 7969 C 1432.05 -4.52537 5.39283 0
M  V30 7970 C 1431.34 -4.20027 4.08623 0
M  V30 7971 N 1431.39 -2.76189 3.71603 0
M  V30 7972 H 1428.55 -4.797 7.24003 0
M  V30 7973 H 1428.28 -3.69856 5.84513 0
M  V30 7974 H 1429.15 -6.10356 5.41441 0
M  V30 7975 P 1433.11 -7.20834 5.23717 0
M  V30 7976 O 1433.33 -8.66104 5.38572 0
M  V30 7977 O 1433.9 -6.33544 6.1349 0
M  V30 7978 O 1433.36 -6.7751 3.72168 0
M  V30 7979 C 1432.42 -7.20825 2.7076 0
M  V30 7980 C 1433.15 -7.45864 1.40599 0
M  V30 7981 O 1433.36 -6.17651 0.734225 0
M  V30 7982 C 1434.55 -8.05808 1.51899 0
M  V30 7983 O 1434.94 -8.74358 0.335205 0
M  V30 7984 C 1435.43 -6.83093 1.70294 0
M  V30 7985 C 1434.72 -5.79992 0.836974 0
M  V30 7986 N 1434.77 -4.41864 1.38293 0
M  V30 7987 H 1431.93 -8.13644 3.0377 0
M  V30 7988 H 1431.66 -6.42788 2.55485 0
M  V30 7989 H 1432.53 -8.12039 0.792769 0
M  V30 7990 P 1436.49 -8.91 -7.02955e-12 0
M  V30 7991 O 1436.71 -10.1726 -0.733694 0
M  V30 7992 O 1437.28 -8.73148 1.23936 0
M  V30 7993 O 1436.74 -7.66872 -0.971405 0
M  V30 7994 C 1435.8 -7.42309 -2.04641 0
M  V30 7995 C 1436.53 -6.86059 -3.24661 0
M  V30 7996 O 1436.74 -5.42847 -3.03646 0
M  V30 7997 C 1437.93 -7.41196 -3.50753 0
M  V30 7998 O 1438.32 -7.27073 -4.86816 0
M  V30 7999 C 1438.81 -6.5273 -2.63741 0
M  V30 8000 C 1438.1 -5.1842 -2.73198 0
M  V30 8001 N 1438.15 -4.38762 -1.4784 0
M  V30 8002 H 1435.31 -8.36803 -2.32493 0
M  V30 8003 H 1435.04 -6.70197 -1.71129 0
M  V30 8004 H 1435.91 -7.03551 -4.13168 0
M  V30 8005 P 1439.87 -7.20834 -5.23717 0
M  V30 8006 O 1440.09 -7.7993 -6.57351 0
M  V30 8007 O 1440.66 -7.79328 -4.13004 0
M  V30 8008 O 1440.12 -5.63315 -5.29344 0
M  V30 8009 C 1439.18 -4.80255 -6.01876 0
M  V30 8010 C 1439.91 -3.64202 -6.65911 0
M  V30 8011 O 1440.12 -2.60694 -5.64732 0
M  V30 8012 C 1441.31 -3.93473 -7.1943 0
M  V30 8013 O 1441.7 -3.02071 -8.21205 0
M  V30 8014 C 1442.19 -3.73047 -5.97036 0
M  V30 8015 C 1441.48 -2.58828 -5.25741 0
M  V30 8016 N 1441.53 -2.6801 -3.77422 0
M  V30 8017 C 1441.68 -1.50173 -3.05038 0
M  V30 8018 O 1441.77 -0.428832 -3.665 0
M  V30 8019 N 1441.73 -1.70922 -1.55541 0
M  V30 8020 C 1441.63 -2.7407 -1.06402 0
M  V30 8021 N 1441.68 -2.74764 0.260931 0
M  V30 8022 C 1441.48 -3.96781 -1.78296 0
M  V30 8023 C 1441.43 -3.87909 -3.13891 0
M  V30 8024 H 1438.69 -5.4027 -6.79873 0
M  V30 8025 H 1438.42 -4.41549 -5.32301 0
M  V30 8026 H 1439.29 -3.26371 -7.47889 0
M  V30 8027 H 1441.94 -1.63978 -5.5665 0
M  V30 8028 H 1442.22 -4.63439 -5.3432 0
M  V30 8029 H 1443.22 -3.44728 -6.25838 0
M  V30 8030 H 1441.38 -4.96652 -7.57263 0
M  V30 8031 H 1441.31 -4.78425 -3.73088 0
M  V30 8032 H 1441.41 -4.92593 -1.26997 0
M  V30 8033 H 1441.8 -1.86285 0.77595 0
M  V30 8034 H 1441.6 -3.63657 0.773896 0
M  V30 8035 P 1443.25 -2.75334 -8.47391 0
M  V30 8036 O 1443.47 -2.44571 -9.90142 0
M  V30 8037 O 1444.04 -3.87688 -7.92115 0
M  V30 8038 O 1443.5 -1.4459 -7.59357 0
M  V30 8039 C 1442.56 -0.347608 -7.69215 0
M  V30 8040 C 1443.29 0.96767 -7.52806 0
M  V30 8041 O 1443.5 1.21036 -6.1011 0
M  V30 8042 C 1444.69 1.04544 -8.13308 0
M  V30 8043 O 1445.08 2.38311 -8.41922 0
M  V30 8044 C 1445.57 0.491279 -7.02284 0
M  V30 8045 C 1444.86 0.996264 -5.77469 0
M  V30 8046 N 1444.91 0.0501916 -4.62973 0
M  V30 8047 H 1442.07 -0.374722 -8.67691 0
M  V30 8048 H 1441.8 -0.443485 -6.90277 0
M  V30 8049 H 1442.67 1.75537 -7.96793 0
M  V30 8050 P 1446.63 2.75334 -8.47391 0
M  V30 8051 O 1446.85 3.84204 -9.44982 0
M  V30 8052 O 1447.42 1.51982 -8.68909 0
M  V30 8053 O 1446.88 3.29363 -6.99321 0
M  V30 8054 C 1445.94 4.24066 -6.42823 0
M  V30 8055 C 1446.67 5.20775 -5.52155 0
M  V30 8056 O 1446.88 4.56607 -4.22514 0
M  V30 8057 C 1448.07 5.62697 -5.96604 0
M  V30 8058 O 1448.46 6.87667 -5.41053 0
M  V30 8059 C 1448.95 4.52537 -5.39283 0
M  V30 8060 C 1448.24 4.20027 -4.08623 0
M  V30 8061 N 1448.29 2.76189 -3.71603 0
M  V30 8062 C 1448.21 1.66944 -4.54297 0
M  V30 8063 N 1448.28 0.536169 -3.91344 0
M  V30 8064 C 1448.43 0.901569 -2.58849 0
M  V30 8065 C 1448.56 0.146599 -1.40236 0
M  V30 8066 N 1448.57 -1.18234 -1.37046 0
M  V30 8067 N 1448.68 0.822941 -0.249738 0
M  V30 8068 C 1448.67 2.15179 -0.280525 0
M  V30 8069 N 1448.55 2.96414 -1.30822 0
M  V30 8070 C 1448.43 2.25804 -2.44748 0
M  V30 8071 H 1445.45 4.79756 -7.24086 0
M  V30 8072 H 1445.18 3.69963 -5.84682 0
M  V30 8073 H 1446.05 6.10431 -5.41508 0
M  V30 8074 H 1448.7 4.78816 -3.28024 0
M  V30 8075 H 1448.98 3.64957 -6.05871 0
M  V30 8076 H 1449.98 4.88748 -5.21323 0
M  V30 8077 H 1448.14 5.66789 -7.0643 0
M  V30 8078 H 1448.1 1.74684 -5.62396 0
M  V30 8079 H 1448.48 -1.71949 -2.24394 0
M  V30 8080 H 1448.67 -1.67511 -0.470742 0
M  V30 8081 H 1448.78 2.63704 0.6828 0
M  V30 8082 P 1450.01 7.20834 -5.23717 0
M  V30 8083 O 1450.23 8.66104 -5.38572 0
M  V30 8084 O 1450.8 6.33544 -6.1349 0
M  V30 8085 O 1450.26 6.7751 -3.72168 0
M  V30 8086 C 1449.32 7.20825 -2.7076 0
M  V30 8087 C 1450.05 7.45864 -1.40599 0
M  V30 8088 O 1450.26 6.17651 -0.734225 0
M  V30 8089 C 1451.45 8.05808 -1.51899 0
M  V30 8090 O 1451.84 8.74358 -0.335205 0
M  V30 8091 C 1452.33 6.83093 -1.70294 0
M  V30 8092 C 1451.62 5.79992 -0.836974 0
M  V30 8093 N 1451.67 4.41864 -1.38293 0
M  V30 8094 H 1448.83 8.13644 -3.0377 0
M  V30 8095 H 1448.56 6.42788 -2.55485 0
M  V30 8096 H 1449.43 8.12039 -0.792769 0
M  V30 8097 P 1453.39 8.91 5.92055e-12 0
M  V30 8098 O 1453.61 10.1726 0.733694 0
M  V30 8099 O 1454.18 8.73148 -1.23936 0
M  V30 8100 O 1453.64 7.66872 0.971405 0
M  V30 8101 C 1452.7 7.42309 2.04641 0
M  V30 8102 C 1453.43 6.86059 3.24661 0
M  V30 8103 O 1453.64 5.42847 3.03646 0
M  V30 8104 C 1454.83 7.41196 3.50753 0
M  V30 8105 O 1455.22 7.27073 4.86816 0
M  V30 8106 C 1455.71 6.5273 2.63741 0
M  V30 8107 C 1455 5.1842 2.73198 0
M  V30 8108 N 1455.05 4.38762 1.4784 0
M  V30 8109 H 1452.21 8.36803 2.32493 0
M  V30 8110 H 1451.94 6.70197 1.71129 0
M  V30 8111 H 1452.81 7.03551 4.13168 0
M  V30 8112 P 1456.77 7.20834 5.23717 0
M  V30 8113 O 1456.99 7.80006 6.57415 0
M  V30 8114 O 1457.56 7.79416 4.13051 0
M  V30 8115 O 1457.02 5.63315 5.29344 0
M  V30 8116 C 1456.08 4.80318 6.01954 0
M  V30 8117 C 1456.81 3.64202 6.65911 0
M  V30 8118 O 1457.02 2.60736 5.64823 0
M  V30 8119 C 1458.21 3.93521 7.19518 0
M  V30 8120 O 1458.6 3.02071 8.21205 0
M  V30 8121 C 1459.09 3.73047 5.97036 0
M  V30 8122 C 1458.38 2.58828 5.25741 0
M  V30 8123 N 1458.43 2.68068 3.77503 0
M  V30 8124 H 1455.59 5.40394 6.8003 0
M  V30 8125 H 1455.32 4.41741 5.32532 0
M  V30 8126 H 1456.19 3.26371 7.47889 0
M  V30 8127 H 1458.84 1.64007 5.56746 0
M  V30 8128 H 1459.12 4.63439 5.3432 0
M  V30 8129 H 1460.12 3.44776 6.25925 0
M  V30 8130 H 1458.28 4.96707 7.57347 0
M  V30 8131 P 1460.15 2.75334 8.47391 0
M  V30 8132 O 1460.37 2.44571 9.90142 0
M  V30 8133 O 1460.94 3.87688 7.92115 0
M  V30 8134 O 1460.4 1.4459 7.59357 0
M  V30 8135 C 1459.46 0.347608 7.69215 0
M  V30 8136 C 1460.19 -0.96767 7.52806 0
M  V30 8137 O 1460.4 -1.21036 6.1011 0
M  V30 8138 C 1461.59 -1.04544 8.13308 0
M  V30 8139 O 1461.98 -2.38311 8.41922 0
M  V30 8140 C 1462.47 -0.491279 7.02284 0
M  V30 8141 C 1461.76 -0.996264 5.77469 0
M  V30 8142 N 1461.81 -0.0501916 4.62973 0
M  V30 8143 H 1458.97 0.374722 8.67691 0
M  V30 8144 H 1458.7 0.443485 6.90277 0
M  V30 8145 H 1459.57 -1.75537 7.96793 0
M  V30 8146 P 1463.53 -2.75334 8.47391 0
M  V30 8147 O 1463.75 -3.84128 9.44797 0
M  V30 8148 O 1464.32 -1.51947 8.68712 0
M  V30 8149 O 1463.78 -3.29363 6.99321 0
M  V30 8150 C 1462.84 -4.24011 6.4274 0
M  V30 8151 C 1463.57 -5.20775 5.52155 0
M  V30 8152 O 1463.78 -4.56534 4.22446 0
M  V30 8153 C 1464.97 -5.62629 5.96531 0
M  V30 8154 O 1465.36 -6.87667 5.41053 0
M  V30 8155 C 1465.85 -4.52537 5.39283 0
M  V30 8156 C 1465.14 -4.20027 4.08623 0
M  V30 8157 N 1465.19 -2.76189 3.71603 0
M  V30 8158 C 1465.11 -1.64862 4.52822 0
M  V30 8159 N 1465.19 -0.512671 3.88633 0
M  V30 8160 C 1465.33 -0.888083 2.54977 0
M  V30 8161 C 1465.46 -0.094668 1.38677 0
M  V30 8162 N 1465.58 -0.890102 0.232633 0
M  V30 8163 C 1465.58 -2.26958 0.21772 0
M  V30 8164 N 1465.71 -2.84626 -0.97925 0
M  V30 8165 N 1465.45 -3.0178 1.31033 0
M  V30 8166 C 1465.33 -2.26781 2.43843 0
M  V30 8167 H 1462.35 -4.797 7.24003 0
M  V30 8168 H 1462.08 -3.69856 5.84513 0
M  V30 8169 H 1462.95 -6.10356 5.41441 0
M  V30 8170 P 1466.91 -7.20834 5.23717 0
M  V30 8171 O 1467.13 -8.66104 5.38572 0
M  V30 8172 O 1467.7 -6.33544 6.1349 0
M  V30 8173 O 1467.16 -6.7751 3.72168 0
M  V30 8174 C 1466.22 -7.20825 2.7076 0
M  V30 8175 C 1466.95 -7.45864 1.40599 0
M  V30 8176 O 1467.16 -6.17651 0.734225 0
M  V30 8177 C 1468.35 -8.05808 1.51899 0
M  V30 8178 O 1468.74 -8.74358 0.335205 0
M  V30 8179 C 1469.23 -6.83093 1.70294 0
M  V30 8180 C 1468.52 -5.79992 0.836974 0
M  V30 8181 N 1468.57 -4.41864 1.38293 0
M  V30 8182 H 1465.73 -8.13644 3.0377 0
M  V30 8183 H 1465.46 -6.42788 2.55485 0
M  V30 8184 H 1466.33 -8.12039 0.792769 0
M  V30 8185 P 1470.29 -8.91 -4.81154e-12 0
M  V30 8186 O 1470.51 -10.1726 -0.733694 0
M  V30 8187 O 1471.08 -8.73148 1.23936 0
M  V30 8188 O 1470.54 -7.66872 -0.971405 0
M  V30 8189 C 1469.6 -7.42309 -2.04641 0
M  V30 8190 C 1470.33 -6.86059 -3.24661 0
M  V30 8191 O 1470.54 -5.42847 -3.03646 0
M  V30 8192 C 1471.73 -7.41196 -3.50753 0
M  V30 8193 O 1472.12 -7.27073 -4.86816 0
M  V30 8194 C 1472.61 -6.5273 -2.63741 0
M  V30 8195 C 1471.9 -5.1842 -2.73198 0
M  V30 8196 N 1471.95 -4.38762 -1.4784 0
M  V30 8197 H 1469.11 -8.36803 -2.32493 0
M  V30 8198 H 1468.84 -6.70197 -1.71129 0
M  V30 8199 H 1469.71 -7.03551 -4.13168 0
M  V30 8200 P 1473.67 -7.20834 -5.23717 0
M  V30 8201 O 1473.89 -7.79853 -6.57286 0
M  V30 8202 O 1474.46 -7.79239 -4.12957 0
M  V30 8203 O 1473.92 -5.63315 -5.29344 0
M  V30 8204 C 1472.98 -4.80255 -6.01876 0
M  V30 8205 C 1473.71 -3.64202 -6.65911 0
M  V30 8206 O 1473.92 -2.60694 -5.64732 0
M  V30 8207 C 1475.11 -3.93473 -7.1943 0
M  V30 8208 O 1475.5 -3.02071 -8.21205 0
M  V30 8209 C 1475.99 -3.73047 -5.97036 0
M  V30 8210 C 1475.28 -2.58828 -5.25741 0
M  V30 8211 N 1475.33 -2.68068 -3.77503 0
M  V30 8212 C 1475.25 -3.79715 -2.96723 0
M  V30 8213 N 1475.33 -3.5377 -1.68852 0
M  V30 8214 C 1475.47 -2.15054 -1.63254 0
M  V30 8215 C 1475.6 -1.28964 -0.518571 0
M  V30 8216 O 1475.62 -1.56826 0.679156 0
M  V30 8217 N 1475.72 0.0538097 -0.918425 0
M  V30 8218 C 1475.72 0.494275 -2.22578 0
M  V30 8219 N 1475.85 1.81086 -2.40434 0
M  V30 8220 N 1475.59 -0.313645 -3.27502 0
M  V30 8221 C 1475.47 -1.61829 -2.91033 0
M  V30 8222 H 1472.49 -5.40332 -6.79951 0
M  V30 8223 H 1472.22 -4.41613 -5.32378 0
M  V30 8224 H 1473.09 -3.26331 -7.47797 0
M  V30 8225 H 1475.74 -1.63422 -5.56814 0
M  V30 8226 H 1476.02 -4.63374 -5.34244 0
M  V30 8227 H 1477.02 -3.44728 -6.25838 0
M  V30 8228 H 1475.18 -4.96652 -7.57263 0
M  V30 8229 H 1475.13 -4.80617 -3.3614 0
M  V30 8230 H 1475.81 0.742702 -0.199384 0
M  V30 8231 H 1475.85 2.20598 -3.35588 0
M  V30 8232 H 1475.95 2.43518 -1.58945 0
M  V30 8233 P 1477.05 -2.75334 -8.47391 0
M  V30 8234 O 1477.27 -2.44571 -9.90142 0
M  V30 8235 O 1477.84 -3.87688 -7.92115 0
M  V30 8236 O 1477.3 -1.4459 -7.59357 0
M  V30 8237 C 1476.36 -0.347608 -7.69215 0
M  V30 8238 C 1477.09 0.96767 -7.52806 0
M  V30 8239 O 1477.3 1.21036 -6.1011 0
M  V30 8240 C 1478.49 1.04544 -8.13308 0
M  V30 8241 O 1478.88 2.38311 -8.41922 0
M  V30 8242 C 1479.37 0.491279 -7.02284 0
M  V30 8243 C 1478.66 0.996264 -5.77469 0
M  V30 8244 N 1478.71 0.0501916 -4.62973 0
M  V30 8245 H 1475.87 -0.374722 -8.67691 0
M  V30 8246 H 1475.6 -0.443485 -6.90277 0
M  V30 8247 H 1476.47 1.75537 -7.96793 0
M  V30 8248 P 1480.43 2.75334 -8.47391 0
M  V30 8249 O 1480.65 3.84128 -9.44797 0
M  V30 8250 O 1481.22 1.51947 -8.68712 0
M  V30 8251 O 1480.68 3.29363 -6.99321 0
M  V30 8252 C 1479.74 4.24011 -6.4274 0
M  V30 8253 C 1480.47 5.20775 -5.52155 0
M  V30 8254 O 1480.68 4.56534 -4.22446 0
M  V30 8255 C 1481.87 5.62629 -5.96531 0
M  V30 8256 O 1482.26 6.87667 -5.41053 0
M  V30 8257 C 1482.75 4.52537 -5.39283 0
M  V30 8258 C 1482.04 4.20027 -4.08623 0
M  V30 8259 N 1482.09 2.76189 -3.71603 0
M  V30 8260 H 1479.25 4.797 -7.24003 0
M  V30 8261 H 1478.98 3.69856 -5.84513 0
M  V30 8262 H 1479.85 6.10356 -5.41441 0
M  V30 8263 P 1483.81 7.20834 -5.23717 0
M  V30 8264 O 1484.03 8.66104 -5.38572 0
M  V30 8265 O 1484.6 6.33544 -6.1349 0
M  V30 8266 O 1484.06 6.7751 -3.72168 0
M  V30 8267 C 1483.12 7.20825 -2.7076 0
M  V30 8268 C 1483.85 7.45864 -1.40599 0
M  V30 8269 O 1484.06 6.17651 -0.734225 0
M  V30 8270 C 1485.25 8.05808 -1.51899 0
M  V30 8271 O 1485.64 8.74358 -0.335205 0
M  V30 8272 C 1486.13 6.83093 -1.70294 0
M  V30 8273 C 1485.42 5.79992 -0.836974 0
M  V30 8274 N 1485.47 4.41864 -1.38293 0
M  V30 8275 H 1482.63 8.13644 -3.0377 0
M  V30 8276 H 1482.36 6.42788 -2.55485 0
M  V30 8277 H 1483.23 8.12039 -0.792769 0
M  V30 8278 P 1487.19 8.91 3.70254e-12 0
M  V30 8279 O 1487.41 10.1726 0.733694 0
M  V30 8280 O 1487.98 8.73148 -1.23936 0
M  V30 8281 O 1487.44 7.66872 0.971405 0
M  V30 8282 C 1486.5 7.42309 2.04641 0
M  V30 8283 C 1487.23 6.86059 3.24661 0
M  V30 8284 O 1487.44 5.42847 3.03646 0
M  V30 8285 C 1488.63 7.41196 3.50753 0
M  V30 8286 O 1489.02 7.27073 4.86816 0
M  V30 8287 C 1489.51 6.5273 2.63741 0
M  V30 8288 C 1488.8 5.1842 2.73198 0
M  V30 8289 N 1488.85 4.38762 1.4784 0
M  V30 8290 H 1486.01 8.36803 2.32493 0
M  V30 8291 H 1485.74 6.70197 1.71129 0
M  V30 8292 H 1486.61 7.03551 4.13168 0
M  V30 8293 P 1490.57 7.20834 5.23717 0
M  V30 8294 O 1490.79 7.79853 6.57286 0
M  V30 8295 O 1491.36 7.79239 4.12957 0
M  V30 8296 O 1490.82 5.63315 5.29344 0
M  V30 8297 C 1489.88 4.80255 6.01876 0
M  V30 8298 C 1490.61 3.64202 6.65911 0
M  V30 8299 O 1490.82 2.60694 5.64732 0
M  V30 8300 C 1492.01 3.93473 7.1943 0
M  V30 8301 O 1492.4 3.02071 8.21205 0
M  V30 8302 C 1492.89 3.73047 5.97036 0
M  V30 8303 C 1492.18 2.58828 5.25741 0
M  V30 8304 N 1492.23 2.68068 3.77503 0
M  V30 8305 H 1489.39 5.40332 6.79951 0
M  V30 8306 H 1489.12 4.41613 5.32378 0
M  V30 8307 H 1489.99 3.26331 7.47797 0
M  V30 8308 P 1493.95 2.75334 8.47391 0
M  V30 8309 O 1494.17 2.44571 9.90142 0
M  V30 8310 O 1494.74 3.87688 7.92115 0
M  V30 8311 O 1494.2 1.4459 7.59357 0
M  V30 8312 C 1493.26 0.347608 7.69215 0
M  V30 8313 C 1493.99 -0.96767 7.52806 0
M  V30 8314 O 1494.2 -1.21036 6.1011 0
M  V30 8315 C 1495.39 -1.04544 8.13308 0
M  V30 8316 O 1495.78 -2.38311 8.41922 0
M  V30 8317 C 1496.27 -0.491279 7.02284 0
M  V30 8318 C 1495.56 -0.996264 5.77469 0
M  V30 8319 N 1495.61 -0.0501916 4.62973 0
M  V30 8320 H 1492.77 0.374722 8.67691 0
M  V30 8321 H 1492.5 0.443485 6.90277 0
M  V30 8322 H 1493.37 -1.75537 7.96793 0
M  V30 8323 P 1497.33 -2.75334 8.47391 0
M  V30 8324 O 1497.55 -3.84204 9.44982 0
M  V30 8325 O 1498.12 -1.51982 8.68909 0
M  V30 8326 O 1497.58 -3.29363 6.99321 0
M  V30 8327 C 1496.64 -4.24066 6.42823 0
M  V30 8328 C 1497.37 -5.20775 5.52155 0
M  V30 8329 O 1497.58 -4.56607 4.22514 0
M  V30 8330 C 1498.77 -5.62697 5.96604 0
M  V30 8331 O 1499.16 -6.87667 5.41053 0
M  V30 8332 C 1499.65 -4.52537 5.39283 0
M  V30 8333 C 1498.94 -4.20027 4.08623 0
M  V30 8334 N 1498.99 -2.76189 3.71603 0
M  V30 8335 C 1498.91 -1.66944 4.54297 0
M  V30 8336 N 1498.98 -0.536169 3.91344 0
M  V30 8337 C 1499.13 -0.901569 2.58849 0
M  V30 8338 C 1499.26 -0.146599 1.40236 0
M  V30 8339 N 1499.27 1.18234 1.37046 0
M  V30 8340 N 1499.38 -0.822941 0.249738 0
M  V30 8341 C 1499.37 -2.15179 0.280525 0
M  V30 8342 N 1499.25 -2.96414 1.30822 0
M  V30 8343 C 1499.13 -2.25804 2.44748 0
M  V30 8344 H 1496.15 -4.79756 7.24086 0
M  V30 8345 H 1495.88 -3.69963 5.84682 0
M  V30 8346 H 1496.75 -6.10431 5.41508 0
M  V30 8347 H 1499.4 -4.78816 3.28024 0
M  V30 8348 H 1499.68 -3.64957 6.05871 0
M  V30 8349 H 1500.68 -4.88748 5.21323 0
M  V30 8350 H 1498.84 -5.66789 7.0643 0
M  V30 8351 H 1498.8 -1.74684 5.62396 0
M  V30 8352 H 1499.18 1.71949 2.24394 0
M  V30 8353 H 1499.37 1.67511 0.470742 0
M  V30 8354 H 1499.48 -2.63704 -0.6828 0
M  V30 8355 P 1500.71 -7.20834 5.23717 0
M  V30 8356 O 1500.93 -8.66104 5.38572 0
M  V30 8357 O 1501.5 -6.33544 6.1349 0
M  V30 8358 O 1500.96 -6.7751 3.72168 0
M  V30 8359 C 1500.02 -7.20825 2.7076 0
M  V30 8360 C 1500.75 -7.45864 1.40599 0
M  V30 8361 O 1500.96 -6.17651 0.734225 0
M  V30 8362 C 1502.15 -8.05808 1.51899 0
M  V30 8363 O 1502.54 -8.74358 0.335205 0
M  V30 8364 C 1503.03 -6.83093 1.70294 0
M  V30 8365 C 1502.32 -5.79992 0.836974 0
M  V30 8366 N 1502.37 -4.41864 1.38293 0
M  V30 8367 H 1499.53 -8.13644 3.0377 0
M  V30 8368 H 1499.26 -6.42788 2.55485 0
M  V30 8369 H 1500.13 -8.12039 0.792769 0
M  V30 8370 P 1504.09 -8.91 -2.59353e-12 0
M  V30 8371 O 1504.31 -10.1726 -0.733694 0
M  V30 8372 O 1504.88 -8.73148 1.23936 0
M  V30 8373 O 1504.34 -7.66872 -0.971405 0
M  V30 8374 C 1503.4 -7.42309 -2.04641 0
M  V30 8375 C 1504.13 -6.86059 -3.24661 0
M  V30 8376 O 1504.34 -5.42847 -3.03646 0
M  V30 8377 C 1505.53 -7.41196 -3.50753 0
M  V30 8378 O 1505.92 -7.27073 -4.86816 0
M  V30 8379 C 1506.41 -6.5273 -2.63741 0
M  V30 8380 C 1505.7 -5.1842 -2.73198 0
M  V30 8381 N 1505.75 -4.38762 -1.4784 0
M  V30 8382 H 1502.91 -8.36803 -2.32493 0
M  V30 8383 H 1502.64 -6.70197 -1.71129 0
M  V30 8384 H 1503.51 -7.03551 -4.13168 0
M  V30 8385 P 1507.47 -7.20834 -5.23717 0
M  V30 8386 O 1507.69 -7.80006 -6.57415 0
M  V30 8387 O 1508.26 -7.79416 -4.13051 0
M  V30 8388 O 1507.72 -5.63315 -5.29344 0
M  V30 8389 C 1506.78 -4.80318 -6.01954 0
M  V30 8390 C 1507.51 -3.64202 -6.65911 0
M  V30 8391 O 1507.72 -2.60736 -5.64823 0
M  V30 8392 C 1508.91 -3.93521 -7.19518 0
M  V30 8393 O 1509.3 -3.02071 -8.21205 0
M  V30 8394 C 1509.79 -3.73047 -5.97036 0
M  V30 8395 C 1509.08 -2.58828 -5.25741 0
M  V30 8396 N 1509.13 -2.68068 -3.77503 0
M  V30 8397 C 1509.05 -3.80474 -2.99159 0
M  V30 8398 N 1509.12 -3.55622 -1.71925 0
M  V30 8399 C 1509.27 -2.1832 -1.65733 0
M  V30 8400 C 1509.4 -1.28842 -0.572777 0
M  V30 8401 N 1509.41 -1.66875 0.70098 0
M  V30 8402 N 1509.52 0.016788 -0.859836 0
M  V30 8403 C 1509.51 0.398145 -2.13316 0
M  V30 8404 N 1509.39 -0.328224 -3.22333 0
M  V30 8405 C 1509.27 -1.62992 -2.90383 0
M  V30 8406 H 1506.29 -5.40394 -6.8003 0
M  V30 8407 H 1506.02 -4.41741 -5.32532 0
M  V30 8408 H 1506.89 -3.26371 -7.47889 0
M  V30 8409 H 1509.54 -1.64007 -5.56746 0
M  V30 8410 H 1509.82 -4.63439 -5.3432 0
M  V30 8411 H 1510.82 -3.44776 -6.25925 0
M  V30 8412 H 1508.98 -4.96707 -7.57347 0
M  V30 8413 H 1508.94 -4.8089 -3.39924 0
M  V30 8414 H 1509.32 -2.66547 0.941919 0
M  V30 8415 H 1509.51 -0.965341 1.44766 0
M  V30 8416 H 1509.62 1.46427 -2.29697 0
M  V30 8417 P 1510.85 -2.75334 -8.47391 0
M  V30 8418 O 1511.07 -2.44571 -9.90142 0
M  V30 8419 O 1511.64 -3.87688 -7.92115 0
M  V30 8420 O 1511.1 -1.4459 -7.59357 0
M  V30 8421 C 1510.16 -0.347608 -7.69215 0
M  V30 8422 C 1510.89 0.96767 -7.52806 0
M  V30 8423 O 1511.1 1.21036 -6.1011 0
M  V30 8424 C 1512.29 1.04544 -8.13308 0
M  V30 8425 O 1512.68 2.38311 -8.41922 0
M  V30 8426 C 1513.17 0.491279 -7.02284 0
M  V30 8427 C 1512.46 0.996264 -5.77469 0
M  V30 8428 N 1512.51 0.0501916 -4.62973 0
M  V30 8429 C 1512.43 -1.32786 -4.63244 0
M  V30 8430 N 1512.51 -1.86957 -3.44545 0
M  V30 8431 C 1512.65 -0.780241 -2.58481 0
M  V30 8432 C 1512.78 -0.738536 -1.17757 0
M  V30 8433 O 1512.8 -1.66794 -0.372349 0
M  V30 8434 N 1512.9 0.58337 -0.711393 0
M  V30 8435 C 1512.9 1.70816 -1.51017 0
M  V30 8436 N 1513.03 2.87826 -0.880757 0
M  V30 8437 N 1512.77 1.67126 -2.8339 0
M  V30 8438 C 1512.65 0.401421 -3.30572 0
M  V30 8439 H 1509.67 -0.374722 -8.67691 0
M  V30 8440 H 1509.4 -0.443485 -6.90277 0
M  V30 8441 H 1510.27 1.75537 -7.96793 0
M  V30 8442 H 1512.92 1.95076 -5.46529 0
M  V30 8443 H 1513.2 -0.608565 -7.04577 0
M  V30 8444 H 1514.2 0.889672 -7.08939 0
M  V30 8445 H 1512.36 0.43308 -9.04564 0
M  V30 8446 H 1512.31 -1.91249 -5.54442 0
M  V30 8447 H 1512.99 0.718054 0.275244 0
M  V30 8448 H 1513.03 3.75721 -1.41832 0
M  V30 8449 H 1513.13 2.90436 0.145468 0
M  V30 8450 P 1514.23 2.75334 -8.47391 0
M  V30 8451 O 1514.45 3.84128 -9.44797 0
M  V30 8452 O 1515.02 1.51947 -8.68712 0
M  V30 8453 O 1514.48 3.29363 -6.99321 0
M  V30 8454 C 1513.54 4.24011 -6.4274 0
M  V30 8455 C 1514.27 5.20775 -5.52155 0
M  V30 8456 O 1514.48 4.56534 -4.22446 0
M  V30 8457 C 1515.67 5.62629 -5.96531 0
M  V30 8458 O 1516.06 6.87667 -5.41053 0
M  V30 8459 C 1516.55 4.52537 -5.39283 0
M  V30 8460 C 1515.84 4.20027 -4.08623 0
M  V30 8461 N 1515.89 2.76189 -3.71603 0
M  V30 8462 C 1515.81 1.64862 -4.52822 0
M  V30 8463 N 1515.89 0.512671 -3.88633 0
M  V30 8464 C 1516.03 0.888083 -2.54977 0
M  V30 8465 C 1516.16 0.094668 -1.38677 0
M  V30 8466 O 1516.18 -1.13053 -1.28163 0
M  V30 8467 N 1516.28 0.890102 -0.232633 0
M  V30 8468 C 1516.28 2.26958 -0.21772 0
M  V30 8469 N 1516.41 2.84626 0.97925 0
M  V30 8470 N 1516.15 3.0178 -1.31033 0
M  V30 8471 C 1516.03 2.26781 -2.43843 0
M  V30 8472 H 1513.05 4.797 -7.24003 0
M  V30 8473 H 1512.78 3.69856 -5.84513 0
M  V30 8474 H 1513.65 6.10356 -5.41441 0
M  V30 8475 H 1516.3 4.79061 -3.27488 0
M  V30 8476 H 1516.58 3.64906 -6.05785 0
M  V30 8477 H 1517.58 4.8868 -5.2125 0
M  V30 8478 H 1515.74 5.66726 -7.06352 0
M  V30 8479 H 1515.69 1.71169 -5.60966 0
M  V30 8480 H 1516.37 0.419134 0.644739 0
M  V30 8481 H 1516.41 3.87332 1.06098 0
M  V30 8482 H 1516.51 2.26417 1.82483 0
M  V30 8483 P 1517.61 7.20834 -5.23717 0
M  V30 8484 O 1517.83 8.66104 -5.38572 0
M  V30 8485 O 1518.4 6.33544 -6.1349 0
M  V30 8486 O 1517.86 6.7751 -3.72168 0
M  V30 8487 C 1516.92 7.20825 -2.7076 0
M  V30 8488 C 1517.65 7.45864 -1.40599 0
M  V30 8489 O 1517.86 6.17651 -0.734225 0
M  V30 8490 C 1519.05 8.05808 -1.51899 0
M  V30 8491 O 1519.44 8.74358 -0.335205 0
M  V30 8492 C 1519.93 6.83093 -1.70294 0
M  V30 8493 C 1519.22 5.79992 -0.836974 0
M  V30 8494 N 1519.27 4.41864 -1.38293 0
M  V30 8495 C 1519.19 3.99538 -2.69438 0
M  V30 8496 N 1519.27 2.69909 -2.84277 0
M  V30 8497 C 1519.41 2.21719 -1.5408 0
M  V30 8498 C 1519.54 0.891712 -1.06628 0
M  V30 8499 N 1519.66 0.856846 0.334985 0
M  V30 8500 C 1519.66 1.9641 1.15789 0
M  V30 8501 N 1519.79 1.72708 2.46522 0
M  V30 8502 N 1519.53 3.21165 0.713741 0
M  V30 8503 C 1519.41 3.26797 -0.639748 0
M  V30 8504 H 1516.43 8.13644 -3.0377 0
M  V30 8505 H 1516.16 6.42788 -2.55485 0
M  V30 8506 H 1517.03 8.12039 -0.792769 0
M  V30 8507 P 1520.99 8.91 1.48453e-12 0
M  V30 8508 O 1521.21 10.1726 0.733694 0
M  V30 8509 O 1521.78 8.73148 -1.23936 0
M  V30 8510 O 1521.24 7.66872 0.971405 0
M  V30 8511 C 1520.3 7.42309 2.04641 0
M  V30 8512 C 1521.03 6.86059 3.24661 0
M  V30 8513 O 1521.24 5.42847 3.03646 0
M  V30 8514 C 1522.43 7.41196 3.50753 0
M  V30 8515 O 1522.82 7.27073 4.86816 0
M  V30 8516 C 1523.31 6.5273 2.63741 0
M  V30 8517 C 1522.6 5.1842 2.73198 0
M  V30 8518 N 1522.65 4.38762 1.4784 0
M  V30 8519 H 1519.81 8.36803 2.32493 0
M  V30 8520 H 1519.54 6.70197 1.71129 0
M  V30 8521 H 1520.41 7.03551 4.13168 0
M  V30 8522 P 1524.37 7.20834 5.23717 0
M  V30 8523 O 1524.59 7.79853 6.57286 0
M  V30 8524 O 1525.16 7.79239 4.12957 0
M  V30 8525 O 1524.62 5.63315 5.29344 0
M  V30 8526 C 1523.68 4.80255 6.01876 0
M  V30 8527 C 1524.41 3.64202 6.65911 0
M  V30 8528 O 1524.62 2.60694 5.64732 0
M  V30 8529 C 1525.81 3.93473 7.1943 0
M  V30 8530 O 1526.2 3.02071 8.21205 0
M  V30 8531 C 1526.69 3.73047 5.97036 0
M  V30 8532 C 1525.98 2.58828 5.25741 0
M  V30 8533 N 1526.03 2.68068 3.77503 0
M  V30 8534 H 1523.19 5.40332 6.79951 0
M  V30 8535 H 1522.92 4.41613 5.32378 0
M  V30 8536 H 1523.79 3.26331 7.47797 0
M  V30 8537 P 1527.75 2.75334 8.47391 0
M  V30 8538 O 1527.97 2.44595 9.90239 0
M  V30 8539 O 1528.54 3.87732 7.92204 0
M  V30 8540 O 1528 1.4459 7.59357 0
M  V30 8541 C 1527.06 0.347563 7.69115 0
M  V30 8542 C 1527.79 -0.96767 7.52806 0
M  V30 8543 O 1528 -1.21036 6.1011 0
M  V30 8544 C 1529.19 -1.04544 8.13308 0
M  V30 8545 O 1529.58 -2.38311 8.41922 0
M  V30 8546 C 1530.07 -0.491279 7.02284 0
M  V30 8547 C 1529.36 -0.996264 5.77469 0
M  V30 8548 N 1529.41 -0.0501808 4.62873 0
M  V30 8549 C 1529.56 -0.588177 3.36904 0
M  V30 8550 O 1529.65 -1.78598 3.17173 0
M  V30 8551 N 1529.6 0.329694 2.33686 0
M  V30 8552 C 1529.51 1.6953 2.45079 0
M  V30 8553 O 1529.56 2.41926 1.44899 0
M  V30 8554 C 1529.36 2.16933 3.80505 0
M  V30 8555 C 1529.25 3.65373 3.97621 0
M  V30 8556 C 1529.31 1.30326 4.83752 0
M  V30 8557 H 1526.57 0.374722 8.67691 0
M  V30 8558 H 1526.3 0.443421 6.90177 0
M  V30 8559 H 1527.17 -1.75537 7.96793 0
M  V30 8560 H 1529.82 -1.94496 5.46629 0
M  V30 8561 H 1530.1 0.608651 7.04676 0
M  V30 8562 H 1531.09 -0.889672 7.08939 0
M  V30 8563 H 1529.26 -0.43308 9.04564 0
M  V30 8564 H 1529.19 1.68366 5.8516 0
M  V30 8565 H 1530.22 4.05985 4.30448 0
M  V30 8566 H 1528.48 3.88028 4.72875 0
M  V30 8567 H 1528.97 4.11381 3.01609 0
M  V30 8568 H 1529.71 -0.0393617 1.41345 0
M  V30 8569 P 1531.13 -2.75334 8.47391 0
M  V30 8570 O 1531.35 -3.84128 9.44797 0
M  V30 8571 O 1531.92 -1.51947 8.68712 0
M  V30 8572 O 1531.38 -3.29363 6.99321 0
M  V30 8573 C 1530.44 -4.24011 6.4274 0
M  V30 8574 C 1531.17 -5.20775 5.52155 0
M  V30 8575 O 1531.38 -4.56534 4.22446 0
M  V30 8576 C 1532.57 -5.62629 5.96531 0
M  V30 8577 O 1532.96 -6.87667 5.41053 0
M  V30 8578 C 1533.45 -4.52537 5.39283 0
M  V30 8579 C 1532.74 -4.20027 4.08623 0
M  V30 8580 N 1532.79 -2.76189 3.71603 0
M  V30 8581 H 1529.95 -4.797 7.24003 0
M  V30 8582 H 1529.68 -3.69856 5.84513 0
M  V30 8583 H 1530.55 -6.10356 5.41441 0
M  V30 8584 P 1534.51 -7.20834 5.23717 0
M  V30 8585 O 1534.73 -8.66189 5.38625 0
M  V30 8586 O 1535.3 -6.33615 6.1356 0
M  V30 8587 O 1534.76 -6.7751 3.72168 0
M  V30 8588 C 1533.82 -7.20825 2.7076 0
M  V30 8589 C 1534.55 -7.45864 1.40599 0
M  V30 8590 O 1534.76 -6.17651 0.734225 0
M  V30 8591 C 1535.95 -8.05808 1.51899 0
M  V30 8592 O 1536.34 -8.74358 0.335205 0
M  V30 8593 C 1536.83 -6.83093 1.70294 0
M  V30 8594 C 1536.12 -5.79992 0.836974 0
M  V30 8595 N 1536.17 -4.41769 1.38263 0
M  V30 8596 C 1536.32 -3.36514 0.485617 0
M  V30 8597 O 1536.41 -3.61814 -0.724703 0
M  V30 8598 N 1536.37 -2.00746 1.14492 0
M  V30 8599 C 1536.27 -1.85887 2.27776 0
M  V30 8600 N 1536.32 -0.600907 2.69379 0
M  V30 8601 C 1536.12 -2.92182 3.22265 0
M  V30 8602 C 1536.07 -4.18399 2.71925 0
M  V30 8603 H 1533.33 -8.1355 3.03735 0
M  V30 8604 H 1533.06 -6.42695 2.55448 0
M  V30 8605 H 1533.93 -8.12139 0.792866 0
M  V30 8606 H 1536.58 -5.80078 -0.160615 0
M  V30 8607 H 1536.86 -6.51379 2.75643 0
M  V30 8608 H 1537.85 -7.01734 1.34462 0
M  V30 8609 H 1536.02 -8.73674 2.38337 0
M  V30 8610 H 1535.95 -5.02669 3.39718 0
M  V30 8611 H 1536.05 -2.73001 4.29239 0
M  V30 8612 H 1536.44 0.162318 2.01146 0
M  V30 8613 H 1536.24 -0.387742 3.69773 0
M  V30 8614 P 1537.89 -8.91 -3.75525e-13 0
M  V30 8615 O 1538.11 -10.1736 -0.733766 0
M  V30 8616 O 1538.68 -8.73247 1.2395 0
M  V30 8617 O 1538.14 -7.66872 -0.971405 0
M  V30 8618 C 1537.2 -7.42212 -2.04614 0
M  V30 8619 C 1537.93 -6.86059 -3.24661 0
M  V30 8620 O 1538.14 -5.42847 -3.03646 0
M  V30 8621 C 1539.33 -7.41196 -3.50753 0
M  V30 8622 O 1539.72 -7.27073 -4.86816 0
M  V30 8623 C 1540.21 -6.5273 -2.63741 0
M  V30 8624 C 1539.5 -5.1842 -2.73198 0
M  V30 8625 N 1539.55 -4.38668 -1.47808 0
M  V30 8626 C 1539.7 -3.02239 -1.60048 0
M  V30 8627 O 1539.79 -2.46459 -2.67869 0
M  V30 8628 N 1539.74 -2.32436 -0.408571 0
M  V30 8629 C 1539.65 -2.85471 0.854993 0
M  V30 8630 O 1539.7 -2.12566 1.8531 0
M  V30 8631 C 1539.5 -4.28918 0.887335 0
M  V30 8632 C 1539.39 -4.91066 2.24619 0
M  V30 8633 C 1539.45 -5.00349 -0.255399 0
M  V30 8634 H 1536.71 -8.36803 -2.32493 0
M  V30 8635 H 1536.44 -6.701 -1.71105 0
M  V30 8636 H 1537.31 -7.03551 -4.13168 0
M  V30 8637 H 1539.96 -4.59773 -3.53894 0
M  V30 8638 H 1540.24 -6.88995 -1.59871 0
M  V30 8639 H 1541.23 -6.46749 -3.03687 0
M  V30 8640 H 1539.4 -8.46908 -3.20714 0
M  V30 8641 H 1539.33 -6.08548 -0.206986 0
M  V30 8642 H 1540.36 -5.34836 2.53099 0
M  V30 8643 H 1538.62 -5.69638 2.2291 0
M  V30 8644 H 1539.11 -4.13971 2.98044 0
M  V30 8645 H 1539.85 -1.33211 -0.474216 0
M  V30 8646 P 1541.27 -7.20834 -5.23717 0
M  V30 8647 O 1541.49 -7.79853 -6.57286 0
M  V30 8648 O 1542.06 -7.79239 -4.12957 0
M  V30 8649 O 1541.52 -5.63315 -5.29344 0
M  V30 8650 C 1540.58 -4.80255 -6.01876 0
M  V30 8651 C 1541.31 -3.64202 -6.65911 0
M  V30 8652 O 1541.52 -2.60694 -5.64732 0
M  V30 8653 C 1542.71 -3.93473 -7.1943 0
M  V30 8654 O 1543.1 -3.02071 -8.21205 0
M  V30 8655 C 1543.59 -3.73047 -5.97036 0
M  V30 8656 C 1542.88 -2.58828 -5.25741 0
M  V30 8657 N 1542.93 -2.68068 -3.77503 0
M  V30 8658 H 1540.09 -5.40332 -6.79951 0
M  V30 8659 H 1539.82 -4.41613 -5.32378 0
M  V30 8660 H 1540.69 -3.26331 -7.47797 0
M  V30 8661 P 1544.65 -2.75334 -8.47391 0
M  V30 8662 O 1544.87 -2.44571 -9.90142 0
M  V30 8663 O 1545.44 -3.87688 -7.92115 0
M  V30 8664 O 1544.9 -1.4459 -7.59357 0
M  V30 8665 C 1543.96 -0.347608 -7.69215 0
M  V30 8666 C 1544.69 0.96767 -7.52806 0
M  V30 8667 O 1544.9 1.21036 -6.1011 0
M  V30 8668 C 1546.09 1.04544 -8.13308 0
M  V30 8669 O 1546.48 2.38311 -8.41922 0
M  V30 8670 C 1546.97 0.491279 -7.02284 0
M  V30 8671 C 1546.26 0.996264 -5.77469 0
M  V30 8672 N 1546.31 0.0501916 -4.62973 0
M  V30 8673 H 1543.47 -0.374722 -8.67691 0
M  V30 8674 H 1543.2 -0.443485 -6.90277 0
M  V30 8675 H 1544.07 1.75537 -7.96793 0
M  V30 8676 P 1548.03 2.75334 -8.47391 0
M  V30 8677 O 1548.25 3.84128 -9.44797 0
M  V30 8678 O 1548.82 1.51947 -8.68712 0
M  V30 8679 O 1548.28 3.29363 -6.99321 0
M  V30 8680 C 1547.34 4.24011 -6.4274 0
M  V30 8681 C 1548.07 5.20775 -5.52155 0
M  V30 8682 O 1548.28 4.56534 -4.22446 0
M  V30 8683 C 1549.47 5.62629 -5.96531 0
M  V30 8684 O 1549.86 6.87667 -5.41053 0
M  V30 8685 C 1550.35 4.52537 -5.39283 0
M  V30 8686 C 1549.64 4.20027 -4.08623 0
M  V30 8687 N 1549.69 2.76189 -3.71603 0
M  V30 8688 H 1546.85 4.797 -7.24003 0
M  V30 8689 H 1546.58 3.69856 -5.84513 0
M  V30 8690 H 1547.45 6.10356 -5.41441 0
M  V30 8691 P 1551.41 7.20834 -5.23717 0
M  V30 8692 O 1551.63 8.66189 -5.38625 0
M  V30 8693 O 1552.2 6.33615 -6.1356 0
M  V30 8694 O 1551.66 6.7751 -3.72168 0
M  V30 8695 C 1550.72 7.20732 -2.70725 0
M  V30 8696 C 1551.45 7.45864 -1.40599 0
M  V30 8697 O 1551.66 6.17651 -0.734225 0
M  V30 8698 C 1552.85 8.05808 -1.51899 0
M  V30 8699 O 1553.24 8.74358 -0.335205 0
M  V30 8700 C 1553.73 6.83093 -1.70294 0
M  V30 8701 C 1553.02 5.79992 -0.836974 0
M  V30 8702 N 1553.07 4.41769 -1.38263 0
M  V30 8703 C 1553.22 3.38591 -0.481702 0
M  V30 8704 O 1553.31 3.56839 0.718452 0
M  V30 8705 N 1553.26 2.1206 -1.03569 0
M  V30 8706 C 1553.17 1.80696 -2.36966 0
M  V30 8707 O 1553.22 0.630473 -2.74862 0
M  V30 8708 C 1553.02 2.94845 -3.23898 0
M  V30 8709 C 1552.91 2.65253 -4.70362 0
M  V30 8710 C 1552.97 4.19803 -2.73435 0
M  V30 8711 H 1550.23 8.13644 -3.0377 0
M  V30 8712 H 1549.96 6.42695 -2.55448 0
M  V30 8713 H 1550.83 8.12039 -0.792769 0
M  V30 8714 H 1553.48 5.79978 0.160587 0
M  V30 8715 H 1553.76 6.51379 -2.75643 0
M  V30 8716 H 1554.75 7.01734 -1.34462 0
M  V30 8717 H 1552.92 8.73674 -2.38337 0
M  V30 8718 H 1552.85 5.04492 -3.4095 0
M  V30 8719 H 1553.88 2.83924 -5.1913 0
M  V30 8720 H 1552.14 3.29824 -5.15163 0
M  V30 8721 H 1552.63 1.59723 -4.84449 0
M  V30 8722 H 1553.37 1.35644 -0.399345 0
M  V30 8723 P 1554.79 8.91 -7.3348e-13 0
M  V30 8724 O 1555.01 10.1726 0.733694 0
M  V30 8725 O 1555.58 8.73148 -1.23936 0
M  V30 8726 O 1555.04 7.66872 0.971405 0
M  V30 8727 C 1554.1 7.42309 2.04641 0
M  V30 8728 C 1554.83 6.86059 3.24661 0
M  V30 8729 O 1555.04 5.42847 3.03646 0
M  V30 8730 C 1556.23 7.41196 3.50753 0
M  V30 8731 O 1556.62 7.27073 4.86816 0
M  V30 8732 C 1557.11 6.5273 2.63741 0
M  V30 8733 C 1556.4 5.1842 2.73198 0
M  V30 8734 N 1556.45 4.38762 1.4784 0
M  V30 8735 H 1553.61 8.36803 2.32493 0
M  V30 8736 H 1553.34 6.70197 1.71129 0
M  V30 8737 H 1554.21 7.03551 4.13168 0
M  V30 8738 P 1558.17 7.20834 5.23717 0
M  V30 8739 O 1558.39 7.79853 6.57286 0
M  V30 8740 O 1558.96 7.79239 4.12957 0
M  V30 8741 O 1558.42 5.63315 5.29344 0
M  V30 8742 C 1557.48 4.80255 6.01876 0
M  V30 8743 C 1558.21 3.64202 6.65911 0
M  V30 8744 O 1558.42 2.60694 5.64732 0
M  V30 8745 C 1559.61 3.93473 7.1943 0
M  V30 8746 O 1560 3.02071 8.21205 0
M  V30 8747 C 1560.49 3.73047 5.97036 0
M  V30 8748 C 1559.78 2.58828 5.25741 0
M  V30 8749 N 1559.83 2.68068 3.77503 0
M  V30 8750 C 1559.75 3.79715 2.96723 0
M  V30 8751 N 1559.83 3.5377 1.68852 0
M  V30 8752 C 1559.97 2.15054 1.63254 0
M  V30 8753 C 1560.1 1.28964 0.518571 0
M  V30 8754 O 1560.12 1.56826 -0.679156 0
M  V30 8755 N 1560.22 -0.0538097 0.918425 0
M  V30 8756 C 1560.22 -0.494275 2.22578 0
M  V30 8757 N 1560.35 -1.81086 2.40434 0
M  V30 8758 N 1560.09 0.313645 3.27502 0
M  V30 8759 C 1559.97 1.61829 2.91033 0
M  V30 8760 H 1556.99 5.40332 6.79951 0
M  V30 8761 H 1556.72 4.41613 5.32378 0
M  V30 8762 H 1557.59 3.26331 7.47797 0
M  V30 8763 H 1560.24 1.63422 5.56814 0
M  V30 8764 H 1560.52 4.63374 5.34244 0
M  V30 8765 H 1561.51 3.44728 6.25838 0
M  V30 8766 H 1559.68 4.96652 7.57263 0
M  V30 8767 H 1559.63 4.80617 3.3614 0
M  V30 8768 H 1560.31 -0.742702 0.199384 0
M  V30 8769 H 1560.35 -2.20598 3.35588 0
M  V30 8770 H 1560.45 -2.43518 1.58945 0
M  V30 8771 P 1561.55 2.75334 8.47391 0
M  V30 8772 O 1561.77 2.44571 9.90142 0
M  V30 8773 O 1562.34 3.87688 7.92115 0
M  V30 8774 O 1561.8 1.4459 7.59357 0
M  V30 8775 C 1560.86 0.347608 7.69215 0
M  V30 8776 C 1561.59 -0.96767 7.52806 0
M  V30 8777 O 1561.8 -1.21036 6.1011 0
M  V30 8778 C 1562.99 -1.04544 8.13308 0
M  V30 8779 O 1563.38 -2.38311 8.41922 0
M  V30 8780 C 1563.87 -0.491279 7.02284 0
M  V30 8781 C 1563.16 -0.996264 5.77469 0
M  V30 8782 N 1563.21 -0.0501916 4.62973 0
M  V30 8783 H 1560.37 0.374722 8.67691 0
M  V30 8784 H 1560.1 0.443485 6.90277 0
M  V30 8785 H 1560.97 -1.75537 7.96793 0
M  V30 8786 P 1564.93 -2.75334 8.47391 0
M  V30 8787 O 1565.15 -3.84128 9.44797 0
M  V30 8788 O 1565.72 -1.51947 8.68712 0
M  V30 8789 O 1565.18 -3.29363 6.99321 0
M  V30 8790 C 1564.24 -4.24011 6.4274 0
M  V30 8791 C 1564.97 -5.20775 5.52155 0
M  V30 8792 O 1565.18 -4.56534 4.22446 0
M  V30 8793 C 1566.37 -5.62629 5.96531 0
M  V30 8794 O 1566.76 -6.87667 5.41053 0
M  V30 8795 C 1567.25 -4.52537 5.39283 0
M  V30 8796 C 1566.54 -4.20027 4.08623 0
M  V30 8797 N 1566.59 -2.76189 3.71603 0
M  V30 8798 H 1563.75 -4.797 7.24003 0
M  V30 8799 H 1563.48 -3.69856 5.84513 0
M  V30 8800 H 1564.35 -6.10356 5.41441 0
M  V30 8801 P 1568.31 -7.20834 5.23717 0
M  V30 8802 O 1568.53 -8.66274 5.38678 0
M  V30 8803 O 1569.1 -6.33687 6.13629 0
M  V30 8804 O 1568.56 -6.7751 3.72168 0
M  V30 8805 C 1567.62 -7.20919 2.70795 0
M  V30 8806 C 1568.35 -7.45864 1.40599 0
M  V30 8807 O 1568.56 -6.17751 0.734343 0
M  V30 8808 C 1569.75 -8.05906 1.51917 0
M  V30 8809 O 1570.14 -8.74358 0.335205 0
M  V30 8810 C 1570.63 -6.83093 1.70294 0
M  V30 8811 C 1569.92 -5.79992 0.836974 0
M  V30 8812 N 1569.97 -4.41864 1.38293 0
M  V30 8813 C 1569.89 -4.02089 2.69407 0
M  V30 8814 N 1569.96 -2.73403 2.85089 0
M  V30 8815 C 1570.11 -2.25086 1.5642 0
M  V30 8816 C 1570.24 -0.942887 1.04836 0
M  V30 8817 N 1570.25 0.150999 1.80369 0
M  V30 8818 N 1570.36 -0.812565 -0.28167 0
M  V30 8819 C 1570.35 -1.90572 -1.03784 0
M  V30 8820 N 1570.23 -3.167 -0.683905 0
M  V30 8821 C 1570.11 -3.26538 0.652815 0
M  V30 8822 H 1567.13 -8.13738 3.03804 0
M  V30 8823 H 1566.86 -6.42974 2.55559 0
M  V30 8824 H 1567.73 -8.12139 0.792866 0
M  V30 8825 H 1570.38 -5.80178 -0.160643 0
M  V30 8826 H 1570.66 -6.51379 2.75643 0
M  V30 8827 H 1571.65 -7.01832 1.3448 0
M  V30 8828 H 1569.82 -8.73771 2.38364 0
M  V30 8829 H 1569.78 -4.7189 3.52311 0
M  V30 8830 H 1570.16 0.0721434 2.82608 0
M  V30 8831 H 1570.35 1.0785 1.36544 0
M  V30 8832 H 1570.46 -1.73207 -2.10241 0
M  V30 8833 P 1571.69 -8.91 1.84249e-12 0
M  V30 8834 O 1571.91 -10.1726 -0.733694 0
M  V30 8835 O 1572.48 -8.73148 1.23936 0
M  V30 8836 O 1571.94 -7.66872 -0.971405 0
M  V30 8837 C 1571 -7.42309 -2.04641 0
M  V30 8838 C 1571.73 -6.86059 -3.24661 0
M  V30 8839 O 1571.94 -5.42847 -3.03646 0
M  V30 8840 C 1573.13 -7.41196 -3.50753 0
M  V30 8841 O 1573.52 -7.27073 -4.86816 0
M  V30 8842 C 1574.01 -6.5273 -2.63741 0
M  V30 8843 C 1573.3 -5.1842 -2.73198 0
M  V30 8844 N 1573.35 -4.38762 -1.4784 0
M  V30 8845 H 1570.51 -8.36803 -2.32493 0
M  V30 8846 H 1570.24 -6.70197 -1.71129 0
M  V30 8847 H 1571.11 -7.03551 -4.13168 0
M  V30 8848 P 1575.07 -7.20834 -5.23717 0
M  V30 8849 O 1575.29 -7.7993 -6.57351 0
M  V30 8850 O 1575.86 -7.79328 -4.13004 0
M  V30 8851 O 1575.32 -5.63315 -5.29344 0
M  V30 8852 C 1574.38 -4.80193 -6.01798 0
M  V30 8853 C 1575.11 -3.64202 -6.65911 0
M  V30 8854 O 1575.32 -2.60694 -5.64732 0
M  V30 8855 C 1576.51 -3.93473 -7.1943 0
M  V30 8856 O 1576.9 -3.02071 -8.21205 0
M  V30 8857 C 1577.39 -3.73047 -5.97036 0
M  V30 8858 C 1576.68 -2.58828 -5.25741 0
M  V30 8859 N 1576.73 -2.6801 -3.77422 0
M  V30 8860 C 1576.88 -1.50443 -3.07133 0
M  V30 8861 O 1576.97 -0.419406 -3.61576 0
M  V30 8862 N 1576.92 -1.6403 -1.69677 0
M  V30 8863 C 1576.83 -2.81206 -0.986255 0
M  V30 8864 O 1576.88 -2.80892 0.249754 0
M  V30 8865 C 1576.68 -3.99158 -1.80325 0
M  V30 8866 C 1576.57 -5.29309 -1.06921 0
M  V30 8867 C 1576.63 -3.89779 -3.1476 0
M  V30 8868 H 1573.89 -5.40332 -6.79951 0
M  V30 8869 H 1573.62 -4.41549 -5.32301 0
M  V30 8870 H 1574.49 -3.26331 -7.47797 0
M  V30 8871 H 1577.14 -1.6395 -5.56554 0
M  V30 8872 H 1577.42 -4.63439 -5.3432 0
M  V30 8873 H 1578.41 -3.44728 -6.25838 0
M  V30 8874 H 1576.58 -4.96652 -7.57263 0
M  V30 8875 H 1576.51 -4.80159 -3.74441 0
M  V30 8876 H 1577.54 -5.81459 -1.09608 0
M  V30 8877 H 1575.8 -5.9187 -1.54487 0
M  V30 8878 H 1576.29 -5.10095 -0.0220288 0
M  V30 8879 H 1577.03 -0.798962 -1.16664 0
M  V30 8880 P 1578.45 -2.75334 -8.47391 0
M  V30 8881 O 1578.67 -2.44571 -9.90142 0
M  V30 8882 O 1579.24 -3.87688 -7.92115 0
M  V30 8883 O 1578.7 -1.4459 -7.59357 0
M  V30 8884 C 1577.76 -0.347608 -7.69215 0
M  V30 8885 C 1578.49 0.96767 -7.52806 0
M  V30 8886 O 1578.7 1.21036 -6.1011 0
M  V30 8887 C 1579.89 1.04544 -8.13308 0
M  V30 8888 O 1580.28 2.38311 -8.41922 0
M  V30 8889 C 1580.77 0.491279 -7.02284 0
M  V30 8890 C 1580.06 0.996264 -5.77469 0
M  V30 8891 N 1580.11 0.0501916 -4.62973 0
M  V30 8892 H 1577.27 -0.374722 -8.67691 0
M  V30 8893 H 1577 -0.443485 -6.90277 0
M  V30 8894 H 1577.87 1.75537 -7.96793 0
M  V30 8895 P 1581.83 2.75334 -8.47391 0
M  V30 8896 O 1582.05 3.84204 -9.44982 0
M  V30 8897 O 1582.62 1.51982 -8.68909 0
M  V30 8898 O 1582.08 3.29363 -6.99321 0
M  V30 8899 C 1581.14 4.24066 -6.42823 0
M  V30 8900 C 1581.87 5.20775 -5.52155 0
M  V30 8901 O 1582.08 4.56607 -4.22514 0
M  V30 8902 C 1583.27 5.62697 -5.96604 0
M  V30 8903 O 1583.66 6.87667 -5.41053 0
M  V30 8904 C 1584.15 4.52537 -5.39283 0
M  V30 8905 C 1583.44 4.20027 -4.08623 0
M  V30 8906 N 1583.49 2.76189 -3.71603 0
M  V30 8907 C 1583.41 1.66944 -4.54297 0
M  V30 8908 N 1583.48 0.536169 -3.91344 0
M  V30 8909 C 1583.63 0.901569 -2.58849 0
M  V30 8910 C 1583.76 0.146599 -1.40236 0
M  V30 8911 N 1583.77 -1.18234 -1.37046 0
M  V30 8912 N 1583.88 0.822941 -0.249738 0
M  V30 8913 C 1583.87 2.15179 -0.280525 0
M  V30 8914 N 1583.75 2.96414 -1.30822 0
M  V30 8915 C 1583.63 2.25804 -2.44748 0
M  V30 8916 H 1580.65 4.79756 -7.24086 0
M  V30 8917 H 1580.38 3.69963 -5.84682 0
M  V30 8918 H 1581.25 6.10431 -5.41508 0
M  V30 8919 H 1583.9 4.78816 -3.28024 0
M  V30 8920 H 1584.18 3.64957 -6.05871 0
M  V30 8921 H 1585.17 4.88748 -5.21323 0
M  V30 8922 H 1583.34 5.66789 -7.0643 0
M  V30 8923 H 1583.3 1.74684 -5.62396 0
M  V30 8924 H 1583.68 -1.71949 -2.24394 0
M  V30 8925 H 1583.87 -1.67511 -0.470742 0
M  V30 8926 H 1583.98 2.63704 0.6828 0
M  V30 8927 P 1585.21 7.20834 -5.23717 0
M  V30 8928 O 1585.43 8.66104 -5.38572 0
M  V30 8929 O 1586 6.33544 -6.1349 0
M  V30 8930 O 1585.46 6.7751 -3.72168 0
M  V30 8931 C 1584.52 7.20825 -2.7076 0
M  V30 8932 C 1585.25 7.45864 -1.40599 0
M  V30 8933 O 1585.46 6.17651 -0.734225 0
M  V30 8934 C 1586.65 8.05808 -1.51899 0
M  V30 8935 O 1587.04 8.74358 -0.335205 0
M  V30 8936 C 1587.53 6.83093 -1.70294 0
M  V30 8937 C 1586.82 5.79992 -0.836974 0
M  V30 8938 N 1586.87 4.41864 -1.38293 0
M  V30 8939 H 1584.03 8.13644 -3.0377 0
M  V30 8940 H 1583.76 6.42788 -2.55485 0
M  V30 8941 H 1584.63 8.12039 -0.792769 0
M  V30 8942 P 1588.59 8.91 -2.95149e-12 0
M  V30 8943 O 1588.81 10.1726 0.733694 0
M  V30 8944 O 1589.38 8.73148 -1.23936 0
M  V30 8945 O 1588.84 7.66872 0.971405 0
M  V30 8946 C 1587.9 7.42309 2.04641 0
M  V30 8947 C 1588.63 6.86059 3.24661 0
M  V30 8948 O 1588.84 5.42847 3.03646 0
M  V30 8949 C 1590.03 7.41196 3.50753 0
M  V30 8950 O 1590.42 7.27073 4.86816 0
M  V30 8951 C 1590.91 6.5273 2.63741 0
M  V30 8952 C 1590.2 5.1842 2.73198 0
M  V30 8953 N 1590.25 4.38762 1.4784 0
M  V30 8954 H 1587.41 8.36803 2.32493 0
M  V30 8955 H 1587.14 6.70197 1.71129 0
M  V30 8956 H 1588.01 7.03551 4.13168 0
M  V30 8957 P 1591.97 7.20834 5.23717 0
M  V30 8958 O 1592.19 7.79853 6.57286 0
M  V30 8959 O 1592.76 7.79239 4.12957 0
M  V30 8960 O 1592.22 5.63315 5.29344 0
M  V30 8961 C 1591.28 4.80255 6.01876 0
M  V30 8962 C 1592.01 3.64202 6.65911 0
M  V30 8963 O 1592.22 2.60694 5.64732 0
M  V30 8964 C 1593.41 3.93473 7.1943 0
M  V30 8965 O 1593.8 3.02071 8.21205 0
M  V30 8966 C 1594.29 3.73047 5.97036 0
M  V30 8967 C 1593.58 2.58828 5.25741 0
M  V30 8968 N 1593.63 2.68068 3.77503 0
M  V30 8969 C 1593.55 3.79715 2.96723 0
M  V30 8970 N 1593.63 3.5377 1.68852 0
M  V30 8971 C 1593.77 2.15054 1.63254 0
M  V30 8972 C 1593.9 1.28964 0.518571 0
M  V30 8973 O 1593.92 1.56826 -0.679156 0
M  V30 8974 N 1594.02 -0.0538097 0.918425 0
M  V30 8975 C 1594.02 -0.494275 2.22578 0
M  V30 8976 N 1594.15 -1.81086 2.40434 0
M  V30 8977 N 1593.89 0.313645 3.27502 0
M  V30 8978 C 1593.77 1.61829 2.91033 0
M  V30 8979 H 1590.79 5.40332 6.79951 0
M  V30 8980 H 1590.52 4.41613 5.32378 0
M  V30 8981 H 1591.39 3.26331 7.47797 0
M  V30 8982 H 1594.04 1.63422 5.56814 0
M  V30 8983 H 1594.32 4.63374 5.34244 0
M  V30 8984 H 1595.31 3.44728 6.25838 0
M  V30 8985 H 1593.48 4.96652 7.57263 0
M  V30 8986 H 1593.43 4.80617 3.3614 0
M  V30 8987 H 1594.11 -0.742702 0.199384 0
M  V30 8988 H 1594.15 -2.20598 3.35588 0
M  V30 8989 H 1594.25 -2.43518 1.58945 0
M  V30 8990 P 1595.35 2.75334 8.47391 0
M  V30 8991 O 1595.57 2.44571 9.90142 0
M  V30 8992 O 1596.14 3.87688 7.92115 0
M  V30 8993 O 1595.6 1.4459 7.59357 0
M  V30 8994 C 1594.66 0.347608 7.69215 0
M  V30 8995 C 1595.39 -0.96767 7.52806 0
M  V30 8996 O 1595.6 -1.21036 6.1011 0
M  V30 8997 C 1596.79 -1.04544 8.13308 0
M  V30 8998 O 1597.18 -2.38311 8.41922 0
M  V30 8999 C 1597.67 -0.491279 7.02284 0
M  V30 9000 C 1596.96 -0.996264 5.77469 0
M  V30 9001 N 1597.01 -0.0501916 4.62973 0
M  V30 9002 H 1594.17 0.374722 8.67691 0
M  V30 9003 H 1593.9 0.443485 6.90277 0
M  V30 9004 H 1594.77 -1.75537 7.96793 0
M  V30 9005 P 1598.73 -2.75334 8.47391 0
M  V30 9006 O 1598.95 -3.84128 9.44797 0
M  V30 9007 O 1599.52 -1.51947 8.68712 0
M  V30 9008 O 1598.98 -3.29363 6.99321 0
M  V30 9009 C 1598.04 -4.24011 6.4274 0
M  V30 9010 C 1598.77 -5.20775 5.52155 0
M  V30 9011 O 1598.98 -4.56534 4.22446 0
M  V30 9012 C 1600.17 -5.62629 5.96531 0
M  V30 9013 O 1600.56 -6.87667 5.41053 0
M  V30 9014 C 1601.05 -4.52537 5.39283 0
M  V30 9015 C 1600.34 -4.20027 4.08623 0
M  V30 9016 N 1600.39 -2.76189 3.71603 0
M  V30 9017 C 1600.31 -1.64862 4.52822 0
M  V30 9018 N 1600.39 -0.512671 3.88633 0
M  V30 9019 C 1600.53 -0.888083 2.54977 0
M  V30 9020 C 1600.66 -0.094668 1.38677 0
M  V30 9021 O 1600.68 1.13053 1.28163 0
M  V30 9022 N 1600.78 -0.890102 0.232633 0
M  V30 9023 C 1600.78 -2.26958 0.21772 0
M  V30 9024 N 1600.91 -2.84626 -0.97925 0
M  V30 9025 N 1600.65 -3.0178 1.31033 0
M  V30 9026 C 1600.53 -2.26781 2.43843 0
M  V30 9027 H 1597.55 -4.797 7.24003 0
M  V30 9028 H 1597.28 -3.69856 5.84513 0
M  V30 9029 H 1598.15 -6.10356 5.41441 0
M  V30 9030 H 1600.8 -4.79061 3.27488 0
M  V30 9031 H 1601.08 -3.64906 6.05785 0
M  V30 9032 H 1602.07 -4.8868 5.2125 0
M  V30 9033 H 1600.24 -5.66726 7.06352 0
M  V30 9034 H 1600.19 -1.71169 5.60966 0
M  V30 9035 H 1600.87 -0.419134 -0.644739 0
M  V30 9036 H 1600.91 -3.87332 -1.06098 0
M  V30 9037 H 1601.01 -2.26417 -1.82483 0
M  V30 9038 P 1602.11 -7.20834 5.23717 0
M  V30 9039 O 1602.33 -8.66104 5.38572 0
M  V30 9040 O 1602.9 -6.33544 6.1349 0
M  V30 9041 O 1602.36 -6.7751 3.72168 0
M  V30 9042 C 1601.42 -7.20825 2.7076 0
M  V30 9043 C 1602.15 -7.45864 1.40599 0
M  V30 9044 O 1602.36 -6.17651 0.734225 0
M  V30 9045 C 1603.55 -8.05808 1.51899 0
M  V30 9046 O 1603.94 -8.74358 0.335205 0
M  V30 9047 C 1604.43 -6.83093 1.70294 0
M  V30 9048 C 1603.72 -5.79992 0.836974 0
M  V30 9049 N 1603.77 -4.41864 1.38293 0
M  V30 9050 H 1600.93 -8.13644 3.0377 0
M  V30 9051 H 1600.66 -6.42788 2.55485 0
M  V30 9052 H 1601.53 -8.12039 0.792769 0
M  V30 9053 P 1605.49 -8.91 4.0605e-12 0
M  V30 9054 O 1605.71 -10.1726 -0.733694 0
M  V30 9055 O 1606.28 -8.73148 1.23936 0
M  V30 9056 O 1605.74 -7.66872 -0.971405 0
M  V30 9057 C 1604.8 -7.42309 -2.04641 0
M  V30 9058 C 1605.53 -6.86059 -3.24661 0
M  V30 9059 O 1605.74 -5.42847 -3.03646 0
M  V30 9060 C 1606.93 -7.41196 -3.50753 0
M  V30 9061 O 1607.32 -7.27073 -4.86816 0
M  V30 9062 C 1607.81 -6.5273 -2.63741 0
M  V30 9063 C 1607.1 -5.1842 -2.73198 0
M  V30 9064 N 1607.15 -4.38762 -1.4784 0
M  V30 9065 H 1604.31 -8.36803 -2.32493 0
M  V30 9066 H 1604.04 -6.70197 -1.71129 0
M  V30 9067 H 1604.91 -7.03551 -4.13168 0
M  V30 9068 P 1608.87 -7.20834 -5.23717 0
M  V30 9069 O 1609.09 -7.79853 -6.57286 0
M  V30 9070 O 1609.66 -7.79239 -4.12957 0
M  V30 9071 O 1609.12 -5.63315 -5.29344 0
M  V30 9072 C 1608.18 -4.80255 -6.01876 0
M  V30 9073 C 1608.91 -3.64202 -6.65911 0
M  V30 9074 O 1609.12 -2.60694 -5.64732 0
M  V30 9075 C 1610.31 -3.93473 -7.1943 0
M  V30 9076 O 1610.7 -3.02071 -8.21205 0
M  V30 9077 C 1611.19 -3.73047 -5.97036 0
M  V30 9078 C 1610.48 -2.58828 -5.25741 0
M  V30 9079 N 1610.53 -2.68068 -3.77503 0
M  V30 9080 C 1610.45 -3.79715 -2.96723 0
M  V30 9081 N 1610.53 -3.5377 -1.68852 0
M  V30 9082 C 1610.67 -2.15054 -1.63254 0
M  V30 9083 C 1610.8 -1.28964 -0.518571 0
M  V30 9084 O 1610.82 -1.56826 0.679156 0
M  V30 9085 N 1610.92 0.0538097 -0.918425 0
M  V30 9086 C 1610.92 0.494275 -2.22578 0
M  V30 9087 N 1611.05 1.81086 -2.40434 0
M  V30 9088 N 1610.79 -0.313645 -3.27502 0
M  V30 9089 C 1610.67 -1.61829 -2.91033 0
M  V30 9090 H 1607.69 -5.40332 -6.79951 0
M  V30 9091 H 1607.42 -4.41613 -5.32378 0
M  V30 9092 H 1608.29 -3.26331 -7.47797 0
M  V30 9093 H 1610.94 -1.63422 -5.56814 0
M  V30 9094 H 1611.22 -4.63374 -5.34244 0
M  V30 9095 H 1612.21 -3.44728 -6.25838 0
M  V30 9096 H 1610.38 -4.96652 -7.57263 0
M  V30 9097 H 1610.33 -4.80617 -3.3614 0
M  V30 9098 H 1611.01 0.742702 -0.199384 0
M  V30 9099 H 1611.05 2.20598 -3.35588 0
M  V30 9100 H 1611.15 2.43518 -1.58945 0
M  V30 9101 P 1612.25 -2.75334 -8.47391 0
M  V30 9102 O 1612.47 -2.44571 -9.90142 0
M  V30 9103 O 1613.04 -3.87688 -7.92115 0
M  V30 9104 O 1612.5 -1.4459 -7.59357 0
M  V30 9105 C 1611.56 -0.347608 -7.69215 0
M  V30 9106 C 1612.29 0.96767 -7.52806 0
M  V30 9107 O 1612.5 1.21036 -6.1011 0
M  V30 9108 C 1613.69 1.04544 -8.13308 0
M  V30 9109 O 1614.08 2.38311 -8.41922 0
M  V30 9110 C 1614.57 0.491279 -7.02284 0
M  V30 9111 C 1613.86 0.996264 -5.77469 0
M  V30 9112 N 1613.91 0.0501916 -4.62973 0
M  V30 9113 C 1613.83 -1.32786 -4.63244 0
M  V30 9114 N 1613.91 -1.86957 -3.44545 0
M  V30 9115 C 1614.05 -0.780241 -2.58481 0
M  V30 9116 C 1614.18 -0.738536 -1.17757 0
M  V30 9117 N 1614.3 0.58337 -0.711393 0
M  V30 9118 C 1614.3 1.70816 -1.51017 0
M  V30 9119 N 1614.43 2.87826 -0.880757 0
M  V30 9120 N 1614.17 1.67126 -2.8339 0
M  V30 9121 C 1614.05 0.401421 -3.30572 0
M  V30 9122 H 1611.07 -0.374722 -8.67691 0
M  V30 9123 H 1610.8 -0.443485 -6.90277 0
M  V30 9124 H 1611.67 1.75537 -7.96793 0
M  V30 9125 P 1615.63 2.75334 -8.47391 0
M  V30 9126 O 1615.85 3.84128 -9.44797 0
M  V30 9127 O 1616.42 1.51947 -8.68712 0
M  V30 9128 O 1615.88 3.29363 -6.99321 0
M  V30 9129 C 1614.94 4.24011 -6.4274 0
M  V30 9130 C 1615.67 5.20775 -5.52155 0
M  V30 9131 O 1615.88 4.56534 -4.22446 0
M  V30 9132 C 1617.07 5.62629 -5.96531 0
M  V30 9133 O 1617.46 6.87667 -5.41053 0
M  V30 9134 C 1617.95 4.52537 -5.39283 0
M  V30 9135 C 1617.24 4.20027 -4.08623 0
M  V30 9136 N 1617.29 2.76189 -3.71603 0
M  V30 9137 H 1614.45 4.797 -7.24003 0
M  V30 9138 H 1614.18 3.69856 -5.84513 0
M  V30 9139 H 1615.05 6.10356 -5.41441 0
M  V30 9140 P 1619.01 7.20834 -5.23717 0
M  V30 9141 O 1619.23 8.66104 -5.38572 0
M  V30 9142 O 1619.8 6.33544 -6.1349 0
M  V30 9143 O 1619.26 6.7751 -3.72168 0
M  V30 9144 C 1618.32 7.20825 -2.7076 0
M  V30 9145 C 1619.05 7.45864 -1.40599 0
M  V30 9146 O 1619.26 6.17651 -0.734225 0
M  V30 9147 C 1620.45 8.05808 -1.51899 0
M  V30 9148 O 1620.84 8.74358 -0.335205 0
M  V30 9149 C 1621.33 6.83093 -1.70294 0
M  V30 9150 C 1620.62 5.79992 -0.836974 0
M  V30 9151 N 1620.67 4.41864 -1.38293 0
M  V30 9152 H 1617.83 8.13644 -3.0377 0
M  V30 9153 H 1617.56 6.42788 -2.55485 0
M  V30 9154 H 1618.43 8.12039 -0.792769 0
M  V30 9155 P 1622.39 8.91 -5.1695e-12 0
M  V30 9156 O 1622.61 10.1736 0.733766 0
M  V30 9157 O 1623.18 8.73247 -1.2395 0
M  V30 9158 O 1622.64 7.66872 0.971405 0
M  V30 9159 C 1621.7 7.42212 2.04614 0
M  V30 9160 C 1622.43 6.86059 3.24661 0
M  V30 9161 O 1622.64 5.42847 3.03646 0
M  V30 9162 C 1623.83 7.41196 3.50753 0
M  V30 9163 O 1624.22 7.27073 4.86816 0
M  V30 9164 C 1624.71 6.5273 2.63741 0
M  V30 9165 C 1624 5.1842 2.73198 0
M  V30 9166 N 1624.05 4.38668 1.47808 0
M  V30 9167 C 1624.2 3.02239 1.60048 0
M  V30 9168 O 1624.29 2.46459 2.67869 0
M  V30 9169 N 1624.24 2.32436 0.408571 0
M  V30 9170 C 1624.15 2.85471 -0.854993 0
M  V30 9171 C 1624 4.28918 -0.887335 0
M  V30 9172 C 1623.95 5.00349 0.255399 0
M  V30 9173 H 1621.21 8.36803 2.32493 0
M  V30 9174 H 1620.94 6.701 1.71105 0
M  V30 9175 H 1621.81 7.03551 4.13168 0
M  V30 9176 H 1624.46 4.59773 3.53894 0
M  V30 9177 H 1624.74 6.88995 1.59871 0
M  V30 9178 H 1625.73 6.46749 3.03687 0
M  V30 9179 H 1623.9 8.46908 3.20714 0
M  V30 9180 H 1623.83 6.08548 0.206986 0
M  V30 9181 P 1625.77 7.20834 5.23717 0
M  V30 9182 O 1625.99 7.79853 6.57286 0
M  V30 9183 O 1626.56 7.79239 4.12957 0
M  V30 9184 O 1626.02 5.63315 5.29344 0
M  V30 9185 C 1625.08 4.80255 6.01876 0
M  V30 9186 C 1625.81 3.64202 6.65911 0
M  V30 9187 O 1626.02 2.60694 5.64732 0
M  V30 9188 C 1627.21 3.93473 7.1943 0
M  V30 9189 O 1627.6 3.02071 8.21205 0
M  V30 9190 C 1628.09 3.73047 5.97036 0
M  V30 9191 C 1627.38 2.58828 5.25741 0
M  V30 9192 N 1627.43 2.68068 3.77503 0
M  V30 9193 C 1627.35 3.79715 2.96723 0
M  V30 9194 N 1627.43 3.5377 1.68852 0
M  V30 9195 C 1627.57 2.15054 1.63254 0
M  V30 9196 C 1627.7 1.28964 0.518571 0
M  V30 9197 O 1627.72 1.56826 -0.679156 0
M  V30 9198 N 1627.82 -0.0538097 0.918425 0
M  V30 9199 C 1627.82 -0.494275 2.22578 0
M  V30 9200 N 1627.95 -1.81086 2.40434 0
M  V30 9201 N 1627.69 0.313645 3.27502 0
M  V30 9202 C 1627.57 1.61829 2.91033 0
M  V30 9203 H 1624.59 5.40332 6.79951 0
M  V30 9204 H 1624.32 4.41613 5.32378 0
M  V30 9205 H 1625.19 3.26331 7.47797 0
M  V30 9206 H 1627.84 1.63422 5.56814 0
M  V30 9207 H 1628.12 4.63374 5.34244 0
M  V30 9208 H 1629.11 3.44728 6.25838 0
M  V30 9209 H 1627.28 4.96652 7.57263 0
M  V30 9210 H 1627.23 4.80617 3.3614 0
M  V30 9211 H 1627.91 -0.742702 0.199384 0
M  V30 9212 H 1627.95 -2.20598 3.35588 0
M  V30 9213 H 1628.05 -2.43518 1.58945 0
M  V30 9214 P 1629.15 2.75334 8.47391 0
M  V30 9215 O 1629.37 2.44571 9.90142 0
M  V30 9216 O 1629.94 3.87688 7.92115 0
M  V30 9217 O 1629.4 1.4459 7.59357 0
M  V30 9218 C 1628.46 0.347608 7.69215 0
M  V30 9219 C 1629.19 -0.96767 7.52806 0
M  V30 9220 O 1629.4 -1.21036 6.1011 0
M  V30 9221 C 1630.59 -1.04544 8.13308 0
M  V30 9222 O 1630.98 -2.38311 8.41922 0
M  V30 9223 C 1631.47 -0.491279 7.02284 0
M  V30 9224 C 1630.76 -0.996264 5.77469 0
M  V30 9225 N 1630.81 -0.0501916 4.62973 0
M  V30 9226 H 1627.97 0.374722 8.67691 0
M  V30 9227 H 1627.7 0.443485 6.90277 0
M  V30 9228 H 1628.57 -1.75537 7.96793 0
M  V30 9229 P 1632.53 -2.75334 8.47391 0
M  V30 9230 O 1632.75 -3.84128 9.44797 0
M  V30 9231 O 1633.32 -1.51947 8.68712 0
M  V30 9232 O 1632.78 -3.29363 6.99321 0
M  V30 9233 C 1631.84 -4.24011 6.4274 0
M  V30 9234 C 1632.57 -5.20775 5.52155 0
M  V30 9235 O 1632.78 -4.56534 4.22446 0
M  V30 9236 C 1633.97 -5.62629 5.96531 0
M  V30 9237 O 1634.36 -6.87667 5.41053 0
M  V30 9238 C 1634.85 -4.52537 5.39283 0
M  V30 9239 C 1634.14 -4.20027 4.08623 0
M  V30 9240 N 1634.19 -2.76189 3.71603 0
M  V30 9241 H 1631.35 -4.797 7.24003 0
M  V30 9242 H 1631.08 -3.69856 5.84513 0
M  V30 9243 H 1631.95 -6.10356 5.41441 0
M  V30 9244 P 1635.91 -7.20834 5.23717 0
M  V30 9245 O 1636.13 -8.66104 5.38572 0
M  V30 9246 O 1636.7 -6.33544 6.1349 0
M  V30 9247 O 1636.16 -6.7751 3.72168 0
M  V30 9248 C 1635.22 -7.20825 2.7076 0
M  V30 9249 C 1635.95 -7.45864 1.40599 0
M  V30 9250 O 1636.16 -6.17651 0.734225 0
M  V30 9251 C 1637.35 -8.05808 1.51899 0
M  V30 9252 O 1637.74 -8.74358 0.335205 0
M  V30 9253 C 1638.23 -6.83093 1.70294 0
M  V30 9254 C 1637.52 -5.79992 0.836974 0
M  V30 9255 N 1637.57 -4.41864 1.38293 0
M  V30 9256 H 1634.73 -8.13644 3.0377 0
M  V30 9257 H 1634.46 -6.42788 2.55485 0
M  V30 9258 H 1635.33 -8.12039 0.792769 0
M  V30 9259 P 1639.29 -8.91 6.2785e-12 0
M  V30 9260 O 1639.51 -10.1726 -0.733694 0
M  V30 9261 O 1640.08 -8.73148 1.23936 0
M  V30 9262 O 1639.54 -7.66872 -0.971405 0
M  V30 9263 C 1638.6 -7.42309 -2.04641 0
M  V30 9264 C 1639.33 -6.86059 -3.24661 0
M  V30 9265 O 1639.54 -5.42847 -3.03646 0
M  V30 9266 C 1640.73 -7.41196 -3.50753 0
M  V30 9267 O 1641.12 -7.27073 -4.86816 0
M  V30 9268 C 1641.61 -6.5273 -2.63741 0
M  V30 9269 C 1640.9 -5.1842 -2.73198 0
M  V30 9270 N 1640.95 -4.38762 -1.4784 0
M  V30 9271 H 1638.11 -8.36803 -2.32493 0
M  V30 9272 H 1637.84 -6.70197 -1.71129 0
M  V30 9273 H 1638.71 -7.03551 -4.13168 0
M  V30 9274 P 1642.67 -7.20834 -5.23717 0
M  V30 9275 O 1642.89 -7.79853 -6.57286 0
M  V30 9276 O 1643.46 -7.79239 -4.12957 0
M  V30 9277 O 1642.92 -5.63315 -5.29344 0
M  V30 9278 C 1641.98 -4.80255 -6.01876 0
M  V30 9279 C 1642.71 -3.64202 -6.65911 0
M  V30 9280 O 1642.92 -2.60694 -5.64732 0
M  V30 9281 C 1644.11 -3.93473 -7.1943 0
M  V30 9282 O 1644.5 -3.02071 -8.21205 0
M  V30 9283 C 1644.99 -3.73047 -5.97036 0
M  V30 9284 C 1644.28 -2.58828 -5.25741 0
M  V30 9285 N 1644.33 -2.68068 -3.77503 0
M  V30 9286 C 1644.25 -3.79715 -2.96723 0
M  V30 9287 N 1644.33 -3.5377 -1.68852 0
M  V30 9288 C 1644.47 -2.15054 -1.63254 0
M  V30 9289 C 1644.6 -1.28964 -0.518571 0
M  V30 9290 N 1644.72 0.0538097 -0.918425 0
M  V30 9291 C 1644.72 0.494275 -2.22578 0
M  V30 9292 N 1644.85 1.81086 -2.40434 0
M  V30 9293 N 1644.59 -0.313645 -3.27502 0
M  V30 9294 C 1644.47 -1.61829 -2.91033 0
M  V30 9295 H 1641.49 -5.40332 -6.79951 0
M  V30 9296 H 1641.22 -4.41613 -5.32378 0
M  V30 9297 H 1642.09 -3.26331 -7.47797 0
M  V30 9298 P 1646.05 -2.75334 -8.47391 0
M  V30 9299 O 1646.27 -2.44571 -9.90142 0
M  V30 9300 O 1646.84 -3.87688 -7.92115 0
M  V30 9301 O 1646.3 -1.4459 -7.59357 0
M  V30 9302 C 1645.36 -0.347608 -7.69215 0
M  V30 9303 C 1646.09 0.96767 -7.52806 0
M  V30 9304 O 1646.3 1.21036 -6.1011 0
M  V30 9305 C 1647.49 1.04544 -8.13308 0
M  V30 9306 O 1647.88 2.38311 -8.41922 0
M  V30 9307 C 1648.37 0.491279 -7.02284 0
M  V30 9308 C 1647.66 0.996264 -5.77469 0
M  V30 9309 N 1647.71 0.0501916 -4.62973 0
M  V30 9310 C 1647.63 -1.32786 -4.63244 0
M  V30 9311 N 1647.71 -1.86957 -3.44545 0
M  V30 9312 C 1647.85 -0.780241 -2.58481 0
M  V30 9313 C 1647.98 -0.738536 -1.17757 0
M  V30 9314 O 1648 -1.66794 -0.372349 0
M  V30 9315 N 1648.1 0.58337 -0.711393 0
M  V30 9316 C 1648.1 1.70816 -1.51017 0
M  V30 9317 N 1648.23 2.87826 -0.880757 0
M  V30 9318 N 1647.97 1.67126 -2.8339 0
M  V30 9319 C 1647.85 0.401421 -3.30572 0
M  V30 9320 H 1644.87 -0.374722 -8.67691 0
M  V30 9321 H 1644.6 -0.443485 -6.90277 0
M  V30 9322 H 1645.47 1.75537 -7.96793 0
M  V30 9323 H 1648.12 1.95076 -5.46529 0
M  V30 9324 H 1648.4 -0.608565 -7.04577 0
M  V30 9325 H 1649.39 0.889672 -7.08939 0
M  V30 9326 H 1647.56 0.43308 -9.04564 0
M  V30 9327 H 1647.51 -1.91249 -5.54442 0
M  V30 9328 H 1648.19 0.718054 0.275244 0
M  V30 9329 H 1648.23 3.75721 -1.41832 0
M  V30 9330 H 1648.33 2.90436 0.145468 0
M  V30 9331 P 1649.43 2.75334 -8.47391 0
M  V30 9332 O 1649.65 3.84128 -9.44797 0
M  V30 9333 O 1650.22 1.51947 -8.68712 0
M  V30 9334 O 1649.68 3.29363 -6.99321 0
M  V30 9335 C 1648.74 4.24011 -6.4274 0
M  V30 9336 C 1649.47 5.20775 -5.52155 0
M  V30 9337 O 1649.68 4.56534 -4.22446 0
M  V30 9338 C 1650.87 5.62629 -5.96531 0
M  V30 9339 O 1651.26 6.87667 -5.41053 0
M  V30 9340 C 1651.75 4.52537 -5.39283 0
M  V30 9341 C 1651.04 4.20027 -4.08623 0
M  V30 9342 N 1651.09 2.76189 -3.71603 0
M  V30 9343 H 1648.25 4.797 -7.24003 0
M  V30 9344 H 1647.98 3.69856 -5.84513 0
M  V30 9345 H 1648.85 6.10356 -5.41441 0
M  V30 9346 P 1652.81 7.20834 -5.23717 0
M  V30 9347 O 1653.03 8.66104 -5.38572 0
M  V30 9348 O 1653.6 6.33544 -6.1349 0
M  V30 9349 O 1653.06 6.7751 -3.72168 0
M  V30 9350 C 1652.12 7.20825 -2.7076 0
M  V30 9351 C 1652.85 7.45864 -1.40599 0
M  V30 9352 O 1653.06 6.17651 -0.734225 0
M  V30 9353 C 1654.25 8.05808 -1.51899 0
M  V30 9354 O 1654.64 8.74358 -0.335205 0
M  V30 9355 C 1655.13 6.83093 -1.70294 0
M  V30 9356 C 1654.42 5.79992 -0.836974 0
M  V30 9357 N 1654.47 4.41864 -1.38293 0
M  V30 9358 H 1651.63 8.13644 -3.0377 0
M  V30 9359 H 1651.36 6.42788 -2.55485 0
M  V30 9360 H 1652.23 8.12039 -0.792769 0
M  V30 9361 P 1656.19 8.91 -7.38751e-12 0
M  V30 9362 O 1656.41 10.1726 0.733694 0
M  V30 9363 O 1656.98 8.73148 -1.23936 0
M  V30 9364 O 1656.44 7.66872 0.971405 0
M  V30 9365 C 1655.5 7.42309 2.04641 0
M  V30 9366 C 1656.23 6.86059 3.24661 0
M  V30 9367 O 1656.44 5.42847 3.03646 0
M  V30 9368 C 1657.63 7.41196 3.50753 0
M  V30 9369 O 1658.02 7.27073 4.86816 0
M  V30 9370 C 1658.51 6.5273 2.63741 0
M  V30 9371 C 1657.8 5.1842 2.73198 0
M  V30 9372 N 1657.85 4.38762 1.4784 0
M  V30 9373 H 1655.01 8.36803 2.32493 0
M  V30 9374 H 1654.74 6.70197 1.71129 0
M  V30 9375 H 1655.61 7.03551 4.13168 0
M  V30 9376 P 1659.57 7.20834 5.23717 0
M  V30 9377 O 1659.79 7.79853 6.57286 0
M  V30 9378 O 1660.36 7.79239 4.12957 0
M  V30 9379 O 1659.82 5.63315 5.29344 0
M  V30 9380 C 1658.88 4.80255 6.01876 0
M  V30 9381 C 1659.61 3.64202 6.65911 0
M  V30 9382 O 1659.82 2.60694 5.64732 0
M  V30 9383 C 1661.01 3.93473 7.1943 0
M  V30 9384 O 1661.4 3.02071 8.21205 0
M  V30 9385 C 1661.89 3.73047 5.97036 0
M  V30 9386 C 1661.18 2.58828 5.25741 0
M  V30 9387 N 1661.23 2.68068 3.77503 0
M  V30 9388 H 1658.39 5.40332 6.79951 0
M  V30 9389 H 1658.12 4.41613 5.32378 0
M  V30 9390 H 1658.99 3.26331 7.47797 0
M  V30 9391 P 1662.95 2.75334 8.47391 0
M  V30 9392 O 1663.17 2.44571 9.90142 0
M  V30 9393 O 1663.74 3.87688 7.92115 0
M  V30 9394 O 1663.2 1.4459 7.59357 0
M  V30 9395 C 1662.26 0.347608 7.69215 0
M  V30 9396 C 1662.99 -0.96767 7.52806 0
M  V30 9397 O 1663.2 -1.21036 6.1011 0
M  V30 9398 C 1664.39 -1.04544 8.13308 0
M  V30 9399 O 1664.78 -2.38311 8.41922 0
M  V30 9400 C 1665.27 -0.491279 7.02284 0
M  V30 9401 C 1664.56 -0.996264 5.77469 0
M  V30 9402 N 1664.61 -0.0501916 4.62973 0
M  V30 9403 H 1661.77 0.374722 8.67691 0
M  V30 9404 H 1661.5 0.443485 6.90277 0
M  V30 9405 H 1662.37 -1.75537 7.96793 0
M  V30 9406 P 1666.33 -2.75334 8.47391 0
M  V30 9407 O 1666.55 -3.84128 9.44797 0
M  V30 9408 O 1667.12 -1.51947 8.68712 0
M  V30 9409 O 1666.58 -3.29363 6.99321 0
M  V30 9410 C 1665.64 -4.24011 6.4274 0
M  V30 9411 C 1666.37 -5.20775 5.52155 0
M  V30 9412 O 1666.58 -4.56534 4.22446 0
M  V30 9413 C 1667.77 -5.62629 5.96531 0
M  V30 9414 O 1668.16 -6.87667 5.41053 0
M  V30 9415 C 1668.65 -4.52537 5.39283 0
M  V30 9416 C 1667.94 -4.20027 4.08623 0
M  V30 9417 N 1667.99 -2.76189 3.71603 0
M  V30 9418 C 1667.91 -1.64862 4.52822 0
M  V30 9419 N 1667.99 -0.512671 3.88633 0
M  V30 9420 C 1668.13 -0.888083 2.54977 0
M  V30 9421 C 1668.26 -0.094668 1.38677 0
M  V30 9422 N 1668.38 -0.890102 0.232633 0
M  V30 9423 C 1668.38 -2.26958 0.21772 0
M  V30 9424 N 1668.51 -2.84626 -0.97925 0
M  V30 9425 N 1668.25 -3.0178 1.31033 0
M  V30 9426 C 1668.13 -2.26781 2.43843 0
M  V30 9427 H 1665.15 -4.797 7.24003 0
M  V30 9428 H 1664.88 -3.69856 5.84513 0
M  V30 9429 H 1665.75 -6.10356 5.41441 0
M  V30 9430 P 1669.71 -7.20834 5.23717 0
M  V30 9431 O 1669.93 -8.66104 5.38572 0
M  V30 9432 O 1670.5 -6.33544 6.1349 0
M  V30 9433 O 1669.96 -6.7751 3.72168 0
M  V30 9434 C 1669.02 -7.20825 2.7076 0
M  V30 9435 C 1669.75 -7.45864 1.40599 0
M  V30 9436 O 1669.96 -6.17651 0.734225 0
M  V30 9437 C 1671.15 -8.05808 1.51899 0
M  V30 9438 O 1671.54 -8.74358 0.335205 0
M  V30 9439 C 1672.03 -6.83093 1.70294 0
M  V30 9440 C 1671.32 -5.79992 0.836974 0
M  V30 9441 N 1671.37 -4.41864 1.38293 0
M  V30 9442 H 1668.53 -8.13644 3.0377 0
M  V30 9443 H 1668.26 -6.42788 2.55485 0
M  V30 9444 H 1669.13 -8.12039 0.792769 0
M  V30 9445 P 1673.09 -8.91 8.49651e-12 0
M  V30 9446 O 1673.31 -10.1746 -0.733838 0
M  V30 9447 O 1673.88 -8.73346 1.23964 0
M  V30 9448 O 1673.34 -7.66872 -0.971405 0
M  V30 9449 C 1672.4 -7.42405 -2.04668 0
M  V30 9450 C 1673.13 -6.86059 -3.24661 0
M  V30 9451 O 1673.34 -5.42934 -3.03695 0
M  V30 9452 C 1674.53 -7.41287 -3.50796 0
M  V30 9453 O 1674.92 -7.27073 -4.86816 0
M  V30 9454 C 1675.41 -6.5273 -2.63741 0
M  V30 9455 C 1674.7 -5.1842 -2.73198 0
M  V30 9456 N 1674.75 -4.38762 -1.4784 0
M  V30 9457 C 1674.67 -4.83651 -0.183876 0
M  V30 9458 N 1674.74 -3.88759 0.699393 0
M  V30 9459 C 1674.89 -2.7404 -0.0575568 0
M  V30 9460 C 1675.02 -1.37902 0.293928 0
M  V30 9461 N 1675.03 -0.938021 1.54797 0
M  V30 9462 N 1675.14 -0.491817 -0.70549 0
M  V30 9463 C 1675.13 -0.931735 -1.95979 0
M  V30 9464 N 1675.01 -2.16017 -2.41481 0
M  V30 9465 C 1674.89 -3.02547 -1.39121 0
M  V30 9466 H 1671.91 -8.36899 -2.3252 0
M  V30 9467 H 1671.64 -6.70391 -1.71179 0
M  V30 9468 H 1672.51 -7.03638 -4.13219 0
M  V30 9469 H 1675.16 -4.59931 -3.54016 0
M  V30 9470 H 1675.44 -6.88995 -1.59871 0
M  V30 9471 H 1676.43 -6.4684 -3.0373 0
M  V30 9472 H 1674.6 -8.47002 -3.20749 0
M  V30 9473 H 1674.56 -5.8885 0.0765548 0
M  V30 9474 H 1674.94 -1.60276 2.32875 0
M  V30 9475 H 1675.13 0.0699355 1.73859 0
M  V30 9476 H 1675.24 -0.165507 -2.71897 0
M  V30 9477 P 1676.47 -7.20834 -5.23717 0
M  V30 9478 O 1676.69 -7.79853 -6.57286 0
M  V30 9479 O 1677.26 -7.79239 -4.12957 0
M  V30 9480 O 1676.72 -5.63315 -5.29344 0
M  V30 9481 C 1675.78 -4.80255 -6.01876 0
M  V30 9482 C 1676.51 -3.64202 -6.65911 0
M  V30 9483 O 1676.72 -2.60694 -5.64732 0
M  V30 9484 C 1677.91 -3.93473 -7.1943 0
M  V30 9485 O 1678.3 -3.02071 -8.21205 0
M  V30 9486 C 1678.79 -3.73047 -5.97036 0
M  V30 9487 C 1678.08 -2.58828 -5.25741 0
M  V30 9488 N 1678.13 -2.68068 -3.77503 0
M  V30 9489 H 1675.29 -5.40332 -6.79951 0
M  V30 9490 H 1675.02 -4.41613 -5.32378 0
M  V30 9491 H 1675.89 -3.26331 -7.47797 0
M  V30 9492 P 1679.85 -2.75334 -8.47391 0
M  V30 9493 O 1680.07 -2.44619 -9.90336 0
M  V30 9494 O 1680.64 -3.87776 -7.92294 0
M  V30 9495 O 1680.1 -1.4459 -7.59357 0
M  V30 9496 C 1679.16 -0.347653 -7.69315 0
M  V30 9497 C 1679.89 0.96767 -7.52806 0
M  V30 9498 O 1680.1 1.21055 -6.10208 0
M  V30 9499 C 1681.29 1.04557 -8.13408 0
M  V30 9500 O 1681.68 2.38311 -8.41922 0
M  V30 9501 C 1682.17 0.491279 -7.02284 0
M  V30 9502 C 1681.46 0.996264 -5.77469 0
M  V30 9503 N 1681.51 0.0501916 -4.62973 0
M  V30 9504 H 1678.67 -0.374765 -8.67791 0
M  V30 9505 H 1678.4 -0.443613 -6.90476 0
M  V30 9506 H 1679.27 1.75559 -7.96891 0
M  V30 9507 H 1681.92 1.94563 -5.46818 0
M  V30 9508 H 1682.2 -0.608651 -7.04676 0
M  V30 9509 H 1683.19 0.889796 -7.09039 0
M  V30 9510 H 1681.36 0.433128 -9.04664 0
M  V30 9511 P 1683.23 2.75334 -8.47391 0
M  V30 9512 O 1683.45 3.84128 -9.44797 0
M  V30 9513 O 1684.02 1.51947 -8.68712 0
M  V30 9514 O 1683.48 3.29363 -6.99321 0
M  V30 9515 C 1682.54 4.24011 -6.4274 0
M  V30 9516 C 1683.27 5.20775 -5.52155 0
M  V30 9517 O 1683.48 4.56534 -4.22446 0
M  V30 9518 C 1684.67 5.62629 -5.96531 0
M  V30 9519 O 1685.06 6.87667 -5.41053 0
M  V30 9520 C 1685.55 4.52537 -5.39283 0
M  V30 9521 C 1684.84 4.20027 -4.08623 0
M  V30 9522 N 1684.89 2.76189 -3.71603 0
M  V30 9523 H 1682.05 4.797 -7.24003 0
M  V30 9524 H 1681.78 3.69856 -5.84513 0
M  V30 9525 H 1682.65 6.10356 -5.41441 0
M  V30 9526 P 1686.61 7.20834 -5.23717 0
M  V30 9527 O 1686.83 8.66104 -5.38572 0
M  V30 9528 O 1687.4 6.33544 -6.1349 0
M  V30 9529 O 1686.86 6.7751 -3.72168 0
M  V30 9530 C 1685.92 7.20825 -2.7076 0
M  V30 9531 C 1686.65 7.45864 -1.40599 0
M  V30 9532 O 1686.86 6.17651 -0.734225 0
M  V30 9533 C 1688.05 8.05808 -1.51899 0
M  V30 9534 O 1688.44 8.74358 -0.335205 0
M  V30 9535 C 1688.93 6.83093 -1.70294 0
M  V30 9536 C 1688.22 5.79992 -0.836974 0
M  V30 9537 N 1688.27 4.41864 -1.38293 0
M  V30 9538 H 1685.43 8.13644 -3.0377 0
M  V30 9539 H 1685.16 6.42788 -2.55485 0
M  V30 9540 H 1686.03 8.12039 -0.792769 0
M  V30 9541 P 1689.99 8.91 -9.60552e-12 0
M  V30 9542 O 1690.21 10.1726 0.733694 0
M  V30 9543 O 1690.78 8.73148 -1.23936 0
M  V30 9544 O 1690.24 7.66872 0.971405 0
M  V30 9545 C 1689.3 7.42309 2.04641 0
M  V30 9546 C 1690.03 6.86059 3.24661 0
M  V30 9547 O 1690.24 5.42847 3.03646 0
M  V30 9548 C 1691.43 7.41196 3.50753 0
M  V30 9549 O 1691.82 7.27073 4.86816 0
M  V30 9550 C 1692.31 6.5273 2.63741 0
M  V30 9551 C 1691.6 5.1842 2.73198 0
M  V30 9552 N 1691.65 4.38762 1.4784 0
M  V30 9553 H 1688.81 8.36803 2.32493 0
M  V30 9554 H 1688.54 6.70197 1.71129 0
M  V30 9555 H 1689.41 7.03551 4.13168 0
M  V30 9556 P 1693.37 7.20834 5.23717 0
M  V30 9557 O 1693.59 7.80006 6.57415 0
M  V30 9558 O 1694.16 7.79416 4.13051 0
M  V30 9559 O 1693.62 5.63315 5.29344 0
M  V30 9560 C 1692.68 4.80318 6.01954 0
M  V30 9561 C 1693.41 3.64202 6.65911 0
M  V30 9562 O 1693.62 2.60736 5.64823 0
M  V30 9563 C 1694.81 3.93521 7.19518 0
M  V30 9564 O 1695.2 3.02071 8.21205 0
M  V30 9565 C 1695.69 3.73047 5.97036 0
M  V30 9566 C 1694.98 2.58828 5.25741 0
M  V30 9567 N 1695.03 2.68068 3.77503 0
M  V30 9568 H 1692.19 5.40394 6.8003 0
M  V30 9569 H 1691.92 4.41741 5.32532 0
M  V30 9570 H 1692.79 3.26371 7.47889 0
M  V30 9571 H 1695.44 1.64007 5.56746 0
M  V30 9572 H 1695.72 4.63439 5.3432 0
M  V30 9573 H 1696.71 3.44776 6.25925 0
M  V30 9574 H 1694.88 4.96707 7.57347 0
M  V30 9575 P 1696.75 2.75334 8.47391 0
M  V30 9576 O 1696.97 2.44571 9.90142 0
M  V30 9577 O 1697.54 3.87688 7.92115 0
M  V30 9578 O 1697 1.4459 7.59357 0
M  V30 9579 C 1696.06 0.347608 7.69215 0
M  V30 9580 C 1696.79 -0.96767 7.52806 0
M  V30 9581 O 1697 -1.21036 6.1011 0
M  V30 9582 C 1698.19 -1.04544 8.13308 0
M  V30 9583 O 1698.58 -2.38311 8.41922 0
M  V30 9584 C 1699.07 -0.491279 7.02284 0
M  V30 9585 C 1698.36 -0.996264 5.77469 0
M  V30 9586 N 1698.41 -0.0501916 4.62973 0
M  V30 9587 H 1695.57 0.374722 8.67691 0
M  V30 9588 H 1695.3 0.443485 6.90277 0
M  V30 9589 H 1696.17 -1.75537 7.96793 0
M  V30 9590 P 1700.13 -2.75334 8.47391 0
M  V30 9591 O 1700.35 -3.84128 9.44797 0
M  V30 9592 O 1700.92 -1.51947 8.68712 0
M  V30 9593 O 1700.38 -3.29363 6.99321 0
M  V30 9594 C 1699.44 -4.24011 6.4274 0
M  V30 9595 C 1700.17 -5.20775 5.52155 0
M  V30 9596 O 1700.38 -4.56534 4.22446 0
M  V30 9597 C 1701.57 -5.62629 5.96531 0
M  V30 9598 O 1701.96 -6.87667 5.41053 0
M  V30 9599 C 1702.45 -4.52537 5.39283 0
M  V30 9600 C 1701.74 -4.20027 4.08623 0
M  V30 9601 N 1701.79 -2.76189 3.71603 0
M  V30 9602 H 1698.95 -4.797 7.24003 0
M  V30 9603 H 1698.68 -3.69856 5.84513 0
M  V30 9604 H 1699.55 -6.10356 5.41441 0
M  V30 9605 P 1703.51 -7.20834 5.23717 0
M  V30 9606 O 1703.73 -8.66274 5.38678 0
M  V30 9607 O 1704.3 -6.33687 6.13629 0
M  V30 9608 O 1703.76 -6.7751 3.72168 0
M  V30 9609 C 1702.82 -7.20919 2.70795 0
M  V30 9610 C 1703.55 -7.45864 1.40599 0
M  V30 9611 O 1703.76 -6.17751 0.734343 0
M  V30 9612 C 1704.95 -8.05906 1.51917 0
M  V30 9613 O 1705.34 -8.74358 0.335205 0
M  V30 9614 C 1705.83 -6.83093 1.70294 0
M  V30 9615 C 1705.12 -5.79992 0.836974 0
M  V30 9616 N 1705.17 -4.41864 1.38293 0
M  V30 9617 C 1705.09 -4.02089 2.69407 0
M  V30 9618 N 1705.16 -2.73403 2.85089 0
M  V30 9619 C 1705.31 -2.25086 1.5642 0
M  V30 9620 C 1705.44 -0.942887 1.04836 0
M  V30 9621 N 1705.45 0.150999 1.80369 0
M  V30 9622 N 1705.56 -0.812565 -0.28167 0
M  V30 9623 C 1705.55 -1.90572 -1.03784 0
M  V30 9624 N 1705.43 -3.167 -0.683905 0
M  V30 9625 C 1705.31 -3.26538 0.652815 0
M  V30 9626 H 1702.33 -8.13738 3.03804 0
M  V30 9627 H 1702.06 -6.42974 2.55559 0
M  V30 9628 H 1702.93 -8.12139 0.792866 0
M  V30 9629 H 1705.58 -5.80178 -0.160643 0
M  V30 9630 H 1705.86 -6.51379 2.75643 0
M  V30 9631 H 1706.85 -7.01832 1.3448 0
M  V30 9632 H 1705.02 -8.73771 2.38364 0
M  V30 9633 H 1704.98 -4.7189 3.52311 0
M  V30 9634 H 1705.36 0.0721434 2.82608 0
M  V30 9635 H 1705.55 1.0785 1.36544 0
M  V30 9636 H 1705.66 -1.73207 -2.10241 0
M  V30 9637 P 1706.89 -8.91 1.07145e-11 0
M  V30 9638 O 1707.11 -10.1726 -0.733694 0
M  V30 9639 O 1707.68 -8.73148 1.23936 0
M  V30 9640 O 1707.14 -7.66872 -0.971405 0
M  V30 9641 C 1706.2 -7.42309 -2.04641 0
M  V30 9642 C 1706.93 -6.86059 -3.24661 0
M  V30 9643 O 1707.14 -5.42847 -3.03646 0
M  V30 9644 C 1708.33 -7.41196 -3.50753 0
M  V30 9645 O 1708.72 -7.27073 -4.86816 0
M  V30 9646 C 1709.21 -6.5273 -2.63741 0
M  V30 9647 C 1708.5 -5.1842 -2.73198 0
M  V30 9648 N 1708.55 -4.38762 -1.4784 0
M  V30 9649 H 1705.71 -8.36803 -2.32493 0
M  V30 9650 H 1705.44 -6.70197 -1.71129 0
M  V30 9651 H 1706.31 -7.03551 -4.13168 0
M  V30 9652 P 1710.27 -7.20834 -5.23717 0
M  V30 9653 O 1710.49 -7.79853 -6.57286 0
M  V30 9654 O 1711.06 -7.79239 -4.12957 0
M  V30 9655 O 1710.52 -5.63315 -5.29344 0
M  V30 9656 C 1709.58 -4.80255 -6.01876 0
M  V30 9657 C 1710.31 -3.64202 -6.65911 0
M  V30 9658 O 1710.52 -2.60694 -5.64732 0
M  V30 9659 C 1711.71 -3.93473 -7.1943 0
M  V30 9660 O 1712.1 -3.02071 -8.21205 0
M  V30 9661 C 1712.59 -3.73047 -5.97036 0
M  V30 9662 C 1711.88 -2.58828 -5.25741 0
M  V30 9663 N 1711.93 -2.68068 -3.77503 0
M  V30 9664 H 1709.09 -5.40332 -6.79951 0
M  V30 9665 H 1708.82 -4.41613 -5.32378 0
M  V30 9666 H 1709.69 -3.26331 -7.47797 0
M  V30 9667 P 1713.65 -2.75334 -8.47391 0
M  V30 9668 O 1713.87 -2.44571 -9.90142 0
M  V30 9669 O 1714.44 -3.87688 -7.92115 0
M  V30 9670 O 1713.9 -1.4459 -7.59357 0
M  V30 9671 C 1712.96 -0.347608 -7.69215 0
M  V30 9672 C 1713.69 0.96767 -7.52806 0
M  V30 9673 O 1713.9 1.21036 -6.1011 0
M  V30 9674 C 1715.09 1.04544 -8.13308 0
M  V30 9675 O 1715.48 2.38311 -8.41922 0
M  V30 9676 C 1715.97 0.491279 -7.02284 0
M  V30 9677 C 1715.26 0.996264 -5.77469 0
M  V30 9678 N 1715.31 0.0501916 -4.62973 0
M  V30 9679 H 1712.47 -0.374722 -8.67691 0
M  V30 9680 H 1712.2 -0.443485 -6.90277 0
M  V30 9681 H 1713.07 1.75537 -7.96793 0
M  V30 9682 P 1717.03 2.75334 -8.47391 0
M  V30 9683 O 1717.25 3.84128 -9.44797 0
M  V30 9684 O 1717.82 1.51947 -8.68712 0
M  V30 9685 O 1717.28 3.29363 -6.99321 0
M  V30 9686 C 1716.34 4.24011 -6.4274 0
M  V30 9687 C 1717.07 5.20775 -5.52155 0
M  V30 9688 O 1717.28 4.56534 -4.22446 0
M  V30 9689 C 1718.47 5.62629 -5.96531 0
M  V30 9690 O 1718.86 6.87667 -5.41053 0
M  V30 9691 C 1719.35 4.52537 -5.39283 0
M  V30 9692 C 1718.64 4.20027 -4.08623 0
M  V30 9693 N 1718.69 2.76189 -3.71603 0
M  V30 9694 H 1715.85 4.797 -7.24003 0
M  V30 9695 H 1715.58 3.69856 -5.84513 0
M  V30 9696 H 1716.45 6.10356 -5.41441 0
M  V30 9697 P 1720.41 7.20834 -5.23717 0
M  V30 9698 O 1720.63 8.66104 -5.38572 0
M  V30 9699 O 1721.2 6.33544 -6.1349 0
M  V30 9700 O 1720.66 6.7751 -3.72168 0
M  V30 9701 C 1719.72 7.20825 -2.7076 0
M  V30 9702 C 1720.45 7.45864 -1.40599 0
M  V30 9703 O 1720.66 6.17651 -0.734225 0
M  V30 9704 C 1721.85 8.05808 -1.51899 0
M  V30 9705 O 1722.24 8.74358 -0.335205 0
M  V30 9706 C 1722.73 6.83093 -1.70294 0
M  V30 9707 C 1722.02 5.79992 -0.836974 0
M  V30 9708 N 1722.07 4.41864 -1.38293 0
M  V30 9709 H 1719.23 8.13644 -3.0377 0
M  V30 9710 H 1718.96 6.42788 -2.55485 0
M  V30 9711 H 1719.83 8.12039 -0.792769 0
M  V30 9712 P 1723.79 8.91 -1.18235e-11 0
M  V30 9713 O 1724.01 10.1726 0.733694 0
M  V30 9714 O 1724.58 8.73148 -1.23936 0
M  V30 9715 O 1724.04 7.66872 0.971405 0
M  V30 9716 C 1723.1 7.42309 2.04641 0
M  V30 9717 C 1723.83 6.86059 3.24661 0
M  V30 9718 O 1724.04 5.42847 3.03646 0
M  V30 9719 C 1725.23 7.41196 3.50753 0
M  V30 9720 O 1725.62 7.27073 4.86816 0
M  V30 9721 C 1726.11 6.5273 2.63741 0
M  V30 9722 C 1725.4 5.1842 2.73198 0
M  V30 9723 N 1725.45 4.38762 1.4784 0
M  V30 9724 H 1722.61 8.36803 2.32493 0
M  V30 9725 H 1722.34 6.70197 1.71129 0
M  V30 9726 H 1723.21 7.03551 4.13168 0
M  V30 9727 P 1727.17 7.20834 5.23717 0
M  V30 9728 O 1727.39 7.79853 6.57286 0
M  V30 9729 O 1727.96 7.79239 4.12957 0
M  V30 9730 O 1727.42 5.63315 5.29344 0
M  V30 9731 C 1726.48 4.80255 6.01876 0
M  V30 9732 C 1727.21 3.64202 6.65911 0
M  V30 9733 O 1727.42 2.60694 5.64732 0
M  V30 9734 C 1728.61 3.93473 7.1943 0
M  V30 9735 O 1729 3.02071 8.21205 0
M  V30 9736 C 1729.49 3.73047 5.97036 0
M  V30 9737 C 1728.78 2.58828 5.25741 0
M  V30 9738 N 1728.83 2.68068 3.77503 0
M  V30 9739 H 1725.99 5.40332 6.79951 0
M  V30 9740 H 1725.72 4.41613 5.32378 0
M  V30 9741 H 1726.59 3.26331 7.47797 0
M  V30 9742 P 1730.55 2.75334 8.47391 0
M  V30 9743 O 1730.77 2.44571 9.90142 0
M  V30 9744 O 1731.34 3.87688 7.92115 0
M  V30 9745 O 1730.8 1.4459 7.59357 0
M  V30 9746 C 1729.86 0.347608 7.69215 0
M  V30 9747 C 1730.59 -0.96767 7.52806 0
M  V30 9748 O 1730.8 -1.21036 6.1011 0
M  V30 9749 C 1731.99 -1.04544 8.13308 0
M  V30 9750 O 1732.38 -2.38311 8.41922 0
M  V30 9751 C 1732.87 -0.491279 7.02284 0
M  V30 9752 C 1732.16 -0.996264 5.77469 0
M  V30 9753 N 1732.21 -0.0501916 4.62973 0
M  V30 9754 H 1729.37 0.374722 8.67691 0
M  V30 9755 H 1729.1 0.443485 6.90277 0
M  V30 9756 H 1729.97 -1.75537 7.96793 0
M  V30 9757 P 1733.93 -2.75334 8.47391 0
M  V30 9758 O 1734.15 -3.84128 9.44797 0
M  V30 9759 O 1734.72 -1.51947 8.68712 0
M  V30 9760 O 1734.18 -3.29363 6.99321 0
M  V30 9761 C 1733.24 -4.24011 6.4274 0
M  V30 9762 C 1733.97 -5.20775 5.52155 0
M  V30 9763 O 1734.18 -4.56534 4.22446 0
M  V30 9764 C 1735.37 -5.62629 5.96531 0
M  V30 9765 O 1735.76 -6.87667 5.41053 0
M  V30 9766 C 1736.25 -4.52537 5.39283 0
M  V30 9767 C 1735.54 -4.20027 4.08623 0
M  V30 9768 N 1735.59 -2.76189 3.71603 0
M  V30 9769 H 1732.75 -4.797 7.24003 0
M  V30 9770 H 1732.48 -3.69856 5.84513 0
M  V30 9771 H 1733.35 -6.10356 5.41441 0
M  V30 9772 P 1737.31 -7.20834 5.23717 0
M  V30 9773 O 1737.53 -8.66104 5.38572 0
M  V30 9774 O 1738.1 -6.33544 6.1349 0
M  V30 9775 O 1737.56 -6.7751 3.72168 0
M  V30 9776 C 1736.62 -7.20825 2.7076 0
M  V30 9777 C 1737.35 -7.45864 1.40599 0
M  V30 9778 O 1737.56 -6.17651 0.734225 0
M  V30 9779 C 1738.75 -8.05808 1.51899 0
M  V30 9780 O 1739.14 -8.74358 0.335205 0
M  V30 9781 C 1739.63 -6.83093 1.70294 0
M  V30 9782 C 1738.92 -5.79992 0.836974 0
M  V30 9783 N 1738.97 -4.41864 1.38293 0
M  V30 9784 C 1738.89 -3.99538 2.69438 0
M  V30 9785 N 1738.97 -2.69909 2.84277 0
M  V30 9786 C 1739.11 -2.21719 1.5408 0
M  V30 9787 C 1739.24 -0.891712 1.06628 0
M  V30 9788 O 1739.26 0.161298 1.70137 0
M  V30 9789 N 1739.36 -0.856846 -0.334985 0
M  V30 9790 C 1739.36 -1.9641 -1.15789 0
M  V30 9791 N 1739.49 -1.72708 -2.46522 0
M  V30 9792 N 1739.23 -3.21165 -0.713741 0
M  V30 9793 C 1739.11 -3.26797 0.639748 0
M  V30 9794 H 1736.13 -8.13644 3.0377 0
M  V30 9795 H 1735.86 -6.42788 2.55485 0
M  V30 9796 H 1736.73 -8.12039 0.792769 0
M  V30 9797 H 1739.38 -5.80061 -0.166416 0
M  V30 9798 H 1739.66 -6.51287 2.75604 0
M  V30 9799 H 1740.65 -7.01734 1.34462 0
M  V30 9800 H 1738.82 -8.73674 2.38337 0
M  V30 9801 H 1738.77 -4.68207 3.53221 0
M  V30 9802 H 1739.45 0.0398818 -0.767965 0
M  V30 9803 H 1739.49 -2.50995 -3.13503 0
M  V30 9804 H 1739.59 -0.759148 -2.80716 0
M  V30 9805 P 1740.69 -8.91 1.29325e-11 0
M  V30 9806 O 1740.91 -10.1726 -0.733694 0
M  V30 9807 O 1741.48 -8.73148 1.23936 0
M  V30 9808 O 1740.94 -7.66872 -0.971405 0
M  V30 9809 C 1740 -7.42309 -2.04641 0
M  V30 9810 C 1740.73 -6.86059 -3.24661 0
M  V30 9811 O 1740.94 -5.42847 -3.03646 0
M  V30 9812 C 1742.13 -7.41196 -3.50753 0
M  V30 9813 O 1742.52 -7.27073 -4.86816 0
M  V30 9814 C 1743.01 -6.5273 -2.63741 0
M  V30 9815 C 1742.3 -5.1842 -2.73198 0
M  V30 9816 N 1742.35 -4.38762 -1.4784 0
M  V30 9817 H 1739.51 -8.36803 -2.32493 0
M  V30 9818 H 1739.24 -6.70197 -1.71129 0
M  V30 9819 H 1740.11 -7.03551 -4.13168 0
M  V30 9820 P 1744.07 -7.20834 -5.23717 0
M  V30 9821 O 1744.29 -7.79853 -6.57286 0
M  V30 9822 O 1744.86 -7.79239 -4.12957 0
M  V30 9823 O 1744.32 -5.63315 -5.29344 0
M  V30 9824 C 1743.38 -4.80255 -6.01876 0
M  V30 9825 C 1744.11 -3.64202 -6.65911 0
M  V30 9826 O 1744.32 -2.60694 -5.64732 0
M  V30 9827 C 1745.51 -3.93473 -7.1943 0
M  V30 9828 O 1745.9 -3.02071 -8.21205 0
M  V30 9829 C 1746.39 -3.73047 -5.97036 0
M  V30 9830 C 1745.68 -2.58828 -5.25741 0
M  V30 9831 N 1745.73 -2.68068 -3.77503 0
M  V30 9832 H 1742.89 -5.40332 -6.79951 0
M  V30 9833 H 1742.62 -4.41613 -5.32378 0
M  V30 9834 H 1743.49 -3.26331 -7.47797 0
M  V30 9835 P 1747.45 -2.75334 -8.47391 0
M  V30 9836 O 1747.67 -2.44595 -9.90239 0
M  V30 9837 O 1748.24 -3.87732 -7.92204 0
M  V30 9838 O 1747.7 -1.4459 -7.59357 0
M  V30 9839 C 1746.76 -0.347563 -7.69115 0
M  V30 9840 C 1747.49 0.96767 -7.52806 0
M  V30 9841 O 1747.7 1.21036 -6.1011 0
M  V30 9842 C 1748.89 1.04544 -8.13308 0
M  V30 9843 O 1749.28 2.38311 -8.41922 0
M  V30 9844 C 1749.77 0.491279 -7.02284 0
M  V30 9845 C 1749.06 0.996264 -5.77469 0
M  V30 9846 N 1749.11 0.0501808 -4.62873 0
M  V30 9847 C 1749.26 0.588177 -3.36904 0
M  V30 9848 O 1749.35 1.78598 -3.17173 0
M  V30 9849 N 1749.3 -0.329694 -2.33686 0
M  V30 9850 C 1749.21 -1.6953 -2.45079 0
M  V30 9851 C 1749.06 -2.16933 -3.80505 0
M  V30 9852 C 1749.01 -1.30326 -4.83752 0
M  V30 9853 H 1746.27 -0.374722 -8.67691 0
M  V30 9854 H 1746 -0.443421 -6.90177 0
M  V30 9855 H 1746.87 1.75537 -7.96793 0
M  V30 9856 H 1749.52 1.94496 -5.46629 0
M  V30 9857 H 1749.8 -0.608651 -7.04676 0
M  V30 9858 H 1750.79 0.889672 -7.08939 0
M  V30 9859 H 1748.96 0.43308 -9.04564 0
M  V30 9860 H 1748.89 -1.68366 -5.8516 0
M  V30 9861 P 1750.83 2.75334 -8.47391 0
M  V30 9862 O 1751.05 3.84128 -9.44797 0
M  V30 9863 O 1751.62 1.51947 -8.68712 0
M  V30 9864 O 1751.08 3.29363 -6.99321 0
M  V30 9865 C 1750.14 4.24011 -6.4274 0
M  V30 9866 C 1750.87 5.20775 -5.52155 0
M  V30 9867 O 1751.08 4.56534 -4.22446 0
M  V30 9868 C 1752.27 5.62629 -5.96531 0
M  V30 9869 O 1752.66 6.87667 -5.41053 0
M  V30 9870 C 1753.15 4.52537 -5.39283 0
M  V30 9871 C 1752.44 4.20027 -4.08623 0
M  V30 9872 N 1752.49 2.76189 -3.71603 0
M  V30 9873 H 1749.65 4.797 -7.24003 0
M  V30 9874 H 1749.38 3.69856 -5.84513 0
M  V30 9875 H 1750.25 6.10356 -5.41441 0
M  V30 9876 P 1754.21 7.20834 -5.23717 0
M  V30 9877 O 1754.43 8.66104 -5.38572 0
M  V30 9878 O 1755 6.33544 -6.1349 0
M  V30 9879 O 1754.46 6.7751 -3.72168 0
M  V30 9880 C 1753.52 7.20825 -2.7076 0
M  V30 9881 C 1754.25 7.45864 -1.40599 0
M  V30 9882 O 1754.46 6.17651 -0.734225 0
M  V30 9883 C 1755.65 8.05808 -1.51899 0
M  V30 9884 O 1756.04 8.74358 -0.335205 0
M  V30 9885 C 1756.53 6.83093 -1.70294 0
M  V30 9886 C 1755.82 5.79992 -0.836974 0
M  V30 9887 N 1755.87 4.41864 -1.38293 0
M  V30 9888 H 1753.03 8.13644 -3.0377 0
M  V30 9889 H 1752.76 6.42788 -2.55485 0
M  V30 9890 H 1753.63 8.12039 -0.792769 0
M  V30 9891 P 1757.59 8.91 -1.40415e-11 0
M  V30 9892 O 1757.81 10.1726 0.733694 0
M  V30 9893 O 1758.38 8.73148 -1.23936 0
M  V30 9894 O 1757.84 7.66872 0.971405 0
M  V30 9895 C 1756.9 7.42309 2.04641 0
M  V30 9896 C 1757.63 6.86059 3.24661 0
M  V30 9897 O 1757.84 5.42847 3.03646 0
M  V30 9898 C 1759.03 7.41196 3.50753 0
M  V30 9899 O 1759.42 7.27073 4.86816 0
M  V30 9900 C 1759.91 6.5273 2.63741 0
M  V30 9901 C 1759.2 5.1842 2.73198 0
M  V30 9902 N 1759.25 4.38762 1.4784 0
M  V30 9903 H 1756.41 8.36803 2.32493 0
M  V30 9904 H 1756.14 6.70197 1.71129 0
M  V30 9905 H 1757.01 7.03551 4.13168 0
M  V30 9906 P 1760.97 7.20834 5.23717 0
M  V30 9907 O 1761.19 7.7993 6.57351 0
M  V30 9908 O 1761.76 7.79328 4.13004 0
M  V30 9909 O 1761.22 5.63315 5.29344 0
M  V30 9910 C 1760.28 4.80193 6.01798 0
M  V30 9911 C 1761.01 3.64202 6.65911 0
M  V30 9912 O 1761.22 2.60694 5.64732 0
M  V30 9913 C 1762.41 3.93473 7.1943 0
M  V30 9914 O 1762.8 3.02071 8.21205 0
M  V30 9915 C 1763.29 3.73047 5.97036 0
M  V30 9916 C 1762.58 2.58828 5.25741 0
M  V30 9917 N 1762.63 2.6801 3.77422 0
M  V30 9918 C 1762.78 1.50443 3.07133 0
M  V30 9919 O 1762.87 0.419406 3.61576 0
M  V30 9920 N 1762.82 1.6403 1.69677 0
M  V30 9921 C 1762.73 2.81206 0.986255 0
M  V30 9922 C 1762.58 3.99158 1.80325 0
M  V30 9923 C 1762.53 3.89779 3.1476 0
M  V30 9924 H 1759.79 5.40332 6.79951 0
M  V30 9925 H 1759.52 4.41549 5.32301 0
M  V30 9926 H 1760.39 3.26331 7.47797 0
M  V30 9927 H 1763.04 1.6395 5.56554 0
M  V30 9928 H 1763.32 4.63439 5.3432 0
M  V30 9929 H 1764.31 3.44728 6.25838 0
M  V30 9930 H 1762.48 4.96652 7.57263 0
M  V30 9931 H 1762.41 4.80159 3.74441 0
M  V30 9932 P 1764.35 2.75334 8.47391 0
M  V30 9933 O 1764.57 2.44571 9.90142 0
M  V30 9934 O 1765.14 3.87688 7.92115 0
M  V30 9935 O 1764.6 1.4459 7.59357 0
M  V30 9936 C 1763.66 0.347608 7.69215 0
M  V30 9937 C 1764.39 -0.96767 7.52806 0
M  V30 9938 O 1764.6 -1.21036 6.1011 0
M  V30 9939 C 1765.79 -1.04544 8.13308 0
M  V30 9940 O 1766.18 -2.38311 8.41922 0
M  V30 9941 C 1766.67 -0.491279 7.02284 0
M  V30 9942 C 1765.96 -0.996264 5.77469 0
M  V30 9943 N 1766.01 -0.0501916 4.62973 0
M  V30 9944 H 1763.17 0.374722 8.67691 0
M  V30 9945 H 1762.9 0.443485 6.90277 0
M  V30 9946 H 1763.77 -1.75537 7.96793 0
M  V30 9947 P 1767.73 -2.75334 8.47391 0
M  V30 9948 O 1767.95 -3.84128 9.44797 0
M  V30 9949 O 1768.52 -1.51947 8.68712 0
M  V30 9950 O 1767.98 -3.29363 6.99321 0
M  V30 9951 C 1767.04 -4.24011 6.4274 0
M  V30 9952 C 1767.77 -5.20775 5.52155 0
M  V30 9953 O 1767.98 -4.56534 4.22446 0
M  V30 9954 C 1769.17 -5.62629 5.96531 0
M  V30 9955 O 1769.56 -6.87667 5.41053 0
M  V30 9956 C 1770.05 -4.52537 5.39283 0
M  V30 9957 C 1769.34 -4.20027 4.08623 0
M  V30 9958 N 1769.39 -2.76189 3.71603 0
M  V30 9959 H 1766.55 -4.797 7.24003 0
M  V30 9960 H 1766.28 -3.69856 5.84513 0
M  V30 9961 H 1767.15 -6.10356 5.41441 0
M  V30 9962 P 1771.11 -7.20834 5.23717 0
M  V30 9963 O 1771.33 -8.66104 5.38572 0
M  V30 9964 O 1771.9 -6.33544 6.1349 0
M  V30 9965 O 1771.36 -6.7751 3.72168 0
M  V30 9966 C 1770.42 -7.20825 2.7076 0
M  V30 9967 C 1771.15 -7.45864 1.40599 0
M  V30 9968 O 1771.36 -6.17651 0.734225 0
M  V30 9969 C 1772.55 -8.05808 1.51899 0
M  V30 9970 O 1772.94 -8.74358 0.335205 0
M  V30 9971 C 1773.43 -6.83093 1.70294 0
M  V30 9972 C 1772.72 -5.79992 0.836974 0
M  V30 9973 N 1772.77 -4.41864 1.38293 0
M  V30 9974 H 1769.93 -8.13644 3.0377 0
M  V30 9975 H 1769.66 -6.42788 2.55485 0
M  V30 9976 H 1770.53 -8.12039 0.792769 0
M  V30 9977 P 1774.49 -8.91 1.51505e-11 0
M  V30 9978 O 1774.71 -10.1726 -0.733694 0
M  V30 9979 O 1775.28 -8.73148 1.23936 0
M  V30 9980 O 1774.74 -7.66872 -0.971405 0
M  V30 9981 C 1773.8 -7.42309 -2.04641 0
M  V30 9982 C 1774.53 -6.86059 -3.24661 0
M  V30 9983 O 1774.74 -5.42847 -3.03646 0
M  V30 9984 C 1775.93 -7.41196 -3.50753 0
M  V30 9985 O 1776.32 -7.27073 -4.86816 0
M  V30 9986 C 1776.81 -6.5273 -2.63741 0
M  V30 9987 C 1776.1 -5.1842 -2.73198 0
M  V30 9988 N 1776.15 -4.38762 -1.4784 0
M  V30 9989 H 1773.31 -8.36803 -2.32493 0
M  V30 9990 H 1773.04 -6.70197 -1.71129 0
M  V30 9991 H 1773.91 -7.03551 -4.13168 0
M  V30 9992 P 1777.87 -7.20834 -5.23717 0
M  V30 9993 O 1778.09 -7.79853 -6.57286 0
M  V30 9994 O 1778.66 -7.79239 -4.12957 0
M  V30 9995 O 1778.12 -5.63315 -5.29344 0
M  V30 9996 C 1777.18 -4.80255 -6.01876 0
M  V30 9997 C 1777.91 -3.64202 -6.65911 0
M  V30 9998 O 1778.12 -2.60694 -5.64732 0
M  V30 9999 C 1779.31 -3.93473 -7.1943 0
M  V30 10000 O 1779.7 -3.02071 -8.21205 0
M  V30 10001 C 1780.19 -3.73047 -5.97036 0
M  V30 10002 C 1779.48 -2.58828 -5.25741 0
M  V30 10003 N 1779.53 -2.68068 -3.77503 0
M  V30 10004 H 1776.69 -5.40332 -6.79951 0
M  V30 10005 H 1776.42 -4.41613 -5.32378 0
M  V30 10006 H 1777.29 -3.26331 -7.47797 0
M  V30 10007 P 1781.25 -2.75334 -8.47391 0
M  V30 10008 O 1781.47 -2.44571 -9.90142 0
M  V30 10009 O 1782.04 -3.87688 -7.92115 0
M  V30 10010 O 1781.5 -1.4459 -7.59357 0
M  V30 10011 C 1780.56 -0.347608 -7.69215 0
M  V30 10012 C 1781.29 0.96767 -7.52806 0
M  V30 10013 O 1781.5 1.21036 -6.1011 0
M  V30 10014 C 1782.69 1.04544 -8.13308 0
M  V30 10015 O 1783.08 2.38311 -8.41922 0
M  V30 10016 C 1783.57 0.491279 -7.02284 0
M  V30 10017 C 1782.86 0.996264 -5.77469 0
M  V30 10018 N 1782.91 0.0501916 -4.62973 0
M  V30 10019 H 1780.07 -0.374722 -8.67691 0
M  V30 10020 H 1779.8 -0.443485 -6.90277 0
M  V30 10021 H 1780.67 1.75537 -7.96793 0
M  V30 10022 P 1784.63 2.75334 -8.47391 0
M  V30 10023 O 1784.85 3.84128 -9.44797 0
M  V30 10024 O 1785.42 1.51947 -8.68712 0
M  V30 10025 O 1784.88 3.29363 -6.99321 0
M  V30 10026 C 1783.94 4.24011 -6.4274 0
M  V30 10027 C 1784.67 5.20775 -5.52155 0
M  V30 10028 O 1784.88 4.56534 -4.22446 0
M  V30 10029 C 1786.07 5.62629 -5.96531 0
M  V30 10030 O 1786.46 6.87667 -5.41053 0
M  V30 10031 C 1786.95 4.52537 -5.39283 0
M  V30 10032 C 1786.24 4.20027 -4.08623 0
M  V30 10033 N 1786.29 2.76189 -3.71603 0
M  V30 10034 H 1783.45 4.797 -7.24003 0
M  V30 10035 H 1783.18 3.69856 -5.84513 0
M  V30 10036 H 1784.05 6.10356 -5.41441 0
M  V30 10037 P 1788.01 7.20834 -5.23717 0
M  V30 10038 O 1788.23 8.66189 -5.38625 0
M  V30 10039 O 1788.8 6.33615 -6.1356 0
M  V30 10040 O 1788.26 6.7751 -3.72168 0
M  V30 10041 C 1787.32 7.20732 -2.70725 0
M  V30 10042 C 1788.05 7.45864 -1.40599 0
M  V30 10043 O 1788.26 6.17651 -0.734225 0
M  V30 10044 C 1789.45 8.05808 -1.51899 0
M  V30 10045 O 1789.84 8.74358 -0.335205 0
M  V30 10046 C 1790.33 6.83093 -1.70294 0
M  V30 10047 C 1789.62 5.79992 -0.836974 0
M  V30 10048 N 1789.67 4.41769 -1.38263 0
M  V30 10049 C 1789.82 3.38591 -0.481702 0
M  V30 10050 O 1789.91 3.56839 0.718452 0
M  V30 10051 N 1789.86 2.1206 -1.03569 0
M  V30 10052 C 1789.77 1.80696 -2.36966 0
M  V30 10053 O 1789.82 0.630473 -2.74862 0
M  V30 10054 C 1789.62 2.94845 -3.23898 0
M  V30 10055 C 1789.51 2.65253 -4.70362 0
M  V30 10056 C 1789.57 4.19803 -2.73435 0
M  V30 10057 H 1786.83 8.13644 -3.0377 0
M  V30 10058 H 1786.56 6.42695 -2.55448 0
M  V30 10059 H 1787.43 8.12039 -0.792769 0
M  V30 10060 H 1790.08 5.79978 0.160587 0
M  V30 10061 H 1790.36 6.51379 -2.75643 0
M  V30 10062 H 1791.35 7.01734 -1.34462 0
M  V30 10063 H 1789.52 8.73674 -2.38337 0
M  V30 10064 H 1789.45 5.04492 -3.4095 0
M  V30 10065 H 1790.48 2.83924 -5.1913 0
M  V30 10066 H 1788.74 3.29824 -5.15163 0
M  V30 10067 H 1789.23 1.59723 -4.84449 0
M  V30 10068 H 1789.97 1.35644 -0.399345 0
M  V30 10069 P 1791.39 8.91 -1.62595e-11 0
M  V30 10070 O 1791.61 10.1726 0.733694 0
M  V30 10071 O 1792.18 8.73148 -1.23936 0
M  V30 10072 O 1791.64 7.66872 0.971405 0
M  V30 10073 C 1790.7 7.42309 2.04641 0
M  V30 10074 C 1791.43 6.86059 3.24661 0
M  V30 10075 O 1791.64 5.42847 3.03646 0
M  V30 10076 C 1792.83 7.41196 3.50753 0
M  V30 10077 O 1793.22 7.27073 4.86816 0
M  V30 10078 C 1793.71 6.5273 2.63741 0
M  V30 10079 C 1793 5.1842 2.73198 0
M  V30 10080 N 1793.05 4.38762 1.4784 0
M  V30 10081 H 1790.21 8.36803 2.32493 0
M  V30 10082 H 1789.94 6.70197 1.71129 0
M  V30 10083 H 1790.81 7.03551 4.13168 0
M  V30 10084 P 1794.77 7.20834 5.23717 0
M  V30 10085 O 1794.99 7.79853 6.57286 0
M  V30 10086 O 1795.56 7.79239 4.12957 0
M  V30 10087 O 1795.02 5.63315 5.29344 0
M  V30 10088 C 1794.08 4.80255 6.01876 0
M  V30 10089 C 1794.81 3.64202 6.65911 0
M  V30 10090 O 1795.02 2.60694 5.64732 0
M  V30 10091 C 1796.21 3.93473 7.1943 0
M  V30 10092 O 1796.6 3.02071 8.21205 0
M  V30 10093 C 1797.09 3.73047 5.97036 0
M  V30 10094 C 1796.38 2.58828 5.25741 0
M  V30 10095 N 1796.43 2.68068 3.77503 0
M  V30 10096 C 1796.35 3.79715 2.96723 0
M  V30 10097 N 1796.43 3.5377 1.68852 0
M  V30 10098 C 1796.57 2.15054 1.63254 0
M  V30 10099 C 1796.7 1.28964 0.518571 0
M  V30 10100 N 1796.82 -0.0538097 0.918425 0
M  V30 10101 C 1796.82 -0.494275 2.22578 0
M  V30 10102 N 1796.95 -1.81086 2.40434 0
M  V30 10103 N 1796.69 0.313645 3.27502 0
M  V30 10104 C 1796.57 1.61829 2.91033 0
M  V30 10105 H 1793.59 5.40332 6.79951 0
M  V30 10106 H 1793.32 4.41613 5.32378 0
M  V30 10107 H 1794.19 3.26331 7.47797 0
M  V30 10108 P 1798.15 2.75334 8.47391 0
M  V30 10109 O 1798.37 2.44595 9.90239 0
M  V30 10110 O 1798.94 3.87732 7.92204 0
M  V30 10111 O 1798.4 1.4459 7.59357 0
M  V30 10112 C 1797.46 0.347563 7.69115 0
M  V30 10113 C 1798.19 -0.96767 7.52806 0
M  V30 10114 O 1798.4 -1.21036 6.1011 0
M  V30 10115 C 1799.59 -1.04544 8.13308 0
M  V30 10116 O 1799.98 -2.38311 8.41922 0
M  V30 10117 C 1800.47 -0.491279 7.02284 0
M  V30 10118 C 1799.76 -0.996264 5.77469 0
M  V30 10119 N 1799.81 -0.0501808 4.62873 0
M  V30 10120 C 1799.96 -0.588177 3.36904 0
M  V30 10121 O 1800.05 -1.78598 3.17173 0
M  V30 10122 N 1800 0.329694 2.33686 0
M  V30 10123 C 1799.91 1.6953 2.45079 0
M  V30 10124 C 1799.76 2.16933 3.80505 0
M  V30 10125 C 1799.71 1.30326 4.83752 0
M  V30 10126 H 1796.97 0.374722 8.67691 0
M  V30 10127 H 1796.7 0.443421 6.90177 0
M  V30 10128 H 1797.57 -1.75537 7.96793 0
M  V30 10129 H 1800.22 -1.94496 5.46629 0
M  V30 10130 H 1800.5 0.608651 7.04676 0
M  V30 10131 H 1801.49 -0.889672 7.08939 0
M  V30 10132 H 1799.66 -0.43308 9.04564 0
M  V30 10133 H 1799.59 1.68366 5.8516 0
M  V30 10134 P 1801.53 -2.75334 8.47391 0
M  V30 10135 O 1801.75 -3.84128 9.44797 0
M  V30 10136 O 1802.32 -1.51947 8.68712 0
M  V30 10137 O 1801.78 -3.29363 6.99321 0
M  V30 10138 C 1800.84 -4.24011 6.4274 0
M  V30 10139 C 1801.57 -5.20775 5.52155 0
M  V30 10140 O 1801.78 -4.56534 4.22446 0
M  V30 10141 C 1802.97 -5.62629 5.96531 0
M  V30 10142 O 1803.36 -6.87667 5.41053 0
M  V30 10143 C 1803.85 -4.52537 5.39283 0
M  V30 10144 C 1803.14 -4.20027 4.08623 0
M  V30 10145 N 1803.19 -2.76189 3.71603 0
M  V30 10146 C 1803.11 -1.64862 4.52822 0
M  V30 10147 N 1803.19 -0.512671 3.88633 0
M  V30 10148 C 1803.33 -0.888083 2.54977 0
M  V30 10149 C 1803.46 -0.094668 1.38677 0
M  V30 10150 O 1803.48 1.13053 1.28163 0
M  V30 10151 N 1803.58 -0.890102 0.232633 0
M  V30 10152 C 1803.58 -2.26958 0.21772 0
M  V30 10153 N 1803.71 -2.84626 -0.97925 0
M  V30 10154 N 1803.45 -3.0178 1.31033 0
M  V30 10155 C 1803.33 -2.26781 2.43843 0
M  V30 10156 H 1800.35 -4.797 7.24003 0
M  V30 10157 H 1800.08 -3.69856 5.84513 0
M  V30 10158 H 1800.95 -6.10356 5.41441 0
M  V30 10159 H 1803.6 -4.79061 3.27488 0
M  V30 10160 H 1803.88 -3.64906 6.05785 0
M  V30 10161 H 1804.87 -4.8868 5.2125 0
M  V30 10162 H 1803.04 -5.66726 7.06352 0
M  V30 10163 H 1802.99 -1.71169 5.60966 0
M  V30 10164 H 1803.67 -0.419134 -0.644739 0
M  V30 10165 H 1803.71 -3.87332 -1.06098 0
M  V30 10166 H 1803.81 -2.26417 -1.82483 0
M  V30 10167 P 1804.91 -7.20834 5.23717 0
M  V30 10168 O 1805.13 -8.66104 5.38572 0
M  V30 10169 O 1805.7 -6.33544 6.1349 0
M  V30 10170 O 1805.16 -6.7751 3.72168 0
M  V30 10171 C 1804.22 -7.20825 2.7076 0
M  V30 10172 C 1804.95 -7.45864 1.40599 0
M  V30 10173 O 1805.16 -6.17651 0.734225 0
M  V30 10174 C 1806.35 -8.05808 1.51899 0
M  V30 10175 O 1806.74 -8.74358 0.335205 0
M  V30 10176 C 1807.23 -6.83093 1.70294 0
M  V30 10177 C 1806.52 -5.79992 0.836974 0
M  V30 10178 N 1806.57 -4.41864 1.38293 0
M  V30 10179 H 1803.73 -8.13644 3.0377 0
M  V30 10180 H 1803.46 -6.42788 2.55485 0
M  V30 10181 H 1804.33 -8.12039 0.792769 0
M  V30 10182 P 1808.29 -8.91 1.73686e-11 0
M  V30 10183 O 1808.51 -10.1726 -0.733694 0
M  V30 10184 O 1809.08 -8.73148 1.23936 0
M  V30 10185 O 1808.54 -7.66872 -0.971405 0
M  V30 10186 C 1807.6 -7.42309 -2.04641 0
M  V30 10187 C 1808.33 -6.86059 -3.24661 0
M  V30 10188 O 1808.54 -5.42847 -3.03646 0
M  V30 10189 C 1809.73 -7.41196 -3.50753 0
M  V30 10190 O 1810.12 -7.27073 -4.86816 0
M  V30 10191 C 1810.61 -6.5273 -2.63741 0
M  V30 10192 C 1809.9 -5.1842 -2.73198 0
M  V30 10193 N 1809.95 -4.38762 -1.4784 0
M  V30 10194 H 1807.11 -8.36803 -2.32493 0
M  V30 10195 H 1806.84 -6.70197 -1.71129 0
M  V30 10196 H 1807.71 -7.03551 -4.13168 0
M  V30 10197 P 1811.67 -7.20834 -5.23717 0
M  V30 10198 O 1811.89 -7.80006 -6.57415 0
M  V30 10199 O 1812.46 -7.79416 -4.13051 0
M  V30 10200 O 1811.92 -5.63315 -5.29344 0
M  V30 10201 C 1810.98 -4.80318 -6.01954 0
M  V30 10202 C 1811.71 -3.64202 -6.65911 0
M  V30 10203 O 1811.92 -2.60736 -5.64823 0
M  V30 10204 C 1813.11 -3.93521 -7.19518 0
M  V30 10205 O 1813.5 -3.02071 -8.21205 0
M  V30 10206 C 1813.99 -3.73047 -5.97036 0
M  V30 10207 C 1813.28 -2.58828 -5.25741 0
M  V30 10208 N 1813.33 -2.68068 -3.77503 0
M  V30 10209 H 1810.49 -5.40394 -6.8003 0
M  V30 10210 H 1810.22 -4.41741 -5.32532 0
M  V30 10211 H 1811.09 -3.26371 -7.47889 0
M  V30 10212 H 1813.74 -1.64007 -5.56746 0
M  V30 10213 H 1814.02 -4.63439 -5.3432 0
M  V30 10214 H 1815.01 -3.44776 -6.25925 0
M  V30 10215 H 1813.18 -4.96707 -7.57347 0
M  V30 10216 P 1815.05 -2.75334 -8.47391 0
M  V30 10217 O 1815.27 -2.44571 -9.90142 0
M  V30 10218 O 1815.84 -3.87688 -7.92115 0
M  V30 10219 O 1815.3 -1.4459 -7.59357 0
M  V30 10220 C 1814.36 -0.347608 -7.69215 0
M  V30 10221 C 1815.09 0.96767 -7.52806 0
M  V30 10222 O 1815.3 1.21036 -6.1011 0
M  V30 10223 C 1816.49 1.04544 -8.13308 0
M  V30 10224 O 1816.88 2.38311 -8.41922 0
M  V30 10225 C 1817.37 0.491279 -7.02284 0
M  V30 10226 C 1816.66 0.996264 -5.77469 0
M  V30 10227 N 1816.71 0.0501916 -4.62973 0
M  V30 10228 H 1813.87 -0.374722 -8.67691 0
M  V30 10229 H 1813.6 -0.443485 -6.90277 0
M  V30 10230 H 1814.47 1.75537 -7.96793 0
M  V30 10231 P 1818.43 2.75334 -8.47391 0
M  V30 10232 O 1818.65 3.84204 -9.44982 0
M  V30 10233 O 1819.22 1.51982 -8.68909 0
M  V30 10234 O 1818.68 3.29363 -6.99321 0
M  V30 10235 C 1817.74 4.24066 -6.42823 0
M  V30 10236 C 1818.47 5.20775 -5.52155 0
M  V30 10237 O 1818.68 4.56607 -4.22514 0
M  V30 10238 C 1819.87 5.62697 -5.96604 0
M  V30 10239 O 1820.26 6.87667 -5.41053 0
M  V30 10240 C 1820.75 4.52537 -5.39283 0
M  V30 10241 C 1820.04 4.20027 -4.08623 0
M  V30 10242 N 1820.09 2.76189 -3.71603 0
M  V30 10243 H 1817.25 4.79756 -7.24086 0
M  V30 10244 H 1816.98 3.69963 -5.84682 0
M  V30 10245 H 1817.85 6.10431 -5.41508 0
M  V30 10246 H 1820.5 4.78816 -3.28024 0
M  V30 10247 H 1820.78 3.64957 -6.05871 0
M  V30 10248 H 1821.77 4.88748 -5.21323 0
M  V30 10249 H 1819.94 5.66789 -7.0643 0
M  V30 10250 P 1821.81 7.20834 -5.23717 0
M  V30 10251 O 1822.03 8.66189 -5.38625 0
M  V30 10252 O 1822.6 6.33615 -6.1356 0
M  V30 10253 O 1822.06 6.7751 -3.72168 0
M  V30 10254 C 1821.12 7.20732 -2.70725 0
M  V30 10255 C 1821.85 7.45864 -1.40599 0
M  V30 10256 O 1822.06 6.17651 -0.734225 0
M  V30 10257 C 1823.25 8.05808 -1.51899 0
M  V30 10258 O 1823.64 8.74358 -0.335205 0
M  V30 10259 C 1824.13 6.83093 -1.70294 0
M  V30 10260 C 1823.42 5.79992 -0.836974 0
M  V30 10261 N 1823.47 4.41769 -1.38263 0
M  V30 10262 C 1823.62 3.38591 -0.481702 0
M  V30 10263 O 1823.71 3.56839 0.718452 0
M  V30 10264 N 1823.66 2.1206 -1.03569 0
M  V30 10265 C 1823.57 1.80696 -2.36966 0
M  V30 10266 O 1823.62 0.630473 -2.74862 0
M  V30 10267 C 1823.42 2.94845 -3.23898 0
M  V30 10268 C 1823.31 2.65253 -4.70362 0
M  V30 10269 C 1823.37 4.19803 -2.73435 0
M  V30 10270 H 1820.63 8.13644 -3.0377 0
M  V30 10271 H 1820.36 6.42695 -2.55448 0
M  V30 10272 H 1821.23 8.12039 -0.792769 0
M  V30 10273 H 1823.88 5.79978 0.160587 0
M  V30 10274 H 1824.16 6.51379 -2.75643 0
M  V30 10275 H 1825.15 7.01734 -1.34462 0
M  V30 10276 H 1823.32 8.73674 -2.38337 0
M  V30 10277 H 1823.25 5.04492 -3.4095 0
M  V30 10278 H 1824.28 2.83924 -5.1913 0
M  V30 10279 H 1822.54 3.29824 -5.15163 0
M  V30 10280 H 1823.03 1.59723 -4.84449 0
M  V30 10281 H 1823.77 1.35644 -0.399345 0
M  V30 10282 P 1825.19 8.91 -1.84776e-11 0
M  V30 10283 O 1825.41 10.1726 0.733694 0
M  V30 10284 O 1825.98 8.73148 -1.23936 0
M  V30 10285 O 1825.44 7.66872 0.971405 0
M  V30 10286 C 1824.5 7.42309 2.04641 0
M  V30 10287 C 1825.23 6.86059 3.24661 0
M  V30 10288 O 1825.44 5.42847 3.03646 0
M  V30 10289 C 1826.63 7.41196 3.50753 0
M  V30 10290 O 1827.02 7.27073 4.86816 0
M  V30 10291 C 1827.51 6.5273 2.63741 0
M  V30 10292 C 1826.8 5.1842 2.73198 0
M  V30 10293 N 1826.85 4.38762 1.4784 0
M  V30 10294 H 1824.01 8.36803 2.32493 0
M  V30 10295 H 1823.74 6.70197 1.71129 0
M  V30 10296 H 1824.61 7.03551 4.13168 0
M  V30 10297 P 1828.57 7.20834 5.23717 0
M  V30 10298 O 1828.79 7.79853 6.57286 0
M  V30 10299 O 1829.36 7.79239 4.12957 0
M  V30 10300 O 1828.82 5.63315 5.29344 0
M  V30 10301 C 1827.88 4.80255 6.01876 0
M  V30 10302 C 1828.61 3.64202 6.65911 0
M  V30 10303 O 1828.82 2.60694 5.64732 0
M  V30 10304 C 1830.01 3.93473 7.1943 0
M  V30 10305 O 1830.4 3.02071 8.21205 0
M  V30 10306 C 1830.89 3.73047 5.97036 0
M  V30 10307 C 1830.18 2.58828 5.25741 0
M  V30 10308 N 1830.23 2.68068 3.77503 0
M  V30 10309 H 1827.39 5.40332 6.79951 0
M  V30 10310 H 1827.12 4.41613 5.32378 0
M  V30 10311 H 1827.99 3.26331 7.47797 0
M  V30 10312 P 1831.95 2.75334 8.47391 0
M  V30 10313 O 1832.17 2.44571 9.90142 0
M  V30 10314 O 1832.74 3.87688 7.92115 0
M  V30 10315 O 1832.2 1.4459 7.59357 0
M  V30 10316 C 1831.26 0.347608 7.69215 0
M  V30 10317 C 1831.99 -0.96767 7.52806 0
M  V30 10318 O 1832.2 -1.21036 6.1011 0
M  V30 10319 C 1833.39 -1.04544 8.13308 0
M  V30 10320 O 1833.78 -2.38311 8.41922 0
M  V30 10321 C 1834.27 -0.491279 7.02284 0
M  V30 10322 C 1833.56 -0.996264 5.77469 0
M  V30 10323 N 1833.61 -0.0501916 4.62973 0
M  V30 10324 H 1830.77 0.374722 8.67691 0
M  V30 10325 H 1830.5 0.443485 6.90277 0
M  V30 10326 H 1831.37 -1.75537 7.96793 0
M  V30 10327 P 1835.33 -2.75334 8.47391 0
M  V30 10328 O 1835.55 -3.84128 9.44797 0
M  V30 10329 O 1836.12 -1.51947 8.68712 0
M  V30 10330 O 1835.58 -3.29363 6.99321 0
M  V30 10331 C 1834.64 -4.24011 6.4274 0
M  V30 10332 C 1835.37 -5.20775 5.52155 0
M  V30 10333 O 1835.58 -4.56534 4.22446 0
M  V30 10334 C 1836.77 -5.62629 5.96531 0
M  V30 10335 O 1837.16 -6.87667 5.41053 0
M  V30 10336 C 1837.65 -4.52537 5.39283 0
M  V30 10337 C 1836.94 -4.20027 4.08623 0
M  V30 10338 N 1836.99 -2.76189 3.71603 0
M  V30 10339 H 1834.15 -4.797 7.24003 0
M  V30 10340 H 1833.88 -3.69856 5.84513 0
M  V30 10341 H 1834.75 -6.10356 5.41441 0
M  V30 10342 P 1838.71 -7.20834 5.23717 0
M  V30 10343 O 1838.93 -8.66104 5.38572 0
M  V30 10344 O 1839.5 -6.33544 6.1349 0
M  V30 10345 O 1838.96 -6.7751 3.72168 0
M  V30 10346 C 1838.02 -7.20825 2.7076 0
M  V30 10347 C 1838.75 -7.45864 1.40599 0
M  V30 10348 O 1838.96 -6.17651 0.734225 0
M  V30 10349 C 1840.15 -8.05808 1.51899 0
M  V30 10350 O 1840.54 -8.74358 0.335205 0
M  V30 10351 C 1841.03 -6.83093 1.70294 0
M  V30 10352 C 1840.32 -5.79992 0.836974 0
M  V30 10353 N 1840.37 -4.41864 1.38293 0
M  V30 10354 H 1837.53 -8.13644 3.0377 0
M  V30 10355 H 1837.26 -6.42788 2.55485 0
M  V30 10356 H 1838.13 -8.12039 0.792769 0
M  V30 10357 P 1842.09 -8.91 1.95866e-11 0
M  V30 10358 O 1842.31 -10.1726 -0.733694 0
M  V30 10359 O 1842.88 -8.73148 1.23936 0
M  V30 10360 O 1842.34 -7.66872 -0.971405 0
M  V30 10361 C 1841.4 -7.42309 -2.04641 0
M  V30 10362 C 1842.13 -6.86059 -3.24661 0
M  V30 10363 O 1842.34 -5.42847 -3.03646 0
M  V30 10364 C 1843.53 -7.41196 -3.50753 0
M  V30 10365 O 1843.92 -7.27073 -4.86816 0
M  V30 10366 C 1844.41 -6.5273 -2.63741 0
M  V30 10367 C 1843.7 -5.1842 -2.73198 0
M  V30 10368 N 1843.75 -4.38762 -1.4784 0
M  V30 10369 C 1843.67 -4.81605 -0.168631 0
M  V30 10370 N 1843.75 -3.85454 0.713363 0
M  V30 10371 C 1843.89 -2.6994 -0.0566958 0
M  V30 10372 C 1844.02 -1.34815 0.338502 0
M  V30 10373 O 1844.04 -0.869548 1.47125 0
M  V30 10374 N 1844.14 -0.496304 -0.77465 0
M  V30 10375 C 1844.14 -0.908403 -2.09122 0
M  V30 10376 N 1844.27 0.0517805 -3.00955 0
M  V30 10377 N 1844.01 -2.17875 -2.46519 0
M  V30 10378 C 1843.89 -3.01988 -1.4033 0
M  V30 10379 H 1840.91 -8.36803 -2.32493 0
M  V30 10380 H 1840.64 -6.70197 -1.71129 0
M  V30 10381 H 1841.51 -7.03551 -4.13168 0
M  V30 10382 H 1844.16 -4.59498 -3.54415 0
M  V30 10383 H 1844.44 -6.88898 -1.59848 0
M  V30 10384 H 1845.43 -6.46749 -3.03687 0
M  V30 10385 H 1843.6 -8.46908 -3.20714 0
M  V30 10386 H 1843.55 -5.86405 0.105564 0
M  V30 10387 H 1844.23 0.483664 -0.597855 0
M  V30 10388 H 1844.27 -0.187865 -4.0116 0
M  V30 10389 H 1844.37 1.03585 -2.71726 0
M  V30 10390 P 1845.47 -7.20834 -5.23717 0
M  V30 10391 O 1845.69 -7.79853 -6.57286 0
M  V30 10392 O 1846.26 -7.79239 -4.12957 0
M  V30 10393 O 1845.72 -5.63315 -5.29344 0
M  V30 10394 C 1844.78 -4.80255 -6.01876 0
M  V30 10395 C 1845.51 -3.64202 -6.65911 0
M  V30 10396 O 1845.72 -2.60694 -5.64732 0
M  V30 10397 C 1846.91 -3.93473 -7.1943 0
M  V30 10398 O 1847.3 -3.02071 -8.21205 0
M  V30 10399 C 1847.79 -3.73047 -5.97036 0
M  V30 10400 C 1847.08 -2.58828 -5.25741 0
M  V30 10401 N 1847.13 -2.68068 -3.77503 0
M  V30 10402 H 1844.29 -5.40332 -6.79951 0
M  V30 10403 H 1844.02 -4.41613 -5.32378 0
M  V30 10404 H 1844.89 -3.26331 -7.47797 0
M  V30 10405 P 1848.85 -2.75334 -8.47391 0
M  V30 10406 O 1849.07 -2.44619 -9.90336 0
M  V30 10407 O 1849.64 -3.87776 -7.92294 0
M  V30 10408 O 1849.1 -1.4459 -7.59357 0
M  V30 10409 C 1848.16 -0.347653 -7.69315 0
M  V30 10410 C 1848.89 0.96767 -7.52806 0
M  V30 10411 O 1849.1 1.21055 -6.10208 0
M  V30 10412 C 1850.29 1.04557 -8.13408 0
M  V30 10413 O 1850.68 2.38311 -8.41922 0
M  V30 10414 C 1851.17 0.491279 -7.02284 0
M  V30 10415 C 1850.46 0.996264 -5.77469 0
M  V30 10416 N 1850.51 0.0501916 -4.62973 0
M  V30 10417 H 1847.67 -0.374765 -8.67791 0
M  V30 10418 H 1847.4 -0.443613 -6.90476 0
M  V30 10419 H 1848.27 1.75559 -7.96891 0
M  V30 10420 H 1850.92 1.94563 -5.46818 0
M  V30 10421 H 1851.2 -0.608651 -7.04676 0
M  V30 10422 H 1852.19 0.889796 -7.09039 0
M  V30 10423 H 1850.36 0.433128 -9.04664 0
M  V30 10424 P 1852.23 2.75334 -8.47391 0
M  V30 10425 O 1852.45 3.84128 -9.44797 0
M  V30 10426 O 1853.02 1.51947 -8.68712 0
M  V30 10427 O 1852.48 3.29363 -6.99321 0
M  V30 10428 C 1851.54 4.24011 -6.4274 0
M  V30 10429 C 1852.27 5.20775 -5.52155 0
M  V30 10430 O 1852.48 4.56534 -4.22446 0
M  V30 10431 C 1853.67 5.62629 -5.96531 0
M  V30 10432 O 1854.06 6.87667 -5.41053 0
M  V30 10433 C 1854.55 4.52537 -5.39283 0
M  V30 10434 C 1853.84 4.20027 -4.08623 0
M  V30 10435 N 1853.89 2.76189 -3.71603 0
M  V30 10436 H 1851.05 4.797 -7.24003 0
M  V30 10437 H 1850.78 3.69856 -5.84513 0
M  V30 10438 H 1851.65 6.10356 -5.41441 0
M  V30 10439 P 1855.61 7.20834 -5.23717 0
M  V30 10440 O 1855.83 8.66104 -5.38572 0
M  V30 10441 O 1856.4 6.33544 -6.1349 0
M  V30 10442 O 1855.86 6.7751 -3.72168 0
M  V30 10443 C 1854.92 7.20825 -2.7076 0
M  V30 10444 C 1855.65 7.45864 -1.40599 0
M  V30 10445 O 1855.86 6.17651 -0.734225 0
M  V30 10446 C 1857.05 8.05808 -1.51899 0
M  V30 10447 O 1857.44 8.74358 -0.335205 0
M  V30 10448 C 1857.93 6.83093 -1.70294 0
M  V30 10449 C 1857.22 5.79992 -0.836974 0
M  V30 10450 N 1857.27 4.41864 -1.38293 0
M  V30 10451 H 1854.43 8.13644 -3.0377 0
M  V30 10452 H 1854.16 6.42788 -2.55485 0
M  V30 10453 H 1855.03 8.12039 -0.792769 0
M  V30 10454 P 1858.99 8.91 -2.06956e-11 0
M  V30 10455 O 1859.21 10.1726 0.733694 0
M  V30 10456 O 1859.78 8.73148 -1.23936 0
M  V30 10457 O 1859.24 7.66872 0.971405 0
M  V30 10458 C 1858.3 7.42309 2.04641 0
M  V30 10459 C 1859.03 6.86059 3.24661 0
M  V30 10460 O 1859.24 5.42847 3.03646 0
M  V30 10461 C 1860.43 7.41196 3.50753 0
M  V30 10462 O 1860.82 7.27073 4.86816 0
M  V30 10463 C 1861.31 6.5273 2.63741 0
M  V30 10464 C 1860.6 5.1842 2.73198 0
M  V30 10465 N 1860.65 4.38762 1.4784 0
M  V30 10466 C 1860.57 4.81605 0.168631 0
M  V30 10467 N 1860.65 3.85454 -0.713363 0
M  V30 10468 C 1860.79 2.6994 0.0566958 0
M  V30 10469 C 1860.92 1.34815 -0.338502 0
M  V30 10470 O 1860.94 0.869548 -1.47125 0
M  V30 10471 N 1861.04 0.496304 0.77465 0
M  V30 10472 C 1861.04 0.908403 2.09122 0
M  V30 10473 N 1861.17 -0.0517805 3.00955 0
M  V30 10474 N 1860.91 2.17875 2.46519 0
M  V30 10475 C 1860.79 3.01988 1.4033 0
M  V30 10476 H 1857.81 8.36803 2.32493 0
M  V30 10477 H 1857.54 6.70197 1.71129 0
M  V30 10478 H 1858.41 7.03551 4.13168 0
M  V30 10479 H 1861.06 4.59498 3.54415 0
M  V30 10480 H 1861.34 6.88898 1.59848 0
M  V30 10481 H 1862.33 6.46749 3.03687 0
M  V30 10482 H 1860.5 8.46908 3.20714 0
M  V30 10483 H 1860.45 5.86405 -0.105564 0
M  V30 10484 H 1861.13 -0.483664 0.597855 0
M  V30 10485 H 1861.17 0.187865 4.0116 0
M  V30 10486 H 1861.27 -1.03585 2.71726 0
M  V30 10487 P 1862.37 7.20834 5.23717 0
M  V30 10488 O 1862.59 7.79853 6.57286 0
M  V30 10489 O 1863.16 7.79239 4.12957 0
M  V30 10490 O 1862.62 5.63315 5.29344 0
M  V30 10491 C 1861.68 4.80255 6.01876 0
M  V30 10492 C 1862.41 3.64202 6.65911 0
M  V30 10493 O 1862.62 2.60694 5.64732 0
M  V30 10494 C 1863.81 3.93473 7.1943 0
M  V30 10495 O 1864.2 3.02071 8.21205 0
M  V30 10496 C 1864.69 3.73047 5.97036 0
M  V30 10497 C 1863.98 2.58828 5.25741 0
M  V30 10498 N 1864.03 2.68068 3.77503 0
M  V30 10499 H 1861.19 5.40332 6.79951 0
M  V30 10500 H 1860.92 4.41613 5.32378 0
M  V30 10501 H 1861.79 3.26331 7.47797 0
M  V30 10502 P 1865.75 2.75334 8.47391 0
M  V30 10503 O 1865.97 2.44571 9.90142 0
M  V30 10504 O 1866.54 3.87688 7.92115 0
M  V30 10505 O 1866 1.4459 7.59357 0
M  V30 10506 C 1865.06 0.347608 7.69215 0
M  V30 10507 C 1865.79 -0.96767 7.52806 0
M  V30 10508 O 1866 -1.21036 6.1011 0
M  V30 10509 C 1867.19 -1.04544 8.13308 0
M  V30 10510 O 1867.58 -2.38311 8.41922 0
M  V30 10511 C 1868.07 -0.491279 7.02284 0
M  V30 10512 C 1867.36 -0.996264 5.77469 0
M  V30 10513 N 1867.41 -0.0501916 4.62973 0
M  V30 10514 H 1864.57 0.374722 8.67691 0
M  V30 10515 H 1864.3 0.443485 6.90277 0
M  V30 10516 H 1865.17 -1.75537 7.96793 0
M  V30 10517 P 1869.13 -2.75334 8.47391 0
M  V30 10518 O 1869.35 -3.84128 9.44797 0
M  V30 10519 O 1869.92 -1.51947 8.68712 0
M  V30 10520 O 1869.38 -3.29363 6.99321 0
M  V30 10521 C 1868.44 -4.24011 6.4274 0
M  V30 10522 C 1869.17 -5.20775 5.52155 0
M  V30 10523 O 1869.38 -4.56534 4.22446 0
M  V30 10524 C 1870.57 -5.62629 5.96531 0
M  V30 10525 O 1870.96 -6.87667 5.41053 0
M  V30 10526 C 1871.45 -4.52537 5.39283 0
M  V30 10527 C 1870.74 -4.20027 4.08623 0
M  V30 10528 N 1870.79 -2.76189 3.71603 0
M  V30 10529 H 1867.95 -4.797 7.24003 0
M  V30 10530 H 1867.68 -3.69856 5.84513 0
M  V30 10531 H 1868.55 -6.10356 5.41441 0
M  V30 10532 P 1872.51 -7.20834 5.23717 0
M  V30 10533 O 1872.73 -8.66104 5.38572 0
M  V30 10534 O 1873.3 -6.33544 6.1349 0
M  V30 10535 O 1872.76 -6.7751 3.72168 0
M  V30 10536 C 1871.82 -7.20825 2.7076 0
M  V30 10537 C 1872.55 -7.45864 1.40599 0
M  V30 10538 O 1872.76 -6.17651 0.734225 0
M  V30 10539 C 1873.95 -8.05808 1.51899 0
M  V30 10540 O 1874.34 -8.74358 0.335205 0
M  V30 10541 C 1874.83 -6.83093 1.70294 0
M  V30 10542 C 1874.12 -5.79992 0.836974 0
M  V30 10543 N 1874.17 -4.41864 1.38293 0
M  V30 10544 H 1871.33 -8.13644 3.0377 0
M  V30 10545 H 1871.06 -6.42788 2.55485 0
M  V30 10546 H 1871.93 -8.12039 0.792769 0
M  V30 10547 P 1875.89 -8.91 2.18046e-11 0
M  V30 10548 O 1876.11 -10.1726 -0.733694 0
M  V30 10549 O 1876.68 -8.73148 1.23936 0
M  V30 10550 O 1876.14 -7.66872 -0.971405 0
M  V30 10551 C 1875.2 -7.42309 -2.04641 0
M  V30 10552 C 1875.93 -6.86059 -3.24661 0
M  V30 10553 O 1876.14 -5.42847 -3.03646 0
M  V30 10554 C 1877.33 -7.41196 -3.50753 0
M  V30 10555 O 1877.72 -7.27073 -4.86816 0
M  V30 10556 C 1878.21 -6.5273 -2.63741 0
M  V30 10557 C 1877.5 -5.1842 -2.73198 0
M  V30 10558 N 1877.55 -4.38762 -1.4784 0
M  V30 10559 H 1874.71 -8.36803 -2.32493 0
M  V30 10560 H 1874.44 -6.70197 -1.71129 0
M  V30 10561 H 1875.31 -7.03551 -4.13168 0
M  V30 10562 P 1879.27 -7.20834 -5.23717 0
M  V30 10563 O 1879.49 -7.79853 -6.57286 0
M  V30 10564 O 1880.06 -7.79239 -4.12957 0
M  V30 10565 O 1879.52 -5.63315 -5.29344 0
M  V30 10566 C 1878.58 -4.80255 -6.01876 0
M  V30 10567 C 1879.31 -3.64202 -6.65911 0
M  V30 10568 O 1879.52 -2.60694 -5.64732 0
M  V30 10569 C 1880.71 -3.93473 -7.1943 0
M  V30 10570 O 1881.1 -3.02071 -8.21205 0
M  V30 10571 C 1881.59 -3.73047 -5.97036 0
M  V30 10572 C 1880.88 -2.58828 -5.25741 0
M  V30 10573 N 1880.93 -2.68068 -3.77503 0
M  V30 10574 H 1878.09 -5.40332 -6.79951 0
M  V30 10575 H 1877.82 -4.41613 -5.32378 0
M  V30 10576 H 1878.69 -3.26331 -7.47797 0
M  V30 10577 P 1882.65 -2.75334 -8.47391 0
M  V30 10578 O 1882.87 -2.44619 -9.90336 0
M  V30 10579 O 1883.44 -3.87776 -7.92294 0
M  V30 10580 O 1882.9 -1.4459 -7.59357 0
M  V30 10581 C 1881.96 -0.347653 -7.69315 0
M  V30 10582 C 1882.69 0.96767 -7.52806 0
M  V30 10583 O 1882.9 1.21055 -6.10208 0
M  V30 10584 C 1884.09 1.04557 -8.13408 0
M  V30 10585 O 1884.48 2.38311 -8.41922 0
M  V30 10586 C 1884.97 0.491279 -7.02284 0
M  V30 10587 C 1884.26 0.996264 -5.77469 0
M  V30 10588 N 1884.31 0.0501916 -4.62973 0
M  V30 10589 H 1881.47 -0.374765 -8.67791 0
M  V30 10590 H 1881.2 -0.443613 -6.90476 0
M  V30 10591 H 1882.07 1.75559 -7.96891 0
M  V30 10592 H 1884.72 1.94563 -5.46818 0
M  V30 10593 H 1885 -0.608651 -7.04676 0
M  V30 10594 H 1885.99 0.889796 -7.09039 0
M  V30 10595 H 1884.16 0.433128 -9.04664 0
M  V30 10596 P 1886.03 2.75334 -8.47391 0
M  V30 10597 O 1886.25 3.84204 -9.44982 0
M  V30 10598 O 1886.82 1.51982 -8.68909 0
M  V30 10599 O 1886.28 3.29363 -6.99321 0
M  V30 10600 C 1885.34 4.24066 -6.42823 0
M  V30 10601 C 1886.07 5.20775 -5.52155 0
M  V30 10602 O 1886.28 4.56607 -4.22514 0
M  V30 10603 C 1887.47 5.62697 -5.96604 0
M  V30 10604 O 1887.86 6.87667 -5.41053 0
M  V30 10605 C 1888.35 4.52537 -5.39283 0
M  V30 10606 C 1887.64 4.20027 -4.08623 0
M  V30 10607 N 1887.69 2.76189 -3.71603 0
M  V30 10608 H 1884.85 4.79756 -7.24086 0
M  V30 10609 H 1884.58 3.69963 -5.84682 0
M  V30 10610 H 1885.45 6.10431 -5.41508 0
M  V30 10611 H 1888.1 4.78816 -3.28024 0
M  V30 10612 H 1888.38 3.64957 -6.05871 0
M  V30 10613 H 1889.37 4.88748 -5.21323 0
M  V30 10614 H 1887.54 5.66789 -7.0643 0
M  V30 10615 P 1889.41 7.20834 -5.23717 0
M  V30 10616 O 1889.63 8.66104 -5.38572 0
M  V30 10617 O 1890.2 6.33544 -6.1349 0
M  V30 10618 O 1889.66 6.7751 -3.72168 0
M  V30 10619 C 1888.72 7.20825 -2.7076 0
M  V30 10620 C 1889.45 7.45864 -1.40599 0
M  V30 10621 O 1889.66 6.17651 -0.734225 0
M  V30 10622 C 1890.85 8.05808 -1.51899 0
M  V30 10623 O 1891.24 8.74358 -0.335205 0
M  V30 10624 C 1891.73 6.83093 -1.70294 0
M  V30 10625 C 1891.02 5.79992 -0.836974 0
M  V30 10626 N 1891.07 4.41864 -1.38293 0
M  V30 10627 H 1888.23 8.13644 -3.0377 0
M  V30 10628 H 1887.96 6.42788 -2.55485 0
M  V30 10629 H 1888.83 8.12039 -0.792769 0
M  V30 10630 P 1892.79 8.91 -2.29136e-11 0
M  V30 10631 O 1893.01 10.1746 0.733838 0
M  V30 10632 O 1893.58 8.73346 -1.23964 0
M  V30 10633 O 1893.04 7.66872 0.971405 0
M  V30 10634 C 1892.1 7.42405 2.04668 0
M  V30 10635 C 1892.83 6.86059 3.24661 0
M  V30 10636 O 1893.04 5.42934 3.03695 0
M  V30 10637 C 1894.23 7.41287 3.50796 0
M  V30 10638 O 1894.62 7.27073 4.86816 0
M  V30 10639 C 1895.11 6.5273 2.63741 0
M  V30 10640 C 1894.4 5.1842 2.73198 0
M  V30 10641 N 1894.45 4.38762 1.4784 0
M  V30 10642 H 1891.61 8.36899 2.3252 0
M  V30 10643 H 1891.34 6.70391 1.71179 0
M  V30 10644 H 1892.21 7.03638 4.13219 0
M  V30 10645 H 1894.86 4.59931 3.54016 0
M  V30 10646 H 1895.14 6.88995 1.59871 0
M  V30 10647 H 1896.13 6.4684 3.0373 0
M  V30 10648 H 1894.3 8.47002 3.20749 0
M  V30 10649 P 1896.17 7.20834 5.23717 0
M  V30 10650 O 1896.39 7.79853 6.57286 0
M  V30 10651 O 1896.96 7.79239 4.12957 0
M  V30 10652 O 1896.42 5.63315 5.29344 0
M  V30 10653 C 1895.48 4.80255 6.01876 0
M  V30 10654 C 1896.21 3.64202 6.65911 0
M  V30 10655 O 1896.42 2.60694 5.64732 0
M  V30 10656 C 1897.61 3.93473 7.1943 0
M  V30 10657 O 1898 3.02071 8.21205 0
M  V30 10658 C 1898.49 3.73047 5.97036 0
M  V30 10659 C 1897.78 2.58828 5.25741 0
M  V30 10660 N 1897.83 2.68068 3.77503 0
M  V30 10661 H 1894.99 5.40332 6.79951 0
M  V30 10662 H 1894.72 4.41613 5.32378 0
M  V30 10663 H 1895.59 3.26331 7.47797 0
M  V30 10664 P 1899.55 2.75334 8.47391 0
M  V30 10665 O 1899.77 2.44571 9.90142 0
M  V30 10666 O 1900.34 3.87688 7.92115 0
M  V30 10667 O 1899.8 1.4459 7.59357 0
M  V30 10668 C 1898.86 0.347608 7.69215 0
M  V30 10669 C 1899.59 -0.96767 7.52806 0
M  V30 10670 O 1899.8 -1.21036 6.1011 0
M  V30 10671 C 1900.99 -1.04544 8.13308 0
M  V30 10672 O 1901.38 -2.38311 8.41922 0
M  V30 10673 C 1901.87 -0.491279 7.02284 0
M  V30 10674 C 1901.16 -0.996264 5.77469 0
M  V30 10675 N 1901.21 -0.0501916 4.62973 0
M  V30 10676 H 1898.37 0.374722 8.67691 0
M  V30 10677 H 1898.1 0.443485 6.90277 0
M  V30 10678 H 1898.97 -1.75537 7.96793 0
M  V30 10679 P 1902.93 -2.75334 8.47391 0
M  V30 10680 O 1903.15 -3.84128 9.44797 0
M  V30 10681 O 1903.72 -1.51947 8.68712 0
M  V30 10682 O 1903.18 -3.29363 6.99321 0
M  V30 10683 C 1902.24 -4.24011 6.4274 0
M  V30 10684 C 1902.97 -5.20775 5.52155 0
M  V30 10685 O 1903.18 -4.56534 4.22446 0
M  V30 10686 C 1904.37 -5.62629 5.96531 0
M  V30 10687 O 1904.76 -6.87667 5.41053 0
M  V30 10688 C 1905.25 -4.52537 5.39283 0
M  V30 10689 C 1904.54 -4.20027 4.08623 0
M  V30 10690 N 1904.59 -2.76189 3.71603 0
M  V30 10691 H 1901.75 -4.797 7.24003 0
M  V30 10692 H 1901.48 -3.69856 5.84513 0
M  V30 10693 H 1902.35 -6.10356 5.41441 0
M  V30 10694 P 1906.31 -7.20834 5.23717 0
M  V30 10695 O 1906.53 -8.66104 5.38572 0
M  V30 10696 O 1907.1 -6.33544 6.1349 0
M  V30 10697 O 1906.56 -6.7751 3.72168 0
M  V30 10698 C 1905.62 -7.20825 2.7076 0
M  V30 10699 C 1906.35 -7.45864 1.40599 0
M  V30 10700 O 1906.56 -6.17651 0.734225 0
M  V30 10701 C 1907.75 -8.05808 1.51899 0
M  V30 10702 O 1908.14 -8.74358 0.335205 0
M  V30 10703 C 1908.63 -6.83093 1.70294 0
M  V30 10704 C 1907.92 -5.79992 0.836974 0
M  V30 10705 N 1907.97 -4.41864 1.38293 0
M  V30 10706 H 1905.13 -8.13644 3.0377 0
M  V30 10707 H 1904.86 -6.42788 2.55485 0
M  V30 10708 H 1905.73 -8.12039 0.792769 0
M  V30 10709 P 1909.69 -8.91 2.40226e-11 0
M  V30 10710 O 1909.91 -10.1726 -0.733694 0
M  V30 10711 O 1910.48 -8.73148 1.23936 0
M  V30 10712 O 1909.94 -7.66872 -0.971405 0
M  V30 10713 C 1909 -7.42309 -2.04641 0
M  V30 10714 C 1909.73 -6.86059 -3.24661 0
M  V30 10715 O 1909.94 -5.42847 -3.03646 0
M  V30 10716 C 1911.13 -7.41196 -3.50753 0
M  V30 10717 O 1911.52 -7.27073 -4.86816 0
M  V30 10718 C 1912.01 -6.5273 -2.63741 0
M  V30 10719 C 1911.3 -5.1842 -2.73198 0
M  V30 10720 N 1911.35 -4.38762 -1.4784 0
M  V30 10721 C 1911.27 -4.81605 -0.168631 0
M  V30 10722 N 1911.35 -3.85454 0.713363 0
M  V30 10723 C 1911.49 -2.6994 -0.0566958 0
M  V30 10724 C 1911.62 -1.34815 0.338502 0
M  V30 10725 N 1911.74 -0.496304 -0.77465 0
M  V30 10726 C 1911.74 -0.908403 -2.09122 0
M  V30 10727 N 1911.87 0.0517805 -3.00955 0
M  V30 10728 N 1911.61 -2.17875 -2.46519 0
M  V30 10729 C 1911.49 -3.01988 -1.4033 0
M  V30 10730 H 1908.51 -8.36803 -2.32493 0
M  V30 10731 H 1908.24 -6.70197 -1.71129 0
M  V30 10732 H 1909.11 -7.03551 -4.13168 0
M  V30 10733 P 1913.07 -7.20834 -5.23717 0
M  V30 10734 O 1913.29 -7.80006 -6.57415 0
M  V30 10735 O 1913.86 -7.79416 -4.13051 0
M  V30 10736 O 1913.32 -5.63315 -5.29344 0
M  V30 10737 C 1912.38 -4.80318 -6.01954 0
M  V30 10738 C 1913.11 -3.64202 -6.65911 0
M  V30 10739 O 1913.32 -2.60736 -5.64823 0
M  V30 10740 C 1914.51 -3.93521 -7.19518 0
M  V30 10741 O 1914.9 -3.02071 -8.21205 0
M  V30 10742 C 1915.39 -3.73047 -5.97036 0
M  V30 10743 C 1914.68 -2.58828 -5.25741 0
M  V30 10744 N 1914.73 -2.68068 -3.77503 0
M  V30 10745 H 1911.89 -5.40394 -6.8003 0
M  V30 10746 H 1911.62 -4.41741 -5.32532 0
M  V30 10747 H 1912.49 -3.26371 -7.47889 0
M  V30 10748 H 1915.14 -1.64007 -5.56746 0
M  V30 10749 H 1915.42 -4.63439 -5.3432 0
M  V30 10750 H 1916.41 -3.44776 -6.25925 0
M  V30 10751 H 1914.58 -4.96707 -7.57347 0
M  V30 10752 P 1916.45 -2.75334 -8.47391 0
M  V30 10753 O 1916.67 -2.44571 -9.90142 0
M  V30 10754 O 1917.24 -3.87688 -7.92115 0
M  V30 10755 O 1916.7 -1.4459 -7.59357 0
M  V30 10756 C 1915.76 -0.347608 -7.69215 0
M  V30 10757 C 1916.49 0.96767 -7.52806 0
M  V30 10758 O 1916.7 1.21036 -6.1011 0
M  V30 10759 C 1917.89 1.04544 -8.13308 0
M  V30 10760 O 1918.28 2.38311 -8.41922 0
M  V30 10761 C 1918.77 0.491279 -7.02284 0
M  V30 10762 C 1918.06 0.996264 -5.77469 0
M  V30 10763 N 1918.11 0.0501916 -4.62973 0
M  V30 10764 C 1918.03 -1.32786 -4.63244 0
M  V30 10765 N 1918.11 -1.86957 -3.44545 0
M  V30 10766 C 1918.25 -0.780241 -2.58481 0
M  V30 10767 C 1918.38 -0.738536 -1.17757 0
M  V30 10768 N 1918.5 0.58337 -0.711393 0
M  V30 10769 C 1918.5 1.70816 -1.51017 0
M  V30 10770 N 1918.63 2.87826 -0.880757 0
M  V30 10771 N 1918.37 1.67126 -2.8339 0
M  V30 10772 C 1918.25 0.401421 -3.30572 0
M  V30 10773 H 1915.27 -0.374722 -8.67691 0
M  V30 10774 H 1915 -0.443485 -6.90277 0
M  V30 10775 H 1915.87 1.75537 -7.96793 0
M  V30 10776 P 1919.83 2.75334 -8.47391 0
M  V30 10777 O 1920.05 3.84128 -9.44797 0
M  V30 10778 O 1920.62 1.51947 -8.68712 0
M  V30 10779 O 1920.08 3.29363 -6.99321 0
M  V30 10780 C 1919.14 4.24011 -6.4274 0
M  V30 10781 C 1919.87 5.20775 -5.52155 0
M  V30 10782 O 1920.08 4.56534 -4.22446 0
M  V30 10783 C 1921.27 5.62629 -5.96531 0
M  V30 10784 O 1921.66 6.87667 -5.41053 0
M  V30 10785 C 1922.15 4.52537 -5.39283 0
M  V30 10786 C 1921.44 4.20027 -4.08623 0
M  V30 10787 N 1921.49 2.76189 -3.71603 0
M  V30 10788 H 1918.65 4.797 -7.24003 0
M  V30 10789 H 1918.38 3.69856 -5.84513 0
M  V30 10790 H 1919.25 6.10356 -5.41441 0
M  V30 10791 P 1923.21 7.20834 -5.23717 0
M  V30 10792 O 1923.43 8.66104 -5.38572 0
M  V30 10793 O 1924 6.33544 -6.1349 0
M  V30 10794 O 1923.46 6.7751 -3.72168 0
M  V30 10795 C 1922.52 7.20825 -2.7076 0
M  V30 10796 C 1923.25 7.45864 -1.40599 0
M  V30 10797 O 1923.46 6.17651 -0.734225 0
M  V30 10798 C 1924.65 8.05808 -1.51899 0
M  V30 10799 O 1925.04 8.74358 -0.335205 0
M  V30 10800 C 1925.53 6.83093 -1.70294 0
M  V30 10801 C 1924.82 5.79992 -0.836974 0
M  V30 10802 N 1924.87 4.41864 -1.38293 0
M  V30 10803 H 1922.03 8.13644 -3.0377 0
M  V30 10804 H 1921.76 6.42788 -2.55485 0
M  V30 10805 H 1922.63 8.12039 -0.792769 0
M  V30 10806 P 1926.59 8.91 -2.51316e-11 0
M  V30 10807 O 1926.81 10.1726 0.733694 0
M  V30 10808 O 1927.38 8.73148 -1.23936 0
M  V30 10809 O 1926.84 7.66872 0.971405 0
M  V30 10810 C 1925.9 7.42309 2.04641 0
M  V30 10811 C 1926.63 6.86059 3.24661 0
M  V30 10812 O 1926.84 5.42847 3.03646 0
M  V30 10813 C 1928.03 7.41196 3.50753 0
M  V30 10814 O 1928.42 7.27073 4.86816 0
M  V30 10815 C 1928.91 6.5273 2.63741 0
M  V30 10816 C 1928.2 5.1842 2.73198 0
M  V30 10817 N 1928.25 4.38762 1.4784 0
M  V30 10818 H 1925.41 8.36803 2.32493 0
M  V30 10819 H 1925.14 6.70197 1.71129 0
M  V30 10820 H 1926.01 7.03551 4.13168 0
M  V30 10821 P 1929.97 7.20834 5.23717 0
M  V30 10822 O 1930.19 7.79853 6.57286 0
M  V30 10823 O 1930.76 7.79239 4.12957 0
M  V30 10824 O 1930.22 5.63315 5.29344 0
M  V30 10825 C 1929.28 4.80255 6.01876 0
M  V30 10826 C 1930.01 3.64202 6.65911 0
M  V30 10827 O 1930.22 2.60694 5.64732 0
M  V30 10828 C 1931.41 3.93473 7.1943 0
M  V30 10829 O 1931.8 3.02071 8.21205 0
M  V30 10830 C 1932.29 3.73047 5.97036 0
M  V30 10831 C 1931.58 2.58828 5.25741 0
M  V30 10832 N 1931.63 2.68068 3.77503 0
M  V30 10833 H 1928.79 5.40332 6.79951 0
M  V30 10834 H 1928.52 4.41613 5.32378 0
M  V30 10835 H 1929.39 3.26331 7.47797 0
M  V30 10836 P 1933.35 2.75334 8.47391 0
M  V30 10837 O 1933.57 2.44571 9.90142 0
M  V30 10838 O 1934.14 3.87688 7.92115 0
M  V30 10839 O 1933.6 1.4459 7.59357 0
M  V30 10840 C 1932.66 0.347608 7.69215 0
M  V30 10841 C 1933.39 -0.96767 7.52806 0
M  V30 10842 O 1933.6 -1.21036 6.1011 0
M  V30 10843 C 1934.79 -1.04544 8.13308 0
M  V30 10844 O 1935.18 -2.38311 8.41922 0
M  V30 10845 C 1935.67 -0.491279 7.02284 0
M  V30 10846 C 1934.96 -0.996264 5.77469 0
M  V30 10847 N 1935.01 -0.0501916 4.62973 0
M  V30 10848 H 1932.17 0.374722 8.67691 0
M  V30 10849 H 1931.9 0.443485 6.90277 0
M  V30 10850 H 1932.77 -1.75537 7.96793 0
M  V30 10851 P 1936.73 -2.75334 8.47391 0
M  V30 10852 O 1936.95 -3.84128 9.44797 0
M  V30 10853 O 1937.52 -1.51947 8.68712 0
M  V30 10854 O 1936.98 -3.29363 6.99321 0
M  V30 10855 C 1936.04 -4.24011 6.4274 0
M  V30 10856 C 1936.77 -5.20775 5.52155 0
M  V30 10857 O 1936.98 -4.56534 4.22446 0
M  V30 10858 C 1938.17 -5.62629 5.96531 0
M  V30 10859 O 1938.56 -6.87667 5.41053 0
M  V30 10860 C 1939.05 -4.52537 5.39283 0
M  V30 10861 C 1938.34 -4.20027 4.08623 0
M  V30 10862 N 1938.39 -2.76189 3.71603 0
M  V30 10863 H 1935.55 -4.797 7.24003 0
M  V30 10864 H 1935.28 -3.69856 5.84513 0
M  V30 10865 H 1936.15 -6.10356 5.41441 0
M  V30 10866 P 1940.11 -7.20834 5.23717 0
M  V30 10867 O 1940.33 -8.66189 5.38625 0
M  V30 10868 O 1940.9 -6.33615 6.1356 0
M  V30 10869 O 1940.36 -6.7751 3.72168 0
M  V30 10870 C 1939.42 -7.20732 2.70725 0
M  V30 10871 C 1940.15 -7.45864 1.40599 0
M  V30 10872 O 1940.36 -6.17651 0.734225 0
M  V30 10873 C 1941.55 -8.05808 1.51899 0
M  V30 10874 O 1941.94 -8.74358 0.335205 0
M  V30 10875 C 1942.43 -6.83093 1.70294 0
M  V30 10876 C 1941.72 -5.79992 0.836974 0
M  V30 10877 N 1941.77 -4.41769 1.38263 0
M  V30 10878 C 1941.92 -3.38591 0.481702 0
M  V30 10879 O 1942.01 -3.56839 -0.718452 0
M  V30 10880 N 1941.96 -2.1206 1.03569 0
M  V30 10881 C 1941.87 -1.80696 2.36966 0
M  V30 10882 O 1941.92 -0.630473 2.74862 0
M  V30 10883 C 1941.72 -2.94845 3.23898 0
M  V30 10884 C 1941.61 -2.65253 4.70362 0
M  V30 10885 C 1941.67 -4.19803 2.73435 0
M  V30 10886 H 1938.93 -8.13644 3.0377 0
M  V30 10887 H 1938.66 -6.42695 2.55448 0
M  V30 10888 H 1939.53 -8.12039 0.792769 0
M  V30 10889 H 1942.18 -5.79978 -0.160587 0
M  V30 10890 H 1942.46 -6.51379 2.75643 0
M  V30 10891 H 1943.45 -7.01734 1.34462 0
M  V30 10892 H 1941.62 -8.73674 2.38337 0
M  V30 10893 H 1941.55 -5.04492 3.4095 0
M  V30 10894 H 1942.58 -2.83924 5.1913 0
M  V30 10895 H 1940.84 -3.29824 5.15163 0
M  V30 10896 H 1941.33 -1.59723 4.84449 0
M  V30 10897 H 1942.06 -1.35644 0.399345 0
M  V30 10898 P 1943.49 -8.91 2.62406e-11 0
M  V30 10899 O 1943.71 -10.1726 -0.733694 0
M  V30 10900 O 1944.28 -8.73148 1.23936 0
M  V30 10901 O 1943.74 -7.66872 -0.971405 0
M  V30 10902 C 1942.8 -7.42309 -2.04641 0
M  V30 10903 C 1943.53 -6.86059 -3.24661 0
M  V30 10904 O 1943.74 -5.42847 -3.03646 0
M  V30 10905 C 1944.93 -7.41196 -3.50753 0
M  V30 10906 O 1945.32 -7.27073 -4.86816 0
M  V30 10907 C 1945.81 -6.5273 -2.63741 0
M  V30 10908 C 1945.1 -5.1842 -2.73198 0
M  V30 10909 N 1945.15 -4.38762 -1.4784 0
M  V30 10910 H 1942.31 -8.36803 -2.32493 0
M  V30 10911 H 1942.04 -6.70197 -1.71129 0
M  V30 10912 H 1942.91 -7.03551 -4.13168 0
M  V30 10913 P 1946.87 -7.20834 -5.23717 0
M  V30 10914 O 1947.09 -7.79853 -6.57286 0
M  V30 10915 O 1947.66 -7.79239 -4.12957 0
M  V30 10916 O 1947.12 -5.63315 -5.29344 0
M  V30 10917 C 1946.18 -4.80255 -6.01876 0
M  V30 10918 C 1946.91 -3.64202 -6.65911 0
M  V30 10919 O 1947.12 -2.60694 -5.64732 0
M  V30 10920 C 1948.31 -3.93473 -7.1943 0
M  V30 10921 O 1948.7 -3.02071 -8.21205 0
M  V30 10922 C 1949.19 -3.73047 -5.97036 0
M  V30 10923 C 1948.48 -2.58828 -5.25741 0
M  V30 10924 N 1948.53 -2.68068 -3.77503 0
M  V30 10925 H 1945.69 -5.40332 -6.79951 0
M  V30 10926 H 1945.42 -4.41613 -5.32378 0
M  V30 10927 H 1946.29 -3.26331 -7.47797 0
M  V30 10928 P 1950.25 -2.75334 -8.47391 0
M  V30 10929 O 1950.47 -2.44571 -9.90142 0
M  V30 10930 O 1951.04 -3.87688 -7.92115 0
M  V30 10931 O 1950.5 -1.4459 -7.59357 0
M  V30 10932 C 1949.56 -0.347608 -7.69215 0
M  V30 10933 C 1950.29 0.96767 -7.52806 0
M  V30 10934 O 1950.5 1.21036 -6.1011 0
M  V30 10935 C 1951.69 1.04544 -8.13308 0
M  V30 10936 O 1952.08 2.38311 -8.41922 0
M  V30 10937 C 1952.57 0.491279 -7.02284 0
M  V30 10938 C 1951.86 0.996264 -5.77469 0
M  V30 10939 N 1951.91 0.0501916 -4.62973 0
M  V30 10940 H 1949.07 -0.374722 -8.67691 0
M  V30 10941 H 1948.8 -0.443485 -6.90277 0
M  V30 10942 H 1949.67 1.75537 -7.96793 0
M  V30 10943 P 1953.63 2.75334 -8.47391 0
M  V30 10944 O 1953.85 3.84128 -9.44797 0
M  V30 10945 O 1954.42 1.51947 -8.68712 0
M  V30 10946 O 1953.88 3.29363 -6.99321 0
M  V30 10947 C 1952.94 4.24011 -6.4274 0
M  V30 10948 C 1953.67 5.20775 -5.52155 0
M  V30 10949 O 1953.88 4.56534 -4.22446 0
M  V30 10950 C 1955.07 5.62629 -5.96531 0
M  V30 10951 O 1955.46 6.87667 -5.41053 0
M  V30 10952 C 1955.95 4.52537 -5.39283 0
M  V30 10953 C 1955.24 4.20027 -4.08623 0
M  V30 10954 N 1955.29 2.76189 -3.71603 0
M  V30 10955 H 1952.45 4.797 -7.24003 0
M  V30 10956 H 1952.18 3.69856 -5.84513 0
M  V30 10957 H 1953.05 6.10356 -5.41441 0
M  V30 10958 P 1957.01 7.20834 -5.23717 0
M  V30 10959 O 1957.23 8.66104 -5.38572 0
M  V30 10960 O 1957.8 6.33544 -6.1349 0
M  V30 10961 O 1957.26 6.7751 -3.72168 0
M  V30 10962 C 1956.32 7.20825 -2.7076 0
M  V30 10963 C 1957.05 7.45864 -1.40599 0
M  V30 10964 O 1957.26 6.17651 -0.734225 0
M  V30 10965 C 1958.45 8.05808 -1.51899 0
M  V30 10966 O 1958.84 8.74358 -0.335205 0
M  V30 10967 C 1959.33 6.83093 -1.70294 0
M  V30 10968 C 1958.62 5.79992 -0.836974 0
M  V30 10969 N 1958.67 4.41864 -1.38293 0
M  V30 10970 H 1955.83 8.13644 -3.0377 0
M  V30 10971 H 1955.56 6.42788 -2.55485 0
M  V30 10972 H 1956.43 8.12039 -0.792769 0
M  V30 10973 P 1960.39 8.91 -2.73496e-11 0
M  V30 10974 O 1960.61 10.1726 0.733694 0
M  V30 10975 O 1961.18 8.73148 -1.23936 0
M  V30 10976 O 1960.64 7.66872 0.971405 0
M  V30 10977 C 1959.7 7.42309 2.04641 0
M  V30 10978 C 1960.43 6.86059 3.24661 0
M  V30 10979 O 1960.64 5.42847 3.03646 0
M  V30 10980 C 1961.83 7.41196 3.50753 0
M  V30 10981 O 1962.22 7.27073 4.86816 0
M  V30 10982 C 1962.71 6.5273 2.63741 0
M  V30 10983 C 1962 5.1842 2.73198 0
M  V30 10984 N 1962.05 4.38762 1.4784 0
M  V30 10985 H 1959.21 8.36803 2.32493 0
M  V30 10986 H 1958.94 6.70197 1.71129 0
M  V30 10987 H 1959.81 7.03551 4.13168 0
M  V30 10988 P 1963.77 7.20834 5.23717 0
M  V30 10989 O 1963.99 7.79853 6.57286 0
M  V30 10990 O 1964.56 7.79239 4.12957 0
M  V30 10991 O 1964.02 5.63315 5.29344 0
M  V30 10992 C 1963.08 4.80255 6.01876 0
M  V30 10993 C 1963.81 3.64202 6.65911 0
M  V30 10994 O 1964.02 2.60694 5.64732 0
M  V30 10995 C 1965.21 3.93473 7.1943 0
M  V30 10996 O 1965.6 3.02071 8.21205 0
M  V30 10997 C 1966.09 3.73047 5.97036 0
M  V30 10998 C 1965.38 2.58828 5.25741 0
M  V30 10999 N 1965.43 2.68068 3.77503 0
M  V30 11000 H 1962.59 5.40332 6.79951 0
M  V30 11001 H 1962.32 4.41613 5.32378 0
M  V30 11002 H 1963.19 3.26331 7.47797 0
M  V30 11003 P 1967.15 2.75334 8.47391 0
M  V30 11004 O 1967.37 2.44571 9.90142 0
M  V30 11005 O 1967.94 3.87688 7.92115 0
M  V30 11006 O 1967.4 1.4459 7.59357 0
M  V30 11007 C 1966.46 0.347608 7.69215 0
M  V30 11008 C 1967.19 -0.96767 7.52806 0
M  V30 11009 O 1967.4 -1.21036 6.1011 0
M  V30 11010 C 1968.59 -1.04544 8.13308 0
M  V30 11011 O 1968.98 -2.38311 8.41922 0
M  V30 11012 C 1969.47 -0.491279 7.02284 0
M  V30 11013 C 1968.76 -0.996264 5.77469 0
M  V30 11014 N 1968.81 -0.0501916 4.62973 0
M  V30 11015 H 1965.97 0.374722 8.67691 0
M  V30 11016 H 1965.7 0.443485 6.90277 0
M  V30 11017 H 1966.57 -1.75537 7.96793 0
M  V30 11018 P 1970.53 -2.75334 8.47391 0
M  V30 11019 O 1970.75 -3.84128 9.44797 0
M  V30 11020 O 1971.32 -1.51947 8.68712 0
M  V30 11021 O 1970.78 -3.29363 6.99321 0
M  V30 11022 C 1969.84 -4.24011 6.4274 0
M  V30 11023 C 1970.57 -5.20775 5.52155 0
M  V30 11024 O 1970.78 -4.56534 4.22446 0
M  V30 11025 C 1971.97 -5.62629 5.96531 0
M  V30 11026 O 1972.36 -6.87667 5.41053 0
M  V30 11027 C 1972.85 -4.52537 5.39283 0
M  V30 11028 C 1972.14 -4.20027 4.08623 0
M  V30 11029 N 1972.19 -2.76189 3.71603 0
M  V30 11030 H 1969.35 -4.797 7.24003 0
M  V30 11031 H 1969.08 -3.69856 5.84513 0
M  V30 11032 H 1969.95 -6.10356 5.41441 0
M  V30 11033 P 1973.91 -7.20834 5.23717 0
M  V30 11034 O 1974.13 -8.66104 5.38572 0
M  V30 11035 O 1974.7 -6.33544 6.1349 0
M  V30 11036 O 1974.16 -6.7751 3.72168 0
M  V30 11037 C 1973.22 -7.20825 2.7076 0
M  V30 11038 C 1973.95 -7.45864 1.40599 0
M  V30 11039 O 1974.16 -6.17651 0.734225 0
M  V30 11040 C 1975.35 -8.05808 1.51899 0
M  V30 11041 O 1975.74 -8.74358 0.335205 0
M  V30 11042 C 1976.23 -6.83093 1.70294 0
M  V30 11043 C 1975.52 -5.79992 0.836974 0
M  V30 11044 N 1975.57 -4.41864 1.38293 0
M  V30 11045 H 1972.73 -8.13644 3.0377 0
M  V30 11046 H 1972.46 -6.42788 2.55485 0
M  V30 11047 H 1973.33 -8.12039 0.792769 0
M  V30 11048 P 1977.29 -8.91 2.84586e-11 0
M  V30 11049 O 1977.51 -10.1726 -0.733694 0
M  V30 11050 O 1978.08 -8.73148 1.23936 0
M  V30 11051 O 1977.54 -7.66872 -0.971405 0
M  V30 11052 C 1976.6 -7.42309 -2.04641 0
M  V30 11053 C 1977.33 -6.86059 -3.24661 0
M  V30 11054 O 1977.54 -5.42847 -3.03646 0
M  V30 11055 C 1978.73 -7.41196 -3.50753 0
M  V30 11056 O 1979.12 -7.27073 -4.86816 0
M  V30 11057 C 1979.61 -6.5273 -2.63741 0
M  V30 11058 C 1978.9 -5.1842 -2.73198 0
M  V30 11059 N 1978.95 -4.38762 -1.4784 0
M  V30 11060 H 1976.11 -8.36803 -2.32493 0
M  V30 11061 H 1975.84 -6.70197 -1.71129 0
M  V30 11062 H 1976.71 -7.03551 -4.13168 0
M  V30 11063 P 1980.67 -7.20834 -5.23717 0
M  V30 11064 O 1980.89 -7.80006 -6.57415 0
M  V30 11065 O 1981.46 -7.79416 -4.13051 0
M  V30 11066 O 1980.92 -5.63315 -5.29344 0
M  V30 11067 C 1979.98 -4.80318 -6.01954 0
M  V30 11068 C 1980.71 -3.64202 -6.65911 0
M  V30 11069 O 1980.92 -2.60736 -5.64823 0
M  V30 11070 C 1982.11 -3.93521 -7.19518 0
M  V30 11071 O 1982.5 -3.02071 -8.21205 0
M  V30 11072 C 1982.99 -3.73047 -5.97036 0
M  V30 11073 C 1982.28 -2.58828 -5.25741 0
M  V30 11074 N 1982.33 -2.68068 -3.77503 0
M  V30 11075 H 1979.49 -5.40394 -6.8003 0
M  V30 11076 H 1979.22 -4.41741 -5.32532 0
M  V30 11077 H 1980.09 -3.26371 -7.47889 0
M  V30 11078 H 1982.74 -1.64007 -5.56746 0
M  V30 11079 H 1983.02 -4.63439 -5.3432 0
M  V30 11080 H 1984.01 -3.44776 -6.25925 0
M  V30 11081 H 1982.18 -4.96707 -7.57347 0
M  V30 11082 P 1984.05 -2.75334 -8.47391 0
M  V30 11083 O 1984.27 -2.44619 -9.90336 0
M  V30 11084 O 1984.84 -3.87776 -7.92294 0
M  V30 11085 O 1984.3 -1.4459 -7.59357 0
M  V30 11086 C 1983.36 -0.347653 -7.69315 0
M  V30 11087 C 1984.09 0.96767 -7.52806 0
M  V30 11088 O 1984.3 1.21055 -6.10208 0
M  V30 11089 C 1985.49 1.04557 -8.13408 0
M  V30 11090 O 1985.88 2.38311 -8.41922 0
M  V30 11091 C 1986.37 0.491279 -7.02284 0
M  V30 11092 C 1985.66 0.996264 -5.77469 0
M  V30 11093 N 1985.71 0.0501916 -4.62973 0
M  V30 11094 C 1985.63 -1.31969 -4.65661 0
M  V30 11095 N 1985.7 -1.86649 -3.48119 0
M  V30 11096 C 1985.85 -0.792089 -2.62406 0
M  V30 11097 C 1985.98 -0.705684 -1.2207 0
M  V30 11098 N 1985.99 -1.76207 -0.413762 0
M  V30 11099 N 1986.1 0.518981 -0.685754 0
M  V30 11100 C 1986.09 1.57595 -1.49174 0
M  V30 11101 N 1985.97 1.62909 -2.80066 0
M  V30 11102 C 1985.85 0.388195 -3.3073 0
M  V30 11103 H 1982.87 -0.374765 -8.67791 0
M  V30 11104 H 1982.6 -0.443613 -6.90476 0
M  V30 11105 H 1983.47 1.75559 -7.96891 0
M  V30 11106 H 1986.12 1.94563 -5.46818 0
M  V30 11107 H 1986.4 -0.608651 -7.04676 0
M  V30 11108 H 1987.39 0.889796 -7.09039 0
M  V30 11109 H 1985.56 0.433128 -9.04664 0
M  V30 11110 H 1985.52 -1.89246 -5.57664 0
M  V30 11111 H 1985.9 -2.71005 -0.804694 0
M  V30 11112 H 1986.09 -1.63189 0.603768 0
M  V30 11113 H 1986.2 2.53475 -0.997614 0
M  V30 11114 P 1987.43 2.75334 -8.47391 0
M  V30 11115 O 1987.65 3.84128 -9.44797 0
M  V30 11116 O 1988.22 1.51947 -8.68712 0
M  V30 11117 O 1987.68 3.29363 -6.99321 0
M  V30 11118 C 1986.74 4.24011 -6.4274 0
M  V30 11119 C 1987.47 5.20775 -5.52155 0
M  V30 11120 O 1987.68 4.56534 -4.22446 0
M  V30 11121 C 1988.87 5.62629 -5.96531 0
M  V30 11122 O 1989.26 6.87667 -5.41053 0
M  V30 11123 C 1989.75 4.52537 -5.39283 0
M  V30 11124 C 1989.04 4.20027 -4.08623 0
M  V30 11125 N 1989.09 2.76189 -3.71603 0
M  V30 11126 H 1986.25 4.797 -7.24003 0
M  V30 11127 H 1985.98 3.69856 -5.84513 0
M  V30 11128 H 1986.85 6.10356 -5.41441 0
M  V30 11129 P 1990.81 7.20834 -5.23717 0
M  V30 11130 O 1991.03 8.66189 -5.38625 0
M  V30 11131 O 1991.6 6.33615 -6.1356 0
M  V30 11132 O 1991.06 6.7751 -3.72168 0
M  V30 11133 C 1990.12 7.20732 -2.70725 0
M  V30 11134 C 1990.85 7.45864 -1.40599 0
M  V30 11135 O 1991.06 6.17651 -0.734225 0
M  V30 11136 C 1992.25 8.05808 -1.51899 0
M  V30 11137 O 1992.64 8.74358 -0.335205 0
M  V30 11138 C 1993.13 6.83093 -1.70294 0
M  V30 11139 C 1992.42 5.79992 -0.836974 0
M  V30 11140 N 1992.47 4.41769 -1.38263 0
M  V30 11141 C 1992.62 3.38591 -0.481702 0
M  V30 11142 O 1992.71 3.56839 0.718452 0
M  V30 11143 N 1992.66 2.1206 -1.03569 0
M  V30 11144 C 1992.57 1.80696 -2.36966 0
M  V30 11145 C 1992.42 2.94845 -3.23898 0
M  V30 11146 C 1992.37 4.19803 -2.73435 0
M  V30 11147 H 1989.63 8.13644 -3.0377 0
M  V30 11148 H 1989.36 6.42695 -2.55448 0
M  V30 11149 H 1990.23 8.12039 -0.792769 0
M  V30 11150 H 1992.88 5.79978 0.160587 0
M  V30 11151 H 1993.16 6.51379 -2.75643 0
M  V30 11152 H 1994.15 7.01734 -1.34462 0
M  V30 11153 H 1992.32 8.73674 -2.38337 0
M  V30 11154 H 1992.25 5.04492 -3.4095 0
M  V30 11155 P 1994.19 8.91 -2.95676e-11 0
M  V30 11156 O 1994.41 10.1726 0.733694 0
M  V30 11157 O 1994.98 8.73148 -1.23936 0
M  V30 11158 O 1994.44 7.66872 0.971405 0
M  V30 11159 C 1993.5 7.42309 2.04641 0
M  V30 11160 C 1994.23 6.86059 3.24661 0
M  V30 11161 O 1994.44 5.42847 3.03646 0
M  V30 11162 C 1995.63 7.41196 3.50753 0
M  V30 11163 O 1996.02 7.27073 4.86816 0
M  V30 11164 C 1996.51 6.5273 2.63741 0
M  V30 11165 C 1995.8 5.1842 2.73198 0
M  V30 11166 N 1995.85 4.38762 1.4784 0
M  V30 11167 H 1993.01 8.36803 2.32493 0
M  V30 11168 H 1992.74 6.70197 1.71129 0
M  V30 11169 H 1993.61 7.03551 4.13168 0
M  V30 11170 P 1997.57 7.20834 5.23717 0
M  V30 11171 O 1997.79 7.79853 6.57286 0
M  V30 11172 O 1998.36 7.79239 4.12957 0
M  V30 11173 O 1997.82 5.63315 5.29344 0
M  V30 11174 C 1996.88 4.80255 6.01876 0
M  V30 11175 C 1997.61 3.64202 6.65911 0
M  V30 11176 O 1997.82 2.60694 5.64732 0
M  V30 11177 C 1999.01 3.93473 7.1943 0
M  V30 11178 O 1999.4 3.02071 8.21205 0
M  V30 11179 C 1999.89 3.73047 5.97036 0
M  V30 11180 C 1999.18 2.58828 5.25741 0
M  V30 11181 N 1999.23 2.68068 3.77503 0
M  V30 11182 H 1996.39 5.40332 6.79951 0
M  V30 11183 H 1996.12 4.41613 5.32378 0
M  V30 11184 H 1996.99 3.26331 7.47797 0
M  V30 11185 P 2000.95 2.75334 8.47391 0
M  V30 11186 O 2001.17 2.44571 9.90142 0
M  V30 11187 O 2001.74 3.87688 7.92115 0
M  V30 11188 O 2001.2 1.4459 7.59357 0
M  V30 11189 C 2000.26 0.347608 7.69215 0
M  V30 11190 C 2000.99 -0.96767 7.52806 0
M  V30 11191 O 2001.2 -1.21036 6.1011 0
M  V30 11192 C 2002.39 -1.04544 8.13308 0
M  V30 11193 O 2002.78 -2.38311 8.41922 0
M  V30 11194 C 2003.27 -0.491279 7.02284 0
M  V30 11195 C 2002.56 -0.996264 5.77469 0
M  V30 11196 N 2002.61 -0.0501916 4.62973 0
M  V30 11197 H 1999.77 0.374722 8.67691 0
M  V30 11198 H 1999.5 0.443485 6.90277 0
M  V30 11199 H 2000.37 -1.75537 7.96793 0
M  V30 11200 P 2004.33 -2.75334 8.47391 0
M  V30 11201 O 2004.55 -3.84128 9.44797 0
M  V30 11202 O 2005.12 -1.51947 8.68712 0
M  V30 11203 O 2004.58 -3.29363 6.99321 0
M  V30 11204 C 2003.64 -4.24011 6.4274 0
M  V30 11205 C 2004.37 -5.20775 5.52155 0
M  V30 11206 O 2004.58 -4.56534 4.22446 0
M  V30 11207 C 2005.77 -5.62629 5.96531 0
M  V30 11208 O 2006.16 -6.87667 5.41053 0
M  V30 11209 C 2006.65 -4.52537 5.39283 0
M  V30 11210 C 2005.94 -4.20027 4.08623 0
M  V30 11211 N 2005.99 -2.76189 3.71603 0
M  V30 11212 H 2003.15 -4.797 7.24003 0
M  V30 11213 H 2002.88 -3.69856 5.84513 0
M  V30 11214 H 2003.75 -6.10356 5.41441 0
M  V30 11215 P 2007.71 -7.20834 5.23717 0
M  V30 11216 O 2007.93 -8.66104 5.38572 0
M  V30 11217 O 2008.5 -6.33544 6.1349 0
M  V30 11218 O 2007.96 -6.7751 3.72168 0
M  V30 11219 C 2007.02 -7.20825 2.7076 0
M  V30 11220 C 2007.75 -7.45864 1.40599 0
M  V30 11221 O 2007.96 -6.17651 0.734225 0
M  V30 11222 C 2009.15 -8.05808 1.51899 0
M  V30 11223 O 2009.54 -8.74358 0.335205 0
M  V30 11224 C 2010.03 -6.83093 1.70294 0
M  V30 11225 C 2009.32 -5.79992 0.836974 0
M  V30 11226 N 2009.37 -4.41864 1.38293 0
M  V30 11227 H 2006.53 -8.13644 3.0377 0
M  V30 11228 H 2006.26 -6.42788 2.55485 0
M  V30 11229 H 2007.13 -8.12039 0.792769 0
M  V30 11230 P 2011.09 -8.91 3.06766e-11 0
M  V30 11231 O 2011.31 -10.1726 -0.733694 0
M  V30 11232 O 2011.88 -8.73148 1.23936 0
M  V30 11233 O 2011.34 -7.66872 -0.971405 0
M  V30 11234 C 2010.4 -7.42309 -2.04641 0
M  V30 11235 C 2011.13 -6.86059 -3.24661 0
M  V30 11236 O 2011.34 -5.42847 -3.03646 0
M  V30 11237 C 2012.53 -7.41196 -3.50753 0
M  V30 11238 O 2012.92 -7.27073 -4.86816 0
M  V30 11239 C 2013.41 -6.5273 -2.63741 0
M  V30 11240 C 2012.7 -5.1842 -2.73198 0
M  V30 11241 N 2012.75 -4.38762 -1.4784 0
M  V30 11242 H 2009.91 -8.36803 -2.32493 0
M  V30 11243 H 2009.64 -6.70197 -1.71129 0
M  V30 11244 H 2010.51 -7.03551 -4.13168 0
M  V30 11245 P 2014.47 -7.20834 -5.23717 0
M  V30 11246 O 2014.69 -7.79853 -6.57286 0
M  V30 11247 O 2015.26 -7.79239 -4.12957 0
M  V30 11248 O 2014.72 -5.63315 -5.29344 0
M  V30 11249 C 2013.78 -4.80255 -6.01876 0
M  V30 11250 C 2014.51 -3.64202 -6.65911 0
M  V30 11251 O 2014.72 -2.60694 -5.64732 0
M  V30 11252 C 2015.91 -3.93473 -7.1943 0
M  V30 11253 O 2016.3 -3.02071 -8.21205 0
M  V30 11254 C 2016.79 -3.73047 -5.97036 0
M  V30 11255 C 2016.08 -2.58828 -5.25741 0
M  V30 11256 N 2016.13 -2.68068 -3.77503 0
M  V30 11257 H 2013.29 -5.40332 -6.79951 0
M  V30 11258 H 2013.02 -4.41613 -5.32378 0
M  V30 11259 H 2013.89 -3.26331 -7.47797 0
M  V30 11260 P 2017.85 -2.75334 -8.47391 0
M  V30 11261 O 2018.07 -2.44619 -9.90336 0
M  V30 11262 O 2018.64 -3.87776 -7.92294 0
M  V30 11263 O 2018.1 -1.4459 -7.59357 0
M  V30 11264 C 2017.16 -0.347653 -7.69315 0
M  V30 11265 C 2017.89 0.96767 -7.52806 0
M  V30 11266 O 2018.1 1.21055 -6.10208 0
M  V30 11267 C 2019.29 1.04557 -8.13408 0
M  V30 11268 O 2019.68 2.38311 -8.41922 0
M  V30 11269 C 2020.17 0.491279 -7.02284 0
M  V30 11270 C 2019.46 0.996264 -5.77469 0
M  V30 11271 N 2019.51 0.0501916 -4.62973 0
M  V30 11272 H 2016.67 -0.374765 -8.67791 0
M  V30 11273 H 2016.4 -0.443613 -6.90476 0
M  V30 11274 H 2017.27 1.75559 -7.96891 0
M  V30 11275 H 2019.92 1.94563 -5.46818 0
M  V30 11276 H 2020.2 -0.608651 -7.04676 0
M  V30 11277 H 2021.19 0.889796 -7.09039 0
M  V30 11278 H 2019.36 0.433128 -9.04664 0
M  V30 11279 P 2021.23 2.75334 -8.47391 0
M  V30 11280 O 2021.45 3.84128 -9.44797 0
M  V30 11281 O 2022.02 1.51947 -8.68712 0
M  V30 11282 O 2021.48 3.29363 -6.99321 0
M  V30 11283 C 2020.54 4.24011 -6.4274 0
M  V30 11284 C 2021.27 5.20775 -5.52155 0
M  V30 11285 O 2021.48 4.56534 -4.22446 0
M  V30 11286 C 2022.67 5.62629 -5.96531 0
M  V30 11287 O 2023.06 6.87667 -5.41053 0
M  V30 11288 C 2023.55 4.52537 -5.39283 0
M  V30 11289 C 2022.84 4.20027 -4.08623 0
M  V30 11290 N 2022.89 2.76189 -3.71603 0
M  V30 11291 H 2020.05 4.797 -7.24003 0
M  V30 11292 H 2019.78 3.69856 -5.84513 0
M  V30 11293 H 2020.65 6.10356 -5.41441 0
M  V30 11294 P 2024.61 7.20834 -5.23717 0
M  V30 11295 O 2024.83 8.66104 -5.38572 0
M  V30 11296 O 2025.4 6.33544 -6.1349 0
M  V30 11297 O 2024.86 6.7751 -3.72168 0
M  V30 11298 C 2023.92 7.20825 -2.7076 0
M  V30 11299 C 2024.65 7.45864 -1.40599 0
M  V30 11300 O 2024.86 6.17651 -0.734225 0
M  V30 11301 C 2026.05 8.05808 -1.51899 0
M  V30 11302 O 2026.44 8.74358 -0.335205 0
M  V30 11303 C 2026.93 6.83093 -1.70294 0
M  V30 11304 C 2026.22 5.79992 -0.836974 0
M  V30 11305 N 2026.27 4.41864 -1.38293 0
M  V30 11306 H 2023.43 8.13644 -3.0377 0
M  V30 11307 H 2023.16 6.42788 -2.55485 0
M  V30 11308 H 2024.03 8.12039 -0.792769 0
M  V30 11309 P 2027.99 8.91 -3.17856e-11 0
M  V30 11310 O 2028.21 10.1726 0.733694 0
M  V30 11311 O 2028.78 8.73148 -1.23936 0
M  V30 11312 O 2028.24 7.66872 0.971405 0
M  V30 11313 C 2027.3 7.42309 2.04641 0
M  V30 11314 C 2028.03 6.86059 3.24661 0
M  V30 11315 O 2028.24 5.42847 3.03646 0
M  V30 11316 C 2029.43 7.41196 3.50753 0
M  V30 11317 O 2029.82 7.27073 4.86816 0
M  V30 11318 C 2030.31 6.5273 2.63741 0
M  V30 11319 C 2029.6 5.1842 2.73198 0
M  V30 11320 N 2029.65 4.38762 1.4784 0
M  V30 11321 H 2026.81 8.36803 2.32493 0
M  V30 11322 H 2026.54 6.70197 1.71129 0
M  V30 11323 H 2027.41 7.03551 4.13168 0
M  V30 11324 P 2031.37 7.20834 5.23717 0
M  V30 11325 O 2031.59 7.7993 6.57351 0
M  V30 11326 O 2032.16 7.79328 4.13004 0
M  V30 11327 O 2031.62 5.63315 5.29344 0
M  V30 11328 C 2030.68 4.80193 6.01798 0
M  V30 11329 C 2031.41 3.64202 6.65911 0
M  V30 11330 O 2031.62 2.60694 5.64732 0
M  V30 11331 C 2032.81 3.93473 7.1943 0
M  V30 11332 O 2033.2 3.02071 8.21205 0
M  V30 11333 C 2033.69 3.73047 5.97036 0
M  V30 11334 C 2032.98 2.58828 5.25741 0
M  V30 11335 N 2033.03 2.6801 3.77422 0
M  V30 11336 C 2033.18 1.50443 3.07133 0
M  V30 11337 O 2033.27 0.419406 3.61576 0
M  V30 11338 N 2033.22 1.6403 1.69677 0
M  V30 11339 C 2033.13 2.81206 0.986255 0
M  V30 11340 O 2033.18 2.80892 -0.249754 0
M  V30 11341 C 2032.98 3.99158 1.80325 0
M  V30 11342 C 2032.87 5.29309 1.06921 0
M  V30 11343 C 2032.93 3.89779 3.1476 0
M  V30 11344 H 2030.19 5.40332 6.79951 0
M  V30 11345 H 2029.92 4.41549 5.32301 0
M  V30 11346 H 2030.79 3.26331 7.47797 0
M  V30 11347 H 2033.44 1.6395 5.56554 0
M  V30 11348 H 2033.72 4.63439 5.3432 0
M  V30 11349 H 2034.71 3.44728 6.25838 0
M  V30 11350 H 2032.88 4.96652 7.57263 0
M  V30 11351 H 2032.81 4.80159 3.74441 0
M  V30 11352 H 2033.84 5.81459 1.09608 0
M  V30 11353 H 2032.1 5.9187 1.54487 0
M  V30 11354 H 2032.59 5.10095 0.0220288 0
M  V30 11355 H 2033.32 0.798962 1.16664 0
M  V30 11356 P 2034.75 2.75334 8.47391 0
M  V30 11357 O 2034.97 2.44571 9.90142 0
M  V30 11358 O 2035.54 3.87688 7.92115 0
M  V30 11359 O 2035 1.4459 7.59357 0
M  V30 11360 C 2034.06 0.347608 7.69215 0
M  V30 11361 C 2034.79 -0.96767 7.52806 0
M  V30 11362 O 2035 -1.21036 6.1011 0
M  V30 11363 C 2036.19 -1.04544 8.13308 0
M  V30 11364 O 2036.58 -2.38311 8.41922 0
M  V30 11365 C 2037.07 -0.491279 7.02284 0
M  V30 11366 C 2036.36 -0.996264 5.77469 0
M  V30 11367 N 2036.41 -0.0501916 4.62973 0
M  V30 11368 H 2033.57 0.374722 8.67691 0
M  V30 11369 H 2033.3 0.443485 6.90277 0
M  V30 11370 H 2034.17 -1.75537 7.96793 0
M  V30 11371 P 2038.13 -2.75334 8.47391 0
M  V30 11372 O 2038.35 -3.84128 9.44797 0
M  V30 11373 O 2038.92 -1.51947 8.68712 0
M  V30 11374 O 2038.38 -3.29363 6.99321 0
M  V30 11375 C 2037.44 -4.24011 6.4274 0
M  V30 11376 C 2038.17 -5.20775 5.52155 0
M  V30 11377 O 2038.38 -4.56534 4.22446 0
M  V30 11378 C 2039.57 -5.62629 5.96531 0
M  V30 11379 O 2039.96 -6.87667 5.41053 0
M  V30 11380 C 2040.45 -4.52537 5.39283 0
M  V30 11381 C 2039.74 -4.20027 4.08623 0
M  V30 11382 N 2039.79 -2.76189 3.71603 0
M  V30 11383 H 2036.95 -4.797 7.24003 0
M  V30 11384 H 2036.68 -3.69856 5.84513 0
M  V30 11385 H 2037.55 -6.10356 5.41441 0
M  V30 11386 P 2041.51 -7.20834 5.23717 0
M  V30 11387 O 2041.73 -8.66274 5.38678 0
M  V30 11388 O 2042.3 -6.33687 6.13629 0
M  V30 11389 O 2041.76 -6.7751 3.72168 0
M  V30 11390 C 2040.82 -7.20919 2.70795 0
M  V30 11391 C 2041.55 -7.45864 1.40599 0
M  V30 11392 O 2041.76 -6.17751 0.734343 0
M  V30 11393 C 2042.95 -8.05906 1.51917 0
M  V30 11394 O 2043.34 -8.74358 0.335205 0
M  V30 11395 C 2043.83 -6.83093 1.70294 0
M  V30 11396 C 2043.12 -5.79992 0.836974 0
M  V30 11397 N 2043.17 -4.41864 1.38293 0
M  V30 11398 H 2040.33 -8.13738 3.03804 0
M  V30 11399 H 2040.06 -6.42974 2.55559 0
M  V30 11400 H 2040.93 -8.12139 0.792866 0
M  V30 11401 H 2043.58 -5.80178 -0.160643 0
M  V30 11402 H 2043.86 -6.51379 2.75643 0
M  V30 11403 H 2044.85 -7.01832 1.3448 0
M  V30 11404 H 2043.02 -8.73771 2.38364 0
M  V30 11405 P 2044.89 -8.91 3.28946e-11 0
M  V30 11406 O 2045.11 -10.1726 -0.733694 0
M  V30 11407 O 2045.68 -8.73148 1.23936 0
M  V30 11408 O 2045.14 -7.66872 -0.971405 0
M  V30 11409 C 2044.2 -7.42309 -2.04641 0
M  V30 11410 C 2044.93 -6.86059 -3.24661 0
M  V30 11411 O 2045.14 -5.42847 -3.03646 0
M  V30 11412 C 2046.33 -7.41196 -3.50753 0
M  V30 11413 O 2046.72 -7.27073 -4.86816 0
M  V30 11414 C 2047.21 -6.5273 -2.63741 0
M  V30 11415 C 2046.5 -5.1842 -2.73198 0
M  V30 11416 N 2046.55 -4.38762 -1.4784 0
M  V30 11417 H 2043.71 -8.36803 -2.32493 0
M  V30 11418 H 2043.44 -6.70197 -1.71129 0
M  V30 11419 H 2044.31 -7.03551 -4.13168 0
M  V30 11420 P 2048.27 -7.20834 -5.23717 0
M  V30 11421 O 2048.49 -7.79853 -6.57286 0
M  V30 11422 O 2049.06 -7.79239 -4.12957 0
M  V30 11423 O 2048.52 -5.63315 -5.29344 0
M  V30 11424 C 2047.58 -4.80255 -6.01876 0
M  V30 11425 C 2048.31 -3.64202 -6.65911 0
M  V30 11426 O 2048.52 -2.60694 -5.64732 0
M  V30 11427 C 2049.71 -3.93473 -7.1943 0
M  V30 11428 O 2050.1 -3.02071 -8.21205 0
M  V30 11429 C 2050.59 -3.73047 -5.97036 0
M  V30 11430 C 2049.88 -2.58828 -5.25741 0
M  V30 11431 N 2049.93 -2.68068 -3.77503 0
M  V30 11432 H 2047.09 -5.40332 -6.79951 0
M  V30 11433 H 2046.82 -4.41613 -5.32378 0
M  V30 11434 H 2047.69 -3.26331 -7.47797 0
M  V30 11435 P 2051.65 -2.75334 -8.47391 0
M  V30 11436 O 2051.87 -2.44619 -9.90336 0
M  V30 11437 O 2052.44 -3.87776 -7.92294 0
M  V30 11438 O 2051.9 -1.4459 -7.59357 0
M  V30 11439 C 2050.96 -0.347653 -7.69315 0
M  V30 11440 C 2051.69 0.96767 -7.52806 0
M  V30 11441 O 2051.9 1.21055 -6.10208 0
M  V30 11442 C 2053.09 1.04557 -8.13408 0
M  V30 11443 O 2053.48 2.38311 -8.41922 0
M  V30 11444 C 2053.97 0.491279 -7.02284 0
M  V30 11445 C 2053.26 0.996264 -5.77469 0
M  V30 11446 N 2053.31 0.0501916 -4.62973 0
M  V30 11447 H 2050.47 -0.374765 -8.67791 0
M  V30 11448 H 2050.2 -0.443613 -6.90476 0
M  V30 11449 H 2051.07 1.75559 -7.96891 0
M  V30 11450 H 2053.72 1.94563 -5.46818 0
M  V30 11451 H 2054 -0.608651 -7.04676 0
M  V30 11452 H 2054.99 0.889796 -7.09039 0
M  V30 11453 H 2053.16 0.433128 -9.04664 0
M  V30 11454 P 2055.03 2.75334 -8.47391 0
M  V30 11455 O 2055.25 3.84128 -9.44797 0
M  V30 11456 O 2055.82 1.51947 -8.68712 0
M  V30 11457 O 2055.28 3.29363 -6.99321 0
M  V30 11458 C 2054.34 4.24011 -6.4274 0
M  V30 11459 C 2055.07 5.20775 -5.52155 0
M  V30 11460 O 2055.28 4.56534 -4.22446 0
M  V30 11461 C 2056.47 5.62629 -5.96531 0
M  V30 11462 O 2056.86 6.87667 -5.41053 0
M  V30 11463 C 2057.35 4.52537 -5.39283 0
M  V30 11464 C 2056.64 4.20027 -4.08623 0
M  V30 11465 N 2056.69 2.76189 -3.71603 0
M  V30 11466 H 2053.85 4.797 -7.24003 0
M  V30 11467 H 2053.58 3.69856 -5.84513 0
M  V30 11468 H 2054.45 6.10356 -5.41441 0
M  V30 11469 P 2058.41 7.20834 -5.23717 0
M  V30 11470 O 2058.63 8.66104 -5.38572 0
M  V30 11471 O 2059.2 6.33544 -6.1349 0
M  V30 11472 O 2058.66 6.7751 -3.72168 0
M  V30 11473 C 2057.72 7.20825 -2.7076 0
M  V30 11474 C 2058.45 7.45864 -1.40599 0
M  V30 11475 O 2058.66 6.17651 -0.734225 0
M  V30 11476 C 2059.85 8.05808 -1.51899 0
M  V30 11477 O 2060.24 8.74358 -0.335205 0
M  V30 11478 C 2060.73 6.83093 -1.70294 0
M  V30 11479 C 2060.02 5.79992 -0.836974 0
M  V30 11480 N 2060.07 4.41864 -1.38293 0
M  V30 11481 H 2057.23 8.13644 -3.0377 0
M  V30 11482 H 2056.96 6.42788 -2.55485 0
M  V30 11483 H 2057.83 8.12039 -0.792769 0
M  V30 11484 P 2061.79 8.91 -3.40036e-11 0
M  V30 11485 O 2062.01 10.1726 0.733694 0
M  V30 11486 O 2062.58 8.73148 -1.23936 0
M  V30 11487 O 2062.04 7.66872 0.971405 0
M  V30 11488 C 2061.1 7.42309 2.04641 0
M  V30 11489 C 2061.83 6.86059 3.24661 0
M  V30 11490 O 2062.04 5.42847 3.03646 0
M  V30 11491 C 2063.23 7.41196 3.50753 0
M  V30 11492 O 2063.62 7.27073 4.86816 0
M  V30 11493 C 2064.11 6.5273 2.63741 0
M  V30 11494 C 2063.4 5.1842 2.73198 0
M  V30 11495 N 2063.45 4.38762 1.4784 0
M  V30 11496 H 2060.61 8.36803 2.32493 0
M  V30 11497 H 2060.34 6.70197 1.71129 0
M  V30 11498 H 2061.21 7.03551 4.13168 0
M  V30 11499 P 2065.17 7.20834 5.23717 0
M  V30 11500 O 2065.39 7.7993 6.57351 0
M  V30 11501 O 2065.96 7.79328 4.13004 0
M  V30 11502 O 2065.42 5.63315 5.29344 0
M  V30 11503 C 2064.48 4.80193 6.01798 0
M  V30 11504 C 2065.21 3.64202 6.65911 0
M  V30 11505 O 2065.42 2.60694 5.64732 0
M  V30 11506 C 2066.61 3.93473 7.1943 0
M  V30 11507 O 2067 3.02071 8.21205 0
M  V30 11508 C 2067.49 3.73047 5.97036 0
M  V30 11509 C 2066.78 2.58828 5.25741 0
M  V30 11510 N 2066.83 2.6801 3.77422 0
M  V30 11511 C 2066.98 1.50443 3.07133 0
M  V30 11512 O 2067.07 0.419406 3.61576 0
M  V30 11513 N 2067.02 1.6403 1.69677 0
M  V30 11514 C 2066.93 2.81206 0.986255 0
M  V30 11515 C 2066.78 3.99158 1.80325 0
M  V30 11516 C 2066.73 3.89779 3.1476 0
M  V30 11517 H 2063.99 5.40332 6.79951 0
M  V30 11518 H 2063.72 4.41549 5.32301 0
M  V30 11519 H 2064.59 3.26331 7.47797 0
M  V30 11520 H 2067.24 1.6395 5.56554 0
M  V30 11521 H 2067.52 4.63439 5.3432 0
M  V30 11522 H 2068.51 3.44728 6.25838 0
M  V30 11523 H 2066.68 4.96652 7.57263 0
M  V30 11524 H 2066.61 4.80159 3.74441 0
M  V30 11525 P 2068.55 2.75334 8.47391 0
M  V30 11526 O 2068.77 2.44595 9.90239 0
M  V30 11527 O 2069.34 3.87732 7.92204 0
M  V30 11528 O 2068.8 1.4459 7.59357 0
M  V30 11529 C 2067.86 0.347563 7.69115 0
M  V30 11530 C 2068.59 -0.96767 7.52806 0
M  V30 11531 O 2068.8 -1.21036 6.1011 0
M  V30 11532 C 2069.99 -1.04544 8.13308 0
M  V30 11533 O 2070.38 -2.38311 8.41922 0
M  V30 11534 C 2070.87 -0.491279 7.02284 0
M  V30 11535 C 2070.16 -0.996264 5.77469 0
M  V30 11536 N 2070.21 -0.0501808 4.62873 0
M  V30 11537 C 2070.36 -0.588177 3.36904 0
M  V30 11538 O 2070.45 -1.78598 3.17173 0
M  V30 11539 N 2070.4 0.329694 2.33686 0
M  V30 11540 C 2070.31 1.6953 2.45079 0
M  V30 11541 C 2070.16 2.16933 3.80505 0
M  V30 11542 C 2070.11 1.30326 4.83752 0
M  V30 11543 H 2067.37 0.374722 8.67691 0
M  V30 11544 H 2067.1 0.443421 6.90177 0
M  V30 11545 H 2067.97 -1.75537 7.96793 0
M  V30 11546 H 2070.62 -1.94496 5.46629 0
M  V30 11547 H 2070.9 0.608651 7.04676 0
M  V30 11548 H 2071.89 -0.889672 7.08939 0
M  V30 11549 H 2070.06 -0.43308 9.04564 0
M  V30 11550 H 2069.99 1.68366 5.8516 0
M  V30 11551 P 2071.93 -2.75334 8.47391 0
M  V30 11552 O 2072.15 -3.84128 9.44797 0
M  V30 11553 O 2072.72 -1.51947 8.68712 0
M  V30 11554 O 2072.18 -3.29363 6.99321 0
M  V30 11555 C 2071.24 -4.24011 6.4274 0
M  V30 11556 C 2071.97 -5.20775 5.52155 0
M  V30 11557 O 2072.18 -4.56534 4.22446 0
M  V30 11558 C 2073.37 -5.62629 5.96531 0
M  V30 11559 O 2073.76 -6.87667 5.41053 0
M  V30 11560 C 2074.25 -4.52537 5.39283 0
M  V30 11561 C 2073.54 -4.20027 4.08623 0
M  V30 11562 N 2073.59 -2.76189 3.71603 0
M  V30 11563 H 2070.75 -4.797 7.24003 0
M  V30 11564 H 2070.48 -3.69856 5.84513 0
M  V30 11565 H 2071.35 -6.10356 5.41441 0
M  V30 11566 P 2075.31 -7.20834 5.23717 0
M  V30 11567 O 2075.53 -8.66104 5.38572 0
M  V30 11568 O 2076.1 -6.33544 6.1349 0
M  V30 11569 O 2075.56 -6.7751 3.72168 0
M  V30 11570 C 2074.62 -7.20825 2.7076 0
M  V30 11571 C 2075.35 -7.45864 1.40599 0
M  V30 11572 O 2075.56 -6.17651 0.734225 0
M  V30 11573 C 2076.75 -8.05808 1.51899 0
M  V30 11574 O 2077.14 -8.74358 0.335205 0
M  V30 11575 C 2077.63 -6.83093 1.70294 0
M  V30 11576 C 2076.92 -5.79992 0.836974 0
M  V30 11577 N 2076.97 -4.41864 1.38293 0
M  V30 11578 C 2076.89 -3.99538 2.69438 0
M  V30 11579 N 2076.97 -2.69909 2.84277 0
M  V30 11580 C 2077.11 -2.21719 1.5408 0
M  V30 11581 C 2077.24 -0.891712 1.06628 0
M  V30 11582 O 2077.26 0.161298 1.70137 0
M  V30 11583 N 2077.36 -0.856846 -0.334985 0
M  V30 11584 C 2077.36 -1.9641 -1.15789 0
M  V30 11585 N 2077.49 -1.72708 -2.46522 0
M  V30 11586 N 2077.23 -3.21165 -0.713741 0
M  V30 11587 C 2077.11 -3.26797 0.639748 0
M  V30 11588 H 2074.13 -8.13644 3.0377 0
M  V30 11589 H 2073.86 -6.42788 2.55485 0
M  V30 11590 H 2074.73 -8.12039 0.792769 0
M  V30 11591 H 2077.38 -5.80061 -0.166416 0
M  V30 11592 H 2077.66 -6.51287 2.75604 0
M  V30 11593 H 2078.65 -7.01734 1.34462 0
M  V30 11594 H 2076.82 -8.73674 2.38337 0
M  V30 11595 H 2076.77 -4.68207 3.53221 0
M  V30 11596 H 2077.45 0.0398818 -0.767965 0
M  V30 11597 H 2077.49 -2.50995 -3.13503 0
M  V30 11598 H 2077.59 -0.759148 -2.80716 0
M  V30 11599 P 2078.69 -8.91 3.51126e-11 0
M  V30 11600 O 2078.91 -10.1726 -0.733694 0
M  V30 11601 O 2079.48 -8.73148 1.23936 0
M  V30 11602 O 2078.94 -7.66872 -0.971405 0
M  V30 11603 C 2078 -7.42309 -2.04641 0
M  V30 11604 C 2078.73 -6.86059 -3.24661 0
M  V30 11605 O 2078.94 -5.42847 -3.03646 0
M  V30 11606 C 2080.13 -7.41196 -3.50753 0
M  V30 11607 O 2080.52 -7.27073 -4.86816 0
M  V30 11608 C 2081.01 -6.5273 -2.63741 0
M  V30 11609 C 2080.3 -5.1842 -2.73198 0
M  V30 11610 N 2080.35 -4.38762 -1.4784 0
M  V30 11611 H 2077.51 -8.36803 -2.32493 0
M  V30 11612 H 2077.24 -6.70197 -1.71129 0
M  V30 11613 H 2078.11 -7.03551 -4.13168 0
M  V30 11614 P 2082.07 -7.20834 -5.23717 0
M  V30 11615 O 2082.29 -7.79853 -6.57286 0
M  V30 11616 O 2082.86 -7.79239 -4.12957 0
M  V30 11617 O 2082.32 -5.63315 -5.29344 0
M  V30 11618 C 2081.38 -4.80255 -6.01876 0
M  V30 11619 C 2082.11 -3.64202 -6.65911 0
M  V30 11620 O 2082.32 -2.60694 -5.64732 0
M  V30 11621 C 2083.51 -3.93473 -7.1943 0
M  V30 11622 O 2083.9 -3.02071 -8.21205 0
M  V30 11623 C 2084.39 -3.73047 -5.97036 0
M  V30 11624 C 2083.68 -2.58828 -5.25741 0
M  V30 11625 N 2083.73 -2.68068 -3.77503 0
M  V30 11626 C 2083.65 -3.79715 -2.96723 0
M  V30 11627 N 2083.73 -3.5377 -1.68852 0
M  V30 11628 C 2083.87 -2.15054 -1.63254 0
M  V30 11629 C 2084 -1.28964 -0.518571 0
M  V30 11630 O 2084.02 -1.56826 0.679156 0
M  V30 11631 N 2084.12 0.0538097 -0.918425 0
M  V30 11632 C 2084.12 0.494275 -2.22578 0
M  V30 11633 N 2084.25 1.81086 -2.40434 0
M  V30 11634 N 2083.99 -0.313645 -3.27502 0
M  V30 11635 C 2083.87 -1.61829 -2.91033 0
M  V30 11636 H 2080.89 -5.40332 -6.79951 0
M  V30 11637 H 2080.62 -4.41613 -5.32378 0
M  V30 11638 H 2081.49 -3.26331 -7.47797 0
M  V30 11639 H 2084.14 -1.63422 -5.56814 0
M  V30 11640 H 2084.42 -4.63374 -5.34244 0
M  V30 11641 H 2085.41 -3.44728 -6.25838 0
M  V30 11642 H 2083.58 -4.96652 -7.57263 0
M  V30 11643 H 2083.53 -4.80617 -3.3614 0
M  V30 11644 H 2084.21 0.742702 -0.199384 0
M  V30 11645 H 2084.25 2.20598 -3.35588 0
M  V30 11646 H 2084.35 2.43518 -1.58945 0
M  V30 11647 P 2085.45 -2.75334 -8.47391 0
M  V30 11648 O 2085.67 -2.44595 -9.90239 0
M  V30 11649 O 2086.24 -3.87732 -7.92204 0
M  V30 11650 O 2085.7 -1.4459 -7.59357 0
M  V30 11651 C 2084.76 -0.347563 -7.69115 0
M  V30 11652 C 2085.49 0.96767 -7.52806 0
M  V30 11653 O 2085.7 1.21036 -6.1011 0
M  V30 11654 C 2086.89 1.04544 -8.13308 0
M  V30 11655 O 2087.28 2.38311 -8.41922 0
M  V30 11656 C 2087.77 0.491279 -7.02284 0
M  V30 11657 C 2087.06 0.996264 -5.77469 0
M  V30 11658 N 2087.11 0.0501808 -4.62873 0
M  V30 11659 C 2087.26 0.588177 -3.36904 0
M  V30 11660 O 2087.35 1.78598 -3.17173 0
M  V30 11661 N 2087.3 -0.329694 -2.33686 0
M  V30 11662 C 2087.21 -1.6953 -2.45079 0
M  V30 11663 O 2087.26 -2.41926 -1.44899 0
M  V30 11664 C 2087.06 -2.16933 -3.80505 0
M  V30 11665 C 2086.95 -3.65373 -3.97621 0
M  V30 11666 C 2087.01 -1.30326 -4.83752 0
M  V30 11667 H 2084.27 -0.374722 -8.67691 0
M  V30 11668 H 2084 -0.443421 -6.90177 0
M  V30 11669 H 2084.87 1.75537 -7.96793 0
M  V30 11670 H 2087.52 1.94496 -5.46629 0
M  V30 11671 H 2087.8 -0.608651 -7.04676 0
M  V30 11672 H 2088.79 0.889672 -7.08939 0
M  V30 11673 H 2086.96 0.43308 -9.04564 0
M  V30 11674 H 2086.89 -1.68366 -5.8516 0
M  V30 11675 H 2087.92 -4.05985 -4.30448 0
M  V30 11676 H 2086.18 -3.88028 -4.72875 0
M  V30 11677 H 2086.67 -4.11381 -3.01609 0
M  V30 11678 H 2087.4 0.0393617 -1.41345 0
M  V30 11679 P 2088.83 2.75334 -8.47391 0
M  V30 11680 O 2089.05 3.84128 -9.44797 0
M  V30 11681 O 2089.62 1.51947 -8.68712 0
M  V30 11682 O 2089.08 3.29363 -6.99321 0
M  V30 11683 C 2088.14 4.24011 -6.4274 0
M  V30 11684 C 2088.87 5.20775 -5.52155 0
M  V30 11685 O 2089.08 4.56534 -4.22446 0
M  V30 11686 C 2090.27 5.62629 -5.96531 0
M  V30 11687 O 2090.66 6.87667 -5.41053 0
M  V30 11688 C 2091.15 4.52537 -5.39283 0
M  V30 11689 C 2090.44 4.20027 -4.08623 0
M  V30 11690 N 2090.49 2.76189 -3.71603 0
M  V30 11691 H 2087.65 4.797 -7.24003 0
M  V30 11692 H 2087.38 3.69856 -5.84513 0
M  V30 11693 H 2088.25 6.10356 -5.41441 0
M  V30 11694 P 2092.21 7.20834 -5.23717 0
M  V30 11695 O 2092.43 8.66189 -5.38625 0
M  V30 11696 O 2093 6.33615 -6.1356 0
M  V30 11697 O 2092.46 6.7751 -3.72168 0
M  V30 11698 C 2091.52 7.20732 -2.70725 0
M  V30 11699 C 2092.25 7.45864 -1.40599 0
M  V30 11700 O 2092.46 6.17651 -0.734225 0
M  V30 11701 C 2093.65 8.05808 -1.51899 0
M  V30 11702 O 2094.04 8.74358 -0.335205 0
M  V30 11703 C 2094.53 6.83093 -1.70294 0
M  V30 11704 C 2093.82 5.79992 -0.836974 0
M  V30 11705 N 2093.87 4.41769 -1.38263 0
M  V30 11706 C 2094.02 3.38591 -0.481702 0
M  V30 11707 O 2094.11 3.56839 0.718452 0
M  V30 11708 N 2094.06 2.1206 -1.03569 0
M  V30 11709 C 2093.97 1.80696 -2.36966 0
M  V30 11710 O 2094.02 0.630473 -2.74862 0
M  V30 11711 C 2093.82 2.94845 -3.23898 0
M  V30 11712 C 2093.71 2.65253 -4.70362 0
M  V30 11713 C 2093.77 4.19803 -2.73435 0
M  V30 11714 H 2091.03 8.13644 -3.0377 0
M  V30 11715 H 2090.76 6.42695 -2.55448 0
M  V30 11716 H 2091.63 8.12039 -0.792769 0
M  V30 11717 H 2094.28 5.79978 0.160587 0
M  V30 11718 H 2094.56 6.51379 -2.75643 0
M  V30 11719 H 2095.55 7.01734 -1.34462 0
M  V30 11720 H 2093.72 8.73674 -2.38337 0
M  V30 11721 H 2093.65 5.04492 -3.4095 0
M  V30 11722 H 2094.68 2.83924 -5.1913 0
M  V30 11723 H 2092.94 3.29824 -5.15163 0
M  V30 11724 H 2093.43 1.59723 -4.84449 0
M  V30 11725 H 2094.16 1.35644 -0.399345 0
M  V30 11726 P 2095.59 8.91 -3.62216e-11 0
M  V30 11727 O 2095.81 10.1726 0.733694 0
M  V30 11728 O 2096.38 8.73148 -1.23936 0
M  V30 11729 O 2095.84 7.66872 0.971405 0
M  V30 11730 C 2094.9 7.42309 2.04641 0
M  V30 11731 C 2095.63 6.86059 3.24661 0
M  V30 11732 O 2095.84 5.42847 3.03646 0
M  V30 11733 C 2097.03 7.41196 3.50753 0
M  V30 11734 O 2097.42 7.27073 4.86816 0
M  V30 11735 C 2097.91 6.5273 2.63741 0
M  V30 11736 C 2097.2 5.1842 2.73198 0
M  V30 11737 N 2097.25 4.38762 1.4784 0
M  V30 11738 H 2094.41 8.36803 2.32493 0
M  V30 11739 H 2094.14 6.70197 1.71129 0
M  V30 11740 H 2095.01 7.03551 4.13168 0
M  V30 11741 P 2098.97 7.20834 5.23717 0
M  V30 11742 O 2099.19 7.79853 6.57286 0
M  V30 11743 O 2099.76 7.79239 4.12957 0
M  V30 11744 O 2099.22 5.63315 5.29344 0
M  V30 11745 C 2098.28 4.80255 6.01876 0
M  V30 11746 C 2099.01 3.64202 6.65911 0
M  V30 11747 O 2099.22 2.60694 5.64732 0
M  V30 11748 C 2100.41 3.93473 7.1943 0
M  V30 11749 O 2100.8 3.02071 8.21205 0
M  V30 11750 C 2101.29 3.73047 5.97036 0
M  V30 11751 C 2100.58 2.58828 5.25741 0
M  V30 11752 N 2100.63 2.68068 3.77503 0
M  V30 11753 H 2097.79 5.40332 6.79951 0
M  V30 11754 H 2097.52 4.41613 5.32378 0
M  V30 11755 H 2098.39 3.26331 7.47797 0
M  V30 11756 P 2102.35 2.75334 8.47391 0
M  V30 11757 O 2102.57 2.44571 9.90142 0
M  V30 11758 O 2103.14 3.87688 7.92115 0
M  V30 11759 O 2102.6 1.4459 7.59357 0
M  V30 11760 C 2101.66 0.347608 7.69215 0
M  V30 11761 C 2102.39 -0.96767 7.52806 0
M  V30 11762 O 2102.6 -1.21036 6.1011 0
M  V30 11763 C 2103.79 -1.04544 8.13308 0
M  V30 11764 O 2104.18 -2.38311 8.41922 0
M  V30 11765 C 2104.67 -0.491279 7.02284 0
M  V30 11766 C 2103.96 -0.996264 5.77469 0
M  V30 11767 N 2104.01 -0.0501916 4.62973 0
M  V30 11768 H 2101.17 0.374722 8.67691 0
M  V30 11769 H 2100.9 0.443485 6.90277 0
M  V30 11770 H 2101.77 -1.75537 7.96793 0
M  V30 11771 P 2105.73 -2.75334 8.47391 0
M  V30 11772 O 2105.95 -3.84204 9.44982 0
M  V30 11773 O 2106.52 -1.51982 8.68909 0
M  V30 11774 O 2105.98 -3.29363 6.99321 0
M  V30 11775 C 2105.04 -4.24066 6.42823 0
M  V30 11776 C 2105.77 -5.20775 5.52155 0
M  V30 11777 O 2105.98 -4.56607 4.22514 0
M  V30 11778 C 2107.17 -5.62697 5.96604 0
M  V30 11779 O 2107.56 -6.87667 5.41053 0
M  V30 11780 C 2108.05 -4.52537 5.39283 0
M  V30 11781 C 2107.34 -4.20027 4.08623 0
M  V30 11782 N 2107.39 -2.76189 3.71603 0
M  V30 11783 C 2107.31 -1.66944 4.54297 0
M  V30 11784 N 2107.38 -0.536169 3.91344 0
M  V30 11785 C 2107.53 -0.901569 2.58849 0
M  V30 11786 C 2107.66 -0.146599 1.40236 0
M  V30 11787 N 2107.67 1.18234 1.37046 0
M  V30 11788 N 2107.78 -0.822941 0.249738 0
M  V30 11789 C 2107.77 -2.15179 0.280525 0
M  V30 11790 N 2107.65 -2.96414 1.30822 0
M  V30 11791 C 2107.53 -2.25804 2.44748 0
M  V30 11792 H 2104.55 -4.79756 7.24086 0
M  V30 11793 H 2104.28 -3.69963 5.84682 0
M  V30 11794 H 2105.15 -6.10431 5.41508 0
M  V30 11795 H 2107.8 -4.78816 3.28024 0
M  V30 11796 H 2108.08 -3.64957 6.05871 0
M  V30 11797 H 2109.07 -4.88748 5.21323 0
M  V30 11798 H 2107.24 -5.66789 7.0643 0
M  V30 11799 H 2107.2 -1.74684 5.62396 0
M  V30 11800 H 2107.58 1.71949 2.24394 0
M  V30 11801 H 2107.77 1.67511 0.470742 0
M  V30 11802 H 2107.87 -2.63704 -0.6828 0
M  V30 11803 P 2109.11 -7.20834 5.23717 0
M  V30 11804 O 2109.33 -8.66104 5.38572 0
M  V30 11805 O 2109.9 -6.33544 6.1349 0
M  V30 11806 O 2109.36 -6.7751 3.72168 0
M  V30 11807 C 2108.42 -7.20825 2.7076 0
M  V30 11808 C 2109.15 -7.45864 1.40599 0
M  V30 11809 O 2109.36 -6.17651 0.734225 0
M  V30 11810 C 2110.55 -8.05808 1.51899 0
M  V30 11811 O 2110.94 -8.74358 0.335205 0
M  V30 11812 C 2111.43 -6.83093 1.70294 0
M  V30 11813 C 2110.72 -5.79992 0.836974 0
M  V30 11814 N 2110.77 -4.41864 1.38293 0
M  V30 11815 H 2107.93 -8.13644 3.0377 0
M  V30 11816 H 2107.66 -6.42788 2.55485 0
M  V30 11817 H 2108.53 -8.12039 0.792769 0
M  V30 11818 P 2112.49 -8.91 3.73306e-11 0
M  V30 11819 O 2112.71 -10.1726 -0.733694 0
M  V30 11820 O 2113.28 -8.73148 1.23936 0
M  V30 11821 O 2112.74 -7.66872 -0.971405 0
M  V30 11822 C 2111.8 -7.42309 -2.04641 0
M  V30 11823 C 2112.53 -6.86059 -3.24661 0
M  V30 11824 O 2112.74 -5.42847 -3.03646 0
M  V30 11825 C 2113.93 -7.41196 -3.50753 0
M  V30 11826 O 2114.32 -7.27073 -4.86816 0
M  V30 11827 C 2114.81 -6.5273 -2.63741 0
M  V30 11828 C 2114.1 -5.1842 -2.73198 0
M  V30 11829 N 2114.15 -4.38762 -1.4784 0
M  V30 11830 H 2111.31 -8.36803 -2.32493 0
M  V30 11831 H 2111.04 -6.70197 -1.71129 0
M  V30 11832 H 2111.91 -7.03551 -4.13168 0
M  V30 11833 P 2115.87 -7.20834 -5.23717 0
M  V30 11834 O 2116.09 -7.7993 -6.57351 0
M  V30 11835 O 2116.66 -7.79328 -4.13004 0
M  V30 11836 O 2116.12 -5.63315 -5.29344 0
M  V30 11837 C 2115.18 -4.80193 -6.01798 0
M  V30 11838 C 2115.91 -3.64202 -6.65911 0
M  V30 11839 O 2116.12 -2.60694 -5.64732 0
M  V30 11840 C 2117.31 -3.93473 -7.1943 0
M  V30 11841 O 2117.7 -3.02071 -8.21205 0
M  V30 11842 C 2118.19 -3.73047 -5.97036 0
M  V30 11843 C 2117.48 -2.58828 -5.25741 0
M  V30 11844 N 2117.53 -2.6801 -3.77422 0
M  V30 11845 C 2117.68 -1.50443 -3.07133 0
M  V30 11846 O 2117.77 -0.419406 -3.61576 0
M  V30 11847 N 2117.72 -1.6403 -1.69677 0
M  V30 11848 C 2117.63 -2.81206 -0.986255 0
M  V30 11849 C 2117.48 -3.99158 -1.80325 0
M  V30 11850 C 2117.43 -3.89779 -3.1476 0
M  V30 11851 H 2114.69 -5.40332 -6.79951 0
M  V30 11852 H 2114.42 -4.41549 -5.32301 0
M  V30 11853 H 2115.29 -3.26331 -7.47797 0
M  V30 11854 H 2117.94 -1.6395 -5.56554 0
M  V30 11855 H 2118.22 -4.63439 -5.3432 0
M  V30 11856 H 2119.21 -3.44728 -6.25838 0
M  V30 11857 H 2117.38 -4.96652 -7.57263 0
M  V30 11858 H 2117.31 -4.80159 -3.74441 0
M  V30 11859 P 2119.25 -2.75334 -8.47391 0
M  V30 11860 O 2119.47 -2.44571 -9.90142 0
M  V30 11861 O 2120.04 -3.87688 -7.92115 0
M  V30 11862 O 2119.5 -1.4459 -7.59357 0
M  V30 11863 C 2118.56 -0.347608 -7.69215 0
M  V30 11864 C 2119.29 0.96767 -7.52806 0
M  V30 11865 O 2119.5 1.21036 -6.1011 0
M  V30 11866 C 2120.69 1.04544 -8.13308 0
M  V30 11867 O 2121.08 2.38311 -8.41922 0
M  V30 11868 C 2121.57 0.491279 -7.02284 0
M  V30 11869 C 2120.86 0.996264 -5.77469 0
M  V30 11870 N 2120.91 0.0501916 -4.62973 0
M  V30 11871 H 2118.07 -0.374722 -8.67691 0
M  V30 11872 H 2117.8 -0.443485 -6.90277 0
M  V30 11873 H 2118.67 1.75537 -7.96793 0
M  V30 11874 P 2122.63 2.75334 -8.47391 0
M  V30 11875 O 2122.85 3.84204 -9.44982 0
M  V30 11876 O 2123.42 1.51982 -8.68909 0
M  V30 11877 O 2122.88 3.29363 -6.99321 0
M  V30 11878 C 2121.94 4.24066 -6.42823 0
M  V30 11879 C 2122.67 5.20775 -5.52155 0
M  V30 11880 O 2122.88 4.56607 -4.22514 0
M  V30 11881 C 2124.07 5.62697 -5.96604 0
M  V30 11882 O 2124.46 6.87667 -5.41053 0
M  V30 11883 C 2124.95 4.52537 -5.39283 0
M  V30 11884 C 2124.24 4.20027 -4.08623 0
M  V30 11885 N 2124.29 2.76189 -3.71603 0
M  V30 11886 C 2124.21 1.66944 -4.54297 0
M  V30 11887 N 2124.28 0.536169 -3.91344 0
M  V30 11888 C 2124.43 0.901569 -2.58849 0
M  V30 11889 C 2124.56 0.146599 -1.40236 0
M  V30 11890 N 2124.57 -1.18234 -1.37046 0
M  V30 11891 N 2124.68 0.822941 -0.249738 0
M  V30 11892 C 2124.67 2.15179 -0.280525 0
M  V30 11893 N 2124.55 2.96414 -1.30822 0
M  V30 11894 C 2124.43 2.25804 -2.44748 0
M  V30 11895 H 2121.45 4.79756 -7.24086 0
M  V30 11896 H 2121.18 3.69963 -5.84682 0
M  V30 11897 H 2122.05 6.10431 -5.41508 0
M  V30 11898 H 2124.7 4.78816 -3.28024 0
M  V30 11899 H 2124.98 3.64957 -6.05871 0
M  V30 11900 H 2125.97 4.88748 -5.21323 0
M  V30 11901 H 2124.14 5.66789 -7.0643 0
M  V30 11902 H 2124.1 1.74684 -5.62396 0
M  V30 11903 H 2124.48 -1.71949 -2.24394 0
M  V30 11904 H 2124.67 -1.67511 -0.470742 0
M  V30 11905 H 2124.77 2.63704 0.6828 0
M  V30 11906 P 2126.01 7.20834 -5.23717 0
M  V30 11907 O 2126.23 8.66104 -5.38572 0
M  V30 11908 O 2126.8 6.33544 -6.1349 0
M  V30 11909 O 2126.26 6.7751 -3.72168 0
M  V30 11910 C 2125.32 7.20825 -2.7076 0
M  V30 11911 C 2126.05 7.45864 -1.40599 0
M  V30 11912 O 2126.26 6.17651 -0.734225 0
M  V30 11913 C 2127.45 8.05808 -1.51899 0
M  V30 11914 O 2127.84 8.74358 -0.335205 0
M  V30 11915 C 2128.33 6.83093 -1.70294 0
M  V30 11916 C 2127.62 5.79992 -0.836974 0
M  V30 11917 N 2127.67 4.41864 -1.38293 0
M  V30 11918 H 2124.83 8.13644 -3.0377 0
M  V30 11919 H 2124.56 6.42788 -2.55485 0
M  V30 11920 H 2125.43 8.12039 -0.792769 0
M  V30 11921 P 2129.39 8.91 -3.84396e-11 0
M  V30 11922 O 2129.61 10.1746 0.733838 0
M  V30 11923 O 2130.18 8.73346 -1.23964 0
M  V30 11924 O 2129.64 7.66872 0.971405 0
M  V30 11925 C 2128.7 7.42405 2.04668 0
M  V30 11926 C 2129.43 6.86059 3.24661 0
M  V30 11927 O 2129.64 5.42934 3.03695 0
M  V30 11928 C 2130.83 7.41287 3.50796 0
M  V30 11929 O 2131.22 7.27073 4.86816 0
M  V30 11930 C 2131.71 6.5273 2.63741 0
M  V30 11931 C 2131 5.1842 2.73198 0
M  V30 11932 N 2131.05 4.38762 1.4784 0
M  V30 11933 H 2128.21 8.36899 2.3252 0
M  V30 11934 H 2127.94 6.70391 1.71179 0
M  V30 11935 H 2128.81 7.03638 4.13219 0
M  V30 11936 H 2131.46 4.59931 3.54016 0
M  V30 11937 H 2131.74 6.88995 1.59871 0
M  V30 11938 H 2132.73 6.4684 3.0373 0
M  V30 11939 H 2130.9 8.47002 3.20749 0
M  V30 11940 P 2132.77 7.20834 5.23717 0
M  V30 11941 O 2132.99 7.79853 6.57286 0
M  V30 11942 O 2133.56 7.79239 4.12957 0
M  V30 11943 O 2133.02 5.63315 5.29344 0
M  V30 11944 C 2132.08 4.80255 6.01876 0
M  V30 11945 C 2132.81 3.64202 6.65911 0
M  V30 11946 O 2133.02 2.60694 5.64732 0
M  V30 11947 C 2134.21 3.93473 7.1943 0
M  V30 11948 O 2134.6 3.02071 8.21205 0
M  V30 11949 C 2135.09 3.73047 5.97036 0
M  V30 11950 C 2134.38 2.58828 5.25741 0
M  V30 11951 N 2134.43 2.68068 3.77503 0
M  V30 11952 H 2131.59 5.40332 6.79951 0
M  V30 11953 H 2131.32 4.41613 5.32378 0
M  V30 11954 H 2132.19 3.26331 7.47797 0
M  V30 11955 P 2136.15 2.75334 8.47391 0
M  V30 11956 O 2136.37 2.44571 9.90142 0
M  V30 11957 O 2136.94 3.87688 7.92115 0
M  V30 11958 O 2136.4 1.4459 7.59357 0
M  V30 11959 C 2135.46 0.347608 7.69215 0
M  V30 11960 C 2136.19 -0.96767 7.52806 0
M  V30 11961 O 2136.4 -1.21036 6.1011 0
M  V30 11962 C 2137.59 -1.04544 8.13308 0
M  V30 11963 O 2137.98 -2.38311 8.41922 0
M  V30 11964 C 2138.47 -0.491279 7.02284 0
M  V30 11965 C 2137.76 -0.996264 5.77469 0
M  V30 11966 N 2137.81 -0.0501916 4.62973 0
M  V30 11967 C 2137.73 1.32786 4.63244 0
M  V30 11968 N 2137.81 1.86957 3.44545 0
M  V30 11969 C 2137.95 0.780241 2.58481 0
M  V30 11970 C 2138.08 0.738536 1.17757 0
M  V30 11971 N 2138.2 -0.58337 0.711393 0
M  V30 11972 C 2138.2 -1.70816 1.51017 0
M  V30 11973 N 2138.33 -2.87826 0.880757 0
M  V30 11974 N 2138.07 -1.67126 2.8339 0
M  V30 11975 C 2137.95 -0.401421 3.30572 0
M  V30 11976 H 2134.97 0.374722 8.67691 0
M  V30 11977 H 2134.7 0.443485 6.90277 0
M  V30 11978 H 2135.57 -1.75537 7.96793 0
M  V30 11979 P 2139.53 -2.75334 8.47391 0
M  V30 11980 O 2139.75 -3.84204 9.44982 0
M  V30 11981 O 2140.32 -1.51982 8.68909 0
M  V30 11982 O 2139.78 -3.29363 6.99321 0
M  V30 11983 C 2138.84 -4.24066 6.42823 0
M  V30 11984 C 2139.57 -5.20775 5.52155 0
M  V30 11985 O 2139.78 -4.56607 4.22514 0
M  V30 11986 C 2140.97 -5.62697 5.96604 0
M  V30 11987 O 2141.36 -6.87667 5.41053 0
M  V30 11988 C 2141.85 -4.52537 5.39283 0
M  V30 11989 C 2141.14 -4.20027 4.08623 0
M  V30 11990 N 2141.19 -2.76189 3.71603 0
M  V30 11991 H 2138.35 -4.79756 7.24086 0
M  V30 11992 H 2138.08 -3.69963 5.84682 0
M  V30 11993 H 2138.95 -6.10431 5.41508 0
M  V30 11994 H 2141.6 -4.78816 3.28024 0
M  V30 11995 H 2141.88 -3.64957 6.05871 0
M  V30 11996 H 2142.87 -4.88748 5.21323 0
M  V30 11997 H 2141.04 -5.66789 7.0643 0
M  V30 11998 P 2142.91 -7.20834 5.23717 0
M  V30 11999 O 2143.13 -8.66104 5.38572 0
M  V30 12000 O 2143.7 -6.33544 6.1349 0
M  V30 12001 O 2143.16 -6.7751 3.72168 0
M  V30 12002 C 2142.22 -7.20825 2.7076 0
M  V30 12003 C 2142.95 -7.45864 1.40599 0
M  V30 12004 O 2143.16 -6.17651 0.734225 0
M  V30 12005 C 2144.35 -8.05808 1.51899 0
M  V30 12006 O 2144.74 -8.74358 0.335205 0
M  V30 12007 C 2145.23 -6.83093 1.70294 0
M  V30 12008 C 2144.52 -5.79992 0.836974 0
M  V30 12009 N 2144.57 -4.41864 1.38293 0
M  V30 12010 C 2144.49 -3.99538 2.69438 0
M  V30 12011 N 2144.57 -2.69909 2.84277 0
M  V30 12012 C 2144.71 -2.21719 1.5408 0
M  V30 12013 C 2144.84 -0.891712 1.06628 0
M  V30 12014 N 2144.96 -0.856846 -0.334985 0
M  V30 12015 C 2144.96 -1.9641 -1.15789 0
M  V30 12016 N 2145.09 -1.72708 -2.46522 0
M  V30 12017 N 2144.83 -3.21165 -0.713741 0
M  V30 12018 C 2144.71 -3.26797 0.639748 0
M  V30 12019 H 2141.73 -8.13644 3.0377 0
M  V30 12020 H 2141.46 -6.42788 2.55485 0
M  V30 12021 H 2142.33 -8.12039 0.792769 0
M  V30 12022 P 2146.29 -8.91 3.95487e-11 0
M  V30 12023 O 2146.51 -10.1726 -0.733694 0
M  V30 12024 O 2147.08 -8.73148 1.23936 0
M  V30 12025 O 2146.54 -7.66872 -0.971405 0
M  V30 12026 C 2145.6 -7.42309 -2.04641 0
M  V30 12027 C 2146.33 -6.86059 -3.24661 0
M  V30 12028 O 2146.54 -5.42847 -3.03646 0
M  V30 12029 C 2147.73 -7.41196 -3.50753 0
M  V30 12030 O 2148.12 -7.27073 -4.86816 0
M  V30 12031 C 2148.61 -6.5273 -2.63741 0
M  V30 12032 C 2147.9 -5.1842 -2.73198 0
M  V30 12033 N 2147.95 -4.38762 -1.4784 0
M  V30 12034 H 2145.11 -8.36803 -2.32493 0
M  V30 12035 H 2144.84 -6.70197 -1.71129 0
M  V30 12036 H 2145.71 -7.03551 -4.13168 0
M  V30 12037 P 2149.67 -7.20834 -5.23717 0
M  V30 12038 O 2149.89 -7.79853 -6.57286 0
M  V30 12039 O 2150.46 -7.79239 -4.12957 0
M  V30 12040 O 2149.92 -5.63315 -5.29344 0
M  V30 12041 C 2148.98 -4.80255 -6.01876 0
M  V30 12042 C 2149.71 -3.64202 -6.65911 0
M  V30 12043 O 2149.92 -2.60694 -5.64732 0
M  V30 12044 C 2151.11 -3.93473 -7.1943 0
M  V30 12045 O 2151.5 -3.02071 -8.21205 0
M  V30 12046 C 2151.99 -3.73047 -5.97036 0
M  V30 12047 C 2151.28 -2.58828 -5.25741 0
M  V30 12048 N 2151.33 -2.68068 -3.77503 0
M  V30 12049 H 2148.49 -5.40332 -6.79951 0
M  V30 12050 H 2148.22 -4.41613 -5.32378 0
M  V30 12051 H 2149.09 -3.26331 -7.47797 0
M  V30 12052 P 2153.05 -2.75334 -8.47391 0
M  V30 12053 O 2153.27 -2.44571 -9.90142 0
M  V30 12054 O 2153.84 -3.87688 -7.92115 0
M  V30 12055 O 2153.3 -1.4459 -7.59357 0
M  V30 12056 C 2152.36 -0.347608 -7.69215 0
M  V30 12057 C 2153.09 0.96767 -7.52806 0
M  V30 12058 O 2153.3 1.21036 -6.1011 0
M  V30 12059 C 2154.49 1.04544 -8.13308 0
M  V30 12060 O 2154.88 2.38311 -8.41922 0
M  V30 12061 C 2155.37 0.491279 -7.02284 0
M  V30 12062 C 2154.66 0.996264 -5.77469 0
M  V30 12063 N 2154.71 0.0501916 -4.62973 0
M  V30 12064 H 2151.87 -0.374722 -8.67691 0
M  V30 12065 H 2151.6 -0.443485 -6.90277 0
M  V30 12066 H 2152.47 1.75537 -7.96793 0
M  V30 12067 P 2156.43 2.75334 -8.47391 0
M  V30 12068 O 2156.65 3.84128 -9.44797 0
M  V30 12069 O 2157.22 1.51947 -8.68712 0
M  V30 12070 O 2156.68 3.29363 -6.99321 0
M  V30 12071 C 2155.74 4.24011 -6.4274 0
M  V30 12072 C 2156.47 5.20775 -5.52155 0
M  V30 12073 O 2156.68 4.56534 -4.22446 0
M  V30 12074 C 2157.87 5.62629 -5.96531 0
M  V30 12075 O 2158.26 6.87667 -5.41053 0
M  V30 12076 C 2158.75 4.52537 -5.39283 0
M  V30 12077 C 2158.04 4.20027 -4.08623 0
M  V30 12078 N 2158.09 2.76189 -3.71603 0
M  V30 12079 H 2155.25 4.797 -7.24003 0
M  V30 12080 H 2154.98 3.69856 -5.84513 0
M  V30 12081 H 2155.85 6.10356 -5.41441 0
M  V30 12082 P 2159.81 7.20834 -5.23717 0
M  V30 12083 O 2160.03 8.66189 -5.38625 0
M  V30 12084 O 2160.6 6.33615 -6.1356 0
M  V30 12085 O 2160.06 6.7751 -3.72168 0
M  V30 12086 C 2159.12 7.20732 -2.70725 0
M  V30 12087 C 2159.85 7.45864 -1.40599 0
M  V30 12088 O 2160.06 6.17651 -0.734225 0
M  V30 12089 C 2161.25 8.05808 -1.51899 0
M  V30 12090 O 2161.64 8.74358 -0.335205 0
M  V30 12091 C 2162.13 6.83093 -1.70294 0
M  V30 12092 C 2161.42 5.79992 -0.836974 0
M  V30 12093 N 2161.47 4.41769 -1.38263 0
M  V30 12094 C 2161.62 3.38591 -0.481702 0
M  V30 12095 O 2161.71 3.56839 0.718452 0
M  V30 12096 N 2161.66 2.1206 -1.03569 0
M  V30 12097 C 2161.57 1.80696 -2.36966 0
M  V30 12098 C 2161.42 2.94845 -3.23898 0
M  V30 12099 C 2161.37 4.19803 -2.73435 0
M  V30 12100 H 2158.63 8.13644 -3.0377 0
M  V30 12101 H 2158.36 6.42695 -2.55448 0
M  V30 12102 H 2159.23 8.12039 -0.792769 0
M  V30 12103 H 2161.88 5.79978 0.160587 0
M  V30 12104 H 2162.16 6.51379 -2.75643 0
M  V30 12105 H 2163.15 7.01734 -1.34462 0
M  V30 12106 H 2161.32 8.73674 -2.38337 0
M  V30 12107 H 2161.25 5.04492 -3.4095 0
M  V30 12108 P 2163.19 8.91 -4.06577e-11 0
M  V30 12109 O 2163.41 10.1726 0.733694 0
M  V30 12110 O 2163.98 8.73148 -1.23936 0
M  V30 12111 O 2163.44 7.66872 0.971405 0
M  V30 12112 C 2162.5 7.42309 2.04641 0
M  V30 12113 C 2163.23 6.86059 3.24661 0
M  V30 12114 O 2163.44 5.42847 3.03646 0
M  V30 12115 C 2164.63 7.41196 3.50753 0
M  V30 12116 O 2165.02 7.27073 4.86816 0
M  V30 12117 C 2165.51 6.5273 2.63741 0
M  V30 12118 C 2164.8 5.1842 2.73198 0
M  V30 12119 N 2164.85 4.38762 1.4784 0
M  V30 12120 H 2162.01 8.36803 2.32493 0
M  V30 12121 H 2161.74 6.70197 1.71129 0
M  V30 12122 H 2162.61 7.03551 4.13168 0
M  V30 12123 P 2166.57 7.20834 5.23717 0
M  V30 12124 O 2166.79 7.79853 6.57286 0
M  V30 12125 O 2167.36 7.79239 4.12957 0
M  V30 12126 O 2166.82 5.63315 5.29344 0
M  V30 12127 C 2165.88 4.80255 6.01876 0
M  V30 12128 C 2166.61 3.64202 6.65911 0
M  V30 12129 O 2166.82 2.60694 5.64732 0
M  V30 12130 C 2168.01 3.93473 7.1943 0
M  V30 12131 O 2168.4 3.02071 8.21205 0
M  V30 12132 C 2168.89 3.73047 5.97036 0
M  V30 12133 C 2168.18 2.58828 5.25741 0
M  V30 12134 N 2168.23 2.68068 3.77503 0
M  V30 12135 C 2168.15 3.79715 2.96723 0
M  V30 12136 N 2168.23 3.5377 1.68852 0
M  V30 12137 C 2168.37 2.15054 1.63254 0
M  V30 12138 C 2168.5 1.28964 0.518571 0
M  V30 12139 O 2168.52 1.56826 -0.679156 0
M  V30 12140 N 2168.62 -0.0538097 0.918425 0
M  V30 12141 C 2168.62 -0.494275 2.22578 0
M  V30 12142 N 2168.75 -1.81086 2.40434 0
M  V30 12143 N 2168.49 0.313645 3.27502 0
M  V30 12144 C 2168.37 1.61829 2.91033 0
M  V30 12145 H 2165.39 5.40332 6.79951 0
M  V30 12146 H 2165.12 4.41613 5.32378 0
M  V30 12147 H 2165.99 3.26331 7.47797 0
M  V30 12148 H 2168.64 1.63422 5.56814 0
M  V30 12149 H 2168.92 4.63374 5.34244 0
M  V30 12150 H 2169.91 3.44728 6.25838 0
M  V30 12151 H 2168.08 4.96652 7.57263 0
M  V30 12152 H 2168.03 4.80617 3.3614 0
M  V30 12153 H 2168.71 -0.742702 0.199384 0
M  V30 12154 H 2168.75 -2.20598 3.35588 0
M  V30 12155 H 2168.85 -2.43518 1.58945 0
M  V30 12156 P 2169.95 2.75334 8.47391 0
M  V30 12157 O 2170.17 2.44571 9.90142 0
M  V30 12158 O 2170.74 3.87688 7.92115 0
M  V30 12159 O 2170.2 1.4459 7.59357 0
M  V30 12160 C 2169.26 0.347608 7.69215 0
M  V30 12161 C 2169.99 -0.96767 7.52806 0
M  V30 12162 O 2170.2 -1.21036 6.1011 0
M  V30 12163 C 2171.39 -1.04544 8.13308 0
M  V30 12164 O 2171.78 -2.38311 8.41922 0
M  V30 12165 C 2172.27 -0.491279 7.02284 0
M  V30 12166 C 2171.56 -0.996264 5.77469 0
M  V30 12167 N 2171.61 -0.0501916 4.62973 0
M  V30 12168 H 2168.77 0.374722 8.67691 0
M  V30 12169 H 2168.5 0.443485 6.90277 0
M  V30 12170 H 2169.37 -1.75537 7.96793 0
M  V30 12171 P 2173.33 -2.75334 8.47391 0
M  V30 12172 O 2173.55 -3.84128 9.44797 0
M  V30 12173 O 2174.12 -1.51947 8.68712 0
M  V30 12174 O 2173.58 -3.29363 6.99321 0
M  V30 12175 C 2172.64 -4.24011 6.4274 0
M  V30 12176 C 2173.37 -5.20775 5.52155 0
M  V30 12177 O 2173.58 -4.56534 4.22446 0
M  V30 12178 C 2174.77 -5.62629 5.96531 0
M  V30 12179 O 2175.16 -6.87667 5.41053 0
M  V30 12180 C 2175.65 -4.52537 5.39283 0
M  V30 12181 C 2174.94 -4.20027 4.08623 0
M  V30 12182 N 2174.99 -2.76189 3.71603 0
M  V30 12183 H 2172.15 -4.797 7.24003 0
M  V30 12184 H 2171.88 -3.69856 5.84513 0
M  V30 12185 H 2172.75 -6.10356 5.41441 0
M  V30 12186 P 2176.71 -7.20834 5.23717 0
M  V30 12187 O 2176.93 -8.66104 5.38572 0
M  V30 12188 O 2177.5 -6.33544 6.1349 0
M  V30 12189 O 2176.96 -6.7751 3.72168 0
M  V30 12190 C 2176.02 -7.20825 2.7076 0
M  V30 12191 C 2176.75 -7.45864 1.40599 0
M  V30 12192 O 2176.96 -6.17651 0.734225 0
M  V30 12193 C 2178.15 -8.05808 1.51899 0
M  V30 12194 O 2178.54 -8.74358 0.335205 0
M  V30 12195 C 2179.03 -6.83093 1.70294 0
M  V30 12196 C 2178.32 -5.79992 0.836974 0
M  V30 12197 N 2178.37 -4.41864 1.38293 0
M  V30 12198 H 2175.53 -8.13644 3.0377 0
M  V30 12199 H 2175.26 -6.42788 2.55485 0
M  V30 12200 H 2176.13 -8.12039 0.792769 0
M  V30 12201 P 2180.09 -8.91 4.17667e-11 0
M  V30 12202 O 2180.31 -10.1726 -0.733694 0
M  V30 12203 O 2180.88 -8.73148 1.23936 0
M  V30 12204 O 2180.34 -7.66872 -0.971405 0
M  V30 12205 C 2179.4 -7.42309 -2.04641 0
M  V30 12206 C 2180.13 -6.86059 -3.24661 0
M  V30 12207 O 2180.34 -5.42847 -3.03646 0
M  V30 12208 C 2181.53 -7.41196 -3.50753 0
M  V30 12209 O 2181.92 -7.27073 -4.86816 0
M  V30 12210 C 2182.41 -6.5273 -2.63741 0
M  V30 12211 C 2181.7 -5.1842 -2.73198 0
M  V30 12212 N 2181.75 -4.38762 -1.4784 0
M  V30 12213 H 2178.91 -8.36803 -2.32493 0
M  V30 12214 H 2178.64 -6.70197 -1.71129 0
M  V30 12215 H 2179.51 -7.03551 -4.13168 0
M  V30 12216 P 2183.47 -7.20834 -5.23717 0
M  V30 12217 O 2183.69 -7.80006 -6.57415 0
M  V30 12218 O 2184.26 -7.79416 -4.13051 0
M  V30 12219 O 2183.72 -5.63315 -5.29344 0
M  V30 12220 C 2182.78 -4.80318 -6.01954 0
M  V30 12221 C 2183.51 -3.64202 -6.65911 0
M  V30 12222 O 2183.72 -2.60736 -5.64823 0
M  V30 12223 C 2184.91 -3.93521 -7.19518 0
M  V30 12224 O 2185.3 -3.02071 -8.21205 0
M  V30 12225 C 2185.79 -3.73047 -5.97036 0
M  V30 12226 C 2185.08 -2.58828 -5.25741 0
M  V30 12227 N 2185.13 -2.68068 -3.77503 0
M  V30 12228 C 2185.05 -3.80474 -2.99159 0
M  V30 12229 N 2185.12 -3.55622 -1.71925 0
M  V30 12230 C 2185.27 -2.1832 -1.65733 0
M  V30 12231 C 2185.4 -1.28842 -0.572777 0
M  V30 12232 N 2185.41 -1.66875 0.70098 0
M  V30 12233 N 2185.52 0.016788 -0.859836 0
M  V30 12234 C 2185.51 0.398145 -2.13316 0
M  V30 12235 N 2185.39 -0.328224 -3.22333 0
M  V30 12236 C 2185.27 -1.62992 -2.90383 0
M  V30 12237 H 2182.29 -5.40394 -6.8003 0
M  V30 12238 H 2182.02 -4.41741 -5.32532 0
M  V30 12239 H 2182.89 -3.26371 -7.47889 0
M  V30 12240 H 2185.54 -1.64007 -5.56746 0
M  V30 12241 H 2185.82 -4.63439 -5.3432 0
M  V30 12242 H 2186.81 -3.44776 -6.25925 0
M  V30 12243 H 2184.98 -4.96707 -7.57347 0
M  V30 12244 H 2184.94 -4.8089 -3.39924 0
M  V30 12245 H 2185.32 -2.66547 0.941919 0
M  V30 12246 H 2185.51 -0.965341 1.44766 0
M  V30 12247 H 2185.61 1.46427 -2.29697 0
M  V30 12248 P 2186.85 -2.75334 -8.47391 0
M  V30 12249 O 2187.07 -2.44619 -9.90336 0
M  V30 12250 O 2187.64 -3.87776 -7.92294 0
M  V30 12251 O 2187.1 -1.4459 -7.59357 0
M  V30 12252 C 2186.16 -0.347653 -7.69315 0
M  V30 12253 C 2186.89 0.96767 -7.52806 0
M  V30 12254 O 2187.1 1.21055 -6.10208 0
M  V30 12255 C 2188.29 1.04557 -8.13408 0
M  V30 12256 O 2188.68 2.38311 -8.41922 0
M  V30 12257 C 2189.17 0.491279 -7.02284 0
M  V30 12258 C 2188.46 0.996264 -5.77469 0
M  V30 12259 N 2188.51 0.0501916 -4.62973 0
M  V30 12260 C 2188.43 -1.31969 -4.65661 0
M  V30 12261 N 2188.5 -1.86649 -3.48119 0
M  V30 12262 C 2188.65 -0.792089 -2.62406 0
M  V30 12263 C 2188.78 -0.705684 -1.2207 0
M  V30 12264 N 2188.79 -1.76207 -0.413762 0
M  V30 12265 N 2188.9 0.518981 -0.685754 0
M  V30 12266 C 2188.89 1.57595 -1.49174 0
M  V30 12267 N 2188.77 1.62909 -2.80066 0
M  V30 12268 C 2188.65 0.388195 -3.3073 0
M  V30 12269 H 2185.67 -0.374765 -8.67791 0
M  V30 12270 H 2185.4 -0.443613 -6.90476 0
M  V30 12271 H 2186.27 1.75559 -7.96891 0
M  V30 12272 H 2188.92 1.94563 -5.46818 0
M  V30 12273 H 2189.2 -0.608651 -7.04676 0
M  V30 12274 H 2190.19 0.889796 -7.09039 0
M  V30 12275 H 2188.36 0.433128 -9.04664 0
M  V30 12276 H 2188.32 -1.89246 -5.57664 0
M  V30 12277 H 2188.7 -2.71005 -0.804694 0
M  V30 12278 H 2188.89 -1.63189 0.603768 0
M  V30 12279 H 2188.99 2.53475 -0.997614 0
M  V30 12280 P 2190.23 2.75334 -8.47391 0
M  V30 12281 O 2190.45 3.84128 -9.44797 0
M  V30 12282 O 2191.02 1.51947 -8.68712 0
M  V30 12283 O 2190.48 3.29363 -6.99321 0
M  V30 12284 C 2189.54 4.24011 -6.4274 0
M  V30 12285 C 2190.27 5.20775 -5.52155 0
M  V30 12286 O 2190.48 4.56534 -4.22446 0
M  V30 12287 C 2191.67 5.62629 -5.96531 0
M  V30 12288 O 2192.06 6.87667 -5.41053 0
M  V30 12289 C 2192.55 4.52537 -5.39283 0
M  V30 12290 C 2191.84 4.20027 -4.08623 0
M  V30 12291 N 2191.89 2.76189 -3.71603 0
M  V30 12292 H 2189.05 4.797 -7.24003 0
M  V30 12293 H 2188.78 3.69856 -5.84513 0
M  V30 12294 H 2189.65 6.10356 -5.41441 0
M  V30 12295 P 2193.61 7.20834 -5.23717 0
M  V30 12296 O 2193.83 8.66104 -5.38572 0
M  V30 12297 O 2194.4 6.33544 -6.1349 0
M  V30 12298 O 2193.86 6.7751 -3.72168 0
M  V30 12299 C 2192.92 7.20825 -2.7076 0
M  V30 12300 C 2193.65 7.45864 -1.40599 0
M  V30 12301 O 2193.86 6.17651 -0.734225 0
M  V30 12302 C 2195.05 8.05808 -1.51899 0
M  V30 12303 O 2195.44 8.74358 -0.335205 0
M  V30 12304 C 2195.93 6.83093 -1.70294 0
M  V30 12305 C 2195.22 5.79992 -0.836974 0
M  V30 12306 N 2195.27 4.41864 -1.38293 0
M  V30 12307 H 2192.43 8.13644 -3.0377 0
M  V30 12308 H 2192.16 6.42788 -2.55485 0
M  V30 12309 H 2193.03 8.12039 -0.792769 0
M  V30 12310 P 2196.99 8.91 -4.28757e-11 0
M  V30 12311 O 2197.21 10.1726 0.733694 0
M  V30 12312 O 2197.78 8.73148 -1.23936 0
M  V30 12313 O 2197.24 7.66872 0.971405 0
M  V30 12314 C 2196.3 7.42309 2.04641 0
M  V30 12315 C 2197.03 6.86059 3.24661 0
M  V30 12316 O 2197.24 5.42847 3.03646 0
M  V30 12317 C 2198.43 7.41196 3.50753 0
M  V30 12318 O 2198.82 7.27073 4.86816 0
M  V30 12319 C 2199.31 6.5273 2.63741 0
M  V30 12320 C 2198.6 5.1842 2.73198 0
M  V30 12321 N 2198.65 4.38762 1.4784 0
M  V30 12322 H 2195.81 8.36803 2.32493 0
M  V30 12323 H 2195.54 6.70197 1.71129 0
M  V30 12324 H 2196.4 7.03551 4.13168 0
M  V30 12325 P 2200.37 7.20834 5.23717 0
M  V30 12326 O 2200.59 7.80006 6.57415 0
M  V30 12327 O 2201.16 7.79416 4.13051 0
M  V30 12328 O 2200.62 5.63315 5.29344 0
M  V30 12329 C 2199.68 4.80318 6.01954 0
M  V30 12330 C 2200.41 3.64202 6.65911 0
M  V30 12331 O 2200.62 2.60736 5.64823 0
M  V30 12332 C 2201.81 3.93521 7.19518 0
M  V30 12333 O 2202.2 3.02071 8.21205 0
M  V30 12334 C 2202.69 3.73047 5.97036 0
M  V30 12335 C 2201.98 2.58828 5.25741 0
M  V30 12336 N 2202.03 2.68068 3.77503 0
M  V30 12337 C 2201.95 3.80474 2.99159 0
M  V30 12338 N 2202.02 3.55622 1.71925 0
M  V30 12339 C 2202.17 2.1832 1.65733 0
M  V30 12340 C 2202.3 1.28842 0.572777 0
M  V30 12341 N 2202.31 1.66875 -0.70098 0
M  V30 12342 N 2202.42 -0.016788 0.859836 0
M  V30 12343 C 2202.41 -0.398145 2.13316 0
M  V30 12344 N 2202.29 0.328224 3.22333 0
M  V30 12345 C 2202.17 1.62992 2.90383 0
M  V30 12346 H 2199.19 5.40394 6.8003 0
M  V30 12347 H 2198.92 4.41741 5.32532 0
M  V30 12348 H 2199.78 3.26371 7.47889 0
M  V30 12349 H 2202.44 1.64007 5.56746 0
M  V30 12350 H 2202.72 4.63439 5.3432 0
M  V30 12351 H 2203.71 3.44776 6.25925 0
M  V30 12352 H 2201.88 4.96707 7.57347 0
M  V30 12353 H 2201.84 4.8089 3.39924 0
M  V30 12354 H 2202.22 2.66547 -0.941919 0
M  V30 12355 H 2202.41 0.965341 -1.44766 0
M  V30 12356 H 2202.51 -1.46427 2.29697 0
M  V30 12357 P 2203.75 2.75334 8.47391 0
M  V30 12358 O 2203.97 2.44571 9.90142 0
M  V30 12359 O 2204.54 3.87688 7.92115 0
M  V30 12360 O 2204 1.4459 7.59357 0
M  V30 12361 C 2203.06 0.347608 7.69215 0
M  V30 12362 C 2203.79 -0.96767 7.52806 0
M  V30 12363 O 2204 -1.21036 6.1011 0
M  V30 12364 C 2205.19 -1.04544 8.13308 0
M  V30 12365 O 2205.58 -2.38311 8.41922 0
M  V30 12366 C 2206.07 -0.491279 7.02284 0
M  V30 12367 C 2205.36 -0.996264 5.77469 0
M  V30 12368 N 2205.41 -0.0501916 4.62973 0
M  V30 12369 H 2202.57 0.374722 8.67691 0
M  V30 12370 H 2202.3 0.443485 6.90277 0
M  V30 12371 H 2203.16 -1.75537 7.96793 0
M  V30 12372 P 2207.13 -2.75334 8.47391 0
M  V30 12373 O 2207.35 -3.84128 9.44797 0
M  V30 12374 O 2207.92 -1.51947 8.68712 0
M  V30 12375 O 2207.38 -3.29363 6.99321 0
M  V30 12376 C 2206.44 -4.24011 6.4274 0
M  V30 12377 C 2207.17 -5.20775 5.52155 0
M  V30 12378 O 2207.38 -4.56534 4.22446 0
M  V30 12379 C 2208.57 -5.62629 5.96531 0
M  V30 12380 O 2208.96 -6.87667 5.41053 0
M  V30 12381 C 2209.45 -4.52537 5.39283 0
M  V30 12382 C 2208.74 -4.20027 4.08623 0
M  V30 12383 N 2208.79 -2.76189 3.71603 0
M  V30 12384 H 2205.95 -4.797 7.24003 0
M  V30 12385 H 2205.68 -3.69856 5.84513 0
M  V30 12386 H 2206.54 -6.10356 5.41441 0
M  V30 12387 P 2210.51 -7.20834 5.23717 0
M  V30 12388 O 2210.73 -8.66104 5.38572 0
M  V30 12389 O 2211.3 -6.33544 6.1349 0
M  V30 12390 O 2210.76 -6.7751 3.72168 0
M  V30 12391 C 2209.82 -7.20825 2.7076 0
M  V30 12392 C 2210.55 -7.45864 1.40599 0
M  V30 12393 O 2210.76 -6.17651 0.734225 0
M  V30 12394 C 2211.95 -8.05808 1.51899 0
M  V30 12395 O 2212.34 -8.74358 0.335205 0
M  V30 12396 C 2212.83 -6.83093 1.70294 0
M  V30 12397 C 2212.12 -5.79992 0.836974 0
M  V30 12398 N 2212.17 -4.41864 1.38293 0
M  V30 12399 H 2209.33 -8.13644 3.0377 0
M  V30 12400 H 2209.06 -6.42788 2.55485 0
M  V30 12401 H 2209.92 -8.12039 0.792769 0
M  V30 12402 P 2213.89 -8.91 4.39847e-11 0
M  V30 12403 O 2214.11 -10.1726 -0.733694 0
M  V30 12404 O 2214.68 -8.73148 1.23936 0
M  V30 12405 O 2214.14 -7.66872 -0.971405 0
M  V30 12406 C 2213.2 -7.42309 -2.04641 0
M  V30 12407 C 2213.93 -6.86059 -3.24661 0
M  V30 12408 O 2214.14 -5.42847 -3.03646 0
M  V30 12409 C 2215.33 -7.41196 -3.50753 0
M  V30 12410 O 2215.72 -7.27073 -4.86816 0
M  V30 12411 C 2216.21 -6.5273 -2.63741 0
M  V30 12412 C 2215.5 -5.1842 -2.73198 0
M  V30 12413 N 2215.55 -4.38762 -1.4784 0
M  V30 12414 H 2212.71 -8.36803 -2.32493 0
M  V30 12415 H 2212.44 -6.70197 -1.71129 0
M  V30 12416 H 2213.3 -7.03551 -4.13168 0
M  V30 12417 P 2217.27 -7.20834 -5.23717 0
M  V30 12418 O 2217.49 -7.79853 -6.57286 0
M  V30 12419 O 2218.06 -7.79239 -4.12957 0
M  V30 12420 O 2217.52 -5.63315 -5.29344 0
M  V30 12421 C 2216.58 -4.80255 -6.01876 0
M  V30 12422 C 2217.31 -3.64202 -6.65911 0
M  V30 12423 O 2217.52 -2.60694 -5.64732 0
M  V30 12424 C 2218.71 -3.93473 -7.1943 0
M  V30 12425 O 2219.1 -3.02071 -8.21205 0
M  V30 12426 C 2219.59 -3.73047 -5.97036 0
M  V30 12427 C 2218.88 -2.58828 -5.25741 0
M  V30 12428 N 2218.93 -2.68068 -3.77503 0
M  V30 12429 H 2216.09 -5.40332 -6.79951 0
M  V30 12430 H 2215.82 -4.41613 -5.32378 0
M  V30 12431 H 2216.68 -3.26331 -7.47797 0
M  V30 12432 P 2220.65 -2.75334 -8.47391 0
M  V30 12433 O 2220.87 -2.44571 -9.90142 0
M  V30 12434 O 2221.44 -3.87688 -7.92115 0
M  V30 12435 O 2220.9 -1.4459 -7.59357 0
M  V30 12436 C 2219.96 -0.347608 -7.69215 0
M  V30 12437 C 2220.69 0.96767 -7.52806 0
M  V30 12438 O 2220.9 1.21036 -6.1011 0
M  V30 12439 C 2222.09 1.04544 -8.13308 0
M  V30 12440 O 2222.48 2.38311 -8.41922 0
M  V30 12441 C 2222.97 0.491279 -7.02284 0
M  V30 12442 C 2222.26 0.996264 -5.77469 0
M  V30 12443 N 2222.31 0.0501916 -4.62973 0
M  V30 12444 H 2219.47 -0.374722 -8.67691 0
M  V30 12445 H 2219.2 -0.443485 -6.90277 0
M  V30 12446 H 2220.06 1.75537 -7.96793 0
M  V30 12447 P 2224.03 2.75334 -8.47391 0
M  V30 12448 O 2224.25 3.84128 -9.44797 0
M  V30 12449 O 2224.82 1.51947 -8.68712 0
M  V30 12450 O 2224.28 3.29363 -6.99321 0
M  V30 12451 C 2223.34 4.24011 -6.4274 0
M  V30 12452 C 2224.07 5.20775 -5.52155 0
M  V30 12453 O 2224.28 4.56534 -4.22446 0
M  V30 12454 C 2225.47 5.62629 -5.96531 0
M  V30 12455 O 2225.86 6.87667 -5.41053 0
M  V30 12456 C 2226.35 4.52537 -5.39283 0
M  V30 12457 C 2225.64 4.20027 -4.08623 0
M  V30 12458 N 2225.69 2.76189 -3.71603 0
M  V30 12459 H 2222.85 4.797 -7.24003 0
M  V30 12460 H 2222.58 3.69856 -5.84513 0
M  V30 12461 H 2223.44 6.10356 -5.41441 0
M  V30 12462 P 2227.41 7.20834 -5.23717 0
M  V30 12463 O 2227.63 8.66104 -5.38572 0
M  V30 12464 O 2228.2 6.33544 -6.1349 0
M  V30 12465 O 2227.66 6.7751 -3.72168 0
M  V30 12466 C 2226.72 7.20825 -2.7076 0
M  V30 12467 C 2227.45 7.45864 -1.40599 0
M  V30 12468 O 2227.66 6.17651 -0.734225 0
M  V30 12469 C 2228.85 8.05808 -1.51899 0
M  V30 12470 O 2229.24 8.74358 -0.335205 0
M  V30 12471 C 2229.73 6.83093 -1.70294 0
M  V30 12472 C 2229.02 5.79992 -0.836974 0
M  V30 12473 N 2229.07 4.41864 -1.38293 0
M  V30 12474 H 2226.23 8.13644 -3.0377 0
M  V30 12475 H 2225.96 6.42788 -2.55485 0
M  V30 12476 H 2226.82 8.12039 -0.792769 0
M  V30 12477 P 2230.79 8.91 -4.50937e-11 0
M  V30 12478 O 2231.01 10.1726 0.733694 0
M  V30 12479 O 2231.58 8.73148 -1.23936 0
M  V30 12480 O 2231.04 7.66872 0.971405 0
M  V30 12481 C 2230.1 7.42309 2.04641 0
M  V30 12482 C 2230.83 6.86059 3.24661 0
M  V30 12483 O 2231.04 5.42847 3.03646 0
M  V30 12484 C 2232.23 7.41196 3.50753 0
M  V30 12485 O 2232.62 7.27073 4.86816 0
M  V30 12486 C 2233.11 6.5273 2.63741 0
M  V30 12487 C 2232.4 5.1842 2.73198 0
M  V30 12488 N 2232.45 4.38762 1.4784 0
M  V30 12489 C 2232.37 4.81605 0.168631 0
M  V30 12490 N 2232.45 3.85454 -0.713363 0
M  V30 12491 C 2232.59 2.6994 0.0566958 0
M  V30 12492 C 2232.72 1.34815 -0.338502 0
M  V30 12493 N 2232.84 0.496304 0.77465 0
M  V30 12494 C 2232.84 0.908403 2.09122 0
M  V30 12495 N 2232.97 -0.0517805 3.00955 0
M  V30 12496 N 2232.71 2.17875 2.46519 0
M  V30 12497 C 2232.59 3.01988 1.4033 0
M  V30 12498 H 2229.61 8.36803 2.32493 0
M  V30 12499 H 2229.34 6.70197 1.71129 0
M  V30 12500 H 2230.2 7.03551 4.13168 0
M  V30 12501 P 2234.17 7.20834 5.23717 0
M  V30 12502 O 2234.39 7.79853 6.57286 0
M  V30 12503 O 2234.96 7.79239 4.12957 0
M  V30 12504 O 2234.42 5.63315 5.29344 0
M  V30 12505 C 2233.48 4.80255 6.01876 0
M  V30 12506 C 2234.21 3.64202 6.65911 0
M  V30 12507 O 2234.42 2.60694 5.64732 0
M  V30 12508 C 2235.61 3.93473 7.1943 0
M  V30 12509 O 2236 3.02071 8.21205 0
M  V30 12510 C 2236.49 3.73047 5.97036 0
M  V30 12511 C 2235.78 2.58828 5.25741 0
M  V30 12512 N 2235.83 2.68068 3.77503 0
M  V30 12513 H 2232.99 5.40332 6.79951 0
M  V30 12514 H 2232.72 4.41613 5.32378 0
M  V30 12515 H 2233.58 3.26331 7.47797 0
M  V30 12516 P 2237.55 2.75334 8.47391 0
M  V30 12517 O 2237.77 2.44571 9.90142 0
M  V30 12518 O 2238.34 3.87688 7.92115 0
M  V30 12519 O 2237.8 1.4459 7.59357 0
M  V30 12520 C 2236.86 0.347608 7.69215 0
M  V30 12521 C 2237.59 -0.96767 7.52806 0
M  V30 12522 O 2237.8 -1.21036 6.1011 0
M  V30 12523 C 2238.99 -1.04544 8.13308 0
M  V30 12524 O 2239.38 -2.38311 8.41922 0
M  V30 12525 C 2239.87 -0.491279 7.02284 0
M  V30 12526 C 2239.16 -0.996264 5.77469 0
M  V30 12527 N 2239.21 -0.0501916 4.62973 0
M  V30 12528 H 2236.37 0.374722 8.67691 0
M  V30 12529 H 2236.1 0.443485 6.90277 0
M  V30 12530 H 2236.96 -1.75537 7.96793 0
M  V30 12531 P 2240.93 -2.75334 8.47391 0
M  V30 12532 O 2241.15 -3.84204 9.44982 0
M  V30 12533 O 2241.72 -1.51982 8.68909 0
M  V30 12534 O 2241.18 -3.29363 6.99321 0
M  V30 12535 C 2240.24 -4.24066 6.42823 0
M  V30 12536 C 2240.97 -5.20775 5.52155 0
M  V30 12537 O 2241.18 -4.56607 4.22514 0
M  V30 12538 C 2242.37 -5.62697 5.96604 0
M  V30 12539 O 2242.76 -6.87667 5.41053 0
M  V30 12540 C 2243.25 -4.52537 5.39283 0
M  V30 12541 C 2242.54 -4.20027 4.08623 0
M  V30 12542 N 2242.59 -2.76189 3.71603 0
M  V30 12543 H 2239.75 -4.79756 7.24086 0
M  V30 12544 H 2239.48 -3.69963 5.84682 0
M  V30 12545 H 2240.34 -6.10431 5.41508 0
M  V30 12546 H 2243 -4.78816 3.28024 0
M  V30 12547 H 2243.28 -3.64957 6.05871 0
M  V30 12548 H 2244.27 -4.88748 5.21323 0
M  V30 12549 H 2242.44 -5.66789 7.0643 0
M  V30 12550 P 2244.31 -7.20834 5.23717 0
M  V30 12551 O 2244.53 -8.66104 5.38572 0
M  V30 12552 O 2245.1 -6.33544 6.1349 0
M  V30 12553 O 2244.56 -6.7751 3.72168 0
M  V30 12554 C 2243.62 -7.20825 2.7076 0
M  V30 12555 C 2244.35 -7.45864 1.40599 0
M  V30 12556 O 2244.56 -6.17651 0.734225 0
M  V30 12557 C 2245.75 -8.05808 1.51899 0
M  V30 12558 O 2246.14 -8.74358 0.335205 0
M  V30 12559 C 2246.63 -6.83093 1.70294 0
M  V30 12560 C 2245.92 -5.79992 0.836974 0
M  V30 12561 N 2245.97 -4.41864 1.38293 0
M  V30 12562 H 2243.13 -8.13644 3.0377 0
M  V30 12563 H 2242.86 -6.42788 2.55485 0
M  V30 12564 H 2243.72 -8.12039 0.792769 0
M  V30 12565 P 2247.69 -8.91 4.62027e-11 0
M  V30 12566 O 2247.91 -10.1736 -0.733766 0
M  V30 12567 O 2248.48 -8.73247 1.2395 0
M  V30 12568 O 2247.94 -7.66872 -0.971405 0
M  V30 12569 C 2247 -7.42212 -2.04614 0
M  V30 12570 C 2247.73 -6.86059 -3.24661 0
M  V30 12571 O 2247.94 -5.42847 -3.03646 0
M  V30 12572 C 2249.13 -7.41196 -3.50753 0
M  V30 12573 O 2249.52 -7.27073 -4.86816 0
M  V30 12574 C 2250.01 -6.5273 -2.63741 0
M  V30 12575 C 2249.3 -5.1842 -2.73198 0
M  V30 12576 N 2249.35 -4.38668 -1.47808 0
M  V30 12577 C 2249.5 -3.02239 -1.60048 0
M  V30 12578 O 2249.59 -2.46459 -2.67869 0
M  V30 12579 N 2249.54 -2.32436 -0.408571 0
M  V30 12580 C 2249.45 -2.85471 0.854993 0
M  V30 12581 O 2249.5 -2.12566 1.8531 0
M  V30 12582 C 2249.3 -4.28918 0.887335 0
M  V30 12583 C 2249.19 -4.91066 2.24619 0
M  V30 12584 C 2249.25 -5.00349 -0.255399 0
M  V30 12585 H 2246.51 -8.36803 -2.32493 0
M  V30 12586 H 2246.24 -6.701 -1.71105 0
M  V30 12587 H 2247.1 -7.03551 -4.13168 0
M  V30 12588 H 2249.76 -4.59773 -3.53894 0
M  V30 12589 H 2250.04 -6.88995 -1.59871 0
M  V30 12590 H 2251.03 -6.46749 -3.03687 0
M  V30 12591 H 2249.2 -8.46908 -3.20714 0
M  V30 12592 H 2249.13 -6.08548 -0.206986 0
M  V30 12593 H 2250.16 -5.34836 2.53099 0
M  V30 12594 H 2248.42 -5.69638 2.2291 0
M  V30 12595 H 2248.91 -4.13971 2.98044 0
M  V30 12596 H 2249.64 -1.33211 -0.474216 0
M  V30 12597 P 2251.07 -7.20834 -5.23717 0
M  V30 12598 O 2251.29 -7.79853 -6.57286 0
M  V30 12599 O 2251.86 -7.79239 -4.12957 0
M  V30 12600 O 2251.32 -5.63315 -5.29344 0
M  V30 12601 C 2250.38 -4.80255 -6.01876 0
M  V30 12602 C 2251.11 -3.64202 -6.65911 0
M  V30 12603 O 2251.32 -2.60694 -5.64732 0
M  V30 12604 C 2252.51 -3.93473 -7.1943 0
M  V30 12605 O 2252.9 -3.02071 -8.21205 0
M  V30 12606 C 2253.39 -3.73047 -5.97036 0
M  V30 12607 C 2252.68 -2.58828 -5.25741 0
M  V30 12608 N 2252.73 -2.68068 -3.77503 0
M  V30 12609 H 2249.89 -5.40332 -6.79951 0
M  V30 12610 H 2249.62 -4.41613 -5.32378 0
M  V30 12611 H 2250.48 -3.26331 -7.47797 0
M  V30 12612 P 2254.45 -2.75334 -8.47391 0
M  V30 12613 O 2254.67 -2.44571 -9.90142 0
M  V30 12614 O 2255.24 -3.87688 -7.92115 0
M  V30 12615 O 2254.7 -1.4459 -7.59357 0
M  V30 12616 C 2253.76 -0.347608 -7.69215 0
M  V30 12617 C 2254.49 0.96767 -7.52806 0
M  V30 12618 O 2254.7 1.21036 -6.1011 0
M  V30 12619 C 2255.89 1.04544 -8.13308 0
M  V30 12620 O 2256.28 2.38311 -8.41922 0
M  V30 12621 C 2256.77 0.491279 -7.02284 0
M  V30 12622 C 2256.06 0.996264 -5.77469 0
M  V30 12623 N 2256.11 0.0501916 -4.62973 0
M  V30 12624 H 2253.27 -0.374722 -8.67691 0
M  V30 12625 H 2253 -0.443485 -6.90277 0
M  V30 12626 H 2253.86 1.75537 -7.96793 0
M  V30 12627 P 2257.83 2.75334 -8.47391 0
M  V30 12628 O 2258.05 3.84204 -9.44982 0
M  V30 12629 O 2258.62 1.51982 -8.68909 0
M  V30 12630 O 2258.08 3.29363 -6.99321 0
M  V30 12631 C 2257.14 4.24066 -6.42823 0
M  V30 12632 C 2257.87 5.20775 -5.52155 0
M  V30 12633 O 2258.08 4.56607 -4.22514 0
M  V30 12634 C 2259.27 5.62697 -5.96604 0
M  V30 12635 O 2259.66 6.87667 -5.41053 0
M  V30 12636 C 2260.15 4.52537 -5.39283 0
M  V30 12637 C 2259.44 4.20027 -4.08623 0
M  V30 12638 N 2259.49 2.76189 -3.71603 0
M  V30 12639 H 2256.65 4.79756 -7.24086 0
M  V30 12640 H 2256.38 3.69963 -5.84682 0
M  V30 12641 H 2257.24 6.10431 -5.41508 0
M  V30 12642 H 2259.9 4.78816 -3.28024 0
M  V30 12643 H 2260.18 3.64957 -6.05871 0
M  V30 12644 H 2261.17 4.88748 -5.21323 0
M  V30 12645 H 2259.34 5.66789 -7.0643 0
M  V30 12646 P 2261.21 7.20834 -5.23717 0
M  V30 12647 O 2261.43 8.66104 -5.38572 0
M  V30 12648 O 2262 6.33544 -6.1349 0
M  V30 12649 O 2261.46 6.7751 -3.72168 0
M  V30 12650 C 2260.52 7.20825 -2.7076 0
M  V30 12651 C 2261.25 7.45864 -1.40599 0
M  V30 12652 O 2261.46 6.17651 -0.734225 0
M  V30 12653 C 2262.65 8.05808 -1.51899 0
M  V30 12654 O 2263.04 8.74358 -0.335205 0
M  V30 12655 C 2263.53 6.83093 -1.70294 0
M  V30 12656 C 2262.82 5.79992 -0.836974 0
M  V30 12657 N 2262.87 4.41864 -1.38293 0
M  V30 12658 H 2260.03 8.13644 -3.0377 0
M  V30 12659 H 2259.76 6.42788 -2.55485 0
M  V30 12660 H 2260.62 8.12039 -0.792769 0
M  V30 12661 P 2264.59 8.91 -4.73117e-11 0
M  V30 12662 O 2264.81 10.1726 0.733694 0
M  V30 12663 O 2265.38 8.73148 -1.23936 0
M  V30 12664 O 2264.84 7.66872 0.971405 0
M  V30 12665 C 2263.9 7.42309 2.04641 0
M  V30 12666 C 2264.63 6.86059 3.24661 0
M  V30 12667 O 2264.84 5.42847 3.03646 0
M  V30 12668 C 2266.03 7.41196 3.50753 0
M  V30 12669 O 2266.42 7.27073 4.86816 0
M  V30 12670 C 2266.91 6.5273 2.63741 0
M  V30 12671 C 2266.2 5.1842 2.73198 0
M  V30 12672 N 2266.25 4.38762 1.4784 0
M  V30 12673 H 2263.41 8.36803 2.32493 0
M  V30 12674 H 2263.14 6.70197 1.71129 0
M  V30 12675 H 2264 7.03551 4.13168 0
M  V30 12676 P 2267.97 7.20834 5.23717 0
M  V30 12677 O 2268.19 7.79853 6.57286 0
M  V30 12678 O 2268.76 7.79239 4.12957 0
M  V30 12679 O 2268.22 5.63315 5.29344 0
M  V30 12680 C 2267.28 4.80255 6.01876 0
M  V30 12681 C 2268.01 3.64202 6.65911 0
M  V30 12682 O 2268.22 2.60694 5.64732 0
M  V30 12683 C 2269.41 3.93473 7.1943 0
M  V30 12684 O 2269.8 3.02071 8.21205 0
M  V30 12685 C 2270.29 3.73047 5.97036 0
M  V30 12686 C 2269.58 2.58828 5.25741 0
M  V30 12687 N 2269.63 2.68068 3.77503 0
M  V30 12688 C 2269.55 3.79715 2.96723 0
M  V30 12689 N 2269.63 3.5377 1.68852 0
M  V30 12690 C 2269.77 2.15054 1.63254 0
M  V30 12691 C 2269.9 1.28964 0.518571 0
M  V30 12692 N 2270.02 -0.0538097 0.918425 0
M  V30 12693 C 2270.02 -0.494275 2.22578 0
M  V30 12694 N 2270.15 -1.81086 2.40434 0
M  V30 12695 N 2269.89 0.313645 3.27502 0
M  V30 12696 C 2269.77 1.61829 2.91033 0
M  V30 12697 H 2266.79 5.40332 6.79951 0
M  V30 12698 H 2266.52 4.41613 5.32378 0
M  V30 12699 H 2267.38 3.26331 7.47797 0
M  V30 12700 P 2271.35 2.75334 8.47391 0
M  V30 12701 O 2271.57 2.44571 9.90142 0
M  V30 12702 O 2272.14 3.87688 7.92115 0
M  V30 12703 O 2271.6 1.4459 7.59357 0
M  V30 12704 C 2270.66 0.347608 7.69215 0
M  V30 12705 C 2271.39 -0.96767 7.52806 0
M  V30 12706 O 2271.6 -1.21036 6.1011 0
M  V30 12707 C 2272.79 -1.04544 8.13308 0
M  V30 12708 O 2273.18 -2.38311 8.41922 0
M  V30 12709 C 2273.67 -0.491279 7.02284 0
M  V30 12710 C 2272.96 -0.996264 5.77469 0
M  V30 12711 N 2273.01 -0.0501916 4.62973 0
M  V30 12712 C 2272.93 1.32786 4.63244 0
M  V30 12713 N 2273.01 1.86957 3.44545 0
M  V30 12714 C 2273.15 0.780241 2.58481 0
M  V30 12715 C 2273.28 0.738536 1.17757 0
M  V30 12716 N 2273.4 -0.58337 0.711393 0
M  V30 12717 C 2273.4 -1.70816 1.51017 0
M  V30 12718 N 2273.53 -2.87826 0.880757 0
M  V30 12719 N 2273.27 -1.67126 2.8339 0
M  V30 12720 C 2273.15 -0.401421 3.30572 0
M  V30 12721 H 2270.17 0.374722 8.67691 0
M  V30 12722 H 2269.9 0.443485 6.90277 0
M  V30 12723 H 2270.76 -1.75537 7.96793 0
M  V30 12724 P 2274.73 -2.75334 8.47391 0
M  V30 12725 O 2274.95 -3.84128 9.44797 0
M  V30 12726 O 2275.52 -1.51947 8.68712 0
M  V30 12727 O 2274.98 -3.29363 6.99321 0
M  V30 12728 C 2274.04 -4.24011 6.4274 0
M  V30 12729 C 2274.77 -5.20775 5.52155 0
M  V30 12730 O 2274.98 -4.56534 4.22446 0
M  V30 12731 C 2276.17 -5.62629 5.96531 0
M  V30 12732 O 2276.56 -6.87667 5.41053 0
M  V30 12733 C 2277.05 -4.52537 5.39283 0
M  V30 12734 C 2276.34 -4.20027 4.08623 0
M  V30 12735 N 2276.39 -2.76189 3.71603 0
M  V30 12736 H 2273.55 -4.797 7.24003 0
M  V30 12737 H 2273.28 -3.69856 5.84513 0
M  V30 12738 H 2274.14 -6.10356 5.41441 0
M  V30 12739 P 2278.11 -7.20834 5.23717 0
M  V30 12740 O 2278.33 -8.66104 5.38572 0
M  V30 12741 O 2278.9 -6.33544 6.1349 0
M  V30 12742 O 2278.36 -6.7751 3.72168 0
M  V30 12743 C 2277.42 -7.20825 2.7076 0
M  V30 12744 C 2278.15 -7.45864 1.40599 0
M  V30 12745 O 2278.36 -6.17651 0.734225 0
M  V30 12746 C 2279.55 -8.05808 1.51899 0
M  V30 12747 O 2279.94 -8.74358 0.335205 0
M  V30 12748 C 2280.43 -6.83093 1.70294 0
M  V30 12749 C 2279.72 -5.79992 0.836974 0
M  V30 12750 N 2279.77 -4.41864 1.38293 0
M  V30 12751 C 2279.69 -3.99538 2.69438 0
M  V30 12752 N 2279.77 -2.69909 2.84277 0
M  V30 12753 C 2279.91 -2.21719 1.5408 0
M  V30 12754 C 2280.04 -0.891712 1.06628 0
M  V30 12755 N 2280.16 -0.856846 -0.334985 0
M  V30 12756 C 2280.16 -1.9641 -1.15789 0
M  V30 12757 N 2280.29 -1.72708 -2.46522 0
M  V30 12758 N 2280.03 -3.21165 -0.713741 0
M  V30 12759 C 2279.91 -3.26797 0.639748 0
M  V30 12760 H 2276.93 -8.13644 3.0377 0
M  V30 12761 H 2276.66 -6.42788 2.55485 0
M  V30 12762 H 2277.52 -8.12039 0.792769 0
M  V30 12763 P 2281.49 -8.91 4.84207e-11 0
M  V30 12764 O 2281.71 -10.1726 -0.733694 0
M  V30 12765 O 2282.28 -8.73148 1.23936 0
M  V30 12766 O 2281.74 -7.66872 -0.971405 0
M  V30 12767 C 2280.8 -7.42309 -2.04641 0
M  V30 12768 C 2281.53 -6.86059 -3.24661 0
M  V30 12769 O 2281.74 -5.42847 -3.03646 0
M  V30 12770 C 2282.93 -7.41196 -3.50753 0
M  V30 12771 O 2283.32 -7.27073 -4.86816 0
M  V30 12772 C 2283.81 -6.5273 -2.63741 0
M  V30 12773 C 2283.1 -5.1842 -2.73198 0
M  V30 12774 N 2283.15 -4.38762 -1.4784 0
M  V30 12775 H 2280.31 -8.36803 -2.32493 0
M  V30 12776 H 2280.04 -6.70197 -1.71129 0
M  V30 12777 H 2280.9 -7.03551 -4.13168 0
M  V30 12778 P 2284.87 -7.20834 -5.23717 0
M  V30 12779 O 2285.09 -7.79853 -6.57286 0
M  V30 12780 O 2285.66 -7.79239 -4.12957 0
M  V30 12781 O 2285.12 -5.63315 -5.29344 0
M  V30 12782 C 2284.18 -4.80255 -6.01876 0
M  V30 12783 C 2284.91 -3.64202 -6.65911 0
M  V30 12784 O 2285.12 -2.60694 -5.64732 0
M  V30 12785 C 2286.31 -3.93473 -7.1943 0
M  V30 12786 O 2286.7 -3.02071 -8.21205 0
M  V30 12787 C 2287.19 -3.73047 -5.97036 0
M  V30 12788 C 2286.48 -2.58828 -5.25741 0
M  V30 12789 N 2286.53 -2.68068 -3.77503 0
M  V30 12790 H 2283.69 -5.40332 -6.79951 0
M  V30 12791 H 2283.42 -4.41613 -5.32378 0
M  V30 12792 H 2284.28 -3.26331 -7.47797 0
M  V30 12793 P 2288.25 -2.75334 -8.47391 0
M  V30 12794 O 2288.47 -2.44571 -9.90142 0
M  V30 12795 O 2289.04 -3.87688 -7.92115 0
M  V30 12796 O 2288.5 -1.4459 -7.59357 0
M  V30 12797 C 2287.56 -0.347608 -7.69215 0
M  V30 12798 C 2288.29 0.96767 -7.52806 0
M  V30 12799 O 2288.5 1.21036 -6.1011 0
M  V30 12800 C 2289.69 1.04544 -8.13308 0
M  V30 12801 O 2290.08 2.38311 -8.41922 0
M  V30 12802 C 2290.57 0.491279 -7.02284 0
M  V30 12803 C 2289.86 0.996264 -5.77469 0
M  V30 12804 N 2289.91 0.0501916 -4.62973 0
M  V30 12805 H 2287.07 -0.374722 -8.67691 0
M  V30 12806 H 2286.8 -0.443485 -6.90277 0
M  V30 12807 H 2287.66 1.75537 -7.96793 0
M  V30 12808 P 2291.63 2.75334 -8.47391 0
M  V30 12809 O 2291.85 3.84128 -9.44797 0
M  V30 12810 O 2292.42 1.51947 -8.68712 0
M  V30 12811 O 2291.88 3.29363 -6.99321 0
M  V30 12812 C 2290.94 4.24011 -6.4274 0
M  V30 12813 C 2291.67 5.20775 -5.52155 0
M  V30 12814 O 2291.88 4.56534 -4.22446 0
M  V30 12815 C 2293.07 5.62629 -5.96531 0
M  V30 12816 O 2293.46 6.87667 -5.41053 0
M  V30 12817 C 2293.95 4.52537 -5.39283 0
M  V30 12818 C 2293.24 4.20027 -4.08623 0
M  V30 12819 N 2293.29 2.76189 -3.71603 0
M  V30 12820 C 2293.21 1.64862 -4.52822 0
M  V30 12821 N 2293.29 0.512671 -3.88633 0
M  V30 12822 C 2293.43 0.888083 -2.54977 0
M  V30 12823 C 2293.56 0.094668 -1.38677 0
M  V30 12824 O 2293.58 -1.13053 -1.28163 0
M  V30 12825 N 2293.68 0.890102 -0.232633 0
M  V30 12826 C 2293.68 2.26958 -0.21772 0
M  V30 12827 N 2293.81 2.84626 0.97925 0
M  V30 12828 N 2293.55 3.0178 -1.31033 0
M  V30 12829 C 2293.43 2.26781 -2.43843 0
M  V30 12830 H 2290.45 4.797 -7.24003 0
M  V30 12831 H 2290.18 3.69856 -5.84513 0
M  V30 12832 H 2291.04 6.10356 -5.41441 0
M  V30 12833 H 2293.7 4.79061 -3.27488 0
M  V30 12834 H 2293.98 3.64906 -6.05785 0
M  V30 12835 H 2294.97 4.8868 -5.2125 0
M  V30 12836 H 2293.14 5.66726 -7.06352 0
M  V30 12837 H 2293.09 1.71169 -5.60966 0
M  V30 12838 H 2293.77 0.419134 0.644739 0
M  V30 12839 H 2293.81 3.87332 1.06098 0
M  V30 12840 H 2293.91 2.26417 1.82483 0
M  V30 12841 P 2295.01 7.20834 -5.23717 0
M  V30 12842 O 2295.23 8.66104 -5.38572 0
M  V30 12843 O 2295.8 6.33544 -6.1349 0
M  V30 12844 O 2295.26 6.7751 -3.72168 0
M  V30 12845 C 2294.32 7.20825 -2.7076 0
M  V30 12846 C 2295.05 7.45864 -1.40599 0
M  V30 12847 O 2295.26 6.17651 -0.734225 0
M  V30 12848 C 2296.45 8.05808 -1.51899 0
M  V30 12849 O 2296.84 8.74358 -0.335205 0
M  V30 12850 C 2297.33 6.83093 -1.70294 0
M  V30 12851 C 2296.62 5.79992 -0.836974 0
M  V30 12852 N 2296.67 4.41864 -1.38293 0
M  V30 12853 H 2293.83 8.13644 -3.0377 0
M  V30 12854 H 2293.56 6.42788 -2.55485 0
M  V30 12855 H 2294.42 8.12039 -0.792769 0
M  V30 12856 P 2298.39 8.91 -4.95297e-11 0
M  V30 12857 O 2298.61 10.1726 0.733694 0
M  V30 12858 O 2299.18 8.73148 -1.23936 0
M  V30 12859 O 2298.64 7.66872 0.971405 0
M  V30 12860 C 2297.7 7.42309 2.04641 0
M  V30 12861 C 2298.43 6.86059 3.24661 0
M  V30 12862 O 2298.64 5.42847 3.03646 0
M  V30 12863 C 2299.83 7.41196 3.50753 0
M  V30 12864 O 2300.22 7.27073 4.86816 0
M  V30 12865 C 2300.71 6.5273 2.63741 0
M  V30 12866 C 2300 5.1842 2.73198 0
M  V30 12867 N 2300.05 4.38762 1.4784 0
M  V30 12868 H 2297.21 8.36803 2.32493 0
M  V30 12869 H 2296.94 6.70197 1.71129 0
M  V30 12870 H 2297.8 7.03551 4.13168 0
M  V30 12871 P 2301.77 7.20834 5.23717 0
M  V30 12872 O 2301.99 7.79853 6.57286 0
M  V30 12873 O 2302.56 7.79239 4.12957 0
M  V30 12874 O 2302.02 5.63315 5.29344 0
M  V30 12875 C 2301.08 4.80255 6.01876 0
M  V30 12876 C 2301.81 3.64202 6.65911 0
M  V30 12877 O 2302.02 2.60694 5.64732 0
M  V30 12878 C 2303.21 3.93473 7.1943 0
M  V30 12879 O 2303.6 3.02071 8.21205 0
M  V30 12880 C 2304.09 3.73047 5.97036 0
M  V30 12881 C 2303.38 2.58828 5.25741 0
M  V30 12882 N 2303.43 2.68068 3.77503 0
M  V30 12883 H 2300.59 5.40332 6.79951 0
M  V30 12884 H 2300.32 4.41613 5.32378 0
M  V30 12885 H 2301.18 3.26331 7.47797 0
M  V30 12886 P 2305.15 2.75334 8.47391 0
M  V30 12887 O 2305.37 2.44571 9.90142 0
M  V30 12888 O 2305.94 3.87688 7.92115 0
M  V30 12889 O 2305.4 1.4459 7.59357 0
M  V30 12890 C 2304.46 0.347608 7.69215 0
M  V30 12891 C 2305.19 -0.96767 7.52806 0
M  V30 12892 O 2305.4 -1.21036 6.1011 0
M  V30 12893 C 2306.59 -1.04544 8.13308 0
M  V30 12894 O 2306.98 -2.38311 8.41922 0
M  V30 12895 C 2307.47 -0.491279 7.02284 0
M  V30 12896 C 2306.76 -0.996264 5.77469 0
M  V30 12897 N 2306.81 -0.0501916 4.62973 0
M  V30 12898 H 2303.97 0.374722 8.67691 0
M  V30 12899 H 2303.7 0.443485 6.90277 0
M  V30 12900 H 2304.56 -1.75537 7.96793 0
M  V30 12901 P 2308.53 -2.75334 8.47391 0
M  V30 12902 O 2308.75 -3.84166 9.4489 0
M  V30 12903 O 2309.32 -1.51964 8.6881 0
M  V30 12904 O 2308.78 -3.29363 6.99321 0
M  V30 12905 C 2307.84 -4.23956 6.42656 0
M  V30 12906 C 2308.57 -5.20775 5.52155 0
M  V30 12907 O 2308.78 -4.56534 4.22446 0
M  V30 12908 C 2309.97 -5.62629 5.96531 0
M  V30 12909 O 2310.36 -6.87667 5.41053 0
M  V30 12910 C 2310.85 -4.52537 5.39283 0
M  V30 12911 C 2310.14 -4.20027 4.08623 0
M  V30 12912 N 2310.19 -2.7613 3.71522 0
M  V30 12913 C 2310.34 -2.45612 2.37989 0
M  V30 12914 O 2310.43 -3.30919 1.51621 0
M  V30 12915 N 2310.38 -1.10684 2.08435 0
M  V30 12916 C 2310.29 -0.0690084 2.9792 0
M  V30 12917 C 2310.14 -0.481522 4.35345 0
M  V30 12918 C 2310.09 -1.78906 4.67968 0
M  V30 12919 H 2307.35 -4.797 7.24003 0
M  V30 12920 H 2307.08 -3.69802 5.84429 0
M  V30 12921 H 2307.94 -6.10356 5.41441 0
M  V30 12922 H 2310.6 -4.78651 3.27911 0
M  V30 12923 H 2310.88 -3.64957 6.05871 0
M  V30 12924 H 2311.87 -4.8868 5.2125 0
M  V30 12925 H 2310.04 -5.66726 7.06352 0
M  V30 12926 H 2309.97 -2.07737 5.72367 0
M  V30 12927 P 2311.91 -7.20834 5.23717 0
M  V30 12928 O 2312.13 -8.66104 5.38572 0
M  V30 12929 O 2312.7 -6.33544 6.1349 0
M  V30 12930 O 2312.16 -6.7751 3.72168 0
M  V30 12931 C 2311.22 -7.20825 2.7076 0
M  V30 12932 C 2311.95 -7.45864 1.40599 0
M  V30 12933 O 2312.16 -6.17651 0.734225 0
M  V30 12934 C 2313.35 -8.05808 1.51899 0
M  V30 12935 O 2313.74 -8.74358 0.335205 0
M  V30 12936 C 2314.23 -6.83093 1.70294 0
M  V30 12937 C 2313.52 -5.79992 0.836974 0
M  V30 12938 N 2313.57 -4.41864 1.38293 0
M  V30 12939 H 2310.73 -8.13644 3.0377 0
M  V30 12940 H 2310.46 -6.42788 2.55485 0
M  V30 12941 H 2311.32 -8.12039 0.792769 0
M  V30 12942 P 2315.29 -8.91 5.06387e-11 0
M  V30 12943 O 2315.51 -10.1736 -0.733766 0
M  V30 12944 O 2316.08 -8.73247 1.2395 0
M  V30 12945 O 2315.54 -7.66872 -0.971405 0
M  V30 12946 C 2314.6 -7.42212 -2.04614 0
M  V30 12947 C 2315.33 -6.86059 -3.24661 0
M  V30 12948 O 2315.54 -5.42847 -3.03646 0
M  V30 12949 C 2316.73 -7.41196 -3.50753 0
M  V30 12950 O 2317.12 -7.27073 -4.86816 0
M  V30 12951 C 2317.61 -6.5273 -2.63741 0
M  V30 12952 C 2316.9 -5.1842 -2.73198 0
M  V30 12953 N 2316.95 -4.38668 -1.47808 0
M  V30 12954 C 2317.1 -3.02239 -1.60048 0
M  V30 12955 O 2317.19 -2.46459 -2.67869 0
M  V30 12956 N 2317.14 -2.32436 -0.408571 0
M  V30 12957 C 2317.05 -2.85471 0.854993 0
M  V30 12958 C 2316.9 -4.28918 0.887335 0
M  V30 12959 C 2316.85 -5.00349 -0.255399 0
M  V30 12960 H 2314.11 -8.36803 -2.32493 0
M  V30 12961 H 2313.84 -6.701 -1.71105 0
M  V30 12962 H 2314.7 -7.03551 -4.13168 0
M  V30 12963 H 2317.36 -4.59773 -3.53894 0
M  V30 12964 H 2317.64 -6.88995 -1.59871 0
M  V30 12965 H 2318.63 -6.46749 -3.03687 0
M  V30 12966 H 2316.8 -8.46908 -3.20714 0
M  V30 12967 H 2316.73 -6.08548 -0.206986 0
M  V30 12968 P 2318.67 -7.20834 -5.23717 0
M  V30 12969 O 2318.89 -7.79853 -6.57286 0
M  V30 12970 O 2319.46 -7.79239 -4.12957 0
M  V30 12971 O 2318.92 -5.63315 -5.29344 0
M  V30 12972 C 2317.98 -4.80255 -6.01876 0
M  V30 12973 C 2318.71 -3.64202 -6.65911 0
M  V30 12974 O 2318.92 -2.60694 -5.64732 0
M  V30 12975 C 2320.11 -3.93473 -7.1943 0
M  V30 12976 O 2320.5 -3.02071 -8.21205 0
M  V30 12977 C 2320.99 -3.73047 -5.97036 0
M  V30 12978 C 2320.28 -2.58828 -5.25741 0
M  V30 12979 N 2320.33 -2.68068 -3.77503 0
M  V30 12980 C 2320.25 -3.79715 -2.96723 0
M  V30 12981 N 2320.33 -3.5377 -1.68852 0
M  V30 12982 C 2320.47 -2.15054 -1.63254 0
M  V30 12983 C 2320.6 -1.28964 -0.518571 0
M  V30 12984 O 2320.62 -1.56826 0.679156 0
M  V30 12985 N 2320.72 0.0538097 -0.918425 0
M  V30 12986 C 2320.72 0.494275 -2.22578 0
M  V30 12987 N 2320.85 1.81086 -2.40434 0
M  V30 12988 N 2320.59 -0.313645 -3.27502 0
M  V30 12989 C 2320.47 -1.61829 -2.91033 0
M  V30 12990 H 2317.49 -5.40332 -6.79951 0
M  V30 12991 H 2317.22 -4.41613 -5.32378 0
M  V30 12992 H 2318.08 -3.26331 -7.47797 0
M  V30 12993 H 2320.74 -1.63422 -5.56814 0
M  V30 12994 H 2321.02 -4.63374 -5.34244 0
M  V30 12995 H 2322.01 -3.44728 -6.25838 0
M  V30 12996 H 2320.18 -4.96652 -7.57263 0
M  V30 12997 H 2320.13 -4.80617 -3.3614 0
M  V30 12998 H 2320.81 0.742702 -0.199384 0
M  V30 12999 H 2320.85 2.20598 -3.35588 0
M  V30 13000 H 2320.95 2.43518 -1.58945 0
M  V30 13001 P 2322.05 -2.75334 -8.47391 0
M  V30 13002 O 2322.27 -2.44571 -9.90142 0
M  V30 13003 O 2322.84 -3.87688 -7.92115 0
M  V30 13004 O 2322.3 -1.4459 -7.59357 0
M  V30 13005 C 2321.36 -0.347608 -7.69215 0
M  V30 13006 C 2322.09 0.96767 -7.52806 0
M  V30 13007 O 2322.3 1.21036 -6.1011 0
M  V30 13008 C 2323.49 1.04544 -8.13308 0
M  V30 13009 O 2323.88 2.38311 -8.41922 0
M  V30 13010 C 2324.37 0.491279 -7.02284 0
M  V30 13011 C 2323.66 0.996264 -5.77469 0
M  V30 13012 N 2323.71 0.0501916 -4.62973 0
M  V30 13013 H 2320.87 -0.374722 -8.67691 0
M  V30 13014 H 2320.6 -0.443485 -6.90277 0
M  V30 13015 H 2321.46 1.75537 -7.96793 0
M  V30 13016 P 2325.43 2.75334 -8.47391 0
M  V30 13017 O 2325.65 3.84166 -9.4489 0
M  V30 13018 O 2326.22 1.51964 -8.6881 0
M  V30 13019 O 2325.68 3.29363 -6.99321 0
M  V30 13020 C 2324.74 4.23956 -6.42656 0
M  V30 13021 C 2325.47 5.20775 -5.52155 0
M  V30 13022 O 2325.68 4.56534 -4.22446 0
M  V30 13023 C 2326.87 5.62629 -5.96531 0
M  V30 13024 O 2327.26 6.87667 -5.41053 0
M  V30 13025 C 2327.75 4.52537 -5.39283 0
M  V30 13026 C 2327.04 4.20027 -4.08623 0
M  V30 13027 N 2327.09 2.7613 -3.71522 0
M  V30 13028 C 2327.24 2.45612 -2.37989 0
M  V30 13029 O 2327.33 3.30919 -1.51621 0
M  V30 13030 N 2327.28 1.10684 -2.08435 0
M  V30 13031 C 2327.19 0.0690084 -2.9792 0
M  V30 13032 O 2327.24 -1.10553 -2.59426 0
M  V30 13033 C 2327.04 0.481522 -4.35345 0
M  V30 13034 C 2326.93 -0.618778 -5.36443 0
M  V30 13035 C 2326.99 1.78906 -4.67968 0
M  V30 13036 H 2324.25 4.797 -7.24003 0
M  V30 13037 H 2323.98 3.69802 -5.84429 0
M  V30 13038 H 2324.84 6.10356 -5.41441 0
M  V30 13039 H 2327.5 4.78651 -3.27911 0
M  V30 13040 H 2327.78 3.64957 -6.05871 0
M  V30 13041 H 2328.77 4.8868 -5.2125 0
M  V30 13042 H 2326.94 5.66726 -7.06352 0
M  V30 13043 H 2326.87 2.07737 -5.72367 0
M  V30 13044 H 2327.9 -0.754375 -5.86871 0
M  V30 13045 H 2326.16 -0.359721 -6.10641 0
M  V30 13046 H 2326.65 -1.55533 -4.8581 0
M  V30 13047 H 2327.38 0.862651 -1.12037 0
M  V30 13048 P 2328.81 7.20834 -5.23717 0
M  V30 13049 O 2329.03 8.66189 -5.38625 0
M  V30 13050 O 2329.6 6.33615 -6.1356 0
M  V30 13051 O 2329.06 6.7751 -3.72168 0
M  V30 13052 C 2328.12 7.20732 -2.70725 0
M  V30 13053 C 2328.85 7.45864 -1.40599 0
M  V30 13054 O 2329.06 6.17651 -0.734225 0
M  V30 13055 C 2330.25 8.05808 -1.51899 0
M  V30 13056 O 2330.64 8.74358 -0.335205 0
M  V30 13057 C 2331.13 6.83093 -1.70294 0
M  V30 13058 C 2330.42 5.79992 -0.836974 0
M  V30 13059 N 2330.47 4.41769 -1.38263 0
M  V30 13060 C 2330.62 3.38591 -0.481702 0
M  V30 13061 O 2330.71 3.56839 0.718452 0
M  V30 13062 N 2330.66 2.1206 -1.03569 0
M  V30 13063 C 2330.57 1.80696 -2.36966 0
M  V30 13064 O 2330.62 0.630473 -2.74862 0
M  V30 13065 C 2330.42 2.94845 -3.23898 0
M  V30 13066 C 2330.31 2.65253 -4.70362 0
M  V30 13067 C 2330.37 4.19803 -2.73435 0
M  V30 13068 H 2327.63 8.13644 -3.0377 0
M  V30 13069 H 2327.36 6.42695 -2.55448 0
M  V30 13070 H 2328.22 8.12039 -0.792769 0
M  V30 13071 H 2330.88 5.79978 0.160587 0
M  V30 13072 H 2331.16 6.51379 -2.75643 0
M  V30 13073 H 2332.15 7.01734 -1.34462 0
M  V30 13074 H 2330.32 8.73674 -2.38337 0
M  V30 13075 H 2330.25 5.04492 -3.4095 0
M  V30 13076 H 2331.28 2.83924 -5.1913 0
M  V30 13077 H 2329.54 3.29824 -5.15163 0
M  V30 13078 H 2330.03 1.59723 -4.84449 0
M  V30 13079 H 2330.76 1.35644 -0.399345 0
M  V30 13080 P 2332.19 8.91 -5.17477e-11 0
M  V30 13081 O 2332.41 10.1736 0.733766 0
M  V30 13082 O 2332.98 8.73247 -1.2395 0
M  V30 13083 O 2332.44 7.66872 0.971405 0
M  V30 13084 C 2331.5 7.42212 2.04614 0
M  V30 13085 C 2332.23 6.86059 3.24661 0
M  V30 13086 O 2332.44 5.42847 3.03646 0
M  V30 13087 C 2333.63 7.41196 3.50753 0
M  V30 13088 O 2334.02 7.27073 4.86816 0
M  V30 13089 C 2334.51 6.5273 2.63741 0
M  V30 13090 C 2333.8 5.1842 2.73198 0
M  V30 13091 N 2333.85 4.38668 1.47808 0
M  V30 13092 C 2334 3.02239 1.60048 0
M  V30 13093 O 2334.09 2.46459 2.67869 0
M  V30 13094 N 2334.04 2.32436 0.408571 0
M  V30 13095 C 2333.95 2.85471 -0.854993 0
M  V30 13096 O 2334 2.12566 -1.8531 0
M  V30 13097 C 2333.8 4.28918 -0.887335 0
M  V30 13098 C 2333.69 4.91066 -2.24619 0
M  V30 13099 C 2333.75 5.00349 0.255399 0
M  V30 13100 H 2331.01 8.36803 2.32493 0
M  V30 13101 H 2330.74 6.701 1.71105 0
M  V30 13102 H 2331.6 7.03551 4.13168 0
M  V30 13103 H 2334.26 4.59773 3.53894 0
M  V30 13104 H 2334.54 6.88995 1.59871 0
M  V30 13105 H 2335.53 6.46749 3.03687 0
M  V30 13106 H 2333.7 8.46908 3.20714 0
M  V30 13107 H 2333.63 6.08548 0.206986 0
M  V30 13108 H 2334.66 5.34836 -2.53099 0
M  V30 13109 H 2332.92 5.69638 -2.2291 0
M  V30 13110 H 2333.41 4.13971 -2.98044 0
M  V30 13111 H 2334.14 1.33211 0.474216 0
M  V30 13112 P 2335.57 7.20834 5.23717 0
M  V30 13113 O 2335.79 7.7993 6.57351 0
M  V30 13114 O 2336.36 7.79328 4.13004 0
M  V30 13115 O 2335.82 5.63315 5.29344 0
M  V30 13116 C 2334.88 4.80193 6.01798 0
M  V30 13117 C 2335.61 3.64202 6.65911 0
M  V30 13118 O 2335.82 2.60694 5.64732 0
M  V30 13119 C 2337.01 3.93473 7.1943 0
M  V30 13120 O 2337.4 3.02071 8.21205 0
M  V30 13121 C 2337.89 3.73047 5.97036 0
M  V30 13122 C 2337.18 2.58828 5.25741 0
M  V30 13123 N 2337.23 2.6801 3.77422 0
M  V30 13124 C 2337.38 1.50443 3.07133 0
M  V30 13125 O 2337.47 0.419406 3.61576 0
M  V30 13126 N 2337.42 1.6403 1.69677 0
M  V30 13127 C 2337.33 2.81206 0.986255 0
M  V30 13128 C 2337.18 3.99158 1.80325 0
M  V30 13129 C 2337.13 3.89779 3.1476 0
M  V30 13130 H 2334.39 5.40332 6.79951 0
M  V30 13131 H 2334.12 4.41549 5.32301 0
M  V30 13132 H 2334.98 3.26331 7.47797 0
M  V30 13133 H 2337.64 1.6395 5.56554 0
M  V30 13134 H 2337.92 4.63439 5.3432 0
M  V30 13135 H 2338.91 3.44728 6.25838 0
M  V30 13136 H 2337.08 4.96652 7.57263 0
M  V30 13137 H 2337.01 4.80159 3.74441 0
M  V30 13138 P 2338.95 2.75334 8.47391 0
M  V30 13139 O 2339.17 2.44571 9.90142 0
M  V30 13140 O 2339.74 3.87688 7.92115 0
M  V30 13141 O 2339.2 1.4459 7.59357 0
M  V30 13142 C 2338.26 0.347608 7.69215 0
M  V30 13143 C 2338.99 -0.96767 7.52806 0
M  V30 13144 O 2339.2 -1.21036 6.1011 0
M  V30 13145 C 2340.39 -1.04544 8.13308 0
M  V30 13146 O 2340.78 -2.38311 8.41922 0
M  V30 13147 C 2341.27 -0.491279 7.02284 0
M  V30 13148 C 2340.56 -0.996264 5.77469 0
M  V30 13149 N 2340.61 -0.0501916 4.62973 0
M  V30 13150 H 2337.77 0.374722 8.67691 0
M  V30 13151 H 2337.5 0.443485 6.90277 0
M  V30 13152 H 2338.36 -1.75537 7.96793 0
M  V30 13153 P 2342.33 -2.75334 8.47391 0
M  V30 13154 O 2342.55 -3.84166 9.4489 0
M  V30 13155 O 2343.12 -1.51964 8.6881 0
M  V30 13156 O 2342.58 -3.29363 6.99321 0
M  V30 13157 C 2341.64 -4.23956 6.42656 0
M  V30 13158 C 2342.37 -5.20775 5.52155 0
M  V30 13159 O 2342.58 -4.56534 4.22446 0
M  V30 13160 C 2343.77 -5.62629 5.96531 0
M  V30 13161 O 2344.16 -6.87667 5.41053 0
M  V30 13162 C 2344.65 -4.52537 5.39283 0
M  V30 13163 C 2343.94 -4.20027 4.08623 0
M  V30 13164 N 2343.99 -2.7613 3.71522 0
M  V30 13165 C 2344.14 -2.45612 2.37989 0
M  V30 13166 O 2344.23 -3.30919 1.51621 0
M  V30 13167 N 2344.18 -1.10684 2.08435 0
M  V30 13168 C 2344.09 -0.0690084 2.9792 0
M  V30 13169 O 2344.14 1.10553 2.59426 0
M  V30 13170 C 2343.94 -0.481522 4.35345 0
M  V30 13171 C 2343.83 0.618778 5.36443 0
M  V30 13172 C 2343.89 -1.78906 4.67968 0
M  V30 13173 H 2341.15 -4.797 7.24003 0
M  V30 13174 H 2340.88 -3.69802 5.84429 0
M  V30 13175 H 2341.74 -6.10356 5.41441 0
M  V30 13176 H 2344.4 -4.78651 3.27911 0
M  V30 13177 H 2344.68 -3.64957 6.05871 0
M  V30 13178 H 2345.67 -4.8868 5.2125 0
M  V30 13179 H 2343.84 -5.66726 7.06352 0
M  V30 13180 H 2343.77 -2.07737 5.72367 0
M  V30 13181 H 2344.8 0.754375 5.86871 0
M  V30 13182 H 2343.06 0.359721 6.10641 0
M  V30 13183 H 2343.55 1.55533 4.8581 0
M  V30 13184 H 2344.28 -0.862651 1.12037 0
M  V30 13185 P 2345.71 -7.20834 5.23717 0
M  V30 13186 O 2345.93 -8.66189 5.38625 0
M  V30 13187 O 2346.5 -6.33615 6.1356 0
M  V30 13188 O 2345.96 -6.7751 3.72168 0
M  V30 13189 C 2345.02 -7.20732 2.70725 0
M  V30 13190 C 2345.75 -7.45864 1.40599 0
M  V30 13191 O 2345.96 -6.17651 0.734225 0
M  V30 13192 C 2347.15 -8.05808 1.51899 0
M  V30 13193 O 2347.54 -8.74358 0.335205 0
M  V30 13194 C 2348.03 -6.83093 1.70294 0
M  V30 13195 C 2347.32 -5.79992 0.836974 0
M  V30 13196 N 2347.37 -4.41769 1.38263 0
M  V30 13197 C 2347.52 -3.38591 0.481702 0
M  V30 13198 O 2347.61 -3.56839 -0.718452 0
M  V30 13199 N 2347.56 -2.1206 1.03569 0
M  V30 13200 C 2347.47 -1.80696 2.36966 0
M  V30 13201 C 2347.32 -2.94845 3.23898 0
M  V30 13202 C 2347.27 -4.19803 2.73435 0
M  V30 13203 H 2344.53 -8.13644 3.0377 0
M  V30 13204 H 2344.26 -6.42695 2.55448 0
M  V30 13205 H 2345.12 -8.12039 0.792769 0
M  V30 13206 H 2347.78 -5.79978 -0.160587 0
M  V30 13207 H 2348.06 -6.51379 2.75643 0
M  V30 13208 H 2349.05 -7.01734 1.34462 0
M  V30 13209 H 2347.22 -8.73674 2.38337 0
M  V30 13210 H 2347.15 -5.04492 3.4095 0
M  V30 13211 P 2349.09 -8.91 5.28567e-11 0
M  V30 13212 O 2349.31 -10.1726 -0.733694 0
M  V30 13213 O 2349.88 -8.73148 1.23936 0
M  V30 13214 O 2349.34 -7.66872 -0.971405 0
M  V30 13215 C 2348.4 -7.42309 -2.04641 0
M  V30 13216 C 2349.13 -6.86059 -3.24661 0
M  V30 13217 O 2349.34 -5.42847 -3.03646 0
M  V30 13218 C 2350.53 -7.41196 -3.50753 0
M  V30 13219 O 2350.92 -7.27073 -4.86816 0
M  V30 13220 C 2351.41 -6.5273 -2.63741 0
M  V30 13221 C 2350.7 -5.1842 -2.73198 0
M  V30 13222 N 2350.75 -4.38762 -1.4784 0
M  V30 13223 H 2347.91 -8.36803 -2.32493 0
M  V30 13224 H 2347.64 -6.70197 -1.71129 0
M  V30 13225 H 2348.5 -7.03551 -4.13168 0
M  V30 13226 P 2352.47 -7.20834 -5.23717 0
M  V30 13227 O 2352.69 -7.79853 -6.57286 0
M  V30 13228 O 2353.26 -7.79239 -4.12957 0
M  V30 13229 O 2352.72 -5.63315 -5.29344 0
M  V30 13230 C 2351.78 -4.80255 -6.01876 0
M  V30 13231 C 2352.51 -3.64202 -6.65911 0
M  V30 13232 O 2352.72 -2.60694 -5.64732 0
M  V30 13233 C 2353.91 -3.93473 -7.1943 0
M  V30 13234 O 2354.3 -3.02071 -8.21205 0
M  V30 13235 C 2354.79 -3.73047 -5.97036 0
M  V30 13236 C 2354.08 -2.58828 -5.25741 0
M  V30 13237 N 2354.13 -2.68068 -3.77503 0
M  V30 13238 H 2351.29 -5.40332 -6.79951 0
M  V30 13239 H 2351.02 -4.41613 -5.32378 0
M  V30 13240 H 2351.88 -3.26331 -7.47797 0
M  V30 13241 P 2355.85 -2.75334 -8.47391 0
M  V30 13242 O 2356.07 -2.44571 -9.90142 0
M  V30 13243 O 2356.64 -3.87688 -7.92115 0
M  V30 13244 O 2356.1 -1.4459 -7.59357 0
M  V30 13245 C 2355.16 -0.347608 -7.69215 0
M  V30 13246 C 2355.89 0.96767 -7.52806 0
M  V30 13247 O 2356.1 1.21036 -6.1011 0
M  V30 13248 C 2357.29 1.04544 -8.13308 0
M  V30 13249 O 2357.68 2.38311 -8.41922 0
M  V30 13250 C 2358.17 0.491279 -7.02284 0
M  V30 13251 C 2357.46 0.996264 -5.77469 0
M  V30 13252 N 2357.51 0.0501916 -4.62973 0
M  V30 13253 H 2354.67 -0.374722 -8.67691 0
M  V30 13254 H 2354.4 -0.443485 -6.90277 0
M  V30 13255 H 2355.26 1.75537 -7.96793 0
M  V30 13256 P 2359.23 2.75334 -8.47391 0
M  V30 13257 O 2359.45 3.84128 -9.44797 0
M  V30 13258 O 2360.02 1.51947 -8.68712 0
M  V30 13259 O 2359.48 3.29363 -6.99321 0
M  V30 13260 C 2358.54 4.24011 -6.4274 0
M  V30 13261 C 2359.27 5.20775 -5.52155 0
M  V30 13262 O 2359.48 4.56534 -4.22446 0
M  V30 13263 C 2360.67 5.62629 -5.96531 0
M  V30 13264 O 2361.06 6.87667 -5.41053 0
M  V30 13265 C 2361.55 4.52537 -5.39283 0
M  V30 13266 C 2360.84 4.20027 -4.08623 0
M  V30 13267 N 2360.89 2.76189 -3.71603 0
M  V30 13268 H 2358.05 4.797 -7.24003 0
M  V30 13269 H 2357.78 3.69856 -5.84513 0
M  V30 13270 H 2358.64 6.10356 -5.41441 0
M  V30 13271 P 2362.61 7.20834 -5.23717 0
M  V30 13272 O 2362.83 8.66104 -5.38572 0
M  V30 13273 O 2363.4 6.33544 -6.1349 0
M  V30 13274 O 2362.86 6.7751 -3.72168 0
M  V30 13275 C 2361.92 7.20825 -2.7076 0
M  V30 13276 C 2362.65 7.45864 -1.40599 0
M  V30 13277 O 2362.86 6.17651 -0.734225 0
M  V30 13278 C 2364.05 8.05808 -1.51899 0
M  V30 13279 O 2364.44 8.74358 -0.335205 0
M  V30 13280 C 2364.93 6.83093 -1.70294 0
M  V30 13281 C 2364.22 5.79992 -0.836974 0
M  V30 13282 N 2364.27 4.41864 -1.38293 0
M  V30 13283 H 2361.43 8.13644 -3.0377 0
M  V30 13284 H 2361.16 6.42788 -2.55485 0
M  V30 13285 H 2362.02 8.12039 -0.792769 0
M  V30 13286 P 2365.99 8.91 -5.39657e-11 0
M  V30 13287 O 2366.21 10.1726 0.733694 0
M  V30 13288 O 2366.78 8.73148 -1.23936 0
M  V30 13289 O 2366.24 7.66872 0.971405 0
M  V30 13290 C 2365.3 7.42309 2.04641 0
M  V30 13291 C 2366.03 6.86059 3.24661 0
M  V30 13292 O 2366.24 5.42847 3.03646 0
M  V30 13293 C 2367.43 7.41196 3.50753 0
M  V30 13294 O 2367.82 7.27073 4.86816 0
M  V30 13295 C 2368.31 6.5273 2.63741 0
M  V30 13296 C 2367.6 5.1842 2.73198 0
M  V30 13297 N 2367.65 4.38762 1.4784 0
M  V30 13298 H 2364.81 8.36803 2.32493 0
M  V30 13299 H 2364.54 6.70197 1.71129 0
M  V30 13300 H 2365.4 7.03551 4.13168 0
M  V30 13301 P 2369.37 7.20834 5.23717 0
M  V30 13302 O 2369.59 7.79853 6.57286 0
M  V30 13303 O 2370.16 7.79239 4.12957 0
M  V30 13304 O 2369.62 5.63315 5.29344 0
M  V30 13305 C 2368.68 4.80255 6.01876 0
M  V30 13306 C 2369.41 3.64202 6.65911 0
M  V30 13307 O 2369.62 2.60694 5.64732 0
M  V30 13308 C 2370.81 3.93473 7.1943 0
M  V30 13309 O 2371.2 3.02071 8.21205 0
M  V30 13310 C 2371.69 3.73047 5.97036 0
M  V30 13311 C 2370.98 2.58828 5.25741 0
M  V30 13312 N 2371.03 2.68068 3.77503 0
M  V30 13313 H 2368.19 5.40332 6.79951 0
M  V30 13314 H 2367.92 4.41613 5.32378 0
M  V30 13315 H 2368.78 3.26331 7.47797 0
M  V30 13316 P 2372.75 2.75334 8.47391 0
M  V30 13317 O 2372.97 2.44571 9.90142 0
M  V30 13318 O 2373.54 3.87688 7.92115 0
M  V30 13319 O 2373 1.4459 7.59357 0
M  V30 13320 C 2372.06 0.347608 7.69215 0
M  V30 13321 C 2372.79 -0.96767 7.52806 0
M  V30 13322 O 2373 -1.21036 6.1011 0
M  V30 13323 C 2374.19 -1.04544 8.13308 0
M  V30 13324 O 2374.58 -2.38311 8.41922 0
M  V30 13325 C 2375.07 -0.491279 7.02284 0
M  V30 13326 C 2374.36 -0.996264 5.77469 0
M  V30 13327 N 2374.41 -0.0501916 4.62973 0
M  V30 13328 H 2371.57 0.374722 8.67691 0
M  V30 13329 H 2371.3 0.443485 6.90277 0
M  V30 13330 H 2372.16 -1.75537 7.96793 0
M  V30 13331 P 2376.13 -2.75334 8.47391 0
M  V30 13332 O 2376.35 -3.84128 9.44797 0
M  V30 13333 O 2376.92 -1.51947 8.68712 0
M  V30 13334 O 2376.38 -3.29363 6.99321 0
M  V30 13335 C 2375.44 -4.24011 6.4274 0
M  V30 13336 C 2376.17 -5.20775 5.52155 0
M  V30 13337 O 2376.38 -4.56534 4.22446 0
M  V30 13338 C 2377.57 -5.62629 5.96531 0
M  V30 13339 O 2377.96 -6.87667 5.41053 0
M  V30 13340 C 2378.45 -4.52537 5.39283 0
M  V30 13341 C 2377.74 -4.20027 4.08623 0
M  V30 13342 N 2377.79 -2.76189 3.71603 0
M  V30 13343 H 2374.95 -4.797 7.24003 0
M  V30 13344 H 2374.68 -3.69856 5.84513 0
M  V30 13345 H 2375.54 -6.10356 5.41441 0
M  V30 13346 P 2379.51 -7.20834 5.23717 0
M  V30 13347 O 2379.73 -8.66104 5.38572 0
M  V30 13348 O 2380.3 -6.33544 6.1349 0
M  V30 13349 O 2379.76 -6.7751 3.72168 0
M  V30 13350 C 2378.82 -7.20825 2.7076 0
M  V30 13351 C 2379.55 -7.45864 1.40599 0
M  V30 13352 O 2379.76 -6.17651 0.734225 0
M  V30 13353 C 2380.95 -8.05808 1.51899 0
M  V30 13354 O 2381.34 -8.74358 0.335205 0
M  V30 13355 C 2381.83 -6.83093 1.70294 0
M  V30 13356 C 2381.12 -5.79992 0.836974 0
M  V30 13357 N 2381.17 -4.41864 1.38293 0
M  V30 13358 H 2378.33 -8.13644 3.0377 0
M  V30 13359 H 2378.06 -6.42788 2.55485 0
M  V30 13360 H 2378.92 -8.12039 0.792769 0
M  V30 13361 P 2382.89 -8.91 5.50747e-11 0
M  V30 13362 O 2383.11 -10.1726 -0.733694 0
M  V30 13363 O 2383.68 -8.73148 1.23936 0
M  V30 13364 O 2383.14 -7.66872 -0.971405 0
M  V30 13365 C 2382.2 -7.42309 -2.04641 0
M  V30 13366 C 2382.93 -6.86059 -3.24661 0
M  V30 13367 O 2383.14 -5.42847 -3.03646 0
M  V30 13368 C 2384.33 -7.41196 -3.50753 0
M  V30 13369 O 2384.72 -7.27073 -4.86816 0
M  V30 13370 C 2385.21 -6.5273 -2.63741 0
M  V30 13371 C 2384.5 -5.1842 -2.73198 0
M  V30 13372 N 2384.55 -4.38762 -1.4784 0
M  V30 13373 H 2381.71 -8.36803 -2.32493 0
M  V30 13374 H 2381.44 -6.70197 -1.71129 0
M  V30 13375 H 2382.3 -7.03551 -4.13168 0
M  V30 13376 P 2386.27 -7.20834 -5.23717 0
M  V30 13377 O 2386.49 -7.79853 -6.57286 0
M  V30 13378 O 2387.06 -7.79239 -4.12957 0
M  V30 13379 O 2386.52 -5.63315 -5.29344 0
M  V30 13380 C 2385.58 -4.80255 -6.01876 0
M  V30 13381 C 2386.31 -3.64202 -6.65911 0
M  V30 13382 O 2386.52 -2.60694 -5.64732 0
M  V30 13383 C 2387.71 -3.93473 -7.1943 0
M  V30 13384 O 2388.1 -3.02071 -8.21205 0
M  V30 13385 C 2388.59 -3.73047 -5.97036 0
M  V30 13386 C 2387.88 -2.58828 -5.25741 0
M  V30 13387 N 2387.93 -2.68068 -3.77503 0
M  V30 13388 H 2385.09 -5.40332 -6.79951 0
M  V30 13389 H 2384.82 -4.41613 -5.32378 0
M  V30 13390 H 2385.68 -3.26331 -7.47797 0
M  V30 13391 P 2389.65 -2.75334 -8.47391 0
M  V30 13392 O 2389.87 -2.44571 -9.90142 0
M  V30 13393 O 2390.44 -3.87688 -7.92115 0
M  V30 13394 O 2389.9 -1.4459 -7.59357 0
M  V30 13395 C 2388.96 -0.347608 -7.69215 0
M  V30 13396 C 2389.69 0.96767 -7.52806 0
M  V30 13397 O 2389.9 1.21036 -6.1011 0
M  V30 13398 C 2391.09 1.04544 -8.13308 0
M  V30 13399 O 2391.48 2.38311 -8.41922 0
M  V30 13400 C 2391.97 0.491279 -7.02284 0
M  V30 13401 C 2391.26 0.996264 -5.77469 0
M  V30 13402 N 2391.31 0.0501916 -4.62973 0
M  V30 13403 H 2388.47 -0.374722 -8.67691 0
M  V30 13404 H 2388.2 -0.443485 -6.90277 0
M  V30 13405 H 2389.06 1.75537 -7.96793 0
M  V30 13406 P 2393.03 2.75334 -8.47391 0
M  V30 13407 O 2393.25 3.84128 -9.44797 0
M  V30 13408 O 2393.82 1.51947 -8.68712 0
M  V30 13409 O 2393.28 3.29363 -6.99321 0
M  V30 13410 C 2392.34 4.24011 -6.4274 0
M  V30 13411 C 2393.07 5.20775 -5.52155 0
M  V30 13412 O 2393.28 4.56534 -4.22446 0
M  V30 13413 C 2394.47 5.62629 -5.96531 0
M  V30 13414 O 2394.86 6.87667 -5.41053 0
M  V30 13415 C 2395.35 4.52537 -5.39283 0
M  V30 13416 C 2394.64 4.20027 -4.08623 0
M  V30 13417 N 2394.69 2.76189 -3.71603 0
M  V30 13418 H 2391.85 4.797 -7.24003 0
M  V30 13419 H 2391.58 3.69856 -5.84513 0
M  V30 13420 H 2392.44 6.10356 -5.41441 0
M  V30 13421 P 2396.41 7.20834 -5.23717 0
M  V30 13422 O 2396.63 8.66104 -5.38572 0
M  V30 13423 O 2397.2 6.33544 -6.1349 0
M  V30 13424 O 2396.66 6.7751 -3.72168 0
M  V30 13425 C 2395.72 7.20825 -2.7076 0
M  V30 13426 C 2396.45 7.45864 -1.40599 0
M  V30 13427 O 2396.66 6.17651 -0.734225 0
M  V30 13428 C 2397.85 8.05808 -1.51899 0
M  V30 13429 O 2398.24 8.74358 -0.335205 0
M  V30 13430 C 2398.73 6.83093 -1.70294 0
M  V30 13431 C 2398.02 5.79992 -0.836974 0
M  V30 13432 N 2398.07 4.41864 -1.38293 0
M  V30 13433 H 2395.23 8.13644 -3.0377 0
M  V30 13434 H 2394.96 6.42788 -2.55485 0
M  V30 13435 H 2395.82 8.12039 -0.792769 0
M  V30 13436 P 2399.79 8.91 -5.61837e-11 0
M  V30 13437 O 2400.01 10.1726 0.733694 0
M  V30 13438 O 2400.58 8.73148 -1.23936 0
M  V30 13439 O 2400.04 7.66872 0.971405 0
M  V30 13440 C 2399.1 7.42309 2.04641 0
M  V30 13441 C 2399.83 6.86059 3.24661 0
M  V30 13442 O 2400.04 5.42847 3.03646 0
M  V30 13443 C 2401.23 7.41196 3.50753 0
M  V30 13444 O 2401.62 7.27073 4.86816 0
M  V30 13445 C 2402.11 6.5273 2.63741 0
M  V30 13446 C 2401.4 5.1842 2.73198 0
M  V30 13447 N 2401.45 4.38762 1.4784 0
M  V30 13448 H 2398.61 8.36803 2.32493 0
M  V30 13449 H 2398.34 6.70197 1.71129 0
M  V30 13450 H 2399.2 7.03551 4.13168 0
M  V30 13451 P 2403.17 7.20834 5.23717 0
M  V30 13452 O 2403.39 7.79853 6.57286 0
M  V30 13453 O 2403.96 7.79239 4.12957 0
M  V30 13454 O 2403.42 5.63315 5.29344 0
M  V30 13455 C 2402.48 4.80255 6.01876 0
M  V30 13456 C 2403.21 3.64202 6.65911 0
M  V30 13457 O 2403.42 2.60694 5.64732 0
M  V30 13458 C 2404.61 3.93473 7.1943 0
M  V30 13459 O 2405 3.02071 8.21205 0
M  V30 13460 C 2405.49 3.73047 5.97036 0
M  V30 13461 C 2404.78 2.58828 5.25741 0
M  V30 13462 N 2404.83 2.68068 3.77503 0
M  V30 13463 H 2401.99 5.40332 6.79951 0
M  V30 13464 H 2401.72 4.41613 5.32378 0
M  V30 13465 H 2402.58 3.26331 7.47797 0
M  V30 13466 P 2406.55 2.75334 8.47391 0
M  V30 13467 O 2406.77 2.44571 9.90142 0
M  V30 13468 O 2407.34 3.87688 7.92115 0
M  V30 13469 O 2406.8 1.4459 7.59357 0
M  V30 13470 C 2405.86 0.347608 7.69215 0
M  V30 13471 C 2406.59 -0.96767 7.52806 0
M  V30 13472 O 2406.8 -1.21036 6.1011 0
M  V30 13473 C 2407.99 -1.04544 8.13308 0
M  V30 13474 O 2408.38 -2.38311 8.41922 0
M  V30 13475 C 2408.87 -0.491279 7.02284 0
M  V30 13476 C 2408.16 -0.996264 5.77469 0
M  V30 13477 N 2408.21 -0.0501916 4.62973 0
M  V30 13478 C 2408.13 1.32786 4.63244 0
M  V30 13479 N 2408.21 1.86957 3.44545 0
M  V30 13480 C 2408.35 0.780241 2.58481 0
M  V30 13481 C 2408.48 0.738536 1.17757 0
M  V30 13482 N 2408.6 -0.58337 0.711393 0
M  V30 13483 C 2408.6 -1.70816 1.51017 0
M  V30 13484 N 2408.73 -2.87826 0.880757 0
M  V30 13485 N 2408.47 -1.67126 2.8339 0
M  V30 13486 C 2408.35 -0.401421 3.30572 0
M  V30 13487 H 2405.37 0.374722 8.67691 0
M  V30 13488 H 2405.1 0.443485 6.90277 0
M  V30 13489 H 2405.96 -1.75537 7.96793 0
M  V30 13490 P 2409.93 -2.75334 8.47391 0
M  V30 13491 O 2410.15 -3.84128 9.44797 0
M  V30 13492 O 2410.72 -1.51947 8.68712 0
M  V30 13493 O 2410.18 -3.29363 6.99321 0
M  V30 13494 C 2409.24 -4.24011 6.4274 0
M  V30 13495 C 2409.97 -5.20775 5.52155 0
M  V30 13496 O 2410.18 -4.56534 4.22446 0
M  V30 13497 C 2411.37 -5.62629 5.96531 0
M  V30 13498 O 2411.76 -6.87667 5.41053 0
M  V30 13499 C 2412.25 -4.52537 5.39283 0
M  V30 13500 C 2411.54 -4.20027 4.08623 0
M  V30 13501 N 2411.59 -2.76189 3.71603 0
M  V30 13502 H 2408.75 -4.797 7.24003 0
M  V30 13503 H 2408.48 -3.69856 5.84513 0
M  V30 13504 H 2409.34 -6.10356 5.41441 0
M  V30 13505 P 2413.31 -7.20834 5.23717 0
M  V30 13506 O 2413.53 -8.66104 5.38572 0
M  V30 13507 O 2414.1 -6.33544 6.1349 0
M  V30 13508 O 2413.56 -6.7751 3.72168 0
M  V30 13509 C 2412.62 -7.20825 2.7076 0
M  V30 13510 C 2413.35 -7.45864 1.40599 0
M  V30 13511 O 2413.56 -6.17651 0.734225 0
M  V30 13512 C 2414.75 -8.05808 1.51899 0
M  V30 13513 O 2415.14 -8.74358 0.335205 0
M  V30 13514 C 2415.63 -6.83093 1.70294 0
M  V30 13515 C 2414.92 -5.79992 0.836974 0
M  V30 13516 N 2414.97 -4.41864 1.38293 0
M  V30 13517 H 2412.13 -8.13644 3.0377 0
M  V30 13518 H 2411.86 -6.42788 2.55485 0
M  V30 13519 H 2412.72 -8.12039 0.792769 0
M  V30 13520 P 2416.69 -8.91 5.72927e-11 0
M  V30 13521 O 2416.91 -10.1726 -0.733694 0
M  V30 13522 O 2417.48 -8.73148 1.23936 0
M  V30 13523 O 2416.94 -7.66872 -0.971405 0
M  V30 13524 C 2416 -7.42309 -2.04641 0
M  V30 13525 C 2416.73 -6.86059 -3.24661 0
M  V30 13526 O 2416.94 -5.42847 -3.03646 0
M  V30 13527 C 2418.13 -7.41196 -3.50753 0
M  V30 13528 O 2418.52 -7.27073 -4.86816 0
M  V30 13529 C 2419.01 -6.5273 -2.63741 0
M  V30 13530 C 2418.3 -5.1842 -2.73198 0
M  V30 13531 N 2418.35 -4.38762 -1.4784 0
M  V30 13532 H 2415.51 -8.36803 -2.32493 0
M  V30 13533 H 2415.24 -6.70197 -1.71129 0
M  V30 13534 H 2416.1 -7.03551 -4.13168 0
M  V30 13535 P 2420.07 -7.20834 -5.23717 0
M  V30 13536 O 2420.29 -7.79853 -6.57286 0
M  V30 13537 O 2420.86 -7.79239 -4.12957 0
M  V30 13538 O 2420.32 -5.63315 -5.29344 0
M  V30 13539 C 2419.38 -4.80255 -6.01876 0
M  V30 13540 C 2420.11 -3.64202 -6.65911 0
M  V30 13541 O 2420.32 -2.60694 -5.64732 0
M  V30 13542 C 2421.51 -3.93473 -7.1943 0
M  V30 13543 O 2421.9 -3.02071 -8.21205 0
M  V30 13544 C 2422.39 -3.73047 -5.97036 0
M  V30 13545 C 2421.68 -2.58828 -5.25741 0
M  V30 13546 N 2421.73 -2.68068 -3.77503 0
M  V30 13547 H 2418.89 -5.40332 -6.79951 0
M  V30 13548 H 2418.62 -4.41613 -5.32378 0
M  V30 13549 H 2419.48 -3.26331 -7.47797 0
M  V30 13550 P 2423.45 -2.75334 -8.47391 0
M  V30 13551 O 2423.67 -2.44619 -9.90336 0
M  V30 13552 O 2424.24 -3.87776 -7.92294 0
M  V30 13553 O 2423.7 -1.4459 -7.59357 0
M  V30 13554 C 2422.76 -0.347653 -7.69315 0
M  V30 13555 C 2423.49 0.96767 -7.52806 0
M  V30 13556 O 2423.7 1.21055 -6.10208 0
M  V30 13557 C 2424.89 1.04557 -8.13408 0
M  V30 13558 O 2425.28 2.38311 -8.41922 0
M  V30 13559 C 2425.77 0.491279 -7.02284 0
M  V30 13560 C 2425.06 0.996264 -5.77469 0
M  V30 13561 N 2425.11 0.0501916 -4.62973 0
M  V30 13562 H 2422.27 -0.374765 -8.67791 0
M  V30 13563 H 2422 -0.443613 -6.90476 0
M  V30 13564 H 2422.86 1.75559 -7.96891 0
M  V30 13565 H 2425.52 1.94563 -5.46818 0
M  V30 13566 H 2425.8 -0.608651 -7.04676 0
M  V30 13567 H 2426.79 0.889796 -7.09039 0
M  V30 13568 H 2424.96 0.433128 -9.04664 0
M  V30 13569 P 2426.83 2.75334 -8.47391 0
M  V30 13570 O 2427.05 3.84128 -9.44797 0
M  V30 13571 O 2427.62 1.51947 -8.68712 0
M  V30 13572 O 2427.08 3.29363 -6.99321 0
M  V30 13573 C 2426.14 4.24011 -6.4274 0
M  V30 13574 C 2426.87 5.20775 -5.52155 0
M  V30 13575 O 2427.08 4.56534 -4.22446 0
M  V30 13576 C 2428.27 5.62629 -5.96531 0
M  V30 13577 O 2428.66 6.87667 -5.41053 0
M  V30 13578 C 2429.15 4.52537 -5.39283 0
M  V30 13579 C 2428.44 4.20027 -4.08623 0
M  V30 13580 N 2428.49 2.76189 -3.71603 0
M  V30 13581 H 2425.65 4.797 -7.24003 0
M  V30 13582 H 2425.38 3.69856 -5.84513 0
M  V30 13583 H 2426.24 6.10356 -5.41441 0
M  V30 13584 P 2430.21 7.20834 -5.23717 0
M  V30 13585 O 2430.43 8.66104 -5.38572 0
M  V30 13586 O 2431 6.33544 -6.1349 0
M  V30 13587 O 2430.46 6.7751 -3.72168 0
M  V30 13588 C 2429.52 7.20825 -2.7076 0
M  V30 13589 C 2430.25 7.45864 -1.40599 0
M  V30 13590 O 2430.46 6.17651 -0.734225 0
M  V30 13591 C 2431.65 8.05808 -1.51899 0
M  V30 13592 O 2432.04 8.74358 -0.335205 0
M  V30 13593 C 2432.53 6.83093 -1.70294 0
M  V30 13594 C 2431.82 5.79992 -0.836974 0
M  V30 13595 N 2431.87 4.41864 -1.38293 0
M  V30 13596 H 2429.03 8.13644 -3.0377 0
M  V30 13597 H 2428.76 6.42788 -2.55485 0
M  V30 13598 H 2429.62 8.12039 -0.792769 0
M  V30 13599 P 2433.59 8.91 -5.84017e-11 0
M  V30 13600 O 2433.81 10.1726 0.733694 0
M  V30 13601 O 2434.38 8.73148 -1.23936 0
M  V30 13602 O 2433.84 7.66872 0.971405 0
M  V30 13603 C 2432.9 7.42309 2.04641 0
M  V30 13604 C 2433.63 6.86059 3.24661 0
M  V30 13605 O 2433.84 5.42847 3.03646 0
M  V30 13606 C 2435.03 7.41196 3.50753 0
M  V30 13607 O 2435.42 7.27073 4.86816 0
M  V30 13608 C 2435.91 6.5273 2.63741 0
M  V30 13609 C 2435.2 5.1842 2.73198 0
M  V30 13610 N 2435.25 4.38762 1.4784 0
M  V30 13611 C 2435.17 4.81605 0.168631 0
M  V30 13612 N 2435.25 3.85454 -0.713363 0
M  V30 13613 C 2435.39 2.6994 0.0566958 0
M  V30 13614 C 2435.52 1.34815 -0.338502 0
M  V30 13615 O 2435.54 0.869548 -1.47125 0
M  V30 13616 N 2435.64 0.496304 0.77465 0
M  V30 13617 C 2435.64 0.908403 2.09122 0
M  V30 13618 N 2435.77 -0.0517805 3.00955 0
M  V30 13619 N 2435.51 2.17875 2.46519 0
M  V30 13620 C 2435.39 3.01988 1.4033 0
M  V30 13621 H 2432.41 8.36803 2.32493 0
M  V30 13622 H 2432.14 6.70197 1.71129 0
M  V30 13623 H 2433 7.03551 4.13168 0
M  V30 13624 H 2435.66 4.59498 3.54415 0
M  V30 13625 H 2435.94 6.88898 1.59848 0
M  V30 13626 H 2436.93 6.46749 3.03687 0
M  V30 13627 H 2435.1 8.46908 3.20714 0
M  V30 13628 H 2435.05 5.86405 -0.105564 0
M  V30 13629 H 2435.73 -0.483664 0.597855 0
M  V30 13630 H 2435.77 0.187865 4.0116 0
M  V30 13631 H 2435.87 -1.03585 2.71726 0
M  V30 13632 P 2436.97 7.20834 5.23717 0
M  V30 13633 O 2437.19 7.79853 6.57286 0
M  V30 13634 O 2437.76 7.79239 4.12957 0
M  V30 13635 O 2437.22 5.63315 5.29344 0
M  V30 13636 C 2436.28 4.80255 6.01876 0
M  V30 13637 C 2437.01 3.64202 6.65911 0
M  V30 13638 O 2437.22 2.60694 5.64732 0
M  V30 13639 C 2438.41 3.93473 7.1943 0
M  V30 13640 O 2438.8 3.02071 8.21205 0
M  V30 13641 C 2439.29 3.73047 5.97036 0
M  V30 13642 C 2438.58 2.58828 5.25741 0
M  V30 13643 N 2438.63 2.68068 3.77503 0
M  V30 13644 H 2435.79 5.40332 6.79951 0
M  V30 13645 H 2435.52 4.41613 5.32378 0
M  V30 13646 H 2436.38 3.26331 7.47797 0
M  V30 13647 P 2440.35 2.75334 8.47391 0
M  V30 13648 O 2440.57 2.44571 9.90142 0
M  V30 13649 O 2441.14 3.87688 7.92115 0
M  V30 13650 O 2440.6 1.4459 7.59357 0
M  V30 13651 C 2439.66 0.347608 7.69215 0
M  V30 13652 C 2440.39 -0.96767 7.52806 0
M  V30 13653 O 2440.6 -1.21036 6.1011 0
M  V30 13654 C 2441.79 -1.04544 8.13308 0
M  V30 13655 O 2442.18 -2.38311 8.41922 0
M  V30 13656 C 2442.67 -0.491279 7.02284 0
M  V30 13657 C 2441.96 -0.996264 5.77469 0
M  V30 13658 N 2442.01 -0.0501916 4.62973 0
M  V30 13659 H 2439.17 0.374722 8.67691 0
M  V30 13660 H 2438.9 0.443485 6.90277 0
M  V30 13661 H 2439.76 -1.75537 7.96793 0
M  V30 13662 P 2443.73 -2.75334 8.47391 0
M  V30 13663 O 2443.95 -3.84128 9.44797 0
M  V30 13664 O 2444.52 -1.51947 8.68712 0
M  V30 13665 O 2443.98 -3.29363 6.99321 0
M  V30 13666 C 2443.04 -4.24011 6.4274 0
M  V30 13667 C 2443.77 -5.20775 5.52155 0
M  V30 13668 O 2443.98 -4.56534 4.22446 0
M  V30 13669 C 2445.17 -5.62629 5.96531 0
M  V30 13670 O 2445.56 -6.87667 5.41053 0
M  V30 13671 C 2446.05 -4.52537 5.39283 0
M  V30 13672 C 2445.34 -4.20027 4.08623 0
M  V30 13673 N 2445.39 -2.76189 3.71603 0
M  V30 13674 H 2442.55 -4.797 7.24003 0
M  V30 13675 H 2442.28 -3.69856 5.84513 0
M  V30 13676 H 2443.14 -6.10356 5.41441 0
M  V30 13677 P 2447.11 -7.20834 5.23717 0
M  V30 13678 O 2447.33 -8.66104 5.38572 0
M  V30 13679 O 2447.9 -6.33544 6.1349 0
M  V30 13680 O 2447.36 -6.7751 3.72168 0
M  V30 13681 C 2446.42 -7.20825 2.7076 0
M  V30 13682 C 2447.15 -7.45864 1.40599 0
M  V30 13683 O 2447.36 -6.17651 0.734225 0
M  V30 13684 C 2448.55 -8.05808 1.51899 0
M  V30 13685 O 2448.94 -8.74358 0.335205 0
M  V30 13686 C 2449.43 -6.83093 1.70294 0
M  V30 13687 C 2448.72 -5.79992 0.836974 0
M  V30 13688 N 2448.77 -4.41864 1.38293 0
M  V30 13689 C 2448.69 -3.99538 2.69438 0
M  V30 13690 N 2448.77 -2.69909 2.84277 0
M  V30 13691 C 2448.91 -2.21719 1.5408 0
M  V30 13692 C 2449.04 -0.891712 1.06628 0
M  V30 13693 O 2449.06 0.161298 1.70137 0
M  V30 13694 N 2449.16 -0.856846 -0.334985 0
M  V30 13695 C 2449.16 -1.9641 -1.15789 0
M  V30 13696 N 2449.29 -1.72708 -2.46522 0
M  V30 13697 N 2449.03 -3.21165 -0.713741 0
M  V30 13698 C 2448.91 -3.26797 0.639748 0
M  V30 13699 H 2445.93 -8.13644 3.0377 0
M  V30 13700 H 2445.66 -6.42788 2.55485 0
M  V30 13701 H 2446.52 -8.12039 0.792769 0
M  V30 13702 H 2449.18 -5.80061 -0.166416 0
M  V30 13703 H 2449.46 -6.51287 2.75604 0
M  V30 13704 H 2450.45 -7.01734 1.34462 0
M  V30 13705 H 2448.62 -8.73674 2.38337 0
M  V30 13706 H 2448.57 -4.68207 3.53221 0
M  V30 13707 H 2449.25 0.0398818 -0.767965 0
M  V30 13708 H 2449.29 -2.50995 -3.13503 0
M  V30 13709 H 2449.39 -0.759148 -2.80716 0
M  V30 13710 P 2450.49 -8.91 5.95107e-11 0
M  V30 13711 O 2450.71 -10.1726 -0.733694 0
M  V30 13712 O 2451.28 -8.73148 1.23936 0
M  V30 13713 O 2450.74 -7.66872 -0.971405 0
M  V30 13714 C 2449.8 -7.42309 -2.04641 0
M  V30 13715 C 2450.53 -6.86059 -3.24661 0
M  V30 13716 O 2450.74 -5.42847 -3.03646 0
M  V30 13717 C 2451.93 -7.41196 -3.50753 0
M  V30 13718 O 2452.32 -7.27073 -4.86816 0
M  V30 13719 C 2452.81 -6.5273 -2.63741 0
M  V30 13720 C 2452.1 -5.1842 -2.73198 0
M  V30 13721 N 2452.15 -4.38762 -1.4784 0
M  V30 13722 H 2449.31 -8.36803 -2.32493 0
M  V30 13723 H 2449.04 -6.70197 -1.71129 0
M  V30 13724 H 2449.9 -7.03551 -4.13168 0
M  V30 13725 P 2453.87 -7.20834 -5.23717 0
M  V30 13726 O 2454.09 -7.79853 -6.57286 0
M  V30 13727 O 2454.66 -7.79239 -4.12957 0
M  V30 13728 O 2454.12 -5.63315 -5.29344 0
M  V30 13729 C 2453.18 -4.80255 -6.01876 0
M  V30 13730 C 2453.91 -3.64202 -6.65911 0
M  V30 13731 O 2454.12 -2.60694 -5.64732 0
M  V30 13732 C 2455.31 -3.93473 -7.1943 0
M  V30 13733 O 2455.7 -3.02071 -8.21205 0
M  V30 13734 C 2456.19 -3.73047 -5.97036 0
M  V30 13735 C 2455.48 -2.58828 -5.25741 0
M  V30 13736 N 2455.53 -2.68068 -3.77503 0
M  V30 13737 C 2455.45 -3.79715 -2.96723 0
M  V30 13738 N 2455.53 -3.5377 -1.68852 0
M  V30 13739 C 2455.67 -2.15054 -1.63254 0
M  V30 13740 C 2455.8 -1.28964 -0.518571 0
M  V30 13741 N 2455.92 0.0538097 -0.918425 0
M  V30 13742 C 2455.92 0.494275 -2.22578 0
M  V30 13743 N 2456.05 1.81086 -2.40434 0
M  V30 13744 N 2455.79 -0.313645 -3.27502 0
M  V30 13745 C 2455.67 -1.61829 -2.91033 0
M  V30 13746 H 2452.69 -5.40332 -6.79951 0
M  V30 13747 H 2452.42 -4.41613 -5.32378 0
M  V30 13748 H 2453.28 -3.26331 -7.47797 0
M  V30 13749 P 2457.25 -2.75334 -8.47391 0
M  V30 13750 O 2457.47 -2.44571 -9.90142 0
M  V30 13751 O 2458.04 -3.87688 -7.92115 0
M  V30 13752 O 2457.5 -1.4459 -7.59357 0
M  V30 13753 C 2456.56 -0.347608 -7.69215 0
M  V30 13754 C 2457.29 0.96767 -7.52806 0
M  V30 13755 O 2457.5 1.21036 -6.1011 0
M  V30 13756 C 2458.69 1.04544 -8.13308 0
M  V30 13757 O 2459.08 2.38311 -8.41922 0
M  V30 13758 C 2459.57 0.491279 -7.02284 0
M  V30 13759 C 2458.86 0.996264 -5.77469 0
M  V30 13760 N 2458.91 0.0501916 -4.62973 0
M  V30 13761 H 2456.07 -0.374722 -8.67691 0
M  V30 13762 H 2455.8 -0.443485 -6.90277 0
M  V30 13763 H 2456.66 1.75537 -7.96793 0
M  V30 13764 P 2460.63 2.75334 -8.47391 0
M  V30 13765 O 2460.85 3.84128 -9.44797 0
M  V30 13766 O 2461.42 1.51947 -8.68712 0
M  V30 13767 O 2460.88 3.29363 -6.99321 0
M  V30 13768 C 2459.94 4.24011 -6.4274 0
M  V30 13769 C 2460.67 5.20775 -5.52155 0
M  V30 13770 O 2460.88 4.56534 -4.22446 0
M  V30 13771 C 2462.07 5.62629 -5.96531 0
M  V30 13772 O 2462.46 6.87667 -5.41053 0
M  V30 13773 C 2462.95 4.52537 -5.39283 0
M  V30 13774 C 2462.24 4.20027 -4.08623 0
M  V30 13775 N 2462.29 2.76189 -3.71603 0
M  V30 13776 H 2459.45 4.797 -7.24003 0
M  V30 13777 H 2459.18 3.69856 -5.84513 0
M  V30 13778 H 2460.04 6.10356 -5.41441 0
M  V30 13779 P 2464.01 7.20834 -5.23717 0
M  V30 13780 O 2464.23 8.66104 -5.38572 0
M  V30 13781 O 2464.8 6.33544 -6.1349 0
M  V30 13782 O 2464.26 6.7751 -3.72168 0
M  V30 13783 C 2463.32 7.20825 -2.7076 0
M  V30 13784 C 2464.05 7.45864 -1.40599 0
M  V30 13785 O 2464.26 6.17651 -0.734225 0
M  V30 13786 C 2465.45 8.05808 -1.51899 0
M  V30 13787 O 2465.84 8.74358 -0.335205 0
M  V30 13788 C 2466.33 6.83093 -1.70294 0
M  V30 13789 C 2465.62 5.79992 -0.836974 0
M  V30 13790 N 2465.67 4.41864 -1.38293 0
M  V30 13791 H 2462.83 8.13644 -3.0377 0
M  V30 13792 H 2462.56 6.42788 -2.55485 0
M  V30 13793 H 2463.42 8.12039 -0.792769 0
M  V30 13794 P 2467.39 8.91 -6.06197e-11 0
M  V30 13795 O 2467.61 10.1726 0.733694 0
M  V30 13796 O 2468.18 8.73148 -1.23936 0
M  V30 13797 O 2467.64 7.66872 0.971405 0
M  V30 13798 C 2466.7 7.42309 2.04641 0
M  V30 13799 C 2467.43 6.86059 3.24661 0
M  V30 13800 O 2467.64 5.42847 3.03646 0
M  V30 13801 C 2468.83 7.41196 3.50753 0
M  V30 13802 O 2469.22 7.27073 4.86816 0
M  V30 13803 C 2469.71 6.5273 2.63741 0
M  V30 13804 C 2469 5.1842 2.73198 0
M  V30 13805 N 2469.05 4.38762 1.4784 0
M  V30 13806 H 2466.21 8.36803 2.32493 0
M  V30 13807 H 2465.94 6.70197 1.71129 0
M  V30 13808 H 2466.8 7.03551 4.13168 0
M  V30 13809 P 2470.77 7.20834 5.23717 0
M  V30 13810 O 2470.99 7.7993 6.57351 0
M  V30 13811 O 2471.56 7.79328 4.13004 0
M  V30 13812 O 2471.02 5.63315 5.29344 0
M  V30 13813 C 2470.08 4.80193 6.01798 0
M  V30 13814 C 2470.81 3.64202 6.65911 0
M  V30 13815 O 2471.02 2.60694 5.64732 0
M  V30 13816 C 2472.21 3.93473 7.1943 0
M  V30 13817 O 2472.6 3.02071 8.21205 0
M  V30 13818 C 2473.09 3.73047 5.97036 0
M  V30 13819 C 2472.38 2.58828 5.25741 0
M  V30 13820 N 2472.43 2.6801 3.77422 0
M  V30 13821 C 2472.58 1.50443 3.07133 0
M  V30 13822 O 2472.67 0.419406 3.61576 0
M  V30 13823 N 2472.62 1.6403 1.69677 0
M  V30 13824 C 2472.53 2.81206 0.986255 0
M  V30 13825 O 2472.58 2.80892 -0.249754 0
M  V30 13826 C 2472.38 3.99158 1.80325 0
M  V30 13827 C 2472.27 5.29309 1.06921 0
M  V30 13828 C 2472.33 3.89779 3.1476 0
M  V30 13829 H 2469.59 5.40332 6.79951 0
M  V30 13830 H 2469.32 4.41549 5.32301 0
M  V30 13831 H 2470.18 3.26331 7.47797 0
M  V30 13832 H 2472.84 1.6395 5.56554 0
M  V30 13833 H 2473.12 4.63439 5.3432 0
M  V30 13834 H 2474.11 3.44728 6.25838 0
M  V30 13835 H 2472.28 4.96652 7.57263 0
M  V30 13836 H 2472.2 4.80159 3.74441 0
M  V30 13837 H 2473.23 5.81459 1.09608 0
M  V30 13838 H 2471.5 5.9187 1.54487 0
M  V30 13839 H 2471.99 5.10095 0.0220288 0
M  V30 13840 H 2472.72 0.798962 1.16664 0
M  V30 13841 P 2474.15 2.75334 8.47391 0
M  V30 13842 O 2474.37 2.44595 9.90239 0
M  V30 13843 O 2474.94 3.87732 7.92204 0
M  V30 13844 O 2474.4 1.4459 7.59357 0
M  V30 13845 C 2473.46 0.347608 7.69215 0
M  V30 13846 C 2474.19 -0.96767 7.52806 0
M  V30 13847 O 2474.4 -1.21036 6.1011 0
M  V30 13848 C 2475.59 -1.04544 8.13308 0
M  V30 13849 O 2475.98 -2.38311 8.41922 0
M  V30 13850 C 2476.47 -0.491279 7.02284 0
M  V30 13851 C 2475.76 -0.996264 5.77469 0
M  V30 13852 N 2475.81 -0.0501808 4.62873 0
M  V30 13853 C 2475.96 -0.578037 3.3505 0
M  V30 13854 O 2476.05 -1.8073 3.21711 0
M  V30 13855 N 2476.01 0.468541 2.263 0
M  V30 13856 C 2475.91 1.59186 2.47176 0
M  V30 13857 N 2475.96 2.37626 1.40392 0
M  V30 13858 C 2475.76 2.16203 3.77467 0
M  V30 13859 C 2475.71 1.29324 4.8195 0
M  V30 13860 H 2472.97 0.374679 8.67591 0
M  V30 13861 H 2472.7 0.443421 6.90177 0
M  V30 13862 H 2473.56 -1.75559 7.96891 0
M  V30 13863 H 2476.22 -1.94529 5.46723 0
M  V30 13864 H 2476.5 0.608651 7.04676 0
M  V30 13865 H 2477.49 -0.889672 7.08939 0
M  V30 13866 H 2475.66 -0.43308 9.04564 0
M  V30 13867 H 2475.58 1.67758 5.83046 0
M  V30 13868 H 2475.69 3.23869 3.92281 0
M  V30 13869 H 2476.07 1.96317 0.467202 0
M  V30 13870 H 2475.88 3.39693 1.51142 0
M  V30 13871 P 2477.53 -2.75334 8.47391 0
M  V30 13872 O 2477.75 -3.84128 9.44797 0
M  V30 13873 O 2478.32 -1.51947 8.68712 0
M  V30 13874 O 2477.78 -3.29363 6.99321 0
M  V30 13875 C 2476.84 -4.24011 6.4274 0
M  V30 13876 C 2477.57 -5.20775 5.52155 0
M  V30 13877 O 2477.78 -4.56534 4.22446 0
M  V30 13878 C 2478.97 -5.62629 5.96531 0
M  V30 13879 O 2479.36 -6.87667 5.41053 0
M  V30 13880 C 2479.85 -4.52537 5.39283 0
M  V30 13881 C 2479.14 -4.20027 4.08623 0
M  V30 13882 N 2479.19 -2.76189 3.71603 0
M  V30 13883 H 2476.35 -4.797 7.24003 0
M  V30 13884 H 2476.08 -3.69856 5.84513 0
M  V30 13885 H 2476.94 -6.10356 5.41441 0
M  V30 13886 P 2480.91 -7.20834 5.23717 0
M  V30 13887 O 2481.13 -8.66104 5.38572 0
M  V30 13888 O 2481.7 -6.33544 6.1349 0
M  V30 13889 O 2481.16 -6.7751 3.72168 0
M  V30 13890 C 2480.22 -7.20825 2.7076 0
M  V30 13891 C 2480.95 -7.45864 1.40599 0
M  V30 13892 O 2481.16 -6.17651 0.734225 0
M  V30 13893 C 2482.35 -8.05808 1.51899 0
M  V30 13894 O 2482.74 -8.74358 0.335205 0
M  V30 13895 C 2483.23 -6.83093 1.70294 0
M  V30 13896 C 2482.52 -5.79992 0.836974 0
M  V30 13897 N 2482.57 -4.41864 1.38293 0
M  V30 13898 H 2479.73 -8.13644 3.0377 0
M  V30 13899 H 2479.46 -6.42788 2.55485 0
M  V30 13900 H 2480.32 -8.12039 0.792769 0
M  V30 13901 P 2484.29 -8.91 6.17288e-11 0
M  V30 13902 O 2484.51 -10.1726 -0.733694 0
M  V30 13903 O 2485.08 -8.73148 1.23936 0
M  V30 13904 O 2484.54 -7.66872 -0.971405 0
M  V30 13905 C 2483.6 -7.42309 -2.04641 0
M  V30 13906 C 2484.33 -6.86059 -3.24661 0
M  V30 13907 O 2484.54 -5.42847 -3.03646 0
M  V30 13908 C 2485.73 -7.41196 -3.50753 0
M  V30 13909 O 2486.12 -7.27073 -4.86816 0
M  V30 13910 C 2486.61 -6.5273 -2.63741 0
M  V30 13911 C 2485.9 -5.1842 -2.73198 0
M  V30 13912 N 2485.95 -4.38762 -1.4784 0
M  V30 13913 C 2485.87 -4.81605 -0.168631 0
M  V30 13914 N 2485.95 -3.85454 0.713363 0
M  V30 13915 C 2486.09 -2.6994 -0.0566958 0
M  V30 13916 C 2486.22 -1.34815 0.338502 0
M  V30 13917 N 2486.34 -0.496304 -0.77465 0
M  V30 13918 C 2486.34 -0.908403 -2.09122 0
M  V30 13919 N 2486.47 0.0517805 -3.00955 0
M  V30 13920 N 2486.21 -2.17875 -2.46519 0
M  V30 13921 C 2486.09 -3.01988 -1.4033 0
M  V30 13922 H 2483.11 -8.36803 -2.32493 0
M  V30 13923 H 2482.84 -6.70197 -1.71129 0
M  V30 13924 H 2483.7 -7.03551 -4.13168 0
M  V30 13925 P 2487.67 -7.20834 -5.23717 0
M  V30 13926 O 2487.89 -7.79853 -6.57286 0
M  V30 13927 O 2488.46 -7.79239 -4.12957 0
M  V30 13928 O 2487.92 -5.63315 -5.29344 0
M  V30 13929 C 2486.98 -4.80255 -6.01876 0
M  V30 13930 C 2487.71 -3.64202 -6.65911 0
M  V30 13931 O 2487.92 -2.60694 -5.64732 0
M  V30 13932 C 2489.11 -3.93473 -7.1943 0
M  V30 13933 O 2489.5 -3.02071 -8.21205 0
M  V30 13934 C 2489.99 -3.73047 -5.97036 0
M  V30 13935 C 2489.28 -2.58828 -5.25741 0
M  V30 13936 N 2489.33 -2.68068 -3.77503 0
M  V30 13937 H 2486.49 -5.40332 -6.79951 0
M  V30 13938 H 2486.22 -4.41613 -5.32378 0
M  V30 13939 H 2487.08 -3.26331 -7.47797 0
M  V30 13940 P 2491.05 -2.75334 -8.47391 0
M  V30 13941 O 2491.27 -2.44571 -9.90142 0
M  V30 13942 O 2491.84 -3.87688 -7.92115 0
M  V30 13943 O 2491.3 -1.4459 -7.59357 0
M  V30 13944 C 2490.36 -0.347608 -7.69215 0
M  V30 13945 C 2491.09 0.96767 -7.52806 0
M  V30 13946 O 2491.3 1.21036 -6.1011 0
M  V30 13947 C 2492.49 1.04544 -8.13308 0
M  V30 13948 O 2492.88 2.38311 -8.41922 0
M  V30 13949 C 2493.37 0.491279 -7.02284 0
M  V30 13950 C 2492.66 0.996264 -5.77469 0
M  V30 13951 N 2492.71 0.0501916 -4.62973 0
M  V30 13952 H 2489.87 -0.374722 -8.67691 0
M  V30 13953 H 2489.6 -0.443485 -6.90277 0
M  V30 13954 H 2490.46 1.75537 -7.96793 0
M  V30 13955 P 2494.43 2.75334 -8.47391 0
M  V30 13956 O 2494.65 3.84128 -9.44797 0
M  V30 13957 O 2495.22 1.51947 -8.68712 0
M  V30 13958 O 2494.68 3.29363 -6.99321 0
M  V30 13959 C 2493.74 4.24011 -6.4274 0
M  V30 13960 C 2494.47 5.20775 -5.52155 0
M  V30 13961 O 2494.68 4.56534 -4.22446 0
M  V30 13962 C 2495.87 5.62629 -5.96531 0
M  V30 13963 O 2496.26 6.87667 -5.41053 0
M  V30 13964 C 2496.75 4.52537 -5.39283 0
M  V30 13965 C 2496.04 4.20027 -4.08623 0
M  V30 13966 N 2496.09 2.76189 -3.71603 0
M  V30 13967 H 2493.25 4.797 -7.24003 0
M  V30 13968 H 2492.98 3.69856 -5.84513 0
M  V30 13969 H 2493.84 6.10356 -5.41441 0
M  V30 13970 P 2497.81 7.20834 -5.23717 0
M  V30 13971 O 2498.03 8.66104 -5.38572 0
M  V30 13972 O 2498.6 6.33544 -6.1349 0
M  V30 13973 O 2498.06 6.7751 -3.72168 0
M  V30 13974 C 2497.12 7.20825 -2.7076 0
M  V30 13975 C 2497.85 7.45864 -1.40599 0
M  V30 13976 O 2498.06 6.17651 -0.734225 0
M  V30 13977 C 2499.25 8.05808 -1.51899 0
M  V30 13978 O 2499.64 8.74358 -0.335205 0
M  V30 13979 C 2500.13 6.83093 -1.70294 0
M  V30 13980 C 2499.42 5.79992 -0.836974 0
M  V30 13981 N 2499.47 4.41864 -1.38293 0
M  V30 13982 C 2499.39 3.99538 -2.69438 0
M  V30 13983 N 2499.47 2.69909 -2.84277 0
M  V30 13984 C 2499.61 2.21719 -1.5408 0
M  V30 13985 C 2499.74 0.891712 -1.06628 0
M  V30 13986 N 2499.86 0.856846 0.334985 0
M  V30 13987 C 2499.86 1.9641 1.15789 0
M  V30 13988 N 2499.99 1.72708 2.46522 0
M  V30 13989 N 2499.73 3.21165 0.713741 0
M  V30 13990 C 2499.61 3.26797 -0.639748 0
M  V30 13991 H 2496.63 8.13644 -3.0377 0
M  V30 13992 H 2496.36 6.42788 -2.55485 0
M  V30 13993 H 2497.22 8.12039 -0.792769 0
M  V30 13994 P 2501.19 8.91 -6.28378e-11 0
M  V30 13995 O 2501.41 10.1726 0.733694 0
M  V30 13996 O 2501.98 8.73148 -1.23936 0
M  V30 13997 O 2501.44 7.66872 0.971405 0
M  V30 13998 C 2500.5 7.42309 2.04641 0
M  V30 13999 C 2501.23 6.86059 3.24661 0
M  V30 14000 O 2501.44 5.42847 3.03646 0
M  V30 14001 C 2502.63 7.41196 3.50753 0
M  V30 14002 O 2503.02 7.27073 4.86816 0
M  V30 14003 C 2503.51 6.5273 2.63741 0
M  V30 14004 C 2502.8 5.1842 2.73198 0
M  V30 14005 N 2502.85 4.38762 1.4784 0
M  V30 14006 H 2500.01 8.36803 2.32493 0
M  V30 14007 H 2499.74 6.70197 1.71129 0
M  V30 14008 H 2500.6 7.03551 4.13168 0
M  V30 14009 P 2504.57 7.20834 5.23717 0
M  V30 14010 O 2504.79 7.79853 6.57286 0
M  V30 14011 O 2505.36 7.79239 4.12957 0
M  V30 14012 O 2504.82 5.63315 5.29344 0
M  V30 14013 C 2503.88 4.80255 6.01876 0
M  V30 14014 C 2504.61 3.64202 6.65911 0
M  V30 14015 O 2504.82 2.60694 5.64732 0
M  V30 14016 C 2506.01 3.93473 7.1943 0
M  V30 14017 O 2506.4 3.02071 8.21205 0
M  V30 14018 C 2506.89 3.73047 5.97036 0
M  V30 14019 C 2506.18 2.58828 5.25741 0
M  V30 14020 N 2506.23 2.68068 3.77503 0
M  V30 14021 H 2503.39 5.40332 6.79951 0
M  V30 14022 H 2503.12 4.41613 5.32378 0
M  V30 14023 H 2503.98 3.26331 7.47797 0
M  V30 14024 P 2507.95 2.75334 8.47391 0
M  V30 14025 O 2508.17 2.44571 9.90142 0
M  V30 14026 O 2508.74 3.87688 7.92115 0
M  V30 14027 O 2508.2 1.4459 7.59357 0
M  V30 14028 C 2507.26 0.347608 7.69215 0
M  V30 14029 C 2507.99 -0.96767 7.52806 0
M  V30 14030 O 2508.2 -1.21036 6.1011 0
M  V30 14031 C 2509.39 -1.04544 8.13308 0
M  V30 14032 O 2509.78 -2.38311 8.41922 0
M  V30 14033 C 2510.27 -0.491279 7.02284 0
M  V30 14034 C 2509.56 -0.996264 5.77469 0
M  V30 14035 N 2509.61 -0.0501916 4.62973 0
M  V30 14036 H 2506.77 0.374722 8.67691 0
M  V30 14037 H 2506.5 0.443485 6.90277 0
M  V30 14038 H 2507.36 -1.75537 7.96793 0
M  V30 14039 P 2511.33 -2.75334 8.47391 0
M  V30 14040 O 2511.55 -3.84128 9.44797 0
M  V30 14041 O 2512.12 -1.51947 8.68712 0
M  V30 14042 O 2511.58 -3.29363 6.99321 0
M  V30 14043 C 2510.64 -4.24011 6.4274 0
M  V30 14044 C 2511.37 -5.20775 5.52155 0
M  V30 14045 O 2511.58 -4.56534 4.22446 0
M  V30 14046 C 2512.77 -5.62629 5.96531 0
M  V30 14047 O 2513.16 -6.87667 5.41053 0
M  V30 14048 C 2513.65 -4.52537 5.39283 0
M  V30 14049 C 2512.94 -4.20027 4.08623 0
M  V30 14050 N 2512.99 -2.76189 3.71603 0
M  V30 14051 H 2510.15 -4.797 7.24003 0
M  V30 14052 H 2509.88 -3.69856 5.84513 0
M  V30 14053 H 2510.74 -6.10356 5.41441 0
M  V30 14054 P 2514.71 -7.20834 5.23717 0
M  V30 14055 O 2514.93 -8.66274 5.38678 0
M  V30 14056 O 2515.5 -6.33687 6.13629 0
M  V30 14057 O 2514.96 -6.7751 3.72168 0
M  V30 14058 C 2514.02 -7.20919 2.70795 0
M  V30 14059 C 2514.75 -7.45864 1.40599 0
M  V30 14060 O 2514.96 -6.17751 0.734343 0
M  V30 14061 C 2516.15 -8.05906 1.51917 0
M  V30 14062 O 2516.54 -8.74358 0.335205 0
M  V30 14063 C 2517.03 -6.83093 1.70294 0
M  V30 14064 C 2516.32 -5.79992 0.836974 0
M  V30 14065 N 2516.37 -4.41864 1.38293 0
M  V30 14066 C 2516.29 -4.02089 2.69407 0
M  V30 14067 N 2516.36 -2.73403 2.85089 0
M  V30 14068 C 2516.51 -2.25086 1.5642 0
M  V30 14069 C 2516.64 -0.942887 1.04836 0
M  V30 14070 N 2516.65 0.150999 1.80369 0
M  V30 14071 N 2516.76 -0.812565 -0.28167 0
M  V30 14072 C 2516.75 -1.90572 -1.03784 0
M  V30 14073 N 2516.63 -3.167 -0.683905 0
M  V30 14074 C 2516.51 -3.26538 0.652815 0
M  V30 14075 H 2513.53 -8.13738 3.03804 0
M  V30 14076 H 2513.26 -6.42974 2.55559 0
M  V30 14077 H 2514.12 -8.12139 0.792866 0
M  V30 14078 H 2516.78 -5.80178 -0.160643 0
M  V30 14079 H 2517.06 -6.51379 2.75643 0
M  V30 14080 H 2518.05 -7.01832 1.3448 0
M  V30 14081 H 2516.22 -8.73771 2.38364 0
M  V30 14082 H 2516.17 -4.7189 3.52311 0
M  V30 14083 H 2516.56 0.0721434 2.82608 0
M  V30 14084 H 2516.74 1.0785 1.36544 0
M  V30 14085 H 2516.85 -1.73207 -2.10241 0
M  V30 14086 P 2518.09 -8.91 6.39468e-11 0
M  V30 14087 O 2518.31 -10.1726 -0.733694 0
M  V30 14088 O 2518.88 -8.73148 1.23936 0
M  V30 14089 O 2518.34 -7.66872 -0.971405 0
M  V30 14090 C 2517.4 -7.42309 -2.04641 0
M  V30 14091 C 2518.13 -6.86059 -3.24661 0
M  V30 14092 O 2518.34 -5.42847 -3.03646 0
M  V30 14093 C 2519.53 -7.41196 -3.50753 0
M  V30 14094 O 2519.92 -7.27073 -4.86816 0
M  V30 14095 C 2520.41 -6.5273 -2.63741 0
M  V30 14096 C 2519.7 -5.1842 -2.73198 0
M  V30 14097 N 2519.75 -4.38762 -1.4784 0
M  V30 14098 H 2516.91 -8.36803 -2.32493 0
M  V30 14099 H 2516.64 -6.70197 -1.71129 0
M  V30 14100 H 2517.5 -7.03551 -4.13168 0
M  V30 14101 P 2521.47 -7.20834 -5.23717 0
M  V30 14102 O 2521.69 -7.79853 -6.57286 0
M  V30 14103 O 2522.26 -7.79239 -4.12957 0
M  V30 14104 O 2521.72 -5.63315 -5.29344 0
M  V30 14105 C 2520.78 -4.80255 -6.01876 0
M  V30 14106 C 2521.51 -3.64202 -6.65911 0
M  V30 14107 O 2521.72 -2.60694 -5.64732 0
M  V30 14108 C 2522.91 -3.93473 -7.1943 0
M  V30 14109 O 2523.3 -3.02071 -8.21205 0
M  V30 14110 C 2523.79 -3.73047 -5.97036 0
M  V30 14111 C 2523.08 -2.58828 -5.25741 0
M  V30 14112 N 2523.13 -2.68068 -3.77503 0
M  V30 14113 H 2520.29 -5.40332 -6.79951 0
M  V30 14114 H 2520.02 -4.41613 -5.32378 0
M  V30 14115 H 2520.88 -3.26331 -7.47797 0
M  V30 14116 P 2524.85 -2.75334 -8.47391 0
M  V30 14117 O 2525.07 -2.44619 -9.90336 0
M  V30 14118 O 2525.64 -3.87776 -7.92294 0
M  V30 14119 O 2525.1 -1.4459 -7.59357 0
M  V30 14120 C 2524.16 -0.347653 -7.69315 0
M  V30 14121 C 2524.89 0.96767 -7.52806 0
M  V30 14122 O 2525.1 1.21055 -6.10208 0
M  V30 14123 C 2526.29 1.04557 -8.13408 0
M  V30 14124 O 2526.68 2.38311 -8.41922 0
M  V30 14125 C 2527.17 0.491279 -7.02284 0
M  V30 14126 C 2526.46 0.996264 -5.77469 0
M  V30 14127 N 2526.51 0.0501916 -4.62973 0
M  V30 14128 C 2526.43 -1.31969 -4.65661 0
M  V30 14129 N 2526.5 -1.86649 -3.48119 0
M  V30 14130 C 2526.65 -0.792089 -2.62406 0
M  V30 14131 C 2526.78 -0.705684 -1.2207 0
M  V30 14132 N 2526.79 -1.76207 -0.413762 0
M  V30 14133 N 2526.9 0.518981 -0.685754 0
M  V30 14134 C 2526.89 1.57595 -1.49174 0
M  V30 14135 N 2526.77 1.62909 -2.80066 0
M  V30 14136 C 2526.65 0.388195 -3.3073 0
M  V30 14137 H 2523.67 -0.374765 -8.67791 0
M  V30 14138 H 2523.4 -0.443613 -6.90476 0
M  V30 14139 H 2524.26 1.75559 -7.96891 0
M  V30 14140 H 2526.92 1.94563 -5.46818 0
M  V30 14141 H 2527.2 -0.608651 -7.04676 0
M  V30 14142 H 2528.19 0.889796 -7.09039 0
M  V30 14143 H 2526.36 0.433128 -9.04664 0
M  V30 14144 H 2526.31 -1.89246 -5.57664 0
M  V30 14145 H 2526.7 -2.71005 -0.804694 0
M  V30 14146 H 2526.88 -1.63189 0.603768 0
M  V30 14147 H 2526.99 2.53475 -0.997614 0
M  V30 14148 P 2528.23 2.75334 -8.47391 0
M  V30 14149 O 2528.45 3.84128 -9.44797 0
M  V30 14150 O 2529.02 1.51947 -8.68712 0
M  V30 14151 O 2528.48 3.29363 -6.99321 0
M  V30 14152 C 2527.54 4.24011 -6.4274 0
M  V30 14153 C 2528.27 5.20775 -5.52155 0
M  V30 14154 O 2528.48 4.56534 -4.22446 0
M  V30 14155 C 2529.67 5.62629 -5.96531 0
M  V30 14156 O 2530.06 6.87667 -5.41053 0
M  V30 14157 C 2530.55 4.52537 -5.39283 0
M  V30 14158 C 2529.84 4.20027 -4.08623 0
M  V30 14159 N 2529.89 2.76189 -3.71603 0
M  V30 14160 C 2529.81 1.64862 -4.52822 0
M  V30 14161 N 2529.89 0.512671 -3.88633 0
M  V30 14162 C 2530.03 0.888083 -2.54977 0
M  V30 14163 C 2530.16 0.094668 -1.38677 0
M  V30 14164 O 2530.18 -1.13053 -1.28163 0
M  V30 14165 N 2530.28 0.890102 -0.232633 0
M  V30 14166 C 2530.28 2.26958 -0.21772 0
M  V30 14167 N 2530.41 2.84626 0.97925 0
M  V30 14168 N 2530.15 3.0178 -1.31033 0
M  V30 14169 C 2530.03 2.26781 -2.43843 0
M  V30 14170 H 2527.05 4.797 -7.24003 0
M  V30 14171 H 2526.78 3.69856 -5.84513 0
M  V30 14172 H 2527.64 6.10356 -5.41441 0
M  V30 14173 H 2530.3 4.79061 -3.27488 0
M  V30 14174 H 2530.58 3.64906 -6.05785 0
M  V30 14175 H 2531.57 4.8868 -5.2125 0
M  V30 14176 H 2529.74 5.66726 -7.06352 0
M  V30 14177 H 2529.69 1.71169 -5.60966 0
M  V30 14178 H 2530.37 0.419134 0.644739 0
M  V30 14179 H 2530.41 3.87332 1.06098 0
M  V30 14180 H 2530.51 2.26417 1.82483 0
M  V30 14181 P 2531.61 7.20834 -5.23717 0
M  V30 14182 O 2531.83 8.66104 -5.38572 0
M  V30 14183 O 2532.4 6.33544 -6.1349 0
M  V30 14184 O 2531.86 6.7751 -3.72168 0
M  V30 14185 C 2530.92 7.20825 -2.7076 0
M  V30 14186 C 2531.65 7.45864 -1.40599 0
M  V30 14187 O 2531.86 6.17651 -0.734225 0
M  V30 14188 C 2533.05 8.05808 -1.51899 0
M  V30 14189 O 2533.44 8.74358 -0.335205 0
M  V30 14190 C 2533.93 6.83093 -1.70294 0
M  V30 14191 C 2533.22 5.79992 -0.836974 0
M  V30 14192 N 2533.27 4.41864 -1.38293 0
M  V30 14193 H 2530.43 8.13644 -3.0377 0
M  V30 14194 H 2530.16 6.42788 -2.55485 0
M  V30 14195 H 2531.02 8.12039 -0.792769 0
M  V30 14196 P 2534.99 8.91 -6.50558e-11 0
M  V30 14197 O 2535.21 10.1726 0.733694 0
M  V30 14198 O 2535.78 8.73148 -1.23936 0
M  V30 14199 O 2535.24 7.66872 0.971405 0
M  V30 14200 C 2534.3 7.42309 2.04641 0
M  V30 14201 C 2535.03 6.86059 3.24661 0
M  V30 14202 O 2535.24 5.42847 3.03646 0
M  V30 14203 C 2536.43 7.41196 3.50753 0
M  V30 14204 O 2536.82 7.27073 4.86816 0
M  V30 14205 C 2537.31 6.5273 2.63741 0
M  V30 14206 C 2536.6 5.1842 2.73198 0
M  V30 14207 N 2536.65 4.38762 1.4784 0
M  V30 14208 H 2533.81 8.36803 2.32493 0
M  V30 14209 H 2533.54 6.70197 1.71129 0
M  V30 14210 H 2534.4 7.03551 4.13168 0
M  V30 14211 P 2538.36 7.20834 5.23717 0
M  V30 14212 O 2538.58 7.80006 6.57415 0
M  V30 14213 O 2539.15 7.79416 4.13051 0
M  V30 14214 O 2538.61 5.63315 5.29344 0
M  V30 14215 C 2537.67 4.80318 6.01954 0
M  V30 14216 C 2538.4 3.64202 6.65911 0
M  V30 14217 O 2538.61 2.60736 5.64823 0
M  V30 14218 C 2539.8 3.93521 7.19518 0
M  V30 14219 O 2540.19 3.02071 8.21205 0
M  V30 14220 C 2540.68 3.73047 5.97036 0
M  V30 14221 C 2539.97 2.58828 5.25741 0
M  V30 14222 N 2540.02 2.68068 3.77503 0
M  V30 14223 C 2539.94 3.80474 2.99159 0
M  V30 14224 N 2540.01 3.55622 1.71925 0
M  V30 14225 C 2540.16 2.1832 1.65733 0
M  V30 14226 C 2540.29 1.28842 0.572777 0
M  V30 14227 N 2540.3 1.66875 -0.70098 0
M  V30 14228 N 2540.41 -0.016788 0.859836 0
M  V30 14229 C 2540.4 -0.398145 2.13316 0
M  V30 14230 N 2540.28 0.328224 3.22333 0
M  V30 14231 C 2540.16 1.62992 2.90383 0
M  V30 14232 H 2537.19 5.40394 6.8003 0
M  V30 14233 H 2536.91 4.41741 5.32532 0
M  V30 14234 H 2537.78 3.26371 7.47889 0
M  V30 14235 H 2540.44 1.64007 5.56746 0
M  V30 14236 H 2540.72 4.63439 5.3432 0
M  V30 14237 H 2541.71 3.44776 6.25925 0
M  V30 14238 H 2539.87 4.96707 7.57347 0
M  V30 14239 H 2539.83 4.8089 3.39924 0
M  V30 14240 H 2540.21 2.66547 -0.941919 0
M  V30 14241 H 2540.4 0.965341 -1.44766 0
M  V30 14242 H 2540.51 -1.46427 2.29697 0
M  V30 14243 P 2541.74 2.75334 8.47391 0
M  V30 14244 O 2541.96 2.44571 9.90142 0
M  V30 14245 O 2542.53 3.87688 7.92115 0
M  V30 14246 O 2541.99 1.4459 7.59357 0
M  V30 14247 C 2541.05 0.347608 7.69215 0
M  V30 14248 C 2541.78 -0.96767 7.52806 0
M  V30 14249 O 2541.99 -1.21036 6.1011 0
M  V30 14250 C 2543.18 -1.04544 8.13308 0
M  V30 14251 O 2543.57 -2.38311 8.41922 0
M  V30 14252 C 2544.06 -0.491279 7.02284 0
M  V30 14253 C 2543.35 -0.996264 5.77469 0
M  V30 14254 N 2543.4 -0.0501916 4.62973 0
M  V30 14255 H 2540.57 0.374722 8.67691 0
M  V30 14256 H 2540.3 0.443485 6.90277 0
M  V30 14257 H 2541.16 -1.75537 7.96793 0
M  V30 14258 P 2545.12 -2.75334 8.47391 0
M  V30 14259 O 2545.34 -3.84204 9.44982 0
M  V30 14260 O 2545.91 -1.51982 8.68909 0
M  V30 14261 O 2545.37 -3.29363 6.99321 0
M  V30 14262 C 2544.43 -4.24066 6.42823 0
M  V30 14263 C 2545.16 -5.20775 5.52155 0
M  V30 14264 O 2545.37 -4.56607 4.22514 0
M  V30 14265 C 2546.56 -5.62697 5.96604 0
M  V30 14266 O 2546.95 -6.87667 5.41053 0
M  V30 14267 C 2547.44 -4.52537 5.39283 0
M  V30 14268 C 2546.73 -4.20027 4.08623 0
M  V30 14269 N 2546.78 -2.76189 3.71603 0
M  V30 14270 H 2543.95 -4.79756 7.24086 0
M  V30 14271 H 2543.67 -3.69963 5.84682 0
M  V30 14272 H 2544.54 -6.10431 5.41508 0
M  V30 14273 H 2547.2 -4.78816 3.28024 0
M  V30 14274 H 2547.48 -3.64957 6.05871 0
M  V30 14275 H 2548.47 -4.88748 5.21323 0
M  V30 14276 H 2546.63 -5.66789 7.0643 0
M  V30 14277 P 2548.5 -7.20834 5.23717 0
M  V30 14278 O 2548.72 -8.66104 5.38572 0
M  V30 14279 O 2549.29 -6.33544 6.1349 0
M  V30 14280 O 2548.75 -6.7751 3.72168 0
M  V30 14281 C 2547.81 -7.20825 2.7076 0
M  V30 14282 C 2548.54 -7.45864 1.40599 0
M  V30 14283 O 2548.75 -6.17651 0.734225 0
M  V30 14284 C 2549.94 -8.05808 1.51899 0
M  V30 14285 O 2550.33 -8.74358 0.335205 0
M  V30 14286 C 2550.82 -6.83093 1.70294 0
M  V30 14287 C 2550.11 -5.79992 0.836974 0
M  V30 14288 N 2550.16 -4.41864 1.38293 0
M  V30 14289 H 2547.33 -8.13644 3.0377 0
M  V30 14290 H 2547.06 -6.42788 2.55485 0
M  V30 14291 H 2547.92 -8.12039 0.792769 0
M  V30 14292 P 2551.88 -8.91 6.61648e-11 0
M  V30 14293 O 2552.1 -10.1726 -0.733694 0
M  V30 14294 O 2552.67 -8.73148 1.23936 0
M  V30 14295 O 2552.13 -7.66872 -0.971405 0
M  V30 14296 C 2551.19 -7.42309 -2.04641 0
M  V30 14297 C 2551.92 -6.86059 -3.24661 0
M  V30 14298 O 2552.13 -5.42847 -3.03646 0
M  V30 14299 C 2553.32 -7.41196 -3.50753 0
M  V30 14300 O 2553.71 -7.27073 -4.86816 0
M  V30 14301 C 2554.2 -6.5273 -2.63741 0
M  V30 14302 C 2553.49 -5.1842 -2.73198 0
M  V30 14303 N 2553.54 -4.38762 -1.4784 0
M  V30 14304 H 2550.71 -8.36803 -2.32493 0
M  V30 14305 H 2550.44 -6.70197 -1.71129 0
M  V30 14306 H 2551.3 -7.03551 -4.13168 0
M  V30 14307 P 2555.26 -7.20834 -5.23717 0
M  V30 14308 O 2555.48 -7.7993 -6.57351 0
M  V30 14309 O 2556.05 -7.79328 -4.13004 0
M  V30 14310 O 2555.51 -5.63315 -5.29344 0
M  V30 14311 C 2554.57 -4.80193 -6.01798 0
M  V30 14312 C 2555.3 -3.64202 -6.65911 0
M  V30 14313 O 2555.51 -2.60694 -5.64732 0
M  V30 14314 C 2556.7 -3.93473 -7.1943 0
M  V30 14315 O 2557.09 -3.02071 -8.21205 0
M  V30 14316 C 2557.58 -3.73047 -5.97036 0
M  V30 14317 C 2556.87 -2.58828 -5.25741 0
M  V30 14318 N 2556.92 -2.6801 -3.77422 0
M  V30 14319 C 2557.07 -1.50443 -3.07133 0
M  V30 14320 O 2557.16 -0.419406 -3.61576 0
M  V30 14321 N 2557.11 -1.6403 -1.69677 0
M  V30 14322 C 2557.02 -2.81206 -0.986255 0
M  V30 14323 C 2556.87 -3.99158 -1.80325 0
M  V30 14324 C 2556.82 -3.89779 -3.1476 0
M  V30 14325 H 2554.08 -5.40332 -6.79951 0
M  V30 14326 H 2553.82 -4.41549 -5.32301 0
M  V30 14327 H 2554.68 -3.26331 -7.47797 0
M  V30 14328 H 2557.34 -1.6395 -5.56554 0
M  V30 14329 H 2557.62 -4.63439 -5.3432 0
M  V30 14330 H 2558.61 -3.44728 -6.25838 0
M  V30 14331 H 2556.77 -4.96652 -7.57263 0
M  V30 14332 H 2556.7 -4.80159 -3.74441 0
M  V30 14333 P 2558.64 -2.75334 -8.47391 0
M  V30 14334 O 2558.86 -2.44619 -9.90336 0
M  V30 14335 O 2559.43 -3.87776 -7.92294 0
M  V30 14336 O 2558.89 -1.4459 -7.59357 0
M  V30 14337 C 2557.95 -0.347653 -7.69315 0
M  V30 14338 C 2558.68 0.96767 -7.52806 0
M  V30 14339 O 2558.89 1.21055 -6.10208 0
M  V30 14340 C 2560.08 1.04557 -8.13408 0
M  V30 14341 O 2560.47 2.38311 -8.41922 0
M  V30 14342 C 2560.96 0.491279 -7.02284 0
M  V30 14343 C 2560.25 0.996264 -5.77469 0
M  V30 14344 N 2560.3 0.0501916 -4.62973 0
M  V30 14345 H 2557.47 -0.374765 -8.67791 0
M  V30 14346 H 2557.19 -0.443613 -6.90476 0
M  V30 14347 H 2558.06 1.75559 -7.96891 0
M  V30 14348 H 2560.72 1.94563 -5.46818 0
M  V30 14349 H 2561 -0.608651 -7.04676 0
M  V30 14350 H 2561.99 0.889796 -7.09039 0
M  V30 14351 H 2560.15 0.433128 -9.04664 0
M  V30 14352 P 2562.02 2.75334 -8.47391 0
M  V30 14353 O 2562.24 3.84204 -9.44982 0
M  V30 14354 O 2562.81 1.51982 -8.68909 0
M  V30 14355 O 2562.27 3.29363 -6.99321 0
M  V30 14356 C 2561.33 4.24066 -6.42823 0
M  V30 14357 C 2562.06 5.20775 -5.52155 0
M  V30 14358 O 2562.27 4.56607 -4.22514 0
M  V30 14359 C 2563.46 5.62697 -5.96604 0
M  V30 14360 O 2563.85 6.87667 -5.41053 0
M  V30 14361 C 2564.34 4.52537 -5.39283 0
M  V30 14362 C 2563.63 4.20027 -4.08623 0
M  V30 14363 N 2563.68 2.76189 -3.71603 0
M  V30 14364 H 2560.85 4.79756 -7.24086 0
M  V30 14365 H 2560.57 3.69963 -5.84682 0
M  V30 14366 H 2561.44 6.10431 -5.41508 0
M  V30 14367 H 2564.1 4.78816 -3.28024 0
M  V30 14368 H 2564.38 3.64957 -6.05871 0
M  V30 14369 H 2565.37 4.88748 -5.21323 0
M  V30 14370 H 2563.53 5.66789 -7.0643 0
M  V30 14371 P 2565.4 7.20834 -5.23717 0
M  V30 14372 O 2565.62 8.66104 -5.38572 0
M  V30 14373 O 2566.19 6.33544 -6.1349 0
M  V30 14374 O 2565.65 6.7751 -3.72168 0
M  V30 14375 C 2564.71 7.20825 -2.7076 0
M  V30 14376 C 2565.44 7.45864 -1.40599 0
M  V30 14377 O 2565.65 6.17651 -0.734225 0
M  V30 14378 C 2566.84 8.05808 -1.51899 0
M  V30 14379 O 2567.23 8.74358 -0.335205 0
M  V30 14380 C 2567.72 6.83093 -1.70294 0
M  V30 14381 C 2567.01 5.79992 -0.836974 0
M  V30 14382 N 2567.06 4.41864 -1.38293 0
M  V30 14383 C 2566.98 3.99538 -2.69438 0
M  V30 14384 N 2567.06 2.69909 -2.84277 0
M  V30 14385 C 2567.2 2.21719 -1.5408 0
M  V30 14386 C 2567.33 0.891712 -1.06628 0
M  V30 14387 O 2567.35 -0.161298 -1.70137 0
M  V30 14388 N 2567.45 0.856846 0.334985 0
M  V30 14389 C 2567.45 1.9641 1.15789 0
M  V30 14390 N 2567.58 1.72708 2.46522 0
M  V30 14391 N 2567.32 3.21165 0.713741 0
M  V30 14392 C 2567.2 3.26797 -0.639748 0
M  V30 14393 H 2564.23 8.13644 -3.0377 0
M  V30 14394 H 2563.96 6.42788 -2.55485 0
M  V30 14395 H 2564.82 8.12039 -0.792769 0
M  V30 14396 H 2567.48 5.80061 0.166416 0
M  V30 14397 H 2567.76 6.51287 -2.75604 0
M  V30 14398 H 2568.75 7.01734 -1.34462 0
M  V30 14399 H 2566.91 8.73674 -2.38337 0
M  V30 14400 H 2566.87 4.68207 -3.53221 0
M  V30 14401 H 2567.55 -0.0398818 0.767965 0
M  V30 14402 H 2567.58 2.50995 3.13503 0
M  V30 14403 H 2567.69 0.759148 2.80716 0
M  V30 14404 P 2568.78 8.91 -6.72738e-11 0
M  V30 14405 O 2569 10.1726 0.733694 0
M  V30 14406 O 2569.57 8.73148 -1.23936 0
M  V30 14407 O 2569.03 7.66872 0.971405 0
M  V30 14408 C 2568.09 7.42309 2.04641 0
M  V30 14409 C 2568.82 6.86059 3.24661 0
M  V30 14410 O 2569.03 5.42847 3.03646 0
M  V30 14411 C 2570.22 7.41196 3.50753 0
M  V30 14412 O 2570.61 7.27073 4.86816 0
M  V30 14413 C 2571.1 6.5273 2.63741 0
M  V30 14414 C 2570.39 5.1842 2.73198 0
M  V30 14415 N 2570.44 4.38762 1.4784 0
M  V30 14416 H 2567.61 8.36803 2.32493 0
M  V30 14417 H 2567.34 6.70197 1.71129 0
M  V30 14418 H 2568.2 7.03551 4.13168 0
M  V30 14419 P 2572.16 7.20834 5.23717 0
M  V30 14420 O 2572.38 7.80006 6.57415 0
M  V30 14421 O 2572.95 7.79416 4.13051 0
M  V30 14422 O 2572.41 5.63315 5.29344 0
M  V30 14423 C 2571.47 4.80318 6.01954 0
M  V30 14424 C 2572.2 3.64202 6.65911 0
M  V30 14425 O 2572.41 2.60736 5.64823 0
M  V30 14426 C 2573.6 3.93521 7.19518 0
M  V30 14427 O 2573.99 3.02071 8.21205 0
M  V30 14428 C 2574.48 3.73047 5.97036 0
M  V30 14429 C 2573.77 2.58828 5.25741 0
M  V30 14430 N 2573.82 2.68068 3.77503 0
M  V30 14431 H 2570.99 5.40394 6.8003 0
M  V30 14432 H 2570.71 4.41741 5.32532 0
M  V30 14433 H 2571.58 3.26371 7.47889 0
M  V30 14434 H 2574.24 1.64007 5.56746 0
M  V30 14435 H 2574.52 4.63439 5.3432 0
M  V30 14436 H 2575.51 3.44776 6.25925 0
M  V30 14437 H 2573.67 4.96707 7.57347 0
M  V30 14438 P 2575.54 2.75334 8.47391 0
M  V30 14439 O 2575.76 2.44571 9.90142 0
M  V30 14440 O 2576.33 3.87688 7.92115 0
M  V30 14441 O 2575.79 1.4459 7.59357 0
M  V30 14442 C 2574.85 0.347608 7.69215 0
M  V30 14443 C 2575.58 -0.96767 7.52806 0
M  V30 14444 O 2575.79 -1.21036 6.1011 0
M  V30 14445 C 2576.98 -1.04544 8.13308 0
M  V30 14446 O 2577.37 -2.38311 8.41922 0
M  V30 14447 C 2577.86 -0.491279 7.02284 0
M  V30 14448 C 2577.15 -0.996264 5.77469 0
M  V30 14449 N 2577.2 -0.0501916 4.62973 0
M  V30 14450 H 2574.37 0.374722 8.67691 0
M  V30 14451 H 2574.1 0.443485 6.90277 0
M  V30 14452 H 2574.96 -1.75537 7.96793 0
M  V30 14453 P 2578.92 -2.75334 8.47391 0
M  V30 14454 O 2579.14 -3.84128 9.44797 0
M  V30 14455 O 2579.71 -1.51947 8.68712 0
M  V30 14456 O 2579.17 -3.29363 6.99321 0
M  V30 14457 C 2578.23 -4.24011 6.4274 0
M  V30 14458 C 2578.96 -5.20775 5.52155 0
M  V30 14459 O 2579.17 -4.56534 4.22446 0
M  V30 14460 C 2580.36 -5.62629 5.96531 0
M  V30 14461 O 2580.75 -6.87667 5.41053 0
M  V30 14462 C 2581.24 -4.52537 5.39283 0
M  V30 14463 C 2580.53 -4.20027 4.08623 0
M  V30 14464 N 2580.58 -2.76189 3.71603 0
M  V30 14465 H 2577.75 -4.797 7.24003 0
M  V30 14466 H 2577.48 -3.69856 5.84513 0
M  V30 14467 H 2578.34 -6.10356 5.41441 0
M  V30 14468 P 2582.3 -7.20834 5.23717 0
M  V30 14469 O 2582.52 -8.66274 5.38678 0
M  V30 14470 O 2583.09 -6.33687 6.13629 0
M  V30 14471 O 2582.55 -6.7751 3.72168 0
M  V30 14472 C 2581.61 -7.20919 2.70795 0
M  V30 14473 C 2582.34 -7.45864 1.40599 0
M  V30 14474 O 2582.55 -6.17751 0.734343 0
M  V30 14475 C 2583.74 -8.05906 1.51917 0
M  V30 14476 O 2584.13 -8.74358 0.335205 0
M  V30 14477 C 2584.62 -6.83093 1.70294 0
M  V30 14478 C 2583.91 -5.79992 0.836974 0
M  V30 14479 N 2583.96 -4.41864 1.38293 0
M  V30 14480 H 2581.13 -8.13738 3.03804 0
M  V30 14481 H 2580.85 -6.42974 2.55559 0
M  V30 14482 H 2581.72 -8.12139 0.792866 0
M  V30 14483 H 2584.38 -5.80178 -0.160643 0
M  V30 14484 H 2584.66 -6.51379 2.75643 0
M  V30 14485 H 2585.65 -7.01832 1.3448 0
M  V30 14486 H 2583.81 -8.73771 2.38364 0
M  V30 14487 P 2585.68 -8.91 6.83828e-11 0
M  V30 14488 O 2585.9 -10.1746 -0.733838 0
M  V30 14489 O 2586.47 -8.73346 1.23964 0
M  V30 14490 O 2585.93 -7.66872 -0.971405 0
M  V30 14491 C 2584.99 -7.42405 -2.04668 0
M  V30 14492 C 2585.72 -6.86059 -3.24661 0
M  V30 14493 O 2585.93 -5.42934 -3.03695 0
M  V30 14494 C 2587.12 -7.41287 -3.50796 0
M  V30 14495 O 2587.51 -7.27073 -4.86816 0
M  V30 14496 C 2588 -6.5273 -2.63741 0
M  V30 14497 C 2587.29 -5.1842 -2.73198 0
M  V30 14498 N 2587.34 -4.38762 -1.4784 0
M  V30 14499 H 2584.51 -8.36899 -2.3252 0
M  V30 14500 H 2584.23 -6.70391 -1.71179 0
M  V30 14501 H 2585.1 -7.03638 -4.13219 0
M  V30 14502 H 2587.76 -4.59931 -3.54016 0
M  V30 14503 H 2588.04 -6.88995 -1.59871 0
M  V30 14504 H 2589.03 -6.4684 -3.0373 0
M  V30 14505 H 2587.19 -8.47002 -3.20749 0
M  V30 14506 P 2589.06 -7.20834 -5.23717 0
M  V30 14507 O 2589.28 -7.7993 -6.57351 0
M  V30 14508 O 2589.85 -7.79328 -4.13004 0
M  V30 14509 O 2589.31 -5.63315 -5.29344 0
M  V30 14510 C 2588.37 -4.80193 -6.01798 0
M  V30 14511 C 2589.1 -3.64202 -6.65911 0
M  V30 14512 O 2589.31 -2.60694 -5.64732 0
M  V30 14513 C 2590.5 -3.93473 -7.1943 0
M  V30 14514 O 2590.89 -3.02071 -8.21205 0
M  V30 14515 C 2591.38 -3.73047 -5.97036 0
M  V30 14516 C 2590.67 -2.58828 -5.25741 0
M  V30 14517 N 2590.72 -2.6801 -3.77422 0
M  V30 14518 C 2590.87 -1.50443 -3.07133 0
M  V30 14519 O 2590.96 -0.419406 -3.61576 0
M  V30 14520 N 2590.91 -1.6403 -1.69677 0
M  V30 14521 C 2590.82 -2.81206 -0.986255 0
M  V30 14522 O 2590.87 -2.80892 0.249754 0
M  V30 14523 C 2590.67 -3.99158 -1.80325 0
M  V30 14524 C 2590.56 -5.29309 -1.06921 0
M  V30 14525 C 2590.62 -3.89779 -3.1476 0
M  V30 14526 H 2587.88 -5.40332 -6.79951 0
M  V30 14527 H 2587.62 -4.41549 -5.32301 0
M  V30 14528 H 2588.48 -3.26331 -7.47797 0
M  V30 14529 H 2591.14 -1.6395 -5.56554 0
M  V30 14530 H 2591.42 -4.63439 -5.3432 0
M  V30 14531 H 2592.41 -3.44728 -6.25838 0
M  V30 14532 H 2590.57 -4.96652 -7.57263 0
M  V30 14533 H 2590.5 -4.80159 -3.74441 0
M  V30 14534 H 2591.53 -5.81459 -1.09608 0
M  V30 14535 H 2589.8 -5.9187 -1.54487 0
M  V30 14536 H 2590.28 -5.10095 -0.0220288 0
M  V30 14537 H 2591.02 -0.798962 -1.16664 0
M  V30 14538 P 2592.44 -2.75334 -8.47391 0
M  V30 14539 O 2592.66 -2.44571 -9.90142 0
M  V30 14540 O 2593.23 -3.87688 -7.92115 0
M  V30 14541 O 2592.69 -1.4459 -7.59357 0
M  V30 14542 C 2591.75 -0.347608 -7.69215 0
M  V30 14543 C 2592.48 0.96767 -7.52806 0
M  V30 14544 O 2592.69 1.21036 -6.1011 0
M  V30 14545 C 2593.88 1.04544 -8.13308 0
M  V30 14546 O 2594.27 2.38311 -8.41922 0
M  V30 14547 C 2594.76 0.491279 -7.02284 0
M  V30 14548 C 2594.05 0.996264 -5.77469 0
M  V30 14549 N 2594.1 0.0501916 -4.62973 0
M  V30 14550 H 2591.27 -0.374722 -8.67691 0
M  V30 14551 H 2591 -0.443485 -6.90277 0
M  V30 14552 H 2591.86 1.75537 -7.96793 0
M  V30 14553 P 2595.82 2.75334 -8.47391 0
M  V30 14554 O 2596.04 3.84128 -9.44797 0
M  V30 14555 O 2596.61 1.51947 -8.68712 0
M  V30 14556 O 2596.07 3.29363 -6.99321 0
M  V30 14557 C 2595.13 4.24011 -6.4274 0
M  V30 14558 C 2595.86 5.20775 -5.52155 0
M  V30 14559 O 2596.07 4.56534 -4.22446 0
M  V30 14560 C 2597.26 5.62629 -5.96531 0
M  V30 14561 O 2597.65 6.87667 -5.41053 0
M  V30 14562 C 2598.14 4.52537 -5.39283 0
M  V30 14563 C 2597.43 4.20027 -4.08623 0
M  V30 14564 N 2597.48 2.76189 -3.71603 0
M  V30 14565 H 2594.65 4.797 -7.24003 0
M  V30 14566 H 2594.38 3.69856 -5.84513 0
M  V30 14567 H 2595.24 6.10356 -5.41441 0
M  V30 14568 P 2599.2 7.20834 -5.23717 0
M  V30 14569 O 2599.42 8.66104 -5.38572 0
M  V30 14570 O 2599.99 6.33544 -6.1349 0
M  V30 14571 O 2599.45 6.7751 -3.72168 0
M  V30 14572 C 2598.51 7.20825 -2.7076 0
M  V30 14573 C 2599.24 7.45864 -1.40599 0
M  V30 14574 O 2599.45 6.17651 -0.734225 0
M  V30 14575 C 2600.64 8.05808 -1.51899 0
M  V30 14576 O 2601.03 8.74358 -0.335205 0
M  V30 14577 C 2601.52 6.83093 -1.70294 0
M  V30 14578 C 2600.81 5.79992 -0.836974 0
M  V30 14579 N 2600.86 4.41864 -1.38293 0
M  V30 14580 H 2598.03 8.13644 -3.0377 0
M  V30 14581 H 2597.76 6.42788 -2.55485 0
M  V30 14582 H 2598.62 8.12039 -0.792769 0
M  V30 14583 P 2602.58 8.91 -6.94918e-11 0
M  V30 14584 O 2602.8 10.1726 0.733694 0
M  V30 14585 O 2603.37 8.73148 -1.23936 0
M  V30 14586 O 2602.83 7.66872 0.971405 0
M  V30 14587 C 2601.89 7.42309 2.04641 0
M  V30 14588 C 2602.62 6.86059 3.24661 0
M  V30 14589 O 2602.83 5.42847 3.03646 0
M  V30 14590 C 2604.02 7.41196 3.50753 0
M  V30 14591 O 2604.41 7.27073 4.86816 0
M  V30 14592 C 2604.9 6.5273 2.63741 0
M  V30 14593 C 2604.19 5.1842 2.73198 0
M  V30 14594 N 2604.24 4.38762 1.4784 0
M  V30 14595 H 2601.41 8.36803 2.32493 0
M  V30 14596 H 2601.14 6.70197 1.71129 0
M  V30 14597 H 2602 7.03551 4.13168 0
M  V30 14598 P 2605.96 7.20834 5.23717 0
M  V30 14599 O 2606.18 7.80006 6.57415 0
M  V30 14600 O 2606.75 7.79416 4.13051 0
M  V30 14601 O 2606.21 5.63315 5.29344 0
M  V30 14602 C 2605.27 4.80318 6.01954 0
M  V30 14603 C 2606 3.64202 6.65911 0
M  V30 14604 O 2606.21 2.60736 5.64823 0
M  V30 14605 C 2607.4 3.93521 7.19518 0
M  V30 14606 O 2607.79 3.02071 8.21205 0
M  V30 14607 C 2608.28 3.73047 5.97036 0
M  V30 14608 C 2607.57 2.58828 5.25741 0
M  V30 14609 N 2607.62 2.68068 3.77503 0
M  V30 14610 C 2607.54 3.80474 2.99159 0
M  V30 14611 N 2607.61 3.55622 1.71925 0
M  V30 14612 C 2607.76 2.1832 1.65733 0
M  V30 14613 C 2607.89 1.28842 0.572777 0
M  V30 14614 N 2607.9 1.66875 -0.70098 0
M  V30 14615 N 2608.01 -0.016788 0.859836 0
M  V30 14616 C 2608 -0.398145 2.13316 0
M  V30 14617 N 2607.88 0.328224 3.22333 0
M  V30 14618 C 2607.76 1.62992 2.90383 0
M  V30 14619 H 2604.79 5.40394 6.8003 0
M  V30 14620 H 2604.51 4.41741 5.32532 0
M  V30 14621 H 2605.38 3.26371 7.47889 0
M  V30 14622 H 2608.04 1.64007 5.56746 0
M  V30 14623 H 2608.32 4.63439 5.3432 0
M  V30 14624 H 2609.31 3.44776 6.25925 0
M  V30 14625 H 2607.47 4.96707 7.57347 0
M  V30 14626 H 2607.43 4.8089 3.39924 0
M  V30 14627 H 2607.81 2.66547 -0.941919 0
M  V30 14628 H 2608 0.965341 -1.44766 0
M  V30 14629 H 2608.11 -1.46427 2.29697 0
M  V30 14630 P 2609.34 2.75334 8.47391 0
M  V30 14631 O 2609.56 2.44571 9.90142 0
M  V30 14632 O 2610.13 3.87688 7.92115 0
M  V30 14633 O 2609.59 1.4459 7.59357 0
M  V30 14634 C 2608.65 0.347608 7.69215 0
M  V30 14635 C 2609.38 -0.96767 7.52806 0
M  V30 14636 O 2609.59 -1.21036 6.1011 0
M  V30 14637 C 2610.78 -1.04544 8.13308 0
M  V30 14638 O 2611.17 -2.38311 8.41922 0
M  V30 14639 C 2611.66 -0.491279 7.02284 0
M  V30 14640 C 2610.95 -0.996264 5.77469 0
M  V30 14641 N 2611 -0.0501916 4.62973 0
M  V30 14642 H 2608.17 0.374722 8.67691 0
M  V30 14643 H 2607.9 0.443485 6.90277 0
M  V30 14644 H 2608.76 -1.75537 7.96793 0
M  V30 14645 P 2612.72 -2.75334 8.47391 0
M  V30 14646 O 2612.94 -3.84128 9.44797 0
M  V30 14647 O 2613.51 -1.51947 8.68712 0
M  V30 14648 O 2612.97 -3.29363 6.99321 0
M  V30 14649 C 2612.03 -4.24011 6.4274 0
M  V30 14650 C 2612.76 -5.20775 5.52155 0
M  V30 14651 O 2612.97 -4.56534 4.22446 0
M  V30 14652 C 2614.16 -5.62629 5.96531 0
M  V30 14653 O 2614.55 -6.87667 5.41053 0
M  V30 14654 C 2615.04 -4.52537 5.39283 0
M  V30 14655 C 2614.33 -4.20027 4.08623 0
M  V30 14656 N 2614.38 -2.76189 3.71603 0
M  V30 14657 H 2611.55 -4.797 7.24003 0
M  V30 14658 H 2611.28 -3.69856 5.84513 0
M  V30 14659 H 2612.14 -6.10356 5.41441 0
M  V30 14660 P 2616.1 -7.20834 5.23717 0
M  V30 14661 O 2616.32 -8.66104 5.38572 0
M  V30 14662 O 2616.89 -6.33544 6.1349 0
M  V30 14663 O 2616.35 -6.7751 3.72168 0
M  V30 14664 C 2615.41 -7.20825 2.7076 0
M  V30 14665 C 2616.14 -7.45864 1.40599 0
M  V30 14666 O 2616.35 -6.17651 0.734225 0
M  V30 14667 C 2617.54 -8.05808 1.51899 0
M  V30 14668 O 2617.93 -8.74358 0.335205 0
M  V30 14669 C 2618.42 -6.83093 1.70294 0
M  V30 14670 C 2617.71 -5.79992 0.836974 0
M  V30 14671 N 2617.76 -4.41864 1.38293 0
M  V30 14672 H 2614.93 -8.13644 3.0377 0
M  V30 14673 H 2614.66 -6.42788 2.55485 0
M  V30 14674 H 2615.52 -8.12039 0.792769 0
M  V30 14675 P 2619.48 -8.91 7.06008e-11 0
M  V30 14676 O 2619.7 -10.1726 -0.733694 0
M  V30 14677 O 2620.27 -8.73148 1.23936 0
M  V30 14678 O 2619.73 -7.66872 -0.971405 0
M  V30 14679 C 2618.79 -7.42309 -2.04641 0
M  V30 14680 C 2619.52 -6.86059 -3.24661 0
M  V30 14681 O 2619.73 -5.42847 -3.03646 0
M  V30 14682 C 2620.92 -7.41196 -3.50753 0
M  V30 14683 O 2621.31 -7.27073 -4.86816 0
M  V30 14684 C 2621.8 -6.5273 -2.63741 0
M  V30 14685 C 2621.09 -5.1842 -2.73198 0
M  V30 14686 N 2621.14 -4.38762 -1.4784 0
M  V30 14687 H 2618.31 -8.36803 -2.32493 0
M  V30 14688 H 2618.04 -6.70197 -1.71129 0
M  V30 14689 H 2618.9 -7.03551 -4.13168 0
M  V30 14690 P 2622.86 -7.20834 -5.23717 0
M  V30 14691 O 2623.08 -7.79853 -6.57286 0
M  V30 14692 O 2623.65 -7.79239 -4.12957 0
M  V30 14693 O 2623.11 -5.63315 -5.29344 0
M  V30 14694 C 2622.17 -4.80255 -6.01876 0
M  V30 14695 C 2622.9 -3.64202 -6.65911 0
M  V30 14696 O 2623.11 -2.60694 -5.64732 0
M  V30 14697 C 2624.3 -3.93473 -7.1943 0
M  V30 14698 O 2624.69 -3.02071 -8.21205 0
M  V30 14699 C 2625.18 -3.73047 -5.97036 0
M  V30 14700 C 2624.47 -2.58828 -5.25741 0
M  V30 14701 N 2624.52 -2.68068 -3.77503 0
M  V30 14702 C 2624.44 -3.79715 -2.96723 0
M  V30 14703 N 2624.52 -3.5377 -1.68852 0
M  V30 14704 C 2624.66 -2.15054 -1.63254 0
M  V30 14705 C 2624.79 -1.28964 -0.518571 0
M  V30 14706 O 2624.81 -1.56826 0.679156 0
M  V30 14707 N 2624.91 0.0538097 -0.918425 0
M  V30 14708 C 2624.91 0.494275 -2.22578 0
M  V30 14709 N 2625.04 1.81086 -2.40434 0
M  V30 14710 N 2624.78 -0.313645 -3.27502 0
M  V30 14711 C 2624.66 -1.61829 -2.91033 0
M  V30 14712 H 2621.69 -5.40332 -6.79951 0
M  V30 14713 H 2621.42 -4.41613 -5.32378 0
M  V30 14714 H 2622.28 -3.26331 -7.47797 0
M  V30 14715 H 2624.94 -1.63422 -5.56814 0
M  V30 14716 H 2625.22 -4.63374 -5.34244 0
M  V30 14717 H 2626.21 -3.44728 -6.25838 0
M  V30 14718 H 2624.37 -4.96652 -7.57263 0
M  V30 14719 H 2624.33 -4.80617 -3.3614 0
M  V30 14720 H 2625.01 0.742702 -0.199384 0
M  V30 14721 H 2625.04 2.20598 -3.35588 0
M  V30 14722 H 2625.15 2.43518 -1.58945 0
M  V30 14723 P 2626.24 -2.75334 -8.47391 0
M  V30 14724 O 2626.46 -2.44571 -9.90142 0
M  V30 14725 O 2627.03 -3.87688 -7.92115 0
M  V30 14726 O 2626.49 -1.4459 -7.59357 0
M  V30 14727 C 2625.55 -0.347608 -7.69215 0
M  V30 14728 C 2626.28 0.96767 -7.52806 0
M  V30 14729 O 2626.49 1.21036 -6.1011 0
M  V30 14730 C 2627.68 1.04544 -8.13308 0
M  V30 14731 O 2628.07 2.38311 -8.41922 0
M  V30 14732 C 2628.56 0.491279 -7.02284 0
M  V30 14733 C 2627.85 0.996264 -5.77469 0
M  V30 14734 N 2627.9 0.0501916 -4.62973 0
M  V30 14735 H 2625.07 -0.374722 -8.67691 0
M  V30 14736 H 2624.8 -0.443485 -6.90277 0
M  V30 14737 H 2625.66 1.75537 -7.96793 0
M  V30 14738 P 2629.62 2.75334 -8.47391 0
M  V30 14739 O 2629.84 3.84128 -9.44797 0
M  V30 14740 O 2630.41 1.51947 -8.68712 0
M  V30 14741 O 2629.87 3.29363 -6.99321 0
M  V30 14742 C 2628.93 4.24011 -6.4274 0
M  V30 14743 C 2629.66 5.20775 -5.52155 0
M  V30 14744 O 2629.87 4.56534 -4.22446 0
M  V30 14745 C 2631.06 5.62629 -5.96531 0
M  V30 14746 O 2631.45 6.87667 -5.41053 0
M  V30 14747 C 2631.94 4.52537 -5.39283 0
M  V30 14748 C 2631.23 4.20027 -4.08623 0
M  V30 14749 N 2631.28 2.76189 -3.71603 0
M  V30 14750 H 2628.45 4.797 -7.24003 0
M  V30 14751 H 2628.18 3.69856 -5.84513 0
M  V30 14752 H 2629.04 6.10356 -5.41441 0
M  V30 14753 P 2633 7.20834 -5.23717 0
M  V30 14754 O 2633.22 8.66104 -5.38572 0
M  V30 14755 O 2633.79 6.33544 -6.1349 0
M  V30 14756 O 2633.25 6.7751 -3.72168 0
M  V30 14757 C 2632.31 7.20825 -2.7076 0
M  V30 14758 C 2633.04 7.45864 -1.40599 0
M  V30 14759 O 2633.25 6.17651 -0.734225 0
M  V30 14760 C 2634.44 8.05808 -1.51899 0
M  V30 14761 O 2634.83 8.74358 -0.335205 0
M  V30 14762 C 2635.32 6.83093 -1.70294 0
M  V30 14763 C 2634.61 5.79992 -0.836974 0
M  V30 14764 N 2634.66 4.41864 -1.38293 0
M  V30 14765 H 2631.83 8.13644 -3.0377 0
M  V30 14766 H 2631.56 6.42788 -2.55485 0
M  V30 14767 H 2632.42 8.12039 -0.792769 0
M  V30 14768 P 2636.38 8.91 -7.17098e-11 0
M  V30 14769 O 2636.6 10.1726 0.733694 0
M  V30 14770 O 2637.17 8.73148 -1.23936 0
M  V30 14771 O 2636.63 7.66872 0.971405 0
M  V30 14772 C 2635.69 7.42309 2.04641 0
M  V30 14773 C 2636.42 6.86059 3.24661 0
M  V30 14774 O 2636.63 5.42847 3.03646 0
M  V30 14775 C 2637.82 7.41196 3.50753 0
M  V30 14776 O 2638.21 7.27073 4.86816 0
M  V30 14777 C 2638.7 6.5273 2.63741 0
M  V30 14778 C 2637.99 5.1842 2.73198 0
M  V30 14779 N 2638.04 4.38762 1.4784 0
M  V30 14780 H 2635.21 8.36803 2.32493 0
M  V30 14781 H 2634.94 6.70197 1.71129 0
M  V30 14782 H 2635.8 7.03551 4.13168 0
M  V30 14783 P 2639.76 7.20834 5.23717 0
M  V30 14784 O 2639.98 7.79853 6.57286 0
M  V30 14785 O 2640.55 7.79239 4.12957 0
M  V30 14786 O 2640.01 5.63315 5.29344 0
M  V30 14787 C 2639.07 4.80255 6.01876 0
M  V30 14788 C 2639.8 3.64202 6.65911 0
M  V30 14789 O 2640.01 2.60694 5.64732 0
M  V30 14790 C 2641.2 3.93473 7.1943 0
M  V30 14791 O 2641.59 3.02071 8.21205 0
M  V30 14792 C 2642.08 3.73047 5.97036 0
M  V30 14793 C 2641.37 2.58828 5.25741 0
M  V30 14794 N 2641.42 2.68068 3.77503 0
M  V30 14795 H 2638.59 5.40332 6.79951 0
M  V30 14796 H 2638.32 4.41613 5.32378 0
M  V30 14797 H 2639.18 3.26331 7.47797 0
M  V30 14798 P 2643.14 2.75334 8.47391 0
M  V30 14799 O 2643.36 2.44571 9.90142 0
M  V30 14800 O 2643.93 3.87688 7.92115 0
M  V30 14801 O 2643.39 1.4459 7.59357 0
M  V30 14802 C 2642.45 0.347608 7.69215 0
M  V30 14803 C 2643.18 -0.96767 7.52806 0
M  V30 14804 O 2643.39 -1.21036 6.1011 0
M  V30 14805 C 2644.58 -1.04544 8.13308 0
M  V30 14806 O 2644.97 -2.38311 8.41922 0
M  V30 14807 C 2645.46 -0.491279 7.02284 0
M  V30 14808 C 2644.75 -0.996264 5.77469 0
M  V30 14809 N 2644.8 -0.0501916 4.62973 0
M  V30 14810 H 2641.97 0.374722 8.67691 0
M  V30 14811 H 2641.7 0.443485 6.90277 0
M  V30 14812 H 2642.56 -1.75537 7.96793 0
M  V30 14813 P 2646.52 -2.75334 8.47391 0
M  V30 14814 O 2646.74 -3.84128 9.44797 0
M  V30 14815 O 2647.31 -1.51947 8.68712 0
M  V30 14816 O 2646.77 -3.29363 6.99321 0
M  V30 14817 C 2645.83 -4.24011 6.4274 0
M  V30 14818 C 2646.56 -5.20775 5.52155 0
M  V30 14819 O 2646.77 -4.56534 4.22446 0
M  V30 14820 C 2647.96 -5.62629 5.96531 0
M  V30 14821 O 2648.35 -6.87667 5.41053 0
M  V30 14822 C 2648.84 -4.52537 5.39283 0
M  V30 14823 C 2648.13 -4.20027 4.08623 0
M  V30 14824 N 2648.18 -2.76189 3.71603 0
M  V30 14825 H 2645.35 -4.797 7.24003 0
M  V30 14826 H 2645.08 -3.69856 5.84513 0
M  V30 14827 H 2645.94 -6.10356 5.41441 0
M  V30 14828 P 2649.9 -7.20834 5.23717 0
M  V30 14829 O 2650.12 -8.66104 5.38572 0
M  V30 14830 O 2650.69 -6.33544 6.1349 0
M  V30 14831 O 2650.15 -6.7751 3.72168 0
M  V30 14832 C 2649.21 -7.20825 2.7076 0
M  V30 14833 C 2649.94 -7.45864 1.40599 0
M  V30 14834 O 2650.15 -6.17651 0.734225 0
M  V30 14835 C 2651.34 -8.05808 1.51899 0
M  V30 14836 O 2651.73 -8.74358 0.335205 0
M  V30 14837 C 2652.22 -6.83093 1.70294 0
M  V30 14838 C 2651.51 -5.79992 0.836974 0
M  V30 14839 N 2651.56 -4.41864 1.38293 0
M  V30 14840 H 2648.73 -8.13644 3.0377 0
M  V30 14841 H 2648.46 -6.42788 2.55485 0
M  V30 14842 H 2649.32 -8.12039 0.792769 0
M  V30 14843 P 2653.28 -8.91 7.28188e-11 0
M  V30 14844 O 2653.5 -10.1726 -0.733694 0
M  V30 14845 O 2654.07 -8.73148 1.23936 0
M  V30 14846 O 2653.53 -7.66872 -0.971405 0
M  V30 14847 C 2652.59 -7.42309 -2.04641 0
M  V30 14848 C 2653.32 -6.86059 -3.24661 0
M  V30 14849 O 2653.53 -5.42847 -3.03646 0
M  V30 14850 C 2654.72 -7.41196 -3.50753 0
M  V30 14851 O 2655.11 -7.27073 -4.86816 0
M  V30 14852 C 2655.6 -6.5273 -2.63741 0
M  V30 14853 C 2654.89 -5.1842 -2.73198 0
M  V30 14854 N 2654.94 -4.38762 -1.4784 0
M  V30 14855 H 2652.11 -8.36803 -2.32493 0
M  V30 14856 H 2651.84 -6.70197 -1.71129 0
M  V30 14857 H 2652.7 -7.03551 -4.13168 0
M  V30 14858 P 2656.66 -7.20834 -5.23717 0
M  V30 14859 O 2656.88 -7.79853 -6.57286 0
M  V30 14860 O 2657.45 -7.79239 -4.12957 0
M  V30 14861 O 2656.91 -5.63315 -5.29344 0
M  V30 14862 C 2655.97 -4.80255 -6.01876 0
M  V30 14863 C 2656.7 -3.64202 -6.65911 0
M  V30 14864 O 2656.91 -2.60694 -5.64732 0
M  V30 14865 C 2658.1 -3.93473 -7.1943 0
M  V30 14866 O 2658.49 -3.02071 -8.21205 0
M  V30 14867 C 2658.98 -3.73047 -5.97036 0
M  V30 14868 C 2658.27 -2.58828 -5.25741 0
M  V30 14869 N 2658.32 -2.68068 -3.77503 0
M  V30 14870 H 2655.49 -5.40332 -6.79951 0
M  V30 14871 H 2655.22 -4.41613 -5.32378 0
M  V30 14872 H 2656.08 -3.26331 -7.47797 0
M  V30 14873 P 2660.04 -2.75334 -8.47391 0
M  V30 14874 O 2660.26 -2.44571 -9.90142 0
M  V30 14875 O 2660.83 -3.87688 -7.92115 0
M  V30 14876 O 2660.29 -1.4459 -7.59357 0
M  V30 14877 C 2659.35 -0.347608 -7.69215 0
M  V30 14878 C 2660.08 0.96767 -7.52806 0
M  V30 14879 O 2660.29 1.21036 -6.1011 0
M  V30 14880 C 2661.48 1.04544 -8.13308 0
M  V30 14881 O 2661.87 2.38311 -8.41922 0
M  V30 14882 C 2662.36 0.491279 -7.02284 0
M  V30 14883 C 2661.65 0.996264 -5.77469 0
M  V30 14884 N 2661.7 0.0501916 -4.62973 0
M  V30 14885 C 2661.62 -1.32786 -4.63244 0
M  V30 14886 N 2661.7 -1.86957 -3.44545 0
M  V30 14887 C 2661.84 -0.780241 -2.58481 0
M  V30 14888 C 2661.97 -0.738536 -1.17757 0
M  V30 14889 O 2661.99 -1.66794 -0.372349 0
M  V30 14890 N 2662.09 0.58337 -0.711393 0
M  V30 14891 C 2662.09 1.70816 -1.51017 0
M  V30 14892 N 2662.22 2.87826 -0.880757 0
M  V30 14893 N 2661.96 1.67126 -2.8339 0
M  V30 14894 C 2661.84 0.401421 -3.30572 0
M  V30 14895 H 2658.87 -0.374722 -8.67691 0
M  V30 14896 H 2658.6 -0.443485 -6.90277 0
M  V30 14897 H 2659.46 1.75537 -7.96793 0
M  V30 14898 H 2662.12 1.95076 -5.46529 0
M  V30 14899 H 2662.4 -0.608565 -7.04577 0
M  V30 14900 H 2663.39 0.889672 -7.08939 0
M  V30 14901 H 2661.55 0.43308 -9.04564 0
M  V30 14902 H 2661.51 -1.91249 -5.54442 0
M  V30 14903 H 2662.19 0.718054 0.275244 0
M  V30 14904 H 2662.22 3.75721 -1.41832 0
M  V30 14905 H 2662.33 2.90436 0.145468 0
M  V30 14906 P 2663.42 2.75334 -8.47391 0
M  V30 14907 O 2663.64 3.84128 -9.44797 0
M  V30 14908 O 2664.21 1.51947 -8.68712 0
M  V30 14909 O 2663.67 3.29363 -6.99321 0
M  V30 14910 C 2662.73 4.24011 -6.4274 0
M  V30 14911 C 2663.46 5.20775 -5.52155 0
M  V30 14912 O 2663.67 4.56534 -4.22446 0
M  V30 14913 C 2664.86 5.62629 -5.96531 0
M  V30 14914 O 2665.25 6.87667 -5.41053 0
M  V30 14915 C 2665.74 4.52537 -5.39283 0
M  V30 14916 C 2665.03 4.20027 -4.08623 0
M  V30 14917 N 2665.08 2.76189 -3.71603 0
M  V30 14918 H 2662.25 4.797 -7.24003 0
M  V30 14919 H 2661.98 3.69856 -5.84513 0
M  V30 14920 H 2662.84 6.10356 -5.41441 0
M  V30 14921 P 2666.8 7.20834 -5.23717 0
M  V30 14922 O 2667.02 8.66104 -5.38572 0
M  V30 14923 O 2667.59 6.33544 -6.1349 0
M  V30 14924 O 2667.05 6.7751 -3.72168 0
M  V30 14925 C 2666.11 7.20825 -2.7076 0
M  V30 14926 C 2666.84 7.45864 -1.40599 0
M  V30 14927 O 2667.05 6.17651 -0.734225 0
M  V30 14928 C 2668.24 8.05808 -1.51899 0
M  V30 14929 O 2668.63 8.74358 -0.335205 0
M  V30 14930 C 2669.12 6.83093 -1.70294 0
M  V30 14931 C 2668.41 5.79992 -0.836974 0
M  V30 14932 N 2668.46 4.41864 -1.38293 0
M  V30 14933 H 2665.63 8.13644 -3.0377 0
M  V30 14934 H 2665.36 6.42788 -2.55485 0
M  V30 14935 H 2666.22 8.12039 -0.792769 0
M  V30 14936 P 2670.18 8.91 -7.39278e-11 0
M  V30 14937 O 2670.4 10.1726 0.733694 0
M  V30 14938 O 2670.97 8.73148 -1.23936 0
M  V30 14939 O 2670.43 7.66872 0.971405 0
M  V30 14940 C 2669.49 7.42309 2.04641 0
M  V30 14941 C 2670.22 6.86059 3.24661 0
M  V30 14942 O 2670.43 5.42847 3.03646 0
M  V30 14943 C 2671.62 7.41196 3.50753 0
M  V30 14944 O 2672.01 7.27073 4.86816 0
M  V30 14945 C 2672.5 6.5273 2.63741 0
M  V30 14946 C 2671.79 5.1842 2.73198 0
M  V30 14947 N 2671.84 4.38762 1.4784 0
M  V30 14948 C 2671.76 4.81605 0.168631 0
M  V30 14949 N 2671.84 3.85454 -0.713363 0
M  V30 14950 C 2671.98 2.6994 0.0566958 0
M  V30 14951 C 2672.11 1.34815 -0.338502 0
M  V30 14952 O 2672.13 0.869548 -1.47125 0
M  V30 14953 N 2672.23 0.496304 0.77465 0
M  V30 14954 C 2672.23 0.908403 2.09122 0
M  V30 14955 N 2672.36 -0.0517805 3.00955 0
M  V30 14956 N 2672.1 2.17875 2.46519 0
M  V30 14957 C 2671.98 3.01988 1.4033 0
M  V30 14958 H 2669.01 8.36803 2.32493 0
M  V30 14959 H 2668.74 6.70197 1.71129 0
M  V30 14960 H 2669.6 7.03551 4.13168 0
M  V30 14961 H 2672.26 4.59498 3.54415 0
M  V30 14962 H 2672.54 6.88898 1.59848 0
M  V30 14963 H 2673.53 6.46749 3.03687 0
M  V30 14964 H 2671.69 8.46908 3.20714 0
M  V30 14965 H 2671.65 5.86405 -0.105564 0
M  V30 14966 H 2672.33 -0.483664 0.597855 0
M  V30 14967 H 2672.36 0.187865 4.0116 0
M  V30 14968 H 2672.47 -1.03585 2.71726 0
M  V30 14969 P 2673.56 7.20834 5.23717 0
M  V30 14970 O 2673.78 7.7993 6.57351 0
M  V30 14971 O 2674.35 7.79328 4.13004 0
M  V30 14972 O 2673.81 5.63315 5.29344 0
M  V30 14973 C 2672.87 4.80193 6.01798 0
M  V30 14974 C 2673.6 3.64202 6.65911 0
M  V30 14975 O 2673.81 2.60694 5.64732 0
M  V30 14976 C 2675 3.93473 7.1943 0
M  V30 14977 O 2675.39 3.02071 8.21205 0
M  V30 14978 C 2675.88 3.73047 5.97036 0
M  V30 14979 C 2675.17 2.58828 5.25741 0
M  V30 14980 N 2675.22 2.6801 3.77422 0
M  V30 14981 C 2675.37 1.50443 3.07133 0
M  V30 14982 O 2675.46 0.419406 3.61576 0
M  V30 14983 N 2675.41 1.6403 1.69677 0
M  V30 14984 C 2675.32 2.81206 0.986255 0
M  V30 14985 O 2675.37 2.80892 -0.249754 0
M  V30 14986 C 2675.17 3.99158 1.80325 0
M  V30 14987 C 2675.06 5.29309 1.06921 0
M  V30 14988 C 2675.12 3.89779 3.1476 0
M  V30 14989 H 2672.38 5.40332 6.79951 0
M  V30 14990 H 2672.12 4.41549 5.32301 0
M  V30 14991 H 2672.98 3.26331 7.47797 0
M  V30 14992 H 2675.64 1.6395 5.56554 0
M  V30 14993 H 2675.92 4.63439 5.3432 0
M  V30 14994 H 2676.91 3.44728 6.25838 0
M  V30 14995 H 2675.07 4.96652 7.57263 0
M  V30 14996 H 2675 4.80159 3.74441 0
M  V30 14997 H 2676.03 5.81459 1.09608 0
M  V30 14998 H 2674.3 5.9187 1.54487 0
M  V30 14999 H 2674.78 5.10095 0.0220288 0
M  V30 15000 H 2675.52 0.798962 1.16664 0
M  V30 15001 P 2676.94 2.75334 8.47391 0
M  V30 15002 O 2677.16 2.44571 9.90142 0
M  V30 15003 O 2677.73 3.87688 7.92115 0
M  V30 15004 O 2677.19 1.4459 7.59357 0
M  V30 15005 C 2676.25 0.347608 7.69215 0
M  V30 15006 C 2676.98 -0.96767 7.52806 0
M  V30 15007 O 2677.19 -1.21036 6.1011 0
M  V30 15008 C 2678.38 -1.04544 8.13308 0
M  V30 15009 O 2678.77 -2.38311 8.41922 0
M  V30 15010 C 2679.26 -0.491279 7.02284 0
M  V30 15011 C 2678.55 -0.996264 5.77469 0
M  V30 15012 N 2678.6 -0.0501916 4.62973 0
M  V30 15013 C 2678.52 1.32786 4.63244 0
M  V30 15014 N 2678.6 1.86957 3.44545 0
M  V30 15015 C 2678.74 0.780241 2.58481 0
M  V30 15016 C 2678.87 0.738536 1.17757 0
M  V30 15017 N 2678.99 -0.58337 0.711393 0
M  V30 15018 C 2678.99 -1.70816 1.51017 0
M  V30 15019 N 2679.12 -2.87826 0.880757 0
M  V30 15020 N 2678.86 -1.67126 2.8339 0
M  V30 15021 C 2678.74 -0.401421 3.30572 0
M  V30 15022 H 2675.77 0.374722 8.67691 0
M  V30 15023 H 2675.5 0.443485 6.90277 0
M  V30 15024 H 2676.36 -1.75537 7.96793 0
M  V30 15025 P 2680.32 -2.75334 8.47391 0
M  V30 15026 O 2680.54 -3.84128 9.44797 0
M  V30 15027 O 2681.11 -1.51947 8.68712 0
M  V30 15028 O 2680.57 -3.29363 6.99321 0
M  V30 15029 C 2679.63 -4.24011 6.4274 0
M  V30 15030 C 2680.36 -5.20775 5.52155 0
M  V30 15031 O 2680.57 -4.56534 4.22446 0
M  V30 15032 C 2681.76 -5.62629 5.96531 0
M  V30 15033 O 2682.15 -6.87667 5.41053 0
M  V30 15034 C 2682.64 -4.52537 5.39283 0
M  V30 15035 C 2681.93 -4.20027 4.08623 0
M  V30 15036 N 2681.98 -2.76189 3.71603 0
M  V30 15037 H 2679.15 -4.797 7.24003 0
M  V30 15038 H 2678.88 -3.69856 5.84513 0
M  V30 15039 H 2679.74 -6.10356 5.41441 0
M  V30 15040 P 2683.7 -7.20834 5.23717 0
M  V30 15041 O 2683.92 -8.66274 5.38678 0
M  V30 15042 O 2684.49 -6.33687 6.13629 0
M  V30 15043 O 2683.95 -6.7751 3.72168 0
M  V30 15044 C 2683.01 -7.20919 2.70795 0
M  V30 15045 C 2683.74 -7.45864 1.40599 0
M  V30 15046 O 2683.95 -6.17751 0.734343 0
M  V30 15047 C 2685.14 -8.05906 1.51917 0
M  V30 15048 O 2685.53 -8.74358 0.335205 0
M  V30 15049 C 2686.02 -6.83093 1.70294 0
M  V30 15050 C 2685.31 -5.79992 0.836974 0
M  V30 15051 N 2685.36 -4.41864 1.38293 0
M  V30 15052 H 2682.53 -8.13738 3.03804 0
M  V30 15053 H 2682.25 -6.42974 2.55559 0
M  V30 15054 H 2683.12 -8.12139 0.792866 0
M  V30 15055 H 2685.78 -5.80178 -0.160643 0
M  V30 15056 H 2686.06 -6.51379 2.75643 0
M  V30 15057 H 2687.05 -7.01832 1.3448 0
M  V30 15058 H 2685.21 -8.73771 2.38364 0
M  V30 15059 P 2687.08 -8.91 7.50368e-11 0
M  V30 15060 O 2687.3 -10.1726 -0.733694 0
M  V30 15061 O 2687.87 -8.73148 1.23936 0
M  V30 15062 O 2687.33 -7.66872 -0.971405 0
M  V30 15063 C 2686.39 -7.42309 -2.04641 0
M  V30 15064 C 2687.12 -6.86059 -3.24661 0
M  V30 15065 O 2687.33 -5.42847 -3.03646 0
M  V30 15066 C 2688.52 -7.41196 -3.50753 0
M  V30 15067 O 2688.91 -7.27073 -4.86816 0
M  V30 15068 C 2689.4 -6.5273 -2.63741 0
M  V30 15069 C 2688.69 -5.1842 -2.73198 0
M  V30 15070 N 2688.74 -4.38762 -1.4784 0
M  V30 15071 C 2688.66 -4.81605 -0.168631 0
M  V30 15072 N 2688.74 -3.85454 0.713363 0
M  V30 15073 C 2688.88 -2.6994 -0.0566958 0
M  V30 15074 C 2689.01 -1.34815 0.338502 0
M  V30 15075 O 2689.03 -0.869548 1.47125 0
M  V30 15076 N 2689.13 -0.496304 -0.77465 0
M  V30 15077 C 2689.13 -0.908403 -2.09122 0
M  V30 15078 N 2689.26 0.0517805 -3.00955 0
M  V30 15079 N 2689 -2.17875 -2.46519 0
M  V30 15080 C 2688.88 -3.01988 -1.4033 0
M  V30 15081 H 2685.91 -8.36803 -2.32493 0
M  V30 15082 H 2685.64 -6.70197 -1.71129 0
M  V30 15083 H 2686.5 -7.03551 -4.13168 0
M  V30 15084 H 2689.16 -4.59498 -3.54415 0
M  V30 15085 H 2689.44 -6.88898 -1.59848 0
M  V30 15086 H 2690.43 -6.46749 -3.03687 0
M  V30 15087 H 2688.59 -8.46908 -3.20714 0
M  V30 15088 H 2688.55 -5.86405 0.105564 0
M  V30 15089 H 2689.23 0.483664 -0.597855 0
M  V30 15090 H 2689.26 -0.187865 -4.0116 0
M  V30 15091 H 2689.37 1.03585 -2.71726 0
M  V30 15092 P 2690.46 -7.20834 -5.23717 0
M  V30 15093 O 2690.68 -7.79853 -6.57286 0
M  V30 15094 O 2691.25 -7.79239 -4.12957 0
M  V30 15095 O 2690.71 -5.63315 -5.29344 0
M  V30 15096 C 2689.77 -4.80255 -6.01876 0
M  V30 15097 C 2690.5 -3.64202 -6.65911 0
M  V30 15098 O 2690.71 -2.60694 -5.64732 0
M  V30 15099 C 2691.9 -3.93473 -7.1943 0
M  V30 15100 O 2692.29 -3.02071 -8.21205 0
M  V30 15101 C 2692.78 -3.73047 -5.97036 0
M  V30 15102 C 2692.07 -2.58828 -5.25741 0
M  V30 15103 N 2692.12 -2.68068 -3.77503 0
M  V30 15104 C 2692.04 -3.79715 -2.96723 0
M  V30 15105 N 2692.12 -3.5377 -1.68852 0
M  V30 15106 C 2692.26 -2.15054 -1.63254 0
M  V30 15107 C 2692.39 -1.28964 -0.518571 0
M  V30 15108 O 2692.41 -1.56826 0.679156 0
M  V30 15109 N 2692.51 0.0538097 -0.918425 0
M  V30 15110 C 2692.51 0.494275 -2.22578 0
M  V30 15111 N 2692.64 1.81086 -2.40434 0
M  V30 15112 N 2692.38 -0.313645 -3.27502 0
M  V30 15113 C 2692.26 -1.61829 -2.91033 0
M  V30 15114 H 2689.29 -5.40332 -6.79951 0
M  V30 15115 H 2689.02 -4.41613 -5.32378 0
M  V30 15116 H 2689.88 -3.26331 -7.47797 0
M  V30 15117 H 2692.54 -1.63422 -5.56814 0
M  V30 15118 H 2692.82 -4.63374 -5.34244 0
M  V30 15119 H 2693.81 -3.44728 -6.25838 0
M  V30 15120 H 2691.97 -4.96652 -7.57263 0
M  V30 15121 H 2691.93 -4.80617 -3.3614 0
M  V30 15122 H 2692.61 0.742702 -0.199384 0
M  V30 15123 H 2692.64 2.20598 -3.35588 0
M  V30 15124 H 2692.75 2.43518 -1.58945 0
M  V30 15125 P 2693.84 -2.75334 -8.47391 0
M  V30 15126 O 2694.06 -2.44571 -9.90142 0
M  V30 15127 O 2694.63 -3.87688 -7.92115 0
M  V30 15128 O 2694.09 -1.4459 -7.59357 0
M  V30 15129 C 2693.15 -0.347608 -7.69215 0
M  V30 15130 C 2693.88 0.96767 -7.52806 0
M  V30 15131 O 2694.09 1.21036 -6.1011 0
M  V30 15132 C 2695.28 1.04544 -8.13308 0
M  V30 15133 O 2695.67 2.38311 -8.41922 0
M  V30 15134 C 2696.16 0.491279 -7.02284 0
M  V30 15135 C 2695.45 0.996264 -5.77469 0
M  V30 15136 N 2695.5 0.0501916 -4.62973 0
M  V30 15137 H 2692.67 -0.374722 -8.67691 0
M  V30 15138 H 2692.4 -0.443485 -6.90277 0
M  V30 15139 H 2693.26 1.75537 -7.96793 0
M  V30 15140 P 2697.22 2.75334 -8.47391 0
M  V30 15141 O 2697.44 3.84128 -9.44797 0
M  V30 15142 O 2698.01 1.51947 -8.68712 0
M  V30 15143 O 2697.47 3.29363 -6.99321 0
M  V30 15144 C 2696.53 4.24011 -6.4274 0
M  V30 15145 C 2697.26 5.20775 -5.52155 0
M  V30 15146 O 2697.47 4.56534 -4.22446 0
M  V30 15147 C 2698.66 5.62629 -5.96531 0
M  V30 15148 O 2699.05 6.87667 -5.41053 0
M  V30 15149 C 2699.54 4.52537 -5.39283 0
M  V30 15150 C 2698.83 4.20027 -4.08623 0
M  V30 15151 N 2698.88 2.76189 -3.71603 0
M  V30 15152 H 2696.05 4.797 -7.24003 0
M  V30 15153 H 2695.78 3.69856 -5.84513 0
M  V30 15154 H 2696.64 6.10356 -5.41441 0
M  V30 15155 P 2700.6 7.20834 -5.23717 0
M  V30 15156 O 2700.82 8.66104 -5.38572 0
M  V30 15157 O 2701.39 6.33544 -6.1349 0
M  V30 15158 O 2700.85 6.7751 -3.72168 0
M  V30 15159 C 2699.91 7.20825 -2.7076 0
M  V30 15160 C 2700.64 7.45864 -1.40599 0
M  V30 15161 O 2700.85 6.17651 -0.734225 0
M  V30 15162 C 2702.04 8.05808 -1.51899 0
M  V30 15163 O 2702.43 8.74358 -0.335205 0
M  V30 15164 C 2702.92 6.83093 -1.70294 0
M  V30 15165 C 2702.21 5.79992 -0.836974 0
M  V30 15166 N 2702.26 4.41864 -1.38293 0
M  V30 15167 H 2699.43 8.13644 -3.0377 0
M  V30 15168 H 2699.16 6.42788 -2.55485 0
M  V30 15169 H 2700.02 8.12039 -0.792769 0
M  V30 15170 P 2703.98 8.91 -7.61458e-11 0
M  V30 15171 O 2704.2 10.1746 0.733838 0
M  V30 15172 O 2704.77 8.73346 -1.23964 0
M  V30 15173 O 2704.23 7.66872 0.971405 0
M  V30 15174 C 2703.29 7.42405 2.04668 0
M  V30 15175 C 2704.02 6.86059 3.24661 0
M  V30 15176 O 2704.23 5.42934 3.03695 0
M  V30 15177 C 2705.42 7.41287 3.50796 0
M  V30 15178 O 2705.81 7.27073 4.86816 0
M  V30 15179 C 2706.3 6.5273 2.63741 0
M  V30 15180 C 2705.59 5.1842 2.73198 0
M  V30 15181 N 2705.64 4.38762 1.4784 0
M  V30 15182 C 2705.56 4.83651 0.183876 0
M  V30 15183 N 2705.63 3.88759 -0.699393 0
M  V30 15184 C 2705.78 2.7404 0.0575568 0
M  V30 15185 C 2705.91 1.37902 -0.293928 0
M  V30 15186 N 2705.92 0.938021 -1.54797 0
M  V30 15187 N 2706.03 0.491817 0.70549 0
M  V30 15188 C 2706.02 0.931735 1.95979 0
M  V30 15189 N 2705.9 2.16017 2.41481 0
M  V30 15190 C 2705.78 3.02547 1.39121 0
M  V30 15191 H 2702.81 8.36899 2.3252 0
M  V30 15192 H 2702.53 6.70391 1.71179 0
M  V30 15193 H 2703.4 7.03638 4.13219 0
M  V30 15194 H 2706.06 4.59931 3.54016 0
M  V30 15195 H 2706.34 6.88995 1.59871 0
M  V30 15196 H 2707.33 6.4684 3.0373 0
M  V30 15197 H 2705.49 8.47002 3.20749 0
M  V30 15198 H 2705.45 5.8885 -0.0765548 0
M  V30 15199 H 2705.83 1.60276 -2.32875 0
M  V30 15200 H 2706.02 -0.0699355 -1.73859 0
M  V30 15201 H 2706.13 0.165507 2.71897 0
M  V30 15202 P 2707.36 7.20834 5.23717 0
M  V30 15203 O 2707.58 7.79853 6.57286 0
M  V30 15204 O 2708.15 7.79239 4.12957 0
M  V30 15205 O 2707.61 5.63315 5.29344 0
M  V30 15206 C 2706.67 4.80255 6.01876 0
M  V30 15207 C 2707.4 3.64202 6.65911 0
M  V30 15208 O 2707.61 2.60694 5.64732 0
M  V30 15209 C 2708.8 3.93473 7.1943 0
M  V30 15210 O 2709.19 3.02071 8.21205 0
M  V30 15211 C 2709.68 3.73047 5.97036 0
M  V30 15212 C 2708.97 2.58828 5.25741 0
M  V30 15213 N 2709.02 2.68068 3.77503 0
M  V30 15214 H 2706.18 5.40332 6.79951 0
M  V30 15215 H 2705.91 4.41613 5.32378 0
M  V30 15216 H 2706.78 3.26331 7.47797 0
M  V30 15217 P 2710.74 2.75334 8.47391 0
M  V30 15218 O 2710.96 2.44571 9.90142 0
M  V30 15219 O 2711.53 3.87688 7.92115 0
M  V30 15220 O 2710.99 1.4459 7.59357 0
M  V30 15221 C 2710.05 0.347608 7.69215 0
M  V30 15222 C 2710.78 -0.96767 7.52806 0
M  V30 15223 O 2710.99 -1.21036 6.1011 0
M  V30 15224 C 2712.18 -1.04544 8.13308 0
M  V30 15225 O 2712.57 -2.38311 8.41922 0
M  V30 15226 C 2713.06 -0.491279 7.02284 0
M  V30 15227 C 2712.35 -0.996264 5.77469 0
M  V30 15228 N 2712.4 -0.0501916 4.62973 0
M  V30 15229 H 2709.56 0.374722 8.67691 0
M  V30 15230 H 2709.29 0.443485 6.90277 0
M  V30 15231 H 2710.16 -1.75537 7.96793 0
M  V30 15232 P 2714.12 -2.75334 8.47391 0
M  V30 15233 O 2714.34 -3.84128 9.44797 0
M  V30 15234 O 2714.91 -1.51947 8.68712 0
M  V30 15235 O 2714.37 -3.29363 6.99321 0
M  V30 15236 C 2713.43 -4.24011 6.4274 0
M  V30 15237 C 2714.16 -5.20775 5.52155 0
M  V30 15238 O 2714.37 -4.56534 4.22446 0
M  V30 15239 C 2715.56 -5.62629 5.96531 0
M  V30 15240 O 2715.95 -6.87667 5.41053 0
M  V30 15241 C 2716.44 -4.52537 5.39283 0
M  V30 15242 C 2715.73 -4.20027 4.08623 0
M  V30 15243 N 2715.78 -2.76189 3.71603 0
M  V30 15244 C 2715.7 -1.64862 4.52822 0
M  V30 15245 N 2715.78 -0.512671 3.88633 0
M  V30 15246 C 2715.92 -0.888083 2.54977 0
M  V30 15247 C 2716.05 -0.094668 1.38677 0
M  V30 15248 N 2716.17 -0.890102 0.232633 0
M  V30 15249 C 2716.17 -2.26958 0.21772 0
M  V30 15250 N 2716.3 -2.84626 -0.97925 0
M  V30 15251 N 2716.04 -3.0178 1.31033 0
M  V30 15252 C 2715.92 -2.26781 2.43843 0
M  V30 15253 H 2712.94 -4.797 7.24003 0
M  V30 15254 H 2712.67 -3.69856 5.84513 0
M  V30 15255 H 2713.54 -6.10356 5.41441 0
M  V30 15256 P 2717.5 -7.20834 5.23717 0
M  V30 15257 O 2717.72 -8.66189 5.38625 0
M  V30 15258 O 2718.29 -6.33615 6.1356 0
M  V30 15259 O 2717.75 -6.7751 3.72168 0
M  V30 15260 C 2716.81 -7.20732 2.70725 0
M  V30 15261 C 2717.54 -7.45864 1.40599 0
M  V30 15262 O 2717.75 -6.17651 0.734225 0
M  V30 15263 C 2718.94 -8.05808 1.51899 0
M  V30 15264 O 2719.33 -8.74358 0.335205 0
M  V30 15265 C 2719.82 -6.83093 1.70294 0
M  V30 15266 C 2719.11 -5.79992 0.836974 0
M  V30 15267 N 2719.16 -4.41769 1.38263 0
M  V30 15268 C 2719.31 -3.38591 0.481702 0
M  V30 15269 O 2719.4 -3.56839 -0.718452 0
M  V30 15270 N 2719.35 -2.1206 1.03569 0
M  V30 15271 C 2719.26 -1.80696 2.36966 0
M  V30 15272 C 2719.11 -2.94845 3.23898 0
M  V30 15273 C 2719.06 -4.19803 2.73435 0
M  V30 15274 H 2716.32 -8.13644 3.0377 0
M  V30 15275 H 2716.05 -6.42695 2.55448 0
M  V30 15276 H 2716.92 -8.12039 0.792769 0
M  V30 15277 H 2719.58 -5.79978 -0.160587 0
M  V30 15278 H 2719.86 -6.51379 2.75643 0
M  V30 15279 H 2720.85 -7.01734 1.34462 0
M  V30 15280 H 2719.01 -8.73674 2.38337 0
M  V30 15281 H 2718.94 -5.04492 3.4095 0
M  V30 15282 P 2720.88 -8.91 7.72548e-11 0
M  V30 15283 O 2721.1 -10.1726 -0.733694 0
M  V30 15284 O 2721.67 -8.73148 1.23936 0
M  V30 15285 O 2721.13 -7.66872 -0.971405 0
M  V30 15286 C 2720.19 -7.42309 -2.04641 0
M  V30 15287 C 2720.92 -6.86059 -3.24661 0
M  V30 15288 O 2721.13 -5.42847 -3.03646 0
M  V30 15289 C 2722.32 -7.41196 -3.50753 0
M  V30 15290 O 2722.71 -7.27073 -4.86816 0
M  V30 15291 C 2723.2 -6.5273 -2.63741 0
M  V30 15292 C 2722.49 -5.1842 -2.73198 0
M  V30 15293 N 2722.54 -4.38762 -1.4784 0
M  V30 15294 H 2719.7 -8.36803 -2.32493 0
M  V30 15295 H 2719.43 -6.70197 -1.71129 0
M  V30 15296 H 2720.3 -7.03551 -4.13168 0
M  V30 15297 P 2724.26 -7.20834 -5.23717 0
M  V30 15298 O 2724.48 -7.79853 -6.57286 0
M  V30 15299 O 2725.05 -7.79239 -4.12957 0
M  V30 15300 O 2724.51 -5.63315 -5.29344 0
M  V30 15301 C 2723.57 -4.80255 -6.01876 0
M  V30 15302 C 2724.3 -3.64202 -6.65911 0
M  V30 15303 O 2724.51 -2.60694 -5.64732 0
M  V30 15304 C 2725.7 -3.93473 -7.1943 0
M  V30 15305 O 2726.09 -3.02071 -8.21205 0
M  V30 15306 C 2726.58 -3.73047 -5.97036 0
M  V30 15307 C 2725.87 -2.58828 -5.25741 0
M  V30 15308 N 2725.92 -2.68068 -3.77503 0
M  V30 15309 H 2723.08 -5.40332 -6.79951 0
M  V30 15310 H 2722.81 -4.41613 -5.32378 0
M  V30 15311 H 2723.68 -3.26331 -7.47797 0
M  V30 15312 P 2727.64 -2.75334 -8.47391 0
M  V30 15313 O 2727.86 -2.44595 -9.90239 0
M  V30 15314 O 2728.43 -3.87732 -7.92204 0
M  V30 15315 O 2727.89 -1.4459 -7.59357 0
M  V30 15316 C 2726.95 -0.347563 -7.69115 0
M  V30 15317 C 2727.68 0.96767 -7.52806 0
M  V30 15318 O 2727.89 1.21036 -6.1011 0
M  V30 15319 C 2729.08 1.04544 -8.13308 0
M  V30 15320 O 2729.47 2.38311 -8.41922 0
M  V30 15321 C 2729.96 0.491279 -7.02284 0
M  V30 15322 C 2729.25 0.996264 -5.77469 0
M  V30 15323 N 2729.3 0.0501808 -4.62873 0
M  V30 15324 C 2729.45 0.588177 -3.36904 0
M  V30 15325 O 2729.54 1.78598 -3.17173 0
M  V30 15326 N 2729.49 -0.329694 -2.33686 0
M  V30 15327 C 2729.4 -1.6953 -2.45079 0
M  V30 15328 O 2729.45 -2.41926 -1.44899 0
M  V30 15329 C 2729.25 -2.16933 -3.80505 0
M  V30 15330 C 2729.14 -3.65373 -3.97621 0
M  V30 15331 C 2729.2 -1.30326 -4.83752 0
M  V30 15332 H 2726.46 -0.374722 -8.67691 0
M  V30 15333 H 2726.19 -0.443421 -6.90177 0
M  V30 15334 H 2727.06 1.75537 -7.96793 0
M  V30 15335 H 2729.72 1.94496 -5.46629 0
M  V30 15336 H 2730 -0.608651 -7.04676 0
M  V30 15337 H 2730.99 0.889672 -7.08939 0
M  V30 15338 H 2729.15 0.43308 -9.04564 0
M  V30 15339 H 2729.08 -1.68366 -5.8516 0
M  V30 15340 H 2730.11 -4.05985 -4.30448 0
M  V30 15341 H 2728.38 -3.88028 -4.72875 0
M  V30 15342 H 2728.86 -4.11381 -3.01609 0
M  V30 15343 H 2729.6 0.0393617 -1.41345 0
M  V30 15344 P 2731.02 2.75334 -8.47391 0
M  V30 15345 O 2731.24 3.84204 -9.44982 0
M  V30 15346 O 2731.81 1.51982 -8.68909 0
M  V30 15347 O 2731.27 3.29363 -6.99321 0
M  V30 15348 C 2730.33 4.24066 -6.42823 0
M  V30 15349 C 2731.06 5.20775 -5.52155 0
M  V30 15350 O 2731.27 4.56607 -4.22514 0
M  V30 15351 C 2732.46 5.62697 -5.96604 0
M  V30 15352 O 2732.85 6.87667 -5.41053 0
M  V30 15353 C 2733.34 4.52537 -5.39283 0
M  V30 15354 C 2732.63 4.20027 -4.08623 0
M  V30 15355 N 2732.68 2.76189 -3.71603 0
M  V30 15356 H 2729.85 4.79756 -7.24086 0
M  V30 15357 H 2729.57 3.69963 -5.84682 0
M  V30 15358 H 2730.44 6.10431 -5.41508 0
M  V30 15359 H 2733.1 4.78816 -3.28024 0
M  V30 15360 H 2733.38 3.64957 -6.05871 0
M  V30 15361 H 2734.37 4.88748 -5.21323 0
M  V30 15362 H 2732.53 5.66789 -7.0643 0
M  V30 15363 P 2734.4 7.20834 -5.23717 0
M  V30 15364 O 2734.62 8.66104 -5.38572 0
M  V30 15365 O 2735.19 6.33544 -6.1349 0
M  V30 15366 O 2734.65 6.7751 -3.72168 0
M  V30 15367 C 2733.71 7.20825 -2.7076 0
M  V30 15368 C 2734.44 7.45864 -1.40599 0
M  V30 15369 O 2734.65 6.17651 -0.734225 0
M  V30 15370 C 2735.84 8.05808 -1.51899 0
M  V30 15371 O 2736.23 8.74358 -0.335205 0
M  V30 15372 C 2736.72 6.83093 -1.70294 0
M  V30 15373 C 2736.01 5.79992 -0.836974 0
M  V30 15374 N 2736.06 4.41864 -1.38293 0
M  V30 15375 H 2733.22 8.13644 -3.0377 0
M  V30 15376 H 2732.95 6.42788 -2.55485 0
M  V30 15377 H 2733.82 8.12039 -0.792769 0
M  V30 15378 P 2737.78 8.91 -7.83638e-11 0
M  V30 15379 O 2738 10.1726 0.733694 0
M  V30 15380 O 2738.57 8.73148 -1.23936 0
M  V30 15381 O 2738.03 7.66872 0.971405 0
M  V30 15382 C 2737.09 7.42309 2.04641 0
M  V30 15383 C 2737.82 6.86059 3.24661 0
M  V30 15384 O 2738.03 5.42847 3.03646 0
M  V30 15385 C 2739.22 7.41196 3.50753 0
M  V30 15386 O 2739.61 7.27073 4.86816 0
M  V30 15387 C 2740.1 6.5273 2.63741 0
M  V30 15388 C 2739.39 5.1842 2.73198 0
M  V30 15389 N 2739.44 4.38762 1.4784 0
M  V30 15390 H 2736.6 8.36803 2.32493 0
M  V30 15391 H 2736.33 6.70197 1.71129 0
M  V30 15392 H 2737.2 7.03551 4.13168 0
M  V30 15393 P 2741.16 7.20834 5.23717 0
M  V30 15394 O 2741.38 7.79853 6.57286 0
M  V30 15395 O 2741.95 7.79239 4.12957 0
M  V30 15396 O 2741.41 5.63315 5.29344 0
M  V30 15397 C 2740.47 4.80255 6.01876 0
M  V30 15398 C 2741.2 3.64202 6.65911 0
M  V30 15399 O 2741.41 2.60694 5.64732 0
M  V30 15400 C 2742.6 3.93473 7.1943 0
M  V30 15401 O 2742.99 3.02071 8.21205 0
M  V30 15402 C 2743.48 3.73047 5.97036 0
M  V30 15403 C 2742.77 2.58828 5.25741 0
M  V30 15404 N 2742.82 2.68068 3.77503 0
M  V30 15405 H 2739.98 5.40332 6.79951 0
M  V30 15406 H 2739.71 4.41613 5.32378 0
M  V30 15407 H 2740.58 3.26331 7.47797 0
M  V30 15408 P 2744.54 2.75334 8.47391 0
M  V30 15409 O 2744.76 2.44571 9.90142 0
M  V30 15410 O 2745.33 3.87688 7.92115 0
M  V30 15411 O 2744.79 1.4459 7.59357 0
M  V30 15412 C 2743.85 0.347608 7.69215 0
M  V30 15413 C 2744.58 -0.96767 7.52806 0
M  V30 15414 O 2744.79 -1.21036 6.1011 0
M  V30 15415 C 2745.98 -1.04544 8.13308 0
M  V30 15416 O 2746.37 -2.38311 8.41922 0
M  V30 15417 C 2746.86 -0.491279 7.02284 0
M  V30 15418 C 2746.15 -0.996264 5.77469 0
M  V30 15419 N 2746.2 -0.0501916 4.62973 0
M  V30 15420 H 2743.36 0.374722 8.67691 0
M  V30 15421 H 2743.09 0.443485 6.90277 0
M  V30 15422 H 2743.96 -1.75537 7.96793 0
M  V30 15423 P 2747.92 -2.75334 8.47391 0
M  V30 15424 O 2748.14 -3.84204 9.44982 0
M  V30 15425 O 2748.71 -1.51982 8.68909 0
M  V30 15426 O 2748.17 -3.29363 6.99321 0
M  V30 15427 C 2747.23 -4.24066 6.42823 0
M  V30 15428 C 2747.96 -5.20775 5.52155 0
M  V30 15429 O 2748.17 -4.56607 4.22514 0
M  V30 15430 C 2749.36 -5.62697 5.96604 0
M  V30 15431 O 2749.75 -6.87667 5.41053 0
M  V30 15432 C 2750.24 -4.52537 5.39283 0
M  V30 15433 C 2749.53 -4.20027 4.08623 0
M  V30 15434 N 2749.58 -2.76189 3.71603 0
M  V30 15435 C 2749.5 -1.66944 4.54297 0
M  V30 15436 N 2749.57 -0.536169 3.91344 0
M  V30 15437 C 2749.72 -0.901569 2.58849 0
M  V30 15438 C 2749.85 -0.146599 1.40236 0
M  V30 15439 N 2749.86 1.18234 1.37046 0
M  V30 15440 N 2749.97 -0.822941 0.249738 0
M  V30 15441 C 2749.96 -2.15179 0.280525 0
M  V30 15442 N 2749.84 -2.96414 1.30822 0
M  V30 15443 C 2749.72 -2.25804 2.44748 0
M  V30 15444 H 2746.75 -4.79756 7.24086 0
M  V30 15445 H 2746.47 -3.69963 5.84682 0
M  V30 15446 H 2747.34 -6.10431 5.41508 0
M  V30 15447 H 2750 -4.78816 3.28024 0
M  V30 15448 H 2750.28 -3.64957 6.05871 0
M  V30 15449 H 2751.27 -4.88748 5.21323 0
M  V30 15450 H 2749.43 -5.66789 7.0643 0
M  V30 15451 H 2749.39 -1.74684 5.62396 0
M  V30 15452 H 2749.77 1.71949 2.24394 0
M  V30 15453 H 2749.96 1.67511 0.470742 0
M  V30 15454 H 2750.07 -2.63704 -0.6828 0
M  V30 15455 P 2751.3 -7.20834 5.23717 0
M  V30 15456 O 2751.52 -8.66104 5.38572 0
M  V30 15457 O 2752.09 -6.33544 6.1349 0
M  V30 15458 O 2751.55 -6.7751 3.72168 0
M  V30 15459 C 2750.61 -7.20825 2.7076 0
M  V30 15460 C 2751.34 -7.45864 1.40599 0
M  V30 15461 O 2751.55 -6.17651 0.734225 0
M  V30 15462 C 2752.74 -8.05808 1.51899 0
M  V30 15463 O 2753.13 -8.74358 0.335205 0
M  V30 15464 C 2753.62 -6.83093 1.70294 0
M  V30 15465 C 2752.91 -5.79992 0.836974 0
M  V30 15466 N 2752.96 -4.41864 1.38293 0
M  V30 15467 C 2752.88 -3.99538 2.69438 0
M  V30 15468 N 2752.96 -2.69909 2.84277 0
M  V30 15469 C 2753.1 -2.21719 1.5408 0
M  V30 15470 C 2753.23 -0.891712 1.06628 0
M  V30 15471 N 2753.35 -0.856846 -0.334985 0
M  V30 15472 C 2753.35 -1.9641 -1.15789 0
M  V30 15473 N 2753.48 -1.72708 -2.46522 0
M  V30 15474 N 2753.22 -3.21165 -0.713741 0
M  V30 15475 C 2753.1 -3.26797 0.639748 0
M  V30 15476 H 2750.12 -8.13644 3.0377 0
M  V30 15477 H 2749.85 -6.42788 2.55485 0
M  V30 15478 H 2750.72 -8.12039 0.792769 0
M  V30 15479 P 2754.68 -8.91 7.94728e-11 0
M  V30 15480 O 2754.9 -10.1726 -0.733694 0
M  V30 15481 O 2755.47 -8.73148 1.23936 0
M  V30 15482 O 2754.93 -7.66872 -0.971405 0
M  V30 15483 C 2753.99 -7.42309 -2.04641 0
M  V30 15484 C 2754.72 -6.86059 -3.24661 0
M  V30 15485 O 2754.93 -5.42847 -3.03646 0
M  V30 15486 C 2756.12 -7.41196 -3.50753 0
M  V30 15487 O 2756.51 -7.27073 -4.86816 0
M  V30 15488 C 2757 -6.5273 -2.63741 0
M  V30 15489 C 2756.29 -5.1842 -2.73198 0
M  V30 15490 N 2756.34 -4.38762 -1.4784 0
M  V30 15491 H 2753.5 -8.36803 -2.32493 0
M  V30 15492 H 2753.23 -6.70197 -1.71129 0
M  V30 15493 H 2754.1 -7.03551 -4.13168 0
M  V30 15494 P 2758.06 -7.20834 -5.23717 0
M  V30 15495 O 2758.28 -7.79853 -6.57286 0
M  V30 15496 O 2758.85 -7.79239 -4.12957 0
M  V30 15497 O 2758.31 -5.63315 -5.29344 0
M  V30 15498 C 2757.37 -4.80255 -6.01876 0
M  V30 15499 C 2758.1 -3.64202 -6.65911 0
M  V30 15500 O 2758.31 -2.60694 -5.64732 0
M  V30 15501 C 2759.5 -3.93473 -7.1943 0
M  V30 15502 O 2759.89 -3.02071 -8.21205 0
M  V30 15503 C 2760.38 -3.73047 -5.97036 0
M  V30 15504 C 2759.67 -2.58828 -5.25741 0
M  V30 15505 N 2759.72 -2.68068 -3.77503 0
M  V30 15506 H 2756.88 -5.40332 -6.79951 0
M  V30 15507 H 2756.61 -4.41613 -5.32378 0
M  V30 15508 H 2757.48 -3.26331 -7.47797 0
M  V30 15509 P 2761.44 -2.75334 -8.47391 0
M  V30 15510 O 2761.66 -2.44571 -9.90142 0
M  V30 15511 O 2762.23 -3.87688 -7.92115 0
M  V30 15512 O 2761.69 -1.4459 -7.59357 0
M  V30 15513 C 2760.75 -0.347608 -7.69215 0
M  V30 15514 C 2761.48 0.96767 -7.52806 0
M  V30 15515 O 2761.69 1.21036 -6.1011 0
M  V30 15516 C 2762.88 1.04544 -8.13308 0
M  V30 15517 O 2763.27 2.38311 -8.41922 0
M  V30 15518 C 2763.76 0.491279 -7.02284 0
M  V30 15519 C 2763.05 0.996264 -5.77469 0
M  V30 15520 N 2763.1 0.0501916 -4.62973 0
M  V30 15521 H 2760.26 -0.374722 -8.67691 0
M  V30 15522 H 2759.99 -0.443485 -6.90277 0
M  V30 15523 H 2760.86 1.75537 -7.96793 0
M  V30 15524 P 2764.82 2.75334 -8.47391 0
M  V30 15525 O 2765.04 3.84128 -9.44797 0
M  V30 15526 O 2765.61 1.51947 -8.68712 0
M  V30 15527 O 2765.07 3.29363 -6.99321 0
M  V30 15528 C 2764.13 4.24011 -6.4274 0
M  V30 15529 C 2764.86 5.20775 -5.52155 0
M  V30 15530 O 2765.07 4.56534 -4.22446 0
M  V30 15531 C 2766.26 5.62629 -5.96531 0
M  V30 15532 O 2766.65 6.87667 -5.41053 0
M  V30 15533 C 2767.14 4.52537 -5.39283 0
M  V30 15534 C 2766.43 4.20027 -4.08623 0
M  V30 15535 N 2766.48 2.76189 -3.71603 0
M  V30 15536 H 2763.64 4.797 -7.24003 0
M  V30 15537 H 2763.37 3.69856 -5.84513 0
M  V30 15538 H 2764.24 6.10356 -5.41441 0
M  V30 15539 P 2768.2 7.20834 -5.23717 0
M  V30 15540 O 2768.42 8.66104 -5.38572 0
M  V30 15541 O 2768.99 6.33544 -6.1349 0
M  V30 15542 O 2768.45 6.7751 -3.72168 0
M  V30 15543 C 2767.51 7.20825 -2.7076 0
M  V30 15544 C 2768.24 7.45864 -1.40599 0
M  V30 15545 O 2768.45 6.17651 -0.734225 0
M  V30 15546 C 2769.64 8.05808 -1.51899 0
M  V30 15547 O 2770.03 8.74358 -0.335205 0
M  V30 15548 C 2770.52 6.83093 -1.70294 0
M  V30 15549 C 2769.81 5.79992 -0.836974 0
M  V30 15550 N 2769.86 4.41864 -1.38293 0
M  V30 15551 H 2767.02 8.13644 -3.0377 0
M  V30 15552 H 2766.75 6.42788 -2.55485 0
M  V30 15553 H 2767.62 8.12039 -0.792769 0
M  V30 15554 P 2771.58 8.91 -8.05818e-11 0
M  V30 15555 O 2771.8 10.1726 0.733694 0
M  V30 15556 O 2772.37 8.73148 -1.23936 0
M  V30 15557 O 2771.83 7.66872 0.971405 0
M  V30 15558 C 2770.89 7.42309 2.04641 0
M  V30 15559 C 2771.62 6.86059 3.24661 0
M  V30 15560 O 2771.83 5.42847 3.03646 0
M  V30 15561 C 2773.02 7.41196 3.50753 0
M  V30 15562 O 2773.41 7.27073 4.86816 0
M  V30 15563 C 2773.9 6.5273 2.63741 0
M  V30 15564 C 2773.19 5.1842 2.73198 0
M  V30 15565 N 2773.24 4.38762 1.4784 0
M  V30 15566 H 2770.4 8.36803 2.32493 0
M  V30 15567 H 2770.13 6.70197 1.71129 0
M  V30 15568 H 2771 7.03551 4.13168 0
M  V30 15569 P 2774.96 7.20834 5.23717 0
M  V30 15570 O 2775.18 7.79853 6.57286 0
M  V30 15571 O 2775.75 7.79239 4.12957 0
M  V30 15572 O 2775.21 5.63315 5.29344 0
M  V30 15573 C 2774.27 4.80255 6.01876 0
M  V30 15574 C 2775 3.64202 6.65911 0
M  V30 15575 O 2775.21 2.60694 5.64732 0
M  V30 15576 C 2776.4 3.93473 7.1943 0
M  V30 15577 O 2776.79 3.02071 8.21205 0
M  V30 15578 C 2777.28 3.73047 5.97036 0
M  V30 15579 C 2776.57 2.58828 5.25741 0
M  V30 15580 N 2776.62 2.68068 3.77503 0
M  V30 15581 H 2773.78 5.40332 6.79951 0
M  V30 15582 H 2773.51 4.41613 5.32378 0
M  V30 15583 H 2774.38 3.26331 7.47797 0
M  V30 15584 P 2778.34 2.75334 8.47391 0
M  V30 15585 O 2778.56 2.44571 9.90142 0
M  V30 15586 O 2779.13 3.87688 7.92115 0
M  V30 15587 O 2778.59 1.4459 7.59357 0
M  V30 15588 C 2777.65 0.347608 7.69215 0
M  V30 15589 C 2778.38 -0.96767 7.52806 0
M  V30 15590 O 2778.59 -1.21036 6.1011 0
M  V30 15591 C 2779.78 -1.04544 8.13308 0
M  V30 15592 O 2780.17 -2.38311 8.41922 0
M  V30 15593 C 2780.66 -0.491279 7.02284 0
M  V30 15594 C 2779.95 -0.996264 5.77469 0
M  V30 15595 N 2780 -0.0501916 4.62973 0
M  V30 15596 H 2777.16 0.374722 8.67691 0
M  V30 15597 H 2776.89 0.443485 6.90277 0
M  V30 15598 H 2777.76 -1.75537 7.96793 0
M  V30 15599 P 2781.72 -2.75334 8.47391 0
M  V30 15600 O 2781.94 -3.84204 9.44982 0
M  V30 15601 O 2782.51 -1.51982 8.68909 0
M  V30 15602 O 2781.97 -3.29363 6.99321 0
M  V30 15603 C 2781.03 -4.24066 6.42823 0
M  V30 15604 C 2781.76 -5.20775 5.52155 0
M  V30 15605 O 2781.97 -4.56607 4.22514 0
M  V30 15606 C 2783.16 -5.62697 5.96604 0
M  V30 15607 O 2783.55 -6.87667 5.41053 0
M  V30 15608 C 2784.04 -4.52537 5.39283 0
M  V30 15609 C 2783.33 -4.20027 4.08623 0
M  V30 15610 N 2783.38 -2.76189 3.71603 0
M  V30 15611 H 2780.55 -4.79756 7.24086 0
M  V30 15612 H 2780.27 -3.69963 5.84682 0
M  V30 15613 H 2781.14 -6.10431 5.41508 0
M  V30 15614 H 2783.8 -4.78816 3.28024 0
M  V30 15615 H 2784.08 -3.64957 6.05871 0
M  V30 15616 H 2785.07 -4.88748 5.21323 0
M  V30 15617 H 2783.23 -5.66789 7.0643 0
M  V30 15618 P 2785.1 -7.20834 5.23717 0
M  V30 15619 O 2785.32 -8.66189 5.38625 0
M  V30 15620 O 2785.89 -6.33615 6.1356 0
M  V30 15621 O 2785.35 -6.7751 3.72168 0
M  V30 15622 C 2784.41 -7.20732 2.70725 0
M  V30 15623 C 2785.14 -7.45864 1.40599 0
M  V30 15624 O 2785.35 -6.17651 0.734225 0
M  V30 15625 C 2786.54 -8.05808 1.51899 0
M  V30 15626 O 2786.93 -8.74358 0.335205 0
M  V30 15627 C 2787.42 -6.83093 1.70294 0
M  V30 15628 C 2786.71 -5.79992 0.836974 0
M  V30 15629 N 2786.76 -4.41769 1.38263 0
M  V30 15630 C 2786.91 -3.38591 0.481702 0
M  V30 15631 O 2787 -3.56839 -0.718452 0
M  V30 15632 N 2786.95 -2.1206 1.03569 0
M  V30 15633 C 2786.86 -1.80696 2.36966 0
M  V30 15634 O 2786.91 -0.630473 2.74862 0
M  V30 15635 C 2786.71 -2.94845 3.23898 0
M  V30 15636 C 2786.6 -2.65253 4.70362 0
M  V30 15637 C 2786.66 -4.19803 2.73435 0
M  V30 15638 H 2783.92 -8.13644 3.0377 0
M  V30 15639 H 2783.65 -6.42695 2.55448 0
M  V30 15640 H 2784.52 -8.12039 0.792769 0
M  V30 15641 H 2787.18 -5.79978 -0.160587 0
M  V30 15642 H 2787.46 -6.51379 2.75643 0
M  V30 15643 H 2788.45 -7.01734 1.34462 0
M  V30 15644 H 2786.61 -8.73674 2.38337 0
M  V30 15645 H 2786.54 -5.04492 3.4095 0
M  V30 15646 H 2787.57 -2.83924 5.1913 0
M  V30 15647 H 2785.84 -3.29824 5.15163 0
M  V30 15648 H 2786.32 -1.59723 4.84449 0
M  V30 15649 H 2787.06 -1.35644 0.399345 0
M  V30 15650 P 2788.48 -8.91 8.16908e-11 0
M  V30 15651 O 2788.7 -10.1726 -0.733694 0
M  V30 15652 O 2789.27 -8.73148 1.23936 0
M  V30 15653 O 2788.73 -7.66872 -0.971405 0
M  V30 15654 C 2787.79 -7.42309 -2.04641 0
M  V30 15655 C 2788.52 -6.86059 -3.24661 0
M  V30 15656 O 2788.73 -5.42847 -3.03646 0
M  V30 15657 C 2789.92 -7.41196 -3.50753 0
M  V30 15658 O 2790.31 -7.27073 -4.86816 0
M  V30 15659 C 2790.8 -6.5273 -2.63741 0
M  V30 15660 C 2790.09 -5.1842 -2.73198 0
M  V30 15661 N 2790.14 -4.38762 -1.4784 0
M  V30 15662 H 2787.3 -8.36803 -2.32493 0
M  V30 15663 H 2787.03 -6.70197 -1.71129 0
M  V30 15664 H 2787.9 -7.03551 -4.13168 0
M  V30 15665 P 2791.86 -7.20834 -5.23717 0
M  V30 15666 O 2792.08 -7.79853 -6.57286 0
M  V30 15667 O 2792.65 -7.79239 -4.12957 0
M  V30 15668 O 2792.11 -5.63315 -5.29344 0
M  V30 15669 C 2791.17 -4.80255 -6.01876 0
M  V30 15670 C 2791.9 -3.64202 -6.65911 0
M  V30 15671 O 2792.11 -2.60694 -5.64732 0
M  V30 15672 C 2793.3 -3.93473 -7.1943 0
M  V30 15673 O 2793.69 -3.02071 -8.21205 0
M  V30 15674 C 2794.18 -3.73047 -5.97036 0
M  V30 15675 C 2793.47 -2.58828 -5.25741 0
M  V30 15676 N 2793.52 -2.68068 -3.77503 0
M  V30 15677 H 2790.68 -5.40332 -6.79951 0
M  V30 15678 H 2790.41 -4.41613 -5.32378 0
M  V30 15679 H 2791.28 -3.26331 -7.47797 0
M  V30 15680 P 2795.24 -2.75334 -8.47391 0
M  V30 15681 O 2795.46 -2.44571 -9.90142 0
M  V30 15682 O 2796.03 -3.87688 -7.92115 0
M  V30 15683 O 2795.49 -1.4459 -7.59357 0
M  V30 15684 C 2794.55 -0.347608 -7.69215 0
M  V30 15685 C 2795.28 0.96767 -7.52806 0
M  V30 15686 O 2795.49 1.21036 -6.1011 0
M  V30 15687 C 2796.68 1.04544 -8.13308 0
M  V30 15688 O 2797.07 2.38311 -8.41922 0
M  V30 15689 C 2797.56 0.491279 -7.02284 0
M  V30 15690 C 2796.85 0.996264 -5.77469 0
M  V30 15691 N 2796.9 0.0501916 -4.62973 0
M  V30 15692 H 2794.06 -0.374722 -8.67691 0
M  V30 15693 H 2793.79 -0.443485 -6.90277 0
M  V30 15694 H 2794.66 1.75537 -7.96793 0
M  V30 15695 P 2798.62 2.75334 -8.47391 0
M  V30 15696 O 2798.84 3.84128 -9.44797 0
M  V30 15697 O 2799.41 1.51947 -8.68712 0
M  V30 15698 O 2798.87 3.29363 -6.99321 0
M  V30 15699 C 2797.93 4.24011 -6.4274 0
M  V30 15700 C 2798.66 5.20775 -5.52155 0
M  V30 15701 O 2798.87 4.56534 -4.22446 0
M  V30 15702 C 2800.06 5.62629 -5.96531 0
M  V30 15703 O 2800.45 6.87667 -5.41053 0
M  V30 15704 C 2800.94 4.52537 -5.39283 0
M  V30 15705 C 2800.23 4.20027 -4.08623 0
M  V30 15706 N 2800.28 2.76189 -3.71603 0
M  V30 15707 H 2797.44 4.797 -7.24003 0
M  V30 15708 H 2797.17 3.69856 -5.84513 0
M  V30 15709 H 2798.04 6.10356 -5.41441 0
M  V30 15710 P 2802 7.20834 -5.23717 0
M  V30 15711 O 2802.22 8.66189 -5.38625 0
M  V30 15712 O 2802.79 6.33615 -6.1356 0
M  V30 15713 O 2802.25 6.7751 -3.72168 0
M  V30 15714 C 2801.31 7.20732 -2.70725 0
M  V30 15715 C 2802.04 7.45864 -1.40599 0
M  V30 15716 O 2802.25 6.17651 -0.734225 0
M  V30 15717 C 2803.44 8.05808 -1.51899 0
M  V30 15718 O 2803.83 8.74358 -0.335205 0
M  V30 15719 C 2804.32 6.83093 -1.70294 0
M  V30 15720 C 2803.61 5.79992 -0.836974 0
M  V30 15721 N 2803.66 4.41769 -1.38263 0
M  V30 15722 C 2803.81 3.38591 -0.481702 0
M  V30 15723 O 2803.9 3.56839 0.718452 0
M  V30 15724 N 2803.85 2.1206 -1.03569 0
M  V30 15725 C 2803.76 1.80696 -2.36966 0
M  V30 15726 C 2803.61 2.94845 -3.23898 0
M  V30 15727 C 2803.56 4.19803 -2.73435 0
M  V30 15728 H 2800.82 8.13644 -3.0377 0
M  V30 15729 H 2800.55 6.42695 -2.55448 0
M  V30 15730 H 2801.42 8.12039 -0.792769 0
M  V30 15731 H 2804.08 5.79978 0.160587 0
M  V30 15732 H 2804.36 6.51379 -2.75643 0
M  V30 15733 H 2805.35 7.01734 -1.34462 0
M  V30 15734 H 2803.51 8.73674 -2.38337 0
M  V30 15735 H 2803.44 5.04492 -3.4095 0
M  V30 15736 P 2805.38 8.91 -8.27998e-11 0
M  V30 15737 O 2805.6 10.1726 0.733694 0
M  V30 15738 O 2806.17 8.73148 -1.23936 0
M  V30 15739 O 2805.63 7.66872 0.971405 0
M  V30 15740 C 2804.69 7.42309 2.04641 0
M  V30 15741 C 2805.42 6.86059 3.24661 0
M  V30 15742 O 2805.63 5.42847 3.03646 0
M  V30 15743 C 2806.82 7.41196 3.50753 0
M  V30 15744 O 2807.21 7.27073 4.86816 0
M  V30 15745 C 2807.7 6.5273 2.63741 0
M  V30 15746 C 2806.99 5.1842 2.73198 0
M  V30 15747 N 2807.04 4.38762 1.4784 0
M  V30 15748 H 2804.2 8.36803 2.32493 0
M  V30 15749 H 2803.93 6.70197 1.71129 0
M  V30 15750 H 2804.8 7.03551 4.13168 0
M  V30 15751 P 2808.76 7.20834 5.23717 0
M  V30 15752 O 2808.98 7.79853 6.57286 0
M  V30 15753 O 2809.55 7.79239 4.12957 0
M  V30 15754 O 2809.01 5.63315 5.29344 0
M  V30 15755 C 2808.07 4.80255 6.01876 0
M  V30 15756 C 2808.8 3.64202 6.65911 0
M  V30 15757 O 2809.01 2.60694 5.64732 0
M  V30 15758 C 2810.2 3.93473 7.1943 0
M  V30 15759 O 2810.59 3.02071 8.21205 0
M  V30 15760 C 2811.08 3.73047 5.97036 0
M  V30 15761 C 2810.37 2.58828 5.25741 0
M  V30 15762 N 2810.42 2.68068 3.77503 0
M  V30 15763 H 2807.58 5.40332 6.79951 0
M  V30 15764 H 2807.31 4.41613 5.32378 0
M  V30 15765 H 2808.18 3.26331 7.47797 0
M  V30 15766 P 2812.14 2.75334 8.47391 0
M  V30 15767 O 2812.36 2.44571 9.90142 0
M  V30 15768 O 2812.93 3.87688 7.92115 0
M  V30 15769 O 2812.39 1.4459 7.59357 0
M  V30 15770 C 2811.45 0.347608 7.69215 0
M  V30 15771 C 2812.18 -0.96767 7.52806 0
M  V30 15772 O 2812.39 -1.21036 6.1011 0
M  V30 15773 C 2813.58 -1.04544 8.13308 0
M  V30 15774 O 2813.97 -2.38311 8.41922 0
M  V30 15775 C 2814.46 -0.491279 7.02284 0
M  V30 15776 C 2813.75 -0.996264 5.77469 0
M  V30 15777 N 2813.8 -0.0501916 4.62973 0
M  V30 15778 H 2810.96 0.374722 8.67691 0
M  V30 15779 H 2810.69 0.443485 6.90277 0
M  V30 15780 H 2811.56 -1.75537 7.96793 0
M  V30 15781 P 2815.52 -2.75334 8.47391 0
M  V30 15782 O 2815.74 -3.84128 9.44797 0
M  V30 15783 O 2816.31 -1.51947 8.68712 0
M  V30 15784 O 2815.77 -3.29363 6.99321 0
M  V30 15785 C 2814.83 -4.24011 6.4274 0
M  V30 15786 C 2815.56 -5.20775 5.52155 0
M  V30 15787 O 2815.77 -4.56534 4.22446 0
M  V30 15788 C 2816.96 -5.62629 5.96531 0
M  V30 15789 O 2817.35 -6.87667 5.41053 0
M  V30 15790 C 2817.84 -4.52537 5.39283 0
M  V30 15791 C 2817.13 -4.20027 4.08623 0
M  V30 15792 N 2817.18 -2.76189 3.71603 0
M  V30 15793 H 2814.34 -4.797 7.24003 0
M  V30 15794 H 2814.07 -3.69856 5.84513 0
M  V30 15795 H 2814.94 -6.10356 5.41441 0
M  V30 15796 P 2818.9 -7.20834 5.23717 0
M  V30 15797 O 2819.12 -8.66104 5.38572 0
M  V30 15798 O 2819.69 -6.33544 6.1349 0
M  V30 15799 O 2819.15 -6.7751 3.72168 0
M  V30 15800 C 2818.21 -7.20825 2.7076 0
M  V30 15801 C 2818.94 -7.45864 1.40599 0
M  V30 15802 O 2819.15 -6.17651 0.734225 0
M  V30 15803 C 2820.34 -8.05808 1.51899 0
M  V30 15804 O 2820.73 -8.74358 0.335205 0
M  V30 15805 C 2821.22 -6.83093 1.70294 0
M  V30 15806 C 2820.51 -5.79992 0.836974 0
M  V30 15807 N 2820.56 -4.41864 1.38293 0
M  V30 15808 C 2820.48 -3.99538 2.69438 0
M  V30 15809 N 2820.56 -2.69909 2.84277 0
M  V30 15810 C 2820.7 -2.21719 1.5408 0
M  V30 15811 C 2820.83 -0.891712 1.06628 0
M  V30 15812 N 2820.95 -0.856846 -0.334985 0
M  V30 15813 C 2820.95 -1.9641 -1.15789 0
M  V30 15814 N 2821.08 -1.72708 -2.46522 0
M  V30 15815 N 2820.82 -3.21165 -0.713741 0
M  V30 15816 C 2820.7 -3.26797 0.639748 0
M  V30 15817 H 2817.72 -8.13644 3.0377 0
M  V30 15818 H 2817.45 -6.42788 2.55485 0
M  V30 15819 H 2818.32 -8.12039 0.792769 0
M  V30 15820 P 2822.28 -8.91 8.39088e-11 0
M  V30 15821 O 2822.5 -10.1726 -0.733694 0
M  V30 15822 O 2823.07 -8.73148 1.23936 0
M  V30 15823 O 2822.53 -7.66872 -0.971405 0
M  V30 15824 C 2821.59 -7.42309 -2.04641 0
M  V30 15825 C 2822.32 -6.86059 -3.24661 0
M  V30 15826 O 2822.53 -5.42847 -3.03646 0
M  V30 15827 C 2823.72 -7.41196 -3.50753 0
M  V30 15828 O 2824.11 -7.27073 -4.86816 0
M  V30 15829 C 2824.6 -6.5273 -2.63741 0
M  V30 15830 C 2823.89 -5.1842 -2.73198 0
M  V30 15831 N 2823.94 -4.38762 -1.4784 0
M  V30 15832 H 2821.1 -8.36803 -2.32493 0
M  V30 15833 H 2820.83 -6.70197 -1.71129 0
M  V30 15834 H 2821.7 -7.03551 -4.13168 0
M  V30 15835 P 2825.66 -7.20834 -5.23717 0
M  V30 15836 O 2825.88 -7.79853 -6.57286 0
M  V30 15837 O 2826.45 -7.79239 -4.12957 0
M  V30 15838 O 2825.91 -5.63315 -5.29344 0
M  V30 15839 C 2824.97 -4.80255 -6.01876 0
M  V30 15840 C 2825.7 -3.64202 -6.65911 0
M  V30 15841 O 2825.91 -2.60694 -5.64732 0
M  V30 15842 C 2827.1 -3.93473 -7.1943 0
M  V30 15843 O 2827.49 -3.02071 -8.21205 0
M  V30 15844 C 2827.98 -3.73047 -5.97036 0
M  V30 15845 C 2827.27 -2.58828 -5.25741 0
M  V30 15846 N 2827.32 -2.68068 -3.77503 0
M  V30 15847 H 2824.48 -5.40332 -6.79951 0
M  V30 15848 H 2824.21 -4.41613 -5.32378 0
M  V30 15849 H 2825.08 -3.26331 -7.47797 0
M  V30 15850 P 2829.04 -2.75334 -8.47391 0
M  V30 15851 O 2829.26 -2.44571 -9.90142 0
M  V30 15852 O 2829.83 -3.87688 -7.92115 0
M  V30 15853 O 2829.29 -1.4459 -7.59357 0
M  V30 15854 C 2828.35 -0.347608 -7.69215 0
M  V30 15855 C 2829.08 0.96767 -7.52806 0
M  V30 15856 O 2829.29 1.21036 -6.1011 0
M  V30 15857 C 2830.48 1.04544 -8.13308 0
M  V30 15858 O 2830.87 2.38311 -8.41922 0
M  V30 15859 C 2831.36 0.491279 -7.02284 0
M  V30 15860 C 2830.65 0.996264 -5.77469 0
M  V30 15861 N 2830.7 0.0501916 -4.62973 0
M  V30 15862 H 2827.86 -0.374722 -8.67691 0
M  V30 15863 H 2827.59 -0.443485 -6.90277 0
M  V30 15864 H 2828.46 1.75537 -7.96793 0
M  V30 15865 P 2832.42 2.75334 -8.47391 0
M  V30 15866 O 2832.64 3.84128 -9.44797 0
M  V30 15867 O 2833.21 1.51947 -8.68712 0
M  V30 15868 O 2832.67 3.29363 -6.99321 0
M  V30 15869 C 2831.73 4.24011 -6.4274 0
M  V30 15870 C 2832.46 5.20775 -5.52155 0
M  V30 15871 O 2832.67 4.56534 -4.22446 0
M  V30 15872 C 2833.86 5.62629 -5.96531 0
M  V30 15873 O 2834.25 6.87667 -5.41053 0
M  V30 15874 C 2834.74 4.52537 -5.39283 0
M  V30 15875 C 2834.03 4.20027 -4.08623 0
M  V30 15876 N 2834.08 2.76189 -3.71603 0
M  V30 15877 H 2831.24 4.797 -7.24003 0
M  V30 15878 H 2830.97 3.69856 -5.84513 0
M  V30 15879 H 2831.84 6.10356 -5.41441 0
M  V30 15880 P 2835.8 7.20834 -5.23717 0
M  V30 15881 O 2836.02 8.66274 -5.38678 0
M  V30 15882 O 2836.59 6.33687 -6.13629 0
M  V30 15883 O 2836.05 6.7751 -3.72168 0
M  V30 15884 C 2835.11 7.20919 -2.70795 0
M  V30 15885 C 2835.84 7.45864 -1.40599 0
M  V30 15886 O 2836.05 6.17751 -0.734343 0
M  V30 15887 C 2837.24 8.05906 -1.51917 0
M  V30 15888 O 2837.63 8.74358 -0.335205 0
M  V30 15889 C 2838.12 6.83093 -1.70294 0
M  V30 15890 C 2837.41 5.79992 -0.836974 0
M  V30 15891 N 2837.46 4.41864 -1.38293 0
M  V30 15892 H 2834.63 8.13738 -3.03804 0
M  V30 15893 H 2834.35 6.42974 -2.55559 0
M  V30 15894 H 2835.22 8.12139 -0.792866 0
M  V30 15895 H 2837.88 5.80178 0.160643 0
M  V30 15896 H 2838.16 6.51379 -2.75643 0
M  V30 15897 H 2839.15 7.01832 -1.3448 0
M  V30 15898 H 2837.31 8.73771 -2.38364 0
M  V30 15899 P 2839.18 8.91 -8.50179e-11 0
M  V30 15900 O 2839.4 10.1736 0.733766 0
M  V30 15901 O 2839.97 8.73247 -1.2395 0
M  V30 15902 O 2839.43 7.66872 0.971405 0
M  V30 15903 C 2838.49 7.42212 2.04614 0
M  V30 15904 C 2839.22 6.86059 3.24661 0
M  V30 15905 O 2839.43 5.42847 3.03646 0
M  V30 15906 C 2840.62 7.41196 3.50753 0
M  V30 15907 O 2841.01 7.27073 4.86816 0
M  V30 15908 C 2841.5 6.5273 2.63741 0
M  V30 15909 C 2840.79 5.1842 2.73198 0
M  V30 15910 N 2840.84 4.38668 1.47808 0
M  V30 15911 C 2840.99 3.02239 1.60048 0
M  V30 15912 O 2841.08 2.46459 2.67869 0
M  V30 15913 N 2841.03 2.32436 0.408571 0
M  V30 15914 C 2840.94 2.85471 -0.854993 0
M  V30 15915 C 2840.79 4.28918 -0.887335 0
M  V30 15916 C 2840.74 5.00349 0.255399 0
M  V30 15917 H 2838 8.36803 2.32493 0
M  V30 15918 H 2837.73 6.701 1.71105 0
M  V30 15919 H 2838.6 7.03551 4.13168 0
M  V30 15920 H 2841.26 4.59773 3.53894 0
M  V30 15921 H 2841.54 6.88995 1.59871 0
M  V30 15922 H 2842.53 6.46749 3.03687 0
M  V30 15923 H 2840.69 8.46908 3.20714 0
M  V30 15924 H 2840.62 6.08548 0.206986 0
M  V30 15925 P 2842.56 7.20834 5.23717 0
M  V30 15926 O 2842.78 7.79853 6.57286 0
M  V30 15927 O 2843.35 7.79239 4.12957 0
M  V30 15928 O 2842.81 5.63315 5.29344 0
M  V30 15929 C 2841.87 4.80255 6.01876 0
M  V30 15930 C 2842.6 3.64202 6.65911 0
M  V30 15931 O 2842.81 2.60694 5.64732 0
M  V30 15932 C 2844 3.93473 7.1943 0
M  V30 15933 O 2844.39 3.02071 8.21205 0
M  V30 15934 C 2844.88 3.73047 5.97036 0
M  V30 15935 C 2844.17 2.58828 5.25741 0
M  V30 15936 N 2844.22 2.68068 3.77503 0
M  V30 15937 H 2841.38 5.40332 6.79951 0
M  V30 15938 H 2841.11 4.41613 5.32378 0
M  V30 15939 H 2841.98 3.26331 7.47797 0
M  V30 15940 P 2845.94 2.75334 8.47391 0
M  V30 15941 O 2846.16 2.44571 9.90142 0
M  V30 15942 O 2846.73 3.87688 7.92115 0
M  V30 15943 O 2846.19 1.4459 7.59357 0
M  V30 15944 C 2845.25 0.347608 7.69215 0
M  V30 15945 C 2845.98 -0.96767 7.52806 0
M  V30 15946 O 2846.19 -1.21036 6.1011 0
M  V30 15947 C 2847.38 -1.04544 8.13308 0
M  V30 15948 O 2847.77 -2.38311 8.41922 0
M  V30 15949 C 2848.26 -0.491279 7.02284 0
M  V30 15950 C 2847.55 -0.996264 5.77469 0
M  V30 15951 N 2847.6 -0.0501916 4.62973 0
M  V30 15952 H 2844.76 0.374722 8.67691 0
M  V30 15953 H 2844.49 0.443485 6.90277 0
M  V30 15954 H 2845.36 -1.75537 7.96793 0
M  V30 15955 P 2849.32 -2.75334 8.47391 0
M  V30 15956 O 2849.54 -3.84128 9.44797 0
M  V30 15957 O 2850.11 -1.51947 8.68712 0
M  V30 15958 O 2849.57 -3.29363 6.99321 0
M  V30 15959 C 2848.63 -4.24011 6.4274 0
M  V30 15960 C 2849.36 -5.20775 5.52155 0
M  V30 15961 O 2849.57 -4.56534 4.22446 0
M  V30 15962 C 2850.76 -5.62629 5.96531 0
M  V30 15963 O 2851.15 -6.87667 5.41053 0
M  V30 15964 C 2851.64 -4.52537 5.39283 0
M  V30 15965 C 2850.93 -4.20027 4.08623 0
M  V30 15966 N 2850.98 -2.76189 3.71603 0
M  V30 15967 H 2848.14 -4.797 7.24003 0
M  V30 15968 H 2847.87 -3.69856 5.84513 0
M  V30 15969 H 2848.74 -6.10356 5.41441 0
M  V30 15970 P 2852.7 -7.20834 5.23717 0
M  V30 15971 O 2852.92 -8.66104 5.38572 0
M  V30 15972 O 2853.49 -6.33544 6.1349 0
M  V30 15973 O 2852.95 -6.7751 3.72168 0
M  V30 15974 C 2852.01 -7.20825 2.7076 0
M  V30 15975 C 2852.74 -7.45864 1.40599 0
M  V30 15976 O 2852.95 -6.17651 0.734225 0
M  V30 15977 C 2854.14 -8.05808 1.51899 0
M  V30 15978 O 2854.53 -8.74358 0.335205 0
M  V30 15979 C 2855.02 -6.83093 1.70294 0
M  V30 15980 C 2854.31 -5.79992 0.836974 0
M  V30 15981 N 2854.36 -4.41864 1.38293 0
M  V30 15982 H 2851.52 -8.13644 3.0377 0
M  V30 15983 H 2851.25 -6.42788 2.55485 0
M  V30 15984 H 2852.12 -8.12039 0.792769 0
M  V30 15985 P 2856.08 -8.91 8.61269e-11 0
M  V30 15986 O 2856.3 -10.1726 -0.733694 0
M  V30 15987 O 2856.87 -8.73148 1.23936 0
M  V30 15988 O 2856.33 -7.66872 -0.971405 0
M  V30 15989 C 2855.39 -7.42309 -2.04641 0
M  V30 15990 C 2856.12 -6.86059 -3.24661 0
M  V30 15991 O 2856.33 -5.42847 -3.03646 0
M  V30 15992 C 2857.52 -7.41196 -3.50753 0
M  V30 15993 O 2857.91 -7.27073 -4.86816 0
M  V30 15994 C 2858.4 -6.5273 -2.63741 0
M  V30 15995 C 2857.69 -5.1842 -2.73198 0
M  V30 15996 N 2857.74 -4.38762 -1.4784 0
M  V30 15997 H 2854.9 -8.36803 -2.32493 0
M  V30 15998 H 2854.63 -6.70197 -1.71129 0
M  V30 15999 H 2855.5 -7.03551 -4.13168 0
M  V30 16000 P 2859.46 -7.20834 -5.23717 0
M  V30 16001 O 2859.68 -7.80006 -6.57415 0
M  V30 16002 O 2860.25 -7.79416 -4.13051 0
M  V30 16003 O 2859.71 -5.63315 -5.29344 0
M  V30 16004 C 2858.77 -4.80318 -6.01954 0
M  V30 16005 C 2859.5 -3.64202 -6.65911 0
M  V30 16006 O 2859.71 -2.60736 -5.64823 0
M  V30 16007 C 2860.9 -3.93521 -7.19518 0
M  V30 16008 O 2861.29 -3.02071 -8.21205 0
M  V30 16009 C 2861.78 -3.73047 -5.97036 0
M  V30 16010 C 2861.07 -2.58828 -5.25741 0
M  V30 16011 N 2861.12 -2.68068 -3.77503 0
M  V30 16012 H 2858.29 -5.40394 -6.8003 0
M  V30 16013 H 2858.01 -4.41741 -5.32532 0
M  V30 16014 H 2858.88 -3.26371 -7.47889 0
M  V30 16015 H 2861.54 -1.64007 -5.56746 0
M  V30 16016 H 2861.82 -4.63439 -5.3432 0
M  V30 16017 H 2862.81 -3.44776 -6.25925 0
M  V30 16018 H 2860.97 -4.96707 -7.57347 0
M  V30 16019 P 2862.84 -2.75334 -8.47391 0
M  V30 16020 O 2863.06 -2.44571 -9.90142 0
M  V30 16021 O 2863.63 -3.87688 -7.92115 0
M  V30 16022 O 2863.09 -1.4459 -7.59357 0
M  V30 16023 C 2862.15 -0.347608 -7.69215 0
M  V30 16024 C 2862.88 0.96767 -7.52806 0
M  V30 16025 O 2863.09 1.21036 -6.1011 0
M  V30 16026 C 2864.28 1.04544 -8.13308 0
M  V30 16027 O 2864.67 2.38311 -8.41922 0
M  V30 16028 C 2865.16 0.491279 -7.02284 0
M  V30 16029 C 2864.45 0.996264 -5.77469 0
M  V30 16030 N 2864.5 0.0501916 -4.62973 0
M  V30 16031 H 2861.66 -0.374722 -8.67691 0
M  V30 16032 H 2861.39 -0.443485 -6.90277 0
M  V30 16033 H 2862.26 1.75537 -7.96793 0
M  V30 16034 P 2866.22 2.75334 -8.47391 0
M  V30 16035 O 2866.44 3.84128 -9.44797 0
M  V30 16036 O 2867.01 1.51947 -8.68712 0
M  V30 16037 O 2866.47 3.29363 -6.99321 0
M  V30 16038 C 2865.53 4.24011 -6.4274 0
M  V30 16039 C 2866.26 5.20775 -5.52155 0
M  V30 16040 O 2866.47 4.56534 -4.22446 0
M  V30 16041 C 2867.66 5.62629 -5.96531 0
M  V30 16042 O 2868.05 6.87667 -5.41053 0
M  V30 16043 C 2868.54 4.52537 -5.39283 0
M  V30 16044 C 2867.83 4.20027 -4.08623 0
M  V30 16045 N 2867.88 2.76189 -3.71603 0
M  V30 16046 H 2865.04 4.797 -7.24003 0
M  V30 16047 H 2864.77 3.69856 -5.84513 0
M  V30 16048 H 2865.64 6.10356 -5.41441 0
M  V30 16049 P 2869.6 7.20834 -5.23717 0
M  V30 16050 O 2869.82 8.66104 -5.38572 0
M  V30 16051 O 2870.39 6.33544 -6.1349 0
M  V30 16052 O 2869.85 6.7751 -3.72168 0
M  V30 16053 C 2868.91 7.20825 -2.7076 0
M  V30 16054 C 2869.64 7.45864 -1.40599 0
M  V30 16055 O 2869.85 6.17651 -0.734225 0
M  V30 16056 C 2871.04 8.05808 -1.51899 0
M  V30 16057 O 2871.43 8.74358 -0.335205 0
M  V30 16058 C 2871.92 6.83093 -1.70294 0
M  V30 16059 C 2871.21 5.79992 -0.836974 0
M  V30 16060 N 2871.26 4.41864 -1.38293 0
M  V30 16061 H 2868.42 8.13644 -3.0377 0
M  V30 16062 H 2868.15 6.42788 -2.55485 0
M  V30 16063 H 2869.02 8.12039 -0.792769 0
M  V30 16064 P 2872.98 8.91 -8.72359e-11 0
M  V30 16065 O 2873.2 10.1726 0.733694 0
M  V30 16066 O 2873.77 8.73148 -1.23936 0
M  V30 16067 O 2873.23 7.66872 0.971405 0
M  V30 16068 C 2872.29 7.42309 2.04641 0
M  V30 16069 C 2873.02 6.86059 3.24661 0
M  V30 16070 O 2873.23 5.42847 3.03646 0
M  V30 16071 C 2874.42 7.41196 3.50753 0
M  V30 16072 O 2874.81 7.27073 4.86816 0
M  V30 16073 C 2875.3 6.5273 2.63741 0
M  V30 16074 C 2874.59 5.1842 2.73198 0
M  V30 16075 N 2874.64 4.38762 1.4784 0
M  V30 16076 H 2871.8 8.36803 2.32493 0
M  V30 16077 H 2871.53 6.70197 1.71129 0
M  V30 16078 H 2872.4 7.03551 4.13168 0
M  V30 16079 P 2876.36 7.20834 5.23717 0
M  V30 16080 O 2876.58 7.79853 6.57286 0
M  V30 16081 O 2877.15 7.79239 4.12957 0
M  V30 16082 O 2876.61 5.63315 5.29344 0
M  V30 16083 C 2875.67 4.80255 6.01876 0
M  V30 16084 C 2876.4 3.64202 6.65911 0
M  V30 16085 O 2876.61 2.60694 5.64732 0
M  V30 16086 C 2877.8 3.93473 7.1943 0
M  V30 16087 O 2878.19 3.02071 8.21205 0
M  V30 16088 C 2878.68 3.73047 5.97036 0
M  V30 16089 C 2877.97 2.58828 5.25741 0
M  V30 16090 N 2878.02 2.68068 3.77503 0
M  V30 16091 C 2877.94 3.79715 2.96723 0
M  V30 16092 N 2878.02 3.5377 1.68852 0
M  V30 16093 C 2878.16 2.15054 1.63254 0
M  V30 16094 C 2878.29 1.28964 0.518571 0
M  V30 16095 O 2878.31 1.56826 -0.679156 0
M  V30 16096 N 2878.41 -0.0538097 0.918425 0
M  V30 16097 C 2878.41 -0.494275 2.22578 0
M  V30 16098 N 2878.54 -1.81086 2.40434 0
M  V30 16099 N 2878.28 0.313645 3.27502 0
M  V30 16100 C 2878.16 1.61829 2.91033 0
M  V30 16101 H 2875.18 5.40332 6.79951 0
M  V30 16102 H 2874.91 4.41613 5.32378 0
M  V30 16103 H 2875.78 3.26331 7.47797 0
M  V30 16104 H 2878.44 1.63422 5.56814 0
M  V30 16105 H 2878.71 4.63374 5.34244 0
M  V30 16106 H 2879.71 3.44728 6.25838 0
M  V30 16107 H 2877.87 4.96652 7.57263 0
M  V30 16108 H 2877.82 4.80617 3.3614 0
M  V30 16109 H 2878.51 -0.742702 0.199384 0
M  V30 16110 H 2878.54 -2.20598 3.35588 0
M  V30 16111 H 2878.64 -2.43518 1.58945 0
M  V30 16112 P 2879.74 2.75334 8.47391 0
M  V30 16113 O 2879.96 2.44619 9.90336 0
M  V30 16114 O 2880.53 3.87776 7.92294 0
M  V30 16115 O 2879.99 1.4459 7.59357 0
M  V30 16116 C 2879.05 0.347653 7.69315 0
M  V30 16117 C 2879.78 -0.96767 7.52806 0
M  V30 16118 O 2879.99 -1.21055 6.10208 0
M  V30 16119 C 2881.18 -1.04557 8.13408 0
M  V30 16120 O 2881.57 -2.38311 8.41922 0
M  V30 16121 C 2882.06 -0.491279 7.02284 0
M  V30 16122 C 2881.35 -0.996264 5.77469 0
M  V30 16123 N 2881.4 -0.0501916 4.62973 0
M  V30 16124 C 2881.32 1.31969 4.65661 0
M  V30 16125 N 2881.39 1.86649 3.48119 0
M  V30 16126 C 2881.54 0.792089 2.62406 0
M  V30 16127 C 2881.67 0.705684 1.2207 0
M  V30 16128 N 2881.68 1.76207 0.413762 0
M  V30 16129 N 2881.79 -0.518981 0.685754 0
M  V30 16130 C 2881.78 -1.57595 1.49174 0
M  V30 16131 N 2881.66 -1.62909 2.80066 0
M  V30 16132 C 2881.54 -0.388195 3.3073 0
M  V30 16133 H 2878.56 0.374765 8.67791 0
M  V30 16134 H 2878.29 0.443613 6.90476 0
M  V30 16135 H 2879.16 -1.75559 7.96891 0
M  V30 16136 H 2881.82 -1.94563 5.46818 0
M  V30 16137 H 2882.1 0.608651 7.04676 0
M  V30 16138 H 2883.09 -0.889796 7.09039 0
M  V30 16139 H 2881.25 -0.433128 9.04664 0
M  V30 16140 H 2881.21 1.89246 5.57664 0
M  V30 16141 H 2881.59 2.71005 0.804694 0
M  V30 16142 H 2881.78 1.63189 -0.603768 0
M  V30 16143 H 2881.89 -2.53475 0.997614 0
M  V30 16144 P 2883.12 -2.75334 8.47391 0
M  V30 16145 O 2883.34 -3.84128 9.44797 0
M  V30 16146 O 2883.91 -1.51947 8.68712 0
M  V30 16147 O 2883.37 -3.29363 6.99321 0
M  V30 16148 C 2882.43 -4.24011 6.4274 0
M  V30 16149 C 2883.16 -5.20775 5.52155 0
M  V30 16150 O 2883.37 -4.56534 4.22446 0
M  V30 16151 C 2884.56 -5.62629 5.96531 0
M  V30 16152 O 2884.95 -6.87667 5.41053 0
M  V30 16153 C 2885.44 -4.52537 5.39283 0
M  V30 16154 C 2884.73 -4.20027 4.08623 0
M  V30 16155 N 2884.78 -2.76189 3.71603 0
M  V30 16156 H 2881.94 -4.797 7.24003 0
M  V30 16157 H 2881.67 -3.69856 5.84513 0
M  V30 16158 H 2882.54 -6.10356 5.41441 0
M  V30 16159 P 2886.5 -7.20834 5.23717 0
M  V30 16160 O 2886.72 -8.66104 5.38572 0
M  V30 16161 O 2887.29 -6.33544 6.1349 0
M  V30 16162 O 2886.75 -6.7751 3.72168 0
M  V30 16163 C 2885.81 -7.20825 2.7076 0
M  V30 16164 C 2886.54 -7.45864 1.40599 0
M  V30 16165 O 2886.75 -6.17651 0.734225 0
M  V30 16166 C 2887.94 -8.05808 1.51899 0
M  V30 16167 O 2888.33 -8.74358 0.335205 0
M  V30 16168 C 2888.82 -6.83093 1.70294 0
M  V30 16169 C 2888.11 -5.79992 0.836974 0
M  V30 16170 N 2888.16 -4.41864 1.38293 0
M  V30 16171 C 2888.08 -3.99538 2.69438 0
M  V30 16172 N 2888.16 -2.69909 2.84277 0
M  V30 16173 C 2888.3 -2.21719 1.5408 0
M  V30 16174 C 2888.43 -0.891712 1.06628 0
M  V30 16175 O 2888.45 0.161298 1.70137 0
M  V30 16176 N 2888.55 -0.856846 -0.334985 0
M  V30 16177 C 2888.55 -1.9641 -1.15789 0
M  V30 16178 N 2888.68 -1.72708 -2.46522 0
M  V30 16179 N 2888.42 -3.21165 -0.713741 0
M  V30 16180 C 2888.3 -3.26797 0.639748 0
M  V30 16181 H 2885.32 -8.13644 3.0377 0
M  V30 16182 H 2885.05 -6.42788 2.55485 0
M  V30 16183 H 2885.92 -8.12039 0.792769 0
M  V30 16184 H 2888.58 -5.80061 -0.166416 0
M  V30 16185 H 2888.85 -6.51287 2.75604 0
M  V30 16186 H 2889.85 -7.01734 1.34462 0
M  V30 16187 H 2888.01 -8.73674 2.38337 0
M  V30 16188 H 2887.96 -4.68207 3.53221 0
M  V30 16189 H 2888.65 0.0398818 -0.767965 0
M  V30 16190 H 2888.68 -2.50995 -3.13503 0
M  V30 16191 H 2888.78 -0.759148 -2.80716 0
M  V30 16192 P 2889.88 -8.91 8.83449e-11 0
M  V30 16193 O 2890.1 -10.1726 -0.733694 0
M  V30 16194 O 2890.67 -8.73148 1.23936 0
M  V30 16195 O 2890.13 -7.66872 -0.971405 0
M  V30 16196 C 2889.19 -7.42309 -2.04641 0
M  V30 16197 C 2889.92 -6.86059 -3.24661 0
M  V30 16198 O 2890.13 -5.42847 -3.03646 0
M  V30 16199 C 2891.32 -7.41196 -3.50753 0
M  V30 16200 O 2891.71 -7.27073 -4.86816 0
M  V30 16201 C 2892.2 -6.5273 -2.63741 0
M  V30 16202 C 2891.49 -5.1842 -2.73198 0
M  V30 16203 N 2891.54 -4.38762 -1.4784 0
M  V30 16204 H 2888.7 -8.36803 -2.32493 0
M  V30 16205 H 2888.43 -6.70197 -1.71129 0
M  V30 16206 H 2889.3 -7.03551 -4.13168 0
M  V30 16207 P 2893.26 -7.20834 -5.23717 0
M  V30 16208 O 2893.48 -7.79853 -6.57286 0
M  V30 16209 O 2894.05 -7.79239 -4.12957 0
M  V30 16210 O 2893.51 -5.63315 -5.29344 0
M  V30 16211 C 2892.57 -4.80255 -6.01876 0
M  V30 16212 C 2893.3 -3.64202 -6.65911 0
M  V30 16213 O 2893.51 -2.60694 -5.64732 0
M  V30 16214 C 2894.7 -3.93473 -7.1943 0
M  V30 16215 O 2895.09 -3.02071 -8.21205 0
M  V30 16216 C 2895.58 -3.73047 -5.97036 0
M  V30 16217 C 2894.87 -2.58828 -5.25741 0
M  V30 16218 N 2894.92 -2.68068 -3.77503 0
M  V30 16219 C 2894.84 -3.79715 -2.96723 0
M  V30 16220 N 2894.92 -3.5377 -1.68852 0
M  V30 16221 C 2895.06 -2.15054 -1.63254 0
M  V30 16222 C 2895.19 -1.28964 -0.518571 0
M  V30 16223 O 2895.21 -1.56826 0.679156 0
M  V30 16224 N 2895.31 0.0538097 -0.918425 0
M  V30 16225 C 2895.31 0.494275 -2.22578 0
M  V30 16226 N 2895.44 1.81086 -2.40434 0
M  V30 16227 N 2895.18 -0.313645 -3.27502 0
M  V30 16228 C 2895.06 -1.61829 -2.91033 0
M  V30 16229 H 2892.08 -5.40332 -6.79951 0
M  V30 16230 H 2891.81 -4.41613 -5.32378 0
M  V30 16231 H 2892.68 -3.26331 -7.47797 0
M  V30 16232 H 2895.34 -1.63422 -5.56814 0
M  V30 16233 H 2895.61 -4.63374 -5.34244 0
M  V30 16234 H 2896.61 -3.44728 -6.25838 0
M  V30 16235 H 2894.77 -4.96652 -7.57263 0
M  V30 16236 H 2894.72 -4.80617 -3.3614 0
M  V30 16237 H 2895.41 0.742702 -0.199384 0
M  V30 16238 H 2895.44 2.20598 -3.35588 0
M  V30 16239 H 2895.54 2.43518 -1.58945 0
M  V30 16240 P 2896.64 -2.75334 -8.47391 0
M  V30 16241 O 2896.86 -2.44595 -9.90239 0
M  V30 16242 O 2897.43 -3.87732 -7.92204 0
M  V30 16243 O 2896.89 -1.4459 -7.59357 0
M  V30 16244 C 2895.95 -0.347563 -7.69115 0
M  V30 16245 C 2896.68 0.96767 -7.52806 0
M  V30 16246 O 2896.89 1.21036 -6.1011 0
M  V30 16247 C 2898.08 1.04544 -8.13308 0
M  V30 16248 O 2898.47 2.38311 -8.41922 0
M  V30 16249 C 2898.96 0.491279 -7.02284 0
M  V30 16250 C 2898.25 0.996264 -5.77469 0
M  V30 16251 N 2898.3 0.0501808 -4.62873 0
M  V30 16252 C 2898.45 0.588177 -3.36904 0
M  V30 16253 O 2898.54 1.78598 -3.17173 0
M  V30 16254 N 2898.49 -0.329694 -2.33686 0
M  V30 16255 C 2898.4 -1.6953 -2.45079 0
M  V30 16256 O 2898.45 -2.41926 -1.44899 0
M  V30 16257 C 2898.25 -2.16933 -3.80505 0
M  V30 16258 C 2898.14 -3.65373 -3.97621 0
M  V30 16259 C 2898.2 -1.30326 -4.83752 0
M  V30 16260 H 2895.46 -0.374722 -8.67691 0
M  V30 16261 H 2895.19 -0.443421 -6.90177 0
M  V30 16262 H 2896.06 1.75537 -7.96793 0
M  V30 16263 H 2898.72 1.94496 -5.46629 0
M  V30 16264 H 2898.99 -0.608651 -7.04676 0
M  V30 16265 H 2899.99 0.889672 -7.08939 0
M  V30 16266 H 2898.15 0.43308 -9.04564 0
M  V30 16267 H 2898.08 -1.68366 -5.8516 0
M  V30 16268 H 2899.11 -4.05985 -4.30448 0
M  V30 16269 H 2897.37 -3.88028 -4.72875 0
M  V30 16270 H 2897.86 -4.11381 -3.01609 0
M  V30 16271 H 2898.6 0.0393617 -1.41345 0
M  V30 16272 P 2900.02 2.75334 -8.47391 0
M  V30 16273 O 2900.24 3.84128 -9.44797 0
M  V30 16274 O 2900.81 1.51947 -8.68712 0
M  V30 16275 O 2900.27 3.29363 -6.99321 0
M  V30 16276 C 2899.33 4.24011 -6.4274 0
M  V30 16277 C 2900.06 5.20775 -5.52155 0
M  V30 16278 O 2900.27 4.56534 -4.22446 0
M  V30 16279 C 2901.46 5.62629 -5.96531 0
M  V30 16280 O 2901.85 6.87667 -5.41053 0
M  V30 16281 C 2902.34 4.52537 -5.39283 0
M  V30 16282 C 2901.63 4.20027 -4.08623 0
M  V30 16283 N 2901.68 2.76189 -3.71603 0
M  V30 16284 C 2901.6 1.64862 -4.52822 0
M  V30 16285 N 2901.68 0.512671 -3.88633 0
M  V30 16286 C 2901.82 0.888083 -2.54977 0
M  V30 16287 C 2901.95 0.094668 -1.38677 0
M  V30 16288 O 2901.97 -1.13053 -1.28163 0
M  V30 16289 N 2902.07 0.890102 -0.232633 0
M  V30 16290 C 2902.07 2.26958 -0.21772 0
M  V30 16291 N 2902.2 2.84626 0.97925 0
M  V30 16292 N 2901.94 3.0178 -1.31033 0
M  V30 16293 C 2901.82 2.26781 -2.43843 0
M  V30 16294 H 2898.84 4.797 -7.24003 0
M  V30 16295 H 2898.57 3.69856 -5.84513 0
M  V30 16296 H 2899.44 6.10356 -5.41441 0
M  V30 16297 H 2902.1 4.79061 -3.27488 0
M  V30 16298 H 2902.37 3.64906 -6.05785 0
M  V30 16299 H 2903.37 4.8868 -5.2125 0
M  V30 16300 H 2901.53 5.66726 -7.06352 0
M  V30 16301 H 2901.48 1.71169 -5.60966 0
M  V30 16302 H 2902.17 0.419134 0.644739 0
M  V30 16303 H 2902.2 3.87332 1.06098 0
M  V30 16304 H 2902.3 2.26417 1.82483 0
M  V30 16305 P 2903.4 7.20834 -5.23717 0
M  V30 16306 O 2903.62 8.66274 -5.38678 0
M  V30 16307 O 2904.19 6.33687 -6.13629 0
M  V30 16308 O 2903.65 6.7751 -3.72168 0
M  V30 16309 C 2902.71 7.20919 -2.70795 0
M  V30 16310 C 2903.44 7.45864 -1.40599 0
M  V30 16311 O 2903.65 6.17751 -0.734343 0
M  V30 16312 C 2904.84 8.05906 -1.51917 0
M  V30 16313 O 2905.23 8.74358 -0.335205 0
M  V30 16314 C 2905.72 6.83093 -1.70294 0
M  V30 16315 C 2905.01 5.79992 -0.836974 0
M  V30 16316 N 2905.06 4.41864 -1.38293 0
M  V30 16317 H 2902.22 8.13738 -3.03804 0
M  V30 16318 H 2901.95 6.42974 -2.55559 0
M  V30 16319 H 2902.82 8.12139 -0.792866 0
M  V30 16320 H 2905.48 5.80178 0.160643 0
M  V30 16321 H 2905.76 6.51379 -2.75643 0
M  V30 16322 H 2906.75 7.01832 -1.3448 0
M  V30 16323 H 2904.91 8.73771 -2.38364 0
M  V30 16324 P 2906.78 8.91 -8.94539e-11 0
M  V30 16325 O 2907 10.1726 0.733694 0
M  V30 16326 O 2907.57 8.73148 -1.23936 0
M  V30 16327 O 2907.03 7.66872 0.971405 0
M  V30 16328 C 2906.09 7.42309 2.04641 0
M  V30 16329 C 2906.82 6.86059 3.24661 0
M  V30 16330 O 2907.03 5.42847 3.03646 0
M  V30 16331 C 2908.22 7.41196 3.50753 0
M  V30 16332 O 2908.61 7.27073 4.86816 0
M  V30 16333 C 2909.1 6.5273 2.63741 0
M  V30 16334 C 2908.39 5.1842 2.73198 0
M  V30 16335 N 2908.44 4.38762 1.4784 0
M  V30 16336 H 2905.6 8.36803 2.32493 0
M  V30 16337 H 2905.33 6.70197 1.71129 0
M  V30 16338 H 2906.2 7.03551 4.13168 0
M  V30 16339 P 2910.16 7.20834 5.23717 0
M  V30 16340 O 2910.38 7.7993 6.57351 0
M  V30 16341 O 2910.95 7.79328 4.13004 0
M  V30 16342 O 2910.41 5.63315 5.29344 0
M  V30 16343 C 2909.47 4.80255 6.01876 0
M  V30 16344 C 2910.2 3.64202 6.65911 0
M  V30 16345 O 2910.41 2.60694 5.64732 0
M  V30 16346 C 2911.6 3.93473 7.1943 0
M  V30 16347 O 2911.99 3.02071 8.21205 0
M  V30 16348 C 2912.48 3.73047 5.97036 0
M  V30 16349 C 2911.77 2.58828 5.25741 0
M  V30 16350 N 2911.82 2.6801 3.77422 0
M  V30 16351 C 2911.97 1.50173 3.05038 0
M  V30 16352 O 2912.06 0.428832 3.665 0
M  V30 16353 N 2912.02 1.70922 1.55541 0
M  V30 16354 C 2911.92 2.7407 1.06402 0
M  V30 16355 N 2911.97 2.74764 -0.260931 0
M  V30 16356 C 2911.77 3.96781 1.78296 0
M  V30 16357 C 2911.72 3.87909 3.13891 0
M  V30 16358 H 2908.98 5.4027 6.79873 0
M  V30 16359 H 2908.71 4.41549 5.32301 0
M  V30 16360 H 2909.58 3.26371 7.47889 0
M  V30 16361 H 2912.24 1.63978 5.5665 0
M  V30 16362 H 2912.51 4.63439 5.3432 0
M  V30 16363 H 2913.51 3.44728 6.25838 0
M  V30 16364 H 2911.67 4.96652 7.57263 0
M  V30 16365 H 2911.6 4.78425 3.73088 0
M  V30 16366 H 2911.7 4.92593 1.26997 0
M  V30 16367 H 2912.09 1.86285 -0.77595 0
M  V30 16368 H 2911.89 3.63657 -0.773896 0
M  V30 16369 P 2913.54 2.75334 8.47391 0
M  V30 16370 O 2913.76 2.44571 9.90142 0
M  V30 16371 O 2914.33 3.87688 7.92115 0
M  V30 16372 O 2913.79 1.4459 7.59357 0
M  V30 16373 C 2912.85 0.347608 7.69215 0
M  V30 16374 C 2913.58 -0.96767 7.52806 0
M  V30 16375 O 2913.79 -1.21036 6.1011 0
M  V30 16376 C 2914.98 -1.04544 8.13308 0
M  V30 16377 O 2915.37 -2.38311 8.41922 0
M  V30 16378 C 2915.86 -0.491279 7.02284 0
M  V30 16379 C 2915.15 -0.996264 5.77469 0
M  V30 16380 N 2915.2 -0.0501916 4.62973 0
M  V30 16381 H 2912.36 0.374722 8.67691 0
M  V30 16382 H 2912.09 0.443485 6.90277 0
M  V30 16383 H 2912.96 -1.75537 7.96793 0
M  V30 16384 P 2916.92 -2.75334 8.47391 0
M  V30 16385 O 2917.14 -3.84128 9.44797 0
M  V30 16386 O 2917.71 -1.51947 8.68712 0
M  V30 16387 O 2917.17 -3.29363 6.99321 0
M  V30 16388 C 2916.23 -4.24011 6.4274 0
M  V30 16389 C 2916.96 -5.20775 5.52155 0
M  V30 16390 O 2917.17 -4.56534 4.22446 0
M  V30 16391 C 2918.36 -5.62629 5.96531 0
M  V30 16392 O 2918.75 -6.87667 5.41053 0
M  V30 16393 C 2919.24 -4.52537 5.39283 0
M  V30 16394 C 2918.53 -4.20027 4.08623 0
M  V30 16395 N 2918.58 -2.76189 3.71603 0
M  V30 16396 H 2915.74 -4.797 7.24003 0
M  V30 16397 H 2915.47 -3.69856 5.84513 0
M  V30 16398 H 2916.34 -6.10356 5.41441 0
M  V30 16399 P 2920.3 -7.20834 5.23717 0
M  V30 16400 O 2920.52 -8.66104 5.38572 0
M  V30 16401 O 2921.09 -6.33544 6.1349 0
M  V30 16402 O 2920.55 -6.7751 3.72168 0
M  V30 16403 C 2919.61 -7.20825 2.7076 0
M  V30 16404 C 2920.34 -7.45864 1.40599 0
M  V30 16405 O 2920.55 -6.17651 0.734225 0
M  V30 16406 C 2921.74 -8.05808 1.51899 0
M  V30 16407 O 2922.13 -8.74358 0.335205 0
M  V30 16408 C 2922.62 -6.83093 1.70294 0
M  V30 16409 C 2921.91 -5.79992 0.836974 0
M  V30 16410 N 2921.96 -4.41864 1.38293 0
M  V30 16411 H 2919.12 -8.13644 3.0377 0
M  V30 16412 H 2918.85 -6.42788 2.55485 0
M  V30 16413 H 2919.72 -8.12039 0.792769 0
M  V30 16414 P 2923.68 -8.91 9.05629e-11 0
M  V30 16415 O 2923.9 -10.1726 -0.733694 0
M  V30 16416 O 2924.47 -8.73148 1.23936 0
M  V30 16417 O 2923.93 -7.66872 -0.971405 0
M  V30 16418 C 2922.99 -7.42309 -2.04641 0
M  V30 16419 C 2923.72 -6.86059 -3.24661 0
M  V30 16420 O 2923.93 -5.42847 -3.03646 0
M  V30 16421 C 2925.12 -7.41196 -3.50753 0
M  V30 16422 O 2925.51 -7.27073 -4.86816 0
M  V30 16423 C 2926 -6.5273 -2.63741 0
M  V30 16424 C 2925.29 -5.1842 -2.73198 0
M  V30 16425 N 2925.34 -4.38762 -1.4784 0
M  V30 16426 H 2922.5 -8.36803 -2.32493 0
M  V30 16427 H 2922.23 -6.70197 -1.71129 0
M  V30 16428 H 2923.1 -7.03551 -4.13168 0
M  V30 16429 P 2927.06 -7.20834 -5.23717 0
M  V30 16430 O 2927.28 -7.79853 -6.57286 0
M  V30 16431 O 2927.85 -7.79239 -4.12957 0
M  V30 16432 O 2927.31 -5.63315 -5.29344 0
M  V30 16433 C 2926.37 -4.80255 -6.01876 0
M  V30 16434 C 2927.1 -3.64202 -6.65911 0
M  V30 16435 O 2927.31 -2.60694 -5.64732 0
M  V30 16436 C 2928.5 -3.93473 -7.1943 0
M  V30 16437 O 2928.89 -3.02071 -8.21205 0
M  V30 16438 C 2929.38 -3.73047 -5.97036 0
M  V30 16439 C 2928.67 -2.58828 -5.25741 0
M  V30 16440 N 2928.72 -2.68068 -3.77503 0
M  V30 16441 H 2925.88 -5.40332 -6.79951 0
M  V30 16442 H 2925.61 -4.41613 -5.32378 0
M  V30 16443 H 2926.48 -3.26331 -7.47797 0
M  V30 16444 P 2930.44 -2.75334 -8.47391 0
M  V30 16445 O 2930.66 -2.44571 -9.90142 0
M  V30 16446 O 2931.23 -3.87688 -7.92115 0
M  V30 16447 O 2930.69 -1.4459 -7.59357 0
M  V30 16448 C 2929.75 -0.347608 -7.69215 0
M  V30 16449 C 2930.48 0.96767 -7.52806 0
M  V30 16450 O 2930.69 1.21036 -6.1011 0
M  V30 16451 C 2931.88 1.04544 -8.13308 0
M  V30 16452 O 2932.27 2.38311 -8.41922 0
M  V30 16453 C 2932.76 0.491279 -7.02284 0
M  V30 16454 C 2932.05 0.996264 -5.77469 0
M  V30 16455 N 2932.1 0.0501916 -4.62973 0
M  V30 16456 H 2929.26 -0.374722 -8.67691 0
M  V30 16457 H 2928.99 -0.443485 -6.90277 0
M  V30 16458 H 2929.86 1.75537 -7.96793 0
M  V30 16459 P 2933.82 2.75334 -8.47391 0
M  V30 16460 O 2934.04 3.84128 -9.44797 0
M  V30 16461 O 2934.61 1.51947 -8.68712 0
M  V30 16462 O 2934.07 3.29363 -6.99321 0
M  V30 16463 C 2933.13 4.24011 -6.4274 0
M  V30 16464 C 2933.86 5.20775 -5.52155 0
M  V30 16465 O 2934.07 4.56534 -4.22446 0
M  V30 16466 C 2935.26 5.62629 -5.96531 0
M  V30 16467 O 2935.65 6.87667 -5.41053 0
M  V30 16468 C 2936.14 4.52537 -5.39283 0
M  V30 16469 C 2935.43 4.20027 -4.08623 0
M  V30 16470 N 2935.48 2.76189 -3.71603 0
M  V30 16471 H 2932.64 4.797 -7.24003 0
M  V30 16472 H 2932.37 3.69856 -5.84513 0
M  V30 16473 H 2933.24 6.10356 -5.41441 0
M  V30 16474 P 2937.2 7.20834 -5.23717 0
M  V30 16475 O 2937.42 8.66104 -5.38572 0
M  V30 16476 O 2937.99 6.33544 -6.1349 0
M  V30 16477 O 2937.45 6.7751 -3.72168 0
M  V30 16478 C 2936.51 7.20825 -2.7076 0
M  V30 16479 C 2937.24 7.45864 -1.40599 0
M  V30 16480 O 2937.45 6.17651 -0.734225 0
M  V30 16481 C 2938.64 8.05808 -1.51899 0
M  V30 16482 O 2939.03 8.74358 -0.335205 0
M  V30 16483 C 2939.52 6.83093 -1.70294 0
M  V30 16484 C 2938.81 5.79992 -0.836974 0
M  V30 16485 N 2938.86 4.41864 -1.38293 0
M  V30 16486 C 2938.78 3.99538 -2.69438 0
M  V30 16487 N 2938.86 2.69909 -2.84277 0
M  V30 16488 C 2939 2.21719 -1.5408 0
M  V30 16489 C 2939.13 0.891712 -1.06628 0
M  V30 16490 N 2939.25 0.856846 0.334985 0
M  V30 16491 C 2939.25 1.9641 1.15789 0
M  V30 16492 N 2939.38 1.72708 2.46522 0
M  V30 16493 N 2939.12 3.21165 0.713741 0
M  V30 16494 C 2939 3.26797 -0.639748 0
M  V30 16495 H 2936.02 8.13644 -3.0377 0
M  V30 16496 H 2935.75 6.42788 -2.55485 0
M  V30 16497 H 2936.62 8.12039 -0.792769 0
M  V30 16498 P 2940.58 8.91 -9.16719e-11 0
M  V30 16499 O 2940.8 10.1726 0.733694 0
M  V30 16500 O 2941.37 8.73148 -1.23936 0
M  V30 16501 O 2940.83 7.66872 0.971405 0
M  V30 16502 C 2939.89 7.42309 2.04641 0
M  V30 16503 C 2940.62 6.86059 3.24661 0
M  V30 16504 O 2940.83 5.42847 3.03646 0
M  V30 16505 C 2942.02 7.41196 3.50753 0
M  V30 16506 O 2942.41 7.27073 4.86816 0
M  V30 16507 C 2942.9 6.5273 2.63741 0
M  V30 16508 C 2942.19 5.1842 2.73198 0
M  V30 16509 N 2942.24 4.38762 1.4784 0
M  V30 16510 H 2939.4 8.36803 2.32493 0
M  V30 16511 H 2939.13 6.70197 1.71129 0
M  V30 16512 H 2940 7.03551 4.13168 0
M  V30 16513 P 2943.96 7.20834 5.23717 0
M  V30 16514 O 2944.18 7.79853 6.57286 0
M  V30 16515 O 2944.75 7.79239 4.12957 0
M  V30 16516 O 2944.21 5.63315 5.29344 0
M  V30 16517 C 2943.27 4.80255 6.01876 0
M  V30 16518 C 2944 3.64202 6.65911 0
M  V30 16519 O 2944.21 2.60694 5.64732 0
M  V30 16520 C 2945.4 3.93473 7.1943 0
M  V30 16521 O 2945.79 3.02071 8.21205 0
M  V30 16522 C 2946.28 3.73047 5.97036 0
M  V30 16523 C 2945.57 2.58828 5.25741 0
M  V30 16524 N 2945.62 2.68068 3.77503 0
M  V30 16525 H 2942.78 5.40332 6.79951 0
M  V30 16526 H 2942.51 4.41613 5.32378 0
M  V30 16527 H 2943.38 3.26331 7.47797 0
M  V30 16528 P 2947.34 2.75334 8.47391 0
M  V30 16529 O 2947.56 2.44571 9.90142 0
M  V30 16530 O 2948.13 3.87688 7.92115 0
M  V30 16531 O 2947.59 1.4459 7.59357 0
M  V30 16532 C 2946.65 0.347608 7.69215 0
M  V30 16533 C 2947.38 -0.96767 7.52806 0
M  V30 16534 O 2947.59 -1.21036 6.1011 0
M  V30 16535 C 2948.78 -1.04544 8.13308 0
M  V30 16536 O 2949.17 -2.38311 8.41922 0
M  V30 16537 C 2949.66 -0.491279 7.02284 0
M  V30 16538 C 2948.95 -0.996264 5.77469 0
M  V30 16539 N 2949 -0.0501916 4.62973 0
M  V30 16540 H 2946.16 0.374722 8.67691 0
M  V30 16541 H 2945.89 0.443485 6.90277 0
M  V30 16542 H 2946.76 -1.75537 7.96793 0
M  V30 16543 P 2950.72 -2.75334 8.47391 0
M  V30 16544 O 2950.94 -3.84128 9.44797 0
M  V30 16545 O 2951.51 -1.51947 8.68712 0
M  V30 16546 O 2950.97 -3.29363 6.99321 0
M  V30 16547 C 2950.03 -4.24011 6.4274 0
M  V30 16548 C 2950.76 -5.20775 5.52155 0
M  V30 16549 O 2950.97 -4.56534 4.22446 0
M  V30 16550 C 2952.16 -5.62629 5.96531 0
M  V30 16551 O 2952.55 -6.87667 5.41053 0
M  V30 16552 C 2953.04 -4.52537 5.39283 0
M  V30 16553 C 2952.33 -4.20027 4.08623 0
M  V30 16554 N 2952.38 -2.76189 3.71603 0
M  V30 16555 H 2949.54 -4.797 7.24003 0
M  V30 16556 H 2949.27 -3.69856 5.84513 0
M  V30 16557 H 2950.14 -6.10356 5.41441 0
M  V30 16558 P 2954.1 -7.20834 5.23717 0
M  V30 16559 O 2954.32 -8.66104 5.38572 0
M  V30 16560 O 2954.89 -6.33544 6.1349 0
M  V30 16561 O 2954.35 -6.7751 3.72168 0
M  V30 16562 C 2953.41 -7.20825 2.7076 0
M  V30 16563 C 2954.14 -7.45864 1.40599 0
M  V30 16564 O 2954.35 -6.17651 0.734225 0
M  V30 16565 C 2955.54 -8.05808 1.51899 0
M  V30 16566 O 2955.93 -8.74358 0.335205 0
M  V30 16567 C 2956.42 -6.83093 1.70294 0
M  V30 16568 C 2955.71 -5.79992 0.836974 0
M  V30 16569 N 2955.76 -4.41864 1.38293 0
M  V30 16570 H 2952.92 -8.13644 3.0377 0
M  V30 16571 H 2952.65 -6.42788 2.55485 0
M  V30 16572 H 2953.52 -8.12039 0.792769 0
M  V30 16573 P 2957.48 -8.91 9.27809e-11 0
M  V30 16574 O 2957.7 -10.1726 -0.733694 0
M  V30 16575 O 2958.27 -8.73148 1.23936 0
M  V30 16576 O 2957.73 -7.66872 -0.971405 0
M  V30 16577 C 2956.79 -7.42309 -2.04641 0
M  V30 16578 C 2957.52 -6.86059 -3.24661 0
M  V30 16579 O 2957.73 -5.42847 -3.03646 0
M  V30 16580 C 2958.92 -7.41196 -3.50753 0
M  V30 16581 O 2959.31 -7.27073 -4.86816 0
M  V30 16582 C 2959.8 -6.5273 -2.63741 0
M  V30 16583 C 2959.09 -5.1842 -2.73198 0
M  V30 16584 N 2959.14 -4.38762 -1.4784 0
M  V30 16585 H 2956.3 -8.36803 -2.32493 0
M  V30 16586 H 2956.03 -6.70197 -1.71129 0
M  V30 16587 H 2956.9 -7.03551 -4.13168 0
M  V30 16588 P 2960.86 -7.20834 -5.23717 0
M  V30 16589 O 2961.08 -7.79853 -6.57286 0
M  V30 16590 O 2961.65 -7.79239 -4.12957 0
M  V30 16591 O 2961.11 -5.63315 -5.29344 0
M  V30 16592 C 2960.17 -4.80255 -6.01876 0
M  V30 16593 C 2960.9 -3.64202 -6.65911 0
M  V30 16594 O 2961.11 -2.60694 -5.64732 0
M  V30 16595 C 2962.3 -3.93473 -7.1943 0
M  V30 16596 O 2962.69 -3.02071 -8.21205 0
M  V30 16597 C 2963.18 -3.73047 -5.97036 0
M  V30 16598 C 2962.47 -2.58828 -5.25741 0
M  V30 16599 N 2962.52 -2.68068 -3.77503 0
M  V30 16600 C 2962.44 -3.79715 -2.96723 0
M  V30 16601 N 2962.52 -3.5377 -1.68852 0
M  V30 16602 C 2962.66 -2.15054 -1.63254 0
M  V30 16603 C 2962.79 -1.28964 -0.518571 0
M  V30 16604 N 2962.91 0.0538097 -0.918425 0
M  V30 16605 C 2962.91 0.494275 -2.22578 0
M  V30 16606 N 2963.04 1.81086 -2.40434 0
M  V30 16607 N 2962.78 -0.313645 -3.27502 0
M  V30 16608 C 2962.66 -1.61829 -2.91033 0
M  V30 16609 H 2959.68 -5.40332 -6.79951 0
M  V30 16610 H 2959.41 -4.41613 -5.32378 0
M  V30 16611 H 2960.28 -3.26331 -7.47797 0
M  V30 16612 P 2964.24 -2.75334 -8.47391 0
M  V30 16613 O 2964.46 -2.44571 -9.90142 0
M  V30 16614 O 2965.03 -3.87688 -7.92115 0
M  V30 16615 O 2964.49 -1.4459 -7.59357 0
M  V30 16616 C 2963.55 -0.347608 -7.69215 0
M  V30 16617 C 2964.28 0.96767 -7.52806 0
M  V30 16618 O 2964.49 1.21036 -6.1011 0
M  V30 16619 C 2965.68 1.04544 -8.13308 0
M  V30 16620 O 2966.07 2.38311 -8.41922 0
M  V30 16621 C 2966.56 0.491279 -7.02284 0
M  V30 16622 C 2965.85 0.996264 -5.77469 0
M  V30 16623 N 2965.9 0.0501916 -4.62973 0
M  V30 16624 C 2965.82 -1.32786 -4.63244 0
M  V30 16625 N 2965.9 -1.86957 -3.44545 0
M  V30 16626 C 2966.04 -0.780241 -2.58481 0
M  V30 16627 C 2966.17 -0.738536 -1.17757 0
M  V30 16628 N 2966.29 0.58337 -0.711393 0
M  V30 16629 C 2966.29 1.70816 -1.51017 0
M  V30 16630 N 2966.42 2.87826 -0.880757 0
M  V30 16631 N 2966.16 1.67126 -2.8339 0
M  V30 16632 C 2966.04 0.401421 -3.30572 0
M  V30 16633 H 2963.06 -0.374722 -8.67691 0
M  V30 16634 H 2962.79 -0.443485 -6.90277 0
M  V30 16635 H 2963.66 1.75537 -7.96793 0
M  V30 16636 P 2967.62 2.75334 -8.47391 0
M  V30 16637 O 2967.84 3.84128 -9.44797 0
M  V30 16638 O 2968.41 1.51947 -8.68712 0
M  V30 16639 O 2967.87 3.29363 -6.99321 0
M  V30 16640 C 2966.93 4.24011 -6.4274 0
M  V30 16641 C 2967.66 5.20775 -5.52155 0
M  V30 16642 O 2967.87 4.56534 -4.22446 0
M  V30 16643 C 2969.06 5.62629 -5.96531 0
M  V30 16644 O 2969.45 6.87667 -5.41053 0
M  V30 16645 C 2969.94 4.52537 -5.39283 0
M  V30 16646 C 2969.23 4.20027 -4.08623 0
M  V30 16647 N 2969.28 2.76189 -3.71603 0
M  V30 16648 H 2966.44 4.797 -7.24003 0
M  V30 16649 H 2966.17 3.69856 -5.84513 0
M  V30 16650 H 2967.04 6.10356 -5.41441 0
M  V30 16651 P 2971 7.20834 -5.23717 0
M  V30 16652 O 2971.22 8.66274 -5.38678 0
M  V30 16653 O 2971.79 6.33687 -6.13629 0
M  V30 16654 O 2971.25 6.7751 -3.72168 0
M  V30 16655 C 2970.31 7.20919 -2.70795 0
M  V30 16656 C 2971.04 7.45864 -1.40599 0
M  V30 16657 O 2971.25 6.17751 -0.734343 0
M  V30 16658 C 2972.44 8.05906 -1.51917 0
M  V30 16659 O 2972.83 8.74358 -0.335205 0
M  V30 16660 C 2973.32 6.83093 -1.70294 0
M  V30 16661 C 2972.61 5.79992 -0.836974 0
M  V30 16662 N 2972.66 4.41864 -1.38293 0
M  V30 16663 H 2969.82 8.13738 -3.03804 0
M  V30 16664 H 2969.55 6.42974 -2.55559 0
M  V30 16665 H 2970.42 8.12139 -0.792866 0
M  V30 16666 H 2973.08 5.80178 0.160643 0
M  V30 16667 H 2973.36 6.51379 -2.75643 0
M  V30 16668 H 2974.35 7.01832 -1.3448 0
M  V30 16669 H 2972.51 8.73771 -2.38364 0
M  V30 16670 P 2974.38 8.91 -9.38899e-11 0
M  V30 16671 O 2974.6 10.1726 0.733694 0
M  V30 16672 O 2975.17 8.73148 -1.23936 0
M  V30 16673 O 2974.63 7.66872 0.971405 0
M  V30 16674 C 2973.69 7.42309 2.04641 0
M  V30 16675 C 2974.42 6.86059 3.24661 0
M  V30 16676 O 2974.63 5.42847 3.03646 0
M  V30 16677 C 2975.82 7.41196 3.50753 0
M  V30 16678 O 2976.21 7.27073 4.86816 0
M  V30 16679 C 2976.7 6.5273 2.63741 0
M  V30 16680 C 2975.99 5.1842 2.73198 0
M  V30 16681 N 2976.04 4.38762 1.4784 0
M  V30 16682 H 2973.2 8.36803 2.32493 0
M  V30 16683 H 2972.93 6.70197 1.71129 0
M  V30 16684 H 2973.8 7.03551 4.13168 0
M  V30 16685 P 2977.76 7.20834 5.23717 0
M  V30 16686 O 2977.98 7.79853 6.57286 0
M  V30 16687 O 2978.55 7.79239 4.12957 0
M  V30 16688 O 2978.01 5.63315 5.29344 0
M  V30 16689 C 2977.07 4.80255 6.01876 0
M  V30 16690 C 2977.8 3.64202 6.65911 0
M  V30 16691 O 2978.01 2.60694 5.64732 0
M  V30 16692 C 2979.2 3.93473 7.1943 0
M  V30 16693 O 2979.59 3.02071 8.21205 0
M  V30 16694 C 2980.08 3.73047 5.97036 0
M  V30 16695 C 2979.37 2.58828 5.25741 0
M  V30 16696 N 2979.42 2.68068 3.77503 0
M  V30 16697 C 2979.34 3.79715 2.96723 0
M  V30 16698 N 2979.42 3.5377 1.68852 0
M  V30 16699 C 2979.56 2.15054 1.63254 0
M  V30 16700 C 2979.69 1.28964 0.518571 0
M  V30 16701 O 2979.71 1.56826 -0.679156 0
M  V30 16702 N 2979.81 -0.0538097 0.918425 0
M  V30 16703 C 2979.81 -0.494275 2.22578 0
M  V30 16704 N 2979.94 -1.81086 2.40434 0
M  V30 16705 N 2979.68 0.313645 3.27502 0
M  V30 16706 C 2979.56 1.61829 2.91033 0
M  V30 16707 H 2976.58 5.40332 6.79951 0
M  V30 16708 H 2976.31 4.41613 5.32378 0
M  V30 16709 H 2977.18 3.26331 7.47797 0
M  V30 16710 H 2979.84 1.63422 5.56814 0
M  V30 16711 H 2980.11 4.63374 5.34244 0
M  V30 16712 H 2981.11 3.44728 6.25838 0
M  V30 16713 H 2979.27 4.96652 7.57263 0
M  V30 16714 H 2979.22 4.80617 3.3614 0
M  V30 16715 H 2979.91 -0.742702 0.199384 0
M  V30 16716 H 2979.94 -2.20598 3.35588 0
M  V30 16717 H 2980.04 -2.43518 1.58945 0
M  V30 16718 P 2981.14 2.75334 8.47391 0
M  V30 16719 O 2981.36 2.44571 9.90142 0
M  V30 16720 O 2981.93 3.87688 7.92115 0
M  V30 16721 O 2981.39 1.4459 7.59357 0
M  V30 16722 C 2980.45 0.347608 7.69215 0
M  V30 16723 C 2981.18 -0.96767 7.52806 0
M  V30 16724 O 2981.39 -1.21036 6.1011 0
M  V30 16725 C 2982.58 -1.04544 8.13308 0
M  V30 16726 O 2982.97 -2.38311 8.41922 0
M  V30 16727 C 2983.46 -0.491279 7.02284 0
M  V30 16728 C 2982.75 -0.996264 5.77469 0
M  V30 16729 N 2982.8 -0.0501916 4.62973 0
M  V30 16730 H 2979.96 0.374722 8.67691 0
M  V30 16731 H 2979.69 0.443485 6.90277 0
M  V30 16732 H 2980.56 -1.75537 7.96793 0
M  V30 16733 P 2984.52 -2.75334 8.47391 0
M  V30 16734 O 2984.74 -3.84128 9.44797 0
M  V30 16735 O 2985.31 -1.51947 8.68712 0
M  V30 16736 O 2984.77 -3.29363 6.99321 0
M  V30 16737 C 2983.83 -4.24011 6.4274 0
M  V30 16738 C 2984.56 -5.20775 5.52155 0
M  V30 16739 O 2984.77 -4.56534 4.22446 0
M  V30 16740 C 2985.96 -5.62629 5.96531 0
M  V30 16741 O 2986.35 -6.87667 5.41053 0
M  V30 16742 C 2986.84 -4.52537 5.39283 0
M  V30 16743 C 2986.13 -4.20027 4.08623 0
M  V30 16744 N 2986.18 -2.76189 3.71603 0
M  V30 16745 H 2983.34 -4.797 7.24003 0
M  V30 16746 H 2983.07 -3.69856 5.84513 0
M  V30 16747 H 2983.94 -6.10356 5.41441 0
M  V30 16748 P 2987.9 -7.20834 5.23717 0
M  V30 16749 O 2988.12 -8.66104 5.38572 0
M  V30 16750 O 2988.69 -6.33544 6.1349 0
M  V30 16751 O 2988.15 -6.7751 3.72168 0
M  V30 16752 C 2987.21 -7.20825 2.7076 0
M  V30 16753 C 2987.94 -7.45864 1.40599 0
M  V30 16754 O 2988.15 -6.17651 0.734225 0
M  V30 16755 C 2989.34 -8.05808 1.51899 0
M  V30 16756 O 2989.73 -8.74358 0.335205 0
M  V30 16757 C 2990.22 -6.83093 1.70294 0
M  V30 16758 C 2989.51 -5.79992 0.836974 0
M  V30 16759 N 2989.56 -4.41864 1.38293 0
M  V30 16760 H 2986.72 -8.13644 3.0377 0
M  V30 16761 H 2986.45 -6.42788 2.55485 0
M  V30 16762 H 2987.32 -8.12039 0.792769 0
M  V30 16763 P 2991.28 -8.91 9.49989e-11 0
M  V30 16764 O 2991.5 -10.1726 -0.733694 0
M  V30 16765 O 2992.07 -8.73148 1.23936 0
M  V30 16766 O 2991.53 -7.66872 -0.971405 0
M  V30 16767 C 2990.59 -7.42309 -2.04641 0
M  V30 16768 C 2991.32 -6.86059 -3.24661 0
M  V30 16769 O 2991.53 -5.42847 -3.03646 0
M  V30 16770 C 2992.72 -7.41196 -3.50753 0
M  V30 16771 O 2993.11 -7.27073 -4.86816 0
M  V30 16772 C 2993.6 -6.5273 -2.63741 0
M  V30 16773 C 2992.89 -5.1842 -2.73198 0
M  V30 16774 N 2992.94 -4.38762 -1.4784 0
M  V30 16775 H 2990.1 -8.36803 -2.32493 0
M  V30 16776 H 2989.83 -6.70197 -1.71129 0
M  V30 16777 H 2990.7 -7.03551 -4.13168 0
M  V30 16778 P 2994.66 -7.20834 -5.23717 0
M  V30 16779 O 2994.88 -7.79853 -6.57286 0
M  V30 16780 O 2995.45 -7.79239 -4.12957 0
M  V30 16781 O 2994.91 -5.63315 -5.29344 0
M  V30 16782 C 2993.97 -4.80255 -6.01876 0
M  V30 16783 C 2994.7 -3.64202 -6.65911 0
M  V30 16784 O 2994.91 -2.60694 -5.64732 0
M  V30 16785 C 2996.1 -3.93473 -7.1943 0
M  V30 16786 O 2996.49 -3.02071 -8.21205 0
M  V30 16787 C 2996.98 -3.73047 -5.97036 0
M  V30 16788 C 2996.27 -2.58828 -5.25741 0
M  V30 16789 N 2996.32 -2.68068 -3.77503 0
M  V30 16790 H 2993.48 -5.40332 -6.79951 0
M  V30 16791 H 2993.21 -4.41613 -5.32378 0
M  V30 16792 H 2994.08 -3.26331 -7.47797 0
M  V30 16793 P 2998.04 -2.75334 -8.47391 0
M  V30 16794 O 2998.26 -2.44619 -9.90336 0
M  V30 16795 O 2998.83 -3.87776 -7.92294 0
M  V30 16796 O 2998.29 -1.4459 -7.59357 0
M  V30 16797 C 2997.35 -0.347653 -7.69315 0
M  V30 16798 C 2998.08 0.96767 -7.52806 0
M  V30 16799 O 2998.29 1.21055 -6.10208 0
M  V30 16800 C 2999.48 1.04557 -8.13408 0
M  V30 16801 O 2999.87 2.38311 -8.41922 0
M  V30 16802 C 3000.36 0.491279 -7.02284 0
M  V30 16803 C 2999.65 0.996264 -5.77469 0
M  V30 16804 N 2999.7 0.0501916 -4.62973 0
M  V30 16805 H 2996.86 -0.374765 -8.67791 0
M  V30 16806 H 2996.59 -0.443613 -6.90476 0
M  V30 16807 H 2997.46 1.75559 -7.96891 0
M  V30 16808 H 3000.12 1.94563 -5.46818 0
M  V30 16809 H 3000.4 -0.608651 -7.04676 0
M  V30 16810 H 3001.39 0.889796 -7.09039 0
M  V30 16811 H 2999.55 0.433128 -9.04664 0
M  V30 16812 P 3001.42 2.75334 -8.47391 0
M  V30 16813 O 3001.64 3.84128 -9.44797 0
M  V30 16814 O 3002.21 1.51947 -8.68712 0
M  V30 16815 O 3001.67 3.29363 -6.99321 0
M  V30 16816 C 3000.73 4.24011 -6.4274 0
M  V30 16817 C 3001.46 5.20775 -5.52155 0
M  V30 16818 O 3001.67 4.56534 -4.22446 0
M  V30 16819 C 3002.86 5.62629 -5.96531 0
M  V30 16820 O 3003.25 6.87667 -5.41053 0
M  V30 16821 C 3003.74 4.52537 -5.39283 0
M  V30 16822 C 3003.03 4.20027 -4.08623 0
M  V30 16823 N 3003.08 2.76189 -3.71603 0
M  V30 16824 H 3000.24 4.797 -7.24003 0
M  V30 16825 H 2999.97 3.69856 -5.84513 0
M  V30 16826 H 3000.84 6.10356 -5.41441 0
M  V30 16827 P 3004.8 7.20834 -5.23717 0
M  V30 16828 O 3005.02 8.66104 -5.38572 0
M  V30 16829 O 3005.59 6.33544 -6.1349 0
M  V30 16830 O 3005.05 6.7751 -3.72168 0
M  V30 16831 C 3004.11 7.20825 -2.7076 0
M  V30 16832 C 3004.84 7.45864 -1.40599 0
M  V30 16833 O 3005.05 6.17651 -0.734225 0
M  V30 16834 C 3006.24 8.05808 -1.51899 0
M  V30 16835 O 3006.63 8.74358 -0.335205 0
M  V30 16836 C 3007.12 6.83093 -1.70294 0
M  V30 16837 C 3006.41 5.79992 -0.836974 0
M  V30 16838 N 3006.46 4.41864 -1.38293 0
M  V30 16839 H 3003.62 8.13644 -3.0377 0
M  V30 16840 H 3003.35 6.42788 -2.55485 0
M  V30 16841 H 3004.22 8.12039 -0.792769 0
M  V30 16842 P 3008.18 8.91 -9.61079e-11 0
M  V30 16843 O 3008.4 10.1726 0.733694 0
M  V30 16844 O 3008.97 8.73148 -1.23936 0
M  V30 16845 O 3008.43 7.66872 0.971405 0
M  V30 16846 C 3007.49 7.42309 2.04641 0
M  V30 16847 C 3008.22 6.86059 3.24661 0
M  V30 16848 O 3008.43 5.42847 3.03646 0
M  V30 16849 C 3009.62 7.41196 3.50753 0
M  V30 16850 O 3010.01 7.27073 4.86816 0
M  V30 16851 C 3010.5 6.5273 2.63741 0
M  V30 16852 C 3009.79 5.1842 2.73198 0
M  V30 16853 N 3009.84 4.38762 1.4784 0
M  V30 16854 H 3007 8.36803 2.32493 0
M  V30 16855 H 3006.73 6.70197 1.71129 0
M  V30 16856 H 3007.6 7.03551 4.13168 0
M  V30 16857 P 3011.56 7.20834 5.23717 0
M  V30 16858 O 3011.78 7.7993 6.57351 0
M  V30 16859 O 3012.35 7.79328 4.13004 0
M  V30 16860 O 3011.81 5.63315 5.29344 0
M  V30 16861 C 3010.87 4.80193 6.01798 0
M  V30 16862 C 3011.6 3.64202 6.65911 0
M  V30 16863 O 3011.81 2.60694 5.64732 0
M  V30 16864 C 3013 3.93473 7.1943 0
M  V30 16865 O 3013.39 3.02071 8.21205 0
M  V30 16866 C 3013.88 3.73047 5.97036 0
M  V30 16867 C 3013.17 2.58828 5.25741 0
M  V30 16868 N 3013.22 2.6801 3.77422 0
M  V30 16869 C 3013.37 1.50443 3.07133 0
M  V30 16870 O 3013.46 0.419406 3.61576 0
M  V30 16871 N 3013.41 1.6403 1.69677 0
M  V30 16872 C 3013.32 2.81206 0.986255 0
M  V30 16873 C 3013.17 3.99158 1.80325 0
M  V30 16874 C 3013.12 3.89779 3.1476 0
M  V30 16875 H 3010.38 5.40332 6.79951 0
M  V30 16876 H 3010.11 4.41549 5.32301 0
M  V30 16877 H 3010.98 3.26331 7.47797 0
M  V30 16878 H 3013.64 1.6395 5.56554 0
M  V30 16879 H 3013.91 4.63439 5.3432 0
M  V30 16880 H 3014.91 3.44728 6.25838 0
M  V30 16881 H 3013.07 4.96652 7.57263 0
M  V30 16882 H 3013 4.80159 3.74441 0
M  V30 16883 P 3014.94 2.75334 8.47391 0
M  V30 16884 O 3015.16 2.44571 9.90142 0
M  V30 16885 O 3015.73 3.87688 7.92115 0
M  V30 16886 O 3015.19 1.4459 7.59357 0
M  V30 16887 C 3014.25 0.347608 7.69215 0
M  V30 16888 C 3014.98 -0.96767 7.52806 0
M  V30 16889 O 3015.19 -1.21036 6.1011 0
M  V30 16890 C 3016.38 -1.04544 8.13308 0
M  V30 16891 O 3016.77 -2.38311 8.41922 0
M  V30 16892 C 3017.26 -0.491279 7.02284 0
M  V30 16893 C 3016.55 -0.996264 5.77469 0
M  V30 16894 N 3016.6 -0.0501916 4.62973 0
M  V30 16895 H 3013.76 0.374722 8.67691 0
M  V30 16896 H 3013.49 0.443485 6.90277 0
M  V30 16897 H 3014.36 -1.75537 7.96793 0
M  V30 16898 P 3018.32 -2.75334 8.47391 0
M  V30 16899 O 3018.54 -3.84128 9.44797 0
M  V30 16900 O 3019.11 -1.51947 8.68712 0
M  V30 16901 O 3018.57 -3.29363 6.99321 0
M  V30 16902 C 3017.63 -4.24011 6.4274 0
M  V30 16903 C 3018.36 -5.20775 5.52155 0
M  V30 16904 O 3018.57 -4.56534 4.22446 0
M  V30 16905 C 3019.76 -5.62629 5.96531 0
M  V30 16906 O 3020.15 -6.87667 5.41053 0
M  V30 16907 C 3020.64 -4.52537 5.39283 0
M  V30 16908 C 3019.93 -4.20027 4.08623 0
M  V30 16909 N 3019.98 -2.76189 3.71603 0
M  V30 16910 H 3017.14 -4.797 7.24003 0
M  V30 16911 H 3016.87 -3.69856 5.84513 0
M  V30 16912 H 3017.74 -6.10356 5.41441 0
M  V30 16913 P 3021.7 -7.20834 5.23717 0
M  V30 16914 O 3021.92 -8.66104 5.38572 0
M  V30 16915 O 3022.49 -6.33544 6.1349 0
M  V30 16916 O 3021.95 -6.7751 3.72168 0
M  V30 16917 C 3021.01 -7.20825 2.7076 0
M  V30 16918 C 3021.74 -7.45864 1.40599 0
M  V30 16919 O 3021.95 -6.17651 0.734225 0
M  V30 16920 C 3023.14 -8.05808 1.51899 0
M  V30 16921 O 3023.53 -8.74358 0.335205 0
M  V30 16922 C 3024.02 -6.83093 1.70294 0
M  V30 16923 C 3023.31 -5.79992 0.836974 0
M  V30 16924 N 3023.36 -4.41864 1.38293 0
M  V30 16925 H 3020.52 -8.13644 3.0377 0
M  V30 16926 H 3020.25 -6.42788 2.55485 0
M  V30 16927 H 3021.12 -8.12039 0.792769 0
M  V30 16928 P 3025.08 -8.91 9.72169e-11 0
M  V30 16929 O 3025.3 -10.1726 -0.733694 0
M  V30 16930 O 3025.87 -8.73148 1.23936 0
M  V30 16931 O 3025.33 -7.66872 -0.971405 0
M  V30 16932 C 3024.39 -7.42309 -2.04641 0
M  V30 16933 C 3025.12 -6.86059 -3.24661 0
M  V30 16934 O 3025.33 -5.42847 -3.03646 0
M  V30 16935 C 3026.52 -7.41196 -3.50753 0
M  V30 16936 O 3026.91 -7.27073 -4.86816 0
M  V30 16937 C 3027.4 -6.5273 -2.63741 0
M  V30 16938 C 3026.69 -5.1842 -2.73198 0
M  V30 16939 N 3026.74 -4.38762 -1.4784 0
M  V30 16940 H 3023.9 -8.36803 -2.32493 0
M  V30 16941 H 3023.63 -6.70197 -1.71129 0
M  V30 16942 H 3024.5 -7.03551 -4.13168 0
M  V30 16943 P 3028.46 -7.20834 -5.23717 0
M  V30 16944 O 3028.68 -7.79853 -6.57286 0
M  V30 16945 O 3029.25 -7.79239 -4.12957 0
M  V30 16946 O 3028.71 -5.63315 -5.29344 0
M  V30 16947 C 3027.77 -4.80255 -6.01876 0
M  V30 16948 C 3028.5 -3.64202 -6.65911 0
M  V30 16949 O 3028.71 -2.60694 -5.64732 0
M  V30 16950 C 3029.9 -3.93473 -7.1943 0
M  V30 16951 O 3030.29 -3.02071 -8.21205 0
M  V30 16952 C 3030.78 -3.73047 -5.97036 0
M  V30 16953 C 3030.07 -2.58828 -5.25741 0
M  V30 16954 N 3030.12 -2.68068 -3.77503 0
M  V30 16955 C 3030.04 -3.79715 -2.96723 0
M  V30 16956 N 3030.12 -3.5377 -1.68852 0
M  V30 16957 C 3030.26 -2.15054 -1.63254 0
M  V30 16958 C 3030.39 -1.28964 -0.518571 0
M  V30 16959 O 3030.41 -1.56826 0.679156 0
M  V30 16960 N 3030.51 0.0538097 -0.918425 0
M  V30 16961 C 3030.51 0.494275 -2.22578 0
M  V30 16962 N 3030.64 1.81086 -2.40434 0
M  V30 16963 N 3030.38 -0.313645 -3.27502 0
M  V30 16964 C 3030.26 -1.61829 -2.91033 0
M  V30 16965 H 3027.28 -5.40332 -6.79951 0
M  V30 16966 H 3027.01 -4.41613 -5.32378 0
M  V30 16967 H 3027.88 -3.26331 -7.47797 0
M  V30 16968 H 3030.54 -1.63422 -5.56814 0
M  V30 16969 H 3030.81 -4.63374 -5.34244 0
M  V30 16970 H 3031.81 -3.44728 -6.25838 0
M  V30 16971 H 3029.97 -4.96652 -7.57263 0
M  V30 16972 H 3029.92 -4.80617 -3.3614 0
M  V30 16973 H 3030.61 0.742702 -0.199384 0
M  V30 16974 H 3030.64 2.20598 -3.35588 0
M  V30 16975 H 3030.74 2.43518 -1.58945 0
M  V30 16976 P 3031.84 -2.75334 -8.47391 0
M  V30 16977 O 3032.06 -2.44595 -9.90239 0
M  V30 16978 O 3032.63 -3.87732 -7.92204 0
M  V30 16979 O 3032.09 -1.4459 -7.59357 0
M  V30 16980 C 3031.15 -0.347563 -7.69115 0
M  V30 16981 C 3031.88 0.96767 -7.52806 0
M  V30 16982 O 3032.09 1.21036 -6.1011 0
M  V30 16983 C 3033.28 1.04544 -8.13308 0
M  V30 16984 O 3033.67 2.38311 -8.41922 0
M  V30 16985 C 3034.16 0.491279 -7.02284 0
M  V30 16986 C 3033.45 0.996264 -5.77469 0
M  V30 16987 N 3033.5 0.0501808 -4.62873 0
M  V30 16988 C 3033.65 0.588177 -3.36904 0
M  V30 16989 O 3033.74 1.78598 -3.17173 0
M  V30 16990 N 3033.69 -0.329694 -2.33686 0
M  V30 16991 C 3033.6 -1.6953 -2.45079 0
M  V30 16992 O 3033.65 -2.41926 -1.44899 0
M  V30 16993 C 3033.45 -2.16933 -3.80505 0
M  V30 16994 C 3033.34 -3.65373 -3.97621 0
M  V30 16995 C 3033.4 -1.30326 -4.83752 0
M  V30 16996 H 3030.66 -0.374722 -8.67691 0
M  V30 16997 H 3030.39 -0.443421 -6.90177 0
M  V30 16998 H 3031.26 1.75537 -7.96793 0
M  V30 16999 H 3033.92 1.94496 -5.46629 0
M  V30 17000 H 3034.19 -0.608651 -7.04676 0
M  V30 17001 H 3035.19 0.889672 -7.08939 0
M  V30 17002 H 3033.35 0.43308 -9.04564 0
M  V30 17003 H 3033.28 -1.68366 -5.8516 0
M  V30 17004 H 3034.31 -4.05985 -4.30448 0
M  V30 17005 H 3032.57 -3.88028 -4.72875 0
M  V30 17006 H 3033.06 -4.11381 -3.01609 0
M  V30 17007 H 3033.8 0.0393617 -1.41345 0
M  V30 17008 P 3035.22 2.75334 -8.47391 0
M  V30 17009 O 3035.44 3.84128 -9.44797 0
M  V30 17010 O 3036.01 1.51947 -8.68712 0
M  V30 17011 O 3035.47 3.29363 -6.99321 0
M  V30 17012 C 3034.53 4.24011 -6.4274 0
M  V30 17013 C 3035.26 5.20775 -5.52155 0
M  V30 17014 O 3035.47 4.56534 -4.22446 0
M  V30 17015 C 3036.66 5.62629 -5.96531 0
M  V30 17016 O 3037.05 6.87667 -5.41053 0
M  V30 17017 C 3037.54 4.52537 -5.39283 0
M  V30 17018 C 3036.83 4.20027 -4.08623 0
M  V30 17019 N 3036.88 2.76189 -3.71603 0
M  V30 17020 H 3034.04 4.797 -7.24003 0
M  V30 17021 H 3033.77 3.69856 -5.84513 0
M  V30 17022 H 3034.64 6.10356 -5.41441 0
M  V30 17023 P 3038.6 7.20834 -5.23717 0
M  V30 17024 O 3038.82 8.66104 -5.38572 0
M  V30 17025 O 3039.39 6.33544 -6.1349 0
M  V30 17026 O 3038.85 6.7751 -3.72168 0
M  V30 17027 C 3037.91 7.20825 -2.7076 0
M  V30 17028 C 3038.64 7.45864 -1.40599 0
M  V30 17029 O 3038.85 6.17651 -0.734225 0
M  V30 17030 C 3040.04 8.05808 -1.51899 0
M  V30 17031 O 3040.43 8.74358 -0.335205 0
M  V30 17032 C 3040.92 6.83093 -1.70294 0
M  V30 17033 C 3040.21 5.79992 -0.836974 0
M  V30 17034 N 3040.26 4.41864 -1.38293 0
M  V30 17035 H 3037.42 8.13644 -3.0377 0
M  V30 17036 H 3037.15 6.42788 -2.55485 0
M  V30 17037 H 3038.02 8.12039 -0.792769 0
M  V30 17038 P 3041.98 8.91 -9.83259e-11 0
M  V30 17039 O 3042.2 10.1726 0.733694 0
M  V30 17040 O 3042.77 8.73148 -1.23936 0
M  V30 17041 O 3042.23 7.66872 0.971405 0
M  V30 17042 C 3041.29 7.42309 2.04641 0
M  V30 17043 C 3042.02 6.86059 3.24661 0
M  V30 17044 O 3042.23 5.42847 3.03646 0
M  V30 17045 C 3043.42 7.41196 3.50753 0
M  V30 17046 O 3043.81 7.27073 4.86816 0
M  V30 17047 C 3044.3 6.5273 2.63741 0
M  V30 17048 C 3043.59 5.1842 2.73198 0
M  V30 17049 N 3043.64 4.38762 1.4784 0
M  V30 17050 H 3040.8 8.36803 2.32493 0
M  V30 17051 H 3040.53 6.70197 1.71129 0
M  V30 17052 H 3041.4 7.03551 4.13168 0
M  V30 17053 P 3045.36 7.20834 5.23717 0
M  V30 17054 O 3045.58 7.79853 6.57286 0
M  V30 17055 O 3046.15 7.79239 4.12957 0
M  V30 17056 O 3045.61 5.63315 5.29344 0
M  V30 17057 C 3044.67 4.80255 6.01876 0
M  V30 17058 C 3045.4 3.64202 6.65911 0
M  V30 17059 O 3045.61 2.60694 5.64732 0
M  V30 17060 C 3046.8 3.93473 7.1943 0
M  V30 17061 O 3047.19 3.02071 8.21205 0
M  V30 17062 C 3047.68 3.73047 5.97036 0
M  V30 17063 C 3046.97 2.58828 5.25741 0
M  V30 17064 N 3047.02 2.68068 3.77503 0
M  V30 17065 H 3044.18 5.40332 6.79951 0
M  V30 17066 H 3043.91 4.41613 5.32378 0
M  V30 17067 H 3044.78 3.26331 7.47797 0
M  V30 17068 P 3048.74 2.75334 8.47391 0
M  V30 17069 O 3048.96 2.44619 9.90336 0
M  V30 17070 O 3049.53 3.87776 7.92294 0
M  V30 17071 O 3048.99 1.4459 7.59357 0
M  V30 17072 C 3048.05 0.347653 7.69315 0
M  V30 17073 C 3048.78 -0.96767 7.52806 0
M  V30 17074 O 3048.99 -1.21055 6.10208 0
M  V30 17075 C 3050.18 -1.04557 8.13408 0
M  V30 17076 O 3050.57 -2.38311 8.41922 0
M  V30 17077 C 3051.06 -0.491279 7.02284 0
M  V30 17078 C 3050.35 -0.996264 5.77469 0
M  V30 17079 N 3050.4 -0.0501916 4.62973 0
M  V30 17080 C 3050.32 1.31969 4.65661 0
M  V30 17081 N 3050.39 1.86649 3.48119 0
M  V30 17082 C 3050.54 0.792089 2.62406 0
M  V30 17083 C 3050.67 0.705684 1.2207 0
M  V30 17084 N 3050.68 1.76207 0.413762 0
M  V30 17085 N 3050.79 -0.518981 0.685754 0
M  V30 17086 C 3050.78 -1.57595 1.49174 0
M  V30 17087 N 3050.66 -1.62909 2.80066 0
M  V30 17088 C 3050.54 -0.388195 3.3073 0
M  V30 17089 H 3047.56 0.374765 8.67791 0
M  V30 17090 H 3047.29 0.443613 6.90476 0
M  V30 17091 H 3048.16 -1.75559 7.96891 0
M  V30 17092 H 3050.81 -1.94563 5.46818 0
M  V30 17093 H 3051.09 0.608651 7.04676 0
M  V30 17094 H 3052.09 -0.889796 7.09039 0
M  V30 17095 H 3050.25 -0.433128 9.04664 0
M  V30 17096 H 3050.21 1.89246 5.57664 0
M  V30 17097 H 3050.59 2.71005 0.804694 0
M  V30 17098 H 3050.78 1.63189 -0.603768 0
M  V30 17099 H 3050.89 -2.53475 0.997614 0
M  V30 17100 P 3052.12 -2.75334 8.47391 0
M  V30 17101 O 3052.34 -3.84128 9.44797 0
M  V30 17102 O 3052.91 -1.51947 8.68712 0
M  V30 17103 O 3052.37 -3.29363 6.99321 0
M  V30 17104 C 3051.43 -4.24011 6.4274 0
M  V30 17105 C 3052.16 -5.20775 5.52155 0
M  V30 17106 O 3052.37 -4.56534 4.22446 0
M  V30 17107 C 3053.56 -5.62629 5.96531 0
M  V30 17108 O 3053.95 -6.87667 5.41053 0
M  V30 17109 C 3054.44 -4.52537 5.39283 0
M  V30 17110 C 3053.73 -4.20027 4.08623 0
M  V30 17111 N 3053.78 -2.76189 3.71603 0
M  V30 17112 H 3050.94 -4.797 7.24003 0
M  V30 17113 H 3050.67 -3.69856 5.84513 0
M  V30 17114 H 3051.54 -6.10356 5.41441 0
M  V30 17115 P 3055.5 -7.20834 5.23717 0
M  V30 17116 O 3055.72 -8.66104 5.38572 0
M  V30 17117 O 3056.29 -6.33544 6.1349 0
M  V30 17118 O 3055.75 -6.7751 3.72168 0
M  V30 17119 C 3054.81 -7.20825 2.7076 0
M  V30 17120 C 3055.54 -7.45864 1.40599 0
M  V30 17121 O 3055.75 -6.17651 0.734225 0
M  V30 17122 C 3056.94 -8.05808 1.51899 0
M  V30 17123 O 3057.33 -8.74358 0.335205 0
M  V30 17124 C 3057.82 -6.83093 1.70294 0
M  V30 17125 C 3057.11 -5.79992 0.836974 0
M  V30 17126 N 3057.16 -4.41864 1.38293 0
M  V30 17127 H 3054.32 -8.13644 3.0377 0
M  V30 17128 H 3054.05 -6.42788 2.55485 0
M  V30 17129 H 3054.92 -8.12039 0.792769 0
M  V30 17130 P 3058.88 -8.91 9.94349e-11 0
M  V30 17131 O 3059.1 -10.1726 -0.733694 0
M  V30 17132 O 3059.67 -8.73148 1.23936 0
M  V30 17133 O 3059.13 -7.66872 -0.971405 0
M  V30 17134 C 3058.19 -7.42309 -2.04641 0
M  V30 17135 C 3058.92 -6.86059 -3.24661 0
M  V30 17136 O 3059.13 -5.42847 -3.03646 0
M  V30 17137 C 3060.32 -7.41196 -3.50753 0
M  V30 17138 O 3060.71 -7.27073 -4.86816 0
M  V30 17139 C 3061.2 -6.5273 -2.63741 0
M  V30 17140 C 3060.49 -5.1842 -2.73198 0
M  V30 17141 N 3060.54 -4.38762 -1.4784 0
M  V30 17142 H 3057.7 -8.36803 -2.32493 0
M  V30 17143 H 3057.43 -6.70197 -1.71129 0
M  V30 17144 H 3058.3 -7.03551 -4.13168 0
M  V30 17145 P 3062.26 -7.20834 -5.23717 0
M  V30 17146 O 3062.48 -7.7993 -6.57351 0
M  V30 17147 O 3063.05 -7.79328 -4.13004 0
M  V30 17148 O 3062.51 -5.63315 -5.29344 0
M  V30 17149 C 3061.57 -4.80193 -6.01798 0
M  V30 17150 C 3062.3 -3.64202 -6.65911 0
M  V30 17151 O 3062.51 -2.60694 -5.64732 0
M  V30 17152 C 3063.7 -3.93473 -7.1943 0
M  V30 17153 O 3064.09 -3.02071 -8.21205 0
M  V30 17154 C 3064.58 -3.73047 -5.97036 0
M  V30 17155 C 3063.87 -2.58828 -5.25741 0
M  V30 17156 N 3063.92 -2.6801 -3.77422 0
M  V30 17157 C 3064.07 -1.50443 -3.07133 0
M  V30 17158 O 3064.16 -0.419406 -3.61576 0
M  V30 17159 N 3064.11 -1.6403 -1.69677 0
M  V30 17160 C 3064.02 -2.81206 -0.986255 0
M  V30 17161 C 3063.87 -3.99158 -1.80325 0
M  V30 17162 C 3063.82 -3.89779 -3.1476 0
M  V30 17163 H 3061.08 -5.40332 -6.79951 0
M  V30 17164 H 3060.81 -4.41549 -5.32301 0
M  V30 17165 H 3061.68 -3.26331 -7.47797 0
M  V30 17166 H 3064.33 -1.6395 -5.56554 0
M  V30 17167 H 3064.61 -4.63439 -5.3432 0
M  V30 17168 H 3065.61 -3.44728 -6.25838 0
M  V30 17169 H 3063.77 -4.96652 -7.57263 0
M  V30 17170 H 3063.7 -4.80159 -3.74441 0
M  V30 17171 P 3065.64 -2.75334 -8.47391 0
M  V30 17172 O 3065.86 -2.44571 -9.90142 0
M  V30 17173 O 3066.43 -3.87688 -7.92115 0
M  V30 17174 O 3065.89 -1.4459 -7.59357 0
M  V30 17175 C 3064.95 -0.347608 -7.69215 0
M  V30 17176 C 3065.68 0.96767 -7.52806 0
M  V30 17177 O 3065.89 1.21036 -6.1011 0
M  V30 17178 C 3067.08 1.04544 -8.13308 0
M  V30 17179 O 3067.47 2.38311 -8.41922 0
M  V30 17180 C 3067.96 0.491279 -7.02284 0
M  V30 17181 C 3067.25 0.996264 -5.77469 0
M  V30 17182 N 3067.3 0.0501916 -4.62973 0
M  V30 17183 H 3064.46 -0.374722 -8.67691 0
M  V30 17184 H 3064.19 -0.443485 -6.90277 0
M  V30 17185 H 3065.06 1.75537 -7.96793 0
M  V30 17186 P 3069.02 2.75334 -8.47391 0
M  V30 17187 O 3069.24 3.84128 -9.44797 0
M  V30 17188 O 3069.81 1.51947 -8.68712 0
M  V30 17189 O 3069.27 3.29363 -6.99321 0
M  V30 17190 C 3068.33 4.24011 -6.4274 0
M  V30 17191 C 3069.06 5.20775 -5.52155 0
M  V30 17192 O 3069.27 4.56534 -4.22446 0
M  V30 17193 C 3070.46 5.62629 -5.96531 0
M  V30 17194 O 3070.85 6.87667 -5.41053 0
M  V30 17195 C 3071.34 4.52537 -5.39283 0
M  V30 17196 C 3070.63 4.20027 -4.08623 0
M  V30 17197 N 3070.68 2.76189 -3.71603 0
M  V30 17198 H 3067.84 4.797 -7.24003 0
M  V30 17199 H 3067.57 3.69856 -5.84513 0
M  V30 17200 H 3068.44 6.10356 -5.41441 0
M  V30 17201 P 3072.4 7.20834 -5.23717 0
M  V30 17202 O 3072.62 8.66104 -5.38572 0
M  V30 17203 O 3073.19 6.33544 -6.1349 0
M  V30 17204 O 3072.65 6.7751 -3.72168 0
M  V30 17205 C 3071.71 7.20825 -2.7076 0
M  V30 17206 C 3072.44 7.45864 -1.40599 0
M  V30 17207 O 3072.65 6.17651 -0.734225 0
M  V30 17208 C 3073.84 8.05808 -1.51899 0
M  V30 17209 O 3074.23 8.74358 -0.335205 0
M  V30 17210 C 3074.72 6.83093 -1.70294 0
M  V30 17211 C 3074.01 5.79992 -0.836974 0
M  V30 17212 N 3074.06 4.41864 -1.38293 0
M  V30 17213 H 3071.22 8.13644 -3.0377 0
M  V30 17214 H 3070.95 6.42788 -2.55485 0
M  V30 17215 H 3071.82 8.12039 -0.792769 0
M  V30 17216 P 3075.78 8.91 -1.00544e-10 0
M  V30 17217 O 3076 10.1726 0.733694 0
M  V30 17218 O 3076.57 8.73148 -1.23936 0
M  V30 17219 O 3076.03 7.66872 0.971405 0
M  V30 17220 C 3075.09 7.42309 2.04641 0
M  V30 17221 C 3075.82 6.86059 3.24661 0
M  V30 17222 O 3076.03 5.42847 3.03646 0
M  V30 17223 C 3077.22 7.41196 3.50753 0
M  V30 17224 O 3077.61 7.27073 4.86816 0
M  V30 17225 C 3078.1 6.5273 2.63741 0
M  V30 17226 C 3077.39 5.1842 2.73198 0
M  V30 17227 N 3077.44 4.38762 1.4784 0
M  V30 17228 C 3077.36 4.81605 0.168631 0
M  V30 17229 N 3077.44 3.85454 -0.713363 0
M  V30 17230 C 3077.58 2.6994 0.0566958 0
M  V30 17231 C 3077.71 1.34815 -0.338502 0
M  V30 17232 O 3077.73 0.869548 -1.47125 0
M  V30 17233 N 3077.83 0.496304 0.77465 0
M  V30 17234 C 3077.83 0.908403 2.09122 0
M  V30 17235 N 3077.96 -0.0517805 3.00955 0
M  V30 17236 N 3077.7 2.17875 2.46519 0
M  V30 17237 C 3077.58 3.01988 1.4033 0
M  V30 17238 H 3074.6 8.36803 2.32493 0
M  V30 17239 H 3074.33 6.70197 1.71129 0
M  V30 17240 H 3075.2 7.03551 4.13168 0
M  V30 17241 H 3077.85 4.59498 3.54415 0
M  V30 17242 H 3078.13 6.88898 1.59848 0
M  V30 17243 H 3079.13 6.46749 3.03687 0
M  V30 17244 H 3077.29 8.46908 3.20714 0
M  V30 17245 H 3077.24 5.86405 -0.105564 0
M  V30 17246 H 3077.92 -0.483664 0.597855 0
M  V30 17247 H 3077.96 0.187865 4.0116 0
M  V30 17248 H 3078.06 -1.03585 2.71726 0
M  V30 17249 P 3079.16 7.20834 5.23717 0
M  V30 17250 O 3079.38 7.79853 6.57286 0
M  V30 17251 O 3079.95 7.79239 4.12957 0
M  V30 17252 O 3079.41 5.63315 5.29344 0
M  V30 17253 C 3078.47 4.80255 6.01876 0
M  V30 17254 C 3079.2 3.64202 6.65911 0
M  V30 17255 O 3079.41 2.60694 5.64732 0
M  V30 17256 C 3080.6 3.93473 7.1943 0
M  V30 17257 O 3080.99 3.02071 8.21205 0
M  V30 17258 C 3081.48 3.73047 5.97036 0
M  V30 17259 C 3080.77 2.58828 5.25741 0
M  V30 17260 N 3080.82 2.68068 3.77503 0
M  V30 17261 H 3077.98 5.40332 6.79951 0
M  V30 17262 H 3077.71 4.41613 5.32378 0
M  V30 17263 H 3078.58 3.26331 7.47797 0
M  V30 17264 P 3082.54 2.75334 8.47391 0
M  V30 17265 O 3082.76 2.44571 9.90142 0
M  V30 17266 O 3083.33 3.87688 7.92115 0
M  V30 17267 O 3082.79 1.4459 7.59357 0
M  V30 17268 C 3081.85 0.347608 7.69215 0
M  V30 17269 C 3082.58 -0.96767 7.52806 0
M  V30 17270 O 3082.79 -1.21036 6.1011 0
M  V30 17271 C 3083.98 -1.04544 8.13308 0
M  V30 17272 O 3084.37 -2.38311 8.41922 0
M  V30 17273 C 3084.86 -0.491279 7.02284 0
M  V30 17274 C 3084.15 -0.996264 5.77469 0
M  V30 17275 N 3084.2 -0.0501916 4.62973 0
M  V30 17276 H 3081.36 0.374722 8.67691 0
M  V30 17277 H 3081.09 0.443485 6.90277 0
M  V30 17278 H 3081.96 -1.75537 7.96793 0
M  V30 17279 P 3085.92 -2.75334 8.47391 0
M  V30 17280 O 3086.14 -3.84204 9.44982 0
M  V30 17281 O 3086.71 -1.51982 8.68909 0
M  V30 17282 O 3086.17 -3.29363 6.99321 0
M  V30 17283 C 3085.23 -4.24066 6.42823 0
M  V30 17284 C 3085.96 -5.20775 5.52155 0
M  V30 17285 O 3086.17 -4.56607 4.22514 0
M  V30 17286 C 3087.36 -5.62697 5.96604 0
M  V30 17287 O 3087.75 -6.87667 5.41053 0
M  V30 17288 C 3088.24 -4.52537 5.39283 0
M  V30 17289 C 3087.53 -4.20027 4.08623 0
M  V30 17290 N 3087.58 -2.76189 3.71603 0
M  V30 17291 C 3087.5 -1.66944 4.54297 0
M  V30 17292 N 3087.57 -0.536169 3.91344 0
M  V30 17293 C 3087.72 -0.901569 2.58849 0
M  V30 17294 C 3087.85 -0.146599 1.40236 0
M  V30 17295 N 3087.86 1.18234 1.37046 0
M  V30 17296 N 3087.97 -0.822941 0.249738 0
M  V30 17297 C 3087.96 -2.15179 0.280525 0
M  V30 17298 N 3087.84 -2.96414 1.30822 0
M  V30 17299 C 3087.72 -2.25804 2.44748 0
M  V30 17300 H 3084.74 -4.79756 7.24086 0
M  V30 17301 H 3084.47 -3.69963 5.84682 0
M  V30 17302 H 3085.34 -6.10431 5.41508 0
M  V30 17303 H 3087.99 -4.78816 3.28024 0
M  V30 17304 H 3088.27 -3.64957 6.05871 0
M  V30 17305 H 3089.27 -4.88748 5.21323 0
M  V30 17306 H 3087.43 -5.66789 7.0643 0
M  V30 17307 H 3087.39 -1.74684 5.62396 0
M  V30 17308 H 3087.77 1.71949 2.24394 0
M  V30 17309 H 3087.96 1.67511 0.470742 0
M  V30 17310 H 3088.07 -2.63704 -0.6828 0
M  V30 17311 P 3089.3 -7.20834 5.23717 0
M  V30 17312 O 3089.52 -8.66104 5.38572 0
M  V30 17313 O 3090.09 -6.33544 6.1349 0
M  V30 17314 O 3089.55 -6.7751 3.72168 0
M  V30 17315 C 3088.61 -7.20825 2.7076 0
M  V30 17316 C 3089.34 -7.45864 1.40599 0
M  V30 17317 O 3089.55 -6.17651 0.734225 0
M  V30 17318 C 3090.74 -8.05808 1.51899 0
M  V30 17319 O 3091.13 -8.74358 0.335205 0
M  V30 17320 C 3091.62 -6.83093 1.70294 0
M  V30 17321 C 3090.91 -5.79992 0.836974 0
M  V30 17322 N 3090.96 -4.41864 1.38293 0
M  V30 17323 H 3088.12 -8.13644 3.0377 0
M  V30 17324 H 3087.85 -6.42788 2.55485 0
M  V30 17325 H 3088.72 -8.12039 0.792769 0
M  V30 17326 P 3092.68 -8.91 1.01653e-10 0
M  V30 17327 O 3092.9 -10.1726 -0.733694 0
M  V30 17328 O 3093.47 -8.73148 1.23936 0
M  V30 17329 O 3092.93 -7.66872 -0.971405 0
M  V30 17330 C 3091.99 -7.42309 -2.04641 0
M  V30 17331 C 3092.72 -6.86059 -3.24661 0
M  V30 17332 O 3092.93 -5.42847 -3.03646 0
M  V30 17333 C 3094.12 -7.41196 -3.50753 0
M  V30 17334 O 3094.51 -7.27073 -4.86816 0
M  V30 17335 C 3095 -6.5273 -2.63741 0
M  V30 17336 C 3094.29 -5.1842 -2.73198 0
M  V30 17337 N 3094.34 -4.38762 -1.4784 0
M  V30 17338 H 3091.5 -8.36803 -2.32493 0
M  V30 17339 H 3091.23 -6.70197 -1.71129 0
M  V30 17340 H 3092.1 -7.03551 -4.13168 0
M  V30 17341 P 3096.06 -7.20834 -5.23717 0
M  V30 17342 O 3096.28 -7.79853 -6.57286 0
M  V30 17343 O 3096.85 -7.79239 -4.12957 0
M  V30 17344 O 3096.31 -5.63315 -5.29344 0
M  V30 17345 C 3095.37 -4.80255 -6.01876 0
M  V30 17346 C 3096.1 -3.64202 -6.65911 0
M  V30 17347 O 3096.31 -2.60694 -5.64732 0
M  V30 17348 C 3097.5 -3.93473 -7.1943 0
M  V30 17349 O 3097.89 -3.02071 -8.21205 0
M  V30 17350 C 3098.38 -3.73047 -5.97036 0
M  V30 17351 C 3097.67 -2.58828 -5.25741 0
M  V30 17352 N 3097.72 -2.68068 -3.77503 0
M  V30 17353 H 3094.88 -5.40332 -6.79951 0
M  V30 17354 H 3094.61 -4.41613 -5.32378 0
M  V30 17355 H 3095.48 -3.26331 -7.47797 0
M  V30 17356 P 3099.44 -2.75334 -8.47391 0
M  V30 17357 O 3099.66 -2.44571 -9.90142 0
M  V30 17358 O 3100.23 -3.87688 -7.92115 0
M  V30 17359 O 3099.69 -1.4459 -7.59357 0
M  V30 17360 C 3098.75 -0.347608 -7.69215 0
M  V30 17361 C 3099.48 0.96767 -7.52806 0
M  V30 17362 O 3099.69 1.21036 -6.1011 0
M  V30 17363 C 3100.88 1.04544 -8.13308 0
M  V30 17364 O 3101.27 2.38311 -8.41922 0
M  V30 17365 C 3101.76 0.491279 -7.02284 0
M  V30 17366 C 3101.05 0.996264 -5.77469 0
M  V30 17367 N 3101.1 0.0501916 -4.62973 0
M  V30 17368 H 3098.26 -0.374722 -8.67691 0
M  V30 17369 H 3097.99 -0.443485 -6.90277 0
M  V30 17370 H 3098.86 1.75537 -7.96793 0
M  V30 17371 P 3102.82 2.75334 -8.47391 0
M  V30 17372 O 3103.04 3.84166 -9.4489 0
M  V30 17373 O 3103.61 1.51964 -8.6881 0
M  V30 17374 O 3103.07 3.29363 -6.99321 0
M  V30 17375 C 3102.13 4.23956 -6.42656 0
M  V30 17376 C 3102.86 5.20775 -5.52155 0
M  V30 17377 O 3103.07 4.56534 -4.22446 0
M  V30 17378 C 3104.26 5.62629 -5.96531 0
M  V30 17379 O 3104.65 6.87667 -5.41053 0
M  V30 17380 C 3105.14 4.52537 -5.39283 0
M  V30 17381 C 3104.43 4.20027 -4.08623 0
M  V30 17382 N 3104.48 2.7613 -3.71522 0
M  V30 17383 C 3104.63 2.45612 -2.37989 0
M  V30 17384 O 3104.72 3.30919 -1.51621 0
M  V30 17385 N 3104.67 1.10684 -2.08435 0
M  V30 17386 C 3104.58 0.0690084 -2.9792 0
M  V30 17387 O 3104.63 -1.10553 -2.59426 0
M  V30 17388 C 3104.43 0.481522 -4.35345 0
M  V30 17389 C 3104.32 -0.618778 -5.36443 0
M  V30 17390 C 3104.38 1.78906 -4.67968 0
M  V30 17391 H 3101.64 4.797 -7.24003 0
M  V30 17392 H 3101.37 3.69802 -5.84429 0
M  V30 17393 H 3102.24 6.10356 -5.41441 0
M  V30 17394 H 3104.89 4.78651 -3.27911 0
M  V30 17395 H 3105.17 3.64957 -6.05871 0
M  V30 17396 H 3106.17 4.8868 -5.2125 0
M  V30 17397 H 3104.33 5.66726 -7.06352 0
M  V30 17398 H 3104.26 2.07737 -5.72367 0
M  V30 17399 H 3105.29 -0.754375 -5.86871 0
M  V30 17400 H 3103.55 -0.359721 -6.10641 0
M  V30 17401 H 3104.04 -1.55533 -4.8581 0
M  V30 17402 H 3104.78 0.862651 -1.12037 0
M  V30 17403 P 3106.2 7.20834 -5.23717 0
M  V30 17404 O 3106.42 8.66189 -5.38625 0
M  V30 17405 O 3106.99 6.33615 -6.1356 0
M  V30 17406 O 3106.45 6.7751 -3.72168 0
M  V30 17407 C 3105.51 7.20732 -2.70725 0
M  V30 17408 C 3106.24 7.45864 -1.40599 0
M  V30 17409 O 3106.45 6.17651 -0.734225 0
M  V30 17410 C 3107.64 8.05808 -1.51899 0
M  V30 17411 O 3108.03 8.74358 -0.335205 0
M  V30 17412 C 3108.52 6.83093 -1.70294 0
M  V30 17413 C 3107.81 5.79992 -0.836974 0
M  V30 17414 N 3107.86 4.41769 -1.38263 0
M  V30 17415 C 3108.01 3.38591 -0.481702 0
M  V30 17416 O 3108.1 3.56839 0.718452 0
M  V30 17417 N 3108.05 2.1206 -1.03569 0
M  V30 17418 C 3107.96 1.80696 -2.36966 0
M  V30 17419 O 3108.01 0.630473 -2.74862 0
M  V30 17420 C 3107.81 2.94845 -3.23898 0
M  V30 17421 C 3107.7 2.65253 -4.70362 0
M  V30 17422 C 3107.76 4.19803 -2.73435 0
M  V30 17423 H 3105.02 8.13644 -3.0377 0
M  V30 17424 H 3104.75 6.42695 -2.55448 0
M  V30 17425 H 3105.62 8.12039 -0.792769 0
M  V30 17426 H 3108.27 5.79978 0.160587 0
M  V30 17427 H 3108.55 6.51379 -2.75643 0
M  V30 17428 H 3109.55 7.01734 -1.34462 0
M  V30 17429 H 3107.71 8.73674 -2.38337 0
M  V30 17430 H 3107.64 5.04492 -3.4095 0
M  V30 17431 H 3108.67 2.83924 -5.1913 0
M  V30 17432 H 3106.93 3.29824 -5.15163 0
M  V30 17433 H 3107.42 1.59723 -4.84449 0
M  V30 17434 H 3108.16 1.35644 -0.399345 0
M  V30 17435 P 3109.58 8.91 -1.02762e-10 0
M  V30 17436 O 3109.8 10.1726 0.733694 0
M  V30 17437 O 3110.37 8.73148 -1.23936 0
M  V30 17438 O 3109.83 7.66872 0.971405 0
M  V30 17439 C 3108.89 7.42309 2.04641 0
M  V30 17440 C 3109.62 6.86059 3.24661 0
M  V30 17441 O 3109.83 5.42847 3.03646 0
M  V30 17442 C 3111.02 7.41196 3.50753 0
M  V30 17443 O 3111.41 7.27073 4.86816 0
M  V30 17444 C 3111.9 6.5273 2.63741 0
M  V30 17445 C 3111.19 5.1842 2.73198 0
M  V30 17446 N 3111.24 4.38762 1.4784 0
M  V30 17447 H 3108.4 8.36803 2.32493 0
M  V30 17448 H 3108.13 6.70197 1.71129 0
M  V30 17449 H 3109 7.03551 4.13168 0
M  V30 17450 P 3112.96 7.20834 5.23717 0
M  V30 17451 O 3113.18 7.79853 6.57286 0
M  V30 17452 O 3113.75 7.79239 4.12957 0
M  V30 17453 O 3113.21 5.63315 5.29344 0
M  V30 17454 C 3112.27 4.80255 6.01876 0
M  V30 17455 C 3113 3.64202 6.65911 0
M  V30 17456 O 3113.21 2.60694 5.64732 0
M  V30 17457 C 3114.4 3.93473 7.1943 0
M  V30 17458 O 3114.79 3.02071 8.21205 0
M  V30 17459 C 3115.28 3.73047 5.97036 0
M  V30 17460 C 3114.57 2.58828 5.25741 0
M  V30 17461 N 3114.62 2.68068 3.77503 0
M  V30 17462 H 3111.78 5.40332 6.79951 0
M  V30 17463 H 3111.51 4.41613 5.32378 0
M  V30 17464 H 3112.38 3.26331 7.47797 0
M  V30 17465 P 3116.34 2.75334 8.47391 0
M  V30 17466 O 3116.56 2.44571 9.90142 0
M  V30 17467 O 3117.13 3.87688 7.92115 0
M  V30 17468 O 3116.59 1.4459 7.59357 0
M  V30 17469 C 3115.65 0.347608 7.69215 0
M  V30 17470 C 3116.38 -0.96767 7.52806 0
M  V30 17471 O 3116.59 -1.21036 6.1011 0
M  V30 17472 C 3117.78 -1.04544 8.13308 0
M  V30 17473 O 3118.17 -2.38311 8.41922 0
M  V30 17474 C 3118.66 -0.491279 7.02284 0
M  V30 17475 C 3117.95 -0.996264 5.77469 0
M  V30 17476 N 3118 -0.0501916 4.62973 0
M  V30 17477 H 3115.16 0.374722 8.67691 0
M  V30 17478 H 3114.89 0.443485 6.90277 0
M  V30 17479 H 3115.76 -1.75537 7.96793 0
M  V30 17480 P 3119.72 -2.75334 8.47391 0
M  V30 17481 O 3119.94 -3.84128 9.44797 0
M  V30 17482 O 3120.51 -1.51947 8.68712 0
M  V30 17483 O 3119.97 -3.29363 6.99321 0
M  V30 17484 C 3119.03 -4.24011 6.4274 0
M  V30 17485 C 3119.76 -5.20775 5.52155 0
M  V30 17486 O 3119.97 -4.56534 4.22446 0
M  V30 17487 C 3121.16 -5.62629 5.96531 0
M  V30 17488 O 3121.55 -6.87667 5.41053 0
M  V30 17489 C 3122.04 -4.52537 5.39283 0
M  V30 17490 C 3121.33 -4.20027 4.08623 0
M  V30 17491 N 3121.38 -2.76189 3.71603 0
M  V30 17492 H 3118.54 -4.797 7.24003 0
M  V30 17493 H 3118.27 -3.69856 5.84513 0
M  V30 17494 H 3119.14 -6.10356 5.41441 0
M  V30 17495 P 3123.1 -7.20834 5.23717 0
M  V30 17496 O 3123.32 -8.66104 5.38572 0
M  V30 17497 O 3123.89 -6.33544 6.1349 0
M  V30 17498 O 3123.35 -6.7751 3.72168 0
M  V30 17499 C 3122.41 -7.20825 2.7076 0
M  V30 17500 C 3123.14 -7.45864 1.40599 0
M  V30 17501 O 3123.35 -6.17651 0.734225 0
M  V30 17502 C 3124.54 -8.05808 1.51899 0
M  V30 17503 O 3124.93 -8.74358 0.335205 0
M  V30 17504 C 3125.42 -6.83093 1.70294 0
M  V30 17505 C 3124.71 -5.79992 0.836974 0
M  V30 17506 N 3124.76 -4.41864 1.38293 0
M  V30 17507 H 3121.92 -8.13644 3.0377 0
M  V30 17508 H 3121.65 -6.42788 2.55485 0
M  V30 17509 H 3122.52 -8.12039 0.792769 0
M  V30 17510 P 3126.48 -8.91 1.03871e-10 0
M  V30 17511 O 3126.7 -10.1726 -0.733694 0
M  V30 17512 O 3127.27 -8.73148 1.23936 0
M  V30 17513 O 3126.73 -7.66872 -0.971405 0
M  V30 17514 C 3125.79 -7.42309 -2.04641 0
M  V30 17515 C 3126.52 -6.86059 -3.24661 0
M  V30 17516 O 3126.73 -5.42847 -3.03646 0
M  V30 17517 C 3127.92 -7.41196 -3.50753 0
M  V30 17518 O 3128.31 -7.27073 -4.86816 0
M  V30 17519 C 3128.8 -6.5273 -2.63741 0
M  V30 17520 C 3128.09 -5.1842 -2.73198 0
M  V30 17521 N 3128.14 -4.38762 -1.4784 0
M  V30 17522 H 3125.3 -8.36803 -2.32493 0
M  V30 17523 H 3125.03 -6.70197 -1.71129 0
M  V30 17524 H 3125.9 -7.03551 -4.13168 0
M  V30 17525 P 3129.86 -7.20834 -5.23717 0
M  V30 17526 O 3130.08 -7.79853 -6.57286 0
M  V30 17527 O 3130.65 -7.79239 -4.12957 0
M  V30 17528 O 3130.11 -5.63315 -5.29344 0
M  V30 17529 C 3129.17 -4.80255 -6.01876 0
M  V30 17530 C 3129.9 -3.64202 -6.65911 0
M  V30 17531 O 3130.11 -2.60694 -5.64732 0
M  V30 17532 C 3131.3 -3.93473 -7.1943 0
M  V30 17533 O 3131.69 -3.02071 -8.21205 0
M  V30 17534 C 3132.18 -3.73047 -5.97036 0
M  V30 17535 C 3131.47 -2.58828 -5.25741 0
M  V30 17536 N 3131.52 -2.68068 -3.77503 0
M  V30 17537 H 3128.68 -5.40332 -6.79951 0
M  V30 17538 H 3128.41 -4.41613 -5.32378 0
M  V30 17539 H 3129.28 -3.26331 -7.47797 0
M  V30 17540 P 3133.24 -2.75334 -8.47391 0
M  V30 17541 O 3133.46 -2.44571 -9.90142 0
M  V30 17542 O 3134.03 -3.87688 -7.92115 0
M  V30 17543 O 3133.49 -1.4459 -7.59357 0
M  V30 17544 C 3132.55 -0.347608 -7.69215 0
M  V30 17545 C 3133.28 0.96767 -7.52806 0
M  V30 17546 O 3133.49 1.21036 -6.1011 0
M  V30 17547 C 3134.68 1.04544 -8.13308 0
M  V30 17548 O 3135.07 2.38311 -8.41922 0
M  V30 17549 C 3135.56 0.491279 -7.02284 0
M  V30 17550 C 3134.85 0.996264 -5.77469 0
M  V30 17551 N 3134.9 0.0501916 -4.62973 0
M  V30 17552 H 3132.06 -0.374722 -8.67691 0
M  V30 17553 H 3131.79 -0.443485 -6.90277 0
M  V30 17554 H 3132.66 1.75537 -7.96793 0
M  V30 17555 P 3136.62 2.75334 -8.47391 0
M  V30 17556 O 3136.84 3.84128 -9.44797 0
M  V30 17557 O 3137.41 1.51947 -8.68712 0
M  V30 17558 O 3136.87 3.29363 -6.99321 0
M  V30 17559 C 3135.93 4.24011 -6.4274 0
M  V30 17560 C 3136.66 5.20775 -5.52155 0
M  V30 17561 O 3136.87 4.56534 -4.22446 0
M  V30 17562 C 3138.06 5.62629 -5.96531 0
M  V30 17563 O 3138.45 6.87667 -5.41053 0
M  V30 17564 C 3138.94 4.52537 -5.39283 0
M  V30 17565 C 3138.23 4.20027 -4.08623 0
M  V30 17566 N 3138.28 2.76189 -3.71603 0
M  V30 17567 C 3138.2 1.64862 -4.52822 0
M  V30 17568 N 3138.28 0.512671 -3.88633 0
M  V30 17569 C 3138.42 0.888083 -2.54977 0
M  V30 17570 C 3138.55 0.094668 -1.38677 0
M  V30 17571 N 3138.67 0.890102 -0.232633 0
M  V30 17572 C 3138.67 2.26958 -0.21772 0
M  V30 17573 N 3138.8 2.84626 0.97925 0
M  V30 17574 N 3138.54 3.0178 -1.31033 0
M  V30 17575 C 3138.42 2.26781 -2.43843 0
M  V30 17576 H 3135.44 4.797 -7.24003 0
M  V30 17577 H 3135.17 3.69856 -5.84513 0
M  V30 17578 H 3136.04 6.10356 -5.41441 0
M  V30 17579 P 3140 7.20834 -5.23717 0
M  V30 17580 O 3140.22 8.66189 -5.38625 0
M  V30 17581 O 3140.79 6.33615 -6.1356 0
M  V30 17582 O 3140.25 6.7751 -3.72168 0
M  V30 17583 C 3139.31 7.20732 -2.70725 0
M  V30 17584 C 3140.04 7.45864 -1.40599 0
M  V30 17585 O 3140.25 6.17651 -0.734225 0
M  V30 17586 C 3141.44 8.05808 -1.51899 0
M  V30 17587 O 3141.83 8.74358 -0.335205 0
M  V30 17588 C 3142.32 6.83093 -1.70294 0
M  V30 17589 C 3141.61 5.79992 -0.836974 0
M  V30 17590 N 3141.66 4.41769 -1.38263 0
M  V30 17591 C 3141.81 3.38591 -0.481702 0
M  V30 17592 O 3141.9 3.56839 0.718452 0
M  V30 17593 N 3141.85 2.1206 -1.03569 0
M  V30 17594 C 3141.76 1.80696 -2.36966 0
M  V30 17595 O 3141.81 0.630473 -2.74862 0
M  V30 17596 C 3141.61 2.94845 -3.23898 0
M  V30 17597 C 3141.5 2.65253 -4.70362 0
M  V30 17598 C 3141.56 4.19803 -2.73435 0
M  V30 17599 H 3138.82 8.13644 -3.0377 0
M  V30 17600 H 3138.55 6.42695 -2.55448 0
M  V30 17601 H 3139.42 8.12039 -0.792769 0
M  V30 17602 H 3142.07 5.79978 0.160587 0
M  V30 17603 H 3142.35 6.51379 -2.75643 0
M  V30 17604 H 3143.35 7.01734 -1.34462 0
M  V30 17605 H 3141.51 8.73674 -2.38337 0
M  V30 17606 H 3141.44 5.04492 -3.4095 0
M  V30 17607 H 3142.47 2.83924 -5.1913 0
M  V30 17608 H 3140.73 3.29824 -5.15163 0
M  V30 17609 H 3141.22 1.59723 -4.84449 0
M  V30 17610 H 3141.96 1.35644 -0.399345 0
M  V30 17611 P 3143.38 8.91 -1.0498e-10 0
M  V30 17612 O 3143.6 10.1746 0.733838 0
M  V30 17613 O 3144.17 8.73346 -1.23964 0
M  V30 17614 O 3143.63 7.66872 0.971405 0
M  V30 17615 C 3142.69 7.42405 2.04668 0
M  V30 17616 C 3143.42 6.86059 3.24661 0
M  V30 17617 O 3143.63 5.42934 3.03695 0
M  V30 17618 C 3144.82 7.41287 3.50796 0
M  V30 17619 O 3145.21 7.27073 4.86816 0
M  V30 17620 C 3145.7 6.5273 2.63741 0
M  V30 17621 C 3144.99 5.1842 2.73198 0
M  V30 17622 N 3145.04 4.38762 1.4784 0
M  V30 17623 H 3142.2 8.36899 2.3252 0
M  V30 17624 H 3141.93 6.70391 1.71179 0
M  V30 17625 H 3142.8 7.03638 4.13219 0
M  V30 17626 H 3145.45 4.59931 3.54016 0
M  V30 17627 H 3145.73 6.88995 1.59871 0
M  V30 17628 H 3146.73 6.4684 3.0373 0
M  V30 17629 H 3144.89 8.47002 3.20749 0
M  V30 17630 P 3146.76 7.20834 5.23717 0
M  V30 17631 O 3146.98 7.7993 6.57351 0
M  V30 17632 O 3147.55 7.79328 4.13004 0
M  V30 17633 O 3147.01 5.63315 5.29344 0
M  V30 17634 C 3146.07 4.80193 6.01798 0
M  V30 17635 C 3146.8 3.64202 6.65911 0
M  V30 17636 O 3147.01 2.60694 5.64732 0
M  V30 17637 C 3148.2 3.93473 7.1943 0
M  V30 17638 O 3148.59 3.02071 8.21205 0
M  V30 17639 C 3149.08 3.73047 5.97036 0
M  V30 17640 C 3148.37 2.58828 5.25741 0
M  V30 17641 N 3148.42 2.6801 3.77422 0
M  V30 17642 C 3148.57 1.50443 3.07133 0
M  V30 17643 O 3148.66 0.419406 3.61576 0
M  V30 17644 N 3148.61 1.6403 1.69677 0
M  V30 17645 C 3148.52 2.81206 0.986255 0
M  V30 17646 O 3148.57 2.80892 -0.249754 0
M  V30 17647 C 3148.37 3.99158 1.80325 0
M  V30 17648 C 3148.26 5.29309 1.06921 0
M  V30 17649 C 3148.32 3.89779 3.1476 0
M  V30 17650 H 3145.58 5.40332 6.79951 0
M  V30 17651 H 3145.31 4.41549 5.32301 0
M  V30 17652 H 3146.18 3.26331 7.47797 0
M  V30 17653 H 3148.83 1.6395 5.56554 0
M  V30 17654 H 3149.11 4.63439 5.3432 0
M  V30 17655 H 3150.11 3.44728 6.25838 0
M  V30 17656 H 3148.27 4.96652 7.57263 0
M  V30 17657 H 3148.2 4.80159 3.74441 0
M  V30 17658 H 3149.23 5.81459 1.09608 0
M  V30 17659 H 3147.49 5.9187 1.54487 0
M  V30 17660 H 3147.98 5.10095 0.0220288 0
M  V30 17661 H 3148.72 0.798962 1.16664 0
M  V30 17662 P 3150.14 2.75334 8.47391 0
M  V30 17663 O 3150.36 2.44571 9.90142 0
M  V30 17664 O 3150.93 3.87688 7.92115 0
M  V30 17665 O 3150.39 1.4459 7.59357 0
M  V30 17666 C 3149.45 0.347608 7.69215 0
M  V30 17667 C 3150.18 -0.96767 7.52806 0
M  V30 17668 O 3150.39 -1.21036 6.1011 0
M  V30 17669 C 3151.58 -1.04544 8.13308 0
M  V30 17670 O 3151.97 -2.38311 8.41922 0
M  V30 17671 C 3152.46 -0.491279 7.02284 0
M  V30 17672 C 3151.75 -0.996264 5.77469 0
M  V30 17673 N 3151.8 -0.0501916 4.62973 0
M  V30 17674 H 3148.96 0.374722 8.67691 0
M  V30 17675 H 3148.69 0.443485 6.90277 0
M  V30 17676 H 3149.56 -1.75537 7.96793 0
M  V30 17677 P 3153.52 -2.75334 8.47391 0
M  V30 17678 O 3153.74 -3.84166 9.4489 0
M  V30 17679 O 3154.31 -1.51964 8.6881 0
M  V30 17680 O 3153.77 -3.29363 6.99321 0
M  V30 17681 C 3152.83 -4.23956 6.42656 0
M  V30 17682 C 3153.56 -5.20775 5.52155 0
M  V30 17683 O 3153.77 -4.56534 4.22446 0
M  V30 17684 C 3154.96 -5.62629 5.96531 0
M  V30 17685 O 3155.35 -6.87667 5.41053 0
M  V30 17686 C 3155.84 -4.52537 5.39283 0
M  V30 17687 C 3155.13 -4.20027 4.08623 0
M  V30 17688 N 3155.18 -2.7613 3.71522 0
M  V30 17689 C 3155.33 -2.45612 2.37989 0
M  V30 17690 O 3155.42 -3.30919 1.51621 0
M  V30 17691 N 3155.37 -1.10684 2.08435 0
M  V30 17692 C 3155.28 -0.0690084 2.9792 0
M  V30 17693 O 3155.33 1.10553 2.59426 0
M  V30 17694 C 3155.13 -0.481522 4.35345 0
M  V30 17695 C 3155.02 0.618778 5.36443 0
M  V30 17696 C 3155.08 -1.78906 4.67968 0
M  V30 17697 H 3152.34 -4.797 7.24003 0
M  V30 17698 H 3152.07 -3.69802 5.84429 0
M  V30 17699 H 3152.94 -6.10356 5.41441 0
M  V30 17700 H 3155.59 -4.78651 3.27911 0
M  V30 17701 H 3155.87 -3.64957 6.05871 0
M  V30 17702 H 3156.87 -4.8868 5.2125 0
M  V30 17703 H 3155.03 -5.66726 7.06352 0
M  V30 17704 H 3154.96 -2.07737 5.72367 0
M  V30 17705 H 3155.99 0.754375 5.86871 0
M  V30 17706 H 3154.25 0.359721 6.10641 0
M  V30 17707 H 3154.74 1.55533 4.8581 0
M  V30 17708 H 3155.48 -0.862651 1.12037 0
M  V30 17709 P 3156.9 -7.20834 5.23717 0
M  V30 17710 O 3157.12 -8.66189 5.38625 0
M  V30 17711 O 3157.69 -6.33615 6.1356 0
M  V30 17712 O 3157.15 -6.7751 3.72168 0
M  V30 17713 C 3156.21 -7.20732 2.70725 0
M  V30 17714 C 3156.94 -7.45864 1.40599 0
M  V30 17715 O 3157.15 -6.17651 0.734225 0
M  V30 17716 C 3158.34 -8.05808 1.51899 0
M  V30 17717 O 3158.73 -8.74358 0.335205 0
M  V30 17718 C 3159.22 -6.83093 1.70294 0
M  V30 17719 C 3158.51 -5.79992 0.836974 0
M  V30 17720 N 3158.56 -4.41769 1.38263 0
M  V30 17721 C 3158.71 -3.38591 0.481702 0
M  V30 17722 O 3158.8 -3.56839 -0.718452 0
M  V30 17723 N 3158.75 -2.1206 1.03569 0
M  V30 17724 C 3158.66 -1.80696 2.36966 0
M  V30 17725 C 3158.51 -2.94845 3.23898 0
M  V30 17726 C 3158.46 -4.19803 2.73435 0
M  V30 17727 H 3155.72 -8.13644 3.0377 0
M  V30 17728 H 3155.45 -6.42695 2.55448 0
M  V30 17729 H 3156.32 -8.12039 0.792769 0
M  V30 17730 H 3158.97 -5.79978 -0.160587 0
M  V30 17731 H 3159.25 -6.51379 2.75643 0
M  V30 17732 H 3160.25 -7.01734 1.34462 0
M  V30 17733 H 3158.41 -8.73674 2.38337 0
M  V30 17734 H 3158.34 -5.04492 3.4095 0
M  V30 17735 P 3160.28 -8.91 1.06089e-10 0
M  V30 17736 O 3160.5 -10.1726 -0.733694 0
M  V30 17737 O 3161.07 -8.73148 1.23936 0
M  V30 17738 O 3160.53 -7.66872 -0.971405 0
M  V30 17739 C 3159.59 -7.42309 -2.04641 0
M  V30 17740 C 3160.32 -6.86059 -3.24661 0
M  V30 17741 O 3160.53 -5.42847 -3.03646 0
M  V30 17742 C 3161.72 -7.41196 -3.50753 0
M  V30 17743 O 3162.11 -7.27073 -4.86816 0
M  V30 17744 C 3162.6 -6.5273 -2.63741 0
M  V30 17745 C 3161.89 -5.1842 -2.73198 0
M  V30 17746 N 3161.94 -4.38762 -1.4784 0
M  V30 17747 H 3159.1 -8.36803 -2.32493 0
M  V30 17748 H 3158.83 -6.70197 -1.71129 0
M  V30 17749 H 3159.7 -7.03551 -4.13168 0
M  V30 17750 P 3163.66 -7.20834 -5.23717 0
M  V30 17751 O 3163.88 -7.79853 -6.57286 0
M  V30 17752 O 3164.45 -7.79239 -4.12957 0
M  V30 17753 O 3163.91 -5.63315 -5.29344 0
M  V30 17754 C 3162.97 -4.80255 -6.01876 0
M  V30 17755 C 3163.7 -3.64202 -6.65911 0
M  V30 17756 O 3163.91 -2.60694 -5.64732 0
M  V30 17757 C 3165.1 -3.93473 -7.1943 0
M  V30 17758 O 3165.49 -3.02071 -8.21205 0
M  V30 17759 C 3165.98 -3.73047 -5.97036 0
M  V30 17760 C 3165.27 -2.58828 -5.25741 0
M  V30 17761 N 3165.32 -2.68068 -3.77503 0
M  V30 17762 H 3162.48 -5.40332 -6.79951 0
M  V30 17763 H 3162.21 -4.41613 -5.32378 0
M  V30 17764 H 3163.08 -3.26331 -7.47797 0
M  V30 17765 P 3167.04 -2.75334 -8.47391 0
M  V30 17766 O 3167.26 -2.44571 -9.90142 0
M  V30 17767 O 3167.83 -3.87688 -7.92115 0
M  V30 17768 O 3167.29 -1.4459 -7.59357 0
M  V30 17769 C 3166.35 -0.347608 -7.69215 0
M  V30 17770 C 3167.08 0.96767 -7.52806 0
M  V30 17771 O 3167.29 1.21036 -6.1011 0
M  V30 17772 C 3168.48 1.04544 -8.13308 0
M  V30 17773 O 3168.87 2.38311 -8.41922 0
M  V30 17774 C 3169.36 0.491279 -7.02284 0
M  V30 17775 C 3168.65 0.996264 -5.77469 0
M  V30 17776 N 3168.7 0.0501916 -4.62973 0
M  V30 17777 H 3165.86 -0.374722 -8.67691 0
M  V30 17778 H 3165.59 -0.443485 -6.90277 0
M  V30 17779 H 3166.46 1.75537 -7.96793 0
M  V30 17780 P 3170.42 2.75334 -8.47391 0
M  V30 17781 O 3170.64 3.84128 -9.44797 0
M  V30 17782 O 3171.21 1.51947 -8.68712 0
M  V30 17783 O 3170.67 3.29363 -6.99321 0
M  V30 17784 C 3169.73 4.24011 -6.4274 0
M  V30 17785 C 3170.46 5.20775 -5.52155 0
M  V30 17786 O 3170.67 4.56534 -4.22446 0
M  V30 17787 C 3171.86 5.62629 -5.96531 0
M  V30 17788 O 3172.25 6.87667 -5.41053 0
M  V30 17789 C 3172.74 4.52537 -5.39283 0
M  V30 17790 C 3172.03 4.20027 -4.08623 0
M  V30 17791 N 3172.08 2.76189 -3.71603 0
M  V30 17792 H 3169.24 4.797 -7.24003 0
M  V30 17793 H 3168.97 3.69856 -5.84513 0
M  V30 17794 H 3169.84 6.10356 -5.41441 0
M  V30 17795 P 3173.8 7.20834 -5.23717 0
M  V30 17796 O 3174.02 8.66104 -5.38572 0
M  V30 17797 O 3174.59 6.33544 -6.1349 0
M  V30 17798 O 3174.05 6.7751 -3.72168 0
M  V30 17799 C 3173.11 7.20825 -2.7076 0
M  V30 17800 C 3173.84 7.45864 -1.40599 0
M  V30 17801 O 3174.05 6.17651 -0.734225 0
M  V30 17802 C 3175.24 8.05808 -1.51899 0
M  V30 17803 O 3175.63 8.74358 -0.335205 0
M  V30 17804 C 3176.12 6.83093 -1.70294 0
M  V30 17805 C 3175.41 5.79992 -0.836974 0
M  V30 17806 N 3175.46 4.41864 -1.38293 0
M  V30 17807 H 3172.62 8.13644 -3.0377 0
M  V30 17808 H 3172.35 6.42788 -2.55485 0
M  V30 17809 H 3173.22 8.12039 -0.792769 0
M  V30 17810 P 3177.18 8.91 -1.07198e-10 0
M  V30 17811 O 3177.4 10.1726 0.733694 0
M  V30 17812 O 3177.97 8.73148 -1.23936 0
M  V30 17813 O 3177.43 7.66872 0.971405 0
M  V30 17814 C 3176.49 7.42309 2.04641 0
M  V30 17815 C 3177.22 6.86059 3.24661 0
M  V30 17816 O 3177.43 5.42847 3.03646 0
M  V30 17817 C 3178.62 7.41196 3.50753 0
M  V30 17818 O 3179.01 7.27073 4.86816 0
M  V30 17819 C 3179.5 6.5273 2.63741 0
M  V30 17820 C 3178.79 5.1842 2.73198 0
M  V30 17821 N 3178.84 4.38762 1.4784 0
M  V30 17822 H 3176 8.36803 2.32493 0
M  V30 17823 H 3175.73 6.70197 1.71129 0
M  V30 17824 H 3176.6 7.03551 4.13168 0
M  V30 17825 P 3180.56 7.20834 5.23717 0
M  V30 17826 O 3180.78 7.79853 6.57286 0
M  V30 17827 O 3181.35 7.79239 4.12957 0
M  V30 17828 O 3180.81 5.63315 5.29344 0
M  V30 17829 C 3179.87 4.80255 6.01876 0
M  V30 17830 C 3180.6 3.64202 6.65911 0
M  V30 17831 O 3180.81 2.60694 5.64732 0
M  V30 17832 C 3182 3.93473 7.1943 0
M  V30 17833 O 3182.39 3.02071 8.21205 0
M  V30 17834 C 3182.88 3.73047 5.97036 0
M  V30 17835 C 3182.17 2.58828 5.25741 0
M  V30 17836 N 3182.22 2.68068 3.77503 0
M  V30 17837 H 3179.38 5.40332 6.79951 0
M  V30 17838 H 3179.11 4.41613 5.32378 0
M  V30 17839 H 3179.98 3.26331 7.47797 0
M  V30 17840 P 3183.94 2.75334 8.47391 0
M  V30 17841 O 3184.16 2.44619 9.90336 0
M  V30 17842 O 3184.73 3.87776 7.92294 0
M  V30 17843 O 3184.19 1.4459 7.59357 0
M  V30 17844 C 3183.25 0.347653 7.69315 0
M  V30 17845 C 3183.98 -0.96767 7.52806 0
M  V30 17846 O 3184.19 -1.21055 6.10208 0
M  V30 17847 C 3185.38 -1.04557 8.13408 0
M  V30 17848 O 3185.77 -2.38311 8.41922 0
M  V30 17849 C 3186.26 -0.491279 7.02284 0
M  V30 17850 C 3185.55 -0.996264 5.77469 0
M  V30 17851 N 3185.6 -0.0501916 4.62973 0
M  V30 17852 H 3182.76 0.374765 8.67791 0
M  V30 17853 H 3182.49 0.443613 6.90476 0
M  V30 17854 H 3183.36 -1.75559 7.96891 0
M  V30 17855 H 3186.01 -1.94563 5.46818 0
M  V30 17856 H 3186.29 0.608651 7.04676 0
M  V30 17857 H 3187.29 -0.889796 7.09039 0
M  V30 17858 H 3185.45 -0.433128 9.04664 0
M  V30 17859 P 3187.32 -2.75334 8.47391 0
M  V30 17860 O 3187.54 -3.84128 9.44797 0
M  V30 17861 O 3188.11 -1.51947 8.68712 0
M  V30 17862 O 3187.57 -3.29363 6.99321 0
M  V30 17863 C 3186.63 -4.24011 6.4274 0
M  V30 17864 C 3187.36 -5.20775 5.52155 0
M  V30 17865 O 3187.57 -4.56534 4.22446 0
M  V30 17866 C 3188.76 -5.62629 5.96531 0
M  V30 17867 O 3189.15 -6.87667 5.41053 0
M  V30 17868 C 3189.64 -4.52537 5.39283 0
M  V30 17869 C 3188.93 -4.20027 4.08623 0
M  V30 17870 N 3188.98 -2.76189 3.71603 0
M  V30 17871 H 3186.14 -4.797 7.24003 0
M  V30 17872 H 3185.87 -3.69856 5.84513 0
M  V30 17873 H 3186.74 -6.10356 5.41441 0
M  V30 17874 P 3190.7 -7.20834 5.23717 0
M  V30 17875 O 3190.92 -8.66104 5.38572 0
M  V30 17876 O 3191.49 -6.33544 6.1349 0
M  V30 17877 O 3190.95 -6.7751 3.72168 0
M  V30 17878 C 3190.01 -7.20825 2.7076 0
M  V30 17879 C 3190.74 -7.45864 1.40599 0
M  V30 17880 O 3190.95 -6.17651 0.734225 0
M  V30 17881 C 3192.14 -8.05808 1.51899 0
M  V30 17882 O 3192.53 -8.74358 0.335205 0
M  V30 17883 C 3193.02 -6.83093 1.70294 0
M  V30 17884 C 3192.31 -5.79992 0.836974 0
M  V30 17885 N 3192.36 -4.41864 1.38293 0
M  V30 17886 H 3189.52 -8.13644 3.0377 0
M  V30 17887 H 3189.25 -6.42788 2.55485 0
M  V30 17888 H 3190.12 -8.12039 0.792769 0
M  V30 17889 P 3194.08 -8.91 1.08307e-10 0
M  V30 17890 O 3194.3 -10.1726 -0.733694 0
M  V30 17891 O 3194.87 -8.73148 1.23936 0
M  V30 17892 O 3194.33 -7.66872 -0.971405 0
M  V30 17893 C 3193.39 -7.42309 -2.04641 0
M  V30 17894 C 3194.12 -6.86059 -3.24661 0
M  V30 17895 O 3194.33 -5.42847 -3.03646 0
M  V30 17896 C 3195.52 -7.41196 -3.50753 0
M  V30 17897 O 3195.91 -7.27073 -4.86816 0
M  V30 17898 C 3196.4 -6.5273 -2.63741 0
M  V30 17899 C 3195.69 -5.1842 -2.73198 0
M  V30 17900 N 3195.74 -4.38762 -1.4784 0
M  V30 17901 C 3195.66 -4.81605 -0.168631 0
M  V30 17902 N 3195.74 -3.85454 0.713363 0
M  V30 17903 C 3195.88 -2.6994 -0.0566958 0
M  V30 17904 C 3196.01 -1.34815 0.338502 0
M  V30 17905 O 3196.03 -0.869548 1.47125 0
M  V30 17906 N 3196.13 -0.496304 -0.77465 0
M  V30 17907 C 3196.13 -0.908403 -2.09122 0
M  V30 17908 N 3196.26 0.0517805 -3.00955 0
M  V30 17909 N 3196 -2.17875 -2.46519 0
M  V30 17910 C 3195.88 -3.01988 -1.4033 0
M  V30 17911 H 3192.9 -8.36803 -2.32493 0
M  V30 17912 H 3192.63 -6.70197 -1.71129 0
M  V30 17913 H 3193.5 -7.03551 -4.13168 0
M  V30 17914 H 3196.15 -4.59498 -3.54415 0
M  V30 17915 H 3196.43 -6.88898 -1.59848 0
M  V30 17916 H 3197.43 -6.46749 -3.03687 0
M  V30 17917 H 3195.59 -8.46908 -3.20714 0
M  V30 17918 H 3195.54 -5.86405 0.105564 0
M  V30 17919 H 3196.22 0.483664 -0.597855 0
M  V30 17920 H 3196.26 -0.187865 -4.0116 0
M  V30 17921 H 3196.36 1.03585 -2.71726 0
M  V30 17922 P 3197.46 -7.20834 -5.23717 0
M  V30 17923 O 3197.68 -7.7993 -6.57351 0
M  V30 17924 O 3198.25 -7.79328 -4.13004 0
M  V30 17925 O 3197.71 -5.63315 -5.29344 0
M  V30 17926 C 3196.77 -4.80193 -6.01798 0
M  V30 17927 C 3197.5 -3.64202 -6.65911 0
M  V30 17928 O 3197.71 -2.60694 -5.64732 0
M  V30 17929 C 3198.9 -3.93473 -7.1943 0
M  V30 17930 O 3199.29 -3.02071 -8.21205 0
M  V30 17931 C 3199.78 -3.73047 -5.97036 0
M  V30 17932 C 3199.07 -2.58828 -5.25741 0
M  V30 17933 N 3199.12 -2.6801 -3.77422 0
M  V30 17934 C 3199.27 -1.50443 -3.07133 0
M  V30 17935 O 3199.36 -0.419406 -3.61576 0
M  V30 17936 N 3199.31 -1.6403 -1.69677 0
M  V30 17937 C 3199.22 -2.81206 -0.986255 0
M  V30 17938 O 3199.27 -2.80892 0.249754 0
M  V30 17939 C 3199.07 -3.99158 -1.80325 0
M  V30 17940 C 3198.96 -5.29309 -1.06921 0
M  V30 17941 C 3199.02 -3.89779 -3.1476 0
M  V30 17942 H 3196.28 -5.40332 -6.79951 0
M  V30 17943 H 3196.01 -4.41549 -5.32301 0
M  V30 17944 H 3196.88 -3.26331 -7.47797 0
M  V30 17945 H 3199.53 -1.6395 -5.56554 0
M  V30 17946 H 3199.81 -4.63439 -5.3432 0
M  V30 17947 H 3200.81 -3.44728 -6.25838 0
M  V30 17948 H 3198.97 -4.96652 -7.57263 0
M  V30 17949 H 3198.9 -4.80159 -3.74441 0
M  V30 17950 H 3199.93 -5.81459 -1.09608 0
M  V30 17951 H 3198.19 -5.9187 -1.54487 0
M  V30 17952 H 3198.68 -5.10095 -0.0220288 0
M  V30 17953 H 3199.42 -0.798962 -1.16664 0
M  V30 17954 P 3200.84 -2.75334 -8.47391 0
M  V30 17955 O 3201.06 -2.44571 -9.90142 0
M  V30 17956 O 3201.63 -3.87688 -7.92115 0
M  V30 17957 O 3201.09 -1.4459 -7.59357 0
M  V30 17958 C 3200.15 -0.347608 -7.69215 0
M  V30 17959 C 3200.88 0.96767 -7.52806 0
M  V30 17960 O 3201.09 1.21036 -6.1011 0
M  V30 17961 C 3202.28 1.04544 -8.13308 0
M  V30 17962 O 3202.67 2.38311 -8.41922 0
M  V30 17963 C 3203.16 0.491279 -7.02284 0
M  V30 17964 C 3202.45 0.996264 -5.77469 0
M  V30 17965 N 3202.5 0.0501916 -4.62973 0
M  V30 17966 H 3199.66 -0.374722 -8.67691 0
M  V30 17967 H 3199.39 -0.443485 -6.90277 0
M  V30 17968 H 3200.26 1.75537 -7.96793 0
M  V30 17969 P 3204.22 2.75334 -8.47391 0
M  V30 17970 O 3204.44 3.84128 -9.44797 0
M  V30 17971 O 3205.01 1.51947 -8.68712 0
M  V30 17972 O 3204.47 3.29363 -6.99321 0
M  V30 17973 C 3203.53 4.24011 -6.4274 0
M  V30 17974 C 3204.26 5.20775 -5.52155 0
M  V30 17975 O 3204.47 4.56534 -4.22446 0
M  V30 17976 C 3205.66 5.62629 -5.96531 0
M  V30 17977 O 3206.05 6.87667 -5.41053 0
M  V30 17978 C 3206.54 4.52537 -5.39283 0
M  V30 17979 C 3205.83 4.20027 -4.08623 0
M  V30 17980 N 3205.88 2.76189 -3.71603 0
M  V30 17981 H 3203.04 4.797 -7.24003 0
M  V30 17982 H 3202.77 3.69856 -5.84513 0
M  V30 17983 H 3203.64 6.10356 -5.41441 0
M  V30 17984 P 3207.6 7.20834 -5.23717 0
M  V30 17985 O 3207.82 8.66189 -5.38625 0
M  V30 17986 O 3208.39 6.33615 -6.1356 0
M  V30 17987 O 3207.85 6.7751 -3.72168 0
M  V30 17988 C 3206.91 7.20732 -2.70725 0
M  V30 17989 C 3207.64 7.45864 -1.40599 0
M  V30 17990 O 3207.85 6.17651 -0.734225 0
M  V30 17991 C 3209.04 8.05808 -1.51899 0
M  V30 17992 O 3209.43 8.74358 -0.335205 0
M  V30 17993 C 3209.92 6.83093 -1.70294 0
M  V30 17994 C 3209.21 5.79992 -0.836974 0
M  V30 17995 N 3209.26 4.41769 -1.38263 0
M  V30 17996 C 3209.41 3.38591 -0.481702 0
M  V30 17997 O 3209.5 3.56839 0.718452 0
M  V30 17998 N 3209.45 2.1206 -1.03569 0
M  V30 17999 C 3209.36 1.80696 -2.36966 0
M  V30 18000 O 3209.41 0.630473 -2.74862 0
M  V30 18001 C 3209.21 2.94845 -3.23898 0
M  V30 18002 C 3209.1 2.65253 -4.70362 0
M  V30 18003 C 3209.16 4.19803 -2.73435 0
M  V30 18004 H 3206.42 8.13644 -3.0377 0
M  V30 18005 H 3206.15 6.42695 -2.55448 0
M  V30 18006 H 3207.02 8.12039 -0.792769 0
M  V30 18007 H 3209.67 5.79978 0.160587 0
M  V30 18008 H 3209.95 6.51379 -2.75643 0
M  V30 18009 H 3210.95 7.01734 -1.34462 0
M  V30 18010 H 3209.11 8.73674 -2.38337 0
M  V30 18011 H 3209.04 5.04492 -3.4095 0
M  V30 18012 H 3210.07 2.83924 -5.1913 0
M  V30 18013 H 3208.33 3.29824 -5.15163 0
M  V30 18014 H 3208.82 1.59723 -4.84449 0
M  V30 18015 H 3209.56 1.35644 -0.399345 0
M  V30 18016 P 3210.98 8.91 -1.09416e-10 0
M  V30 18017 O 3211.2 10.1726 0.733694 0
M  V30 18018 O 3211.77 8.73148 -1.23936 0
M  V30 18019 O 3211.23 7.66872 0.971405 0
M  V30 18020 C 3210.29 7.42309 2.04641 0
M  V30 18021 C 3211.02 6.86059 3.24661 0
M  V30 18022 O 3211.23 5.42847 3.03646 0
M  V30 18023 C 3212.42 7.41196 3.50753 0
M  V30 18024 O 3212.81 7.27073 4.86816 0
M  V30 18025 C 3213.3 6.5273 2.63741 0
M  V30 18026 C 3212.59 5.1842 2.73198 0
M  V30 18027 N 3212.64 4.38762 1.4784 0
M  V30 18028 H 3209.8 8.36803 2.32493 0
M  V30 18029 H 3209.53 6.70197 1.71129 0
M  V30 18030 H 3210.4 7.03551 4.13168 0
M  V30 18031 P 3214.36 7.20834 5.23717 0
M  V30 18032 O 3214.58 7.79853 6.57286 0
M  V30 18033 O 3215.15 7.79239 4.12957 0
M  V30 18034 O 3214.61 5.63315 5.29344 0
M  V30 18035 C 3213.67 4.80255 6.01876 0
M  V30 18036 C 3214.4 3.64202 6.65911 0
M  V30 18037 O 3214.61 2.60694 5.64732 0
M  V30 18038 C 3215.8 3.93473 7.1943 0
M  V30 18039 O 3216.19 3.02071 8.21205 0
M  V30 18040 C 3216.68 3.73047 5.97036 0
M  V30 18041 C 3215.97 2.58828 5.25741 0
M  V30 18042 N 3216.02 2.68068 3.77503 0
M  V30 18043 H 3213.18 5.40332 6.79951 0
M  V30 18044 H 3212.91 4.41613 5.32378 0
M  V30 18045 H 3213.78 3.26331 7.47797 0
M  V30 18046 P 3217.74 2.75334 8.47391 0
M  V30 18047 O 3217.96 2.44571 9.90142 0
M  V30 18048 O 3218.53 3.87688 7.92115 0
M  V30 18049 O 3217.99 1.4459 7.59357 0
M  V30 18050 C 3217.05 0.347608 7.69215 0
M  V30 18051 C 3217.78 -0.96767 7.52806 0
M  V30 18052 O 3217.99 -1.21036 6.1011 0
M  V30 18053 C 3219.18 -1.04544 8.13308 0
M  V30 18054 O 3219.57 -2.38311 8.41922 0
M  V30 18055 C 3220.06 -0.491279 7.02284 0
M  V30 18056 C 3219.35 -0.996264 5.77469 0
M  V30 18057 N 3219.4 -0.0501916 4.62973 0
M  V30 18058 H 3216.56 0.374722 8.67691 0
M  V30 18059 H 3216.29 0.443485 6.90277 0
M  V30 18060 H 3217.16 -1.75537 7.96793 0
M  V30 18061 P 3221.12 -2.75334 8.47391 0
M  V30 18062 O 3221.34 -3.84128 9.44797 0
M  V30 18063 O 3221.91 -1.51947 8.68712 0
M  V30 18064 O 3221.37 -3.29363 6.99321 0
M  V30 18065 C 3220.43 -4.24011 6.4274 0
M  V30 18066 C 3221.16 -5.20775 5.52155 0
M  V30 18067 O 3221.37 -4.56534 4.22446 0
M  V30 18068 C 3222.56 -5.62629 5.96531 0
M  V30 18069 O 3222.95 -6.87667 5.41053 0
M  V30 18070 C 3223.44 -4.52537 5.39283 0
M  V30 18071 C 3222.73 -4.20027 4.08623 0
M  V30 18072 N 3222.78 -2.76189 3.71603 0
M  V30 18073 H 3219.94 -4.797 7.24003 0
M  V30 18074 H 3219.67 -3.69856 5.84513 0
M  V30 18075 H 3220.54 -6.10356 5.41441 0
M  V30 18076 P 3224.5 -7.20834 5.23717 0
M  V30 18077 O 3224.72 -8.66189 5.38625 0
M  V30 18078 O 3225.29 -6.33615 6.1356 0
M  V30 18079 O 3224.75 -6.7751 3.72168 0
M  V30 18080 C 3223.81 -7.20732 2.70725 0
M  V30 18081 C 3224.54 -7.45864 1.40599 0
M  V30 18082 O 3224.75 -6.17651 0.734225 0
M  V30 18083 C 3225.94 -8.05808 1.51899 0
M  V30 18084 O 3226.33 -8.74358 0.335205 0
M  V30 18085 C 3226.82 -6.83093 1.70294 0
M  V30 18086 C 3226.11 -5.79992 0.836974 0
M  V30 18087 N 3226.16 -4.41769 1.38263 0
M  V30 18088 C 3226.31 -3.38591 0.481702 0
M  V30 18089 O 3226.4 -3.56839 -0.718452 0
M  V30 18090 N 3226.35 -2.1206 1.03569 0
M  V30 18091 C 3226.26 -1.80696 2.36966 0
M  V30 18092 O 3226.31 -0.630473 2.74862 0
M  V30 18093 C 3226.11 -2.94845 3.23898 0
M  V30 18094 C 3226 -2.65253 4.70362 0
M  V30 18095 C 3226.06 -4.19803 2.73435 0
M  V30 18096 H 3223.32 -8.13644 3.0377 0
M  V30 18097 H 3223.05 -6.42695 2.55448 0
M  V30 18098 H 3223.92 -8.12039 0.792769 0
M  V30 18099 H 3226.57 -5.79978 -0.160587 0
M  V30 18100 H 3226.85 -6.51379 2.75643 0
M  V30 18101 H 3227.84 -7.01734 1.34462 0
M  V30 18102 H 3226.01 -8.73674 2.38337 0
M  V30 18103 H 3225.94 -5.04492 3.4095 0
M  V30 18104 H 3226.97 -2.83924 5.1913 0
M  V30 18105 H 3225.23 -3.29824 5.15163 0
M  V30 18106 H 3225.72 -1.59723 4.84449 0
M  V30 18107 H 3226.46 -1.35644 0.399345 0
M  V30 18108 P 3227.88 -8.91 1.10525e-10 0
M  V30 18109 O 3228.1 -10.1726 -0.733694 0
M  V30 18110 O 3228.67 -8.73148 1.23936 0
M  V30 18111 O 3228.13 -7.66872 -0.971405 0
M  V30 18112 C 3227.19 -7.42309 -2.04641 0
M  V30 18113 C 3227.92 -6.86059 -3.24661 0
M  V30 18114 O 3228.13 -5.42847 -3.03646 0
M  V30 18115 C 3229.32 -7.41196 -3.50753 0
M  V30 18116 O 3229.71 -7.27073 -4.86816 0
M  V30 18117 C 3230.2 -6.5273 -2.63741 0
M  V30 18118 C 3229.49 -5.1842 -2.73198 0
M  V30 18119 N 3229.54 -4.38762 -1.4784 0
M  V30 18120 H 3226.7 -8.36803 -2.32493 0
M  V30 18121 H 3226.43 -6.70197 -1.71129 0
M  V30 18122 H 3227.3 -7.03551 -4.13168 0
M  V30 18123 P 3231.26 -7.20834 -5.23717 0
M  V30 18124 O 3231.48 -7.7993 -6.57351 0
M  V30 18125 O 3232.05 -7.79328 -4.13004 0
M  V30 18126 O 3231.51 -5.63315 -5.29344 0
M  V30 18127 C 3230.57 -4.80193 -6.01798 0
M  V30 18128 C 3231.3 -3.64202 -6.65911 0
M  V30 18129 O 3231.51 -2.60694 -5.64732 0
M  V30 18130 C 3232.7 -3.93473 -7.1943 0
M  V30 18131 O 3233.09 -3.02071 -8.21205 0
M  V30 18132 C 3233.58 -3.73047 -5.97036 0
M  V30 18133 C 3232.87 -2.58828 -5.25741 0
M  V30 18134 N 3232.92 -2.6801 -3.77422 0
M  V30 18135 C 3233.07 -1.50443 -3.07133 0
M  V30 18136 O 3233.16 -0.419406 -3.61576 0
M  V30 18137 N 3233.11 -1.6403 -1.69677 0
M  V30 18138 C 3233.02 -2.81206 -0.986255 0
M  V30 18139 C 3232.87 -3.99158 -1.80325 0
M  V30 18140 C 3232.82 -3.89779 -3.1476 0
M  V30 18141 H 3230.08 -5.40332 -6.79951 0
M  V30 18142 H 3229.81 -4.41549 -5.32301 0
M  V30 18143 H 3230.68 -3.26331 -7.47797 0
M  V30 18144 H 3233.33 -1.6395 -5.56554 0
M  V30 18145 H 3233.61 -4.63439 -5.3432 0
M  V30 18146 H 3234.6 -3.44728 -6.25838 0
M  V30 18147 H 3232.77 -4.96652 -7.57263 0
M  V30 18148 H 3232.7 -4.80159 -3.74441 0
M  V30 18149 P 3234.64 -2.75334 -8.47391 0
M  V30 18150 O 3234.86 -2.44571 -9.90142 0
M  V30 18151 O 3235.43 -3.87688 -7.92115 0
M  V30 18152 O 3234.89 -1.4459 -7.59357 0
M  V30 18153 C 3233.95 -0.347608 -7.69215 0
M  V30 18154 C 3234.68 0.96767 -7.52806 0
M  V30 18155 O 3234.89 1.21036 -6.1011 0
M  V30 18156 C 3236.08 1.04544 -8.13308 0
M  V30 18157 O 3236.47 2.38311 -8.41922 0
M  V30 18158 C 3236.96 0.491279 -7.02284 0
M  V30 18159 C 3236.25 0.996264 -5.77469 0
M  V30 18160 N 3236.3 0.0501916 -4.62973 0
M  V30 18161 C 3236.22 -1.32786 -4.63244 0
M  V30 18162 N 3236.3 -1.86957 -3.44545 0
M  V30 18163 C 3236.44 -0.780241 -2.58481 0
M  V30 18164 C 3236.57 -0.738536 -1.17757 0
M  V30 18165 N 3236.69 0.58337 -0.711393 0
M  V30 18166 C 3236.69 1.70816 -1.51017 0
M  V30 18167 N 3236.82 2.87826 -0.880757 0
M  V30 18168 N 3236.56 1.67126 -2.8339 0
M  V30 18169 C 3236.44 0.401421 -3.30572 0
M  V30 18170 H 3233.46 -0.374722 -8.67691 0
M  V30 18171 H 3233.19 -0.443485 -6.90277 0
M  V30 18172 H 3234.06 1.75537 -7.96793 0
M  V30 18173 P 3238.02 2.75334 -8.47391 0
M  V30 18174 O 3238.24 3.84128 -9.44797 0
M  V30 18175 O 3238.81 1.51947 -8.68712 0
M  V30 18176 O 3238.27 3.29363 -6.99321 0
M  V30 18177 C 3237.33 4.24011 -6.4274 0
M  V30 18178 C 3238.06 5.20775 -5.52155 0
M  V30 18179 O 3238.27 4.56534 -4.22446 0
M  V30 18180 C 3239.46 5.62629 -5.96531 0
M  V30 18181 O 3239.85 6.87667 -5.41053 0
M  V30 18182 C 3240.34 4.52537 -5.39283 0
M  V30 18183 C 3239.63 4.20027 -4.08623 0
M  V30 18184 N 3239.68 2.76189 -3.71603 0
M  V30 18185 H 3236.84 4.797 -7.24003 0
M  V30 18186 H 3236.57 3.69856 -5.84513 0
M  V30 18187 H 3237.44 6.10356 -5.41441 0
M  V30 18188 P 3241.4 7.20834 -5.23717 0
M  V30 18189 O 3241.62 8.66189 -5.38625 0
M  V30 18190 O 3242.19 6.33615 -6.1356 0
M  V30 18191 O 3241.65 6.7751 -3.72168 0
M  V30 18192 C 3240.71 7.20732 -2.70725 0
M  V30 18193 C 3241.44 7.45864 -1.40599 0
M  V30 18194 O 3241.65 6.17651 -0.734225 0
M  V30 18195 C 3242.84 8.05808 -1.51899 0
M  V30 18196 O 3243.23 8.74358 -0.335205 0
M  V30 18197 C 3243.72 6.83093 -1.70294 0
M  V30 18198 C 3243.01 5.79992 -0.836974 0
M  V30 18199 N 3243.06 4.41769 -1.38263 0
M  V30 18200 C 3243.21 3.38591 -0.481702 0
M  V30 18201 O 3243.3 3.56839 0.718452 0
M  V30 18202 N 3243.25 2.1206 -1.03569 0
M  V30 18203 C 3243.16 1.80696 -2.36966 0
M  V30 18204 C 3243.01 2.94845 -3.23898 0
M  V30 18205 C 3242.96 4.19803 -2.73435 0
M  V30 18206 H 3240.22 8.13644 -3.0377 0
M  V30 18207 H 3239.95 6.42695 -2.55448 0
M  V30 18208 H 3240.82 8.12039 -0.792769 0
M  V30 18209 H 3243.47 5.79978 0.160587 0
M  V30 18210 H 3243.75 6.51379 -2.75643 0
M  V30 18211 H 3244.74 7.01734 -1.34462 0
M  V30 18212 H 3242.91 8.73674 -2.38337 0
M  V30 18213 H 3242.84 5.04492 -3.4095 0
M  V30 18214 P 3244.78 8.91 -1.11634e-10 0
M  V30 18215 O 3245 10.1746 0.733838 0
M  V30 18216 O 3245.57 8.73346 -1.23964 0
M  V30 18217 O 3245.03 7.66872 0.971405 0
M  V30 18218 C 3244.09 7.42405 2.04668 0
M  V30 18219 C 3244.82 6.86059 3.24661 0
M  V30 18220 O 3245.03 5.42934 3.03695 0
M  V30 18221 C 3246.22 7.41287 3.50796 0
M  V30 18222 O 3246.61 7.27073 4.86816 0
M  V30 18223 C 3247.1 6.5273 2.63741 0
M  V30 18224 C 3246.39 5.1842 2.73198 0
M  V30 18225 N 3246.44 4.38762 1.4784 0
M  V30 18226 H 3243.6 8.36899 2.3252 0
M  V30 18227 H 3243.33 6.70391 1.71179 0
M  V30 18228 H 3244.2 7.03638 4.13219 0
M  V30 18229 H 3246.85 4.59931 3.54016 0
M  V30 18230 H 3247.13 6.88995 1.59871 0
M  V30 18231 H 3248.12 6.4684 3.0373 0
M  V30 18232 H 3246.29 8.47002 3.20749 0
M  V30 18233 P 3248.16 7.20834 5.23717 0
M  V30 18234 O 3248.38 7.7993 6.57351 0
M  V30 18235 O 3248.95 7.79328 4.13004 0
M  V30 18236 O 3248.41 5.63315 5.29344 0
M  V30 18237 C 3247.47 4.80193 6.01798 0
M  V30 18238 C 3248.2 3.64202 6.65911 0
M  V30 18239 O 3248.41 2.60694 5.64732 0
M  V30 18240 C 3249.6 3.93473 7.1943 0
M  V30 18241 O 3249.99 3.02071 8.21205 0
M  V30 18242 C 3250.48 3.73047 5.97036 0
M  V30 18243 C 3249.77 2.58828 5.25741 0
M  V30 18244 N 3249.82 2.6801 3.77422 0
M  V30 18245 C 3249.97 1.50443 3.07133 0
M  V30 18246 O 3250.06 0.419406 3.61576 0
M  V30 18247 N 3250.01 1.6403 1.69677 0
M  V30 18248 C 3249.92 2.81206 0.986255 0
M  V30 18249 O 3249.97 2.80892 -0.249754 0
M  V30 18250 C 3249.77 3.99158 1.80325 0
M  V30 18251 C 3249.66 5.29309 1.06921 0
M  V30 18252 C 3249.72 3.89779 3.1476 0
M  V30 18253 H 3246.98 5.40332 6.79951 0
M  V30 18254 H 3246.71 4.41549 5.32301 0
M  V30 18255 H 3247.58 3.26331 7.47797 0
M  V30 18256 H 3250.23 1.6395 5.56554 0
M  V30 18257 H 3250.51 4.63439 5.3432 0
M  V30 18258 H 3251.5 3.44728 6.25838 0
M  V30 18259 H 3249.67 4.96652 7.57263 0
M  V30 18260 H 3249.6 4.80159 3.74441 0
M  V30 18261 H 3250.63 5.81459 1.09608 0
M  V30 18262 H 3248.89 5.9187 1.54487 0
M  V30 18263 H 3249.38 5.10095 0.0220288 0
M  V30 18264 H 3250.12 0.798962 1.16664 0
M  V30 18265 P 3251.54 2.75334 8.47391 0
M  V30 18266 O 3251.76 2.44571 9.90142 0
M  V30 18267 O 3252.33 3.87688 7.92115 0
M  V30 18268 O 3251.79 1.4459 7.59357 0
M  V30 18269 C 3250.85 0.347608 7.69215 0
M  V30 18270 C 3251.58 -0.96767 7.52806 0
M  V30 18271 O 3251.79 -1.21036 6.1011 0
M  V30 18272 C 3252.98 -1.04544 8.13308 0
M  V30 18273 O 3253.37 -2.38311 8.41922 0
M  V30 18274 C 3253.86 -0.491279 7.02284 0
M  V30 18275 C 3253.15 -0.996264 5.77469 0
M  V30 18276 N 3253.2 -0.0501916 4.62973 0
M  V30 18277 H 3250.36 0.374722 8.67691 0
M  V30 18278 H 3250.09 0.443485 6.90277 0
M  V30 18279 H 3250.96 -1.75537 7.96793 0
M  V30 18280 P 3254.92 -2.75334 8.47391 0
M  V30 18281 O 3255.14 -3.84166 9.4489 0
M  V30 18282 O 3255.71 -1.51964 8.6881 0
M  V30 18283 O 3255.17 -3.29363 6.99321 0
M  V30 18284 C 3254.23 -4.23956 6.42656 0
M  V30 18285 C 3254.96 -5.20775 5.52155 0
M  V30 18286 O 3255.17 -4.56534 4.22446 0
M  V30 18287 C 3256.36 -5.62629 5.96531 0
M  V30 18288 O 3256.75 -6.87667 5.41053 0
M  V30 18289 C 3257.24 -4.52537 5.39283 0
M  V30 18290 C 3256.53 -4.20027 4.08623 0
M  V30 18291 N 3256.58 -2.7613 3.71522 0
M  V30 18292 C 3256.73 -2.45612 2.37989 0
M  V30 18293 O 3256.82 -3.30919 1.51621 0
M  V30 18294 N 3256.77 -1.10684 2.08435 0
M  V30 18295 C 3256.68 -0.0690084 2.9792 0
M  V30 18296 O 3256.73 1.10553 2.59426 0
M  V30 18297 C 3256.53 -0.481522 4.35345 0
M  V30 18298 C 3256.42 0.618778 5.36443 0
M  V30 18299 C 3256.48 -1.78906 4.67968 0
M  V30 18300 H 3253.74 -4.797 7.24003 0
M  V30 18301 H 3253.47 -3.69802 5.84429 0
M  V30 18302 H 3254.34 -6.10356 5.41441 0
M  V30 18303 H 3256.99 -4.78651 3.27911 0
M  V30 18304 H 3257.27 -3.64957 6.05871 0
M  V30 18305 H 3258.26 -4.8868 5.2125 0
M  V30 18306 H 3256.43 -5.66726 7.06352 0
M  V30 18307 H 3256.36 -2.07737 5.72367 0
M  V30 18308 H 3257.39 0.754375 5.86871 0
M  V30 18309 H 3255.65 0.359721 6.10641 0
M  V30 18310 H 3256.14 1.55533 4.8581 0
M  V30 18311 H 3256.88 -0.862651 1.12037 0
M  V30 18312 P 3258.3 -7.20834 5.23717 0
M  V30 18313 O 3258.52 -8.66189 5.38625 0
M  V30 18314 O 3259.09 -6.33615 6.1356 0
M  V30 18315 O 3258.55 -6.7751 3.72168 0
M  V30 18316 C 3257.61 -7.20732 2.70725 0
M  V30 18317 C 3258.34 -7.45864 1.40599 0
M  V30 18318 O 3258.55 -6.17651 0.734225 0
M  V30 18319 C 3259.74 -8.05808 1.51899 0
M  V30 18320 O 3260.13 -8.74358 0.335205 0
M  V30 18321 C 3260.62 -6.83093 1.70294 0
M  V30 18322 C 3259.91 -5.79992 0.836974 0
M  V30 18323 N 3259.96 -4.41769 1.38263 0
M  V30 18324 C 3260.11 -3.38591 0.481702 0
M  V30 18325 O 3260.2 -3.56839 -0.718452 0
M  V30 18326 N 3260.15 -2.1206 1.03569 0
M  V30 18327 C 3260.06 -1.80696 2.36966 0
M  V30 18328 O 3260.11 -0.630473 2.74862 0
M  V30 18329 C 3259.91 -2.94845 3.23898 0
M  V30 18330 C 3259.8 -2.65253 4.70362 0
M  V30 18331 C 3259.86 -4.19803 2.73435 0
M  V30 18332 H 3257.12 -8.13644 3.0377 0
M  V30 18333 H 3256.85 -6.42695 2.55448 0
M  V30 18334 H 3257.72 -8.12039 0.792769 0
M  V30 18335 H 3260.37 -5.79978 -0.160587 0
M  V30 18336 H 3260.65 -6.51379 2.75643 0
M  V30 18337 H 3261.64 -7.01734 1.34462 0
M  V30 18338 H 3259.81 -8.73674 2.38337 0
M  V30 18339 H 3259.74 -5.04492 3.4095 0
M  V30 18340 H 3260.77 -2.83924 5.1913 0
M  V30 18341 H 3259.03 -3.29824 5.15163 0
M  V30 18342 H 3259.52 -1.59723 4.84449 0
M  V30 18343 H 3260.26 -1.35644 0.399345 0
M  V30 18344 P 3261.68 -8.91 1.12743e-10 0
M  V30 18345 O 3261.9 -10.1726 -0.733694 0
M  V30 18346 O 3262.47 -8.73148 1.23936 0
M  V30 18347 O 3261.93 -7.66872 -0.971405 0
M  V30 18348 C 3260.99 -7.42309 -2.04641 0
M  V30 18349 C 3261.72 -6.86059 -3.24661 0
M  V30 18350 O 3261.93 -5.42847 -3.03646 0
M  V30 18351 C 3263.12 -7.41196 -3.50753 0
M  V30 18352 O 3263.51 -7.27073 -4.86816 0
M  V30 18353 C 3264 -6.5273 -2.63741 0
M  V30 18354 C 3263.29 -5.1842 -2.73198 0
M  V30 18355 N 3263.34 -4.38762 -1.4784 0
M  V30 18356 H 3260.5 -8.36803 -2.32493 0
M  V30 18357 H 3260.23 -6.70197 -1.71129 0
M  V30 18358 H 3261.1 -7.03551 -4.13168 0
M  V30 18359 P 3265.06 -7.20834 -5.23717 0
M  V30 18360 O 3265.28 -7.79853 -6.57286 0
M  V30 18361 O 3265.85 -7.79239 -4.12957 0
M  V30 18362 O 3265.31 -5.63315 -5.29344 0
M  V30 18363 C 3264.37 -4.80255 -6.01876 0
M  V30 18364 C 3265.1 -3.64202 -6.65911 0
M  V30 18365 O 3265.31 -2.60694 -5.64732 0
M  V30 18366 C 3266.5 -3.93473 -7.1943 0
M  V30 18367 O 3266.89 -3.02071 -8.21205 0
M  V30 18368 C 3267.38 -3.73047 -5.97036 0
M  V30 18369 C 3266.67 -2.58828 -5.25741 0
M  V30 18370 N 3266.72 -2.68068 -3.77503 0
M  V30 18371 H 3263.88 -5.40332 -6.79951 0
M  V30 18372 H 3263.61 -4.41613 -5.32378 0
M  V30 18373 H 3264.48 -3.26331 -7.47797 0
M  V30 18374 P 3268.44 -2.75334 -8.47391 0
M  V30 18375 O 3268.66 -2.44571 -9.90142 0
M  V30 18376 O 3269.23 -3.87688 -7.92115 0
M  V30 18377 O 3268.69 -1.4459 -7.59357 0
M  V30 18378 C 3267.75 -0.347608 -7.69215 0
M  V30 18379 C 3268.48 0.96767 -7.52806 0
M  V30 18380 O 3268.69 1.21036 -6.1011 0
M  V30 18381 C 3269.88 1.04544 -8.13308 0
M  V30 18382 O 3270.27 2.38311 -8.41922 0
M  V30 18383 C 3270.76 0.491279 -7.02284 0
M  V30 18384 C 3270.05 0.996264 -5.77469 0
M  V30 18385 N 3270.1 0.0501916 -4.62973 0
M  V30 18386 H 3267.26 -0.374722 -8.67691 0
M  V30 18387 H 3266.99 -0.443485 -6.90277 0
M  V30 18388 H 3267.86 1.75537 -7.96793 0
M  V30 18389 P 3271.82 2.75334 -8.47391 0
M  V30 18390 O 3272.04 3.84128 -9.44797 0
M  V30 18391 O 3272.61 1.51947 -8.68712 0
M  V30 18392 O 3272.07 3.29363 -6.99321 0
M  V30 18393 C 3271.13 4.24011 -6.4274 0
M  V30 18394 C 3271.86 5.20775 -5.52155 0
M  V30 18395 O 3272.07 4.56534 -4.22446 0
M  V30 18396 C 3273.26 5.62629 -5.96531 0
M  V30 18397 O 3273.65 6.87667 -5.41053 0
M  V30 18398 C 3274.14 4.52537 -5.39283 0
M  V30 18399 C 3273.43 4.20027 -4.08623 0
M  V30 18400 N 3273.48 2.76189 -3.71603 0
M  V30 18401 H 3270.64 4.797 -7.24003 0
M  V30 18402 H 3270.37 3.69856 -5.84513 0
M  V30 18403 H 3271.24 6.10356 -5.41441 0
M  V30 18404 P 3275.2 7.20834 -5.23717 0
M  V30 18405 O 3275.42 8.66104 -5.38572 0
M  V30 18406 O 3275.99 6.33544 -6.1349 0
M  V30 18407 O 3275.45 6.7751 -3.72168 0
M  V30 18408 C 3274.51 7.20825 -2.7076 0
M  V30 18409 C 3275.24 7.45864 -1.40599 0
M  V30 18410 O 3275.45 6.17651 -0.734225 0
M  V30 18411 C 3276.64 8.05808 -1.51899 0
M  V30 18412 O 3277.03 8.74358 -0.335205 0
M  V30 18413 C 3277.52 6.83093 -1.70294 0
M  V30 18414 C 3276.81 5.79992 -0.836974 0
M  V30 18415 N 3276.86 4.41864 -1.38293 0
M  V30 18416 H 3274.02 8.13644 -3.0377 0
M  V30 18417 H 3273.75 6.42788 -2.55485 0
M  V30 18418 H 3274.62 8.12039 -0.792769 0
M  V30 18419 P 3278.58 8.91 -1.13852e-10 0
M  V30 18420 O 3278.8 10.1726 0.733694 0
M  V30 18421 O 3279.37 8.73148 -1.23936 0
M  V30 18422 O 3278.83 7.66872 0.971405 0
M  V30 18423 C 3277.89 7.42309 2.04641 0
M  V30 18424 C 3278.62 6.86059 3.24661 0
M  V30 18425 O 3278.83 5.42847 3.03646 0
M  V30 18426 C 3280.02 7.41196 3.50753 0
M  V30 18427 O 3280.41 7.27073 4.86816 0
M  V30 18428 C 3280.9 6.5273 2.63741 0
M  V30 18429 C 3280.19 5.1842 2.73198 0
M  V30 18430 N 3280.24 4.38762 1.4784 0
M  V30 18431 H 3277.4 8.36803 2.32493 0
M  V30 18432 H 3277.13 6.70197 1.71129 0
M  V30 18433 H 3278 7.03551 4.13168 0
M  V30 18434 P 3281.96 7.20834 5.23717 0
M  V30 18435 O 3282.18 7.80006 6.57415 0
M  V30 18436 O 3282.75 7.79416 4.13051 0
M  V30 18437 O 3282.21 5.63315 5.29344 0
M  V30 18438 C 3281.27 4.80318 6.01954 0
M  V30 18439 C 3282 3.64202 6.65911 0
M  V30 18440 O 3282.21 2.60736 5.64823 0
M  V30 18441 C 3283.4 3.93521 7.19518 0
M  V30 18442 O 3283.79 3.02071 8.21205 0
M  V30 18443 C 3284.28 3.73047 5.97036 0
M  V30 18444 C 3283.57 2.58828 5.25741 0
M  V30 18445 N 3283.62 2.68068 3.77503 0
M  V30 18446 H 3280.78 5.40394 6.8003 0
M  V30 18447 H 3280.51 4.41741 5.32532 0
M  V30 18448 H 3281.38 3.26371 7.47889 0
M  V30 18449 H 3284.03 1.64007 5.56746 0
M  V30 18450 H 3284.31 4.63439 5.3432 0
M  V30 18451 H 3285.3 3.44776 6.25925 0
M  V30 18452 H 3283.47 4.96707 7.57347 0
M  V30 18453 P 3285.34 2.75334 8.47391 0
M  V30 18454 O 3285.56 2.44595 9.90239 0
M  V30 18455 O 3286.13 3.87732 7.92204 0
M  V30 18456 O 3285.59 1.4459 7.59357 0
M  V30 18457 C 3284.65 0.347563 7.69115 0
M  V30 18458 C 3285.38 -0.96767 7.52806 0
M  V30 18459 O 3285.59 -1.21036 6.1011 0
M  V30 18460 C 3286.78 -1.04544 8.13308 0
M  V30 18461 O 3287.17 -2.38311 8.41922 0
M  V30 18462 C 3287.66 -0.491279 7.02284 0
M  V30 18463 C 3286.95 -0.996264 5.77469 0
M  V30 18464 N 3287 -0.0501808 4.62873 0
M  V30 18465 C 3287.15 -0.588177 3.36904 0
M  V30 18466 O 3287.24 -1.78598 3.17173 0
M  V30 18467 N 3287.19 0.329694 2.33686 0
M  V30 18468 C 3287.1 1.6953 2.45079 0
M  V30 18469 O 3287.15 2.41926 1.44899 0
M  V30 18470 C 3286.95 2.16933 3.80505 0
M  V30 18471 C 3286.84 3.65373 3.97621 0
M  V30 18472 C 3286.9 1.30326 4.83752 0
M  V30 18473 H 3284.16 0.374722 8.67691 0
M  V30 18474 H 3283.89 0.443421 6.90177 0
M  V30 18475 H 3284.76 -1.75537 7.96793 0
M  V30 18476 H 3287.41 -1.94496 5.46629 0
M  V30 18477 H 3287.69 0.608651 7.04676 0
M  V30 18478 H 3288.68 -0.889672 7.08939 0
M  V30 18479 H 3286.85 -0.43308 9.04564 0
M  V30 18480 H 3286.78 1.68366 5.8516 0
M  V30 18481 H 3287.81 4.05985 4.30448 0
M  V30 18482 H 3286.07 3.88028 4.72875 0
M  V30 18483 H 3286.56 4.11381 3.01609 0
M  V30 18484 H 3287.3 -0.0393617 1.41345 0
M  V30 18485 P 3288.72 -2.75334 8.47391 0
M  V30 18486 O 3288.94 -3.84128 9.44797 0
M  V30 18487 O 3289.51 -1.51947 8.68712 0
M  V30 18488 O 3288.97 -3.29363 6.99321 0
M  V30 18489 C 3288.03 -4.24011 6.4274 0
M  V30 18490 C 3288.76 -5.20775 5.52155 0
M  V30 18491 O 3288.97 -4.56534 4.22446 0
M  V30 18492 C 3290.16 -5.62629 5.96531 0
M  V30 18493 O 3290.55 -6.87667 5.41053 0
M  V30 18494 C 3291.04 -4.52537 5.39283 0
M  V30 18495 C 3290.33 -4.20027 4.08623 0
M  V30 18496 N 3290.38 -2.76189 3.71603 0
M  V30 18497 H 3287.54 -4.797 7.24003 0
M  V30 18498 H 3287.27 -3.69856 5.84513 0
M  V30 18499 H 3288.14 -6.10356 5.41441 0
M  V30 18500 P 3292.1 -7.20834 5.23717 0
M  V30 18501 O 3292.32 -8.66104 5.38572 0
M  V30 18502 O 3292.89 -6.33544 6.1349 0
M  V30 18503 O 3292.35 -6.7751 3.72168 0
M  V30 18504 C 3291.41 -7.20825 2.7076 0
M  V30 18505 C 3292.14 -7.45864 1.40599 0
M  V30 18506 O 3292.35 -6.17651 0.734225 0
M  V30 18507 C 3293.54 -8.05808 1.51899 0
M  V30 18508 O 3293.93 -8.74358 0.335205 0
M  V30 18509 C 3294.42 -6.83093 1.70294 0
M  V30 18510 C 3293.71 -5.79992 0.836974 0
M  V30 18511 N 3293.76 -4.41864 1.38293 0
M  V30 18512 H 3290.92 -8.13644 3.0377 0
M  V30 18513 H 3290.65 -6.42788 2.55485 0
M  V30 18514 H 3291.52 -8.12039 0.792769 0
M  V30 18515 P 3295.48 -8.91 1.14961e-10 0
M  V30 18516 O 3295.7 -10.1726 -0.733694 0
M  V30 18517 O 3296.27 -8.73148 1.23936 0
M  V30 18518 O 3295.73 -7.66872 -0.971405 0
M  V30 18519 C 3294.79 -7.42309 -2.04641 0
M  V30 18520 C 3295.52 -6.86059 -3.24661 0
M  V30 18521 O 3295.73 -5.42847 -3.03646 0
M  V30 18522 C 3296.92 -7.41196 -3.50753 0
M  V30 18523 O 3297.31 -7.27073 -4.86816 0
M  V30 18524 C 3297.8 -6.5273 -2.63741 0
M  V30 18525 C 3297.09 -5.1842 -2.73198 0
M  V30 18526 N 3297.14 -4.38762 -1.4784 0
M  V30 18527 H 3294.3 -8.36803 -2.32493 0
M  V30 18528 H 3294.03 -6.70197 -1.71129 0
M  V30 18529 H 3294.9 -7.03551 -4.13168 0
M  V30 18530 P 3298.86 -7.20834 -5.23717 0
M  V30 18531 O 3299.08 -7.79853 -6.57286 0
M  V30 18532 O 3299.65 -7.79239 -4.12957 0
M  V30 18533 O 3299.11 -5.63315 -5.29344 0
M  V30 18534 C 3298.17 -4.80255 -6.01876 0
M  V30 18535 C 3298.9 -3.64202 -6.65911 0
M  V30 18536 O 3299.11 -2.60694 -5.64732 0
M  V30 18537 C 3300.3 -3.93473 -7.1943 0
M  V30 18538 O 3300.69 -3.02071 -8.21205 0
M  V30 18539 C 3301.18 -3.73047 -5.97036 0
M  V30 18540 C 3300.47 -2.58828 -5.25741 0
M  V30 18541 N 3300.52 -2.68068 -3.77503 0
M  V30 18542 H 3297.68 -5.40332 -6.79951 0
M  V30 18543 H 3297.41 -4.41613 -5.32378 0
M  V30 18544 H 3298.28 -3.26331 -7.47797 0
M  V30 18545 P 3302.24 -2.75334 -8.47391 0
M  V30 18546 O 3302.46 -2.44619 -9.90336 0
M  V30 18547 O 3303.03 -3.87776 -7.92294 0
M  V30 18548 O 3302.49 -1.4459 -7.59357 0
M  V30 18549 C 3301.55 -0.347653 -7.69315 0
M  V30 18550 C 3302.28 0.96767 -7.52806 0
M  V30 18551 O 3302.49 1.21055 -6.10208 0
M  V30 18552 C 3303.68 1.04557 -8.13408 0
M  V30 18553 O 3304.07 2.38311 -8.41922 0
M  V30 18554 C 3304.56 0.491279 -7.02284 0
M  V30 18555 C 3303.85 0.996264 -5.77469 0
M  V30 18556 N 3303.9 0.0501916 -4.62973 0
M  V30 18557 C 3303.82 -1.31969 -4.65661 0
M  V30 18558 N 3303.89 -1.86649 -3.48119 0
M  V30 18559 C 3304.04 -0.792089 -2.62406 0
M  V30 18560 C 3304.17 -0.705684 -1.2207 0
M  V30 18561 N 3304.18 -1.76207 -0.413762 0
M  V30 18562 N 3304.29 0.518981 -0.685754 0
M  V30 18563 C 3304.28 1.57595 -1.49174 0
M  V30 18564 N 3304.16 1.62909 -2.80066 0
M  V30 18565 C 3304.04 0.388195 -3.3073 0
M  V30 18566 H 3301.06 -0.374765 -8.67791 0
M  V30 18567 H 3300.79 -0.443613 -6.90476 0
M  V30 18568 H 3301.66 1.75559 -7.96891 0
M  V30 18569 H 3304.31 1.94563 -5.46818 0
M  V30 18570 H 3304.59 -0.608651 -7.04676 0
M  V30 18571 H 3305.58 0.889796 -7.09039 0
M  V30 18572 H 3303.75 0.433128 -9.04664 0
M  V30 18573 H 3303.71 -1.89246 -5.57664 0
M  V30 18574 H 3304.09 -2.71005 -0.804694 0
M  V30 18575 H 3304.28 -1.63189 0.603768 0
M  V30 18576 H 3304.39 2.53475 -0.997614 0
M  V30 18577 P 3305.62 2.75334 -8.47391 0
M  V30 18578 O 3305.84 3.84128 -9.44797 0
M  V30 18579 O 3306.41 1.51947 -8.68712 0
M  V30 18580 O 3305.87 3.29363 -6.99321 0
M  V30 18581 C 3304.93 4.24011 -6.4274 0
M  V30 18582 C 3305.66 5.20775 -5.52155 0
M  V30 18583 O 3305.87 4.56534 -4.22446 0
M  V30 18584 C 3307.06 5.62629 -5.96531 0
M  V30 18585 O 3307.45 6.87667 -5.41053 0
M  V30 18586 C 3307.94 4.52537 -5.39283 0
M  V30 18587 C 3307.23 4.20027 -4.08623 0
M  V30 18588 N 3307.28 2.76189 -3.71603 0
M  V30 18589 H 3304.44 4.797 -7.24003 0
M  V30 18590 H 3304.17 3.69856 -5.84513 0
M  V30 18591 H 3305.04 6.10356 -5.41441 0
M  V30 18592 P 3309 7.20834 -5.23717 0
M  V30 18593 O 3309.22 8.66274 -5.38678 0
M  V30 18594 O 3309.79 6.33687 -6.13629 0
M  V30 18595 O 3309.25 6.7751 -3.72168 0
M  V30 18596 C 3308.31 7.20919 -2.70795 0
M  V30 18597 C 3309.04 7.45864 -1.40599 0
M  V30 18598 O 3309.25 6.17751 -0.734343 0
M  V30 18599 C 3310.44 8.05906 -1.51917 0
M  V30 18600 O 3310.83 8.74358 -0.335205 0
M  V30 18601 C 3311.32 6.83093 -1.70294 0
M  V30 18602 C 3310.61 5.79992 -0.836974 0
M  V30 18603 N 3310.66 4.41864 -1.38293 0
M  V30 18604 C 3310.58 4.02089 -2.69407 0
M  V30 18605 N 3310.65 2.73403 -2.85089 0
M  V30 18606 C 3310.8 2.25086 -1.5642 0
M  V30 18607 C 3310.93 0.942887 -1.04836 0
M  V30 18608 N 3310.94 -0.150999 -1.80369 0
M  V30 18609 N 3311.05 0.812565 0.28167 0
M  V30 18610 C 3311.04 1.90572 1.03784 0
M  V30 18611 N 3310.92 3.167 0.683905 0
M  V30 18612 C 3310.8 3.26538 -0.652815 0
M  V30 18613 H 3307.82 8.13738 -3.03804 0
M  V30 18614 H 3307.55 6.42974 -2.55559 0
M  V30 18615 H 3308.42 8.12139 -0.792866 0
M  V30 18616 H 3311.07 5.80178 0.160643 0
M  V30 18617 H 3311.35 6.51379 -2.75643 0
M  V30 18618 H 3312.34 7.01832 -1.3448 0
M  V30 18619 H 3310.51 8.73771 -2.38364 0
M  V30 18620 H 3310.47 4.7189 -3.52311 0
M  V30 18621 H 3310.85 -0.0721434 -2.82608 0
M  V30 18622 H 3311.04 -1.0785 -1.36544 0
M  V30 18623 H 3311.15 1.73207 2.10241 0
M  V30 18624 P 3312.38 8.91 -1.1607e-10 0
M  V30 18625 O 3312.6 10.1726 0.733694 0
M  V30 18626 O 3313.17 8.73148 -1.23936 0
M  V30 18627 O 3312.63 7.66872 0.971405 0
M  V30 18628 C 3311.69 7.42309 2.04641 0
M  V30 18629 C 3312.42 6.86059 3.24661 0
M  V30 18630 O 3312.63 5.42847 3.03646 0
M  V30 18631 C 3313.82 7.41196 3.50753 0
M  V30 18632 O 3314.21 7.27073 4.86816 0
M  V30 18633 C 3314.7 6.5273 2.63741 0
M  V30 18634 C 3313.99 5.1842 2.73198 0
M  V30 18635 N 3314.04 4.38762 1.4784 0
M  V30 18636 H 3311.2 8.36803 2.32493 0
M  V30 18637 H 3310.93 6.70197 1.71129 0
M  V30 18638 H 3311.8 7.03551 4.13168 0
M  V30 18639 P 3315.76 7.20834 5.23717 0
M  V30 18640 O 3315.98 7.79853 6.57286 0
M  V30 18641 O 3316.55 7.79239 4.12957 0
M  V30 18642 O 3316.01 5.63315 5.29344 0
M  V30 18643 C 3315.07 4.80255 6.01876 0
M  V30 18644 C 3315.8 3.64202 6.65911 0
M  V30 18645 O 3316.01 2.60694 5.64732 0
M  V30 18646 C 3317.2 3.93473 7.1943 0
M  V30 18647 O 3317.59 3.02071 8.21205 0
M  V30 18648 C 3318.08 3.73047 5.97036 0
M  V30 18649 C 3317.37 2.58828 5.25741 0
M  V30 18650 N 3317.42 2.68068 3.77503 0
M  V30 18651 C 3317.34 3.79715 2.96723 0
M  V30 18652 N 3317.42 3.5377 1.68852 0
M  V30 18653 C 3317.56 2.15054 1.63254 0
M  V30 18654 C 3317.69 1.28964 0.518571 0
M  V30 18655 N 3317.81 -0.0538097 0.918425 0
M  V30 18656 C 3317.81 -0.494275 2.22578 0
M  V30 18657 N 3317.94 -1.81086 2.40434 0
M  V30 18658 N 3317.68 0.313645 3.27502 0
M  V30 18659 C 3317.56 1.61829 2.91033 0
M  V30 18660 H 3314.58 5.40332 6.79951 0
M  V30 18661 H 3314.31 4.41613 5.32378 0
M  V30 18662 H 3315.18 3.26331 7.47797 0
M  V30 18663 P 3319.14 2.75334 8.47391 0
M  V30 18664 O 3319.36 2.44571 9.90142 0
M  V30 18665 O 3319.93 3.87688 7.92115 0
M  V30 18666 O 3319.39 1.4459 7.59357 0
M  V30 18667 C 3318.45 0.347608 7.69215 0
M  V30 18668 C 3319.18 -0.96767 7.52806 0
M  V30 18669 O 3319.39 -1.21036 6.1011 0
M  V30 18670 C 3320.58 -1.04544 8.13308 0
M  V30 18671 O 3320.97 -2.38311 8.41922 0
M  V30 18672 C 3321.46 -0.491279 7.02284 0
M  V30 18673 C 3320.75 -0.996264 5.77469 0
M  V30 18674 N 3320.8 -0.0501916 4.62973 0
M  V30 18675 H 3317.96 0.374722 8.67691 0
M  V30 18676 H 3317.69 0.443485 6.90277 0
M  V30 18677 H 3318.56 -1.75537 7.96793 0
M  V30 18678 P 3322.52 -2.75334 8.47391 0
M  V30 18679 O 3322.74 -3.84128 9.44797 0
M  V30 18680 O 3323.31 -1.51947 8.68712 0
M  V30 18681 O 3322.77 -3.29363 6.99321 0
M  V30 18682 C 3321.83 -4.24011 6.4274 0
M  V30 18683 C 3322.56 -5.20775 5.52155 0
M  V30 18684 O 3322.77 -4.56534 4.22446 0
M  V30 18685 C 3323.96 -5.62629 5.96531 0
M  V30 18686 O 3324.35 -6.87667 5.41053 0
M  V30 18687 C 3324.84 -4.52537 5.39283 0
M  V30 18688 C 3324.13 -4.20027 4.08623 0
M  V30 18689 N 3324.18 -2.76189 3.71603 0
M  V30 18690 C 3324.1 -1.64862 4.52822 0
M  V30 18691 N 3324.18 -0.512671 3.88633 0
M  V30 18692 C 3324.32 -0.888083 2.54977 0
M  V30 18693 C 3324.45 -0.094668 1.38677 0
M  V30 18694 O 3324.47 1.13053 1.28163 0
M  V30 18695 N 3324.57 -0.890102 0.232633 0
M  V30 18696 C 3324.57 -2.26958 0.21772 0
M  V30 18697 N 3324.7 -2.84626 -0.97925 0
M  V30 18698 N 3324.44 -3.0178 1.31033 0
M  V30 18699 C 3324.32 -2.26781 2.43843 0
M  V30 18700 H 3321.34 -4.797 7.24003 0
M  V30 18701 H 3321.07 -3.69856 5.84513 0
M  V30 18702 H 3321.94 -6.10356 5.41441 0
M  V30 18703 H 3324.59 -4.79061 3.27488 0
M  V30 18704 H 3324.87 -3.64906 6.05785 0
M  V30 18705 H 3325.86 -4.8868 5.2125 0
M  V30 18706 H 3324.03 -5.66726 7.06352 0
M  V30 18707 H 3323.98 -1.71169 5.60966 0
M  V30 18708 H 3324.66 -0.419134 -0.644739 0
M  V30 18709 H 3324.7 -3.87332 -1.06098 0
M  V30 18710 H 3324.8 -2.26417 -1.82483 0
M  V30 18711 P 3325.9 -7.20834 5.23717 0
M  V30 18712 O 3326.12 -8.66104 5.38572 0
M  V30 18713 O 3326.69 -6.33544 6.1349 0
M  V30 18714 O 3326.15 -6.7751 3.72168 0
M  V30 18715 C 3325.21 -7.20825 2.7076 0
M  V30 18716 C 3325.94 -7.45864 1.40599 0
M  V30 18717 O 3326.15 -6.17651 0.734225 0
M  V30 18718 C 3327.34 -8.05808 1.51899 0
M  V30 18719 O 3327.73 -8.74358 0.335205 0
M  V30 18720 C 3328.22 -6.83093 1.70294 0
M  V30 18721 C 3327.51 -5.79992 0.836974 0
M  V30 18722 N 3327.56 -4.41864 1.38293 0
M  V30 18723 H 3324.72 -8.13644 3.0377 0
M  V30 18724 H 3324.45 -6.42788 2.55485 0
M  V30 18725 H 3325.32 -8.12039 0.792769 0
M  V30 18726 P 3329.28 -8.91 1.17179e-10 0
M  V30 18727 O 3329.5 -10.1746 -0.733838 0
M  V30 18728 O 3330.07 -8.73346 1.23964 0
M  V30 18729 O 3329.53 -7.66872 -0.971405 0
M  V30 18730 C 3328.59 -7.42405 -2.04668 0
M  V30 18731 C 3329.32 -6.86059 -3.24661 0
M  V30 18732 O 3329.53 -5.42934 -3.03695 0
M  V30 18733 C 3330.72 -7.41287 -3.50796 0
M  V30 18734 O 3331.11 -7.27073 -4.86816 0
M  V30 18735 C 3331.6 -6.5273 -2.63741 0
M  V30 18736 C 3330.89 -5.1842 -2.73198 0
M  V30 18737 N 3330.94 -4.38762 -1.4784 0
M  V30 18738 H 3328.1 -8.36899 -2.3252 0
M  V30 18739 H 3327.83 -6.70391 -1.71179 0
M  V30 18740 H 3328.7 -7.03638 -4.13219 0
M  V30 18741 H 3331.35 -4.59931 -3.54016 0
M  V30 18742 H 3331.63 -6.88995 -1.59871 0
M  V30 18743 H 3332.62 -6.4684 -3.0373 0
M  V30 18744 H 3330.79 -8.47002 -3.20749 0
M  V30 18745 P 3332.66 -7.20834 -5.23717 0
M  V30 18746 O 3332.88 -7.79853 -6.57286 0
M  V30 18747 O 3333.45 -7.79239 -4.12957 0
M  V30 18748 O 3332.91 -5.63315 -5.29344 0
M  V30 18749 C 3331.97 -4.80255 -6.01876 0
M  V30 18750 C 3332.7 -3.64202 -6.65911 0
M  V30 18751 O 3332.91 -2.60694 -5.64732 0
M  V30 18752 C 3334.1 -3.93473 -7.1943 0
M  V30 18753 O 3334.49 -3.02071 -8.21205 0
M  V30 18754 C 3334.98 -3.73047 -5.97036 0
M  V30 18755 C 3334.27 -2.58828 -5.25741 0
M  V30 18756 N 3334.32 -2.68068 -3.77503 0
M  V30 18757 H 3331.48 -5.40332 -6.79951 0
M  V30 18758 H 3331.21 -4.41613 -5.32378 0
M  V30 18759 H 3332.08 -3.26331 -7.47797 0
M  V30 18760 P 3336.04 -2.75334 -8.47391 0
M  V30 18761 O 3336.26 -2.44571 -9.90142 0
M  V30 18762 O 3336.83 -3.87688 -7.92115 0
M  V30 18763 O 3336.29 -1.4459 -7.59357 0
M  V30 18764 C 3335.35 -0.347608 -7.69215 0
M  V30 18765 C 3336.08 0.96767 -7.52806 0
M  V30 18766 O 3336.29 1.21036 -6.1011 0
M  V30 18767 C 3337.48 1.04544 -8.13308 0
M  V30 18768 O 3337.87 2.38311 -8.41922 0
M  V30 18769 C 3338.36 0.491279 -7.02284 0
M  V30 18770 C 3337.65 0.996264 -5.77469 0
M  V30 18771 N 3337.7 0.0501916 -4.62973 0
M  V30 18772 H 3334.86 -0.374722 -8.67691 0
M  V30 18773 H 3334.59 -0.443485 -6.90277 0
M  V30 18774 H 3335.46 1.75537 -7.96793 0
M  V30 18775 P 3339.42 2.75334 -8.47391 0
M  V30 18776 O 3339.64 3.84128 -9.44797 0
M  V30 18777 O 3340.21 1.51947 -8.68712 0
M  V30 18778 O 3339.67 3.29363 -6.99321 0
M  V30 18779 C 3338.73 4.24011 -6.4274 0
M  V30 18780 C 3339.46 5.20775 -5.52155 0
M  V30 18781 O 3339.67 4.56534 -4.22446 0
M  V30 18782 C 3340.86 5.62629 -5.96531 0
M  V30 18783 O 3341.25 6.87667 -5.41053 0
M  V30 18784 C 3341.74 4.52537 -5.39283 0
M  V30 18785 C 3341.03 4.20027 -4.08623 0
M  V30 18786 N 3341.08 2.76189 -3.71603 0
M  V30 18787 H 3338.24 4.797 -7.24003 0
M  V30 18788 H 3337.97 3.69856 -5.84513 0
M  V30 18789 H 3338.84 6.10356 -5.41441 0
M  V30 18790 P 3342.8 7.20834 -5.23717 0
M  V30 18791 O 3343.02 8.66104 -5.38572 0
M  V30 18792 O 3343.59 6.33544 -6.1349 0
M  V30 18793 O 3343.05 6.7751 -3.72168 0
M  V30 18794 C 3342.11 7.20825 -2.7076 0
M  V30 18795 C 3342.84 7.45864 -1.40599 0
M  V30 18796 O 3343.05 6.17651 -0.734225 0
M  V30 18797 C 3344.24 8.05808 -1.51899 0
M  V30 18798 O 3344.63 8.74358 -0.335205 0
M  V30 18799 C 3345.12 6.83093 -1.70294 0
M  V30 18800 C 3344.41 5.79992 -0.836974 0
M  V30 18801 N 3344.46 4.41864 -1.38293 0
M  V30 18802 H 3341.62 8.13644 -3.0377 0
M  V30 18803 H 3341.35 6.42788 -2.55485 0
M  V30 18804 H 3342.22 8.12039 -0.792769 0
M  V30 18805 P 3346.18 8.91 -1.18288e-10 0
M  V30 18806 O 3346.4 10.1726 0.733694 0
M  V30 18807 O 3346.97 8.73148 -1.23936 0
M  V30 18808 O 3346.43 7.66872 0.971405 0
M  V30 18809 C 3345.49 7.42309 2.04641 0
M  V30 18810 C 3346.22 6.86059 3.24661 0
M  V30 18811 O 3346.43 5.42847 3.03646 0
M  V30 18812 C 3347.62 7.41196 3.50753 0
M  V30 18813 O 3348.01 7.27073 4.86816 0
M  V30 18814 C 3348.5 6.5273 2.63741 0
M  V30 18815 C 3347.79 5.1842 2.73198 0
M  V30 18816 N 3347.84 4.38762 1.4784 0
M  V30 18817 H 3345 8.36803 2.32493 0
M  V30 18818 H 3344.73 6.70197 1.71129 0
M  V30 18819 H 3345.6 7.03551 4.13168 0
M  V30 18820 P 3349.56 7.20834 5.23717 0
M  V30 18821 O 3349.78 7.79853 6.57286 0
M  V30 18822 O 3350.35 7.79239 4.12957 0
M  V30 18823 O 3349.81 5.63315 5.29344 0
M  V30 18824 C 3348.87 4.80255 6.01876 0
M  V30 18825 C 3349.6 3.64202 6.65911 0
M  V30 18826 O 3349.81 2.60694 5.64732 0
M  V30 18827 C 3351 3.93473 7.1943 0
M  V30 18828 O 3351.39 3.02071 8.21205 0
M  V30 18829 C 3351.88 3.73047 5.97036 0
M  V30 18830 C 3351.17 2.58828 5.25741 0
M  V30 18831 N 3351.22 2.68068 3.77503 0
M  V30 18832 H 3348.38 5.40332 6.79951 0
M  V30 18833 H 3348.11 4.41613 5.32378 0
M  V30 18834 H 3348.98 3.26331 7.47797 0
M  V30 18835 P 3352.94 2.75334 8.47391 0
M  V30 18836 O 3353.16 2.44595 9.90239 0
M  V30 18837 O 3353.73 3.87732 7.92204 0
M  V30 18838 O 3353.19 1.4459 7.59357 0
M  V30 18839 C 3352.25 0.347563 7.69115 0
M  V30 18840 C 3352.98 -0.96767 7.52806 0
M  V30 18841 O 3353.19 -1.21036 6.1011 0
M  V30 18842 C 3354.38 -1.04544 8.13308 0
M  V30 18843 O 3354.77 -2.38311 8.41922 0
M  V30 18844 C 3355.26 -0.491279 7.02284 0
M  V30 18845 C 3354.55 -0.996264 5.77469 0
M  V30 18846 N 3354.6 -0.0501808 4.62873 0
M  V30 18847 C 3354.75 -0.588177 3.36904 0
M  V30 18848 O 3354.84 -1.78598 3.17173 0
M  V30 18849 N 3354.79 0.329694 2.33686 0
M  V30 18850 C 3354.7 1.6953 2.45079 0
M  V30 18851 O 3354.75 2.41926 1.44899 0
M  V30 18852 C 3354.55 2.16933 3.80505 0
M  V30 18853 C 3354.44 3.65373 3.97621 0
M  V30 18854 C 3354.5 1.30326 4.83752 0
M  V30 18855 H 3351.76 0.374722 8.67691 0
M  V30 18856 H 3351.49 0.443421 6.90177 0
M  V30 18857 H 3352.36 -1.75537 7.96793 0
M  V30 18858 H 3355.01 -1.94496 5.46629 0
M  V30 18859 H 3355.29 0.608651 7.04676 0
M  V30 18860 H 3356.28 -0.889672 7.08939 0
M  V30 18861 H 3354.45 -0.43308 9.04564 0
M  V30 18862 H 3354.38 1.68366 5.8516 0
M  V30 18863 H 3355.41 4.05985 4.30448 0
M  V30 18864 H 3353.67 3.88028 4.72875 0
M  V30 18865 H 3354.16 4.11381 3.01609 0
M  V30 18866 H 3354.9 -0.0393617 1.41345 0
M  V30 18867 P 3356.32 -2.75334 8.47391 0
M  V30 18868 O 3356.54 -3.84128 9.44797 0
M  V30 18869 O 3357.11 -1.51947 8.68712 0
M  V30 18870 O 3356.57 -3.29363 6.99321 0
M  V30 18871 C 3355.63 -4.24011 6.4274 0
M  V30 18872 C 3356.36 -5.20775 5.52155 0
M  V30 18873 O 3356.57 -4.56534 4.22446 0
M  V30 18874 C 3357.76 -5.62629 5.96531 0
M  V30 18875 O 3358.15 -6.87667 5.41053 0
M  V30 18876 C 3358.64 -4.52537 5.39283 0
M  V30 18877 C 3357.93 -4.20027 4.08623 0
M  V30 18878 N 3357.98 -2.76189 3.71603 0
M  V30 18879 H 3355.14 -4.797 7.24003 0
M  V30 18880 H 3354.87 -3.69856 5.84513 0
M  V30 18881 H 3355.74 -6.10356 5.41441 0
M  V30 18882 P 3359.7 -7.20834 5.23717 0
M  V30 18883 O 3359.92 -8.66104 5.38572 0
M  V30 18884 O 3360.49 -6.33544 6.1349 0
M  V30 18885 O 3359.95 -6.7751 3.72168 0
M  V30 18886 C 3359.01 -7.20825 2.7076 0
M  V30 18887 C 3359.74 -7.45864 1.40599 0
M  V30 18888 O 3359.95 -6.17651 0.734225 0
M  V30 18889 C 3361.14 -8.05808 1.51899 0
M  V30 18890 O 3361.53 -8.74358 0.335205 0
M  V30 18891 C 3362.02 -6.83093 1.70294 0
M  V30 18892 C 3361.31 -5.79992 0.836974 0
M  V30 18893 N 3361.36 -4.41864 1.38293 0
M  V30 18894 H 3358.52 -8.13644 3.0377 0
M  V30 18895 H 3358.25 -6.42788 2.55485 0
M  V30 18896 H 3359.12 -8.12039 0.792769 0
M  V30 18897 P 3363.08 -8.91 1.19397e-10 0
M  V30 18898 O 3363.3 -10.1736 -0.733766 0
M  V30 18899 O 3363.87 -8.73247 1.2395 0
M  V30 18900 O 3363.33 -7.66872 -0.971405 0
M  V30 18901 C 3362.39 -7.42212 -2.04614 0
M  V30 18902 C 3363.12 -6.86059 -3.24661 0
M  V30 18903 O 3363.33 -5.42847 -3.03646 0
M  V30 18904 C 3364.52 -7.41196 -3.50753 0
M  V30 18905 O 3364.91 -7.27073 -4.86816 0
M  V30 18906 C 3365.4 -6.5273 -2.63741 0
M  V30 18907 C 3364.69 -5.1842 -2.73198 0
M  V30 18908 N 3364.74 -4.38668 -1.47808 0
M  V30 18909 C 3364.89 -3.02239 -1.60048 0
M  V30 18910 O 3364.98 -2.46459 -2.67869 0
M  V30 18911 N 3364.93 -2.32436 -0.408571 0
M  V30 18912 C 3364.84 -2.85471 0.854993 0
M  V30 18913 O 3364.89 -2.12566 1.8531 0
M  V30 18914 C 3364.69 -4.28918 0.887335 0
M  V30 18915 C 3364.58 -4.91066 2.24619 0
M  V30 18916 C 3364.64 -5.00349 -0.255399 0
M  V30 18917 H 3361.9 -8.36803 -2.32493 0
M  V30 18918 H 3361.63 -6.701 -1.71105 0
M  V30 18919 H 3362.5 -7.03551 -4.13168 0
M  V30 18920 H 3365.15 -4.59773 -3.53894 0
M  V30 18921 H 3365.43 -6.88995 -1.59871 0
M  V30 18922 H 3366.42 -6.46749 -3.03687 0
M  V30 18923 H 3364.59 -8.46908 -3.20714 0
M  V30 18924 H 3364.52 -6.08548 -0.206986 0
M  V30 18925 H 3365.55 -5.34836 2.53099 0
M  V30 18926 H 3363.81 -5.69638 2.2291 0
M  V30 18927 H 3364.3 -4.13971 2.98044 0
M  V30 18928 H 3365.04 -1.33211 -0.474216 0
M  V30 18929 P 3366.46 -7.20834 -5.23717 0
M  V30 18930 O 3366.68 -7.7993 -6.57351 0
M  V30 18931 O 3367.25 -7.79328 -4.13004 0
M  V30 18932 O 3366.71 -5.63315 -5.29344 0
M  V30 18933 C 3365.77 -4.80255 -6.01876 0
M  V30 18934 C 3366.5 -3.64202 -6.65911 0
M  V30 18935 O 3366.71 -2.60694 -5.64732 0
M  V30 18936 C 3367.9 -3.93473 -7.1943 0
M  V30 18937 O 3368.29 -3.02071 -8.21205 0
M  V30 18938 C 3368.78 -3.73047 -5.97036 0
M  V30 18939 C 3368.07 -2.58828 -5.25741 0
M  V30 18940 N 3368.12 -2.6801 -3.77422 0
M  V30 18941 C 3368.27 -1.50173 -3.05038 0
M  V30 18942 O 3368.36 -0.428832 -3.665 0
M  V30 18943 N 3368.32 -1.70922 -1.55541 0
M  V30 18944 C 3368.22 -2.7407 -1.06402 0
M  V30 18945 N 3368.27 -2.74764 0.260931 0
M  V30 18946 C 3368.07 -3.96781 -1.78296 0
M  V30 18947 C 3368.02 -3.87909 -3.13891 0
M  V30 18948 H 3365.28 -5.4027 -6.79873 0
M  V30 18949 H 3365.01 -4.41549 -5.32301 0
M  V30 18950 H 3365.88 -3.26371 -7.47889 0
M  V30 18951 H 3368.53 -1.63978 -5.5665 0
M  V30 18952 H 3368.81 -4.63439 -5.3432 0
M  V30 18953 H 3369.8 -3.44728 -6.25838 0
M  V30 18954 H 3367.97 -4.96652 -7.57263 0
M  V30 18955 H 3367.9 -4.78425 -3.73088 0
M  V30 18956 H 3368 -4.92593 -1.26997 0
M  V30 18957 H 3368.39 -1.86285 0.77595 0
M  V30 18958 H 3368.19 -3.63657 0.773896 0
M  V30 18959 P 3369.84 -2.75334 -8.47391 0
M  V30 18960 O 3370.06 -2.44571 -9.90142 0
M  V30 18961 O 3370.63 -3.87688 -7.92115 0
M  V30 18962 O 3370.09 -1.4459 -7.59357 0
M  V30 18963 C 3369.15 -0.347608 -7.69215 0
M  V30 18964 C 3369.88 0.96767 -7.52806 0
M  V30 18965 O 3370.09 1.21036 -6.1011 0
M  V30 18966 C 3371.28 1.04544 -8.13308 0
M  V30 18967 O 3371.67 2.38311 -8.41922 0
M  V30 18968 C 3372.16 0.491279 -7.02284 0
M  V30 18969 C 3371.45 0.996264 -5.77469 0
M  V30 18970 N 3371.5 0.0501916 -4.62973 0
M  V30 18971 H 3368.66 -0.374722 -8.67691 0
M  V30 18972 H 3368.39 -0.443485 -6.90277 0
M  V30 18973 H 3369.26 1.75537 -7.96793 0
M  V30 18974 P 3373.22 2.75334 -8.47391 0
M  V30 18975 O 3373.44 3.84128 -9.44797 0
M  V30 18976 O 3374.01 1.51947 -8.68712 0
M  V30 18977 O 3373.47 3.29363 -6.99321 0
M  V30 18978 C 3372.53 4.24011 -6.4274 0
M  V30 18979 C 3373.26 5.20775 -5.52155 0
M  V30 18980 O 3373.47 4.56534 -4.22446 0
M  V30 18981 C 3374.66 5.62629 -5.96531 0
M  V30 18982 O 3375.05 6.87667 -5.41053 0
M  V30 18983 C 3375.54 4.52537 -5.39283 0
M  V30 18984 C 3374.83 4.20027 -4.08623 0
M  V30 18985 N 3374.88 2.76189 -3.71603 0
M  V30 18986 H 3372.04 4.797 -7.24003 0
M  V30 18987 H 3371.77 3.69856 -5.84513 0
M  V30 18988 H 3372.64 6.10356 -5.41441 0
M  V30 18989 P 3376.6 7.20834 -5.23717 0
M  V30 18990 O 3376.82 8.66274 -5.38678 0
M  V30 18991 O 3377.39 6.33687 -6.13629 0
M  V30 18992 O 3376.85 6.7751 -3.72168 0
M  V30 18993 C 3375.91 7.20919 -2.70795 0
M  V30 18994 C 3376.64 7.45864 -1.40599 0
M  V30 18995 O 3376.85 6.17751 -0.734343 0
M  V30 18996 C 3378.04 8.05906 -1.51917 0
M  V30 18997 O 3378.43 8.74358 -0.335205 0
M  V30 18998 C 3378.92 6.83093 -1.70294 0
M  V30 18999 C 3378.21 5.79992 -0.836974 0
M  V30 19000 N 3378.26 4.41864 -1.38293 0
M  V30 19001 H 3375.42 8.13738 -3.03804 0
M  V30 19002 H 3375.15 6.42974 -2.55559 0
M  V30 19003 H 3376.02 8.12139 -0.792866 0
M  V30 19004 H 3378.67 5.80178 0.160643 0
M  V30 19005 H 3378.95 6.51379 -2.75643 0
M  V30 19006 H 3379.94 7.01832 -1.3448 0
M  V30 19007 H 3378.11 8.73771 -2.38364 0
M  V30 19008 P 3379.98 8.91 -1.20506e-10 0
M  V30 19009 O 3380.2 10.1726 0.733694 0
M  V30 19010 O 3380.77 8.73148 -1.23936 0
M  V30 19011 O 3380.23 7.66872 0.971405 0
M  V30 19012 C 3379.29 7.42309 2.04641 0
M  V30 19013 C 3380.02 6.86059 3.24661 0
M  V30 19014 O 3380.23 5.42847 3.03646 0
M  V30 19015 C 3381.42 7.41196 3.50753 0
M  V30 19016 O 3381.81 7.27073 4.86816 0
M  V30 19017 C 3382.3 6.5273 2.63741 0
M  V30 19018 C 3381.59 5.1842 2.73198 0
M  V30 19019 N 3381.64 4.38762 1.4784 0
M  V30 19020 H 3378.8 8.36803 2.32493 0
M  V30 19021 H 3378.53 6.70197 1.71129 0
M  V30 19022 H 3379.4 7.03551 4.13168 0
M  V30 19023 P 3383.36 7.20834 5.23717 0
M  V30 19024 O 3383.58 7.79853 6.57286 0
M  V30 19025 O 3384.15 7.79239 4.12957 0
M  V30 19026 O 3383.61 5.63315 5.29344 0
M  V30 19027 C 3382.67 4.80255 6.01876 0
M  V30 19028 C 3383.4 3.64202 6.65911 0
M  V30 19029 O 3383.61 2.60694 5.64732 0
M  V30 19030 C 3384.8 3.93473 7.1943 0
M  V30 19031 O 3385.19 3.02071 8.21205 0
M  V30 19032 C 3385.68 3.73047 5.97036 0
M  V30 19033 C 3384.97 2.58828 5.25741 0
M  V30 19034 N 3385.02 2.68068 3.77503 0
M  V30 19035 H 3382.18 5.40332 6.79951 0
M  V30 19036 H 3381.91 4.41613 5.32378 0
M  V30 19037 H 3382.78 3.26331 7.47797 0
M  V30 19038 P 3386.74 2.75334 8.47391 0
M  V30 19039 O 3386.96 2.44571 9.90142 0
M  V30 19040 O 3387.53 3.87688 7.92115 0
M  V30 19041 O 3386.99 1.4459 7.59357 0
M  V30 19042 C 3386.05 0.347608 7.69215 0
M  V30 19043 C 3386.78 -0.96767 7.52806 0
M  V30 19044 O 3386.99 -1.21036 6.1011 0
M  V30 19045 C 3388.18 -1.04544 8.13308 0
M  V30 19046 O 3388.57 -2.38311 8.41922 0
M  V30 19047 C 3389.06 -0.491279 7.02284 0
M  V30 19048 C 3388.35 -0.996264 5.77469 0
M  V30 19049 N 3388.4 -0.0501916 4.62973 0
M  V30 19050 H 3385.56 0.374722 8.67691 0
M  V30 19051 H 3385.29 0.443485 6.90277 0
M  V30 19052 H 3386.16 -1.75537 7.96793 0
M  V30 19053 P 3390.12 -2.75334 8.47391 0
M  V30 19054 O 3390.34 -3.84128 9.44797 0
M  V30 19055 O 3390.91 -1.51947 8.68712 0
M  V30 19056 O 3390.37 -3.29363 6.99321 0
M  V30 19057 C 3389.43 -4.24011 6.4274 0
M  V30 19058 C 3390.16 -5.20775 5.52155 0
M  V30 19059 O 3390.37 -4.56534 4.22446 0
M  V30 19060 C 3391.56 -5.62629 5.96531 0
M  V30 19061 O 3391.95 -6.87667 5.41053 0
M  V30 19062 C 3392.44 -4.52537 5.39283 0
M  V30 19063 C 3391.73 -4.20027 4.08623 0
M  V30 19064 N 3391.78 -2.76189 3.71603 0
M  V30 19065 H 3388.94 -4.797 7.24003 0
M  V30 19066 H 3388.67 -3.69856 5.84513 0
M  V30 19067 H 3389.54 -6.10356 5.41441 0
M  V30 19068 P 3393.5 -7.20834 5.23717 0
M  V30 19069 O 3393.72 -8.66274 5.38678 0
M  V30 19070 O 3394.29 -6.33687 6.13629 0
M  V30 19071 O 3393.75 -6.7751 3.72168 0
M  V30 19072 C 3392.81 -7.20919 2.70795 0
M  V30 19073 C 3393.54 -7.45864 1.40599 0
M  V30 19074 O 3393.75 -6.17751 0.734343 0
M  V30 19075 C 3394.94 -8.05906 1.51917 0
M  V30 19076 O 3395.33 -8.74358 0.335205 0
M  V30 19077 C 3395.82 -6.83093 1.70294 0
M  V30 19078 C 3395.11 -5.79992 0.836974 0
M  V30 19079 N 3395.16 -4.41864 1.38293 0
M  V30 19080 H 3392.32 -8.13738 3.03804 0
M  V30 19081 H 3392.05 -6.42974 2.55559 0
M  V30 19082 H 3392.92 -8.12139 0.792866 0
M  V30 19083 H 3395.57 -5.80178 -0.160643 0
M  V30 19084 H 3395.85 -6.51379 2.75643 0
M  V30 19085 H 3396.84 -7.01832 1.3448 0
M  V30 19086 H 3395.01 -8.73771 2.38364 0
M  V30 19087 P 3396.88 -8.91 1.21615e-10 0
M  V30 19088 O 3397.1 -10.1726 -0.733694 0
M  V30 19089 O 3397.67 -8.73148 1.23936 0
M  V30 19090 O 3397.13 -7.66872 -0.971405 0
M  V30 19091 C 3396.19 -7.42309 -2.04641 0
M  V30 19092 C 3396.92 -6.86059 -3.24661 0
M  V30 19093 O 3397.13 -5.42847 -3.03646 0
M  V30 19094 C 3398.32 -7.41196 -3.50753 0
M  V30 19095 O 3398.71 -7.27073 -4.86816 0
M  V30 19096 C 3399.2 -6.5273 -2.63741 0
M  V30 19097 C 3398.49 -5.1842 -2.73198 0
M  V30 19098 N 3398.54 -4.38762 -1.4784 0
M  V30 19099 H 3395.7 -8.36803 -2.32493 0
M  V30 19100 H 3395.43 -6.70197 -1.71129 0
M  V30 19101 H 3396.3 -7.03551 -4.13168 0
M  V30 19102 P 3400.26 -7.20834 -5.23717 0
M  V30 19103 O 3400.48 -7.79853 -6.57286 0
M  V30 19104 O 3401.05 -7.79239 -4.12957 0
M  V30 19105 O 3400.51 -5.63315 -5.29344 0
M  V30 19106 C 3399.57 -4.80255 -6.01876 0
M  V30 19107 C 3400.3 -3.64202 -6.65911 0
M  V30 19108 O 3400.51 -2.60694 -5.64732 0
M  V30 19109 C 3401.7 -3.93473 -7.1943 0
M  V30 19110 O 3402.09 -3.02071 -8.21205 0
M  V30 19111 C 3402.58 -3.73047 -5.97036 0
M  V30 19112 C 3401.87 -2.58828 -5.25741 0
M  V30 19113 N 3401.92 -2.68068 -3.77503 0
M  V30 19114 C 3401.84 -3.79715 -2.96723 0
M  V30 19115 N 3401.92 -3.5377 -1.68852 0
M  V30 19116 C 3402.06 -2.15054 -1.63254 0
M  V30 19117 C 3402.19 -1.28964 -0.518571 0
M  V30 19118 O 3402.21 -1.56826 0.679156 0
M  V30 19119 N 3402.31 0.0538097 -0.918425 0
M  V30 19120 C 3402.31 0.494275 -2.22578 0
M  V30 19121 N 3402.44 1.81086 -2.40434 0
M  V30 19122 N 3402.18 -0.313645 -3.27502 0
M  V30 19123 C 3402.06 -1.61829 -2.91033 0
M  V30 19124 H 3399.08 -5.40332 -6.79951 0
M  V30 19125 H 3398.81 -4.41613 -5.32378 0
M  V30 19126 H 3399.68 -3.26331 -7.47797 0
M  V30 19127 H 3402.33 -1.63422 -5.56814 0
M  V30 19128 H 3402.61 -4.63374 -5.34244 0
M  V30 19129 H 3403.6 -3.44728 -6.25838 0
M  V30 19130 H 3401.77 -4.96652 -7.57263 0
M  V30 19131 H 3401.72 -4.80617 -3.3614 0
M  V30 19132 H 3402.4 0.742702 -0.199384 0
M  V30 19133 H 3402.44 2.20598 -3.35588 0
M  V30 19134 H 3402.54 2.43518 -1.58945 0
M  V30 19135 P 3403.64 -2.75334 -8.47391 0
M  V30 19136 O 3403.86 -2.44595 -9.90239 0
M  V30 19137 O 3404.43 -3.87732 -7.92204 0
M  V30 19138 O 3403.89 -1.4459 -7.59357 0
M  V30 19139 C 3402.95 -0.347608 -7.69215 0
M  V30 19140 C 3403.68 0.96767 -7.52806 0
M  V30 19141 O 3403.89 1.21036 -6.1011 0
M  V30 19142 C 3405.08 1.04544 -8.13308 0
M  V30 19143 O 3405.47 2.38311 -8.41922 0
M  V30 19144 C 3405.96 0.491279 -7.02284 0
M  V30 19145 C 3405.25 0.996264 -5.77469 0
M  V30 19146 N 3405.3 0.0501808 -4.62873 0
M  V30 19147 C 3405.45 0.578037 -3.3505 0
M  V30 19148 O 3405.54 1.8073 -3.21711 0
M  V30 19149 N 3405.5 -0.468541 -2.263 0
M  V30 19150 C 3405.4 -1.59186 -2.47176 0
M  V30 19151 N 3405.45 -2.37626 -1.40392 0
M  V30 19152 C 3405.25 -2.16203 -3.77467 0
M  V30 19153 C 3405.2 -1.29324 -4.8195 0
M  V30 19154 H 3402.46 -0.374679 -8.67591 0
M  V30 19155 H 3402.19 -0.443421 -6.90177 0
M  V30 19156 H 3403.06 1.75559 -7.96891 0
M  V30 19157 H 3405.71 1.94529 -5.46723 0
M  V30 19158 H 3405.99 -0.608651 -7.04676 0
M  V30 19159 H 3406.98 0.889672 -7.08939 0
M  V30 19160 H 3405.15 0.43308 -9.04564 0
M  V30 19161 H 3405.08 -1.67758 -5.83046 0
M  V30 19162 H 3405.18 -3.23869 -3.92281 0
M  V30 19163 H 3405.57 -1.96317 -0.467202 0
M  V30 19164 H 3405.37 -3.39693 -1.51142 0
M  V30 19165 P 3407.02 2.75334 -8.47391 0
M  V30 19166 O 3407.24 3.84128 -9.44797 0
M  V30 19167 O 3407.81 1.51947 -8.68712 0
M  V30 19168 O 3407.27 3.29363 -6.99321 0
M  V30 19169 C 3406.33 4.24011 -6.4274 0
M  V30 19170 C 3407.06 5.20775 -5.52155 0
M  V30 19171 O 3407.27 4.56534 -4.22446 0
M  V30 19172 C 3408.46 5.62629 -5.96531 0
M  V30 19173 O 3408.85 6.87667 -5.41053 0
M  V30 19174 C 3409.34 4.52537 -5.39283 0
M  V30 19175 C 3408.63 4.20027 -4.08623 0
M  V30 19176 N 3408.68 2.76189 -3.71603 0
M  V30 19177 H 3405.84 4.797 -7.24003 0
M  V30 19178 H 3405.57 3.69856 -5.84513 0
M  V30 19179 H 3406.44 6.10356 -5.41441 0
M  V30 19180 P 3410.4 7.20834 -5.23717 0
M  V30 19181 O 3410.62 8.66104 -5.38572 0
M  V30 19182 O 3411.19 6.33544 -6.1349 0
M  V30 19183 O 3410.65 6.7751 -3.72168 0
M  V30 19184 C 3409.71 7.20825 -2.7076 0
M  V30 19185 C 3410.44 7.45864 -1.40599 0
M  V30 19186 O 3410.65 6.17651 -0.734225 0
M  V30 19187 C 3411.84 8.05808 -1.51899 0
M  V30 19188 O 3412.23 8.74358 -0.335205 0
M  V30 19189 C 3412.72 6.83093 -1.70294 0
M  V30 19190 C 3412.01 5.79992 -0.836974 0
M  V30 19191 N 3412.06 4.41864 -1.38293 0
M  V30 19192 H 3409.22 8.13644 -3.0377 0
M  V30 19193 H 3408.95 6.42788 -2.55485 0
M  V30 19194 H 3409.82 8.12039 -0.792769 0
M  V30 19195 P 3413.78 8.91 -1.22724e-10 0
M  V30 19196 O 3414 10.1726 0.733694 0
M  V30 19197 O 3414.57 8.73148 -1.23936 0
M  V30 19198 O 3414.03 7.66872 0.971405 0
M  V30 19199 C 3413.09 7.42309 2.04641 0
M  V30 19200 C 3413.82 6.86059 3.24661 0
M  V30 19201 O 3414.03 5.42847 3.03646 0
M  V30 19202 C 3415.22 7.41196 3.50753 0
M  V30 19203 O 3415.61 7.27073 4.86816 0
M  V30 19204 C 3416.1 6.5273 2.63741 0
M  V30 19205 C 3415.39 5.1842 2.73198 0
M  V30 19206 N 3415.44 4.38762 1.4784 0
M  V30 19207 H 3412.6 8.36803 2.32493 0
M  V30 19208 H 3412.33 6.70197 1.71129 0
M  V30 19209 H 3413.2 7.03551 4.13168 0
M  V30 19210 P 3417.16 7.20834 5.23717 0
M  V30 19211 O 3417.38 7.7993 6.57351 0
M  V30 19212 O 3417.95 7.79328 4.13004 0
M  V30 19213 O 3417.41 5.63315 5.29344 0
M  V30 19214 C 3416.47 4.80193 6.01798 0
M  V30 19215 C 3417.2 3.64202 6.65911 0
M  V30 19216 O 3417.41 2.60694 5.64732 0
M  V30 19217 C 3418.6 3.93473 7.1943 0
M  V30 19218 O 3418.99 3.02071 8.21205 0
M  V30 19219 C 3419.48 3.73047 5.97036 0
M  V30 19220 C 3418.77 2.58828 5.25741 0
M  V30 19221 N 3418.82 2.6801 3.77422 0
M  V30 19222 C 3418.97 1.50443 3.07133 0
M  V30 19223 O 3419.06 0.419406 3.61576 0
M  V30 19224 N 3419.01 1.6403 1.69677 0
M  V30 19225 C 3418.92 2.81206 0.986255 0
M  V30 19226 C 3418.77 3.99158 1.80325 0
M  V30 19227 C 3418.72 3.89779 3.1476 0
M  V30 19228 H 3415.98 5.40332 6.79951 0
M  V30 19229 H 3415.71 4.41549 5.32301 0
M  V30 19230 H 3416.58 3.26331 7.47797 0
M  V30 19231 H 3419.23 1.6395 5.56554 0
M  V30 19232 H 3419.51 4.63439 5.3432 0
M  V30 19233 H 3420.5 3.44728 6.25838 0
M  V30 19234 H 3418.67 4.96652 7.57263 0
M  V30 19235 H 3418.6 4.80159 3.74441 0
M  V30 19236 P 3420.54 2.75334 8.47391 0
M  V30 19237 O 3420.76 2.44571 9.90142 0
M  V30 19238 O 3421.33 3.87688 7.92115 0
M  V30 19239 O 3420.79 1.4459 7.59357 0
M  V30 19240 C 3419.85 0.347608 7.69215 0
M  V30 19241 C 3420.58 -0.96767 7.52806 0
M  V30 19242 O 3420.79 -1.21036 6.1011 0
M  V30 19243 C 3421.98 -1.04544 8.13308 0
M  V30 19244 O 3422.37 -2.38311 8.41922 0
M  V30 19245 C 3422.86 -0.491279 7.02284 0
M  V30 19246 C 3422.15 -0.996264 5.77469 0
M  V30 19247 N 3422.2 -0.0501916 4.62973 0
M  V30 19248 H 3419.36 0.374722 8.67691 0
M  V30 19249 H 3419.09 0.443485 6.90277 0
M  V30 19250 H 3419.96 -1.75537 7.96793 0
M  V30 19251 P 3423.92 -2.75334 8.47391 0
M  V30 19252 O 3424.14 -3.84166 9.4489 0
M  V30 19253 O 3424.71 -1.51964 8.6881 0
M  V30 19254 O 3424.17 -3.29363 6.99321 0
M  V30 19255 C 3423.23 -4.23956 6.42656 0
M  V30 19256 C 3423.96 -5.20775 5.52155 0
M  V30 19257 O 3424.17 -4.56534 4.22446 0
M  V30 19258 C 3425.36 -5.62629 5.96531 0
M  V30 19259 O 3425.75 -6.87667 5.41053 0
M  V30 19260 C 3426.24 -4.52537 5.39283 0
M  V30 19261 C 3425.53 -4.20027 4.08623 0
M  V30 19262 N 3425.58 -2.7613 3.71522 0
M  V30 19263 C 3425.73 -2.45612 2.37989 0
M  V30 19264 O 3425.82 -3.30919 1.51621 0
M  V30 19265 N 3425.77 -1.10684 2.08435 0
M  V30 19266 C 3425.68 -0.0690084 2.9792 0
M  V30 19267 O 3425.73 1.10553 2.59426 0
M  V30 19268 C 3425.53 -0.481522 4.35345 0
M  V30 19269 C 3425.42 0.618778 5.36443 0
M  V30 19270 C 3425.48 -1.78906 4.67968 0
M  V30 19271 H 3422.74 -4.797 7.24003 0
M  V30 19272 H 3422.47 -3.69802 5.84429 0
M  V30 19273 H 3423.34 -6.10356 5.41441 0
M  V30 19274 H 3425.99 -4.78651 3.27911 0
M  V30 19275 H 3426.27 -3.64957 6.05871 0
M  V30 19276 H 3427.26 -4.8868 5.2125 0
M  V30 19277 H 3425.43 -5.66726 7.06352 0
M  V30 19278 H 3425.36 -2.07737 5.72367 0
M  V30 19279 H 3426.39 0.754375 5.86871 0
M  V30 19280 H 3424.65 0.359721 6.10641 0
M  V30 19281 H 3425.14 1.55533 4.8581 0
M  V30 19282 H 3425.88 -0.862651 1.12037 0
M  V30 19283 P 3427.3 -7.20834 5.23717 0
M  V30 19284 O 3427.52 -8.66104 5.38572 0
M  V30 19285 O 3428.09 -6.33544 6.1349 0
M  V30 19286 O 3427.55 -6.7751 3.72168 0
M  V30 19287 C 3426.61 -7.20825 2.7076 0
M  V30 19288 C 3427.34 -7.45864 1.40599 0
M  V30 19289 O 3427.55 -6.17651 0.734225 0
M  V30 19290 C 3428.74 -8.05808 1.51899 0
M  V30 19291 O 3429.13 -8.74358 0.335205 0
M  V30 19292 C 3429.62 -6.83093 1.70294 0
M  V30 19293 C 3428.91 -5.79992 0.836974 0
M  V30 19294 N 3428.96 -4.41864 1.38293 0
M  V30 19295 H 3426.12 -8.13644 3.0377 0
M  V30 19296 H 3425.85 -6.42788 2.55485 0
M  V30 19297 H 3426.72 -8.12039 0.792769 0
M  V30 19298 P 3430.68 -8.91 1.23833e-10 0
M  V30 19299 O 3430.9 -10.1726 -0.733694 0
M  V30 19300 O 3431.47 -8.73148 1.23936 0
M  V30 19301 O 3430.93 -7.66872 -0.971405 0
M  V30 19302 C 3429.99 -7.42309 -2.04641 0
M  V30 19303 C 3430.72 -6.86059 -3.24661 0
M  V30 19304 O 3430.93 -5.42847 -3.03646 0
M  V30 19305 C 3432.12 -7.41196 -3.50753 0
M  V30 19306 O 3432.51 -7.27073 -4.86816 0
M  V30 19307 C 3433 -6.5273 -2.63741 0
M  V30 19308 C 3432.29 -5.1842 -2.73198 0
M  V30 19309 N 3432.34 -4.38762 -1.4784 0
M  V30 19310 H 3429.5 -8.36803 -2.32493 0
M  V30 19311 H 3429.23 -6.70197 -1.71129 0
M  V30 19312 H 3430.1 -7.03551 -4.13168 0
M  V30 19313 P 3434.06 -7.20834 -5.23717 0
M  V30 19314 O 3434.28 -7.79853 -6.57286 0
M  V30 19315 O 3434.85 -7.79239 -4.12957 0
M  V30 19316 O 3434.31 -5.63315 -5.29344 0
M  V30 19317 C 3433.37 -4.80255 -6.01876 0
M  V30 19318 C 3434.1 -3.64202 -6.65911 0
M  V30 19319 O 3434.31 -2.60694 -5.64732 0
M  V30 19320 C 3435.5 -3.93473 -7.1943 0
M  V30 19321 O 3435.89 -3.02071 -8.21205 0
M  V30 19322 C 3436.38 -3.73047 -5.97036 0
M  V30 19323 C 3435.67 -2.58828 -5.25741 0
M  V30 19324 N 3435.72 -2.68068 -3.77503 0
M  V30 19325 H 3432.88 -5.40332 -6.79951 0
M  V30 19326 H 3432.61 -4.41613 -5.32378 0
M  V30 19327 H 3433.48 -3.26331 -7.47797 0
M  V30 19328 P 3437.44 -2.75334 -8.47391 0
M  V30 19329 O 3437.66 -2.44571 -9.90142 0
M  V30 19330 O 3438.23 -3.87688 -7.92115 0
M  V30 19331 O 3437.69 -1.4459 -7.59357 0
M  V30 19332 C 3436.75 -0.347608 -7.69215 0
M  V30 19333 C 3437.48 0.96767 -7.52806 0
M  V30 19334 O 3437.69 1.21036 -6.1011 0
M  V30 19335 C 3438.88 1.04544 -8.13308 0
M  V30 19336 O 3439.27 2.38311 -8.41922 0
M  V30 19337 C 3439.76 0.491279 -7.02284 0
M  V30 19338 C 3439.05 0.996264 -5.77469 0
M  V30 19339 N 3439.1 0.0501916 -4.62973 0
M  V30 19340 H 3436.26 -0.374722 -8.67691 0
M  V30 19341 H 3435.99 -0.443485 -6.90277 0
M  V30 19342 H 3436.86 1.75537 -7.96793 0
M  V30 19343 P 3440.82 2.75334 -8.47391 0
M  V30 19344 O 3441.04 3.84128 -9.44797 0
M  V30 19345 O 3441.61 1.51947 -8.68712 0
M  V30 19346 O 3441.07 3.29363 -6.99321 0
M  V30 19347 C 3440.13 4.24011 -6.4274 0
M  V30 19348 C 3440.86 5.20775 -5.52155 0
M  V30 19349 O 3441.07 4.56534 -4.22446 0
M  V30 19350 C 3442.26 5.62629 -5.96531 0
M  V30 19351 O 3442.65 6.87667 -5.41053 0
M  V30 19352 C 3443.14 4.52537 -5.39283 0
M  V30 19353 C 3442.43 4.20027 -4.08623 0
M  V30 19354 N 3442.48 2.76189 -3.71603 0
M  V30 19355 H 3439.64 4.797 -7.24003 0
M  V30 19356 H 3439.37 3.69856 -5.84513 0
M  V30 19357 H 3440.24 6.10356 -5.41441 0
M  V30 19358 P 3444.2 7.20834 -5.23717 0
M  V30 19359 O 3444.42 8.66104 -5.38572 0
M  V30 19360 O 3444.99 6.33544 -6.1349 0
M  V30 19361 O 3444.45 6.7751 -3.72168 0
M  V30 19362 C 3443.51 7.20825 -2.7076 0
M  V30 19363 C 3444.24 7.45864 -1.40599 0
M  V30 19364 O 3444.45 6.17651 -0.734225 0
M  V30 19365 C 3445.64 8.05808 -1.51899 0
M  V30 19366 O 3446.03 8.74358 -0.335205 0
M  V30 19367 C 3446.52 6.83093 -1.70294 0
M  V30 19368 C 3445.81 5.79992 -0.836974 0
M  V30 19369 N 3445.86 4.41864 -1.38293 0
M  V30 19370 C 3445.78 3.99538 -2.69438 0
M  V30 19371 N 3445.86 2.69909 -2.84277 0
M  V30 19372 C 3446 2.21719 -1.5408 0
M  V30 19373 C 3446.13 0.891712 -1.06628 0
M  V30 19374 N 3446.25 0.856846 0.334985 0
M  V30 19375 C 3446.25 1.9641 1.15789 0
M  V30 19376 N 3446.38 1.72708 2.46522 0
M  V30 19377 N 3446.12 3.21165 0.713741 0
M  V30 19378 C 3446 3.26797 -0.639748 0
M  V30 19379 H 3443.02 8.13644 -3.0377 0
M  V30 19380 H 3442.75 6.42788 -2.55485 0
M  V30 19381 H 3443.62 8.12039 -0.792769 0
M  V30 19382 P 3447.58 8.91 -1.24942e-10 0
M  V30 19383 O 3447.8 10.1726 0.733694 0
M  V30 19384 O 3448.37 8.73148 -1.23936 0
M  V30 19385 O 3447.83 7.66872 0.971405 0
M  V30 19386 C 3446.89 7.42309 2.04641 0
M  V30 19387 C 3447.62 6.86059 3.24661 0
M  V30 19388 O 3447.83 5.42847 3.03646 0
M  V30 19389 C 3449.02 7.41196 3.50753 0
M  V30 19390 O 3449.41 7.27073 4.86816 0
M  V30 19391 C 3449.9 6.5273 2.63741 0
M  V30 19392 C 3449.19 5.1842 2.73198 0
M  V30 19393 N 3449.24 4.38762 1.4784 0
M  V30 19394 H 3446.4 8.36803 2.32493 0
M  V30 19395 H 3446.13 6.70197 1.71129 0
M  V30 19396 H 3447 7.03551 4.13168 0
M  V30 19397 P 3450.96 7.20834 5.23717 0
M  V30 19398 O 3451.18 7.79853 6.57286 0
M  V30 19399 O 3451.75 7.79239 4.12957 0
M  V30 19400 O 3451.21 5.63315 5.29344 0
M  V30 19401 C 3450.27 4.80255 6.01876 0
M  V30 19402 C 3451 3.64202 6.65911 0
M  V30 19403 O 3451.21 2.60694 5.64732 0
M  V30 19404 C 3452.4 3.93473 7.1943 0
M  V30 19405 O 3452.79 3.02071 8.21205 0
M  V30 19406 C 3453.28 3.73047 5.97036 0
M  V30 19407 C 3452.57 2.58828 5.25741 0
M  V30 19408 N 3452.62 2.68068 3.77503 0
M  V30 19409 H 3449.78 5.40332 6.79951 0
M  V30 19410 H 3449.51 4.41613 5.32378 0
M  V30 19411 H 3450.38 3.26331 7.47797 0
M  V30 19412 P 3454.34 2.75334 8.47391 0
M  V30 19413 O 3454.56 2.44571 9.90142 0
M  V30 19414 O 3455.13 3.87688 7.92115 0
M  V30 19415 O 3454.59 1.4459 7.59357 0
M  V30 19416 C 3453.65 0.347608 7.69215 0
M  V30 19417 C 3454.38 -0.96767 7.52806 0
M  V30 19418 O 3454.59 -1.21036 6.1011 0
M  V30 19419 C 3455.78 -1.04544 8.13308 0
M  V30 19420 O 3456.17 -2.38311 8.41922 0
M  V30 19421 C 3456.66 -0.491279 7.02284 0
M  V30 19422 C 3455.95 -0.996264 5.77469 0
M  V30 19423 N 3456 -0.0501916 4.62973 0
M  V30 19424 H 3453.16 0.374722 8.67691 0
M  V30 19425 H 3452.89 0.443485 6.90277 0
M  V30 19426 H 3453.76 -1.75537 7.96793 0
M  V30 19427 P 3457.72 -2.75334 8.47391 0
M  V30 19428 O 3457.94 -3.84128 9.44797 0
M  V30 19429 O 3458.51 -1.51947 8.68712 0
M  V30 19430 O 3457.97 -3.29363 6.99321 0
M  V30 19431 C 3457.03 -4.24011 6.4274 0
M  V30 19432 C 3457.76 -5.20775 5.52155 0
M  V30 19433 O 3457.97 -4.56534 4.22446 0
M  V30 19434 C 3459.16 -5.62629 5.96531 0
M  V30 19435 O 3459.55 -6.87667 5.41053 0
M  V30 19436 C 3460.04 -4.52537 5.39283 0
M  V30 19437 C 3459.33 -4.20027 4.08623 0
M  V30 19438 N 3459.38 -2.76189 3.71603 0
M  V30 19439 H 3456.54 -4.797 7.24003 0
M  V30 19440 H 3456.27 -3.69856 5.84513 0
M  V30 19441 H 3457.14 -6.10356 5.41441 0
M  V30 19442 P 3461.1 -7.20834 5.23717 0
M  V30 19443 O 3461.32 -8.66104 5.38572 0
M  V30 19444 O 3461.89 -6.33544 6.1349 0
M  V30 19445 O 3461.35 -6.7751 3.72168 0
M  V30 19446 C 3460.41 -7.20825 2.7076 0
M  V30 19447 C 3461.14 -7.45864 1.40599 0
M  V30 19448 O 3461.35 -6.17651 0.734225 0
M  V30 19449 C 3462.54 -8.05808 1.51899 0
M  V30 19450 O 3462.93 -8.74358 0.335205 0
M  V30 19451 C 3463.42 -6.83093 1.70294 0
M  V30 19452 C 3462.71 -5.79992 0.836974 0
M  V30 19453 N 3462.76 -4.41864 1.38293 0
M  V30 19454 H 3459.92 -8.13644 3.0377 0
M  V30 19455 H 3459.65 -6.42788 2.55485 0
M  V30 19456 H 3460.52 -8.12039 0.792769 0
M  V30 19457 P 3464.48 -8.91 1.26051e-10 0
M  V30 19458 O 3464.7 -10.1726 -0.733694 0
M  V30 19459 O 3465.27 -8.73148 1.23936 0
M  V30 19460 O 3464.73 -7.66872 -0.971405 0
M  V30 19461 C 3463.79 -7.42309 -2.04641 0
M  V30 19462 C 3464.52 -6.86059 -3.24661 0
M  V30 19463 O 3464.73 -5.42847 -3.03646 0
M  V30 19464 C 3465.92 -7.41196 -3.50753 0
M  V30 19465 O 3466.31 -7.27073 -4.86816 0
M  V30 19466 C 3466.8 -6.5273 -2.63741 0
M  V30 19467 C 3466.09 -5.1842 -2.73198 0
M  V30 19468 N 3466.14 -4.38762 -1.4784 0
M  V30 19469 C 3466.06 -4.81605 -0.168631 0
M  V30 19470 N 3466.14 -3.85454 0.713363 0
M  V30 19471 C 3466.28 -2.6994 -0.0566958 0
M  V30 19472 C 3466.41 -1.34815 0.338502 0
M  V30 19473 N 3466.53 -0.496304 -0.77465 0
M  V30 19474 C 3466.53 -0.908403 -2.09122 0
M  V30 19475 N 3466.66 0.0517805 -3.00955 0
M  V30 19476 N 3466.4 -2.17875 -2.46519 0
M  V30 19477 C 3466.28 -3.01988 -1.4033 0
M  V30 19478 H 3463.3 -8.36803 -2.32493 0
M  V30 19479 H 3463.03 -6.70197 -1.71129 0
M  V30 19480 H 3463.9 -7.03551 -4.13168 0
M  V30 19481 P 3467.86 -7.20834 -5.23717 0
M  V30 19482 O 3468.08 -7.79853 -6.57286 0
M  V30 19483 O 3468.65 -7.79239 -4.12957 0
M  V30 19484 O 3468.11 -5.63315 -5.29344 0
M  V30 19485 C 3467.17 -4.80255 -6.01876 0
M  V30 19486 C 3467.9 -3.64202 -6.65911 0
M  V30 19487 O 3468.11 -2.60694 -5.64732 0
M  V30 19488 C 3469.3 -3.93473 -7.1943 0
M  V30 19489 O 3469.69 -3.02071 -8.21205 0
M  V30 19490 C 3470.18 -3.73047 -5.97036 0
M  V30 19491 C 3469.47 -2.58828 -5.25741 0
M  V30 19492 N 3469.52 -2.68068 -3.77503 0
M  V30 19493 H 3466.68 -5.40332 -6.79951 0
M  V30 19494 H 3466.41 -4.41613 -5.32378 0
M  V30 19495 H 3467.28 -3.26331 -7.47797 0
M  V30 19496 P 3471.24 -2.75334 -8.47391 0
M  V30 19497 O 3471.46 -2.44571 -9.90142 0
M  V30 19498 O 3472.03 -3.87688 -7.92115 0
M  V30 19499 O 3471.49 -1.4459 -7.59357 0
M  V30 19500 C 3470.55 -0.347608 -7.69215 0
M  V30 19501 C 3471.28 0.96767 -7.52806 0
M  V30 19502 O 3471.49 1.21036 -6.1011 0
M  V30 19503 C 3472.68 1.04544 -8.13308 0
M  V30 19504 O 3473.07 2.38311 -8.41922 0
M  V30 19505 C 3473.56 0.491279 -7.02284 0
M  V30 19506 C 3472.85 0.996264 -5.77469 0
M  V30 19507 N 3472.9 0.0501916 -4.62973 0
M  V30 19508 H 3470.06 -0.374722 -8.67691 0
M  V30 19509 H 3469.79 -0.443485 -6.90277 0
M  V30 19510 H 3470.66 1.75537 -7.96793 0
M  V30 19511 P 3474.62 2.75334 -8.47391 0
M  V30 19512 O 3474.84 3.84166 -9.4489 0
M  V30 19513 O 3475.41 1.51964 -8.6881 0
M  V30 19514 O 3474.87 3.29363 -6.99321 0
M  V30 19515 C 3473.93 4.23956 -6.42656 0
M  V30 19516 C 3474.66 5.20775 -5.52155 0
M  V30 19517 O 3474.87 4.56534 -4.22446 0
M  V30 19518 C 3476.06 5.62629 -5.96531 0
M  V30 19519 O 3476.45 6.87667 -5.41053 0
M  V30 19520 C 3476.94 4.52537 -5.39283 0
M  V30 19521 C 3476.23 4.20027 -4.08623 0
M  V30 19522 N 3476.28 2.7613 -3.71522 0
M  V30 19523 C 3476.43 2.45612 -2.37989 0
M  V30 19524 O 3476.52 3.30919 -1.51621 0
M  V30 19525 N 3476.47 1.10684 -2.08435 0
M  V30 19526 C 3476.38 0.0690084 -2.9792 0
M  V30 19527 C 3476.23 0.481522 -4.35345 0
M  V30 19528 C 3476.18 1.78906 -4.67968 0
M  V30 19529 H 3473.44 4.797 -7.24003 0
M  V30 19530 H 3473.17 3.69802 -5.84429 0
M  V30 19531 H 3474.04 6.10356 -5.41441 0
M  V30 19532 H 3476.69 4.78651 -3.27911 0
M  V30 19533 H 3476.97 3.64957 -6.05871 0
M  V30 19534 H 3477.96 4.8868 -5.2125 0
M  V30 19535 H 3476.13 5.66726 -7.06352 0
M  V30 19536 H 3476.06 2.07737 -5.72367 0
M  V30 19537 P 3478 7.20834 -5.23717 0
M  V30 19538 O 3478.22 8.66189 -5.38625 0
M  V30 19539 O 3478.79 6.33615 -6.1356 0
M  V30 19540 O 3478.25 6.7751 -3.72168 0
M  V30 19541 C 3477.31 7.20732 -2.70725 0
M  V30 19542 C 3478.04 7.45864 -1.40599 0
M  V30 19543 O 3478.25 6.17651 -0.734225 0
M  V30 19544 C 3479.44 8.05808 -1.51899 0
M  V30 19545 O 3479.83 8.74358 -0.335205 0
M  V30 19546 C 3480.32 6.83093 -1.70294 0
M  V30 19547 C 3479.61 5.79992 -0.836974 0
M  V30 19548 N 3479.66 4.41769 -1.38263 0
M  V30 19549 C 3479.81 3.38591 -0.481702 0
M  V30 19550 O 3479.9 3.56839 0.718452 0
M  V30 19551 N 3479.85 2.1206 -1.03569 0
M  V30 19552 C 3479.76 1.80696 -2.36966 0
M  V30 19553 C 3479.61 2.94845 -3.23898 0
M  V30 19554 C 3479.56 4.19803 -2.73435 0
M  V30 19555 H 3476.82 8.13644 -3.0377 0
M  V30 19556 H 3476.55 6.42695 -2.55448 0
M  V30 19557 H 3477.42 8.12039 -0.792769 0
M  V30 19558 H 3480.07 5.79978 0.160587 0
M  V30 19559 H 3480.35 6.51379 -2.75643 0
M  V30 19560 H 3481.34 7.01734 -1.34462 0
M  V30 19561 H 3479.51 8.73674 -2.38337 0
M  V30 19562 H 3479.44 5.04492 -3.4095 0
M  V30 19563 P 3481.38 8.91 -1.2716e-10 0
M  V30 19564 O 3481.6 10.1726 0.733694 0
M  V30 19565 O 3482.17 8.73148 -1.23936 0
M  V30 19566 O 3481.63 7.66872 0.971405 0
M  V30 19567 C 3480.69 7.42309 2.04641 0
M  V30 19568 C 3481.42 6.86059 3.24661 0
M  V30 19569 O 3481.63 5.42847 3.03646 0
M  V30 19570 C 3482.82 7.41196 3.50753 0
M  V30 19571 O 3483.21 7.27073 4.86816 0
M  V30 19572 C 3483.7 6.5273 2.63741 0
M  V30 19573 C 3482.99 5.1842 2.73198 0
M  V30 19574 N 3483.04 4.38762 1.4784 0
M  V30 19575 C 3482.96 4.81605 0.168631 0
M  V30 19576 N 3483.04 3.85454 -0.713363 0
M  V30 19577 C 3483.18 2.6994 0.0566958 0
M  V30 19578 C 3483.31 1.34815 -0.338502 0
M  V30 19579 O 3483.33 0.869548 -1.47125 0
M  V30 19580 N 3483.43 0.496304 0.77465 0
M  V30 19581 C 3483.43 0.908403 2.09122 0
M  V30 19582 N 3483.56 -0.0517805 3.00955 0
M  V30 19583 N 3483.3 2.17875 2.46519 0
M  V30 19584 C 3483.18 3.01988 1.4033 0
M  V30 19585 H 3480.2 8.36803 2.32493 0
M  V30 19586 H 3479.93 6.70197 1.71129 0
M  V30 19587 H 3480.8 7.03551 4.13168 0
M  V30 19588 H 3483.45 4.59498 3.54415 0
M  V30 19589 H 3483.73 6.88898 1.59848 0
M  V30 19590 H 3484.72 6.46749 3.03687 0
M  V30 19591 H 3482.89 8.46908 3.20714 0
M  V30 19592 H 3482.84 5.86405 -0.105564 0
M  V30 19593 H 3483.52 -0.483664 0.597855 0
M  V30 19594 H 3483.56 0.187865 4.0116 0
M  V30 19595 H 3483.66 -1.03585 2.71726 0
M  V30 19596 P 3484.76 7.20834 5.23717 0
M  V30 19597 O 3484.98 7.79853 6.57286 0
M  V30 19598 O 3485.55 7.79239 4.12957 0
M  V30 19599 O 3485.01 5.63315 5.29344 0
M  V30 19600 C 3484.07 4.80255 6.01876 0
M  V30 19601 C 3484.8 3.64202 6.65911 0
M  V30 19602 O 3485.01 2.60694 5.64732 0
M  V30 19603 C 3486.2 3.93473 7.1943 0
M  V30 19604 O 3486.59 3.02071 8.21205 0
M  V30 19605 C 3487.08 3.73047 5.97036 0
M  V30 19606 C 3486.37 2.58828 5.25741 0
M  V30 19607 N 3486.42 2.68068 3.77503 0
M  V30 19608 H 3483.58 5.40332 6.79951 0
M  V30 19609 H 3483.31 4.41613 5.32378 0
M  V30 19610 H 3484.18 3.26331 7.47797 0
M  V30 19611 P 3488.14 2.75334 8.47391 0
M  V30 19612 O 3488.36 2.44571 9.90142 0
M  V30 19613 O 3488.93 3.87688 7.92115 0
M  V30 19614 O 3488.39 1.4459 7.59357 0
M  V30 19615 C 3487.45 0.347608 7.69215 0
M  V30 19616 C 3488.18 -0.96767 7.52806 0
M  V30 19617 O 3488.39 -1.21036 6.1011 0
M  V30 19618 C 3489.58 -1.04544 8.13308 0
M  V30 19619 O 3489.97 -2.38311 8.41922 0
M  V30 19620 C 3490.46 -0.491279 7.02284 0
M  V30 19621 C 3489.75 -0.996264 5.77469 0
M  V30 19622 N 3489.8 -0.0501916 4.62973 0
M  V30 19623 C 3489.72 1.32786 4.63244 0
M  V30 19624 N 3489.8 1.86957 3.44545 0
M  V30 19625 C 3489.94 0.780241 2.58481 0
M  V30 19626 C 3490.07 0.738536 1.17757 0
M  V30 19627 N 3490.19 -0.58337 0.711393 0
M  V30 19628 C 3490.19 -1.70816 1.51017 0
M  V30 19629 N 3490.32 -2.87826 0.880757 0
M  V30 19630 N 3490.06 -1.67126 2.8339 0
M  V30 19631 C 3489.94 -0.401421 3.30572 0
M  V30 19632 H 3486.96 0.374722 8.67691 0
M  V30 19633 H 3486.69 0.443485 6.90277 0
M  V30 19634 H 3487.56 -1.75537 7.96793 0
M  V30 19635 P 3491.52 -2.75334 8.47391 0
M  V30 19636 O 3491.74 -3.84128 9.44797 0
M  V30 19637 O 3492.31 -1.51947 8.68712 0
M  V30 19638 O 3491.77 -3.29363 6.99321 0
M  V30 19639 C 3490.83 -4.24011 6.4274 0
M  V30 19640 C 3491.56 -5.20775 5.52155 0
M  V30 19641 O 3491.77 -4.56534 4.22446 0
M  V30 19642 C 3492.96 -5.62629 5.96531 0
M  V30 19643 O 3493.35 -6.87667 5.41053 0
M  V30 19644 C 3493.84 -4.52537 5.39283 0
M  V30 19645 C 3493.13 -4.20027 4.08623 0
M  V30 19646 N 3493.18 -2.76189 3.71603 0
M  V30 19647 H 3490.34 -4.797 7.24003 0
M  V30 19648 H 3490.07 -3.69856 5.84513 0
M  V30 19649 H 3490.94 -6.10356 5.41441 0
M  V30 19650 P 3494.9 -7.20834 5.23717 0
M  V30 19651 O 3495.12 -8.66104 5.38572 0
M  V30 19652 O 3495.69 -6.33544 6.1349 0
M  V30 19653 O 3495.15 -6.7751 3.72168 0
M  V30 19654 C 3494.21 -7.20825 2.7076 0
M  V30 19655 C 3494.94 -7.45864 1.40599 0
M  V30 19656 O 3495.15 -6.17651 0.734225 0
M  V30 19657 C 3496.34 -8.05808 1.51899 0
M  V30 19658 O 3496.73 -8.74358 0.335205 0
M  V30 19659 C 3497.22 -6.83093 1.70294 0
M  V30 19660 C 3496.51 -5.79992 0.836974 0
M  V30 19661 N 3496.56 -4.41864 1.38293 0
M  V30 19662 H 3493.72 -8.13644 3.0377 0
M  V30 19663 H 3493.45 -6.42788 2.55485 0
M  V30 19664 H 3494.32 -8.12039 0.792769 0
M  V30 19665 P 3498.28 -8.91 1.28269e-10 0
M  V30 19666 O 3498.5 -10.1746 -0.733838 0
M  V30 19667 O 3499.07 -8.73346 1.23964 0
M  V30 19668 O 3498.53 -7.66872 -0.971405 0
M  V30 19669 C 3497.59 -7.42405 -2.04668 0
M  V30 19670 C 3498.32 -6.86059 -3.24661 0
M  V30 19671 O 3498.53 -5.42934 -3.03695 0
M  V30 19672 C 3499.72 -7.41287 -3.50796 0
M  V30 19673 O 3500.11 -7.27073 -4.86816 0
M  V30 19674 C 3500.6 -6.5273 -2.63741 0
M  V30 19675 C 3499.89 -5.1842 -2.73198 0
M  V30 19676 N 3499.94 -4.38762 -1.4784 0
M  V30 19677 H 3497.1 -8.36899 -2.3252 0
M  V30 19678 H 3496.83 -6.70391 -1.71179 0
M  V30 19679 H 3497.7 -7.03638 -4.13219 0
M  V30 19680 H 3500.35 -4.59931 -3.54016 0
M  V30 19681 H 3500.63 -6.88995 -1.59871 0
M  V30 19682 H 3501.62 -6.4684 -3.0373 0
M  V30 19683 H 3499.79 -8.47002 -3.20749 0
M  V30 19684 P 3501.66 -7.20834 -5.23717 0
M  V30 19685 O 3501.88 -7.79853 -6.57286 0
M  V30 19686 O 3502.45 -7.79239 -4.12957 0
M  V30 19687 O 3501.91 -5.63315 -5.29344 0
M  V30 19688 C 3500.97 -4.80255 -6.01876 0
M  V30 19689 C 3501.7 -3.64202 -6.65911 0
M  V30 19690 O 3501.91 -2.60694 -5.64732 0
M  V30 19691 C 3503.1 -3.93473 -7.1943 0
M  V30 19692 O 3503.49 -3.02071 -8.21205 0
M  V30 19693 C 3503.98 -3.73047 -5.97036 0
M  V30 19694 C 3503.27 -2.58828 -5.25741 0
M  V30 19695 N 3503.32 -2.68068 -3.77503 0
M  V30 19696 H 3500.48 -5.40332 -6.79951 0
M  V30 19697 H 3500.21 -4.41613 -5.32378 0
M  V30 19698 H 3501.08 -3.26331 -7.47797 0
M  V30 19699 P 3505.04 -2.75334 -8.47391 0
M  V30 19700 O 3505.26 -2.44571 -9.90142 0
M  V30 19701 O 3505.83 -3.87688 -7.92115 0
M  V30 19702 O 3505.29 -1.4459 -7.59357 0
M  V30 19703 C 3504.35 -0.347608 -7.69215 0
M  V30 19704 C 3505.08 0.96767 -7.52806 0
M  V30 19705 O 3505.29 1.21036 -6.1011 0
M  V30 19706 C 3506.48 1.04544 -8.13308 0
M  V30 19707 O 3506.87 2.38311 -8.41922 0
M  V30 19708 C 3507.36 0.491279 -7.02284 0
M  V30 19709 C 3506.65 0.996264 -5.77469 0
M  V30 19710 N 3506.7 0.0501916 -4.62973 0
M  V30 19711 H 3503.86 -0.374722 -8.67691 0
M  V30 19712 H 3503.59 -0.443485 -6.90277 0
M  V30 19713 H 3504.46 1.75537 -7.96793 0
M  V30 19714 P 3508.42 2.75334 -8.47391 0
M  V30 19715 O 3508.64 3.84128 -9.44797 0
M  V30 19716 O 3509.21 1.51947 -8.68712 0
M  V30 19717 O 3508.67 3.29363 -6.99321 0
M  V30 19718 C 3507.73 4.24011 -6.4274 0
M  V30 19719 C 3508.46 5.20775 -5.52155 0
M  V30 19720 O 3508.67 4.56534 -4.22446 0
M  V30 19721 C 3509.86 5.62629 -5.96531 0
M  V30 19722 O 3510.25 6.87667 -5.41053 0
M  V30 19723 C 3510.74 4.52537 -5.39283 0
M  V30 19724 C 3510.03 4.20027 -4.08623 0
M  V30 19725 N 3510.08 2.76189 -3.71603 0
M  V30 19726 C 3510 1.64862 -4.52822 0
M  V30 19727 N 3510.08 0.512671 -3.88633 0
M  V30 19728 C 3510.22 0.888083 -2.54977 0
M  V30 19729 C 3510.35 0.094668 -1.38677 0
M  V30 19730 O 3510.37 -1.13053 -1.28163 0
M  V30 19731 N 3510.47 0.890102 -0.232633 0
M  V30 19732 C 3510.47 2.26958 -0.21772 0
M  V30 19733 N 3510.6 2.84626 0.97925 0
M  V30 19734 N 3510.34 3.0178 -1.31033 0
M  V30 19735 C 3510.22 2.26781 -2.43843 0
M  V30 19736 H 3507.24 4.797 -7.24003 0
M  V30 19737 H 3506.97 3.69856 -5.84513 0
M  V30 19738 H 3507.84 6.10356 -5.41441 0
M  V30 19739 H 3510.49 4.79061 -3.27488 0
M  V30 19740 H 3510.77 3.64906 -6.05785 0
M  V30 19741 H 3511.76 4.8868 -5.2125 0
M  V30 19742 H 3509.93 5.66726 -7.06352 0
M  V30 19743 H 3509.88 1.71169 -5.60966 0
M  V30 19744 H 3510.56 0.419134 0.644739 0
M  V30 19745 H 3510.6 3.87332 1.06098 0
M  V30 19746 H 3510.7 2.26417 1.82483 0
M  V30 19747 P 3511.8 7.20834 -5.23717 0
M  V30 19748 O 3512.02 8.66274 -5.38678 0
M  V30 19749 O 3512.59 6.33687 -6.13629 0
M  V30 19750 O 3512.05 6.7751 -3.72168 0
M  V30 19751 C 3511.11 7.20919 -2.70795 0
M  V30 19752 C 3511.84 7.45864 -1.40599 0
M  V30 19753 O 3512.05 6.17751 -0.734343 0
M  V30 19754 C 3513.24 8.05906 -1.51917 0
M  V30 19755 O 3513.63 8.74358 -0.335205 0
M  V30 19756 C 3514.12 6.83093 -1.70294 0
M  V30 19757 C 3513.41 5.79992 -0.836974 0
M  V30 19758 N 3513.46 4.41864 -1.38293 0
M  V30 19759 H 3510.62 8.13738 -3.03804 0
M  V30 19760 H 3510.35 6.42974 -2.55559 0
M  V30 19761 H 3511.22 8.12139 -0.792866 0
M  V30 19762 H 3513.87 5.80178 0.160643 0
M  V30 19763 H 3514.15 6.51379 -2.75643 0
M  V30 19764 H 3515.14 7.01832 -1.3448 0
M  V30 19765 H 3513.31 8.73771 -2.38364 0
M  V30 19766 P 3515.18 8.91 -1.29378e-10 0
M  V30 19767 O 3515.4 10.1726 0.733694 0
M  V30 19768 O 3515.97 8.73148 -1.23936 0
M  V30 19769 O 3515.43 7.66872 0.971405 0
M  V30 19770 C 3514.49 7.42309 2.04641 0
M  V30 19771 C 3515.22 6.86059 3.24661 0
M  V30 19772 O 3515.43 5.42847 3.03646 0
M  V30 19773 C 3516.62 7.41196 3.50753 0
M  V30 19774 O 3517.01 7.27073 4.86816 0
M  V30 19775 C 3517.5 6.5273 2.63741 0
M  V30 19776 C 3516.79 5.1842 2.73198 0
M  V30 19777 N 3516.84 4.38762 1.4784 0
M  V30 19778 H 3514 8.36803 2.32493 0
M  V30 19779 H 3513.73 6.70197 1.71129 0
M  V30 19780 H 3514.6 7.03551 4.13168 0
M  V30 19781 P 3518.56 7.20834 5.23717 0
M  V30 19782 O 3518.78 7.79853 6.57286 0
M  V30 19783 O 3519.35 7.79239 4.12957 0
M  V30 19784 O 3518.81 5.63315 5.29344 0
M  V30 19785 C 3517.87 4.80255 6.01876 0
M  V30 19786 C 3518.6 3.64202 6.65911 0
M  V30 19787 O 3518.81 2.60694 5.64732 0
M  V30 19788 C 3520 3.93473 7.1943 0
M  V30 19789 O 3520.39 3.02071 8.21205 0
M  V30 19790 C 3520.88 3.73047 5.97036 0
M  V30 19791 C 3520.17 2.58828 5.25741 0
M  V30 19792 N 3520.22 2.68068 3.77503 0
M  V30 19793 C 3520.14 3.79715 2.96723 0
M  V30 19794 N 3520.22 3.5377 1.68852 0
M  V30 19795 C 3520.36 2.15054 1.63254 0
M  V30 19796 C 3520.49 1.28964 0.518571 0
M  V30 19797 O 3520.51 1.56826 -0.679156 0
M  V30 19798 N 3520.61 -0.0538097 0.918425 0
M  V30 19799 C 3520.61 -0.494275 2.22578 0
M  V30 19800 N 3520.74 -1.81086 2.40434 0
M  V30 19801 N 3520.48 0.313645 3.27502 0
M  V30 19802 C 3520.36 1.61829 2.91033 0
M  V30 19803 H 3517.38 5.40332 6.79951 0
M  V30 19804 H 3517.11 4.41613 5.32378 0
M  V30 19805 H 3517.98 3.26331 7.47797 0
M  V30 19806 H 3520.63 1.63422 5.56814 0
M  V30 19807 H 3520.91 4.63374 5.34244 0
M  V30 19808 H 3521.9 3.44728 6.25838 0
M  V30 19809 H 3520.07 4.96652 7.57263 0
M  V30 19810 H 3520.02 4.80617 3.3614 0
M  V30 19811 H 3520.7 -0.742702 0.199384 0
M  V30 19812 H 3520.74 -2.20598 3.35588 0
M  V30 19813 H 3520.84 -2.43518 1.58945 0
M  V30 19814 P 3521.94 2.75334 8.47391 0
M  V30 19815 O 3522.16 2.44619 9.90336 0
M  V30 19816 O 3522.73 3.87776 7.92294 0
M  V30 19817 O 3522.19 1.4459 7.59357 0
M  V30 19818 C 3521.25 0.347653 7.69315 0
M  V30 19819 C 3521.98 -0.96767 7.52806 0
M  V30 19820 O 3522.19 -1.21055 6.10208 0
M  V30 19821 C 3523.38 -1.04557 8.13408 0
M  V30 19822 O 3523.77 -2.38311 8.41922 0
M  V30 19823 C 3524.26 -0.491279 7.02284 0
M  V30 19824 C 3523.55 -0.996264 5.77469 0
M  V30 19825 N 3523.6 -0.0501916 4.62973 0
M  V30 19826 C 3523.52 1.31969 4.65661 0
M  V30 19827 N 3523.59 1.86649 3.48119 0
M  V30 19828 C 3523.74 0.792089 2.62406 0
M  V30 19829 C 3523.87 0.705684 1.2207 0
M  V30 19830 N 3523.88 1.76207 0.413762 0
M  V30 19831 N 3523.99 -0.518981 0.685754 0
M  V30 19832 C 3523.98 -1.57595 1.49174 0
M  V30 19833 N 3523.86 -1.62909 2.80066 0
M  V30 19834 C 3523.74 -0.388195 3.3073 0
M  V30 19835 H 3520.76 0.374765 8.67791 0
M  V30 19836 H 3520.49 0.443613 6.90476 0
M  V30 19837 H 3521.36 -1.75559 7.96891 0
M  V30 19838 H 3524.01 -1.94563 5.46818 0
M  V30 19839 H 3524.29 0.608651 7.04676 0
M  V30 19840 H 3525.28 -0.889796 7.09039 0
M  V30 19841 H 3523.45 -0.433128 9.04664 0
M  V30 19842 H 3523.41 1.89246 5.57664 0
M  V30 19843 H 3523.79 2.71005 0.804694 0
M  V30 19844 H 3523.98 1.63189 -0.603768 0
M  V30 19845 H 3524.09 -2.53475 0.997614 0
M  V30 19846 P 3525.32 -2.75334 8.47391 0
M  V30 19847 O 3525.54 -3.84128 9.44797 0
M  V30 19848 O 3526.11 -1.51947 8.68712 0
M  V30 19849 O 3525.57 -3.29363 6.99321 0
M  V30 19850 C 3524.63 -4.24011 6.4274 0
M  V30 19851 C 3525.36 -5.20775 5.52155 0
M  V30 19852 O 3525.57 -4.56534 4.22446 0
M  V30 19853 C 3526.76 -5.62629 5.96531 0
M  V30 19854 O 3527.15 -6.87667 5.41053 0
M  V30 19855 C 3527.64 -4.52537 5.39283 0
M  V30 19856 C 3526.93 -4.20027 4.08623 0
M  V30 19857 N 3526.98 -2.76189 3.71603 0
M  V30 19858 H 3524.14 -4.797 7.24003 0
M  V30 19859 H 3523.87 -3.69856 5.84513 0
M  V30 19860 H 3524.74 -6.10356 5.41441 0
M  V30 19861 P 3528.7 -7.20834 5.23717 0
M  V30 19862 O 3528.92 -8.66104 5.38572 0
M  V30 19863 O 3529.49 -6.33544 6.1349 0
M  V30 19864 O 3528.95 -6.7751 3.72168 0
M  V30 19865 C 3528.01 -7.20825 2.7076 0
M  V30 19866 C 3528.74 -7.45864 1.40599 0
M  V30 19867 O 3528.95 -6.17651 0.734225 0
M  V30 19868 C 3530.14 -8.05808 1.51899 0
M  V30 19869 O 3530.53 -8.74358 0.335205 0
M  V30 19870 C 3531.02 -6.83093 1.70294 0
M  V30 19871 C 3530.31 -5.79992 0.836974 0
M  V30 19872 N 3530.36 -4.41864 1.38293 0
M  V30 19873 H 3527.52 -8.13644 3.0377 0
M  V30 19874 H 3527.25 -6.42788 2.55485 0
M  V30 19875 H 3528.12 -8.12039 0.792769 0
M  V30 19876 P 3532.08 -8.91 1.30487e-10 0
M  V30 19877 O 3532.3 -10.1746 -0.733838 0
M  V30 19878 O 3532.87 -8.73346 1.23964 0
M  V30 19879 O 3532.33 -7.66872 -0.971405 0
M  V30 19880 C 3531.39 -7.42405 -2.04668 0
M  V30 19881 C 3532.12 -6.86059 -3.24661 0
M  V30 19882 O 3532.33 -5.42934 -3.03695 0
M  V30 19883 C 3533.52 -7.41287 -3.50796 0
M  V30 19884 O 3533.91 -7.27073 -4.86816 0
M  V30 19885 C 3534.4 -6.5273 -2.63741 0
M  V30 19886 C 3533.69 -5.1842 -2.73198 0
M  V30 19887 N 3533.74 -4.38762 -1.4784 0
M  V30 19888 C 3533.66 -4.83651 -0.183876 0
M  V30 19889 N 3533.73 -3.88759 0.699393 0
M  V30 19890 C 3533.88 -2.7404 -0.0575568 0
M  V30 19891 C 3534.01 -1.37902 0.293928 0
M  V30 19892 N 3534.02 -0.938021 1.54797 0
M  V30 19893 N 3534.13 -0.491817 -0.70549 0
M  V30 19894 C 3534.12 -0.931735 -1.95979 0
M  V30 19895 N 3534 -2.16017 -2.41481 0
M  V30 19896 C 3533.88 -3.02547 -1.39121 0
M  V30 19897 H 3530.9 -8.36899 -2.3252 0
M  V30 19898 H 3530.63 -6.70391 -1.71179 0
M  V30 19899 H 3531.5 -7.03638 -4.13219 0
M  V30 19900 H 3534.15 -4.59931 -3.54016 0
M  V30 19901 H 3534.43 -6.88995 -1.59871 0
M  V30 19902 H 3535.42 -6.4684 -3.0373 0
M  V30 19903 H 3533.59 -8.47002 -3.20749 0
M  V30 19904 H 3533.55 -5.8885 0.0765548 0
M  V30 19905 H 3533.93 -1.60276 2.32875 0
M  V30 19906 H 3534.12 0.0699355 1.73859 0
M  V30 19907 H 3534.23 -0.165507 -2.71897 0
M  V30 19908 P 3535.46 -7.20834 -5.23717 0
M  V30 19909 O 3535.68 -7.79853 -6.57286 0
M  V30 19910 O 3536.25 -7.79239 -4.12957 0
M  V30 19911 O 3535.71 -5.63315 -5.29344 0
M  V30 19912 C 3534.77 -4.80255 -6.01876 0
M  V30 19913 C 3535.5 -3.64202 -6.65911 0
M  V30 19914 O 3535.71 -2.60694 -5.64732 0
M  V30 19915 C 3536.9 -3.93473 -7.1943 0
M  V30 19916 O 3537.29 -3.02071 -8.21205 0
M  V30 19917 C 3537.78 -3.73047 -5.97036 0
M  V30 19918 C 3537.07 -2.58828 -5.25741 0
M  V30 19919 N 3537.12 -2.68068 -3.77503 0
M  V30 19920 H 3534.28 -5.40332 -6.79951 0
M  V30 19921 H 3534.01 -4.41613 -5.32378 0
M  V30 19922 H 3534.88 -3.26331 -7.47797 0
M  V30 19923 P 3538.84 -2.75334 -8.47391 0
M  V30 19924 O 3539.06 -2.44571 -9.90142 0
M  V30 19925 O 3539.63 -3.87688 -7.92115 0
M  V30 19926 O 3539.09 -1.4459 -7.59357 0
M  V30 19927 C 3538.15 -0.347608 -7.69215 0
M  V30 19928 C 3538.88 0.96767 -7.52806 0
M  V30 19929 O 3539.09 1.21036 -6.1011 0
M  V30 19930 C 3540.28 1.04544 -8.13308 0
M  V30 19931 O 3540.67 2.38311 -8.41922 0
M  V30 19932 C 3541.16 0.491279 -7.02284 0
M  V30 19933 C 3540.45 0.996264 -5.77469 0
M  V30 19934 N 3540.5 0.0501916 -4.62973 0
M  V30 19935 H 3537.66 -0.374722 -8.67691 0
M  V30 19936 H 3537.39 -0.443485 -6.90277 0
M  V30 19937 H 3538.26 1.75537 -7.96793 0
M  V30 19938 P 3542.22 2.75334 -8.47391 0
M  V30 19939 O 3542.44 3.84128 -9.44797 0
M  V30 19940 O 3543.01 1.51947 -8.68712 0
M  V30 19941 O 3542.47 3.29363 -6.99321 0
M  V30 19942 C 3541.53 4.24011 -6.4274 0
M  V30 19943 C 3542.26 5.20775 -5.52155 0
M  V30 19944 O 3542.47 4.56534 -4.22446 0
M  V30 19945 C 3543.66 5.62629 -5.96531 0
M  V30 19946 O 3544.05 6.87667 -5.41053 0
M  V30 19947 C 3544.54 4.52537 -5.39283 0
M  V30 19948 C 3543.83 4.20027 -4.08623 0
M  V30 19949 N 3543.88 2.76189 -3.71603 0
M  V30 19950 H 3541.04 4.797 -7.24003 0
M  V30 19951 H 3540.77 3.69856 -5.84513 0
M  V30 19952 H 3541.64 6.10356 -5.41441 0
M  V30 19953 P 3545.6 7.20834 -5.23717 0
M  V30 19954 O 3545.82 8.66104 -5.38572 0
M  V30 19955 O 3546.39 6.33544 -6.1349 0
M  V30 19956 O 3545.85 6.7751 -3.72168 0
M  V30 19957 C 3544.91 7.20825 -2.7076 0
M  V30 19958 C 3545.64 7.45864 -1.40599 0
M  V30 19959 O 3545.85 6.17651 -0.734225 0
M  V30 19960 C 3547.04 8.05808 -1.51899 0
M  V30 19961 O 3547.43 8.74358 -0.335205 0
M  V30 19962 C 3547.92 6.83093 -1.70294 0
M  V30 19963 C 3547.21 5.79992 -0.836974 0
M  V30 19964 N 3547.26 4.41864 -1.38293 0
M  V30 19965 H 3544.42 8.13644 -3.0377 0
M  V30 19966 H 3544.15 6.42788 -2.55485 0
M  V30 19967 H 3545.02 8.12039 -0.792769 0
M  V30 19968 P 3548.98 8.91 -1.31596e-10 0
M  V30 19969 O 3549.2 10.1726 0.733694 0
M  V30 19970 O 3549.77 8.73148 -1.23936 0
M  V30 19971 O 3549.23 7.66872 0.971405 0
M  V30 19972 C 3548.29 7.42309 2.04641 0
M  V30 19973 C 3549.02 6.86059 3.24661 0
M  V30 19974 O 3549.23 5.42847 3.03646 0
M  V30 19975 C 3550.42 7.41196 3.50753 0
M  V30 19976 O 3550.81 7.27073 4.86816 0
M  V30 19977 C 3551.3 6.5273 2.63741 0
M  V30 19978 C 3550.59 5.1842 2.73198 0
M  V30 19979 N 3550.64 4.38762 1.4784 0
M  V30 19980 H 3547.8 8.36803 2.32493 0
M  V30 19981 H 3547.53 6.70197 1.71129 0
M  V30 19982 H 3548.4 7.03551 4.13168 0
M  V30 19983 P 3552.36 7.20834 5.23717 0
M  V30 19984 O 3552.58 7.80006 6.57415 0
M  V30 19985 O 3553.15 7.79416 4.13051 0
M  V30 19986 O 3552.61 5.63315 5.29344 0
M  V30 19987 C 3551.67 4.80318 6.01954 0
M  V30 19988 C 3552.4 3.64202 6.65911 0
M  V30 19989 O 3552.61 2.60736 5.64823 0
M  V30 19990 C 3553.8 3.93521 7.19518 0
M  V30 19991 O 3554.19 3.02071 8.21205 0
M  V30 19992 C 3554.68 3.73047 5.97036 0
M  V30 19993 C 3553.97 2.58828 5.25741 0
M  V30 19994 N 3554.02 2.68068 3.77503 0
M  V30 19995 C 3553.94 3.80474 2.99159 0
M  V30 19996 N 3554.01 3.55622 1.71925 0
M  V30 19997 C 3554.16 2.1832 1.65733 0
M  V30 19998 C 3554.29 1.28842 0.572777 0
M  V30 19999 N 3554.3 1.66875 -0.70098 0
M  V30 20000 N 3554.41 -0.016788 0.859836 0
M  V30 20001 C 3554.4 -0.398145 2.13316 0
M  V30 20002 N 3554.28 0.328224 3.22333 0
M  V30 20003 C 3554.16 1.62992 2.90383 0
M  V30 20004 H 3551.18 5.40394 6.8003 0
M  V30 20005 H 3550.91 4.41741 5.32532 0
M  V30 20006 H 3551.78 3.26371 7.47889 0
M  V30 20007 H 3554.43 1.64007 5.56746 0
M  V30 20008 H 3554.71 4.63439 5.3432 0
M  V30 20009 H 3555.7 3.44776 6.25925 0
M  V30 20010 H 3553.87 4.96707 7.57347 0
M  V30 20011 H 3553.83 4.8089 3.39924 0
M  V30 20012 H 3554.21 2.66547 -0.941919 0
M  V30 20013 H 3554.4 0.965341 -1.44766 0
M  V30 20014 H 3554.51 -1.46427 2.29697 0
M  V30 20015 P 3555.74 2.75334 8.47391 0
M  V30 20016 O 3555.96 2.44571 9.90142 0
M  V30 20017 O 3556.53 3.87688 7.92115 0
M  V30 20018 O 3555.99 1.4459 7.59357 0
M  V30 20019 C 3555.05 0.347608 7.69215 0
M  V30 20020 C 3555.78 -0.96767 7.52806 0
M  V30 20021 O 3555.99 -1.21036 6.1011 0
M  V30 20022 C 3557.18 -1.04544 8.13308 0
M  V30 20023 O 3557.57 -2.38311 8.41922 0
M  V30 20024 C 3558.06 -0.491279 7.02284 0
M  V30 20025 C 3557.35 -0.996264 5.77469 0
M  V30 20026 N 3557.4 -0.0501916 4.62973 0
M  V30 20027 C 3557.32 1.32786 4.63244 0
M  V30 20028 N 3557.4 1.86957 3.44545 0
M  V30 20029 C 3557.54 0.780241 2.58481 0
M  V30 20030 C 3557.67 0.738536 1.17757 0
M  V30 20031 N 3557.79 -0.58337 0.711393 0
M  V30 20032 C 3557.79 -1.70816 1.51017 0
M  V30 20033 N 3557.92 -2.87826 0.880757 0
M  V30 20034 N 3557.66 -1.67126 2.8339 0
M  V30 20035 C 3557.54 -0.401421 3.30572 0
M  V30 20036 H 3554.56 0.374722 8.67691 0
M  V30 20037 H 3554.29 0.443485 6.90277 0
M  V30 20038 H 3555.16 -1.75537 7.96793 0
M  V30 20039 P 3559.12 -2.75334 8.47391 0
M  V30 20040 O 3559.34 -3.84128 9.44797 0
M  V30 20041 O 3559.91 -1.51947 8.68712 0
M  V30 20042 O 3559.37 -3.29363 6.99321 0
M  V30 20043 C 3558.43 -4.24011 6.4274 0
M  V30 20044 C 3559.16 -5.20775 5.52155 0
M  V30 20045 O 3559.37 -4.56534 4.22446 0
M  V30 20046 C 3560.56 -5.62629 5.96531 0
M  V30 20047 O 3560.95 -6.87667 5.41053 0
M  V30 20048 C 3561.44 -4.52537 5.39283 0
M  V30 20049 C 3560.73 -4.20027 4.08623 0
M  V30 20050 N 3560.78 -2.76189 3.71603 0
M  V30 20051 H 3557.94 -4.797 7.24003 0
M  V30 20052 H 3557.67 -3.69856 5.84513 0
M  V30 20053 H 3558.54 -6.10356 5.41441 0
M  V30 20054 P 3562.5 -7.20834 5.23717 0
M  V30 20055 O 3562.72 -8.66104 5.38572 0
M  V30 20056 O 3563.29 -6.33544 6.1349 0
M  V30 20057 O 3562.75 -6.7751 3.72168 0
M  V30 20058 C 3561.81 -7.20825 2.7076 0
M  V30 20059 C 3562.54 -7.45864 1.40599 0
M  V30 20060 O 3562.75 -6.17651 0.734225 0
M  V30 20061 C 3563.94 -8.05808 1.51899 0
M  V30 20062 O 3564.33 -8.74358 0.335205 0
M  V30 20063 C 3564.82 -6.83093 1.70294 0
M  V30 20064 C 3564.11 -5.79992 0.836974 0
M  V30 20065 N 3564.16 -4.41864 1.38293 0
M  V30 20066 H 3561.32 -8.13644 3.0377 0
M  V30 20067 H 3561.05 -6.42788 2.55485 0
M  V30 20068 H 3561.92 -8.12039 0.792769 0
M  V30 20069 P 3565.88 -8.91 1.32705e-10 0
M  V30 20070 O 3566.1 -10.1726 -0.733694 0
M  V30 20071 O 3566.67 -8.73148 1.23936 0
M  V30 20072 O 3566.13 -7.66872 -0.971405 0
M  V30 20073 C 3565.19 -7.42309 -2.04641 0
M  V30 20074 C 3565.92 -6.86059 -3.24661 0
M  V30 20075 O 3566.13 -5.42847 -3.03646 0
M  V30 20076 C 3567.32 -7.41196 -3.50753 0
M  V30 20077 O 3567.71 -7.27073 -4.86816 0
M  V30 20078 C 3568.2 -6.5273 -2.63741 0
M  V30 20079 C 3567.49 -5.1842 -2.73198 0
M  V30 20080 N 3567.54 -4.38762 -1.4784 0
M  V30 20081 H 3564.7 -8.36803 -2.32493 0
M  V30 20082 H 3564.43 -6.70197 -1.71129 0
M  V30 20083 H 3565.3 -7.03551 -4.13168 0
M  V30 20084 P 3569.26 -7.20834 -5.23717 0
M  V30 20085 O 3569.48 -7.79853 -6.57286 0
M  V30 20086 O 3570.05 -7.79239 -4.12957 0
M  V30 20087 O 3569.51 -5.63315 -5.29344 0
M  V30 20088 C 3568.57 -4.80255 -6.01876 0
M  V30 20089 C 3569.3 -3.64202 -6.65911 0
M  V30 20090 O 3569.51 -2.60694 -5.64732 0
M  V30 20091 C 3570.7 -3.93473 -7.1943 0
M  V30 20092 O 3571.09 -3.02071 -8.21205 0
M  V30 20093 C 3571.58 -3.73047 -5.97036 0
M  V30 20094 C 3570.87 -2.58828 -5.25741 0
M  V30 20095 N 3570.92 -2.68068 -3.77503 0
M  V30 20096 H 3568.08 -5.40332 -6.79951 0
M  V30 20097 H 3567.81 -4.41613 -5.32378 0
M  V30 20098 H 3568.68 -3.26331 -7.47797 0
M  V30 20099 P 3572.64 -2.75334 -8.47391 0
M  V30 20100 O 3572.86 -2.44571 -9.90142 0
M  V30 20101 O 3573.43 -3.87688 -7.92115 0
M  V30 20102 O 3572.89 -1.4459 -7.59357 0
M  V30 20103 C 3571.95 -0.347608 -7.69215 0
M  V30 20104 C 3572.68 0.96767 -7.52806 0
M  V30 20105 O 3572.89 1.21036 -6.1011 0
M  V30 20106 C 3574.08 1.04544 -8.13308 0
M  V30 20107 O 3574.47 2.38311 -8.41922 0
M  V30 20108 C 3574.96 0.491279 -7.02284 0
M  V30 20109 C 3574.25 0.996264 -5.77469 0
M  V30 20110 N 3574.3 0.0501916 -4.62973 0
M  V30 20111 H 3571.46 -0.374722 -8.67691 0
M  V30 20112 H 3571.19 -0.443485 -6.90277 0
M  V30 20113 H 3572.06 1.75537 -7.96793 0
M  V30 20114 P 3576.02 2.75334 -8.47391 0
M  V30 20115 O 3576.24 3.84128 -9.44797 0
M  V30 20116 O 3576.81 1.51947 -8.68712 0
M  V30 20117 O 3576.27 3.29363 -6.99321 0
M  V30 20118 C 3575.33 4.24011 -6.4274 0
M  V30 20119 C 3576.06 5.20775 -5.52155 0
M  V30 20120 O 3576.27 4.56534 -4.22446 0
M  V30 20121 C 3577.46 5.62629 -5.96531 0
M  V30 20122 O 3577.85 6.87667 -5.41053 0
M  V30 20123 C 3578.34 4.52537 -5.39283 0
M  V30 20124 C 3577.63 4.20027 -4.08623 0
M  V30 20125 N 3577.68 2.76189 -3.71603 0
M  V30 20126 H 3574.84 4.797 -7.24003 0
M  V30 20127 H 3574.57 3.69856 -5.84513 0
M  V30 20128 H 3575.44 6.10356 -5.41441 0
M  V30 20129 P 3579.4 7.20834 -5.23717 0
M  V30 20130 O 3579.62 8.66104 -5.38572 0
M  V30 20131 O 3580.19 6.33544 -6.1349 0
M  V30 20132 O 3579.65 6.7751 -3.72168 0
M  V30 20133 C 3578.71 7.20825 -2.7076 0
M  V30 20134 C 3579.44 7.45864 -1.40599 0
M  V30 20135 O 3579.65 6.17651 -0.734225 0
M  V30 20136 C 3580.84 8.05808 -1.51899 0
M  V30 20137 O 3581.23 8.74358 -0.335205 0
M  V30 20138 C 3581.72 6.83093 -1.70294 0
M  V30 20139 C 3581.01 5.79992 -0.836974 0
M  V30 20140 N 3581.06 4.41864 -1.38293 0
M  V30 20141 H 3578.22 8.13644 -3.0377 0
M  V30 20142 H 3577.95 6.42788 -2.55485 0
M  V30 20143 H 3578.82 8.12039 -0.792769 0
M  V30 20144 P 3582.78 8.91 -1.33814e-10 0
M  V30 20145 O 3583 10.1726 0.733694 0
M  V30 20146 O 3583.57 8.73148 -1.23936 0
M  V30 20147 O 3583.03 7.66872 0.971405 0
M  V30 20148 C 3582.09 7.42309 2.04641 0
M  V30 20149 C 3582.82 6.86059 3.24661 0
M  V30 20150 O 3583.03 5.42847 3.03646 0
M  V30 20151 C 3584.22 7.41196 3.50753 0
M  V30 20152 O 3584.61 7.27073 4.86816 0
M  V30 20153 C 3585.1 6.5273 2.63741 0
M  V30 20154 C 3584.39 5.1842 2.73198 0
M  V30 20155 N 3584.44 4.38762 1.4784 0
M  V30 20156 C 3584.36 4.81605 0.168631 0
M  V30 20157 N 3584.44 3.85454 -0.713363 0
M  V30 20158 C 3584.58 2.6994 0.0566958 0
M  V30 20159 C 3584.71 1.34815 -0.338502 0
M  V30 20160 O 3584.73 0.869548 -1.47125 0
M  V30 20161 N 3584.83 0.496304 0.77465 0
M  V30 20162 C 3584.83 0.908403 2.09122 0
M  V30 20163 N 3584.96 -0.0517805 3.00955 0
M  V30 20164 N 3584.7 2.17875 2.46519 0
M  V30 20165 C 3584.58 3.01988 1.4033 0
M  V30 20166 H 3581.6 8.36803 2.32493 0
M  V30 20167 H 3581.33 6.70197 1.71129 0
M  V30 20168 H 3582.2 7.03551 4.13168 0
M  V30 20169 H 3584.85 4.59498 3.54415 0
M  V30 20170 H 3585.13 6.88898 1.59848 0
M  V30 20171 H 3586.12 6.46749 3.03687 0
M  V30 20172 H 3584.29 8.46908 3.20714 0
M  V30 20173 H 3584.24 5.86405 -0.105564 0
M  V30 20174 H 3584.92 -0.483664 0.597855 0
M  V30 20175 H 3584.96 0.187865 4.0116 0
M  V30 20176 H 3585.06 -1.03585 2.71726 0
M  V30 20177 P 3586.16 7.20834 5.23717 0
M  V30 20178 O 3586.38 7.79853 6.57286 0
M  V30 20179 O 3586.95 7.79239 4.12957 0
M  V30 20180 O 3586.41 5.63315 5.29344 0
M  V30 20181 C 3585.47 4.80255 6.01876 0
M  V30 20182 C 3586.2 3.64202 6.65911 0
M  V30 20183 O 3586.41 2.60694 5.64732 0
M  V30 20184 C 3587.6 3.93473 7.1943 0
M  V30 20185 O 3587.99 3.02071 8.21205 0
M  V30 20186 C 3588.48 3.73047 5.97036 0
M  V30 20187 C 3587.77 2.58828 5.25741 0
M  V30 20188 N 3587.82 2.68068 3.77503 0
M  V30 20189 H 3584.98 5.40332 6.79951 0
M  V30 20190 H 3584.71 4.41613 5.32378 0
M  V30 20191 H 3585.58 3.26331 7.47797 0
M  V30 20192 P 3589.54 2.75334 8.47391 0
M  V30 20193 O 3589.76 2.44571 9.90142 0
M  V30 20194 O 3590.33 3.87688 7.92115 0
M  V30 20195 O 3589.79 1.4459 7.59357 0
M  V30 20196 C 3588.85 0.347608 7.69215 0
M  V30 20197 C 3589.58 -0.96767 7.52806 0
M  V30 20198 O 3589.79 -1.21036 6.1011 0
M  V30 20199 C 3590.98 -1.04544 8.13308 0
M  V30 20200 O 3591.37 -2.38311 8.41922 0
M  V30 20201 C 3591.86 -0.491279 7.02284 0
M  V30 20202 C 3591.15 -0.996264 5.77469 0
M  V30 20203 N 3591.2 -0.0501916 4.62973 0
M  V30 20204 H 3588.36 0.374722 8.67691 0
M  V30 20205 H 3588.09 0.443485 6.90277 0
M  V30 20206 H 3588.96 -1.75537 7.96793 0
M  V30 20207 P 3592.92 -2.75334 8.47391 0
M  V30 20208 O 3593.14 -3.84128 9.44797 0
M  V30 20209 O 3593.71 -1.51947 8.68712 0
M  V30 20210 O 3593.17 -3.29363 6.99321 0
M  V30 20211 C 3592.23 -4.24011 6.4274 0
M  V30 20212 C 3592.96 -5.20775 5.52155 0
M  V30 20213 O 3593.17 -4.56534 4.22446 0
M  V30 20214 C 3594.36 -5.62629 5.96531 0
M  V30 20215 O 3594.75 -6.87667 5.41053 0
M  V30 20216 C 3595.24 -4.52537 5.39283 0
M  V30 20217 C 3594.53 -4.20027 4.08623 0
M  V30 20218 N 3594.58 -2.76189 3.71603 0
M  V30 20219 H 3591.74 -4.797 7.24003 0
M  V30 20220 H 3591.47 -3.69856 5.84513 0
M  V30 20221 H 3592.34 -6.10356 5.41441 0
M  V30 20222 P 3596.3 -7.20834 5.23717 0
M  V30 20223 O 3596.52 -8.66104 5.38572 0
M  V30 20224 O 3597.09 -6.33544 6.1349 0
M  V30 20225 O 3596.55 -6.7751 3.72168 0
M  V30 20226 C 3595.61 -7.20825 2.7076 0
M  V30 20227 C 3596.34 -7.45864 1.40599 0
M  V30 20228 O 3596.55 -6.17651 0.734225 0
M  V30 20229 C 3597.74 -8.05808 1.51899 0
M  V30 20230 O 3598.13 -8.74358 0.335205 0
M  V30 20231 C 3598.62 -6.83093 1.70294 0
M  V30 20232 C 3597.91 -5.79992 0.836974 0
M  V30 20233 N 3597.96 -4.41864 1.38293 0
M  V30 20234 H 3595.12 -8.13644 3.0377 0
M  V30 20235 H 3594.85 -6.42788 2.55485 0
M  V30 20236 H 3595.72 -8.12039 0.792769 0
M  V30 20237 P 3599.68 -8.91 1.34923e-10 0
M  V30 20238 O 3599.9 -10.1726 -0.733694 0
M  V30 20239 O 3600.47 -8.73148 1.23936 0
M  V30 20240 O 3599.93 -7.66872 -0.971405 0
M  V30 20241 C 3598.99 -7.42309 -2.04641 0
M  V30 20242 C 3599.72 -6.86059 -3.24661 0
M  V30 20243 O 3599.93 -5.42847 -3.03646 0
M  V30 20244 C 3601.12 -7.41196 -3.50753 0
M  V30 20245 O 3601.51 -7.27073 -4.86816 0
M  V30 20246 C 3602 -6.5273 -2.63741 0
M  V30 20247 C 3601.29 -5.1842 -2.73198 0
M  V30 20248 N 3601.34 -4.38762 -1.4784 0
M  V30 20249 H 3598.5 -8.36803 -2.32493 0
M  V30 20250 H 3598.23 -6.70197 -1.71129 0
M  V30 20251 H 3599.1 -7.03551 -4.13168 0
M  V30 20252 P 3603.06 -7.20834 -5.23717 0
M  V30 20253 O 3603.28 -7.79853 -6.57286 0
M  V30 20254 O 3603.85 -7.79239 -4.12957 0
M  V30 20255 O 3603.31 -5.63315 -5.29344 0
M  V30 20256 C 3602.37 -4.80255 -6.01876 0
M  V30 20257 C 3603.1 -3.64202 -6.65911 0
M  V30 20258 O 3603.31 -2.60694 -5.64732 0
M  V30 20259 C 3604.5 -3.93473 -7.1943 0
M  V30 20260 O 3604.89 -3.02071 -8.21205 0
M  V30 20261 C 3605.38 -3.73047 -5.97036 0
M  V30 20262 C 3604.67 -2.58828 -5.25741 0
M  V30 20263 N 3604.72 -2.68068 -3.77503 0
M  V30 20264 H 3601.88 -5.40332 -6.79951 0
M  V30 20265 H 3601.61 -4.41613 -5.32378 0
M  V30 20266 H 3602.48 -3.26331 -7.47797 0
M  V30 20267 P 3606.44 -2.75334 -8.47391 0
M  V30 20268 O 3606.66 -2.44571 -9.90142 0
M  V30 20269 O 3607.23 -3.87688 -7.92115 0
M  V30 20270 O 3606.69 -1.4459 -7.59357 0
M  V30 20271 C 3605.75 -0.347608 -7.69215 0
M  V30 20272 C 3606.48 0.96767 -7.52806 0
M  V30 20273 O 3606.69 1.21036 -6.1011 0
M  V30 20274 C 3607.88 1.04544 -8.13308 0
M  V30 20275 O 3608.27 2.38311 -8.41922 0
M  V30 20276 C 3608.76 0.491279 -7.02284 0
M  V30 20277 C 3608.05 0.996264 -5.77469 0
M  V30 20278 N 3608.1 0.0501916 -4.62973 0
M  V30 20279 H 3605.26 -0.374722 -8.67691 0
M  V30 20280 H 3604.99 -0.443485 -6.90277 0
M  V30 20281 H 3605.86 1.75537 -7.96793 0
M  V30 20282 P 3609.82 2.75334 -8.47391 0
M  V30 20283 O 3610.04 3.84128 -9.44797 0
M  V30 20284 O 3610.61 1.51947 -8.68712 0
M  V30 20285 O 3610.07 3.29363 -6.99321 0
M  V30 20286 C 3609.13 4.24011 -6.4274 0
M  V30 20287 C 3609.86 5.20775 -5.52155 0
M  V30 20288 O 3610.07 4.56534 -4.22446 0
M  V30 20289 C 3611.26 5.62629 -5.96531 0
M  V30 20290 O 3611.65 6.87667 -5.41053 0
M  V30 20291 C 3612.14 4.52537 -5.39283 0
M  V30 20292 C 3611.43 4.20027 -4.08623 0
M  V30 20293 N 3611.48 2.76189 -3.71603 0
M  V30 20294 H 3608.64 4.797 -7.24003 0
M  V30 20295 H 3608.37 3.69856 -5.84513 0
M  V30 20296 H 3609.24 6.10356 -5.41441 0
M  V30 20297 P 3613.2 7.20834 -5.23717 0
M  V30 20298 O 3613.42 8.66104 -5.38572 0
M  V30 20299 O 3613.99 6.33544 -6.1349 0
M  V30 20300 O 3613.45 6.7751 -3.72168 0
M  V30 20301 C 3612.51 7.20825 -2.7076 0
M  V30 20302 C 3613.24 7.45864 -1.40599 0
M  V30 20303 O 3613.45 6.17651 -0.734225 0
M  V30 20304 C 3614.64 8.05808 -1.51899 0
M  V30 20305 O 3615.03 8.74358 -0.335205 0
M  V30 20306 C 3615.52 6.83093 -1.70294 0
M  V30 20307 C 3614.81 5.79992 -0.836974 0
M  V30 20308 N 3614.86 4.41864 -1.38293 0
M  V30 20309 H 3612.02 8.13644 -3.0377 0
M  V30 20310 H 3611.75 6.42788 -2.55485 0
M  V30 20311 H 3612.62 8.12039 -0.792769 0
M  V30 20312 P 3616.58 8.91 -1.36032e-10 0
M  V30 20313 O 3616.8 10.1726 0.733694 0
M  V30 20314 O 3617.37 8.73148 -1.23936 0
M  V30 20315 O 3616.83 7.66872 0.971405 0
M  V30 20316 C 3615.89 7.42309 2.04641 0
M  V30 20317 C 3616.62 6.86059 3.24661 0
M  V30 20318 O 3616.83 5.42847 3.03646 0
M  V30 20319 C 3618.02 7.41196 3.50753 0
M  V30 20320 O 3618.41 7.27073 4.86816 0
M  V30 20321 C 3618.9 6.5273 2.63741 0
M  V30 20322 C 3618.19 5.1842 2.73198 0
M  V30 20323 N 3618.24 4.38762 1.4784 0
M  V30 20324 H 3615.4 8.36803 2.32493 0
M  V30 20325 H 3615.13 6.70197 1.71129 0
M  V30 20326 H 3616 7.03551 4.13168 0
M  V30 20327 P 3619.96 7.20834 5.23717 0
M  V30 20328 O 3620.18 7.79853 6.57286 0
M  V30 20329 O 3620.75 7.79239 4.12957 0
M  V30 20330 O 3620.21 5.63315 5.29344 0
M  V30 20331 C 3619.27 4.80255 6.01876 0
M  V30 20332 C 3620 3.64202 6.65911 0
M  V30 20333 O 3620.21 2.60694 5.64732 0
M  V30 20334 C 3621.4 3.93473 7.1943 0
M  V30 20335 O 3621.79 3.02071 8.21205 0
M  V30 20336 C 3622.28 3.73047 5.97036 0
M  V30 20337 C 3621.57 2.58828 5.25741 0
M  V30 20338 N 3621.62 2.68068 3.77503 0
M  V30 20339 H 3618.78 5.40332 6.79951 0
M  V30 20340 H 3618.51 4.41613 5.32378 0
M  V30 20341 H 3619.38 3.26331 7.47797 0
M  V30 20342 P 3623.34 2.75334 8.47391 0
M  V30 20343 O 3623.56 2.44571 9.90142 0
M  V30 20344 O 3624.13 3.87688 7.92115 0
M  V30 20345 O 3623.59 1.4459 7.59357 0
M  V30 20346 C 3622.65 0.347608 7.69215 0
M  V30 20347 C 3623.38 -0.96767 7.52806 0
M  V30 20348 O 3623.59 -1.21036 6.1011 0
M  V30 20349 C 3624.78 -1.04544 8.13308 0
M  V30 20350 O 3625.17 -2.38311 8.41922 0
M  V30 20351 C 3625.66 -0.491279 7.02284 0
M  V30 20352 C 3624.95 -0.996264 5.77469 0
M  V30 20353 N 3625 -0.0501916 4.62973 0
M  V30 20354 H 3622.16 0.374722 8.67691 0
M  V30 20355 H 3621.89 0.443485 6.90277 0
M  V30 20356 H 3622.76 -1.75537 7.96793 0
M  V30 20357 P 3626.72 -2.75334 8.47391 0
M  V30 20358 O 3626.94 -3.84128 9.44797 0
M  V30 20359 O 3627.51 -1.51947 8.68712 0
M  V30 20360 O 3626.97 -3.29363 6.99321 0
M  V30 20361 C 3626.03 -4.24011 6.4274 0
M  V30 20362 C 3626.76 -5.20775 5.52155 0
M  V30 20363 O 3626.97 -4.56534 4.22446 0
M  V30 20364 C 3628.16 -5.62629 5.96531 0
M  V30 20365 O 3628.55 -6.87667 5.41053 0
M  V30 20366 C 3629.04 -4.52537 5.39283 0
M  V30 20367 C 3628.33 -4.20027 4.08623 0
M  V30 20368 N 3628.38 -2.76189 3.71603 0
M  V30 20369 H 3625.54 -4.797 7.24003 0
M  V30 20370 H 3625.27 -3.69856 5.84513 0
M  V30 20371 H 3626.14 -6.10356 5.41441 0
M  V30 20372 P 3630.1 -7.20834 5.23717 0
M  V30 20373 O 3630.32 -8.66104 5.38572 0
M  V30 20374 O 3630.89 -6.33544 6.1349 0
M  V30 20375 O 3630.35 -6.7751 3.72168 0
M  V30 20376 C 3629.41 -7.20825 2.7076 0
M  V30 20377 C 3630.14 -7.45864 1.40599 0
M  V30 20378 O 3630.35 -6.17651 0.734225 0
M  V30 20379 C 3631.54 -8.05808 1.51899 0
M  V30 20380 O 3631.93 -8.74358 0.335205 0
M  V30 20381 C 3632.42 -6.83093 1.70294 0
M  V30 20382 C 3631.71 -5.79992 0.836974 0
M  V30 20383 N 3631.76 -4.41864 1.38293 0
M  V30 20384 H 3628.92 -8.13644 3.0377 0
M  V30 20385 H 3628.65 -6.42788 2.55485 0
M  V30 20386 H 3629.52 -8.12039 0.792769 0
M  V30 20387 P 3633.48 -8.91 1.37141e-10 0
M  V30 20388 O 3633.7 -10.1726 -0.733694 0
M  V30 20389 O 3634.27 -8.73148 1.23936 0
M  V30 20390 O 3633.73 -7.66872 -0.971405 0
M  V30 20391 C 3632.79 -7.42309 -2.04641 0
M  V30 20392 C 3633.52 -6.86059 -3.24661 0
M  V30 20393 O 3633.73 -5.42847 -3.03646 0
M  V30 20394 C 3634.92 -7.41196 -3.50753 0
M  V30 20395 O 3635.31 -7.27073 -4.86816 0
M  V30 20396 C 3635.8 -6.5273 -2.63741 0
M  V30 20397 C 3635.09 -5.1842 -2.73198 0
M  V30 20398 N 3635.14 -4.38762 -1.4784 0
M  V30 20399 H 3632.3 -8.36803 -2.32493 0
M  V30 20400 H 3632.03 -6.70197 -1.71129 0
M  V30 20401 H 3632.9 -7.03551 -4.13168 0
M  V30 20402 P 3636.86 -7.20834 -5.23717 0
M  V30 20403 O 3637.08 -7.79853 -6.57286 0
M  V30 20404 O 3637.65 -7.79239 -4.12957 0
M  V30 20405 O 3637.11 -5.63315 -5.29344 0
M  V30 20406 C 3636.17 -4.80255 -6.01876 0
M  V30 20407 C 3636.9 -3.64202 -6.65911 0
M  V30 20408 O 3637.11 -2.60694 -5.64732 0
M  V30 20409 C 3638.3 -3.93473 -7.1943 0
M  V30 20410 O 3638.69 -3.02071 -8.21205 0
M  V30 20411 C 3639.18 -3.73047 -5.97036 0
M  V30 20412 C 3638.47 -2.58828 -5.25741 0
M  V30 20413 N 3638.52 -2.68068 -3.77503 0
M  V30 20414 H 3635.68 -5.40332 -6.79951 0
M  V30 20415 H 3635.41 -4.41613 -5.32378 0
M  V30 20416 H 3636.28 -3.26331 -7.47797 0
M  V30 20417 P 3640.24 -2.75334 -8.47391 0
M  V30 20418 O 3640.46 -2.44571 -9.90142 0
M  V30 20419 O 3641.03 -3.87688 -7.92115 0
M  V30 20420 O 3640.49 -1.4459 -7.59357 0
M  V30 20421 C 3639.55 -0.347608 -7.69215 0
M  V30 20422 C 3640.28 0.96767 -7.52806 0
M  V30 20423 O 3640.49 1.21036 -6.1011 0
M  V30 20424 C 3641.68 1.04544 -8.13308 0
M  V30 20425 O 3642.07 2.38311 -8.41922 0
M  V30 20426 C 3642.56 0.491279 -7.02284 0
M  V30 20427 C 3641.85 0.996264 -5.77469 0
M  V30 20428 N 3641.9 0.0501916 -4.62973 0
M  V30 20429 H 3639.06 -0.374722 -8.67691 0
M  V30 20430 H 3638.79 -0.443485 -6.90277 0
M  V30 20431 H 3639.66 1.75537 -7.96793 0
M  V30 20432 P 3643.62 2.75334 -8.47391 0
M  V30 20433 O 3643.84 3.84128 -9.44797 0
M  V30 20434 O 3644.41 1.51947 -8.68712 0
M  V30 20435 O 3643.87 3.29363 -6.99321 0
M  V30 20436 C 3642.93 4.24011 -6.4274 0
M  V30 20437 C 3643.66 5.20775 -5.52155 0
M  V30 20438 O 3643.87 4.56534 -4.22446 0
M  V30 20439 C 3645.06 5.62629 -5.96531 0
M  V30 20440 O 3645.45 6.87667 -5.41053 0
M  V30 20441 C 3645.94 4.52537 -5.39283 0
M  V30 20442 C 3645.23 4.20027 -4.08623 0
M  V30 20443 N 3645.28 2.76189 -3.71603 0
M  V30 20444 H 3642.44 4.797 -7.24003 0
M  V30 20445 H 3642.17 3.69856 -5.84513 0
M  V30 20446 H 3643.04 6.10356 -5.41441 0
M  V30 20447 P 3647 7.20834 -5.23717 0
M  V30 20448 O 3647.22 8.66104 -5.38572 0
M  V30 20449 O 3647.79 6.33544 -6.1349 0
M  V30 20450 O 3647.25 6.7751 -3.72168 0
M  V30 20451 C 3646.31 7.20825 -2.7076 0
M  V30 20452 C 3647.04 7.45864 -1.40599 0
M  V30 20453 O 3647.25 6.17651 -0.734225 0
M  V30 20454 C 3648.44 8.05808 -1.51899 0
M  V30 20455 O 3648.83 8.74358 -0.335205 0
M  V30 20456 C 3649.32 6.83093 -1.70294 0
M  V30 20457 C 3648.61 5.79992 -0.836974 0
M  V30 20458 N 3648.66 4.41864 -1.38293 0
M  V30 20459 C 3648.58 3.99538 -2.69438 0
M  V30 20460 N 3648.66 2.69909 -2.84277 0
M  V30 20461 C 3648.8 2.21719 -1.5408 0
M  V30 20462 C 3648.93 0.891712 -1.06628 0
M  V30 20463 N 3649.05 0.856846 0.334985 0
M  V30 20464 C 3649.05 1.9641 1.15789 0
M  V30 20465 N 3649.18 1.72708 2.46522 0
M  V30 20466 N 3648.92 3.21165 0.713741 0
M  V30 20467 C 3648.8 3.26797 -0.639748 0
M  V30 20468 H 3645.82 8.13644 -3.0377 0
M  V30 20469 H 3645.55 6.42788 -2.55485 0
M  V30 20470 H 3646.42 8.12039 -0.792769 0
M  V30 20471 P 3650.38 8.91 -1.3825e-10 0
M  V30 20472 O 3650.6 10.1726 0.733694 0
M  V30 20473 O 3651.17 8.73148 -1.23936 0
M  V30 20474 O 3650.63 7.66872 0.971405 0
M  V30 20475 C 3649.69 7.42309 2.04641 0
M  V30 20476 C 3650.42 6.86059 3.24661 0
M  V30 20477 O 3650.63 5.42847 3.03646 0
M  V30 20478 C 3651.82 7.41196 3.50753 0
M  V30 20479 O 3652.21 7.27073 4.86816 0
M  V30 20480 C 3652.7 6.5273 2.63741 0
M  V30 20481 C 3651.99 5.1842 2.73198 0
M  V30 20482 N 3652.04 4.38762 1.4784 0
M  V30 20483 C 3651.96 4.81605 0.168631 0
M  V30 20484 N 3652.04 3.85454 -0.713363 0
M  V30 20485 C 3652.18 2.6994 0.0566958 0
M  V30 20486 C 3652.31 1.34815 -0.338502 0
M  V30 20487 O 3652.33 0.869548 -1.47125 0
M  V30 20488 N 3652.43 0.496304 0.77465 0
M  V30 20489 C 3652.43 0.908403 2.09122 0
M  V30 20490 N 3652.56 -0.0517805 3.00955 0
M  V30 20491 N 3652.3 2.17875 2.46519 0
M  V30 20492 C 3652.18 3.01988 1.4033 0
M  V30 20493 H 3649.2 8.36803 2.32493 0
M  V30 20494 H 3648.93 6.70197 1.71129 0
M  V30 20495 H 3649.8 7.03551 4.13168 0
M  V30 20496 H 3652.45 4.59498 3.54415 0
M  V30 20497 H 3652.73 6.88898 1.59848 0
M  V30 20498 H 3653.72 6.46749 3.03687 0
M  V30 20499 H 3651.89 8.46908 3.20714 0
M  V30 20500 H 3651.84 5.86405 -0.105564 0
M  V30 20501 H 3652.52 -0.483664 0.597855 0
M  V30 20502 H 3652.56 0.187865 4.0116 0
M  V30 20503 H 3652.66 -1.03585 2.71726 0
M  V30 20504 P 3653.76 7.20834 5.23717 0
M  V30 20505 O 3653.98 7.7993 6.57351 0
M  V30 20506 O 3654.55 7.79328 4.13004 0
M  V30 20507 O 3654.01 5.63315 5.29344 0
M  V30 20508 C 3653.07 4.80193 6.01798 0
M  V30 20509 C 3653.8 3.64202 6.65911 0
M  V30 20510 O 3654.01 2.60694 5.64732 0
M  V30 20511 C 3655.2 3.93473 7.1943 0
M  V30 20512 O 3655.59 3.02071 8.21205 0
M  V30 20513 C 3656.08 3.73047 5.97036 0
M  V30 20514 C 3655.37 2.58828 5.25741 0
M  V30 20515 N 3655.42 2.6801 3.77422 0
M  V30 20516 C 3655.57 1.50443 3.07133 0
M  V30 20517 O 3655.66 0.419406 3.61576 0
M  V30 20518 N 3655.61 1.6403 1.69677 0
M  V30 20519 C 3655.52 2.81206 0.986255 0
M  V30 20520 C 3655.37 3.99158 1.80325 0
M  V30 20521 C 3655.32 3.89779 3.1476 0
M  V30 20522 H 3652.58 5.40332 6.79951 0
M  V30 20523 H 3652.31 4.41549 5.32301 0
M  V30 20524 H 3653.18 3.26331 7.47797 0
M  V30 20525 H 3655.83 1.6395 5.56554 0
M  V30 20526 H 3656.11 4.63439 5.3432 0
M  V30 20527 H 3657.1 3.44728 6.25838 0
M  V30 20528 H 3655.27 4.96652 7.57263 0
M  V30 20529 H 3655.2 4.80159 3.74441 0
M  V30 20530 P 3657.14 2.75334 8.47391 0
M  V30 20531 O 3657.36 2.44571 9.90142 0
M  V30 20532 O 3657.93 3.87688 7.92115 0
M  V30 20533 O 3657.39 1.4459 7.59357 0
M  V30 20534 C 3656.45 0.347608 7.69215 0
M  V30 20535 C 3657.18 -0.96767 7.52806 0
M  V30 20536 O 3657.39 -1.21036 6.1011 0
M  V30 20537 C 3658.58 -1.04544 8.13308 0
M  V30 20538 O 3658.97 -2.38311 8.41922 0
M  V30 20539 C 3659.46 -0.491279 7.02284 0
M  V30 20540 C 3658.75 -0.996264 5.77469 0
M  V30 20541 N 3658.8 -0.0501916 4.62973 0
M  V30 20542 H 3655.96 0.374722 8.67691 0
M  V30 20543 H 3655.69 0.443485 6.90277 0
M  V30 20544 H 3656.56 -1.75537 7.96793 0
M  V30 20545 P 3660.52 -2.75334 8.47391 0
M  V30 20546 O 3660.74 -3.84128 9.44797 0
M  V30 20547 O 3661.31 -1.51947 8.68712 0
M  V30 20548 O 3660.77 -3.29363 6.99321 0
M  V30 20549 C 3659.83 -4.24011 6.4274 0
M  V30 20550 C 3660.56 -5.20775 5.52155 0
M  V30 20551 O 3660.77 -4.56534 4.22446 0
M  V30 20552 C 3661.96 -5.62629 5.96531 0
M  V30 20553 O 3662.35 -6.87667 5.41053 0
M  V30 20554 C 3662.84 -4.52537 5.39283 0
M  V30 20555 C 3662.13 -4.20027 4.08623 0
M  V30 20556 N 3662.18 -2.76189 3.71603 0
M  V30 20557 H 3659.34 -4.797 7.24003 0
M  V30 20558 H 3659.07 -3.69856 5.84513 0
M  V30 20559 H 3659.94 -6.10356 5.41441 0
M  V30 20560 P 3663.9 -7.20834 5.23717 0
M  V30 20561 O 3664.12 -8.66104 5.38572 0
M  V30 20562 O 3664.69 -6.33544 6.1349 0
M  V30 20563 O 3664.15 -6.7751 3.72168 0
M  V30 20564 C 3663.21 -7.20825 2.7076 0
M  V30 20565 C 3663.94 -7.45864 1.40599 0
M  V30 20566 O 3664.15 -6.17651 0.734225 0
M  V30 20567 C 3665.34 -8.05808 1.51899 0
M  V30 20568 O 3665.73 -8.74358 0.335205 0
M  V30 20569 C 3666.22 -6.83093 1.70294 0
M  V30 20570 C 3665.51 -5.79992 0.836974 0
M  V30 20571 N 3665.56 -4.41864 1.38293 0
M  V30 20572 H 3662.72 -8.13644 3.0377 0
M  V30 20573 H 3662.45 -6.42788 2.55485 0
M  V30 20574 H 3663.32 -8.12039 0.792769 0
M  V30 20575 P 3667.28 -8.91 1.39359e-10 0
M  V30 20576 O 3667.5 -10.1726 -0.733694 0
M  V30 20577 O 3668.07 -8.73148 1.23936 0
M  V30 20578 O 3667.53 -7.66872 -0.971405 0
M  V30 20579 C 3666.59 -7.42309 -2.04641 0
M  V30 20580 C 3667.32 -6.86059 -3.24661 0
M  V30 20581 O 3667.53 -5.42847 -3.03646 0
M  V30 20582 C 3668.72 -7.41196 -3.50753 0
M  V30 20583 O 3669.11 -7.27073 -4.86816 0
M  V30 20584 C 3669.6 -6.5273 -2.63741 0
M  V30 20585 C 3668.89 -5.1842 -2.73198 0
M  V30 20586 N 3668.94 -4.38762 -1.4784 0
M  V30 20587 H 3666.1 -8.36803 -2.32493 0
M  V30 20588 H 3665.83 -6.70197 -1.71129 0
M  V30 20589 H 3666.7 -7.03551 -4.13168 0
M  V30 20590 P 3670.66 -7.20834 -5.23717 0
M  V30 20591 O 3670.88 -7.79853 -6.57286 0
M  V30 20592 O 3671.45 -7.79239 -4.12957 0
M  V30 20593 O 3670.91 -5.63315 -5.29344 0
M  V30 20594 C 3669.97 -4.80255 -6.01876 0
M  V30 20595 C 3670.7 -3.64202 -6.65911 0
M  V30 20596 O 3670.91 -2.60694 -5.64732 0
M  V30 20597 C 3672.1 -3.93473 -7.1943 0
M  V30 20598 O 3672.49 -3.02071 -8.21205 0
M  V30 20599 C 3672.98 -3.73047 -5.97036 0
M  V30 20600 C 3672.27 -2.58828 -5.25741 0
M  V30 20601 N 3672.32 -2.68068 -3.77503 0
M  V30 20602 H 3669.48 -5.40332 -6.79951 0
M  V30 20603 H 3669.21 -4.41613 -5.32378 0
M  V30 20604 H 3670.08 -3.26331 -7.47797 0
M  V30 20605 P 3674.04 -2.75334 -8.47391 0
M  V30 20606 O 3674.26 -2.44571 -9.90142 0
M  V30 20607 O 3674.83 -3.87688 -7.92115 0
M  V30 20608 O 3674.29 -1.4459 -7.59357 0
M  V30 20609 C 3673.35 -0.347608 -7.69215 0
M  V30 20610 C 3674.08 0.96767 -7.52806 0
M  V30 20611 O 3674.29 1.21036 -6.1011 0
M  V30 20612 C 3675.48 1.04544 -8.13308 0
M  V30 20613 O 3675.87 2.38311 -8.41922 0
M  V30 20614 C 3676.36 0.491279 -7.02284 0
M  V30 20615 C 3675.65 0.996264 -5.77469 0
M  V30 20616 N 3675.7 0.0501916 -4.62973 0
M  V30 20617 H 3672.86 -0.374722 -8.67691 0
M  V30 20618 H 3672.59 -0.443485 -6.90277 0
M  V30 20619 H 3673.46 1.75537 -7.96793 0
M  V30 20620 P 3677.42 2.75334 -8.47391 0
M  V30 20621 O 3677.64 3.84204 -9.44982 0
M  V30 20622 O 3678.21 1.51982 -8.68909 0
M  V30 20623 O 3677.67 3.29363 -6.99321 0
M  V30 20624 C 3676.73 4.24066 -6.42823 0
M  V30 20625 C 3677.46 5.20775 -5.52155 0
M  V30 20626 O 3677.67 4.56607 -4.22514 0
M  V30 20627 C 3678.86 5.62697 -5.96604 0
M  V30 20628 O 3679.25 6.87667 -5.41053 0
M  V30 20629 C 3679.74 4.52537 -5.39283 0
M  V30 20630 C 3679.03 4.20027 -4.08623 0
M  V30 20631 N 3679.08 2.76189 -3.71603 0
M  V30 20632 C 3679 1.66944 -4.54297 0
M  V30 20633 N 3679.07 0.536169 -3.91344 0
M  V30 20634 C 3679.22 0.901569 -2.58849 0
M  V30 20635 C 3679.35 0.146599 -1.40236 0
M  V30 20636 N 3679.36 -1.18234 -1.37046 0
M  V30 20637 N 3679.47 0.822941 -0.249738 0
M  V30 20638 C 3679.46 2.15179 -0.280525 0
M  V30 20639 N 3679.34 2.96414 -1.30822 0
M  V30 20640 C 3679.22 2.25804 -2.44748 0
M  V30 20641 H 3676.24 4.79756 -7.24086 0
M  V30 20642 H 3675.97 3.69963 -5.84682 0
M  V30 20643 H 3676.84 6.10431 -5.41508 0
M  V30 20644 H 3679.49 4.78816 -3.28024 0
M  V30 20645 H 3679.77 3.64957 -6.05871 0
M  V30 20646 H 3680.76 4.88748 -5.21323 0
M  V30 20647 H 3678.93 5.66789 -7.0643 0
M  V30 20648 H 3678.89 1.74684 -5.62396 0
M  V30 20649 H 3679.27 -1.71949 -2.24394 0
M  V30 20650 H 3679.46 -1.67511 -0.470742 0
M  V30 20651 H 3679.57 2.63704 0.6828 0
M  V30 20652 P 3680.8 7.20834 -5.23717 0
M  V30 20653 O 3681.02 8.66274 -5.38678 0
M  V30 20654 O 3681.59 6.33687 -6.13629 0
M  V30 20655 O 3681.05 6.7751 -3.72168 0
M  V30 20656 C 3680.11 7.20919 -2.70795 0
M  V30 20657 C 3680.84 7.45864 -1.40599 0
M  V30 20658 O 3681.05 6.17751 -0.734343 0
M  V30 20659 C 3682.24 8.05906 -1.51917 0
M  V30 20660 O 3682.63 8.74358 -0.335205 0
M  V30 20661 C 3683.12 6.83093 -1.70294 0
M  V30 20662 C 3682.41 5.79992 -0.836974 0
M  V30 20663 N 3682.46 4.41864 -1.38293 0
M  V30 20664 H 3679.62 8.13738 -3.03804 0
M  V30 20665 H 3679.35 6.42974 -2.55559 0
M  V30 20666 H 3680.22 8.12139 -0.792866 0
M  V30 20667 H 3682.87 5.80178 0.160643 0
M  V30 20668 H 3683.15 6.51379 -2.75643 0
M  V30 20669 H 3684.14 7.01832 -1.3448 0
M  V30 20670 H 3682.31 8.73771 -2.38364 0
M  V30 20671 P 3684.18 8.91 -1.40468e-10 0
M  V30 20672 O 3684.4 10.1726 0.733694 0
M  V30 20673 O 3684.97 8.73148 -1.23936 0
M  V30 20674 O 3684.43 7.66872 0.971405 0
M  V30 20675 C 3683.49 7.42309 2.04641 0
M  V30 20676 C 3684.22 6.86059 3.24661 0
M  V30 20677 O 3684.43 5.42847 3.03646 0
M  V30 20678 C 3685.62 7.41196 3.50753 0
M  V30 20679 O 3686.01 7.27073 4.86816 0
M  V30 20680 C 3686.5 6.5273 2.63741 0
M  V30 20681 C 3685.79 5.1842 2.73198 0
M  V30 20682 N 3685.84 4.38762 1.4784 0
M  V30 20683 H 3683 8.36803 2.32493 0
M  V30 20684 H 3682.73 6.70197 1.71129 0
M  V30 20685 H 3683.6 7.03551 4.13168 0
M  V30 20686 P 3687.56 7.20834 5.23717 0
M  V30 20687 O 3687.78 7.79853 6.57286 0
M  V30 20688 O 3688.35 7.79239 4.12957 0
M  V30 20689 O 3687.81 5.63315 5.29344 0
M  V30 20690 C 3686.87 4.80255 6.01876 0
M  V30 20691 C 3687.6 3.64202 6.65911 0
M  V30 20692 O 3687.81 2.60694 5.64732 0
M  V30 20693 C 3689 3.93473 7.1943 0
M  V30 20694 O 3689.39 3.02071 8.21205 0
M  V30 20695 C 3689.88 3.73047 5.97036 0
M  V30 20696 C 3689.17 2.58828 5.25741 0
M  V30 20697 N 3689.22 2.68068 3.77503 0
M  V30 20698 H 3686.38 5.40332 6.79951 0
M  V30 20699 H 3686.11 4.41613 5.32378 0
M  V30 20700 H 3686.98 3.26331 7.47797 0
M  V30 20701 P 3690.94 2.75334 8.47391 0
M  V30 20702 O 3691.16 2.44619 9.90336 0
M  V30 20703 O 3691.73 3.87776 7.92294 0
M  V30 20704 O 3691.19 1.4459 7.59357 0
M  V30 20705 C 3690.25 0.347653 7.69315 0
M  V30 20706 C 3690.98 -0.96767 7.52806 0
M  V30 20707 O 3691.19 -1.21055 6.10208 0
M  V30 20708 C 3692.38 -1.04557 8.13408 0
M  V30 20709 O 3692.77 -2.38311 8.41922 0
M  V30 20710 C 3693.26 -0.491279 7.02284 0
M  V30 20711 C 3692.55 -0.996264 5.77469 0
M  V30 20712 N 3692.6 -0.0501916 4.62973 0
M  V30 20713 C 3692.52 1.31969 4.65661 0
M  V30 20714 N 3692.59 1.86649 3.48119 0
M  V30 20715 C 3692.74 0.792089 2.62406 0
M  V30 20716 C 3692.87 0.705684 1.2207 0
M  V30 20717 N 3692.88 1.76207 0.413762 0
M  V30 20718 N 3692.99 -0.518981 0.685754 0
M  V30 20719 C 3692.98 -1.57595 1.49174 0
M  V30 20720 N 3692.86 -1.62909 2.80066 0
M  V30 20721 C 3692.74 -0.388195 3.3073 0
M  V30 20722 H 3689.76 0.374765 8.67791 0
M  V30 20723 H 3689.49 0.443613 6.90476 0
M  V30 20724 H 3690.36 -1.75559 7.96891 0
M  V30 20725 H 3693.01 -1.94563 5.46818 0
M  V30 20726 H 3693.29 0.608651 7.04676 0
M  V30 20727 H 3694.28 -0.889796 7.09039 0
M  V30 20728 H 3692.45 -0.433128 9.04664 0
M  V30 20729 H 3692.41 1.89246 5.57664 0
M  V30 20730 H 3692.79 2.71005 0.804694 0
M  V30 20731 H 3692.98 1.63189 -0.603768 0
M  V30 20732 H 3693.09 -2.53475 0.997614 0
M  V30 20733 P 3694.32 -2.75334 8.47391 0
M  V30 20734 O 3694.54 -3.84128 9.44797 0
M  V30 20735 O 3695.11 -1.51947 8.68712 0
M  V30 20736 O 3694.57 -3.29363 6.99321 0
M  V30 20737 C 3693.63 -4.24011 6.4274 0
M  V30 20738 C 3694.36 -5.20775 5.52155 0
M  V30 20739 O 3694.57 -4.56534 4.22446 0
M  V30 20740 C 3695.76 -5.62629 5.96531 0
M  V30 20741 O 3696.15 -6.87667 5.41053 0
M  V30 20742 C 3696.64 -4.52537 5.39283 0
M  V30 20743 C 3695.93 -4.20027 4.08623 0
M  V30 20744 N 3695.98 -2.76189 3.71603 0
M  V30 20745 H 3693.14 -4.797 7.24003 0
M  V30 20746 H 3692.87 -3.69856 5.84513 0
M  V30 20747 H 3693.74 -6.10356 5.41441 0
M  V30 20748 P 3697.7 -7.20834 5.23717 0
M  V30 20749 O 3697.92 -8.66104 5.38572 0
M  V30 20750 O 3698.49 -6.33544 6.1349 0
M  V30 20751 O 3697.95 -6.7751 3.72168 0
M  V30 20752 C 3697.01 -7.20825 2.7076 0
M  V30 20753 C 3697.74 -7.45864 1.40599 0
M  V30 20754 O 3697.95 -6.17651 0.734225 0
M  V30 20755 C 3699.14 -8.05808 1.51899 0
M  V30 20756 O 3699.53 -8.74358 0.335205 0
M  V30 20757 C 3700.02 -6.83093 1.70294 0
M  V30 20758 C 3699.31 -5.79992 0.836974 0
M  V30 20759 N 3699.36 -4.41864 1.38293 0
M  V30 20760 H 3696.52 -8.13644 3.0377 0
M  V30 20761 H 3696.25 -6.42788 2.55485 0
M  V30 20762 H 3697.12 -8.12039 0.792769 0
M  V30 20763 P 3701.08 -8.91 1.41577e-10 0
M  V30 20764 O 3701.3 -10.1726 -0.733694 0
M  V30 20765 O 3701.87 -8.73148 1.23936 0
M  V30 20766 O 3701.33 -7.66872 -0.971405 0
M  V30 20767 C 3700.39 -7.42309 -2.04641 0
M  V30 20768 C 3701.12 -6.86059 -3.24661 0
M  V30 20769 O 3701.33 -5.42847 -3.03646 0
M  V30 20770 C 3702.52 -7.41196 -3.50753 0
M  V30 20771 O 3702.91 -7.27073 -4.86816 0
M  V30 20772 C 3703.4 -6.5273 -2.63741 0
M  V30 20773 C 3702.69 -5.1842 -2.73198 0
M  V30 20774 N 3702.74 -4.38762 -1.4784 0
M  V30 20775 H 3699.9 -8.36803 -2.32493 0
M  V30 20776 H 3699.63 -6.70197 -1.71129 0
M  V30 20777 H 3700.5 -7.03551 -4.13168 0
M  V30 20778 P 3704.46 -7.20834 -5.23717 0
M  V30 20779 O 3704.68 -7.79853 -6.57286 0
M  V30 20780 O 3705.25 -7.79239 -4.12957 0
M  V30 20781 O 3704.71 -5.63315 -5.29344 0
M  V30 20782 C 3703.77 -4.80255 -6.01876 0
M  V30 20783 C 3704.5 -3.64202 -6.65911 0
M  V30 20784 O 3704.71 -2.60694 -5.64732 0
M  V30 20785 C 3705.9 -3.93473 -7.1943 0
M  V30 20786 O 3706.29 -3.02071 -8.21205 0
M  V30 20787 C 3706.78 -3.73047 -5.97036 0
M  V30 20788 C 3706.07 -2.58828 -5.25741 0
M  V30 20789 N 3706.12 -2.68068 -3.77503 0
M  V30 20790 H 3703.28 -5.40332 -6.79951 0
M  V30 20791 H 3703.01 -4.41613 -5.32378 0
M  V30 20792 H 3703.88 -3.26331 -7.47797 0
M  V30 20793 P 3707.84 -2.75334 -8.47391 0
M  V30 20794 O 3708.06 -2.44571 -9.90142 0
M  V30 20795 O 3708.63 -3.87688 -7.92115 0
M  V30 20796 O 3708.09 -1.4459 -7.59357 0
M  V30 20797 C 3707.15 -0.347608 -7.69215 0
M  V30 20798 C 3707.88 0.96767 -7.52806 0
M  V30 20799 O 3708.09 1.21036 -6.1011 0
M  V30 20800 C 3709.28 1.04544 -8.13308 0
M  V30 20801 O 3709.67 2.38311 -8.41922 0
M  V30 20802 C 3710.16 0.491279 -7.02284 0
M  V30 20803 C 3709.45 0.996264 -5.77469 0
M  V30 20804 N 3709.5 0.0501916 -4.62973 0
M  V30 20805 H 3706.66 -0.374722 -8.67691 0
M  V30 20806 H 3706.39 -0.443485 -6.90277 0
M  V30 20807 H 3707.26 1.75537 -7.96793 0
M  V30 20808 P 3711.22 2.75334 -8.47391 0
M  V30 20809 O 3711.44 3.84128 -9.44797 0
M  V30 20810 O 3712.01 1.51947 -8.68712 0
M  V30 20811 O 3711.47 3.29363 -6.99321 0
M  V30 20812 C 3710.53 4.24011 -6.4274 0
M  V30 20813 C 3711.26 5.20775 -5.52155 0
M  V30 20814 O 3711.47 4.56534 -4.22446 0
M  V30 20815 C 3712.66 5.62629 -5.96531 0
M  V30 20816 O 3713.05 6.87667 -5.41053 0
M  V30 20817 C 3713.54 4.52537 -5.39283 0
M  V30 20818 C 3712.83 4.20027 -4.08623 0
M  V30 20819 N 3712.88 2.76189 -3.71603 0
M  V30 20820 H 3710.04 4.797 -7.24003 0
M  V30 20821 H 3709.77 3.69856 -5.84513 0
M  V30 20822 H 3710.64 6.10356 -5.41441 0
M  V30 20823 P 3714.6 7.20834 -5.23717 0
M  V30 20824 O 3714.82 8.66104 -5.38572 0
M  V30 20825 O 3715.39 6.33544 -6.1349 0
M  V30 20826 O 3714.85 6.7751 -3.72168 0
M  V30 20827 C 3713.91 7.20825 -2.7076 0
M  V30 20828 C 3714.64 7.45864 -1.40599 0
M  V30 20829 O 3714.85 6.17651 -0.734225 0
M  V30 20830 C 3716.04 8.05808 -1.51899 0
M  V30 20831 O 3716.43 8.74358 -0.335205 0
M  V30 20832 C 3716.92 6.83093 -1.70294 0
M  V30 20833 C 3716.21 5.79992 -0.836974 0
M  V30 20834 N 3716.26 4.41864 -1.38293 0
M  V30 20835 H 3713.42 8.13644 -3.0377 0
M  V30 20836 H 3713.15 6.42788 -2.55485 0
M  V30 20837 H 3714.02 8.12039 -0.792769 0
M  V30 20838 P 3717.98 8.91 -1.42686e-10 0
M  V30 20839 O 3718.2 10.1726 0.733694 0
M  V30 20840 O 3718.77 8.73148 -1.23936 0
M  V30 20841 O 3718.23 7.66872 0.971405 0
M  V30 20842 C 3717.29 7.42309 2.04641 0
M  V30 20843 C 3718.02 6.86059 3.24661 0
M  V30 20844 O 3718.23 5.42847 3.03646 0
M  V30 20845 C 3719.42 7.41196 3.50753 0
M  V30 20846 O 3719.81 7.27073 4.86816 0
M  V30 20847 C 3720.3 6.5273 2.63741 0
M  V30 20848 C 3719.59 5.1842 2.73198 0
M  V30 20849 N 3719.64 4.38762 1.4784 0
M  V30 20850 H 3716.8 8.36803 2.32493 0
M  V30 20851 H 3716.53 6.70197 1.71129 0
M  V30 20852 H 3717.4 7.03551 4.13168 0
M  V30 20853 P 3721.36 7.20834 5.23717 0
M  V30 20854 O 3721.58 7.79853 6.57286 0
M  V30 20855 O 3722.15 7.79239 4.12957 0
M  V30 20856 O 3721.61 5.63315 5.29344 0
M  V30 20857 C 3720.67 4.80255 6.01876 0
M  V30 20858 C 3721.4 3.64202 6.65911 0
M  V30 20859 O 3721.61 2.60694 5.64732 0
M  V30 20860 C 3722.8 3.93473 7.1943 0
M  V30 20861 O 3723.19 3.02071 8.21205 0
M  V30 20862 C 3723.68 3.73047 5.97036 0
M  V30 20863 C 3722.97 2.58828 5.25741 0
M  V30 20864 N 3723.02 2.68068 3.77503 0
M  V30 20865 H 3720.18 5.40332 6.79951 0
M  V30 20866 H 3719.91 4.41613 5.32378 0
M  V30 20867 H 3720.78 3.26331 7.47797 0
M  V30 20868 P 3724.74 2.75334 8.47391 0
M  V30 20869 O 3724.96 2.44571 9.90142 0
M  V30 20870 O 3725.53 3.87688 7.92115 0
M  V30 20871 O 3724.99 1.4459 7.59357 0
M  V30 20872 C 3724.05 0.347608 7.69215 0
M  V30 20873 C 3724.78 -0.96767 7.52806 0
M  V30 20874 O 3724.99 -1.21036 6.1011 0
M  V30 20875 C 3726.18 -1.04544 8.13308 0
M  V30 20876 O 3726.57 -2.38311 8.41922 0
M  V30 20877 C 3727.06 -0.491279 7.02284 0
M  V30 20878 C 3726.35 -0.996264 5.77469 0
M  V30 20879 N 3726.4 -0.0501916 4.62973 0
M  V30 20880 H 3723.56 0.374722 8.67691 0
M  V30 20881 H 3723.29 0.443485 6.90277 0
M  V30 20882 H 3724.16 -1.75537 7.96793 0
M  V30 20883 P 3728.12 -2.75334 8.47391 0
M  V30 20884 O 3728.34 -3.84128 9.44797 0
M  V30 20885 O 3728.91 -1.51947 8.68712 0
M  V30 20886 O 3728.37 -3.29363 6.99321 0
M  V30 20887 C 3727.43 -4.24011 6.4274 0
M  V30 20888 C 3728.16 -5.20775 5.52155 0
M  V30 20889 O 3728.37 -4.56534 4.22446 0
M  V30 20890 C 3729.56 -5.62629 5.96531 0
M  V30 20891 O 3729.95 -6.87667 5.41053 0
M  V30 20892 C 3730.44 -4.52537 5.39283 0
M  V30 20893 C 3729.73 -4.20027 4.08623 0
M  V30 20894 N 3729.78 -2.76189 3.71603 0
M  V30 20895 H 3726.94 -4.797 7.24003 0
M  V30 20896 H 3726.67 -3.69856 5.84513 0
M  V30 20897 H 3727.54 -6.10356 5.41441 0
M  V30 20898 P 3731.5 -7.20834 5.23717 0
M  V30 20899 O 3731.72 -8.66104 5.38572 0
M  V30 20900 O 3732.29 -6.33544 6.1349 0
M  V30 20901 O 3731.75 -6.7751 3.72168 0
M  V30 20902 C 3730.81 -7.20825 2.7076 0
M  V30 20903 C 3731.54 -7.45864 1.40599 0
M  V30 20904 O 3731.75 -6.17651 0.734225 0
M  V30 20905 C 3732.94 -8.05808 1.51899 0
M  V30 20906 O 3733.33 -8.74358 0.335205 0
M  V30 20907 C 3733.82 -6.83093 1.70294 0
M  V30 20908 C 3733.11 -5.79992 0.836974 0
M  V30 20909 N 3733.16 -4.41864 1.38293 0
M  V30 20910 H 3730.32 -8.13644 3.0377 0
M  V30 20911 H 3730.05 -6.42788 2.55485 0
M  V30 20912 H 3730.92 -8.12039 0.792769 0
M  V30 20913 P 3734.88 -8.91 1.43795e-10 0
M  V30 20914 O 3735.1 -10.1726 -0.733694 0
M  V30 20915 O 3735.67 -8.73148 1.23936 0
M  V30 20916 O 3735.13 -7.66872 -0.971405 0
M  V30 20917 C 3734.19 -7.42309 -2.04641 0
M  V30 20918 C 3734.92 -6.86059 -3.24661 0
M  V30 20919 O 3735.13 -5.42847 -3.03646 0
M  V30 20920 C 3736.32 -7.41196 -3.50753 0
M  V30 20921 O 3736.71 -7.27073 -4.86816 0
M  V30 20922 C 3737.2 -6.5273 -2.63741 0
M  V30 20923 C 3736.49 -5.1842 -2.73198 0
M  V30 20924 N 3736.54 -4.38762 -1.4784 0
M  V30 20925 H 3733.7 -8.36803 -2.32493 0
M  V30 20926 H 3733.43 -6.70197 -1.71129 0
M  V30 20927 H 3734.3 -7.03551 -4.13168 0
M  V30 20928 P 3738.26 -7.20834 -5.23717 0
M  V30 20929 O 3738.48 -7.79853 -6.57286 0
M  V30 20930 O 3739.05 -7.79239 -4.12957 0
M  V30 20931 O 3738.51 -5.63315 -5.29344 0
M  V30 20932 C 3737.57 -4.80255 -6.01876 0
M  V30 20933 C 3738.3 -3.64202 -6.65911 0
M  V30 20934 O 3738.51 -2.60694 -5.64732 0
M  V30 20935 C 3739.7 -3.93473 -7.1943 0
M  V30 20936 O 3740.09 -3.02071 -8.21205 0
M  V30 20937 C 3740.58 -3.73047 -5.97036 0
M  V30 20938 C 3739.87 -2.58828 -5.25741 0
M  V30 20939 N 3739.92 -2.68068 -3.77503 0
M  V30 20940 H 3737.08 -5.40332 -6.79951 0
M  V30 20941 H 3736.81 -4.41613 -5.32378 0
M  V30 20942 H 3737.68 -3.26331 -7.47797 0
M  V30 20943 P 3741.64 -2.75334 -8.47391 0
M  V30 20944 O 3741.86 -2.44571 -9.90142 0
M  V30 20945 O 3742.43 -3.87688 -7.92115 0
M  V30 20946 O 3741.89 -1.4459 -7.59357 0
M  V30 20947 C 3740.95 -0.347608 -7.69215 0
M  V30 20948 C 3741.68 0.96767 -7.52806 0
M  V30 20949 O 3741.89 1.21036 -6.1011 0
M  V30 20950 C 3743.08 1.04544 -8.13308 0
M  V30 20951 O 3743.47 2.38311 -8.41922 0
M  V30 20952 C 3743.96 0.491279 -7.02284 0
M  V30 20953 C 3743.25 0.996264 -5.77469 0
M  V30 20954 N 3743.3 0.0501916 -4.62973 0
M  V30 20955 H 3740.46 -0.374722 -8.67691 0
M  V30 20956 H 3740.19 -0.443485 -6.90277 0
M  V30 20957 H 3741.06 1.75537 -7.96793 0
M  V30 20958 P 3745.02 2.75334 -8.47391 0
M  V30 20959 O 3745.24 3.84128 -9.44797 0
M  V30 20960 O 3745.81 1.51947 -8.68712 0
M  V30 20961 O 3745.27 3.29363 -6.99321 0
M  V30 20962 C 3744.33 4.24011 -6.4274 0
M  V30 20963 C 3745.06 5.20775 -5.52155 0
M  V30 20964 O 3745.27 4.56534 -4.22446 0
M  V30 20965 C 3746.46 5.62629 -5.96531 0
M  V30 20966 O 3746.85 6.87667 -5.41053 0
M  V30 20967 C 3747.34 4.52537 -5.39283 0
M  V30 20968 C 3746.63 4.20027 -4.08623 0
M  V30 20969 N 3746.68 2.76189 -3.71603 0
M  V30 20970 H 3743.84 4.797 -7.24003 0
M  V30 20971 H 3743.57 3.69856 -5.84513 0
M  V30 20972 H 3744.44 6.10356 -5.41441 0
M  V30 20973 P 3748.4 7.20834 -5.23717 0
M  V30 20974 O 3748.62 8.66104 -5.38572 0
M  V30 20975 O 3749.19 6.33544 -6.1349 0
M  V30 20976 O 3748.65 6.7751 -3.72168 0
M  V30 20977 C 3747.71 7.20825 -2.7076 0
M  V30 20978 C 3748.44 7.45864 -1.40599 0
M  V30 20979 O 3748.65 6.17651 -0.734225 0
M  V30 20980 C 3749.84 8.05808 -1.51899 0
M  V30 20981 O 3750.23 8.74358 -0.335205 0
M  V30 20982 C 3750.72 6.83093 -1.70294 0
M  V30 20983 C 3750.01 5.79992 -0.836974 0
M  V30 20984 N 3750.06 4.41864 -1.38293 0
M  V30 20985 H 3747.22 8.13644 -3.0377 0
M  V30 20986 H 3746.95 6.42788 -2.55485 0
M  V30 20987 H 3747.82 8.12039 -0.792769 0
M  V30 20988 P 3751.78 8.91 -1.44904e-10 0
M  V30 20989 O 3752 10.1726 0.733694 0
M  V30 20990 O 3752.57 8.73148 -1.23936 0
M  V30 20991 O 3752.03 7.66872 0.971405 0
M  V30 20992 C 3751.09 7.42309 2.04641 0
M  V30 20993 C 3751.82 6.86059 3.24661 0
M  V30 20994 O 3752.03 5.42847 3.03646 0
M  V30 20995 C 3753.22 7.41196 3.50753 0
M  V30 20996 O 3753.61 7.27073 4.86816 0
M  V30 20997 C 3754.1 6.5273 2.63741 0
M  V30 20998 C 3753.39 5.1842 2.73198 0
M  V30 20999 N 3753.44 4.38762 1.4784 0
M  V30 21000 H 3750.6 8.36803 2.32493 0
M  V30 21001 H 3750.33 6.70197 1.71129 0
M  V30 21002 H 3751.2 7.03551 4.13168 0
M  V30 21003 P 3755.16 7.20834 5.23717 0
M  V30 21004 O 3755.38 7.7993 6.57351 0
M  V30 21005 O 3755.95 7.79328 4.13004 0
M  V30 21006 O 3755.41 5.63315 5.29344 0
M  V30 21007 C 3754.47 4.80193 6.01798 0
M  V30 21008 C 3755.2 3.64202 6.65911 0
M  V30 21009 O 3755.41 2.60694 5.64732 0
M  V30 21010 C 3756.6 3.93473 7.1943 0
M  V30 21011 O 3756.99 3.02071 8.21205 0
M  V30 21012 C 3757.48 3.73047 5.97036 0
M  V30 21013 C 3756.77 2.58828 5.25741 0
M  V30 21014 N 3756.82 2.6801 3.77422 0
M  V30 21015 C 3756.97 1.50443 3.07133 0
M  V30 21016 O 3757.06 0.419406 3.61576 0
M  V30 21017 N 3757.01 1.6403 1.69677 0
M  V30 21018 C 3756.92 2.81206 0.986255 0
M  V30 21019 O 3756.97 2.80892 -0.249754 0
M  V30 21020 C 3756.77 3.99158 1.80325 0
M  V30 21021 C 3756.66 5.29309 1.06921 0
M  V30 21022 C 3756.72 3.89779 3.1476 0
M  V30 21023 H 3753.98 5.40332 6.79951 0
M  V30 21024 H 3753.71 4.41549 5.32301 0
M  V30 21025 H 3754.58 3.26331 7.47797 0
M  V30 21026 H 3757.23 1.6395 5.56554 0
M  V30 21027 H 3757.51 4.63439 5.3432 0
M  V30 21028 H 3758.5 3.44728 6.25838 0
M  V30 21029 H 3756.67 4.96652 7.57263 0
M  V30 21030 H 3756.6 4.80159 3.74441 0
M  V30 21031 H 3757.63 5.81459 1.09608 0
M  V30 21032 H 3755.89 5.9187 1.54487 0
M  V30 21033 H 3756.38 5.10095 0.0220288 0
M  V30 21034 H 3757.11 0.798962 1.16664 0
M  V30 21035 P 3758.54 2.75334 8.47391 0
M  V30 21036 O 3758.76 2.44571 9.90142 0
M  V30 21037 O 3759.33 3.87688 7.92115 0
M  V30 21038 O 3758.79 1.4459 7.59357 0
M  V30 21039 C 3757.85 0.347608 7.69215 0
M  V30 21040 C 3758.58 -0.96767 7.52806 0
M  V30 21041 O 3758.79 -1.21036 6.1011 0
M  V30 21042 C 3759.98 -1.04544 8.13308 0
M  V30 21043 O 3760.37 -2.38311 8.41922 0
M  V30 21044 C 3760.86 -0.491279 7.02284 0
M  V30 21045 C 3760.15 -0.996264 5.77469 0
M  V30 21046 N 3760.2 -0.0501916 4.62973 0
M  V30 21047 H 3757.36 0.374722 8.67691 0
M  V30 21048 H 3757.09 0.443485 6.90277 0
M  V30 21049 H 3757.96 -1.75537 7.96793 0
M  V30 21050 P 3761.92 -2.75334 8.47391 0
M  V30 21051 O 3762.14 -3.84128 9.44797 0
M  V30 21052 O 3762.71 -1.51947 8.68712 0
M  V30 21053 O 3762.17 -3.29363 6.99321 0
M  V30 21054 C 3761.23 -4.24011 6.4274 0
M  V30 21055 C 3761.96 -5.20775 5.52155 0
M  V30 21056 O 3762.17 -4.56534 4.22446 0
M  V30 21057 C 3763.36 -5.62629 5.96531 0
M  V30 21058 O 3763.75 -6.87667 5.41053 0
M  V30 21059 C 3764.24 -4.52537 5.39283 0
M  V30 21060 C 3763.53 -4.20027 4.08623 0
M  V30 21061 N 3763.58 -2.76189 3.71603 0
M  V30 21062 H 3760.74 -4.797 7.24003 0
M  V30 21063 H 3760.47 -3.69856 5.84513 0
M  V30 21064 H 3761.34 -6.10356 5.41441 0
M  V30 21065 P 3765.3 -7.20834 5.23717 0
M  V30 21066 O 3765.52 -8.66104 5.38572 0
M  V30 21067 O 3766.09 -6.33544 6.1349 0
M  V30 21068 O 3765.55 -6.7751 3.72168 0
M  V30 21069 C 3764.61 -7.20825 2.7076 0
M  V30 21070 C 3765.34 -7.45864 1.40599 0
M  V30 21071 O 3765.55 -6.17651 0.734225 0
M  V30 21072 C 3766.74 -8.05808 1.51899 0
M  V30 21073 O 3767.13 -8.74358 0.335205 0
M  V30 21074 C 3767.62 -6.83093 1.70294 0
M  V30 21075 C 3766.91 -5.79992 0.836974 0
M  V30 21076 N 3766.96 -4.41864 1.38293 0
M  V30 21077 H 3764.12 -8.13644 3.0377 0
M  V30 21078 H 3763.85 -6.42788 2.55485 0
M  V30 21079 H 3764.72 -8.12039 0.792769 0
M  V30 21080 P 3768.68 -8.91 1.46013e-10 0
M  V30 21081 O 3768.9 -10.1726 -0.733694 0
M  V30 21082 O 3769.47 -8.73148 1.23936 0
M  V30 21083 O 3768.93 -7.66872 -0.971405 0
M  V30 21084 C 3767.99 -7.42309 -2.04641 0
M  V30 21085 C 3768.72 -6.86059 -3.24661 0
M  V30 21086 O 3768.93 -5.42847 -3.03646 0
M  V30 21087 C 3770.12 -7.41196 -3.50753 0
M  V30 21088 O 3770.51 -7.27073 -4.86816 0
M  V30 21089 C 3771 -6.5273 -2.63741 0
M  V30 21090 C 3770.29 -5.1842 -2.73198 0
M  V30 21091 N 3770.34 -4.38762 -1.4784 0
M  V30 21092 H 3767.5 -8.36803 -2.32493 0
M  V30 21093 H 3767.23 -6.70197 -1.71129 0
M  V30 21094 H 3768.1 -7.03551 -4.13168 0
M  V30 21095 P 3772.06 -7.20834 -5.23717 0
M  V30 21096 O 3772.28 -7.79853 -6.57286 0
M  V30 21097 O 3772.85 -7.79239 -4.12957 0
M  V30 21098 O 3772.31 -5.63315 -5.29344 0
M  V30 21099 C 3771.37 -4.80255 -6.01876 0
M  V30 21100 C 3772.1 -3.64202 -6.65911 0
M  V30 21101 O 3772.31 -2.60694 -5.64732 0
M  V30 21102 C 3773.5 -3.93473 -7.1943 0
M  V30 21103 O 3773.89 -3.02071 -8.21205 0
M  V30 21104 C 3774.38 -3.73047 -5.97036 0
M  V30 21105 C 3773.67 -2.58828 -5.25741 0
M  V30 21106 N 3773.72 -2.68068 -3.77503 0
M  V30 21107 H 3770.88 -5.40332 -6.79951 0
M  V30 21108 H 3770.61 -4.41613 -5.32378 0
M  V30 21109 H 3771.48 -3.26331 -7.47797 0
M  V30 21110 P 3775.44 -2.75334 -8.47391 0
M  V30 21111 O 3775.66 -2.44571 -9.90142 0
M  V30 21112 O 3776.23 -3.87688 -7.92115 0
M  V30 21113 O 3775.69 -1.4459 -7.59357 0
M  V30 21114 C 3774.75 -0.347608 -7.69215 0
M  V30 21115 C 3775.48 0.96767 -7.52806 0
M  V30 21116 O 3775.69 1.21036 -6.1011 0
M  V30 21117 C 3776.88 1.04544 -8.13308 0
M  V30 21118 O 3777.27 2.38311 -8.41922 0
M  V30 21119 C 3777.76 0.491279 -7.02284 0
M  V30 21120 C 3777.05 0.996264 -5.77469 0
M  V30 21121 N 3777.1 0.0501916 -4.62973 0
M  V30 21122 H 3774.26 -0.374722 -8.67691 0
M  V30 21123 H 3773.99 -0.443485 -6.90277 0
M  V30 21124 H 3774.86 1.75537 -7.96793 0
M  V30 21125 P 3778.82 2.75334 -8.47391 0
M  V30 21126 O 3779.04 3.84166 -9.4489 0
M  V30 21127 O 3779.61 1.51964 -8.6881 0
M  V30 21128 O 3779.07 3.29363 -6.99321 0
M  V30 21129 C 3778.13 4.23956 -6.42656 0
M  V30 21130 C 3778.86 5.20775 -5.52155 0
M  V30 21131 O 3779.07 4.56534 -4.22446 0
M  V30 21132 C 3780.26 5.62629 -5.96531 0
M  V30 21133 O 3780.65 6.87667 -5.41053 0
M  V30 21134 C 3781.14 4.52537 -5.39283 0
M  V30 21135 C 3780.43 4.20027 -4.08623 0
M  V30 21136 N 3780.48 2.7613 -3.71522 0
M  V30 21137 C 3780.63 2.45612 -2.37989 0
M  V30 21138 O 3780.72 3.30919 -1.51621 0
M  V30 21139 N 3780.67 1.10684 -2.08435 0
M  V30 21140 C 3780.58 0.0690084 -2.9792 0
M  V30 21141 O 3780.63 -1.10553 -2.59426 0
M  V30 21142 C 3780.43 0.481522 -4.35345 0
M  V30 21143 C 3780.32 -0.618778 -5.36443 0
M  V30 21144 C 3780.38 1.78906 -4.67968 0
M  V30 21145 H 3777.64 4.797 -7.24003 0
M  V30 21146 H 3777.37 3.69802 -5.84429 0
M  V30 21147 H 3778.24 6.10356 -5.41441 0
M  V30 21148 H 3780.89 4.78651 -3.27911 0
M  V30 21149 H 3781.17 3.64957 -6.05871 0
M  V30 21150 H 3782.16 4.8868 -5.2125 0
M  V30 21151 H 3780.33 5.66726 -7.06352 0
M  V30 21152 H 3780.26 2.07737 -5.72367 0
M  V30 21153 H 3781.29 -0.754375 -5.86871 0
M  V30 21154 H 3779.55 -0.359721 -6.10641 0
M  V30 21155 H 3780.04 -1.55533 -4.8581 0
M  V30 21156 H 3780.77 0.862651 -1.12037 0
M  V30 21157 P 3782.2 7.20834 -5.23717 0
M  V30 21158 O 3782.42 8.66104 -5.38572 0
M  V30 21159 O 3782.99 6.33544 -6.1349 0
M  V30 21160 O 3782.45 6.7751 -3.72168 0
M  V30 21161 C 3781.51 7.20825 -2.7076 0
M  V30 21162 C 3782.24 7.45864 -1.40599 0
M  V30 21163 O 3782.45 6.17651 -0.734225 0
M  V30 21164 C 3783.64 8.05808 -1.51899 0
M  V30 21165 O 3784.03 8.74358 -0.335205 0
M  V30 21166 C 3784.52 6.83093 -1.70294 0
M  V30 21167 C 3783.81 5.79992 -0.836974 0
M  V30 21168 N 3783.86 4.41864 -1.38293 0
M  V30 21169 H 3781.02 8.13644 -3.0377 0
M  V30 21170 H 3780.75 6.42788 -2.55485 0
M  V30 21171 H 3781.62 8.12039 -0.792769 0
M  V30 21172 P 3785.58 8.91 -1.47122e-10 0
M  V30 21173 O 3785.8 10.1726 0.733694 0
M  V30 21174 O 3786.37 8.73148 -1.23936 0
M  V30 21175 O 3785.83 7.66872 0.971405 0
M  V30 21176 C 3784.89 7.42309 2.04641 0
M  V30 21177 C 3785.62 6.86059 3.24661 0
M  V30 21178 O 3785.83 5.42847 3.03646 0
M  V30 21179 C 3787.02 7.41196 3.50753 0
M  V30 21180 O 3787.41 7.27073 4.86816 0
M  V30 21181 C 3787.9 6.5273 2.63741 0
M  V30 21182 C 3787.19 5.1842 2.73198 0
M  V30 21183 N 3787.24 4.38762 1.4784 0
M  V30 21184 H 3784.4 8.36803 2.32493 0
M  V30 21185 H 3784.13 6.70197 1.71129 0
M  V30 21186 H 3785 7.03551 4.13168 0
M  V30 21187 P 3788.96 7.20834 5.23717 0
M  V30 21188 O 3789.18 7.79853 6.57286 0
M  V30 21189 O 3789.75 7.79239 4.12957 0
M  V30 21190 O 3789.21 5.63315 5.29344 0
M  V30 21191 C 3788.27 4.80255 6.01876 0
M  V30 21192 C 3789 3.64202 6.65911 0
M  V30 21193 O 3789.21 2.60694 5.64732 0
M  V30 21194 C 3790.4 3.93473 7.1943 0
M  V30 21195 O 3790.79 3.02071 8.21205 0
M  V30 21196 C 3791.28 3.73047 5.97036 0
M  V30 21197 C 3790.57 2.58828 5.25741 0
M  V30 21198 N 3790.62 2.68068 3.77503 0
M  V30 21199 C 3790.54 3.79715 2.96723 0
M  V30 21200 N 3790.62 3.5377 1.68852 0
M  V30 21201 C 3790.76 2.15054 1.63254 0
M  V30 21202 C 3790.89 1.28964 0.518571 0
M  V30 21203 O 3790.91 1.56826 -0.679156 0
M  V30 21204 N 3791.01 -0.0538097 0.918425 0
M  V30 21205 C 3791.01 -0.494275 2.22578 0
M  V30 21206 N 3791.14 -1.81086 2.40434 0
M  V30 21207 N 3790.88 0.313645 3.27502 0
M  V30 21208 C 3790.76 1.61829 2.91033 0
M  V30 21209 H 3787.78 5.40332 6.79951 0
M  V30 21210 H 3787.51 4.41613 5.32378 0
M  V30 21211 H 3788.38 3.26331 7.47797 0
M  V30 21212 H 3791.03 1.63422 5.56814 0
M  V30 21213 H 3791.31 4.63374 5.34244 0
M  V30 21214 H 3792.3 3.44728 6.25838 0
M  V30 21215 H 3790.47 4.96652 7.57263 0
M  V30 21216 H 3790.42 4.80617 3.3614 0
M  V30 21217 H 3791.1 -0.742702 0.199384 0
M  V30 21218 H 3791.14 -2.20598 3.35588 0
M  V30 21219 H 3791.24 -2.43518 1.58945 0
M  V30 21220 P 3792.34 2.75334 8.47391 0
M  V30 21221 O 3792.56 2.44571 9.90142 0
M  V30 21222 O 3793.13 3.87688 7.92115 0
M  V30 21223 O 3792.59 1.4459 7.59357 0
M  V30 21224 C 3791.65 0.347608 7.69215 0
M  V30 21225 C 3792.38 -0.96767 7.52806 0
M  V30 21226 O 3792.59 -1.21036 6.1011 0
M  V30 21227 C 3793.78 -1.04544 8.13308 0
M  V30 21228 O 3794.17 -2.38311 8.41922 0
M  V30 21229 C 3794.66 -0.491279 7.02284 0
M  V30 21230 C 3793.95 -0.996264 5.77469 0
M  V30 21231 N 3794 -0.0501916 4.62973 0
M  V30 21232 H 3791.16 0.374722 8.67691 0
M  V30 21233 H 3790.89 0.443485 6.90277 0
M  V30 21234 H 3791.76 -1.75537 7.96793 0
M  V30 21235 P 3795.72 -2.75334 8.47391 0
M  V30 21236 O 3795.94 -3.84166 9.4489 0
M  V30 21237 O 3796.51 -1.51964 8.6881 0
M  V30 21238 O 3795.97 -3.29363 6.99321 0
M  V30 21239 C 3795.03 -4.23956 6.42656 0
M  V30 21240 C 3795.76 -5.20775 5.52155 0
M  V30 21241 O 3795.97 -4.56534 4.22446 0
M  V30 21242 C 3797.16 -5.62629 5.96531 0
M  V30 21243 O 3797.55 -6.87667 5.41053 0
M  V30 21244 C 3798.04 -4.52537 5.39283 0
M  V30 21245 C 3797.33 -4.20027 4.08623 0
M  V30 21246 N 3797.38 -2.7613 3.71522 0
M  V30 21247 C 3797.53 -2.45612 2.37989 0
M  V30 21248 O 3797.62 -3.30919 1.51621 0
M  V30 21249 N 3797.57 -1.10684 2.08435 0
M  V30 21250 C 3797.48 -0.0690084 2.9792 0
M  V30 21251 O 3797.53 1.10553 2.59426 0
M  V30 21252 C 3797.33 -0.481522 4.35345 0
M  V30 21253 C 3797.22 0.618778 5.36443 0
M  V30 21254 C 3797.28 -1.78906 4.67968 0
M  V30 21255 H 3794.54 -4.797 7.24003 0
M  V30 21256 H 3794.27 -3.69802 5.84429 0
M  V30 21257 H 3795.14 -6.10356 5.41441 0
M  V30 21258 H 3797.79 -4.78651 3.27911 0
M  V30 21259 H 3798.07 -3.64957 6.05871 0
M  V30 21260 H 3799.06 -4.8868 5.2125 0
M  V30 21261 H 3797.23 -5.66726 7.06352 0
M  V30 21262 H 3797.16 -2.07737 5.72367 0
M  V30 21263 H 3798.19 0.754375 5.86871 0
M  V30 21264 H 3796.45 0.359721 6.10641 0
M  V30 21265 H 3796.94 1.55533 4.8581 0
M  V30 21266 H 3797.67 -0.862651 1.12037 0
M  V30 21267 P 3799.1 -7.20834 5.23717 0
M  V30 21268 O 3799.32 -8.66104 5.38572 0
M  V30 21269 O 3799.89 -6.33544 6.1349 0
M  V30 21270 O 3799.35 -6.7751 3.72168 0
M  V30 21271 C 3798.41 -7.20825 2.7076 0
M  V30 21272 C 3799.14 -7.45864 1.40599 0
M  V30 21273 O 3799.35 -6.17651 0.734225 0
M  V30 21274 C 3800.54 -8.05808 1.51899 0
M  V30 21275 O 3800.93 -8.74358 0.335205 0
M  V30 21276 C 3801.42 -6.83093 1.70294 0
M  V30 21277 C 3800.71 -5.79992 0.836974 0
M  V30 21278 N 3800.76 -4.41864 1.38293 0
M  V30 21279 H 3797.92 -8.13644 3.0377 0
M  V30 21280 H 3797.65 -6.42788 2.55485 0
M  V30 21281 H 3798.52 -8.12039 0.792769 0
M  V30 21282 P 3802.48 -8.91 1.48231e-10 0
M  V30 21283 O 3802.7 -10.1726 -0.733694 0
M  V30 21284 O 3803.27 -8.73148 1.23936 0
M  V30 21285 O 3802.73 -7.66872 -0.971405 0
M  V30 21286 C 3801.79 -7.42309 -2.04641 0
M  V30 21287 C 3802.52 -6.86059 -3.24661 0
M  V30 21288 O 3802.73 -5.42847 -3.03646 0
M  V30 21289 C 3803.92 -7.41196 -3.50753 0
M  V30 21290 O 3804.31 -7.27073 -4.86816 0
M  V30 21291 C 3804.8 -6.5273 -2.63741 0
M  V30 21292 C 3804.09 -5.1842 -2.73198 0
M  V30 21293 N 3804.14 -4.38762 -1.4784 0
M  V30 21294 H 3801.3 -8.36803 -2.32493 0
M  V30 21295 H 3801.03 -6.70197 -1.71129 0
M  V30 21296 H 3801.9 -7.03551 -4.13168 0
M  V30 21297 P 3805.86 -7.20834 -5.23717 0
M  V30 21298 O 3806.08 -7.7993 -6.57351 0
M  V30 21299 O 3806.65 -7.79328 -4.13004 0
M  V30 21300 O 3806.11 -5.63315 -5.29344 0
M  V30 21301 C 3805.17 -4.80193 -6.01798 0
M  V30 21302 C 3805.9 -3.64202 -6.65911 0
M  V30 21303 O 3806.11 -2.60694 -5.64732 0
M  V30 21304 C 3807.3 -3.93473 -7.1943 0
M  V30 21305 O 3807.69 -3.02071 -8.21205 0
M  V30 21306 C 3808.18 -3.73047 -5.97036 0
M  V30 21307 C 3807.47 -2.58828 -5.25741 0
M  V30 21308 N 3807.52 -2.6801 -3.77422 0
M  V30 21309 C 3807.67 -1.50443 -3.07133 0
M  V30 21310 O 3807.76 -0.419406 -3.61576 0
M  V30 21311 N 3807.71 -1.6403 -1.69677 0
M  V30 21312 C 3807.62 -2.81206 -0.986255 0
M  V30 21313 C 3807.47 -3.99158 -1.80325 0
M  V30 21314 C 3807.42 -3.89779 -3.1476 0
M  V30 21315 H 3804.68 -5.40332 -6.79951 0
M  V30 21316 H 3804.41 -4.41549 -5.32301 0
M  V30 21317 H 3805.28 -3.26331 -7.47797 0
M  V30 21318 H 3807.93 -1.6395 -5.56554 0
M  V30 21319 H 3808.21 -4.63439 -5.3432 0
M  V30 21320 H 3809.2 -3.44728 -6.25838 0
M  V30 21321 H 3807.37 -4.96652 -7.57263 0
M  V30 21322 H 3807.3 -4.80159 -3.74441 0
M  V30 21323 P 3809.24 -2.75334 -8.47391 0
M  V30 21324 O 3809.46 -2.44571 -9.90142 0
M  V30 21325 O 3810.03 -3.87688 -7.92115 0
M  V30 21326 O 3809.49 -1.4459 -7.59357 0
M  V30 21327 C 3808.55 -0.347608 -7.69215 0
M  V30 21328 C 3809.28 0.96767 -7.52806 0
M  V30 21329 O 3809.49 1.21036 -6.1011 0
M  V30 21330 C 3810.68 1.04544 -8.13308 0
M  V30 21331 O 3811.07 2.38311 -8.41922 0
M  V30 21332 C 3811.56 0.491279 -7.02284 0
M  V30 21333 C 3810.85 0.996264 -5.77469 0
M  V30 21334 N 3810.9 0.0501916 -4.62973 0
M  V30 21335 H 3808.06 -0.374722 -8.67691 0
M  V30 21336 H 3807.79 -0.443485 -6.90277 0
M  V30 21337 H 3808.66 1.75537 -7.96793 0
M  V30 21338 P 3812.62 2.75334 -8.47391 0
M  V30 21339 O 3812.84 3.84128 -9.44797 0
M  V30 21340 O 3813.41 1.51947 -8.68712 0
M  V30 21341 O 3812.87 3.29363 -6.99321 0
M  V30 21342 C 3811.93 4.24011 -6.4274 0
M  V30 21343 C 3812.66 5.20775 -5.52155 0
M  V30 21344 O 3812.87 4.56534 -4.22446 0
M  V30 21345 C 3814.06 5.62629 -5.96531 0
M  V30 21346 O 3814.45 6.87667 -5.41053 0
M  V30 21347 C 3814.94 4.52537 -5.39283 0
M  V30 21348 C 3814.23 4.20027 -4.08623 0
M  V30 21349 N 3814.28 2.76189 -3.71603 0
M  V30 21350 H 3811.44 4.797 -7.24003 0
M  V30 21351 H 3811.17 3.69856 -5.84513 0
M  V30 21352 H 3812.04 6.10356 -5.41441 0
M  V30 21353 P 3816 7.20834 -5.23717 0
M  V30 21354 O 3816.22 8.66104 -5.38572 0
M  V30 21355 O 3816.79 6.33544 -6.1349 0
M  V30 21356 O 3816.25 6.7751 -3.72168 0
M  V30 21357 C 3815.31 7.20825 -2.7076 0
M  V30 21358 C 3816.04 7.45864 -1.40599 0
M  V30 21359 O 3816.25 6.17651 -0.734225 0
M  V30 21360 C 3817.44 8.05808 -1.51899 0
M  V30 21361 O 3817.83 8.74358 -0.335205 0
M  V30 21362 C 3818.32 6.83093 -1.70294 0
M  V30 21363 C 3817.61 5.79992 -0.836974 0
M  V30 21364 N 3817.66 4.41864 -1.38293 0
M  V30 21365 H 3814.82 8.13644 -3.0377 0
M  V30 21366 H 3814.55 6.42788 -2.55485 0
M  V30 21367 H 3815.42 8.12039 -0.792769 0
M  V30 21368 P 3819.38 8.91 -1.4934e-10 0
M  V30 21369 O 3819.6 10.1746 0.733838 0
M  V30 21370 O 3820.17 8.73346 -1.23964 0
M  V30 21371 O 3819.63 7.66872 0.971405 0
M  V30 21372 C 3818.69 7.42405 2.04668 0
M  V30 21373 C 3819.42 6.86059 3.24661 0
M  V30 21374 O 3819.63 5.42934 3.03695 0
M  V30 21375 C 3820.82 7.41287 3.50796 0
M  V30 21376 O 3821.21 7.27073 4.86816 0
M  V30 21377 C 3821.7 6.5273 2.63741 0
M  V30 21378 C 3820.99 5.1842 2.73198 0
M  V30 21379 N 3821.04 4.38762 1.4784 0
M  V30 21380 H 3818.2 8.36899 2.3252 0
M  V30 21381 H 3817.93 6.70391 1.71179 0
M  V30 21382 H 3818.8 7.03638 4.13219 0
M  V30 21383 H 3821.45 4.59931 3.54016 0
M  V30 21384 H 3821.73 6.88995 1.59871 0
M  V30 21385 H 3822.72 6.4684 3.0373 0
M  V30 21386 H 3820.89 8.47002 3.20749 0
M  V30 21387 P 3822.76 7.20834 5.23717 0
M  V30 21388 O 3822.98 7.79853 6.57286 0
M  V30 21389 O 3823.55 7.79239 4.12957 0
M  V30 21390 O 3823.01 5.63315 5.29344 0
M  V30 21391 C 3822.07 4.80255 6.01876 0
M  V30 21392 C 3822.8 3.64202 6.65911 0
M  V30 21393 O 3823.01 2.60694 5.64732 0
M  V30 21394 C 3824.2 3.93473 7.1943 0
M  V30 21395 O 3824.59 3.02071 8.21205 0
M  V30 21396 C 3825.08 3.73047 5.97036 0
M  V30 21397 C 3824.37 2.58828 5.25741 0
M  V30 21398 N 3824.42 2.68068 3.77503 0
M  V30 21399 H 3821.58 5.40332 6.79951 0
M  V30 21400 H 3821.31 4.41613 5.32378 0
M  V30 21401 H 3822.18 3.26331 7.47797 0
M  V30 21402 P 3826.14 2.75334 8.47391 0
M  V30 21403 O 3826.36 2.44571 9.90142 0
M  V30 21404 O 3826.93 3.87688 7.92115 0
M  V30 21405 O 3826.39 1.4459 7.59357 0
M  V30 21406 C 3825.45 0.347608 7.69215 0
M  V30 21407 C 3826.18 -0.96767 7.52806 0
M  V30 21408 O 3826.39 -1.21036 6.1011 0
M  V30 21409 C 3827.58 -1.04544 8.13308 0
M  V30 21410 O 3827.97 -2.38311 8.41922 0
M  V30 21411 C 3828.46 -0.491279 7.02284 0
M  V30 21412 C 3827.75 -0.996264 5.77469 0
M  V30 21413 N 3827.8 -0.0501916 4.62973 0
M  V30 21414 H 3824.96 0.374722 8.67691 0
M  V30 21415 H 3824.69 0.443485 6.90277 0
M  V30 21416 H 3825.56 -1.75537 7.96793 0
M  V30 21417 P 3829.52 -2.75334 8.47391 0
M  V30 21418 O 3829.74 -3.84204 9.44982 0
M  V30 21419 O 3830.31 -1.51982 8.68909 0
M  V30 21420 O 3829.77 -3.29363 6.99321 0
M  V30 21421 C 3828.83 -4.24066 6.42823 0
M  V30 21422 C 3829.56 -5.20775 5.52155 0
M  V30 21423 O 3829.77 -4.56607 4.22514 0
M  V30 21424 C 3830.96 -5.62697 5.96604 0
M  V30 21425 O 3831.35 -6.87667 5.41053 0
M  V30 21426 C 3831.84 -4.52537 5.39283 0
M  V30 21427 C 3831.13 -4.20027 4.08623 0
M  V30 21428 N 3831.18 -2.76189 3.71603 0
M  V30 21429 H 3828.34 -4.79756 7.24086 0
M  V30 21430 H 3828.07 -3.69963 5.84682 0
M  V30 21431 H 3828.94 -6.10431 5.41508 0
M  V30 21432 H 3831.59 -4.78816 3.28024 0
M  V30 21433 H 3831.87 -3.64957 6.05871 0
M  V30 21434 H 3832.86 -4.88748 5.21323 0
M  V30 21435 H 3831.03 -5.66789 7.0643 0
M  V30 21436 P 3832.9 -7.20834 5.23717 0
M  V30 21437 O 3833.12 -8.66189 5.38625 0
M  V30 21438 O 3833.69 -6.33615 6.1356 0
M  V30 21439 O 3833.15 -6.7751 3.72168 0
M  V30 21440 C 3832.21 -7.20732 2.70725 0
M  V30 21441 C 3832.94 -7.45864 1.40599 0
M  V30 21442 O 3833.15 -6.17651 0.734225 0
M  V30 21443 C 3834.34 -8.05808 1.51899 0
M  V30 21444 O 3834.73 -8.74358 0.335205 0
M  V30 21445 C 3835.22 -6.83093 1.70294 0
M  V30 21446 C 3834.51 -5.79992 0.836974 0
M  V30 21447 N 3834.56 -4.41769 1.38263 0
M  V30 21448 C 3834.71 -3.38591 0.481702 0
M  V30 21449 O 3834.8 -3.56839 -0.718452 0
M  V30 21450 N 3834.75 -2.1206 1.03569 0
M  V30 21451 C 3834.66 -1.80696 2.36966 0
M  V30 21452 C 3834.51 -2.94845 3.23898 0
M  V30 21453 C 3834.46 -4.19803 2.73435 0
M  V30 21454 H 3831.72 -8.13644 3.0377 0
M  V30 21455 H 3831.45 -6.42695 2.55448 0
M  V30 21456 H 3832.32 -8.12039 0.792769 0
M  V30 21457 H 3834.97 -5.79978 -0.160587 0
M  V30 21458 H 3835.25 -6.51379 2.75643 0
M  V30 21459 H 3836.24 -7.01734 1.34462 0
M  V30 21460 H 3834.41 -8.73674 2.38337 0
M  V30 21461 H 3834.34 -5.04492 3.4095 0
M  V30 21462 P 3836.28 -8.91 1.50449e-10 0
M  V30 21463 O 3836.5 -10.1726 -0.733694 0
M  V30 21464 O 3837.07 -8.73148 1.23936 0
M  V30 21465 O 3836.53 -7.66872 -0.971405 0
M  V30 21466 C 3835.59 -7.42309 -2.04641 0
M  V30 21467 C 3836.32 -6.86059 -3.24661 0
M  V30 21468 O 3836.53 -5.42847 -3.03646 0
M  V30 21469 C 3837.72 -7.41196 -3.50753 0
M  V30 21470 O 3838.11 -7.27073 -4.86816 0
M  V30 21471 C 3838.6 -6.5273 -2.63741 0
M  V30 21472 C 3837.89 -5.1842 -2.73198 0
M  V30 21473 N 3837.94 -4.38762 -1.4784 0
M  V30 21474 H 3835.1 -8.36803 -2.32493 0
M  V30 21475 H 3834.83 -6.70197 -1.71129 0
M  V30 21476 H 3835.7 -7.03551 -4.13168 0
M  V30 21477 P 3839.66 -7.20834 -5.23717 0
M  V30 21478 O 3839.88 -7.7993 -6.57351 0
M  V30 21479 O 3840.45 -7.79328 -4.13004 0
M  V30 21480 O 3839.91 -5.63315 -5.29344 0
M  V30 21481 C 3838.97 -4.80193 -6.01798 0
M  V30 21482 C 3839.7 -3.64202 -6.65911 0
M  V30 21483 O 3839.91 -2.60694 -5.64732 0
M  V30 21484 C 3841.1 -3.93473 -7.1943 0
M  V30 21485 O 3841.49 -3.02071 -8.21205 0
M  V30 21486 C 3841.98 -3.73047 -5.97036 0
M  V30 21487 C 3841.27 -2.58828 -5.25741 0
M  V30 21488 N 3841.32 -2.6801 -3.77422 0
M  V30 21489 C 3841.47 -1.50443 -3.07133 0
M  V30 21490 O 3841.56 -0.419406 -3.61576 0
M  V30 21491 N 3841.51 -1.6403 -1.69677 0
M  V30 21492 C 3841.42 -2.81206 -0.986255 0
M  V30 21493 O 3841.47 -2.80892 0.249754 0
M  V30 21494 C 3841.27 -3.99158 -1.80325 0
M  V30 21495 C 3841.16 -5.29309 -1.06921 0
M  V30 21496 C 3841.22 -3.89779 -3.1476 0
M  V30 21497 H 3838.48 -5.40332 -6.79951 0
M  V30 21498 H 3838.21 -4.41549 -5.32301 0
M  V30 21499 H 3839.08 -3.26331 -7.47797 0
M  V30 21500 H 3841.73 -1.6395 -5.56554 0
M  V30 21501 H 3842.01 -4.63439 -5.3432 0
M  V30 21502 H 3843 -3.44728 -6.25838 0
M  V30 21503 H 3841.17 -4.96652 -7.57263 0
M  V30 21504 H 3841.1 -4.80159 -3.74441 0
M  V30 21505 H 3842.13 -5.81459 -1.09608 0
M  V30 21506 H 3840.39 -5.9187 -1.54487 0
M  V30 21507 H 3840.88 -5.10095 -0.0220288 0
M  V30 21508 H 3841.61 -0.798962 -1.16664 0
M  V30 21509 P 3843.04 -2.75334 -8.47391 0
M  V30 21510 O 3843.26 -2.44571 -9.90142 0
M  V30 21511 O 3843.83 -3.87688 -7.92115 0
M  V30 21512 O 3843.29 -1.4459 -7.59357 0
M  V30 21513 C 3842.35 -0.347608 -7.69215 0
M  V30 21514 C 3843.08 0.96767 -7.52806 0
M  V30 21515 O 3843.29 1.21036 -6.1011 0
M  V30 21516 C 3844.48 1.04544 -8.13308 0
M  V30 21517 O 3844.87 2.38311 -8.41922 0
M  V30 21518 C 3845.36 0.491279 -7.02284 0
M  V30 21519 C 3844.65 0.996264 -5.77469 0
M  V30 21520 N 3844.7 0.0501916 -4.62973 0
M  V30 21521 H 3841.86 -0.374722 -8.67691 0
M  V30 21522 H 3841.59 -0.443485 -6.90277 0
M  V30 21523 H 3842.46 1.75537 -7.96793 0
M  V30 21524 P 3846.42 2.75334 -8.47391 0
M  V30 21525 O 3846.64 3.84128 -9.44797 0
M  V30 21526 O 3847.21 1.51947 -8.68712 0
M  V30 21527 O 3846.67 3.29363 -6.99321 0
M  V30 21528 C 3845.73 4.24011 -6.4274 0
M  V30 21529 C 3846.46 5.20775 -5.52155 0
M  V30 21530 O 3846.67 4.56534 -4.22446 0
M  V30 21531 C 3847.86 5.62629 -5.96531 0
M  V30 21532 O 3848.25 6.87667 -5.41053 0
M  V30 21533 C 3848.74 4.52537 -5.39283 0
M  V30 21534 C 3848.03 4.20027 -4.08623 0
M  V30 21535 N 3848.08 2.76189 -3.71603 0
M  V30 21536 H 3845.24 4.797 -7.24003 0
M  V30 21537 H 3844.97 3.69856 -5.84513 0
M  V30 21538 H 3845.84 6.10356 -5.41441 0
M  V30 21539 P 3849.8 7.20834 -5.23717 0
M  V30 21540 O 3850.02 8.66104 -5.38572 0
M  V30 21541 O 3850.59 6.33544 -6.1349 0
M  V30 21542 O 3850.05 6.7751 -3.72168 0
M  V30 21543 C 3849.11 7.20825 -2.7076 0
M  V30 21544 C 3849.84 7.45864 -1.40599 0
M  V30 21545 O 3850.05 6.17651 -0.734225 0
M  V30 21546 C 3851.24 8.05808 -1.51899 0
M  V30 21547 O 3851.63 8.74358 -0.335205 0
M  V30 21548 C 3852.12 6.83093 -1.70294 0
M  V30 21549 C 3851.41 5.79992 -0.836974 0
M  V30 21550 N 3851.46 4.41864 -1.38293 0
M  V30 21551 H 3848.62 8.13644 -3.0377 0
M  V30 21552 H 3848.35 6.42788 -2.55485 0
M  V30 21553 H 3849.22 8.12039 -0.792769 0
M  V30 21554 P 3853.18 8.91 -1.51558e-10 0
M  V30 21555 O 3853.4 10.1726 0.733694 0
M  V30 21556 O 3853.97 8.73148 -1.23936 0
M  V30 21557 O 3853.43 7.66872 0.971405 0
M  V30 21558 C 3852.49 7.42309 2.04641 0
M  V30 21559 C 3853.22 6.86059 3.24661 0
M  V30 21560 O 3853.43 5.42847 3.03646 0
M  V30 21561 C 3854.62 7.41196 3.50753 0
M  V30 21562 O 3855.01 7.27073 4.86816 0
M  V30 21563 C 3855.5 6.5273 2.63741 0
M  V30 21564 C 3854.79 5.1842 2.73198 0
M  V30 21565 N 3854.84 4.38762 1.4784 0
M  V30 21566 H 3852 8.36803 2.32493 0
M  V30 21567 H 3851.73 6.70197 1.71129 0
M  V30 21568 H 3852.6 7.03551 4.13168 0
M  V30 21569 P 3856.56 7.20834 5.23717 0
M  V30 21570 O 3856.78 7.79853 6.57286 0
M  V30 21571 O 3857.35 7.79239 4.12957 0
M  V30 21572 O 3856.81 5.63315 5.29344 0
M  V30 21573 C 3855.87 4.80255 6.01876 0
M  V30 21574 C 3856.6 3.64202 6.65911 0
M  V30 21575 O 3856.81 2.60694 5.64732 0
M  V30 21576 C 3858 3.93473 7.1943 0
M  V30 21577 O 3858.39 3.02071 8.21205 0
M  V30 21578 C 3858.88 3.73047 5.97036 0
M  V30 21579 C 3858.17 2.58828 5.25741 0
M  V30 21580 N 3858.22 2.68068 3.77503 0
M  V30 21581 H 3855.38 5.40332 6.79951 0
M  V30 21582 H 3855.11 4.41613 5.32378 0
M  V30 21583 H 3855.98 3.26331 7.47797 0
M  V30 21584 P 3859.94 2.75334 8.47391 0
M  V30 21585 O 3860.16 2.44571 9.90142 0
M  V30 21586 O 3860.73 3.87688 7.92115 0
M  V30 21587 O 3860.19 1.4459 7.59357 0
M  V30 21588 C 3859.25 0.347608 7.69215 0
M  V30 21589 C 3859.98 -0.96767 7.52806 0
M  V30 21590 O 3860.19 -1.21036 6.1011 0
M  V30 21591 C 3861.38 -1.04544 8.13308 0
M  V30 21592 O 3861.77 -2.38311 8.41922 0
M  V30 21593 C 3862.26 -0.491279 7.02284 0
M  V30 21594 C 3861.55 -0.996264 5.77469 0
M  V30 21595 N 3861.6 -0.0501916 4.62973 0
M  V30 21596 H 3858.76 0.374722 8.67691 0
M  V30 21597 H 3858.49 0.443485 6.90277 0
M  V30 21598 H 3859.36 -1.75537 7.96793 0
M  V30 21599 P 3863.32 -2.75334 8.47391 0
M  V30 21600 O 3863.54 -3.84128 9.44797 0
M  V30 21601 O 3864.11 -1.51947 8.68712 0
M  V30 21602 O 3863.57 -3.29363 6.99321 0
M  V30 21603 C 3862.63 -4.24011 6.4274 0
M  V30 21604 C 3863.36 -5.20775 5.52155 0
M  V30 21605 O 3863.57 -4.56534 4.22446 0
M  V30 21606 C 3864.76 -5.62629 5.96531 0
M  V30 21607 O 3865.15 -6.87667 5.41053 0
M  V30 21608 C 3865.64 -4.52537 5.39283 0
M  V30 21609 C 3864.93 -4.20027 4.08623 0
M  V30 21610 N 3864.98 -2.76189 3.71603 0
M  V30 21611 H 3862.14 -4.797 7.24003 0
M  V30 21612 H 3861.87 -3.69856 5.84513 0
M  V30 21613 H 3862.74 -6.10356 5.41441 0
M  V30 21614 P 3866.7 -7.20834 5.23717 0
M  V30 21615 O 3866.92 -8.66189 5.38625 0
M  V30 21616 O 3867.49 -6.33615 6.1356 0
M  V30 21617 O 3866.95 -6.7751 3.72168 0
M  V30 21618 C 3866.01 -7.20825 2.7076 0
M  V30 21619 C 3866.74 -7.45864 1.40599 0
M  V30 21620 O 3866.95 -6.17651 0.734225 0
M  V30 21621 C 3868.14 -8.05808 1.51899 0
M  V30 21622 O 3868.53 -8.74358 0.335205 0
M  V30 21623 C 3869.02 -6.83093 1.70294 0
M  V30 21624 C 3868.31 -5.79992 0.836974 0
M  V30 21625 N 3868.36 -4.41769 1.38263 0
M  V30 21626 C 3868.51 -3.36514 0.485617 0
M  V30 21627 O 3868.6 -3.61814 -0.724703 0
M  V30 21628 N 3868.56 -2.00746 1.14492 0
M  V30 21629 C 3868.46 -1.85887 2.27776 0
M  V30 21630 N 3868.51 -0.600907 2.69379 0
M  V30 21631 C 3868.31 -2.92182 3.22265 0
M  V30 21632 C 3868.26 -4.18399 2.71925 0
M  V30 21633 H 3865.52 -8.1355 3.03735 0
M  V30 21634 H 3865.25 -6.42695 2.55448 0
M  V30 21635 H 3866.12 -8.12139 0.792866 0
M  V30 21636 H 3868.77 -5.80078 -0.160615 0
M  V30 21637 H 3869.05 -6.51379 2.75643 0
M  V30 21638 H 3870.04 -7.01734 1.34462 0
M  V30 21639 H 3868.21 -8.73674 2.38337 0
M  V30 21640 H 3868.14 -5.02669 3.39718 0
M  V30 21641 H 3868.24 -2.73001 4.29239 0
M  V30 21642 H 3868.63 0.162318 2.01146 0
M  V30 21643 H 3868.43 -0.387742 3.69773 0
M  V30 21644 P 3870.08 -8.91 1.52667e-10 0
M  V30 21645 O 3870.3 -10.1726 -0.733694 0
M  V30 21646 O 3870.87 -8.73148 1.23936 0
M  V30 21647 O 3870.33 -7.66872 -0.971405 0
M  V30 21648 C 3869.39 -7.42309 -2.04641 0
M  V30 21649 C 3870.12 -6.86059 -3.24661 0
M  V30 21650 O 3870.33 -5.42847 -3.03646 0
M  V30 21651 C 3871.52 -7.41196 -3.50753 0
M  V30 21652 O 3871.91 -7.27073 -4.86816 0
M  V30 21653 C 3872.4 -6.5273 -2.63741 0
M  V30 21654 C 3871.69 -5.1842 -2.73198 0
M  V30 21655 N 3871.74 -4.38762 -1.4784 0
M  V30 21656 C 3871.66 -4.81605 -0.168631 0
M  V30 21657 N 3871.74 -3.85454 0.713363 0
M  V30 21658 C 3871.88 -2.6994 -0.0566958 0
M  V30 21659 C 3872.01 -1.34815 0.338502 0
M  V30 21660 N 3872.13 -0.496304 -0.77465 0
M  V30 21661 C 3872.13 -0.908403 -2.09122 0
M  V30 21662 N 3872.26 0.0517805 -3.00955 0
M  V30 21663 N 3872 -2.17875 -2.46519 0
M  V30 21664 C 3871.88 -3.01988 -1.4033 0
M  V30 21665 H 3868.9 -8.36803 -2.32493 0
M  V30 21666 H 3868.63 -6.70197 -1.71129 0
M  V30 21667 H 3869.5 -7.03551 -4.13168 0
M  V30 21668 P 3873.46 -7.20834 -5.23717 0
M  V30 21669 O 3873.68 -7.79853 -6.57286 0
M  V30 21670 O 3874.25 -7.79239 -4.12957 0
M  V30 21671 O 3873.71 -5.63315 -5.29344 0
M  V30 21672 C 3872.77 -4.80255 -6.01876 0
M  V30 21673 C 3873.5 -3.64202 -6.65911 0
M  V30 21674 O 3873.71 -2.60694 -5.64732 0
M  V30 21675 C 3874.9 -3.93473 -7.1943 0
M  V30 21676 O 3875.29 -3.02071 -8.21205 0
M  V30 21677 C 3875.78 -3.73047 -5.97036 0
M  V30 21678 C 3875.07 -2.58828 -5.25741 0
M  V30 21679 N 3875.12 -2.68068 -3.77503 0
M  V30 21680 H 3872.28 -5.40332 -6.79951 0
M  V30 21681 H 3872.01 -4.41613 -5.32378 0
M  V30 21682 H 3872.88 -3.26331 -7.47797 0
M  V30 21683 P 3876.84 -2.75334 -8.47391 0
M  V30 21684 O 3877.06 -2.44571 -9.90142 0
M  V30 21685 O 3877.63 -3.87688 -7.92115 0
M  V30 21686 O 3877.09 -1.4459 -7.59357 0
M  V30 21687 C 3876.15 -0.347608 -7.69215 0
M  V30 21688 C 3876.88 0.96767 -7.52806 0
M  V30 21689 O 3877.09 1.21036 -6.1011 0
M  V30 21690 C 3878.28 1.04544 -8.13308 0
M  V30 21691 O 3878.67 2.38311 -8.41922 0
M  V30 21692 C 3879.16 0.491279 -7.02284 0
M  V30 21693 C 3878.45 0.996264 -5.77469 0
M  V30 21694 N 3878.5 0.0501916 -4.62973 0
M  V30 21695 C 3878.42 -1.32786 -4.63244 0
M  V30 21696 N 3878.5 -1.86957 -3.44545 0
M  V30 21697 C 3878.64 -0.780241 -2.58481 0
M  V30 21698 C 3878.77 -0.738536 -1.17757 0
M  V30 21699 N 3878.89 0.58337 -0.711393 0
M  V30 21700 C 3878.89 1.70816 -1.51017 0
M  V30 21701 N 3879.02 2.87826 -0.880757 0
M  V30 21702 N 3878.76 1.67126 -2.8339 0
M  V30 21703 C 3878.64 0.401421 -3.30572 0
M  V30 21704 H 3875.66 -0.374722 -8.67691 0
M  V30 21705 H 3875.39 -0.443485 -6.90277 0
M  V30 21706 H 3876.26 1.75537 -7.96793 0
M  V30 21707 P 3880.22 2.75334 -8.47391 0
M  V30 21708 O 3880.44 3.84128 -9.44797 0
M  V30 21709 O 3881.01 1.51947 -8.68712 0
M  V30 21710 O 3880.47 3.29363 -6.99321 0
M  V30 21711 C 3879.53 4.24011 -6.4274 0
M  V30 21712 C 3880.26 5.20775 -5.52155 0
M  V30 21713 O 3880.47 4.56534 -4.22446 0
M  V30 21714 C 3881.66 5.62629 -5.96531 0
M  V30 21715 O 3882.05 6.87667 -5.41053 0
M  V30 21716 C 3882.54 4.52537 -5.39283 0
M  V30 21717 C 3881.83 4.20027 -4.08623 0
M  V30 21718 N 3881.88 2.76189 -3.71603 0
M  V30 21719 H 3879.04 4.797 -7.24003 0
M  V30 21720 H 3878.77 3.69856 -5.84513 0
M  V30 21721 H 3879.64 6.10356 -5.41441 0
M  V30 21722 P 3883.6 7.20834 -5.23717 0
M  V30 21723 O 3883.82 8.66104 -5.38572 0
M  V30 21724 O 3884.39 6.33544 -6.1349 0
M  V30 21725 O 3883.85 6.7751 -3.72168 0
M  V30 21726 C 3882.91 7.20825 -2.7076 0
M  V30 21727 C 3883.64 7.45864 -1.40599 0
M  V30 21728 O 3883.85 6.17651 -0.734225 0
M  V30 21729 C 3885.04 8.05808 -1.51899 0
M  V30 21730 O 3885.43 8.74358 -0.335205 0
M  V30 21731 C 3885.92 6.83093 -1.70294 0
M  V30 21732 C 3885.21 5.79992 -0.836974 0
M  V30 21733 N 3885.26 4.41864 -1.38293 0
M  V30 21734 H 3882.42 8.13644 -3.0377 0
M  V30 21735 H 3882.15 6.42788 -2.55485 0
M  V30 21736 H 3883.02 8.12039 -0.792769 0
M  V30 21737 P 3886.98 8.91 -1.53776e-10 0
M  V30 21738 O 3887.2 10.1726 0.733694 0
M  V30 21739 O 3887.77 8.73148 -1.23936 0
M  V30 21740 O 3887.23 7.66872 0.971405 0
M  V30 21741 C 3886.29 7.42309 2.04641 0
M  V30 21742 C 3887.02 6.86059 3.24661 0
M  V30 21743 O 3887.23 5.42847 3.03646 0
M  V30 21744 C 3888.42 7.41196 3.50753 0
M  V30 21745 O 3888.81 7.27073 4.86816 0
M  V30 21746 C 3889.3 6.5273 2.63741 0
M  V30 21747 C 3888.59 5.1842 2.73198 0
M  V30 21748 N 3888.64 4.38762 1.4784 0
M  V30 21749 H 3885.8 8.36803 2.32493 0
M  V30 21750 H 3885.53 6.70197 1.71129 0
M  V30 21751 H 3886.4 7.03551 4.13168 0
M  V30 21752 P 3890.36 7.20834 5.23717 0
M  V30 21753 O 3890.58 7.79853 6.57286 0
M  V30 21754 O 3891.15 7.79239 4.12957 0
M  V30 21755 O 3890.61 5.63315 5.29344 0
M  V30 21756 C 3889.67 4.80255 6.01876 0
M  V30 21757 C 3890.4 3.64202 6.65911 0
M  V30 21758 O 3890.61 2.60694 5.64732 0
M  V30 21759 C 3891.8 3.93473 7.1943 0
M  V30 21760 O 3892.19 3.02071 8.21205 0
M  V30 21761 C 3892.68 3.73047 5.97036 0
M  V30 21762 C 3891.97 2.58828 5.25741 0
M  V30 21763 N 3892.02 2.68068 3.77503 0
M  V30 21764 H 3889.18 5.40332 6.79951 0
M  V30 21765 H 3888.91 4.41613 5.32378 0
M  V30 21766 H 3889.77 3.26331 7.47797 0
M  V30 21767 P 3893.74 2.75334 8.47391 0
M  V30 21768 O 3893.96 2.44571 9.90142 0
M  V30 21769 O 3894.53 3.87688 7.92115 0
M  V30 21770 O 3893.99 1.4459 7.59357 0
M  V30 21771 C 3893.05 0.347608 7.69215 0
M  V30 21772 C 3893.78 -0.96767 7.52806 0
M  V30 21773 O 3893.99 -1.21036 6.1011 0
M  V30 21774 C 3895.18 -1.04544 8.13308 0
M  V30 21775 O 3895.57 -2.38311 8.41922 0
M  V30 21776 C 3896.06 -0.491279 7.02284 0
M  V30 21777 C 3895.35 -0.996264 5.77469 0
M  V30 21778 N 3895.4 -0.0501916 4.62973 0
M  V30 21779 H 3892.56 0.374722 8.67691 0
M  V30 21780 H 3892.29 0.443485 6.90277 0
M  V30 21781 H 3893.15 -1.75537 7.96793 0
M  V30 21782 P 3897.12 -2.75334 8.47391 0
M  V30 21783 O 3897.34 -3.84128 9.44797 0
M  V30 21784 O 3897.91 -1.51947 8.68712 0
M  V30 21785 O 3897.37 -3.29363 6.99321 0
M  V30 21786 C 3896.43 -4.24011 6.4274 0
M  V30 21787 C 3897.16 -5.20775 5.52155 0
M  V30 21788 O 3897.37 -4.56534 4.22446 0
M  V30 21789 C 3898.56 -5.62629 5.96531 0
M  V30 21790 O 3898.95 -6.87667 5.41053 0
M  V30 21791 C 3899.44 -4.52537 5.39283 0
M  V30 21792 C 3898.73 -4.20027 4.08623 0
M  V30 21793 N 3898.78 -2.76189 3.71603 0
M  V30 21794 H 3895.94 -4.797 7.24003 0
M  V30 21795 H 3895.67 -3.69856 5.84513 0
M  V30 21796 H 3896.53 -6.10356 5.41441 0
M  V30 21797 P 3900.5 -7.20834 5.23717 0
M  V30 21798 O 3900.72 -8.66104 5.38572 0
M  V30 21799 O 3901.29 -6.33544 6.1349 0
M  V30 21800 O 3900.75 -6.7751 3.72168 0
M  V30 21801 C 3899.81 -7.20825 2.7076 0
M  V30 21802 C 3900.54 -7.45864 1.40599 0
M  V30 21803 O 3900.75 -6.17651 0.734225 0
M  V30 21804 C 3901.94 -8.05808 1.51899 0
M  V30 21805 O 3902.33 -8.74358 0.335205 0
M  V30 21806 C 3902.82 -6.83093 1.70294 0
M  V30 21807 C 3902.11 -5.79992 0.836974 0
M  V30 21808 N 3902.16 -4.41864 1.38293 0
M  V30 21809 H 3899.32 -8.13644 3.0377 0
M  V30 21810 H 3899.05 -6.42788 2.55485 0
M  V30 21811 H 3899.91 -8.12039 0.792769 0
M  V30 21812 P 3903.88 -8.91 1.54885e-10 0
M  V30 21813 O 3904.1 -10.1726 -0.733694 0
M  V30 21814 O 3904.67 -8.73148 1.23936 0
M  V30 21815 O 3904.13 -7.66872 -0.971405 0
M  V30 21816 C 3903.19 -7.42309 -2.04641 0
M  V30 21817 C 3903.92 -6.86059 -3.24661 0
M  V30 21818 O 3904.13 -5.42847 -3.03646 0
M  V30 21819 C 3905.32 -7.41196 -3.50753 0
M  V30 21820 O 3905.71 -7.27073 -4.86816 0
M  V30 21821 C 3906.2 -6.5273 -2.63741 0
M  V30 21822 C 3905.49 -5.1842 -2.73198 0
M  V30 21823 N 3905.54 -4.38762 -1.4784 0
M  V30 21824 H 3902.7 -8.36803 -2.32493 0
M  V30 21825 H 3902.43 -6.70197 -1.71129 0
M  V30 21826 H 3903.29 -7.03551 -4.13168 0
M  V30 21827 P 3907.26 -7.20834 -5.23717 0
M  V30 21828 O 3907.48 -7.7993 -6.57351 0
M  V30 21829 O 3908.05 -7.79328 -4.13004 0
M  V30 21830 O 3907.51 -5.63315 -5.29344 0
M  V30 21831 C 3906.57 -4.80193 -6.01798 0
M  V30 21832 C 3907.3 -3.64202 -6.65911 0
M  V30 21833 O 3907.51 -2.60694 -5.64732 0
M  V30 21834 C 3908.7 -3.93473 -7.1943 0
M  V30 21835 O 3909.09 -3.02071 -8.21205 0
M  V30 21836 C 3909.58 -3.73047 -5.97036 0
M  V30 21837 C 3908.87 -2.58828 -5.25741 0
M  V30 21838 N 3908.92 -2.6801 -3.77422 0
M  V30 21839 C 3909.07 -1.50443 -3.07133 0
M  V30 21840 O 3909.16 -0.419406 -3.61576 0
M  V30 21841 N 3909.11 -1.6403 -1.69677 0
M  V30 21842 C 3909.02 -2.81206 -0.986255 0
M  V30 21843 O 3909.07 -2.80892 0.249754 0
M  V30 21844 C 3908.87 -3.99158 -1.80325 0
M  V30 21845 C 3908.76 -5.29309 -1.06921 0
M  V30 21846 C 3908.82 -3.89779 -3.1476 0
M  V30 21847 H 3906.08 -5.40332 -6.79951 0
M  V30 21848 H 3905.81 -4.41549 -5.32301 0
M  V30 21849 H 3906.67 -3.26331 -7.47797 0
M  V30 21850 H 3909.33 -1.6395 -5.56554 0
M  V30 21851 H 3909.61 -4.63439 -5.3432 0
M  V30 21852 H 3910.6 -3.44728 -6.25838 0
M  V30 21853 H 3908.77 -4.96652 -7.57263 0
M  V30 21854 H 3908.7 -4.80159 -3.74441 0
M  V30 21855 H 3909.73 -5.81459 -1.09608 0
M  V30 21856 H 3907.99 -5.9187 -1.54487 0
M  V30 21857 H 3908.48 -5.10095 -0.0220288 0
M  V30 21858 H 3909.21 -0.798962 -1.16664 0
M  V30 21859 P 3910.64 -2.75334 -8.47391 0
M  V30 21860 O 3910.86 -2.44571 -9.90142 0
M  V30 21861 O 3911.43 -3.87688 -7.92115 0
M  V30 21862 O 3910.89 -1.4459 -7.59357 0
M  V30 21863 C 3909.95 -0.347608 -7.69215 0
M  V30 21864 C 3910.68 0.96767 -7.52806 0
M  V30 21865 O 3910.89 1.21036 -6.1011 0
M  V30 21866 C 3912.08 1.04544 -8.13308 0
M  V30 21867 O 3912.47 2.38311 -8.41922 0
M  V30 21868 C 3912.96 0.491279 -7.02284 0
M  V30 21869 C 3912.25 0.996264 -5.77469 0
M  V30 21870 N 3912.3 0.0501916 -4.62973 0
M  V30 21871 H 3909.46 -0.374722 -8.67691 0
M  V30 21872 H 3909.19 -0.443485 -6.90277 0
M  V30 21873 H 3910.05 1.75537 -7.96793 0
M  V30 21874 P 3914.02 2.75334 -8.47391 0
M  V30 21875 O 3914.24 3.84128 -9.44797 0
M  V30 21876 O 3914.81 1.51947 -8.68712 0
M  V30 21877 O 3914.27 3.29363 -6.99321 0
M  V30 21878 C 3913.33 4.24011 -6.4274 0
M  V30 21879 C 3914.06 5.20775 -5.52155 0
M  V30 21880 O 3914.27 4.56534 -4.22446 0
M  V30 21881 C 3915.46 5.62629 -5.96531 0
M  V30 21882 O 3915.85 6.87667 -5.41053 0
M  V30 21883 C 3916.34 4.52537 -5.39283 0
M  V30 21884 C 3915.63 4.20027 -4.08623 0
M  V30 21885 N 3915.68 2.76189 -3.71603 0
M  V30 21886 H 3912.84 4.797 -7.24003 0
M  V30 21887 H 3912.57 3.69856 -5.84513 0
M  V30 21888 H 3913.43 6.10356 -5.41441 0
M  V30 21889 P 3917.4 7.20834 -5.23717 0
M  V30 21890 O 3917.62 8.66104 -5.38572 0
M  V30 21891 O 3918.19 6.33544 -6.1349 0
M  V30 21892 O 3917.65 6.7751 -3.72168 0
M  V30 21893 C 3916.71 7.20825 -2.7076 0
M  V30 21894 C 3917.44 7.45864 -1.40599 0
M  V30 21895 O 3917.65 6.17651 -0.734225 0
M  V30 21896 C 3918.84 8.05808 -1.51899 0
M  V30 21897 O 3919.23 8.74358 -0.335205 0
M  V30 21898 C 3919.72 6.83093 -1.70294 0
M  V30 21899 C 3919.01 5.79992 -0.836974 0
M  V30 21900 N 3919.06 4.41864 -1.38293 0
M  V30 21901 C 3918.98 3.99538 -2.69438 0
M  V30 21902 N 3919.06 2.69909 -2.84277 0
M  V30 21903 C 3919.2 2.21719 -1.5408 0
M  V30 21904 C 3919.33 0.891712 -1.06628 0
M  V30 21905 N 3919.45 0.856846 0.334985 0
M  V30 21906 C 3919.45 1.9641 1.15789 0
M  V30 21907 N 3919.58 1.72708 2.46522 0
M  V30 21908 N 3919.32 3.21165 0.713741 0
M  V30 21909 C 3919.2 3.26797 -0.639748 0
M  V30 21910 H 3916.22 8.13644 -3.0377 0
M  V30 21911 H 3915.95 6.42788 -2.55485 0
M  V30 21912 H 3916.81 8.12039 -0.792769 0
M  V30 21913 P 3920.78 8.91 -1.55994e-10 0
M  V30 21914 O 3921 10.1726 0.733694 0
M  V30 21915 O 3921.57 8.73148 -1.23936 0
M  V30 21916 O 3921.03 7.66872 0.971405 0
M  V30 21917 C 3920.09 7.42309 2.04641 0
M  V30 21918 C 3920.82 6.86059 3.24661 0
M  V30 21919 O 3921.03 5.42847 3.03646 0
M  V30 21920 C 3922.22 7.41196 3.50753 0
M  V30 21921 O 3922.61 7.27073 4.86816 0
M  V30 21922 C 3923.1 6.5273 2.63741 0
M  V30 21923 C 3922.39 5.1842 2.73198 0
M  V30 21924 N 3922.44 4.38762 1.4784 0
M  V30 21925 H 3919.6 8.36803 2.32493 0
M  V30 21926 H 3919.33 6.70197 1.71129 0
M  V30 21927 H 3920.19 7.03551 4.13168 0
M  V30 21928 P 3924.16 7.20834 5.23717 0
M  V30 21929 O 3924.38 7.79853 6.57286 0
M  V30 21930 O 3924.95 7.79239 4.12957 0
M  V30 21931 O 3924.41 5.63315 5.29344 0
M  V30 21932 C 3923.47 4.80255 6.01876 0
M  V30 21933 C 3924.2 3.64202 6.65911 0
M  V30 21934 O 3924.41 2.60694 5.64732 0
M  V30 21935 C 3925.6 3.93473 7.1943 0
M  V30 21936 O 3925.99 3.02071 8.21205 0
M  V30 21937 C 3926.48 3.73047 5.97036 0
M  V30 21938 C 3925.77 2.58828 5.25741 0
M  V30 21939 N 3925.82 2.68068 3.77503 0
M  V30 21940 H 3922.98 5.40332 6.79951 0
M  V30 21941 H 3922.71 4.41613 5.32378 0
M  V30 21942 H 3923.57 3.26331 7.47797 0
M  V30 21943 P 3927.54 2.75334 8.47391 0
M  V30 21944 O 3927.76 2.44571 9.90142 0
M  V30 21945 O 3928.33 3.87688 7.92115 0
M  V30 21946 O 3927.79 1.4459 7.59357 0
M  V30 21947 C 3926.85 0.347608 7.69215 0
M  V30 21948 C 3927.58 -0.96767 7.52806 0
M  V30 21949 O 3927.79 -1.21036 6.1011 0
M  V30 21950 C 3928.98 -1.04544 8.13308 0
M  V30 21951 O 3929.37 -2.38311 8.41922 0
M  V30 21952 C 3929.86 -0.491279 7.02284 0
M  V30 21953 C 3929.15 -0.996264 5.77469 0
M  V30 21954 N 3929.2 -0.0501916 4.62973 0
M  V30 21955 H 3926.36 0.374722 8.67691 0
M  V30 21956 H 3926.09 0.443485 6.90277 0
M  V30 21957 H 3926.95 -1.75537 7.96793 0
M  V30 21958 P 3930.92 -2.75334 8.47391 0
M  V30 21959 O 3931.14 -3.84128 9.44797 0
M  V30 21960 O 3931.71 -1.51947 8.68712 0
M  V30 21961 O 3931.17 -3.29363 6.99321 0
M  V30 21962 C 3930.23 -4.24011 6.4274 0
M  V30 21963 C 3930.96 -5.20775 5.52155 0
M  V30 21964 O 3931.17 -4.56534 4.22446 0
M  V30 21965 C 3932.36 -5.62629 5.96531 0
M  V30 21966 O 3932.75 -6.87667 5.41053 0
M  V30 21967 C 3933.24 -4.52537 5.39283 0
M  V30 21968 C 3932.53 -4.20027 4.08623 0
M  V30 21969 N 3932.58 -2.76189 3.71603 0
M  V30 21970 H 3929.74 -4.797 7.24003 0
M  V30 21971 H 3929.47 -3.69856 5.84513 0
M  V30 21972 H 3930.33 -6.10356 5.41441 0
M  V30 21973 P 3934.3 -7.20834 5.23717 0
M  V30 21974 O 3934.52 -8.66104 5.38572 0
M  V30 21975 O 3935.09 -6.33544 6.1349 0
M  V30 21976 O 3934.55 -6.7751 3.72168 0
M  V30 21977 C 3933.61 -7.20825 2.7076 0
M  V30 21978 C 3934.34 -7.45864 1.40599 0
M  V30 21979 O 3934.55 -6.17651 0.734225 0
M  V30 21980 C 3935.74 -8.05808 1.51899 0
M  V30 21981 O 3936.13 -8.74358 0.335205 0
M  V30 21982 C 3936.62 -6.83093 1.70294 0
M  V30 21983 C 3935.91 -5.79992 0.836974 0
M  V30 21984 N 3935.96 -4.41864 1.38293 0
M  V30 21985 H 3933.12 -8.13644 3.0377 0
M  V30 21986 H 3932.85 -6.42788 2.55485 0
M  V30 21987 H 3933.71 -8.12039 0.792769 0
M  V30 21988 P 3937.68 -8.91 1.57103e-10 0
M  V30 21989 O 3937.9 -10.1726 -0.733694 0
M  V30 21990 O 3938.47 -8.73148 1.23936 0
M  V30 21991 O 3937.93 -7.66872 -0.971405 0
M  V30 21992 C 3936.99 -7.42309 -2.04641 0
M  V30 21993 C 3937.72 -6.86059 -3.24661 0
M  V30 21994 O 3937.93 -5.42847 -3.03646 0
M  V30 21995 C 3939.12 -7.41196 -3.50753 0
M  V30 21996 O 3939.51 -7.27073 -4.86816 0
M  V30 21997 C 3940 -6.5273 -2.63741 0
M  V30 21998 C 3939.29 -5.1842 -2.73198 0
M  V30 21999 N 3939.34 -4.38762 -1.4784 0
M  V30 22000 H 3936.5 -8.36803 -2.32493 0
M  V30 22001 H 3936.23 -6.70197 -1.71129 0
M  V30 22002 H 3937.09 -7.03551 -4.13168 0
M  V30 22003 P 3941.06 -7.20834 -5.23717 0
M  V30 22004 O 3941.28 -7.80006 -6.57415 0
M  V30 22005 O 3941.85 -7.79416 -4.13051 0
M  V30 22006 O 3941.31 -5.63315 -5.29344 0
M  V30 22007 C 3940.37 -4.80318 -6.01954 0
M  V30 22008 C 3941.1 -3.64202 -6.65911 0
M  V30 22009 O 3941.31 -2.60736 -5.64823 0
M  V30 22010 C 3942.5 -3.93521 -7.19518 0
M  V30 22011 O 3942.89 -3.02071 -8.21205 0
M  V30 22012 C 3943.38 -3.73047 -5.97036 0
M  V30 22013 C 3942.67 -2.58828 -5.25741 0
M  V30 22014 N 3942.72 -2.68068 -3.77503 0
M  V30 22015 H 3939.88 -5.40394 -6.8003 0
M  V30 22016 H 3939.61 -4.41741 -5.32532 0
M  V30 22017 H 3940.47 -3.26371 -7.47889 0
M  V30 22018 H 3943.13 -1.64007 -5.56746 0
M  V30 22019 H 3943.41 -4.63439 -5.3432 0
M  V30 22020 H 3944.4 -3.44776 -6.25925 0
M  V30 22021 H 3942.57 -4.96707 -7.57347 0
M  V30 22022 P 3944.44 -2.75334 -8.47391 0
M  V30 22023 O 3944.66 -2.44571 -9.90142 0
M  V30 22024 O 3945.23 -3.87688 -7.92115 0
M  V30 22025 O 3944.69 -1.4459 -7.59357 0
M  V30 22026 C 3943.75 -0.347608 -7.69215 0
M  V30 22027 C 3944.48 0.96767 -7.52806 0
M  V30 22028 O 3944.69 1.21036 -6.1011 0
M  V30 22029 C 3945.88 1.04544 -8.13308 0
M  V30 22030 O 3946.27 2.38311 -8.41922 0
M  V30 22031 C 3946.76 0.491279 -7.02284 0
M  V30 22032 C 3946.05 0.996264 -5.77469 0
M  V30 22033 N 3946.1 0.0501916 -4.62973 0
M  V30 22034 H 3943.26 -0.374722 -8.67691 0
M  V30 22035 H 3942.99 -0.443485 -6.90277 0
M  V30 22036 H 3943.85 1.75537 -7.96793 0
M  V30 22037 P 3947.82 2.75334 -8.47391 0
M  V30 22038 O 3948.04 3.84128 -9.44797 0
M  V30 22039 O 3948.61 1.51947 -8.68712 0
M  V30 22040 O 3948.07 3.29363 -6.99321 0
M  V30 22041 C 3947.13 4.24011 -6.4274 0
M  V30 22042 C 3947.86 5.20775 -5.52155 0
M  V30 22043 O 3948.07 4.56534 -4.22446 0
M  V30 22044 C 3949.26 5.62629 -5.96531 0
M  V30 22045 O 3949.65 6.87667 -5.41053 0
M  V30 22046 C 3950.14 4.52537 -5.39283 0
M  V30 22047 C 3949.43 4.20027 -4.08623 0
M  V30 22048 N 3949.48 2.76189 -3.71603 0
M  V30 22049 H 3946.64 4.797 -7.24003 0
M  V30 22050 H 3946.37 3.69856 -5.84513 0
M  V30 22051 H 3947.23 6.10356 -5.41441 0
M  V30 22052 P 3951.2 7.20834 -5.23717 0
M  V30 22053 O 3951.42 8.66104 -5.38572 0
M  V30 22054 O 3951.99 6.33544 -6.1349 0
M  V30 22055 O 3951.45 6.7751 -3.72168 0
M  V30 22056 C 3950.51 7.20825 -2.7076 0
M  V30 22057 C 3951.24 7.45864 -1.40599 0
M  V30 22058 O 3951.45 6.17651 -0.734225 0
M  V30 22059 C 3952.64 8.05808 -1.51899 0
M  V30 22060 O 3953.03 8.74358 -0.335205 0
M  V30 22061 C 3953.52 6.83093 -1.70294 0
M  V30 22062 C 3952.81 5.79992 -0.836974 0
M  V30 22063 N 3952.86 4.41864 -1.38293 0
M  V30 22064 H 3950.02 8.13644 -3.0377 0
M  V30 22065 H 3949.75 6.42788 -2.55485 0
M  V30 22066 H 3950.61 8.12039 -0.792769 0
M  V30 22067 P 3954.58 8.91 -1.58212e-10 0
M  V30 22068 O 3954.8 10.1726 0.733694 0
M  V30 22069 O 3955.37 8.73148 -1.23936 0
M  V30 22070 O 3954.83 7.66872 0.971405 0
M  V30 22071 C 3953.89 7.42309 2.04641 0
M  V30 22072 C 3954.62 6.86059 3.24661 0
M  V30 22073 O 3954.83 5.42847 3.03646 0
M  V30 22074 C 3956.02 7.41196 3.50753 0
M  V30 22075 O 3956.41 7.27073 4.86816 0
M  V30 22076 C 3956.9 6.5273 2.63741 0
M  V30 22077 C 3956.19 5.1842 2.73198 0
M  V30 22078 N 3956.24 4.38762 1.4784 0
M  V30 22079 H 3953.4 8.36803 2.32493 0
M  V30 22080 H 3953.13 6.70197 1.71129 0
M  V30 22081 H 3953.99 7.03551 4.13168 0
M  V30 22082 P 3957.96 7.20834 5.23717 0
M  V30 22083 O 3958.18 7.80006 6.57415 0
M  V30 22084 O 3958.75 7.79416 4.13051 0
M  V30 22085 O 3958.21 5.63315 5.29344 0
M  V30 22086 C 3957.27 4.80318 6.01954 0
M  V30 22087 C 3958 3.64202 6.65911 0
M  V30 22088 O 3958.21 2.60736 5.64823 0
M  V30 22089 C 3959.4 3.93521 7.19518 0
M  V30 22090 O 3959.79 3.02071 8.21205 0
M  V30 22091 C 3960.28 3.73047 5.97036 0
M  V30 22092 C 3959.57 2.58828 5.25741 0
M  V30 22093 N 3959.62 2.68068 3.77503 0
M  V30 22094 C 3959.54 3.80474 2.99159 0
M  V30 22095 N 3959.61 3.55622 1.71925 0
M  V30 22096 C 3959.76 2.1832 1.65733 0
M  V30 22097 C 3959.89 1.28842 0.572777 0
M  V30 22098 N 3959.9 1.66875 -0.70098 0
M  V30 22099 N 3960.01 -0.016788 0.859836 0
M  V30 22100 C 3960 -0.398145 2.13316 0
M  V30 22101 N 3959.88 0.328224 3.22333 0
M  V30 22102 C 3959.76 1.62992 2.90383 0
M  V30 22103 H 3956.78 5.40394 6.8003 0
M  V30 22104 H 3956.51 4.41741 5.32532 0
M  V30 22105 H 3957.37 3.26371 7.47889 0
M  V30 22106 H 3960.03 1.64007 5.56746 0
M  V30 22107 H 3960.31 4.63439 5.3432 0
M  V30 22108 H 3961.3 3.44776 6.25925 0
M  V30 22109 H 3959.47 4.96707 7.57347 0
M  V30 22110 H 3959.43 4.8089 3.39924 0
M  V30 22111 H 3959.81 2.66547 -0.941919 0
M  V30 22112 H 3960 0.965341 -1.44766 0
M  V30 22113 H 3960.1 -1.46427 2.29697 0
M  V30 22114 P 3961.34 2.75334 8.47391 0
M  V30 22115 O 3961.56 2.44595 9.90239 0
M  V30 22116 O 3962.13 3.87732 7.92204 0
M  V30 22117 O 3961.59 1.4459 7.59357 0
M  V30 22118 C 3960.65 0.347563 7.69115 0
M  V30 22119 C 3961.38 -0.96767 7.52806 0
M  V30 22120 O 3961.59 -1.21036 6.1011 0
M  V30 22121 C 3962.78 -1.04544 8.13308 0
M  V30 22122 O 3963.17 -2.38311 8.41922 0
M  V30 22123 C 3963.66 -0.491279 7.02284 0
M  V30 22124 C 3962.95 -0.996264 5.77469 0
M  V30 22125 N 3963 -0.0501808 4.62873 0
M  V30 22126 C 3963.15 -0.588177 3.36904 0
M  V30 22127 O 3963.24 -1.78598 3.17173 0
M  V30 22128 N 3963.19 0.329694 2.33686 0
M  V30 22129 C 3963.1 1.6953 2.45079 0
M  V30 22130 O 3963.15 2.41926 1.44899 0
M  V30 22131 C 3962.95 2.16933 3.80505 0
M  V30 22132 C 3962.84 3.65373 3.97621 0
M  V30 22133 C 3962.9 1.30326 4.83752 0
M  V30 22134 H 3960.16 0.374722 8.67691 0
M  V30 22135 H 3959.89 0.443421 6.90177 0
M  V30 22136 H 3960.75 -1.75537 7.96793 0
M  V30 22137 H 3963.41 -1.94496 5.46629 0
M  V30 22138 H 3963.69 0.608651 7.04676 0
M  V30 22139 H 3964.68 -0.889672 7.08939 0
M  V30 22140 H 3962.85 -0.43308 9.04564 0
M  V30 22141 H 3962.78 1.68366 5.8516 0
M  V30 22142 H 3963.81 4.05985 4.30448 0
M  V30 22143 H 3962.07 3.88028 4.72875 0
M  V30 22144 H 3962.56 4.11381 3.01609 0
M  V30 22145 H 3963.29 -0.0393617 1.41345 0
M  V30 22146 P 3964.72 -2.75334 8.47391 0
M  V30 22147 O 3964.94 -3.84128 9.44797 0
M  V30 22148 O 3965.51 -1.51947 8.68712 0
M  V30 22149 O 3964.97 -3.29363 6.99321 0
M  V30 22150 C 3964.03 -4.24011 6.4274 0
M  V30 22151 C 3964.76 -5.20775 5.52155 0
M  V30 22152 O 3964.97 -4.56534 4.22446 0
M  V30 22153 C 3966.16 -5.62629 5.96531 0
M  V30 22154 O 3966.55 -6.87667 5.41053 0
M  V30 22155 C 3967.04 -4.52537 5.39283 0
M  V30 22156 C 3966.33 -4.20027 4.08623 0
M  V30 22157 N 3966.38 -2.76189 3.71603 0
M  V30 22158 H 3963.54 -4.797 7.24003 0
M  V30 22159 H 3963.27 -3.69856 5.84513 0
M  V30 22160 H 3964.13 -6.10356 5.41441 0
M  V30 22161 P 3968.1 -7.20834 5.23717 0
M  V30 22162 O 3968.32 -8.66104 5.38572 0
M  V30 22163 O 3968.89 -6.33544 6.1349 0
M  V30 22164 O 3968.35 -6.7751 3.72168 0
M  V30 22165 C 3967.41 -7.20825 2.7076 0
M  V30 22166 C 3968.14 -7.45864 1.40599 0
M  V30 22167 O 3968.35 -6.17651 0.734225 0
M  V30 22168 C 3969.54 -8.05808 1.51899 0
M  V30 22169 O 3969.93 -8.74358 0.335205 0
M  V30 22170 C 3970.42 -6.83093 1.70294 0
M  V30 22171 C 3969.71 -5.79992 0.836974 0
M  V30 22172 N 3969.76 -4.41864 1.38293 0
M  V30 22173 H 3966.92 -8.13644 3.0377 0
M  V30 22174 H 3966.65 -6.42788 2.55485 0
M  V30 22175 H 3967.51 -8.12039 0.792769 0
M  V30 22176 P 3971.48 -8.91 1.59321e-10 0
M  V30 22177 O 3971.7 -10.1726 -0.733694 0
M  V30 22178 O 3972.27 -8.73148 1.23936 0
M  V30 22179 O 3971.73 -7.66872 -0.971405 0
M  V30 22180 C 3970.79 -7.42309 -2.04641 0
M  V30 22181 C 3971.52 -6.86059 -3.24661 0
M  V30 22182 O 3971.73 -5.42847 -3.03646 0
M  V30 22183 C 3972.92 -7.41196 -3.50753 0
M  V30 22184 O 3973.31 -7.27073 -4.86816 0
M  V30 22185 C 3973.8 -6.5273 -2.63741 0
M  V30 22186 C 3973.09 -5.1842 -2.73198 0
M  V30 22187 N 3973.14 -4.38762 -1.4784 0
M  V30 22188 H 3970.3 -8.36803 -2.32493 0
M  V30 22189 H 3970.03 -6.70197 -1.71129 0
M  V30 22190 H 3970.89 -7.03551 -4.13168 0
M  V30 22191 P 3974.86 -7.20834 -5.23717 0
M  V30 22192 O 3975.08 -7.79853 -6.57286 0
M  V30 22193 O 3975.65 -7.79239 -4.12957 0
M  V30 22194 O 3975.11 -5.63315 -5.29344 0
M  V30 22195 C 3974.17 -4.80255 -6.01876 0
M  V30 22196 C 3974.9 -3.64202 -6.65911 0
M  V30 22197 O 3975.11 -2.60694 -5.64732 0
M  V30 22198 C 3976.3 -3.93473 -7.1943 0
M  V30 22199 O 3976.69 -3.02071 -8.21205 0
M  V30 22200 C 3977.18 -3.73047 -5.97036 0
M  V30 22201 C 3976.47 -2.58828 -5.25741 0
M  V30 22202 N 3976.52 -2.68068 -3.77503 0
M  V30 22203 H 3973.68 -5.40332 -6.79951 0
M  V30 22204 H 3973.41 -4.41613 -5.32378 0
M  V30 22205 H 3974.27 -3.26331 -7.47797 0
M  V30 22206 P 3978.24 -2.75334 -8.47391 0
M  V30 22207 O 3978.46 -2.44571 -9.90142 0
M  V30 22208 O 3979.03 -3.87688 -7.92115 0
M  V30 22209 O 3978.49 -1.4459 -7.59357 0
M  V30 22210 C 3977.55 -0.347608 -7.69215 0
M  V30 22211 C 3978.28 0.96767 -7.52806 0
M  V30 22212 O 3978.49 1.21036 -6.1011 0
M  V30 22213 C 3979.68 1.04544 -8.13308 0
M  V30 22214 O 3980.07 2.38311 -8.41922 0
M  V30 22215 C 3980.56 0.491279 -7.02284 0
M  V30 22216 C 3979.85 0.996264 -5.77469 0
M  V30 22217 N 3979.9 0.0501916 -4.62973 0
M  V30 22218 H 3977.06 -0.374722 -8.67691 0
M  V30 22219 H 3976.79 -0.443485 -6.90277 0
M  V30 22220 H 3977.65 1.75537 -7.96793 0
M  V30 22221 P 3981.62 2.75334 -8.47391 0
M  V30 22222 O 3981.84 3.84128 -9.44797 0
M  V30 22223 O 3982.41 1.51947 -8.68712 0
M  V30 22224 O 3981.87 3.29363 -6.99321 0
M  V30 22225 C 3980.93 4.24011 -6.4274 0
M  V30 22226 C 3981.66 5.20775 -5.52155 0
M  V30 22227 O 3981.87 4.56534 -4.22446 0
M  V30 22228 C 3983.06 5.62629 -5.96531 0
M  V30 22229 O 3983.45 6.87667 -5.41053 0
M  V30 22230 C 3983.94 4.52537 -5.39283 0
M  V30 22231 C 3983.23 4.20027 -4.08623 0
M  V30 22232 N 3983.28 2.76189 -3.71603 0
M  V30 22233 H 3980.44 4.797 -7.24003 0
M  V30 22234 H 3980.17 3.69856 -5.84513 0
M  V30 22235 H 3981.03 6.10356 -5.41441 0
M  V30 22236 P 3985 7.20834 -5.23717 0
M  V30 22237 O 3985.22 8.66274 -5.38678 0
M  V30 22238 O 3985.79 6.33687 -6.13629 0
M  V30 22239 O 3985.25 6.7751 -3.72168 0
M  V30 22240 C 3984.31 7.20919 -2.70795 0
M  V30 22241 C 3985.04 7.45864 -1.40599 0
M  V30 22242 O 3985.25 6.17751 -0.734343 0
M  V30 22243 C 3986.44 8.05906 -1.51917 0
M  V30 22244 O 3986.83 8.74358 -0.335205 0
M  V30 22245 C 3987.32 6.83093 -1.70294 0
M  V30 22246 C 3986.61 5.79992 -0.836974 0
M  V30 22247 N 3986.66 4.41864 -1.38293 0
M  V30 22248 C 3986.58 4.02089 -2.69407 0
M  V30 22249 N 3986.65 2.73403 -2.85089 0
M  V30 22250 C 3986.8 2.25086 -1.5642 0
M  V30 22251 C 3986.93 0.942887 -1.04836 0
M  V30 22252 N 3986.94 -0.150999 -1.80369 0
M  V30 22253 N 3987.05 0.812565 0.28167 0
M  V30 22254 C 3987.04 1.90572 1.03784 0
M  V30 22255 N 3986.92 3.167 0.683905 0
M  V30 22256 C 3986.8 3.26538 -0.652815 0
M  V30 22257 H 3983.82 8.13738 -3.03804 0
M  V30 22258 H 3983.55 6.42974 -2.55559 0
M  V30 22259 H 3984.41 8.12139 -0.792866 0
M  V30 22260 H 3987.07 5.80178 0.160643 0
M  V30 22261 H 3987.35 6.51379 -2.75643 0
M  V30 22262 H 3988.34 7.01832 -1.3448 0
M  V30 22263 H 3986.51 8.73771 -2.38364 0
M  V30 22264 H 3986.47 4.7189 -3.52311 0
M  V30 22265 H 3986.85 -0.0721434 -2.82608 0
M  V30 22266 H 3987.04 -1.0785 -1.36544 0
M  V30 22267 H 3987.14 1.73207 2.10241 0
M  V30 22268 P 3988.38 8.91 -1.6043e-10 0
M  V30 22269 O 3988.6 10.1726 0.733694 0
M  V30 22270 O 3989.17 8.73148 -1.23936 0
M  V30 22271 O 3988.63 7.66872 0.971405 0
M  V30 22272 C 3987.69 7.42309 2.04641 0
M  V30 22273 C 3988.42 6.86059 3.24661 0
M  V30 22274 O 3988.63 5.42847 3.03646 0
M  V30 22275 C 3989.82 7.41196 3.50753 0
M  V30 22276 O 3990.21 7.27073 4.86816 0
M  V30 22277 C 3990.7 6.5273 2.63741 0
M  V30 22278 C 3989.99 5.1842 2.73198 0
M  V30 22279 N 3990.04 4.38762 1.4784 0
M  V30 22280 H 3987.2 8.36803 2.32493 0
M  V30 22281 H 3986.93 6.70197 1.71129 0
M  V30 22282 H 3987.79 7.03551 4.13168 0
M  V30 22283 P 3991.76 7.20834 5.23717 0
M  V30 22284 O 3991.98 7.79853 6.57286 0
M  V30 22285 O 3992.55 7.79239 4.12957 0
M  V30 22286 O 3992.01 5.63315 5.29344 0
M  V30 22287 C 3991.07 4.80255 6.01876 0
M  V30 22288 C 3991.8 3.64202 6.65911 0
M  V30 22289 O 3992.01 2.60694 5.64732 0
M  V30 22290 C 3993.2 3.93473 7.1943 0
M  V30 22291 O 3993.59 3.02071 8.21205 0
M  V30 22292 C 3994.08 3.73047 5.97036 0
M  V30 22293 C 3993.37 2.58828 5.25741 0
M  V30 22294 N 3993.42 2.68068 3.77503 0
M  V30 22295 H 3990.58 5.40332 6.79951 0
M  V30 22296 H 3990.31 4.41613 5.32378 0
M  V30 22297 H 3991.17 3.26331 7.47797 0
M  V30 22298 P 3995.14 2.75334 8.47391 0
M  V30 22299 O 3995.36 2.44619 9.90336 0
M  V30 22300 O 3995.93 3.87776 7.92294 0
M  V30 22301 O 3995.39 1.4459 7.59357 0
M  V30 22302 C 3994.45 0.347653 7.69315 0
M  V30 22303 C 3995.18 -0.96767 7.52806 0
M  V30 22304 O 3995.39 -1.21055 6.10208 0
M  V30 22305 C 3996.58 -1.04557 8.13408 0
M  V30 22306 O 3996.97 -2.38311 8.41922 0
M  V30 22307 C 3997.46 -0.491279 7.02284 0
M  V30 22308 C 3996.75 -0.996264 5.77469 0
M  V30 22309 N 3996.8 -0.0501916 4.62973 0
M  V30 22310 C 3996.72 1.31969 4.65661 0
M  V30 22311 N 3996.79 1.86649 3.48119 0
M  V30 22312 C 3996.94 0.792089 2.62406 0
M  V30 22313 C 3997.07 0.705684 1.2207 0
M  V30 22314 N 3997.08 1.76207 0.413762 0
M  V30 22315 N 3997.19 -0.518981 0.685754 0
M  V30 22316 C 3997.18 -1.57595 1.49174 0
M  V30 22317 N 3997.06 -1.62909 2.80066 0
M  V30 22318 C 3996.94 -0.388195 3.3073 0
M  V30 22319 H 3993.96 0.374765 8.67791 0
M  V30 22320 H 3993.69 0.443613 6.90476 0
M  V30 22321 H 3994.55 -1.75559 7.96891 0
M  V30 22322 H 3997.21 -1.94563 5.46818 0
M  V30 22323 H 3997.49 0.608651 7.04676 0
M  V30 22324 H 3998.48 -0.889796 7.09039 0
M  V30 22325 H 3996.65 -0.433128 9.04664 0
M  V30 22326 H 3996.61 1.89246 5.57664 0
M  V30 22327 H 3996.99 2.71005 0.804694 0
M  V30 22328 H 3997.18 1.63189 -0.603768 0
M  V30 22329 H 3997.28 -2.53475 0.997614 0
M  V30 22330 P 3998.52 -2.75334 8.47391 0
M  V30 22331 O 3998.74 -3.84128 9.44797 0
M  V30 22332 O 3999.31 -1.51947 8.68712 0
M  V30 22333 O 3998.77 -3.29363 6.99321 0
M  V30 22334 C 3997.83 -4.24011 6.4274 0
M  V30 22335 C 3998.56 -5.20775 5.52155 0
M  V30 22336 O 3998.77 -4.56534 4.22446 0
M  V30 22337 C 3999.96 -5.62629 5.96531 0
M  V30 22338 O 4000.35 -6.87667 5.41053 0
M  V30 22339 C 4000.84 -4.52537 5.39283 0
M  V30 22340 C 4000.13 -4.20027 4.08623 0
M  V30 22341 N 4000.18 -2.76189 3.71603 0
M  V30 22342 H 3997.34 -4.797 7.24003 0
M  V30 22343 H 3997.07 -3.69856 5.84513 0
M  V30 22344 H 3997.93 -6.10356 5.41441 0
M  V30 22345 P 4001.9 -7.20834 5.23717 0
M  V30 22346 O 4002.12 -8.66104 5.38572 0
M  V30 22347 O 4002.69 -6.33544 6.1349 0
M  V30 22348 O 4002.15 -6.7751 3.72168 0
M  V30 22349 C 4001.21 -7.20825 2.7076 0
M  V30 22350 C 4001.94 -7.45864 1.40599 0
M  V30 22351 O 4002.15 -6.17651 0.734225 0
M  V30 22352 C 4003.34 -8.05808 1.51899 0
M  V30 22353 O 4003.73 -8.74358 0.335205 0
M  V30 22354 C 4004.22 -6.83093 1.70294 0
M  V30 22355 C 4003.51 -5.79992 0.836974 0
M  V30 22356 N 4003.56 -4.41864 1.38293 0
M  V30 22357 H 4000.72 -8.13644 3.0377 0
M  V30 22358 H 4000.45 -6.42788 2.55485 0
M  V30 22359 H 4001.31 -8.12039 0.792769 0
M  V30 22360 P 4005.28 -8.91 1.61539e-10 0
M  V30 22361 O 4005.5 -10.1726 -0.733694 0
M  V30 22362 O 4006.07 -8.73148 1.23936 0
M  V30 22363 O 4005.53 -7.66872 -0.971405 0
M  V30 22364 C 4004.59 -7.42309 -2.04641 0
M  V30 22365 C 4005.32 -6.86059 -3.24661 0
M  V30 22366 O 4005.53 -5.42847 -3.03646 0
M  V30 22367 C 4006.72 -7.41196 -3.50753 0
M  V30 22368 O 4007.11 -7.27073 -4.86816 0
M  V30 22369 C 4007.6 -6.5273 -2.63741 0
M  V30 22370 C 4006.89 -5.1842 -2.73198 0
M  V30 22371 N 4006.94 -4.38762 -1.4784 0
M  V30 22372 H 4004.1 -8.36803 -2.32493 0
M  V30 22373 H 4003.83 -6.70197 -1.71129 0
M  V30 22374 H 4004.69 -7.03551 -4.13168 0
M  V30 22375 P 4008.66 -7.20834 -5.23717 0
M  V30 22376 O 4008.88 -7.79853 -6.57286 0
M  V30 22377 O 4009.45 -7.79239 -4.12957 0
M  V30 22378 O 4008.91 -5.63315 -5.29344 0
M  V30 22379 C 4007.97 -4.80255 -6.01876 0
M  V30 22380 C 4008.7 -3.64202 -6.65911 0
M  V30 22381 O 4008.91 -2.60694 -5.64732 0
M  V30 22382 C 4010.1 -3.93473 -7.1943 0
M  V30 22383 O 4010.49 -3.02071 -8.21205 0
M  V30 22384 C 4010.98 -3.73047 -5.97036 0
M  V30 22385 C 4010.27 -2.58828 -5.25741 0
M  V30 22386 N 4010.32 -2.68068 -3.77503 0
M  V30 22387 H 4007.48 -5.40332 -6.79951 0
M  V30 22388 H 4007.21 -4.41613 -5.32378 0
M  V30 22389 H 4008.07 -3.26331 -7.47797 0
M  V30 22390 P 4012.04 -2.75334 -8.47391 0
M  V30 22391 O 4012.26 -2.44571 -9.90142 0
M  V30 22392 O 4012.83 -3.87688 -7.92115 0
M  V30 22393 O 4012.29 -1.4459 -7.59357 0
M  V30 22394 C 4011.35 -0.347608 -7.69215 0
M  V30 22395 C 4012.08 0.96767 -7.52806 0
M  V30 22396 O 4012.29 1.21036 -6.1011 0
M  V30 22397 C 4013.48 1.04544 -8.13308 0
M  V30 22398 O 4013.87 2.38311 -8.41922 0
M  V30 22399 C 4014.36 0.491279 -7.02284 0
M  V30 22400 C 4013.65 0.996264 -5.77469 0
M  V30 22401 N 4013.7 0.0501916 -4.62973 0
M  V30 22402 H 4010.86 -0.374722 -8.67691 0
M  V30 22403 H 4010.59 -0.443485 -6.90277 0
M  V30 22404 H 4011.45 1.75537 -7.96793 0
M  V30 22405 P 4015.42 2.75334 -8.47391 0
M  V30 22406 O 4015.64 3.84128 -9.44797 0
M  V30 22407 O 4016.21 1.51947 -8.68712 0
M  V30 22408 O 4015.67 3.29363 -6.99321 0
M  V30 22409 C 4014.73 4.24011 -6.4274 0
M  V30 22410 C 4015.46 5.20775 -5.52155 0
M  V30 22411 O 4015.67 4.56534 -4.22446 0
M  V30 22412 C 4016.86 5.62629 -5.96531 0
M  V30 22413 O 4017.25 6.87667 -5.41053 0
M  V30 22414 C 4017.74 4.52537 -5.39283 0
M  V30 22415 C 4017.03 4.20027 -4.08623 0
M  V30 22416 N 4017.08 2.76189 -3.71603 0
M  V30 22417 H 4014.24 4.797 -7.24003 0
M  V30 22418 H 4013.97 3.69856 -5.84513 0
M  V30 22419 H 4014.83 6.10356 -5.41441 0
M  V30 22420 P 4018.8 7.20834 -5.23717 0
M  V30 22421 O 4019.02 8.66104 -5.38572 0
M  V30 22422 O 4019.59 6.33544 -6.1349 0
M  V30 22423 O 4019.05 6.7751 -3.72168 0
M  V30 22424 C 4018.11 7.20825 -2.7076 0
M  V30 22425 C 4018.84 7.45864 -1.40599 0
M  V30 22426 O 4019.05 6.17651 -0.734225 0
M  V30 22427 C 4020.24 8.05808 -1.51899 0
M  V30 22428 O 4020.63 8.74358 -0.335205 0
M  V30 22429 C 4021.12 6.83093 -1.70294 0
M  V30 22430 C 4020.41 5.79992 -0.836974 0
M  V30 22431 N 4020.46 4.41864 -1.38293 0
M  V30 22432 H 4017.62 8.13644 -3.0377 0
M  V30 22433 H 4017.35 6.42788 -2.55485 0
M  V30 22434 H 4018.21 8.12039 -0.792769 0
M  V30 22435 P 4022.18 8.91 -1.62648e-10 0
M  V30 22436 O 4022.4 10.1726 0.733694 0
M  V30 22437 O 4022.97 8.73148 -1.23936 0
M  V30 22438 O 4022.43 7.66872 0.971405 0
M  V30 22439 C 4021.49 7.42309 2.04641 0
M  V30 22440 C 4022.22 6.86059 3.24661 0
M  V30 22441 O 4022.43 5.42847 3.03646 0
M  V30 22442 C 4023.62 7.41196 3.50753 0
M  V30 22443 O 4024.01 7.27073 4.86816 0
M  V30 22444 C 4024.5 6.5273 2.63741 0
M  V30 22445 C 4023.79 5.1842 2.73198 0
M  V30 22446 N 4023.84 4.38762 1.4784 0
M  V30 22447 H 4021 8.36803 2.32493 0
M  V30 22448 H 4020.73 6.70197 1.71129 0
M  V30 22449 H 4021.59 7.03551 4.13168 0
M  V30 22450 P 4025.56 7.20834 5.23717 0
M  V30 22451 O 4025.78 7.79853 6.57286 0
M  V30 22452 O 4026.35 7.79239 4.12957 0
M  V30 22453 O 4025.81 5.63315 5.29344 0
M  V30 22454 C 4024.87 4.80255 6.01876 0
M  V30 22455 C 4025.6 3.64202 6.65911 0
M  V30 22456 O 4025.81 2.60694 5.64732 0
M  V30 22457 C 4027 3.93473 7.1943 0
M  V30 22458 O 4027.39 3.02071 8.21205 0
M  V30 22459 C 4027.88 3.73047 5.97036 0
M  V30 22460 C 4027.17 2.58828 5.25741 0
M  V30 22461 N 4027.22 2.68068 3.77503 0
M  V30 22462 C 4027.14 3.79715 2.96723 0
M  V30 22463 N 4027.22 3.5377 1.68852 0
M  V30 22464 C 4027.36 2.15054 1.63254 0
M  V30 22465 C 4027.49 1.28964 0.518571 0
M  V30 22466 O 4027.51 1.56826 -0.679156 0
M  V30 22467 N 4027.61 -0.0538097 0.918425 0
M  V30 22468 C 4027.61 -0.494275 2.22578 0
M  V30 22469 N 4027.74 -1.81086 2.40434 0
M  V30 22470 N 4027.48 0.313645 3.27502 0
M  V30 22471 C 4027.36 1.61829 2.91033 0
M  V30 22472 H 4024.38 5.40332 6.79951 0
M  V30 22473 H 4024.11 4.41613 5.32378 0
M  V30 22474 H 4024.97 3.26331 7.47797 0
M  V30 22475 H 4027.63 1.63422 5.56814 0
M  V30 22476 H 4027.91 4.63374 5.34244 0
M  V30 22477 H 4028.9 3.44728 6.25838 0
M  V30 22478 H 4027.07 4.96652 7.57263 0
M  V30 22479 H 4027.02 4.80617 3.3614 0
M  V30 22480 H 4027.7 -0.742702 0.199384 0
M  V30 22481 H 4027.74 -2.20598 3.35588 0
M  V30 22482 H 4027.84 -2.43518 1.58945 0
M  V30 22483 P 4028.94 2.75334 8.47391 0
M  V30 22484 O 4029.16 2.44571 9.90142 0
M  V30 22485 O 4029.73 3.87688 7.92115 0
M  V30 22486 O 4029.19 1.4459 7.59357 0
M  V30 22487 C 4028.25 0.347608 7.69215 0
M  V30 22488 C 4028.98 -0.96767 7.52806 0
M  V30 22489 O 4029.19 -1.21036 6.1011 0
M  V30 22490 C 4030.38 -1.04544 8.13308 0
M  V30 22491 O 4030.77 -2.38311 8.41922 0
M  V30 22492 C 4031.26 -0.491279 7.02284 0
M  V30 22493 C 4030.55 -0.996264 5.77469 0
M  V30 22494 N 4030.6 -0.0501916 4.62973 0
M  V30 22495 H 4027.76 0.374722 8.67691 0
M  V30 22496 H 4027.49 0.443485 6.90277 0
M  V30 22497 H 4028.35 -1.75537 7.96793 0
M  V30 22498 P 4032.32 -2.75334 8.47391 0
M  V30 22499 O 4032.54 -3.84128 9.44797 0
M  V30 22500 O 4033.11 -1.51947 8.68712 0
M  V30 22501 O 4032.57 -3.29363 6.99321 0
M  V30 22502 C 4031.63 -4.24011 6.4274 0
M  V30 22503 C 4032.36 -5.20775 5.52155 0
M  V30 22504 O 4032.57 -4.56534 4.22446 0
M  V30 22505 C 4033.76 -5.62629 5.96531 0
M  V30 22506 O 4034.15 -6.87667 5.41053 0
M  V30 22507 C 4034.64 -4.52537 5.39283 0
M  V30 22508 C 4033.93 -4.20027 4.08623 0
M  V30 22509 N 4033.98 -2.76189 3.71603 0
M  V30 22510 H 4031.14 -4.797 7.24003 0
M  V30 22511 H 4030.87 -3.69856 5.84513 0
M  V30 22512 H 4031.73 -6.10356 5.41441 0
M  V30 22513 P 4035.7 -7.20834 5.23717 0
M  V30 22514 O 4035.92 -8.66104 5.38572 0
M  V30 22515 O 4036.49 -6.33544 6.1349 0
M  V30 22516 O 4035.95 -6.7751 3.72168 0
M  V30 22517 C 4035.01 -7.20825 2.7076 0
M  V30 22518 C 4035.74 -7.45864 1.40599 0
M  V30 22519 O 4035.95 -6.17651 0.734225 0
M  V30 22520 C 4037.14 -8.05808 1.51899 0
M  V30 22521 O 4037.53 -8.74358 0.335205 0
M  V30 22522 C 4038.02 -6.83093 1.70294 0
M  V30 22523 C 4037.31 -5.79992 0.836974 0
M  V30 22524 N 4037.36 -4.41864 1.38293 0
M  V30 22525 C 4037.28 -3.99538 2.69438 0
M  V30 22526 N 4037.36 -2.69909 2.84277 0
M  V30 22527 C 4037.5 -2.21719 1.5408 0
M  V30 22528 C 4037.63 -0.891712 1.06628 0
M  V30 22529 O 4037.65 0.161298 1.70137 0
M  V30 22530 N 4037.75 -0.856846 -0.334985 0
M  V30 22531 C 4037.75 -1.9641 -1.15789 0
M  V30 22532 N 4037.88 -1.72708 -2.46522 0
M  V30 22533 N 4037.62 -3.21165 -0.713741 0
M  V30 22534 C 4037.5 -3.26797 0.639748 0
M  V30 22535 H 4034.52 -8.13644 3.0377 0
M  V30 22536 H 4034.25 -6.42788 2.55485 0
M  V30 22537 H 4035.11 -8.12039 0.792769 0
M  V30 22538 H 4037.77 -5.80061 -0.166416 0
M  V30 22539 H 4038.05 -6.51287 2.75604 0
M  V30 22540 H 4039.04 -7.01734 1.34462 0
M  V30 22541 H 4037.21 -8.73674 2.38337 0
M  V30 22542 H 4037.16 -4.68207 3.53221 0
M  V30 22543 H 4037.84 0.0398818 -0.767965 0
M  V30 22544 H 4037.88 -2.50995 -3.13503 0
M  V30 22545 H 4037.98 -0.759148 -2.80716 0
M  V30 22546 P 4039.08 -8.91 1.63757e-10 0
M  V30 22547 O 4039.3 -10.1726 -0.733694 0
M  V30 22548 O 4039.87 -8.73148 1.23936 0
M  V30 22549 O 4039.33 -7.66872 -0.971405 0
M  V30 22550 C 4038.39 -7.42309 -2.04641 0
M  V30 22551 C 4039.12 -6.86059 -3.24661 0
M  V30 22552 O 4039.33 -5.42847 -3.03646 0
M  V30 22553 C 4040.52 -7.41196 -3.50753 0
M  V30 22554 O 4040.91 -7.27073 -4.86816 0
M  V30 22555 C 4041.4 -6.5273 -2.63741 0
M  V30 22556 C 4040.69 -5.1842 -2.73198 0
M  V30 22557 N 4040.74 -4.38762 -1.4784 0
M  V30 22558 H 4037.9 -8.36803 -2.32493 0
M  V30 22559 H 4037.63 -6.70197 -1.71129 0
M  V30 22560 H 4038.49 -7.03551 -4.13168 0
M  V30 22561 P 4042.46 -7.20834 -5.23717 0
M  V30 22562 O 4042.68 -7.79853 -6.57286 0
M  V30 22563 O 4043.25 -7.79239 -4.12957 0
M  V30 22564 O 4042.71 -5.63315 -5.29344 0
M  V30 22565 C 4041.77 -4.80255 -6.01876 0
M  V30 22566 C 4042.5 -3.64202 -6.65911 0
M  V30 22567 O 4042.71 -2.60694 -5.64732 0
M  V30 22568 C 4043.9 -3.93473 -7.1943 0
M  V30 22569 O 4044.29 -3.02071 -8.21205 0
M  V30 22570 C 4044.78 -3.73047 -5.97036 0
M  V30 22571 C 4044.07 -2.58828 -5.25741 0
M  V30 22572 N 4044.12 -2.68068 -3.77503 0
M  V30 22573 C 4044.04 -3.79715 -2.96723 0
M  V30 22574 N 4044.12 -3.5377 -1.68852 0
M  V30 22575 C 4044.26 -2.15054 -1.63254 0
M  V30 22576 C 4044.39 -1.28964 -0.518571 0
M  V30 22577 O 4044.41 -1.56826 0.679156 0
M  V30 22578 N 4044.51 0.0538097 -0.918425 0
M  V30 22579 C 4044.51 0.494275 -2.22578 0
M  V30 22580 N 4044.64 1.81086 -2.40434 0
M  V30 22581 N 4044.38 -0.313645 -3.27502 0
M  V30 22582 C 4044.26 -1.61829 -2.91033 0
M  V30 22583 H 4041.28 -5.40332 -6.79951 0
M  V30 22584 H 4041.01 -4.41613 -5.32378 0
M  V30 22585 H 4041.87 -3.26331 -7.47797 0
M  V30 22586 H 4044.53 -1.63422 -5.56814 0
M  V30 22587 H 4044.81 -4.63374 -5.34244 0
M  V30 22588 H 4045.8 -3.44728 -6.25838 0
M  V30 22589 H 4043.97 -4.96652 -7.57263 0
M  V30 22590 H 4043.92 -4.80617 -3.3614 0
M  V30 22591 H 4044.6 0.742702 -0.199384 0
M  V30 22592 H 4044.64 2.20598 -3.35588 0
M  V30 22593 H 4044.74 2.43518 -1.58945 0
M  V30 22594 P 4045.84 -2.75334 -8.47391 0
M  V30 22595 O 4046.06 -2.44571 -9.90142 0
M  V30 22596 O 4046.63 -3.87688 -7.92115 0
M  V30 22597 O 4046.09 -1.4459 -7.59357 0
M  V30 22598 C 4045.15 -0.347608 -7.69215 0
M  V30 22599 C 4045.88 0.96767 -7.52806 0
M  V30 22600 O 4046.09 1.21036 -6.1011 0
M  V30 22601 C 4047.28 1.04544 -8.13308 0
M  V30 22602 O 4047.67 2.38311 -8.41922 0
M  V30 22603 C 4048.16 0.491279 -7.02284 0
M  V30 22604 C 4047.45 0.996264 -5.77469 0
M  V30 22605 N 4047.5 0.0501916 -4.62973 0
M  V30 22606 C 4047.42 -1.32786 -4.63244 0
M  V30 22607 N 4047.5 -1.86957 -3.44545 0
M  V30 22608 C 4047.64 -0.780241 -2.58481 0
M  V30 22609 C 4047.77 -0.738536 -1.17757 0
M  V30 22610 O 4047.79 -1.66794 -0.372349 0
M  V30 22611 N 4047.89 0.58337 -0.711393 0
M  V30 22612 C 4047.89 1.70816 -1.51017 0
M  V30 22613 N 4048.02 2.87826 -0.880757 0
M  V30 22614 N 4047.76 1.67126 -2.8339 0
M  V30 22615 C 4047.64 0.401421 -3.30572 0
M  V30 22616 H 4044.66 -0.374722 -8.67691 0
M  V30 22617 H 4044.39 -0.443485 -6.90277 0
M  V30 22618 H 4045.25 1.75537 -7.96793 0
M  V30 22619 H 4047.91 1.95076 -5.46529 0
M  V30 22620 H 4048.19 -0.608565 -7.04577 0
M  V30 22621 H 4049.18 0.889672 -7.08939 0
M  V30 22622 H 4047.35 0.43308 -9.04564 0
M  V30 22623 H 4047.3 -1.91249 -5.54442 0
M  V30 22624 H 4047.98 0.718054 0.275244 0
M  V30 22625 H 4048.02 3.75721 -1.41832 0
M  V30 22626 H 4048.12 2.90436 0.145468 0
M  V30 22627 P 4049.22 2.75334 -8.47391 0
M  V30 22628 O 4049.44 3.84128 -9.44797 0
M  V30 22629 O 4050.01 1.51947 -8.68712 0
M  V30 22630 O 4049.47 3.29363 -6.99321 0
M  V30 22631 C 4048.53 4.24011 -6.4274 0
M  V30 22632 C 4049.26 5.20775 -5.52155 0
M  V30 22633 O 4049.47 4.56534 -4.22446 0
M  V30 22634 C 4050.66 5.62629 -5.96531 0
M  V30 22635 O 4051.05 6.87667 -5.41053 0
M  V30 22636 C 4051.54 4.52537 -5.39283 0
M  V30 22637 C 4050.83 4.20027 -4.08623 0
M  V30 22638 N 4050.88 2.76189 -3.71603 0
M  V30 22639 H 4048.04 4.797 -7.24003 0
M  V30 22640 H 4047.77 3.69856 -5.84513 0
M  V30 22641 H 4048.63 6.10356 -5.41441 0
M  V30 22642 P 4052.6 7.20834 -5.23717 0
M  V30 22643 O 4052.82 8.66274 -5.38678 0
M  V30 22644 O 4053.39 6.33687 -6.13629 0
M  V30 22645 O 4052.85 6.7751 -3.72168 0
M  V30 22646 C 4051.91 7.20919 -2.70795 0
M  V30 22647 C 4052.64 7.45864 -1.40599 0
M  V30 22648 O 4052.85 6.17751 -0.734343 0
M  V30 22649 C 4054.04 8.05906 -1.51917 0
M  V30 22650 O 4054.43 8.74358 -0.335205 0
M  V30 22651 C 4054.92 6.83093 -1.70294 0
M  V30 22652 C 4054.21 5.79992 -0.836974 0
M  V30 22653 N 4054.26 4.41864 -1.38293 0
M  V30 22654 C 4054.18 4.02089 -2.69407 0
M  V30 22655 N 4054.25 2.73403 -2.85089 0
M  V30 22656 C 4054.4 2.25086 -1.5642 0
M  V30 22657 C 4054.53 0.942887 -1.04836 0
M  V30 22658 N 4054.54 -0.150999 -1.80369 0
M  V30 22659 N 4054.65 0.812565 0.28167 0
M  V30 22660 C 4054.64 1.90572 1.03784 0
M  V30 22661 N 4054.52 3.167 0.683905 0
M  V30 22662 C 4054.4 3.26538 -0.652815 0
M  V30 22663 H 4051.42 8.13738 -3.03804 0
M  V30 22664 H 4051.15 6.42974 -2.55559 0
M  V30 22665 H 4052.01 8.12139 -0.792866 0
M  V30 22666 H 4054.67 5.80178 0.160643 0
M  V30 22667 H 4054.95 6.51379 -2.75643 0
M  V30 22668 H 4055.94 7.01832 -1.3448 0
M  V30 22669 H 4054.11 8.73771 -2.38364 0
M  V30 22670 H 4054.07 4.7189 -3.52311 0
M  V30 22671 H 4054.45 -0.0721434 -2.82608 0
M  V30 22672 H 4054.64 -1.0785 -1.36544 0
M  V30 22673 H 4054.74 1.73207 2.10241 0
M  V30 22674 P 4055.98 8.91 -1.64866e-10 0
M  V30 22675 O 4056.2 10.1726 0.733694 0
M  V30 22676 O 4056.77 8.73148 -1.23936 0
M  V30 22677 O 4056.23 7.66872 0.971405 0
M  V30 22678 C 4055.29 7.42309 2.04641 0
M  V30 22679 C 4056.02 6.86059 3.24661 0
M  V30 22680 O 4056.23 5.42847 3.03646 0
M  V30 22681 C 4057.42 7.41196 3.50753 0
M  V30 22682 O 4057.81 7.27073 4.86816 0
M  V30 22683 C 4058.3 6.5273 2.63741 0
M  V30 22684 C 4057.59 5.1842 2.73198 0
M  V30 22685 N 4057.64 4.38762 1.4784 0
M  V30 22686 H 4054.8 8.36803 2.32493 0
M  V30 22687 H 4054.53 6.70197 1.71129 0
M  V30 22688 H 4055.39 7.03551 4.13168 0
M  V30 22689 P 4059.36 7.20834 5.23717 0
M  V30 22690 O 4059.58 7.79853 6.57286 0
M  V30 22691 O 4060.15 7.79239 4.12957 0
M  V30 22692 O 4059.61 5.63315 5.29344 0
M  V30 22693 C 4058.67 4.80255 6.01876 0
M  V30 22694 C 4059.4 3.64202 6.65911 0
M  V30 22695 O 4059.61 2.60694 5.64732 0
M  V30 22696 C 4060.8 3.93473 7.1943 0
M  V30 22697 O 4061.19 3.02071 8.21205 0
M  V30 22698 C 4061.68 3.73047 5.97036 0
M  V30 22699 C 4060.97 2.58828 5.25741 0
M  V30 22700 N 4061.02 2.68068 3.77503 0
M  V30 22701 C 4060.94 3.79715 2.96723 0
M  V30 22702 N 4061.02 3.5377 1.68852 0
M  V30 22703 C 4061.16 2.15054 1.63254 0
M  V30 22704 C 4061.29 1.28964 0.518571 0
M  V30 22705 O 4061.31 1.56826 -0.679156 0
M  V30 22706 N 4061.41 -0.0538097 0.918425 0
M  V30 22707 C 4061.41 -0.494275 2.22578 0
M  V30 22708 N 4061.54 -1.81086 2.40434 0
M  V30 22709 N 4061.28 0.313645 3.27502 0
M  V30 22710 C 4061.16 1.61829 2.91033 0
M  V30 22711 H 4058.18 5.40332 6.79951 0
M  V30 22712 H 4057.91 4.41613 5.32378 0
M  V30 22713 H 4058.77 3.26331 7.47797 0
M  V30 22714 H 4061.43 1.63422 5.56814 0
M  V30 22715 H 4061.71 4.63374 5.34244 0
M  V30 22716 H 4062.7 3.44728 6.25838 0
M  V30 22717 H 4060.87 4.96652 7.57263 0
M  V30 22718 H 4060.82 4.80617 3.3614 0
M  V30 22719 H 4061.5 -0.742702 0.199384 0
M  V30 22720 H 4061.54 -2.20598 3.35588 0
M  V30 22721 H 4061.64 -2.43518 1.58945 0
M  V30 22722 P 4062.74 2.75334 8.47391 0
M  V30 22723 O 4062.96 2.44571 9.90142 0
M  V30 22724 O 4063.53 3.87688 7.92115 0
M  V30 22725 O 4062.99 1.4459 7.59357 0
M  V30 22726 C 4062.05 0.347608 7.69215 0
M  V30 22727 C 4062.78 -0.96767 7.52806 0
M  V30 22728 O 4062.99 -1.21036 6.1011 0
M  V30 22729 C 4064.18 -1.04544 8.13308 0
M  V30 22730 O 4064.57 -2.38311 8.41922 0
M  V30 22731 C 4065.06 -0.491279 7.02284 0
M  V30 22732 C 4064.35 -0.996264 5.77469 0
M  V30 22733 N 4064.4 -0.0501916 4.62973 0
M  V30 22734 H 4061.56 0.374722 8.67691 0
M  V30 22735 H 4061.29 0.443485 6.90277 0
M  V30 22736 H 4062.15 -1.75537 7.96793 0
M  V30 22737 P 4066.12 -2.75334 8.47391 0
M  V30 22738 O 4066.34 -3.84128 9.44797 0
M  V30 22739 O 4066.91 -1.51947 8.68712 0
M  V30 22740 O 4066.37 -3.29363 6.99321 0
M  V30 22741 C 4065.43 -4.24011 6.4274 0
M  V30 22742 C 4066.16 -5.20775 5.52155 0
M  V30 22743 O 4066.37 -4.56534 4.22446 0
M  V30 22744 C 4067.56 -5.62629 5.96531 0
M  V30 22745 O 4067.95 -6.87667 5.41053 0
M  V30 22746 C 4068.44 -4.52537 5.39283 0
M  V30 22747 C 4067.73 -4.20027 4.08623 0
M  V30 22748 N 4067.78 -2.76189 3.71603 0
M  V30 22749 H 4064.94 -4.797 7.24003 0
M  V30 22750 H 4064.67 -3.69856 5.84513 0
M  V30 22751 H 4065.53 -6.10356 5.41441 0
M  V30 22752 P 4069.5 -7.20834 5.23717 0
M  V30 22753 O 4069.72 -8.66189 5.38625 0
M  V30 22754 O 4070.29 -6.33615 6.1356 0
M  V30 22755 O 4069.75 -6.7751 3.72168 0
M  V30 22756 C 4068.81 -7.20732 2.70725 0
M  V30 22757 C 4069.54 -7.45864 1.40599 0
M  V30 22758 O 4069.75 -6.17651 0.734225 0
M  V30 22759 C 4070.94 -8.05808 1.51899 0
M  V30 22760 O 4071.33 -8.74358 0.335205 0
M  V30 22761 C 4071.82 -6.83093 1.70294 0
M  V30 22762 C 4071.11 -5.79992 0.836974 0
M  V30 22763 N 4071.16 -4.41769 1.38263 0
M  V30 22764 C 4071.31 -3.38591 0.481702 0
M  V30 22765 O 4071.4 -3.56839 -0.718452 0
M  V30 22766 N 4071.35 -2.1206 1.03569 0
M  V30 22767 C 4071.26 -1.80696 2.36966 0
M  V30 22768 O 4071.31 -0.630473 2.74862 0
M  V30 22769 C 4071.11 -2.94845 3.23898 0
M  V30 22770 C 4071 -2.65253 4.70362 0
M  V30 22771 C 4071.06 -4.19803 2.73435 0
M  V30 22772 H 4068.32 -8.13644 3.0377 0
M  V30 22773 H 4068.05 -6.42695 2.55448 0
M  V30 22774 H 4068.91 -8.12039 0.792769 0
M  V30 22775 H 4071.57 -5.79978 -0.160587 0
M  V30 22776 H 4071.85 -6.51379 2.75643 0
M  V30 22777 H 4072.84 -7.01734 1.34462 0
M  V30 22778 H 4071.01 -8.73674 2.38337 0
M  V30 22779 H 4070.93 -5.04492 3.4095 0
M  V30 22780 H 4071.96 -2.83924 5.1913 0
M  V30 22781 H 4070.23 -3.29824 5.15163 0
M  V30 22782 H 4070.72 -1.59723 4.84449 0
M  V30 22783 H 4071.45 -1.35644 0.399345 0
M  V30 22784 P 4072.88 -8.91 1.65975e-10 0
M  V30 22785 O 4073.1 -10.1726 -0.733694 0
M  V30 22786 O 4073.67 -8.73148 1.23936 0
M  V30 22787 O 4073.13 -7.66872 -0.971405 0
M  V30 22788 C 4072.19 -7.42309 -2.04641 0
M  V30 22789 C 4072.92 -6.86059 -3.24661 0
M  V30 22790 O 4073.13 -5.42847 -3.03646 0
M  V30 22791 C 4074.32 -7.41196 -3.50753 0
M  V30 22792 O 4074.71 -7.27073 -4.86816 0
M  V30 22793 C 4075.2 -6.5273 -2.63741 0
M  V30 22794 C 4074.49 -5.1842 -2.73198 0
M  V30 22795 N 4074.54 -4.38762 -1.4784 0
M  V30 22796 H 4071.7 -8.36803 -2.32493 0
M  V30 22797 H 4071.43 -6.70197 -1.71129 0
M  V30 22798 H 4072.29 -7.03551 -4.13168 0
M  V30 22799 P 4076.26 -7.20834 -5.23717 0
M  V30 22800 O 4076.48 -7.80006 -6.57415 0
M  V30 22801 O 4077.05 -7.79416 -4.13051 0
M  V30 22802 O 4076.51 -5.63315 -5.29344 0
M  V30 22803 C 4075.57 -4.80318 -6.01954 0
M  V30 22804 C 4076.3 -3.64202 -6.65911 0
M  V30 22805 O 4076.51 -2.60736 -5.64823 0
M  V30 22806 C 4077.7 -3.93521 -7.19518 0
M  V30 22807 O 4078.09 -3.02071 -8.21205 0
M  V30 22808 C 4078.58 -3.73047 -5.97036 0
M  V30 22809 C 4077.87 -2.58828 -5.25741 0
M  V30 22810 N 4077.92 -2.68068 -3.77503 0
M  V30 22811 H 4075.08 -5.40394 -6.8003 0
M  V30 22812 H 4074.81 -4.41741 -5.32532 0
M  V30 22813 H 4075.67 -3.26371 -7.47889 0
M  V30 22814 H 4078.33 -1.64007 -5.56746 0
M  V30 22815 H 4078.61 -4.63439 -5.3432 0
M  V30 22816 H 4079.6 -3.44776 -6.25925 0
M  V30 22817 H 4077.77 -4.96707 -7.57347 0
M  V30 22818 P 4079.64 -2.75334 -8.47391 0
M  V30 22819 O 4079.86 -2.44619 -9.90336 0
M  V30 22820 O 4080.43 -3.87776 -7.92294 0
M  V30 22821 O 4079.89 -1.4459 -7.59357 0
M  V30 22822 C 4078.95 -0.347653 -7.69315 0
M  V30 22823 C 4079.68 0.96767 -7.52806 0
M  V30 22824 O 4079.89 1.21055 -6.10208 0
M  V30 22825 C 4081.08 1.04557 -8.13408 0
M  V30 22826 O 4081.47 2.38311 -8.41922 0
M  V30 22827 C 4081.96 0.491279 -7.02284 0
M  V30 22828 C 4081.25 0.996264 -5.77469 0
M  V30 22829 N 4081.3 0.0501916 -4.62973 0
M  V30 22830 C 4081.22 -1.31969 -4.65661 0
M  V30 22831 N 4081.29 -1.86649 -3.48119 0
M  V30 22832 C 4081.44 -0.792089 -2.62406 0
M  V30 22833 C 4081.57 -0.705684 -1.2207 0
M  V30 22834 N 4081.58 -1.76207 -0.413762 0
M  V30 22835 N 4081.69 0.518981 -0.685754 0
M  V30 22836 C 4081.68 1.57595 -1.49174 0
M  V30 22837 N 4081.56 1.62909 -2.80066 0
M  V30 22838 C 4081.44 0.388195 -3.3073 0
M  V30 22839 H 4078.46 -0.374765 -8.67791 0
M  V30 22840 H 4078.19 -0.443613 -6.90476 0
M  V30 22841 H 4079.05 1.75559 -7.96891 0
M  V30 22842 H 4081.71 1.94563 -5.46818 0
M  V30 22843 H 4081.99 -0.608651 -7.04676 0
M  V30 22844 H 4082.98 0.889796 -7.09039 0
M  V30 22845 H 4081.15 0.433128 -9.04664 0
M  V30 22846 H 4081.1 -1.89246 -5.57664 0
M  V30 22847 H 4081.49 -2.71005 -0.804694 0
M  V30 22848 H 4081.67 -1.63189 0.603768 0
M  V30 22849 H 4081.78 2.53475 -0.997614 0
M  V30 22850 P 4083.02 2.75334 -8.47391 0
M  V30 22851 O 4083.24 3.84128 -9.44797 0
M  V30 22852 O 4083.81 1.51947 -8.68712 0
M  V30 22853 O 4083.27 3.29363 -6.99321 0
M  V30 22854 C 4082.33 4.24011 -6.4274 0
M  V30 22855 C 4083.06 5.20775 -5.52155 0
M  V30 22856 O 4083.27 4.56534 -4.22446 0
M  V30 22857 C 4084.46 5.62629 -5.96531 0
M  V30 22858 O 4084.85 6.87667 -5.41053 0
M  V30 22859 C 4085.34 4.52537 -5.39283 0
M  V30 22860 C 4084.63 4.20027 -4.08623 0
M  V30 22861 N 4084.68 2.76189 -3.71603 0
M  V30 22862 H 4081.84 4.797 -7.24003 0
M  V30 22863 H 4081.57 3.69856 -5.84513 0
M  V30 22864 H 4082.43 6.10356 -5.41441 0
M  V30 22865 P 4086.4 7.20834 -5.23717 0
M  V30 22866 O 4086.62 8.66104 -5.38572 0
M  V30 22867 O 4087.19 6.33544 -6.1349 0
M  V30 22868 O 4086.65 6.7751 -3.72168 0
M  V30 22869 C 4085.71 7.20825 -2.7076 0
M  V30 22870 C 4086.44 7.45864 -1.40599 0
M  V30 22871 O 4086.65 6.17651 -0.734225 0
M  V30 22872 C 4087.84 8.05808 -1.51899 0
M  V30 22873 O 4088.23 8.74358 -0.335205 0
M  V30 22874 C 4088.72 6.83093 -1.70294 0
M  V30 22875 C 4088.01 5.79992 -0.836974 0
M  V30 22876 N 4088.06 4.41864 -1.38293 0
M  V30 22877 H 4085.22 8.13644 -3.0377 0
M  V30 22878 H 4084.95 6.42788 -2.55485 0
M  V30 22879 H 4085.81 8.12039 -0.792769 0
M  V30 22880 P 4089.78 8.91 -1.67084e-10 0
M  V30 22881 O 4090 10.1726 0.733694 0
M  V30 22882 O 4090.57 8.73148 -1.23936 0
M  V30 22883 O 4090.03 7.66872 0.971405 0
M  V30 22884 C 4089.09 7.42309 2.04641 0
M  V30 22885 C 4089.82 6.86059 3.24661 0
M  V30 22886 O 4090.03 5.42847 3.03646 0
M  V30 22887 C 4091.22 7.41196 3.50753 0
M  V30 22888 O 4091.61 7.27073 4.86816 0
M  V30 22889 C 4092.1 6.5273 2.63741 0
M  V30 22890 C 4091.39 5.1842 2.73198 0
M  V30 22891 N 4091.44 4.38762 1.4784 0
M  V30 22892 H 4088.6 8.36803 2.32493 0
M  V30 22893 H 4088.33 6.70197 1.71129 0
M  V30 22894 H 4089.19 7.03551 4.13168 0
M  V30 22895 P 4093.16 7.20834 5.23717 0
M  V30 22896 O 4093.38 7.79853 6.57286 0
M  V30 22897 O 4093.95 7.79239 4.12957 0
M  V30 22898 O 4093.41 5.63315 5.29344 0
M  V30 22899 C 4092.47 4.80255 6.01876 0
M  V30 22900 C 4093.2 3.64202 6.65911 0
M  V30 22901 O 4093.41 2.60694 5.64732 0
M  V30 22902 C 4094.6 3.93473 7.1943 0
M  V30 22903 O 4094.99 3.02071 8.21205 0
M  V30 22904 C 4095.48 3.73047 5.97036 0
M  V30 22905 C 4094.77 2.58828 5.25741 0
M  V30 22906 N 4094.82 2.68068 3.77503 0
M  V30 22907 H 4091.98 5.40332 6.79951 0
M  V30 22908 H 4091.71 4.41613 5.32378 0
M  V30 22909 H 4092.57 3.26331 7.47797 0
M  V30 22910 P 4096.54 2.75334 8.47391 0
M  V30 22911 O 4096.76 2.44571 9.90142 0
M  V30 22912 O 4097.33 3.87688 7.92115 0
M  V30 22913 O 4096.79 1.4459 7.59357 0
M  V30 22914 C 4095.85 0.347608 7.69215 0
M  V30 22915 C 4096.58 -0.96767 7.52806 0
M  V30 22916 O 4096.79 -1.21036 6.1011 0
M  V30 22917 C 4097.98 -1.04544 8.13308 0
M  V30 22918 O 4098.37 -2.38311 8.41922 0
M  V30 22919 C 4098.86 -0.491279 7.02284 0
M  V30 22920 C 4098.15 -0.996264 5.77469 0
M  V30 22921 N 4098.2 -0.0501916 4.62973 0
M  V30 22922 H 4095.36 0.374722 8.67691 0
M  V30 22923 H 4095.09 0.443485 6.90277 0
M  V30 22924 H 4095.95 -1.75537 7.96793 0
M  V30 22925 P 4099.92 -2.75334 8.47391 0
M  V30 22926 O 4100.14 -3.84128 9.44797 0
M  V30 22927 O 4100.71 -1.51947 8.68712 0
M  V30 22928 O 4100.17 -3.29363 6.99321 0
M  V30 22929 C 4099.23 -4.24011 6.4274 0
M  V30 22930 C 4099.96 -5.20775 5.52155 0
M  V30 22931 O 4100.17 -4.56534 4.22446 0
M  V30 22932 C 4101.36 -5.62629 5.96531 0
M  V30 22933 O 4101.75 -6.87667 5.41053 0
M  V30 22934 C 4102.24 -4.52537 5.39283 0
M  V30 22935 C 4101.53 -4.20027 4.08623 0
M  V30 22936 N 4101.58 -2.76189 3.71603 0
M  V30 22937 H 4098.74 -4.797 7.24003 0
M  V30 22938 H 4098.47 -3.69856 5.84513 0
M  V30 22939 H 4099.33 -6.10356 5.41441 0
M  V30 22940 P 4103.3 -7.20834 5.23717 0
M  V30 22941 O 4103.52 -8.66104 5.38572 0
M  V30 22942 O 4104.09 -6.33544 6.1349 0
M  V30 22943 O 4103.55 -6.7751 3.72168 0
M  V30 22944 C 4102.61 -7.20825 2.7076 0
M  V30 22945 C 4103.34 -7.45864 1.40599 0
M  V30 22946 O 4103.55 -6.17651 0.734225 0
M  V30 22947 C 4104.74 -8.05808 1.51899 0
M  V30 22948 O 4105.13 -8.74358 0.335205 0
M  V30 22949 C 4105.62 -6.83093 1.70294 0
M  V30 22950 C 4104.91 -5.79992 0.836974 0
M  V30 22951 N 4104.96 -4.41864 1.38293 0
M  V30 22952 C 4104.88 -3.99538 2.69438 0
M  V30 22953 N 4104.96 -2.69909 2.84277 0
M  V30 22954 C 4105.1 -2.21719 1.5408 0
M  V30 22955 C 4105.23 -0.891712 1.06628 0
M  V30 22956 N 4105.35 -0.856846 -0.334985 0
M  V30 22957 C 4105.35 -1.9641 -1.15789 0
M  V30 22958 N 4105.48 -1.72708 -2.46522 0
M  V30 22959 N 4105.22 -3.21165 -0.713741 0
M  V30 22960 C 4105.1 -3.26797 0.639748 0
M  V30 22961 H 4102.12 -8.13644 3.0377 0
M  V30 22962 H 4101.85 -6.42788 2.55485 0
M  V30 22963 H 4102.71 -8.12039 0.792769 0
M  V30 22964 P 4106.68 -8.91 1.68193e-10 0
M  V30 22965 O 4106.9 -10.1726 -0.733694 0
M  V30 22966 O 4107.47 -8.73148 1.23936 0
M  V30 22967 O 4106.93 -7.66872 -0.971405 0
M  V30 22968 C 4105.99 -7.42309 -2.04641 0
M  V30 22969 C 4106.72 -6.86059 -3.24661 0
M  V30 22970 O 4106.93 -5.42847 -3.03646 0
M  V30 22971 C 4108.12 -7.41196 -3.50753 0
M  V30 22972 O 4108.51 -7.27073 -4.86816 0
M  V30 22973 C 4109 -6.5273 -2.63741 0
M  V30 22974 C 4108.29 -5.1842 -2.73198 0
M  V30 22975 N 4108.34 -4.38762 -1.4784 0
M  V30 22976 C 4108.26 -4.81605 -0.168631 0
M  V30 22977 N 4108.34 -3.85454 0.713363 0
M  V30 22978 C 4108.48 -2.6994 -0.0566958 0
M  V30 22979 C 4108.61 -1.34815 0.338502 0
M  V30 22980 O 4108.63 -0.869548 1.47125 0
M  V30 22981 N 4108.73 -0.496304 -0.77465 0
M  V30 22982 C 4108.73 -0.908403 -2.09122 0
M  V30 22983 N 4108.86 0.0517805 -3.00955 0
M  V30 22984 N 4108.6 -2.17875 -2.46519 0
M  V30 22985 C 4108.48 -3.01988 -1.4033 0
M  V30 22986 H 4105.5 -8.36803 -2.32493 0
M  V30 22987 H 4105.23 -6.70197 -1.71129 0
M  V30 22988 H 4106.09 -7.03551 -4.13168 0
M  V30 22989 H 4108.75 -4.59498 -3.54415 0
M  V30 22990 H 4109.03 -6.88898 -1.59848 0
M  V30 22991 H 4110.02 -6.46749 -3.03687 0
M  V30 22992 H 4108.19 -8.46908 -3.20714 0
M  V30 22993 H 4108.14 -5.86405 0.105564 0
M  V30 22994 H 4108.82 0.483664 -0.597855 0
M  V30 22995 H 4108.86 -0.187865 -4.0116 0
M  V30 22996 H 4108.96 1.03585 -2.71726 0
M  V30 22997 P 4110.06 -7.20834 -5.23717 0
M  V30 22998 O 4110.28 -7.79853 -6.57286 0
M  V30 22999 O 4110.85 -7.79239 -4.12957 0
M  V30 23000 O 4110.31 -5.63315 -5.29344 0
M  V30 23001 C 4109.37 -4.80255 -6.01876 0
M  V30 23002 C 4110.1 -3.64202 -6.65911 0
M  V30 23003 O 4110.31 -2.60694 -5.64732 0
M  V30 23004 C 4111.5 -3.93473 -7.1943 0
M  V30 23005 O 4111.89 -3.02071 -8.21205 0
M  V30 23006 C 4112.38 -3.73047 -5.97036 0
M  V30 23007 C 4111.67 -2.58828 -5.25741 0
M  V30 23008 N 4111.72 -2.68068 -3.77503 0
M  V30 23009 H 4108.88 -5.40332 -6.79951 0
M  V30 23010 H 4108.61 -4.41613 -5.32378 0
M  V30 23011 H 4109.47 -3.26331 -7.47797 0
M  V30 23012 P 4113.44 -2.75334 -8.47391 0
M  V30 23013 O 4113.66 -2.44571 -9.90142 0
M  V30 23014 O 4114.23 -3.87688 -7.92115 0
M  V30 23015 O 4113.69 -1.4459 -7.59357 0
M  V30 23016 C 4112.75 -0.347608 -7.69215 0
M  V30 23017 C 4113.48 0.96767 -7.52806 0
M  V30 23018 O 4113.69 1.21036 -6.1011 0
M  V30 23019 C 4114.88 1.04544 -8.13308 0
M  V30 23020 O 4115.27 2.38311 -8.41922 0
M  V30 23021 C 4115.76 0.491279 -7.02284 0
M  V30 23022 C 4115.05 0.996264 -5.77469 0
M  V30 23023 N 4115.1 0.0501916 -4.62973 0
M  V30 23024 C 4115.02 -1.32786 -4.63244 0
M  V30 23025 N 4115.1 -1.86957 -3.44545 0
M  V30 23026 C 4115.24 -0.780241 -2.58481 0
M  V30 23027 C 4115.37 -0.738536 -1.17757 0
M  V30 23028 N 4115.49 0.58337 -0.711393 0
M  V30 23029 C 4115.49 1.70816 -1.51017 0
M  V30 23030 N 4115.62 2.87826 -0.880757 0
M  V30 23031 N 4115.36 1.67126 -2.8339 0
M  V30 23032 C 4115.24 0.401421 -3.30572 0
M  V30 23033 H 4112.26 -0.374722 -8.67691 0
M  V30 23034 H 4111.99 -0.443485 -6.90277 0
M  V30 23035 H 4112.85 1.75537 -7.96793 0
M  V30 23036 P 4116.82 2.75334 -8.47391 0
M  V30 23037 O 4117.04 3.84128 -9.44797 0
M  V30 23038 O 4117.61 1.51947 -8.68712 0
M  V30 23039 O 4117.07 3.29363 -6.99321 0
M  V30 23040 C 4116.13 4.24011 -6.4274 0
M  V30 23041 C 4116.86 5.20775 -5.52155 0
M  V30 23042 O 4117.07 4.56534 -4.22446 0
M  V30 23043 C 4118.26 5.62629 -5.96531 0
M  V30 23044 O 4118.65 6.87667 -5.41053 0
M  V30 23045 C 4119.14 4.52537 -5.39283 0
M  V30 23046 C 4118.43 4.20027 -4.08623 0
M  V30 23047 N 4118.48 2.76189 -3.71603 0
M  V30 23048 H 4115.64 4.797 -7.24003 0
M  V30 23049 H 4115.37 3.69856 -5.84513 0
M  V30 23050 H 4116.23 6.10356 -5.41441 0
M  V30 23051 P 4120.2 7.20834 -5.23717 0
M  V30 23052 O 4120.42 8.66104 -5.38572 0
M  V30 23053 O 4120.99 6.33544 -6.1349 0
M  V30 23054 O 4120.45 6.7751 -3.72168 0
M  V30 23055 C 4119.51 7.20825 -2.7076 0
M  V30 23056 C 4120.24 7.45864 -1.40599 0
M  V30 23057 O 4120.45 6.17651 -0.734225 0
M  V30 23058 C 4121.64 8.05808 -1.51899 0
M  V30 23059 O 4122.03 8.74358 -0.335205 0
M  V30 23060 C 4122.52 6.83093 -1.70294 0
M  V30 23061 C 4121.81 5.79992 -0.836974 0
M  V30 23062 N 4121.86 4.41864 -1.38293 0
M  V30 23063 H 4119.02 8.13644 -3.0377 0
M  V30 23064 H 4118.75 6.42788 -2.55485 0
M  V30 23065 H 4119.61 8.12039 -0.792769 0
M  V30 23066 P 4123.58 8.91 -1.69302e-10 0
M  V30 23067 O 4123.8 10.1726 0.733694 0
M  V30 23068 O 4124.37 8.73148 -1.23936 0
M  V30 23069 O 4123.83 7.66872 0.971405 0
M  V30 23070 C 4122.89 7.42309 2.04641 0
M  V30 23071 C 4123.62 6.86059 3.24661 0
M  V30 23072 O 4123.83 5.42847 3.03646 0
M  V30 23073 C 4125.02 7.41196 3.50753 0
M  V30 23074 O 4125.41 7.27073 4.86816 0
M  V30 23075 C 4125.9 6.5273 2.63741 0
M  V30 23076 C 4125.19 5.1842 2.73198 0
M  V30 23077 N 4125.24 4.38762 1.4784 0
M  V30 23078 H 4122.4 8.36803 2.32493 0
M  V30 23079 H 4122.13 6.70197 1.71129 0
M  V30 23080 H 4122.99 7.03551 4.13168 0
M  V30 23081 P 4126.96 7.20834 5.23717 0
M  V30 23082 O 4127.18 7.79853 6.57286 0
M  V30 23083 O 4127.75 7.79239 4.12957 0
M  V30 23084 O 4127.21 5.63315 5.29344 0
M  V30 23085 C 4126.27 4.80255 6.01876 0
M  V30 23086 C 4127 3.64202 6.65911 0
M  V30 23087 O 4127.21 2.60694 5.64732 0
M  V30 23088 C 4128.4 3.93473 7.1943 0
M  V30 23089 O 4128.79 3.02071 8.21205 0
M  V30 23090 C 4129.28 3.73047 5.97036 0
M  V30 23091 C 4128.57 2.58828 5.25741 0
M  V30 23092 N 4128.62 2.68068 3.77503 0
M  V30 23093 C 4128.54 3.79715 2.96723 0
M  V30 23094 N 4128.62 3.5377 1.68852 0
M  V30 23095 C 4128.76 2.15054 1.63254 0
M  V30 23096 C 4128.89 1.28964 0.518571 0
M  V30 23097 N 4129.01 -0.0538097 0.918425 0
M  V30 23098 C 4129.01 -0.494275 2.22578 0
M  V30 23099 N 4129.14 -1.81086 2.40434 0
M  V30 23100 N 4128.88 0.313645 3.27502 0
M  V30 23101 C 4128.76 1.61829 2.91033 0
M  V30 23102 H 4125.78 5.40332 6.79951 0
M  V30 23103 H 4125.51 4.41613 5.32378 0
M  V30 23104 H 4126.37 3.26331 7.47797 0
M  V30 23105 P 4130.34 2.75334 8.47391 0
M  V30 23106 O 4130.56 2.44571 9.90142 0
M  V30 23107 O 4131.13 3.87688 7.92115 0
M  V30 23108 O 4130.59 1.4459 7.59357 0
M  V30 23109 C 4129.65 0.347608 7.69215 0
M  V30 23110 C 4130.38 -0.96767 7.52806 0
M  V30 23111 O 4130.59 -1.21036 6.1011 0
M  V30 23112 C 4131.78 -1.04544 8.13308 0
M  V30 23113 O 4132.17 -2.38311 8.41922 0
M  V30 23114 C 4132.66 -0.491279 7.02284 0
M  V30 23115 C 4131.95 -0.996264 5.77469 0
M  V30 23116 N 4132 -0.0501916 4.62973 0
M  V30 23117 H 4129.16 0.374722 8.67691 0
M  V30 23118 H 4128.89 0.443485 6.90277 0
M  V30 23119 H 4129.75 -1.75537 7.96793 0
M  V30 23120 P 4133.72 -2.75334 8.47391 0
M  V30 23121 O 4133.94 -3.84166 9.4489 0
M  V30 23122 O 4134.51 -1.51964 8.6881 0
M  V30 23123 O 4133.97 -3.29363 6.99321 0
M  V30 23124 C 4133.03 -4.23956 6.42656 0
M  V30 23125 C 4133.76 -5.20775 5.52155 0
M  V30 23126 O 4133.97 -4.56534 4.22446 0
M  V30 23127 C 4135.16 -5.62629 5.96531 0
M  V30 23128 O 4135.55 -6.87667 5.41053 0
M  V30 23129 C 4136.04 -4.52537 5.39283 0
M  V30 23130 C 4135.33 -4.20027 4.08623 0
M  V30 23131 N 4135.38 -2.7613 3.71522 0
M  V30 23132 C 4135.53 -2.45612 2.37989 0
M  V30 23133 O 4135.62 -3.30919 1.51621 0
M  V30 23134 N 4135.57 -1.10684 2.08435 0
M  V30 23135 C 4135.48 -0.0690084 2.9792 0
M  V30 23136 O 4135.53 1.10553 2.59426 0
M  V30 23137 C 4135.33 -0.481522 4.35345 0
M  V30 23138 C 4135.22 0.618778 5.36443 0
M  V30 23139 C 4135.28 -1.78906 4.67968 0
M  V30 23140 H 4132.54 -4.797 7.24003 0
M  V30 23141 H 4132.27 -3.69802 5.84429 0
M  V30 23142 H 4133.13 -6.10356 5.41441 0
M  V30 23143 H 4135.79 -4.78651 3.27911 0
M  V30 23144 H 4136.07 -3.64957 6.05871 0
M  V30 23145 H 4137.06 -4.8868 5.2125 0
M  V30 23146 H 4135.23 -5.66726 7.06352 0
M  V30 23147 H 4135.15 -2.07737 5.72367 0
M  V30 23148 H 4136.18 0.754375 5.86871 0
M  V30 23149 H 4134.45 0.359721 6.10641 0
M  V30 23150 H 4134.94 1.55533 4.8581 0
M  V30 23151 H 4135.67 -0.862651 1.12037 0
M  V30 23152 P 4137.1 -7.20834 5.23717 0
M  V30 23153 O 4137.32 -8.66104 5.38572 0
M  V30 23154 O 4137.89 -6.33544 6.1349 0
M  V30 23155 O 4137.35 -6.7751 3.72168 0
M  V30 23156 C 4136.41 -7.20825 2.7076 0
M  V30 23157 C 4137.14 -7.45864 1.40599 0
M  V30 23158 O 4137.35 -6.17651 0.734225 0
M  V30 23159 C 4138.54 -8.05808 1.51899 0
M  V30 23160 O 4138.93 -8.74358 0.335205 0
M  V30 23161 C 4139.42 -6.83093 1.70294 0
M  V30 23162 C 4138.71 -5.79992 0.836974 0
M  V30 23163 N 4138.76 -4.41864 1.38293 0
M  V30 23164 H 4135.92 -8.13644 3.0377 0
M  V30 23165 H 4135.65 -6.42788 2.55485 0
M  V30 23166 H 4136.51 -8.12039 0.792769 0
M  V30 23167 P 4140.48 -8.91 1.70411e-10 0
M  V30 23168 O 4140.7 -10.1726 -0.733694 0
M  V30 23169 O 4141.27 -8.73148 1.23936 0
M  V30 23170 O 4140.73 -7.66872 -0.971405 0
M  V30 23171 C 4139.79 -7.42309 -2.04641 0
M  V30 23172 C 4140.52 -6.86059 -3.24661 0
M  V30 23173 O 4140.73 -5.42847 -3.03646 0
M  V30 23174 C 4141.92 -7.41196 -3.50753 0
M  V30 23175 O 4142.31 -7.27073 -4.86816 0
M  V30 23176 C 4142.8 -6.5273 -2.63741 0
M  V30 23177 C 4142.09 -5.1842 -2.73198 0
M  V30 23178 N 4142.14 -4.38762 -1.4784 0
M  V30 23179 H 4139.3 -8.36803 -2.32493 0
M  V30 23180 H 4139.03 -6.70197 -1.71129 0
M  V30 23181 H 4139.89 -7.03551 -4.13168 0
M  V30 23182 P 4143.86 -7.20834 -5.23717 0
M  V30 23183 O 4144.08 -7.80006 -6.57415 0
M  V30 23184 O 4144.65 -7.79416 -4.13051 0
M  V30 23185 O 4144.11 -5.63315 -5.29344 0
M  V30 23186 C 4143.17 -4.80318 -6.01954 0
M  V30 23187 C 4143.9 -3.64202 -6.65911 0
M  V30 23188 O 4144.11 -2.60736 -5.64823 0
M  V30 23189 C 4145.3 -3.93521 -7.19518 0
M  V30 23190 O 4145.69 -3.02071 -8.21205 0
M  V30 23191 C 4146.18 -3.73047 -5.97036 0
M  V30 23192 C 4145.47 -2.58828 -5.25741 0
M  V30 23193 N 4145.52 -2.68068 -3.77503 0
M  V30 23194 H 4142.68 -5.40394 -6.8003 0
M  V30 23195 H 4142.41 -4.41741 -5.32532 0
M  V30 23196 H 4143.27 -3.26371 -7.47889 0
M  V30 23197 H 4145.93 -1.64007 -5.56746 0
M  V30 23198 H 4146.21 -4.63439 -5.3432 0
M  V30 23199 H 4147.2 -3.44776 -6.25925 0
M  V30 23200 H 4145.37 -4.96707 -7.57347 0
M  V30 23201 P 4147.24 -2.75334 -8.47391 0
M  V30 23202 O 4147.46 -2.44571 -9.90142 0
M  V30 23203 O 4148.03 -3.87688 -7.92115 0
M  V30 23204 O 4147.49 -1.4459 -7.59357 0
M  V30 23205 C 4146.55 -0.347608 -7.69215 0
M  V30 23206 C 4147.28 0.96767 -7.52806 0
M  V30 23207 O 4147.49 1.21036 -6.1011 0
M  V30 23208 C 4148.68 1.04544 -8.13308 0
M  V30 23209 O 4149.07 2.38311 -8.41922 0
M  V30 23210 C 4149.56 0.491279 -7.02284 0
M  V30 23211 C 4148.85 0.996264 -5.77469 0
M  V30 23212 N 4148.9 0.0501916 -4.62973 0
M  V30 23213 H 4146.06 -0.374722 -8.67691 0
M  V30 23214 H 4145.79 -0.443485 -6.90277 0
M  V30 23215 H 4146.65 1.75537 -7.96793 0
M  V30 23216 P 4150.62 2.75334 -8.47391 0
M  V30 23217 O 4150.84 3.84204 -9.44982 0
M  V30 23218 O 4151.41 1.51982 -8.68909 0
M  V30 23219 O 4150.87 3.29363 -6.99321 0
M  V30 23220 C 4149.93 4.24066 -6.42823 0
M  V30 23221 C 4150.66 5.20775 -5.52155 0
M  V30 23222 O 4150.87 4.56607 -4.22514 0
M  V30 23223 C 4152.06 5.62697 -5.96604 0
M  V30 23224 O 4152.45 6.87667 -5.41053 0
M  V30 23225 C 4152.94 4.52537 -5.39283 0
M  V30 23226 C 4152.23 4.20027 -4.08623 0
M  V30 23227 N 4152.28 2.76189 -3.71603 0
M  V30 23228 C 4152.2 1.66944 -4.54297 0
M  V30 23229 N 4152.27 0.536169 -3.91344 0
M  V30 23230 C 4152.42 0.901569 -2.58849 0
M  V30 23231 C 4152.55 0.146599 -1.40236 0
M  V30 23232 N 4152.56 -1.18234 -1.37046 0
M  V30 23233 N 4152.67 0.822941 -0.249738 0
M  V30 23234 C 4152.66 2.15179 -0.280525 0
M  V30 23235 N 4152.54 2.96414 -1.30822 0
M  V30 23236 C 4152.42 2.25804 -2.44748 0
M  V30 23237 H 4149.44 4.79756 -7.24086 0
M  V30 23238 H 4149.17 3.69963 -5.84682 0
M  V30 23239 H 4150.03 6.10431 -5.41508 0
M  V30 23240 H 4152.69 4.78816 -3.28024 0
M  V30 23241 H 4152.97 3.64957 -6.05871 0
M  V30 23242 H 4153.96 4.88748 -5.21323 0
M  V30 23243 H 4152.13 5.66789 -7.0643 0
M  V30 23244 H 4152.08 1.74684 -5.62396 0
M  V30 23245 H 4152.47 -1.71949 -2.24394 0
M  V30 23246 H 4152.65 -1.67511 -0.470742 0
M  V30 23247 H 4152.76 2.63704 0.6828 0
M  V30 23248 P 4154 7.20834 -5.23717 0
M  V30 23249 O 4154.22 8.66104 -5.38572 0
M  V30 23250 O 4154.79 6.33544 -6.1349 0
M  V30 23251 O 4154.25 6.7751 -3.72168 0
M  V30 23252 C 4153.31 7.20825 -2.7076 0
M  V30 23253 C 4154.04 7.45864 -1.40599 0
M  V30 23254 O 4154.25 6.17651 -0.734225 0
M  V30 23255 C 4155.44 8.05808 -1.51899 0
M  V30 23256 O 4155.83 8.74358 -0.335205 0
M  V30 23257 C 4156.32 6.83093 -1.70294 0
M  V30 23258 C 4155.61 5.79992 -0.836974 0
M  V30 23259 N 4155.66 4.41864 -1.38293 0
M  V30 23260 H 4152.82 8.13644 -3.0377 0
M  V30 23261 H 4152.55 6.42788 -2.55485 0
M  V30 23262 H 4153.41 8.12039 -0.792769 0
M  V30 23263 P 4157.38 8.91 -1.7152e-10 0
M  V30 23264 O 4157.6 10.1746 0.733838 0
M  V30 23265 O 4158.17 8.73346 -1.23964 0
M  V30 23266 O 4157.63 7.66872 0.971405 0
M  V30 23267 C 4156.69 7.42405 2.04668 0
M  V30 23268 C 4157.42 6.86059 3.24661 0
M  V30 23269 O 4157.63 5.42934 3.03695 0
M  V30 23270 C 4158.82 7.41287 3.50796 0
M  V30 23271 O 4159.21 7.27073 4.86816 0
M  V30 23272 C 4159.7 6.5273 2.63741 0
M  V30 23273 C 4158.99 5.1842 2.73198 0
M  V30 23274 N 4159.04 4.38762 1.4784 0
M  V30 23275 C 4158.96 4.83651 0.183876 0
M  V30 23276 N 4159.03 3.88759 -0.699393 0
M  V30 23277 C 4159.18 2.7404 0.0575568 0
M  V30 23278 C 4159.31 1.37902 -0.293928 0
M  V30 23279 N 4159.32 0.938021 -1.54797 0
M  V30 23280 N 4159.43 0.491817 0.70549 0
M  V30 23281 C 4159.42 0.931735 1.95979 0
M  V30 23282 N 4159.3 2.16017 2.41481 0
M  V30 23283 C 4159.18 3.02547 1.39121 0
M  V30 23284 H 4156.2 8.36899 2.3252 0
M  V30 23285 H 4155.93 6.70391 1.71179 0
M  V30 23286 H 4156.79 7.03638 4.13219 0
M  V30 23287 H 4159.45 4.59931 3.54016 0
M  V30 23288 H 4159.73 6.88995 1.59871 0
M  V30 23289 H 4160.72 6.4684 3.0373 0
M  V30 23290 H 4158.89 8.47002 3.20749 0
M  V30 23291 H 4158.84 5.8885 -0.0765548 0
M  V30 23292 H 4159.23 1.60276 -2.32875 0
M  V30 23293 H 4159.41 -0.0699355 -1.73859 0
M  V30 23294 H 4159.52 0.165507 2.71897 0
M  V30 23295 P 4160.76 7.20834 5.23717 0
M  V30 23296 O 4160.98 7.79853 6.57286 0
M  V30 23297 O 4161.55 7.79239 4.12957 0
M  V30 23298 O 4161.01 5.63315 5.29344 0
M  V30 23299 C 4160.07 4.80255 6.01876 0
M  V30 23300 C 4160.8 3.64202 6.65911 0
M  V30 23301 O 4161.01 2.60694 5.64732 0
M  V30 23302 C 4162.2 3.93473 7.1943 0
M  V30 23303 O 4162.59 3.02071 8.21205 0
M  V30 23304 C 4163.08 3.73047 5.97036 0
M  V30 23305 C 4162.37 2.58828 5.25741 0
M  V30 23306 N 4162.42 2.68068 3.77503 0
M  V30 23307 H 4159.58 5.40332 6.79951 0
M  V30 23308 H 4159.31 4.41613 5.32378 0
M  V30 23309 H 4160.17 3.26331 7.47797 0
M  V30 23310 P 4164.14 2.75334 8.47391 0
M  V30 23311 O 4164.36 2.44571 9.90142 0
M  V30 23312 O 4164.93 3.87688 7.92115 0
M  V30 23313 O 4164.39 1.4459 7.59357 0
M  V30 23314 C 4163.45 0.347608 7.69215 0
M  V30 23315 C 4164.18 -0.96767 7.52806 0
M  V30 23316 O 4164.39 -1.21036 6.1011 0
M  V30 23317 C 4165.58 -1.04544 8.13308 0
M  V30 23318 O 4165.97 -2.38311 8.41922 0
M  V30 23319 C 4166.46 -0.491279 7.02284 0
M  V30 23320 C 4165.75 -0.996264 5.77469 0
M  V30 23321 N 4165.8 -0.0501916 4.62973 0
M  V30 23322 H 4162.96 0.374722 8.67691 0
M  V30 23323 H 4162.69 0.443485 6.90277 0
M  V30 23324 H 4163.55 -1.75537 7.96793 0
M  V30 23325 P 4167.52 -2.75334 8.47391 0
M  V30 23326 O 4167.74 -3.84128 9.44797 0
M  V30 23327 O 4168.31 -1.51947 8.68712 0
M  V30 23328 O 4167.77 -3.29363 6.99321 0
M  V30 23329 C 4166.83 -4.24011 6.4274 0
M  V30 23330 C 4167.56 -5.20775 5.52155 0
M  V30 23331 O 4167.77 -4.56534 4.22446 0
M  V30 23332 C 4168.96 -5.62629 5.96531 0
M  V30 23333 O 4169.35 -6.87667 5.41053 0
M  V30 23334 C 4169.84 -4.52537 5.39283 0
M  V30 23335 C 4169.13 -4.20027 4.08623 0
M  V30 23336 N 4169.18 -2.76189 3.71603 0
M  V30 23337 H 4166.34 -4.797 7.24003 0
M  V30 23338 H 4166.07 -3.69856 5.84513 0
M  V30 23339 H 4166.93 -6.10356 5.41441 0
M  V30 23340 P 4170.9 -7.20834 5.23717 0
M  V30 23341 O 4171.12 -8.66104 5.38572 0
M  V30 23342 O 4171.69 -6.33544 6.1349 0
M  V30 23343 O 4171.15 -6.7751 3.72168 0
M  V30 23344 C 4170.21 -7.20825 2.7076 0
M  V30 23345 C 4170.94 -7.45864 1.40599 0
M  V30 23346 O 4171.15 -6.17651 0.734225 0
M  V30 23347 C 4172.34 -8.05808 1.51899 0
M  V30 23348 O 4172.73 -8.74358 0.335205 0
M  V30 23349 C 4173.22 -6.83093 1.70294 0
M  V30 23350 C 4172.51 -5.79992 0.836974 0
M  V30 23351 N 4172.56 -4.41864 1.38293 0
M  V30 23352 H 4169.72 -8.13644 3.0377 0
M  V30 23353 H 4169.45 -6.42788 2.55485 0
M  V30 23354 H 4170.31 -8.12039 0.792769 0
M  V30 23355 P 4174.28 -8.91 1.72629e-10 0
M  V30 23356 O 4174.5 -10.1726 -0.733694 0
M  V30 23357 O 4175.07 -8.73148 1.23936 0
M  V30 23358 O 4174.53 -7.66872 -0.971405 0
M  V30 23359 C 4173.59 -7.42309 -2.04641 0
M  V30 23360 C 4174.32 -6.86059 -3.24661 0
M  V30 23361 O 4174.53 -5.42847 -3.03646 0
M  V30 23362 C 4175.72 -7.41196 -3.50753 0
M  V30 23363 O 4176.11 -7.27073 -4.86816 0
M  V30 23364 C 4176.6 -6.5273 -2.63741 0
M  V30 23365 C 4175.89 -5.1842 -2.73198 0
M  V30 23366 N 4175.94 -4.38762 -1.4784 0
M  V30 23367 H 4173.1 -8.36803 -2.32493 0
M  V30 23368 H 4172.83 -6.70197 -1.71129 0
M  V30 23369 H 4173.69 -7.03551 -4.13168 0
M  V30 23370 P 4177.66 -7.20834 -5.23717 0
M  V30 23371 O 4177.88 -7.79853 -6.57286 0
M  V30 23372 O 4178.45 -7.79239 -4.12957 0
M  V30 23373 O 4177.91 -5.63315 -5.29344 0
M  V30 23374 C 4176.97 -4.80255 -6.01876 0
M  V30 23375 C 4177.7 -3.64202 -6.65911 0
M  V30 23376 O 4177.91 -2.60694 -5.64732 0
M  V30 23377 C 4179.1 -3.93473 -7.1943 0
M  V30 23378 O 4179.49 -3.02071 -8.21205 0
M  V30 23379 C 4179.98 -3.73047 -5.97036 0
M  V30 23380 C 4179.27 -2.58828 -5.25741 0
M  V30 23381 N 4179.32 -2.68068 -3.77503 0
M  V30 23382 H 4176.48 -5.40332 -6.79951 0
M  V30 23383 H 4176.21 -4.41613 -5.32378 0
M  V30 23384 H 4177.07 -3.26331 -7.47797 0
M  V30 23385 P 4181.04 -2.75334 -8.47391 0
M  V30 23386 O 4181.26 -2.44571 -9.90142 0
M  V30 23387 O 4181.83 -3.87688 -7.92115 0
M  V30 23388 O 4181.29 -1.4459 -7.59357 0
M  V30 23389 C 4180.35 -0.347608 -7.69215 0
M  V30 23390 C 4181.08 0.96767 -7.52806 0
M  V30 23391 O 4181.29 1.21036 -6.1011 0
M  V30 23392 C 4182.48 1.04544 -8.13308 0
M  V30 23393 O 4182.87 2.38311 -8.41922 0
M  V30 23394 C 4183.36 0.491279 -7.02284 0
M  V30 23395 C 4182.65 0.996264 -5.77469 0
M  V30 23396 N 4182.7 0.0501916 -4.62973 0
M  V30 23397 H 4179.86 -0.374722 -8.67691 0
M  V30 23398 H 4179.59 -0.443485 -6.90277 0
M  V30 23399 H 4180.45 1.75537 -7.96793 0
M  V30 23400 P 4184.42 2.75334 -8.47391 0
M  V30 23401 O 4184.64 3.84128 -9.44797 0
M  V30 23402 O 4185.21 1.51947 -8.68712 0
M  V30 23403 O 4184.67 3.29363 -6.99321 0
M  V30 23404 C 4183.73 4.24011 -6.4274 0
M  V30 23405 C 4184.46 5.20775 -5.52155 0
M  V30 23406 O 4184.67 4.56534 -4.22446 0
M  V30 23407 C 4185.86 5.62629 -5.96531 0
M  V30 23408 O 4186.25 6.87667 -5.41053 0
M  V30 23409 C 4186.74 4.52537 -5.39283 0
M  V30 23410 C 4186.03 4.20027 -4.08623 0
M  V30 23411 N 4186.08 2.76189 -3.71603 0
M  V30 23412 H 4183.24 4.797 -7.24003 0
M  V30 23413 H 4182.97 3.69856 -5.84513 0
M  V30 23414 H 4183.83 6.10356 -5.41441 0
M  V30 23415 P 4187.8 7.20834 -5.23717 0
M  V30 23416 O 4188.02 8.66104 -5.38572 0
M  V30 23417 O 4188.59 6.33544 -6.1349 0
M  V30 23418 O 4188.05 6.7751 -3.72168 0
M  V30 23419 C 4187.11 7.20825 -2.7076 0
M  V30 23420 C 4187.84 7.45864 -1.40599 0
M  V30 23421 O 4188.05 6.17651 -0.734225 0
M  V30 23422 C 4189.24 8.05808 -1.51899 0
M  V30 23423 O 4189.63 8.74358 -0.335205 0
M  V30 23424 C 4190.12 6.83093 -1.70294 0
M  V30 23425 C 4189.41 5.79992 -0.836974 0
M  V30 23426 N 4189.46 4.41864 -1.38293 0
M  V30 23427 H 4186.62 8.13644 -3.0377 0
M  V30 23428 H 4186.35 6.42788 -2.55485 0
M  V30 23429 H 4187.21 8.12039 -0.792769 0
M  V30 23430 P 4191.18 8.91 -1.73738e-10 0
M  V30 23431 O 4191.4 10.1726 0.733694 0
M  V30 23432 O 4191.97 8.73148 -1.23936 0
M  V30 23433 O 4191.43 7.66872 0.971405 0
M  V30 23434 C 4190.49 7.42309 2.04641 0
M  V30 23435 C 4191.22 6.86059 3.24661 0
M  V30 23436 O 4191.43 5.42847 3.03646 0
M  V30 23437 C 4192.62 7.41196 3.50753 0
M  V30 23438 O 4193.01 7.27073 4.86816 0
M  V30 23439 C 4193.5 6.5273 2.63741 0
M  V30 23440 C 4192.79 5.1842 2.73198 0
M  V30 23441 N 4192.84 4.38762 1.4784 0
M  V30 23442 H 4190 8.36803 2.32493 0
M  V30 23443 H 4189.73 6.70197 1.71129 0
M  V30 23444 H 4190.59 7.03551 4.13168 0
M  V30 23445 P 4194.56 7.20834 5.23717 0
M  V30 23446 O 4194.78 7.79853 6.57286 0
M  V30 23447 O 4195.35 7.79239 4.12957 0
M  V30 23448 O 4194.81 5.63315 5.29344 0
M  V30 23449 C 4193.87 4.80255 6.01876 0
M  V30 23450 C 4194.6 3.64202 6.65911 0
M  V30 23451 O 4194.81 2.60694 5.64732 0
M  V30 23452 C 4196 3.93473 7.1943 0
M  V30 23453 O 4196.39 3.02071 8.21205 0
M  V30 23454 C 4196.88 3.73047 5.97036 0
M  V30 23455 C 4196.17 2.58828 5.25741 0
M  V30 23456 N 4196.22 2.68068 3.77503 0
M  V30 23457 H 4193.38 5.40332 6.79951 0
M  V30 23458 H 4193.11 4.41613 5.32378 0
M  V30 23459 H 4193.97 3.26331 7.47797 0
M  V30 23460 P 4197.94 2.75334 8.47391 0
M  V30 23461 O 4198.16 2.44571 9.90142 0
M  V30 23462 O 4198.73 3.87688 7.92115 0
M  V30 23463 O 4198.19 1.4459 7.59357 0
M  V30 23464 C 4197.25 0.347608 7.69215 0
M  V30 23465 C 4197.98 -0.96767 7.52806 0
M  V30 23466 O 4198.19 -1.21036 6.1011 0
M  V30 23467 C 4199.38 -1.04544 8.13308 0
M  V30 23468 O 4199.77 -2.38311 8.41922 0
M  V30 23469 C 4200.26 -0.491279 7.02284 0
M  V30 23470 C 4199.55 -0.996264 5.77469 0
M  V30 23471 N 4199.6 -0.0501916 4.62973 0
M  V30 23472 H 4196.76 0.374722 8.67691 0
M  V30 23473 H 4196.49 0.443485 6.90277 0
M  V30 23474 H 4197.35 -1.75537 7.96793 0
M  V30 23475 P 4201.32 -2.75334 8.47391 0
M  V30 23476 O 4201.54 -3.84166 9.4489 0
M  V30 23477 O 4202.11 -1.51964 8.6881 0
M  V30 23478 O 4201.57 -3.29363 6.99321 0
M  V30 23479 C 4200.63 -4.23956 6.42656 0
M  V30 23480 C 4201.36 -5.20775 5.52155 0
M  V30 23481 O 4201.57 -4.56534 4.22446 0
M  V30 23482 C 4202.76 -5.62629 5.96531 0
M  V30 23483 O 4203.15 -6.87667 5.41053 0
M  V30 23484 C 4203.64 -4.52537 5.39283 0
M  V30 23485 C 4202.93 -4.20027 4.08623 0
M  V30 23486 N 4202.98 -2.7613 3.71522 0
M  V30 23487 C 4203.13 -2.45612 2.37989 0
M  V30 23488 O 4203.22 -3.30919 1.51621 0
M  V30 23489 N 4203.17 -1.10684 2.08435 0
M  V30 23490 C 4203.08 -0.0690084 2.9792 0
M  V30 23491 O 4203.13 1.10553 2.59426 0
M  V30 23492 C 4202.93 -0.481522 4.35345 0
M  V30 23493 C 4202.82 0.618778 5.36443 0
M  V30 23494 C 4202.88 -1.78906 4.67968 0
M  V30 23495 H 4200.14 -4.797 7.24003 0
M  V30 23496 H 4199.87 -3.69802 5.84429 0
M  V30 23497 H 4200.73 -6.10356 5.41441 0
M  V30 23498 H 4203.39 -4.78651 3.27911 0
M  V30 23499 H 4203.67 -3.64957 6.05871 0
M  V30 23500 H 4204.66 -4.8868 5.2125 0
M  V30 23501 H 4202.83 -5.66726 7.06352 0
M  V30 23502 H 4202.75 -2.07737 5.72367 0
M  V30 23503 H 4203.78 0.754375 5.86871 0
M  V30 23504 H 4202.05 0.359721 6.10641 0
M  V30 23505 H 4202.54 1.55533 4.8581 0
M  V30 23506 H 4203.27 -0.862651 1.12037 0
M  V30 23507 P 4204.7 -7.20834 5.23717 0
M  V30 23508 O 4204.92 -8.66104 5.38572 0
M  V30 23509 O 4205.49 -6.33544 6.1349 0
M  V30 23510 O 4204.95 -6.7751 3.72168 0
M  V30 23511 C 4204.01 -7.20825 2.7076 0
M  V30 23512 C 4204.74 -7.45864 1.40599 0
M  V30 23513 O 4204.95 -6.17651 0.734225 0
M  V30 23514 C 4206.14 -8.05808 1.51899 0
M  V30 23515 O 4206.53 -8.74358 0.335205 0
M  V30 23516 C 4207.02 -6.83093 1.70294 0
M  V30 23517 C 4206.31 -5.79992 0.836974 0
M  V30 23518 N 4206.36 -4.41864 1.38293 0
M  V30 23519 H 4203.52 -8.13644 3.0377 0
M  V30 23520 H 4203.25 -6.42788 2.55485 0
M  V30 23521 H 4204.11 -8.12039 0.792769 0
M  V30 23522 P 4208.08 -8.91 1.74847e-10 0
M  V30 23523 O 4208.3 -10.1726 -0.733694 0
M  V30 23524 O 4208.87 -8.73148 1.23936 0
M  V30 23525 O 4208.33 -7.66872 -0.971405 0
M  V30 23526 C 4207.39 -7.42309 -2.04641 0
M  V30 23527 C 4208.12 -6.86059 -3.24661 0
M  V30 23528 O 4208.33 -5.42847 -3.03646 0
M  V30 23529 C 4209.52 -7.41196 -3.50753 0
M  V30 23530 O 4209.91 -7.27073 -4.86816 0
M  V30 23531 C 4210.4 -6.5273 -2.63741 0
M  V30 23532 C 4209.69 -5.1842 -2.73198 0
M  V30 23533 N 4209.74 -4.38762 -1.4784 0
M  V30 23534 C 4209.66 -4.81605 -0.168631 0
M  V30 23535 N 4209.74 -3.85454 0.713363 0
M  V30 23536 C 4209.88 -2.6994 -0.0566958 0
M  V30 23537 C 4210.01 -1.34815 0.338502 0
M  V30 23538 O 4210.03 -0.869548 1.47125 0
M  V30 23539 N 4210.13 -0.496304 -0.77465 0
M  V30 23540 C 4210.13 -0.908403 -2.09122 0
M  V30 23541 N 4210.26 0.0517805 -3.00955 0
M  V30 23542 N 4210 -2.17875 -2.46519 0
M  V30 23543 C 4209.88 -3.01988 -1.4033 0
M  V30 23544 H 4206.9 -8.36803 -2.32493 0
M  V30 23545 H 4206.63 -6.70197 -1.71129 0
M  V30 23546 H 4207.49 -7.03551 -4.13168 0
M  V30 23547 H 4210.15 -4.59498 -3.54415 0
M  V30 23548 H 4210.43 -6.88898 -1.59848 0
M  V30 23549 H 4211.42 -6.46749 -3.03687 0
M  V30 23550 H 4209.59 -8.46908 -3.20714 0
M  V30 23551 H 4209.54 -5.86405 0.105564 0
M  V30 23552 H 4210.22 0.483664 -0.597855 0
M  V30 23553 H 4210.26 -0.187865 -4.0116 0
M  V30 23554 H 4210.36 1.03585 -2.71726 0
M  V30 23555 P 4211.46 -7.20834 -5.23717 0
M  V30 23556 O 4211.68 -7.79853 -6.57286 0
M  V30 23557 O 4212.25 -7.79239 -4.12957 0
M  V30 23558 O 4211.71 -5.63315 -5.29344 0
M  V30 23559 C 4210.77 -4.80255 -6.01876 0
M  V30 23560 C 4211.5 -3.64202 -6.65911 0
M  V30 23561 O 4211.71 -2.60694 -5.64732 0
M  V30 23562 C 4212.9 -3.93473 -7.1943 0
M  V30 23563 O 4213.29 -3.02071 -8.21205 0
M  V30 23564 C 4213.78 -3.73047 -5.97036 0
M  V30 23565 C 4213.07 -2.58828 -5.25741 0
M  V30 23566 N 4213.12 -2.68068 -3.77503 0
M  V30 23567 H 4210.28 -5.40332 -6.79951 0
M  V30 23568 H 4210.01 -4.41613 -5.32378 0
M  V30 23569 H 4210.87 -3.26331 -7.47797 0
M  V30 23570 P 4214.84 -2.75334 -8.47391 0
M  V30 23571 O 4215.06 -2.44571 -9.90142 0
M  V30 23572 O 4215.63 -3.87688 -7.92115 0
M  V30 23573 O 4215.09 -1.4459 -7.59357 0
M  V30 23574 C 4214.15 -0.347608 -7.69215 0
M  V30 23575 C 4214.88 0.96767 -7.52806 0
M  V30 23576 O 4215.09 1.21036 -6.1011 0
M  V30 23577 C 4216.28 1.04544 -8.13308 0
M  V30 23578 O 4216.67 2.38311 -8.41922 0
M  V30 23579 C 4217.16 0.491279 -7.02284 0
M  V30 23580 C 4216.45 0.996264 -5.77469 0
M  V30 23581 N 4216.5 0.0501916 -4.62973 0
M  V30 23582 H 4213.66 -0.374722 -8.67691 0
M  V30 23583 H 4213.39 -0.443485 -6.90277 0
M  V30 23584 H 4214.25 1.75537 -7.96793 0
M  V30 23585 P 4218.22 2.75334 -8.47391 0
M  V30 23586 O 4218.44 3.84128 -9.44797 0
M  V30 23587 O 4219.01 1.51947 -8.68712 0
M  V30 23588 O 4218.47 3.29363 -6.99321 0
M  V30 23589 C 4217.53 4.24011 -6.4274 0
M  V30 23590 C 4218.26 5.20775 -5.52155 0
M  V30 23591 O 4218.47 4.56534 -4.22446 0
M  V30 23592 C 4219.66 5.62629 -5.96531 0
M  V30 23593 O 4220.05 6.87667 -5.41053 0
M  V30 23594 C 4220.54 4.52537 -5.39283 0
M  V30 23595 C 4219.83 4.20027 -4.08623 0
M  V30 23596 N 4219.88 2.76189 -3.71603 0
M  V30 23597 H 4217.04 4.797 -7.24003 0
M  V30 23598 H 4216.77 3.69856 -5.84513 0
M  V30 23599 H 4217.63 6.10356 -5.41441 0
M  V30 23600 P 4221.6 7.20834 -5.23717 0
M  V30 23601 O 4221.82 8.66104 -5.38572 0
M  V30 23602 O 4222.39 6.33544 -6.1349 0
M  V30 23603 O 4221.85 6.7751 -3.72168 0
M  V30 23604 C 4220.91 7.20825 -2.7076 0
M  V30 23605 C 4221.64 7.45864 -1.40599 0
M  V30 23606 O 4221.85 6.17651 -0.734225 0
M  V30 23607 C 4223.04 8.05808 -1.51899 0
M  V30 23608 O 4223.43 8.74358 -0.335205 0
M  V30 23609 C 4223.92 6.83093 -1.70294 0
M  V30 23610 C 4223.21 5.79992 -0.836974 0
M  V30 23611 N 4223.26 4.41864 -1.38293 0
M  V30 23612 H 4220.42 8.13644 -3.0377 0
M  V30 23613 H 4220.15 6.42788 -2.55485 0
M  V30 23614 H 4221.01 8.12039 -0.792769 0
M  V30 23615 P 4224.98 8.91 -1.75956e-10 0
M  V30 23616 O 4225.2 10.1726 0.733694 0
M  V30 23617 O 4225.77 8.73148 -1.23936 0
M  V30 23618 O 4225.23 7.66872 0.971405 0
M  V30 23619 C 4224.29 7.42309 2.04641 0
M  V30 23620 C 4225.02 6.86059 3.24661 0
M  V30 23621 O 4225.23 5.42847 3.03646 0
M  V30 23622 C 4226.42 7.41196 3.50753 0
M  V30 23623 O 4226.81 7.27073 4.86816 0
M  V30 23624 C 4227.3 6.5273 2.63741 0
M  V30 23625 C 4226.59 5.1842 2.73198 0
M  V30 23626 N 4226.64 4.38762 1.4784 0
M  V30 23627 H 4223.8 8.36803 2.32493 0
M  V30 23628 H 4223.53 6.70197 1.71129 0
M  V30 23629 H 4224.39 7.03551 4.13168 0
M  V30 23630 P 4228.35 7.20834 5.23717 0
M  V30 23631 O 4228.57 7.79853 6.57286 0
M  V30 23632 O 4229.14 7.79239 4.12957 0
M  V30 23633 O 4228.6 5.63315 5.29344 0
M  V30 23634 C 4227.66 4.80255 6.01876 0
M  V30 23635 C 4228.39 3.64202 6.65911 0
M  V30 23636 O 4228.6 2.60694 5.64732 0
M  V30 23637 C 4229.79 3.93473 7.1943 0
M  V30 23638 O 4230.18 3.02071 8.21205 0
M  V30 23639 C 4230.67 3.73047 5.97036 0
M  V30 23640 C 4229.96 2.58828 5.25741 0
M  V30 23641 N 4230.01 2.68068 3.77503 0
M  V30 23642 C 4229.93 3.79715 2.96723 0
M  V30 23643 N 4230.01 3.5377 1.68852 0
M  V30 23644 C 4230.15 2.15054 1.63254 0
M  V30 23645 C 4230.28 1.28964 0.518571 0
M  V30 23646 O 4230.3 1.56826 -0.679156 0
M  V30 23647 N 4230.4 -0.0538097 0.918425 0
M  V30 23648 C 4230.4 -0.494275 2.22578 0
M  V30 23649 N 4230.53 -1.81086 2.40434 0
M  V30 23650 N 4230.27 0.313645 3.27502 0
M  V30 23651 C 4230.15 1.61829 2.91033 0
M  V30 23652 H 4227.18 5.40332 6.79951 0
M  V30 23653 H 4226.91 4.41613 5.32378 0
M  V30 23654 H 4227.77 3.26331 7.47797 0
M  V30 23655 H 4230.43 1.63422 5.56814 0
M  V30 23656 H 4230.71 4.63374 5.34244 0
M  V30 23657 H 4231.7 3.44728 6.25838 0
M  V30 23658 H 4229.86 4.96652 7.57263 0
M  V30 23659 H 4229.82 4.80617 3.3614 0
M  V30 23660 H 4230.5 -0.742702 0.199384 0
M  V30 23661 H 4230.53 -2.20598 3.35588 0
M  V30 23662 H 4230.64 -2.43518 1.58945 0
M  V30 23663 P 4231.73 2.75334 8.47391 0
M  V30 23664 O 4231.95 2.44571 9.90142 0
M  V30 23665 O 4232.52 3.87688 7.92115 0
M  V30 23666 O 4231.98 1.4459 7.59357 0
M  V30 23667 C 4231.04 0.347608 7.69215 0
M  V30 23668 C 4231.77 -0.96767 7.52806 0
M  V30 23669 O 4231.98 -1.21036 6.1011 0
M  V30 23670 C 4233.17 -1.04544 8.13308 0
M  V30 23671 O 4233.56 -2.38311 8.41922 0
M  V30 23672 C 4234.05 -0.491279 7.02284 0
M  V30 23673 C 4233.34 -0.996264 5.77469 0
M  V30 23674 N 4233.39 -0.0501916 4.62973 0
M  V30 23675 H 4230.56 0.374722 8.67691 0
M  V30 23676 H 4230.29 0.443485 6.90277 0
M  V30 23677 H 4231.15 -1.75537 7.96793 0
M  V30 23678 P 4235.11 -2.75334 8.47391 0
M  V30 23679 O 4235.33 -3.84128 9.44797 0
M  V30 23680 O 4235.9 -1.51947 8.68712 0
M  V30 23681 O 4235.36 -3.29363 6.99321 0
M  V30 23682 C 4234.42 -4.24011 6.4274 0
M  V30 23683 C 4235.15 -5.20775 5.52155 0
M  V30 23684 O 4235.36 -4.56534 4.22446 0
M  V30 23685 C 4236.55 -5.62629 5.96531 0
M  V30 23686 O 4236.94 -6.87667 5.41053 0
M  V30 23687 C 4237.43 -4.52537 5.39283 0
M  V30 23688 C 4236.72 -4.20027 4.08623 0
M  V30 23689 N 4236.77 -2.76189 3.71603 0
M  V30 23690 H 4233.94 -4.797 7.24003 0
M  V30 23691 H 4233.67 -3.69856 5.84513 0
M  V30 23692 H 4234.53 -6.10356 5.41441 0
M  V30 23693 P 4238.49 -7.20834 5.23717 0
M  V30 23694 O 4238.71 -8.66104 5.38572 0
M  V30 23695 O 4239.28 -6.33544 6.1349 0
M  V30 23696 O 4238.74 -6.7751 3.72168 0
M  V30 23697 C 4237.8 -7.20825 2.7076 0
M  V30 23698 C 4238.53 -7.45864 1.40599 0
M  V30 23699 O 4238.74 -6.17651 0.734225 0
M  V30 23700 C 4239.93 -8.05808 1.51899 0
M  V30 23701 O 4240.32 -8.74358 0.335205 0
M  V30 23702 C 4240.81 -6.83093 1.70294 0
M  V30 23703 C 4240.1 -5.79992 0.836974 0
M  V30 23704 N 4240.15 -4.41864 1.38293 0
M  V30 23705 H 4237.32 -8.13644 3.0377 0
M  V30 23706 H 4237.05 -6.42788 2.55485 0
M  V30 23707 H 4237.91 -8.12039 0.792769 0
M  V30 23708 P 4241.87 -8.91 1.77065e-10 0
M  V30 23709 O 4242.09 -10.1726 -0.733694 0
M  V30 23710 O 4242.66 -8.73148 1.23936 0
M  V30 23711 O 4242.12 -7.66872 -0.971405 0
M  V30 23712 C 4241.18 -7.42309 -2.04641 0
M  V30 23713 C 4241.91 -6.86059 -3.24661 0
M  V30 23714 O 4242.12 -5.42847 -3.03646 0
M  V30 23715 C 4243.31 -7.41196 -3.50753 0
M  V30 23716 O 4243.7 -7.27073 -4.86816 0
M  V30 23717 C 4244.19 -6.5273 -2.63741 0
M  V30 23718 C 4243.48 -5.1842 -2.73198 0
M  V30 23719 N 4243.53 -4.38762 -1.4784 0
M  V30 23720 H 4240.7 -8.36803 -2.32493 0
M  V30 23721 H 4240.43 -6.70197 -1.71129 0
M  V30 23722 H 4241.29 -7.03551 -4.13168 0
M  V30 23723 P 4245.25 -7.20834 -5.23717 0
M  V30 23724 O 4245.47 -7.79853 -6.57286 0
M  V30 23725 O 4246.04 -7.79239 -4.12957 0
M  V30 23726 O 4245.5 -5.63315 -5.29344 0
M  V30 23727 C 4244.56 -4.80255 -6.01876 0
M  V30 23728 C 4245.29 -3.64202 -6.65911 0
M  V30 23729 O 4245.5 -2.60694 -5.64732 0
M  V30 23730 C 4246.69 -3.93473 -7.1943 0
M  V30 23731 O 4247.08 -3.02071 -8.21205 0
M  V30 23732 C 4247.57 -3.73047 -5.97036 0
M  V30 23733 C 4246.86 -2.58828 -5.25741 0
M  V30 23734 N 4246.91 -2.68068 -3.77503 0
M  V30 23735 C 4246.83 -3.79715 -2.96723 0
M  V30 23736 N 4246.91 -3.5377 -1.68852 0
M  V30 23737 C 4247.05 -2.15054 -1.63254 0
M  V30 23738 C 4247.18 -1.28964 -0.518571 0
M  V30 23739 O 4247.2 -1.56826 0.679156 0
M  V30 23740 N 4247.3 0.0538097 -0.918425 0
M  V30 23741 C 4247.3 0.494275 -2.22578 0
M  V30 23742 N 4247.43 1.81086 -2.40434 0
M  V30 23743 N 4247.17 -0.313645 -3.27502 0
M  V30 23744 C 4247.05 -1.61829 -2.91033 0
M  V30 23745 H 4244.08 -5.40332 -6.79951 0
M  V30 23746 H 4243.81 -4.41613 -5.32378 0
M  V30 23747 H 4244.67 -3.26331 -7.47797 0
M  V30 23748 H 4247.33 -1.63422 -5.56814 0
M  V30 23749 H 4247.61 -4.63374 -5.34244 0
M  V30 23750 H 4248.6 -3.44728 -6.25838 0
M  V30 23751 H 4246.76 -4.96652 -7.57263 0
M  V30 23752 H 4246.72 -4.80617 -3.3614 0
M  V30 23753 H 4247.4 0.742702 -0.199384 0
M  V30 23754 H 4247.43 2.20598 -3.35588 0
M  V30 23755 H 4247.54 2.43518 -1.58945 0
M  V30 23756 P 4248.63 -2.75334 -8.47391 0
M  V30 23757 O 4248.85 -2.44571 -9.90142 0
M  V30 23758 O 4249.42 -3.87688 -7.92115 0
M  V30 23759 O 4248.88 -1.4459 -7.59357 0
M  V30 23760 C 4247.94 -0.347608 -7.69215 0
M  V30 23761 C 4248.67 0.96767 -7.52806 0
M  V30 23762 O 4248.88 1.21036 -6.1011 0
M  V30 23763 C 4250.07 1.04544 -8.13308 0
M  V30 23764 O 4250.46 2.38311 -8.41922 0
M  V30 23765 C 4250.95 0.491279 -7.02284 0
M  V30 23766 C 4250.24 0.996264 -5.77469 0
M  V30 23767 N 4250.29 0.0501916 -4.62973 0
M  V30 23768 H 4247.46 -0.374722 -8.67691 0
M  V30 23769 H 4247.19 -0.443485 -6.90277 0
M  V30 23770 H 4248.05 1.75537 -7.96793 0
M  V30 23771 P 4252.01 2.75334 -8.47391 0
M  V30 23772 O 4252.23 3.84128 -9.44797 0
M  V30 23773 O 4252.8 1.51947 -8.68712 0
M  V30 23774 O 4252.26 3.29363 -6.99321 0
M  V30 23775 C 4251.32 4.24011 -6.4274 0
M  V30 23776 C 4252.05 5.20775 -5.52155 0
M  V30 23777 O 4252.26 4.56534 -4.22446 0
M  V30 23778 C 4253.45 5.62629 -5.96531 0
M  V30 23779 O 4253.84 6.87667 -5.41053 0
M  V30 23780 C 4254.33 4.52537 -5.39283 0
M  V30 23781 C 4253.62 4.20027 -4.08623 0
M  V30 23782 N 4253.67 2.76189 -3.71603 0
M  V30 23783 H 4250.84 4.797 -7.24003 0
M  V30 23784 H 4250.57 3.69856 -5.84513 0
M  V30 23785 H 4251.43 6.10356 -5.41441 0
M  V30 23786 P 4255.39 7.20834 -5.23717 0
M  V30 23787 O 4255.61 8.66104 -5.38572 0
M  V30 23788 O 4256.18 6.33544 -6.1349 0
M  V30 23789 O 4255.64 6.7751 -3.72168 0
M  V30 23790 C 4254.7 7.20825 -2.7076 0
M  V30 23791 C 4255.43 7.45864 -1.40599 0
M  V30 23792 O 4255.64 6.17651 -0.734225 0
M  V30 23793 C 4256.83 8.05808 -1.51899 0
M  V30 23794 O 4257.22 8.74358 -0.335205 0
M  V30 23795 C 4257.71 6.83093 -1.70294 0
M  V30 23796 C 4257 5.79992 -0.836974 0
M  V30 23797 N 4257.05 4.41864 -1.38293 0
M  V30 23798 H 4254.22 8.13644 -3.0377 0
M  V30 23799 H 4253.95 6.42788 -2.55485 0
M  V30 23800 H 4254.81 8.12039 -0.792769 0
M  V30 23801 P 4258.77 8.91 -1.78174e-10 0
M  V30 23802 O 4258.99 10.1726 0.733694 0
M  V30 23803 O 4259.56 8.73148 -1.23936 0
M  V30 23804 O 4259.02 7.66872 0.971405 0
M  V30 23805 C 4258.08 7.42309 2.04641 0
M  V30 23806 C 4258.81 6.86059 3.24661 0
M  V30 23807 O 4259.02 5.42847 3.03646 0
M  V30 23808 C 4260.21 7.41196 3.50753 0
M  V30 23809 O 4260.6 7.27073 4.86816 0
M  V30 23810 C 4261.09 6.5273 2.63741 0
M  V30 23811 C 4260.38 5.1842 2.73198 0
M  V30 23812 N 4260.43 4.38762 1.4784 0
M  V30 23813 C 4260.35 4.81605 0.168631 0
M  V30 23814 N 4260.43 3.85454 -0.713363 0
M  V30 23815 C 4260.57 2.6994 0.0566958 0
M  V30 23816 C 4260.7 1.34815 -0.338502 0
M  V30 23817 N 4260.82 0.496304 0.77465 0
M  V30 23818 C 4260.82 0.908403 2.09122 0
M  V30 23819 N 4260.95 -0.0517805 3.00955 0
M  V30 23820 N 4260.69 2.17875 2.46519 0
M  V30 23821 C 4260.57 3.01988 1.4033 0
M  V30 23822 H 4257.6 8.36803 2.32493 0
M  V30 23823 H 4257.33 6.70197 1.71129 0
M  V30 23824 H 4258.19 7.03551 4.13168 0
M  V30 23825 P 4262.15 7.20834 5.23717 0
M  V30 23826 O 4262.37 7.79853 6.57286 0
M  V30 23827 O 4262.94 7.79239 4.12957 0
M  V30 23828 O 4262.4 5.63315 5.29344 0
M  V30 23829 C 4261.46 4.80255 6.01876 0
M  V30 23830 C 4262.19 3.64202 6.65911 0
M  V30 23831 O 4262.4 2.60694 5.64732 0
M  V30 23832 C 4263.59 3.93473 7.1943 0
M  V30 23833 O 4263.98 3.02071 8.21205 0
M  V30 23834 C 4264.47 3.73047 5.97036 0
M  V30 23835 C 4263.76 2.58828 5.25741 0
M  V30 23836 N 4263.81 2.68068 3.77503 0
M  V30 23837 H 4260.98 5.40332 6.79951 0
M  V30 23838 H 4260.71 4.41613 5.32378 0
M  V30 23839 H 4261.57 3.26331 7.47797 0
M  V30 23840 P 4265.53 2.75334 8.47391 0
M  V30 23841 O 4265.75 2.44571 9.90142 0
M  V30 23842 O 4266.32 3.87688 7.92115 0
M  V30 23843 O 4265.78 1.4459 7.59357 0
M  V30 23844 C 4264.84 0.347608 7.69215 0
M  V30 23845 C 4265.57 -0.96767 7.52806 0
M  V30 23846 O 4265.78 -1.21036 6.1011 0
M  V30 23847 C 4266.97 -1.04544 8.13308 0
M  V30 23848 O 4267.36 -2.38311 8.41922 0
M  V30 23849 C 4267.85 -0.491279 7.02284 0
M  V30 23850 C 4267.14 -0.996264 5.77469 0
M  V30 23851 N 4267.19 -0.0501916 4.62973 0
M  V30 23852 H 4264.36 0.374722 8.67691 0
M  V30 23853 H 4264.09 0.443485 6.90277 0
M  V30 23854 H 4264.95 -1.75537 7.96793 0
M  V30 23855 P 4268.91 -2.75334 8.47391 0
M  V30 23856 O 4269.13 -3.84128 9.44797 0
M  V30 23857 O 4269.7 -1.51947 8.68712 0
M  V30 23858 O 4269.16 -3.29363 6.99321 0
M  V30 23859 C 4268.22 -4.24011 6.4274 0
M  V30 23860 C 4268.95 -5.20775 5.52155 0
M  V30 23861 O 4269.16 -4.56534 4.22446 0
M  V30 23862 C 4270.35 -5.62629 5.96531 0
M  V30 23863 O 4270.74 -6.87667 5.41053 0
M  V30 23864 C 4271.23 -4.52537 5.39283 0
M  V30 23865 C 4270.52 -4.20027 4.08623 0
M  V30 23866 N 4270.57 -2.76189 3.71603 0
M  V30 23867 H 4267.74 -4.797 7.24003 0
M  V30 23868 H 4267.47 -3.69856 5.84513 0
M  V30 23869 H 4268.33 -6.10356 5.41441 0
M  V30 23870 P 4272.29 -7.20834 5.23717 0
M  V30 23871 O 4272.51 -8.66104 5.38572 0
M  V30 23872 O 4273.08 -6.33544 6.1349 0
M  V30 23873 O 4272.54 -6.7751 3.72168 0
M  V30 23874 C 4271.6 -7.20825 2.7076 0
M  V30 23875 C 4272.33 -7.45864 1.40599 0
M  V30 23876 O 4272.54 -6.17651 0.734225 0
M  V30 23877 C 4273.73 -8.05808 1.51899 0
M  V30 23878 O 4274.12 -8.74358 0.335205 0
M  V30 23879 C 4274.61 -6.83093 1.70294 0
M  V30 23880 C 4273.9 -5.79992 0.836974 0
M  V30 23881 N 4273.95 -4.41864 1.38293 0
M  V30 23882 H 4271.12 -8.13644 3.0377 0
M  V30 23883 H 4270.85 -6.42788 2.55485 0
M  V30 23884 H 4271.71 -8.12039 0.792769 0
M  V30 23885 P 4275.67 -8.91 1.79283e-10 0
M  V30 23886 O 4275.89 -10.1726 -0.733694 0
M  V30 23887 O 4276.46 -8.73148 1.23936 0
M  V30 23888 O 4275.92 -7.66872 -0.971405 0
M  V30 23889 C 4274.98 -7.42309 -2.04641 0
M  V30 23890 C 4275.71 -6.86059 -3.24661 0
M  V30 23891 O 4275.92 -5.42847 -3.03646 0
M  V30 23892 C 4277.11 -7.41196 -3.50753 0
M  V30 23893 O 4277.5 -7.27073 -4.86816 0
M  V30 23894 C 4277.99 -6.5273 -2.63741 0
M  V30 23895 C 4277.28 -5.1842 -2.73198 0
M  V30 23896 N 4277.33 -4.38762 -1.4784 0
M  V30 23897 H 4274.5 -8.36803 -2.32493 0
M  V30 23898 H 4274.23 -6.70197 -1.71129 0
M  V30 23899 H 4275.09 -7.03551 -4.13168 0
M  V30 23900 P 4279.05 -7.20834 -5.23717 0
M  V30 23901 O 4279.27 -7.79853 -6.57286 0
M  V30 23902 O 4279.84 -7.79239 -4.12957 0
M  V30 23903 O 4279.3 -5.63315 -5.29344 0
M  V30 23904 C 4278.36 -4.80255 -6.01876 0
M  V30 23905 C 4279.09 -3.64202 -6.65911 0
M  V30 23906 O 4279.3 -2.60694 -5.64732 0
M  V30 23907 C 4280.49 -3.93473 -7.1943 0
M  V30 23908 O 4280.88 -3.02071 -8.21205 0
M  V30 23909 C 4281.37 -3.73047 -5.97036 0
M  V30 23910 C 4280.66 -2.58828 -5.25741 0
M  V30 23911 N 4280.71 -2.68068 -3.77503 0
M  V30 23912 H 4277.88 -5.40332 -6.79951 0
M  V30 23913 H 4277.61 -4.41613 -5.32378 0
M  V30 23914 H 4278.47 -3.26331 -7.47797 0
M  V30 23915 P 4282.43 -2.75334 -8.47391 0
M  V30 23916 O 4282.65 -2.44571 -9.90142 0
M  V30 23917 O 4283.22 -3.87688 -7.92115 0
M  V30 23918 O 4282.68 -1.4459 -7.59357 0
M  V30 23919 C 4281.74 -0.347608 -7.69215 0
M  V30 23920 C 4282.47 0.96767 -7.52806 0
M  V30 23921 O 4282.68 1.21036 -6.1011 0
M  V30 23922 C 4283.87 1.04544 -8.13308 0
M  V30 23923 O 4284.26 2.38311 -8.41922 0
M  V30 23924 C 4284.75 0.491279 -7.02284 0
M  V30 23925 C 4284.04 0.996264 -5.77469 0
M  V30 23926 N 4284.09 0.0501916 -4.62973 0
M  V30 23927 C 4284.01 -1.32786 -4.63244 0
M  V30 23928 N 4284.09 -1.86957 -3.44545 0
M  V30 23929 C 4284.23 -0.780241 -2.58481 0
M  V30 23930 C 4284.36 -0.738536 -1.17757 0
M  V30 23931 N 4284.48 0.58337 -0.711393 0
M  V30 23932 C 4284.48 1.70816 -1.51017 0
M  V30 23933 N 4284.61 2.87826 -0.880757 0
M  V30 23934 N 4284.35 1.67126 -2.8339 0
M  V30 23935 C 4284.23 0.401421 -3.30572 0
M  V30 23936 H 4281.26 -0.374722 -8.67691 0
M  V30 23937 H 4280.99 -0.443485 -6.90277 0
M  V30 23938 H 4281.85 1.75537 -7.96793 0
M  V30 23939 P 4285.81 2.75334 -8.47391 0
M  V30 23940 O 4286.03 3.84128 -9.44797 0
M  V30 23941 O 4286.6 1.51947 -8.68712 0
M  V30 23942 O 4286.06 3.29363 -6.99321 0
M  V30 23943 C 4285.12 4.24011 -6.4274 0
M  V30 23944 C 4285.85 5.20775 -5.52155 0
M  V30 23945 O 4286.06 4.56534 -4.22446 0
M  V30 23946 C 4287.25 5.62629 -5.96531 0
M  V30 23947 O 4287.64 6.87667 -5.41053 0
M  V30 23948 C 4288.13 4.52537 -5.39283 0
M  V30 23949 C 4287.42 4.20027 -4.08623 0
M  V30 23950 N 4287.47 2.76189 -3.71603 0
M  V30 23951 H 4284.64 4.797 -7.24003 0
M  V30 23952 H 4284.37 3.69856 -5.84513 0
M  V30 23953 H 4285.23 6.10356 -5.41441 0
M  V30 23954 P 4289.19 7.20834 -5.23717 0
M  V30 23955 O 4289.41 8.66104 -5.38572 0
M  V30 23956 O 4289.98 6.33544 -6.1349 0
M  V30 23957 O 4289.44 6.7751 -3.72168 0
M  V30 23958 C 4288.5 7.20825 -2.7076 0
M  V30 23959 C 4289.23 7.45864 -1.40599 0
M  V30 23960 O 4289.44 6.17651 -0.734225 0
M  V30 23961 C 4290.63 8.05808 -1.51899 0
M  V30 23962 O 4291.02 8.74358 -0.335205 0
M  V30 23963 C 4291.51 6.83093 -1.70294 0
M  V30 23964 C 4290.8 5.79992 -0.836974 0
M  V30 23965 N 4290.85 4.41864 -1.38293 0
M  V30 23966 H 4288.02 8.13644 -3.0377 0
M  V30 23967 H 4287.75 6.42788 -2.55485 0
M  V30 23968 H 4288.61 8.12039 -0.792769 0
M  V30 23969 P 4292.57 8.91 -1.80392e-10 0
M  V30 23970 O 4292.79 10.1726 0.733694 0
M  V30 23971 O 4293.36 8.73148 -1.23936 0
M  V30 23972 O 4292.82 7.66872 0.971405 0
M  V30 23973 C 4291.88 7.42309 2.04641 0
M  V30 23974 C 4292.61 6.86059 3.24661 0
M  V30 23975 O 4292.82 5.42847 3.03646 0
M  V30 23976 C 4294.01 7.41196 3.50753 0
M  V30 23977 O 4294.4 7.27073 4.86816 0
M  V30 23978 C 4294.89 6.5273 2.63741 0
M  V30 23979 C 4294.18 5.1842 2.73198 0
M  V30 23980 N 4294.23 4.38762 1.4784 0
M  V30 23981 C 4294.15 4.81605 0.168631 0
M  V30 23982 N 4294.23 3.85454 -0.713363 0
M  V30 23983 C 4294.37 2.6994 0.0566958 0
M  V30 23984 C 4294.5 1.34815 -0.338502 0
M  V30 23985 O 4294.52 0.869548 -1.47125 0
M  V30 23986 N 4294.62 0.496304 0.77465 0
M  V30 23987 C 4294.62 0.908403 2.09122 0
M  V30 23988 N 4294.75 -0.0517805 3.00955 0
M  V30 23989 N 4294.49 2.17875 2.46519 0
M  V30 23990 C 4294.37 3.01988 1.4033 0
M  V30 23991 H 4291.4 8.36803 2.32493 0
M  V30 23992 H 4291.13 6.70197 1.71129 0
M  V30 23993 H 4291.99 7.03551 4.13168 0
M  V30 23994 H 4294.65 4.59498 3.54415 0
M  V30 23995 H 4294.93 6.88898 1.59848 0
M  V30 23996 H 4295.92 6.46749 3.03687 0
M  V30 23997 H 4294.08 8.46908 3.20714 0
M  V30 23998 H 4294.04 5.86405 -0.105564 0
M  V30 23999 H 4294.72 -0.483664 0.597855 0
M  V30 24000 H 4294.75 0.187865 4.0116 0
M  V30 24001 H 4294.86 -1.03585 2.71726 0
M  V30 24002 P 4295.95 7.20834 5.23717 0
M  V30 24003 O 4296.17 7.7993 6.57351 0
M  V30 24004 O 4296.74 7.79328 4.13004 0
M  V30 24005 O 4296.2 5.63315 5.29344 0
M  V30 24006 C 4295.26 4.80193 6.01798 0
M  V30 24007 C 4295.99 3.64202 6.65911 0
M  V30 24008 O 4296.2 2.60694 5.64732 0
M  V30 24009 C 4297.39 3.93473 7.1943 0
M  V30 24010 O 4297.78 3.02071 8.21205 0
M  V30 24011 C 4298.27 3.73047 5.97036 0
M  V30 24012 C 4297.56 2.58828 5.25741 0
M  V30 24013 N 4297.61 2.6801 3.77422 0
M  V30 24014 C 4297.76 1.50443 3.07133 0
M  V30 24015 O 4297.85 0.419406 3.61576 0
M  V30 24016 N 4297.8 1.6403 1.69677 0
M  V30 24017 C 4297.71 2.81206 0.986255 0
M  V30 24018 O 4297.76 2.80892 -0.249754 0
M  V30 24019 C 4297.56 3.99158 1.80325 0
M  V30 24020 C 4297.45 5.29309 1.06921 0
M  V30 24021 C 4297.51 3.89779 3.1476 0
M  V30 24022 H 4294.77 5.40332 6.79951 0
M  V30 24023 H 4294.51 4.41549 5.32301 0
M  V30 24024 H 4295.37 3.26331 7.47797 0
M  V30 24025 H 4298.03 1.6395 5.56554 0
M  V30 24026 H 4298.31 4.63439 5.3432 0
M  V30 24027 H 4299.3 3.44728 6.25838 0
M  V30 24028 H 4297.46 4.96652 7.57263 0
M  V30 24029 H 4297.39 4.80159 3.74441 0
M  V30 24030 H 4298.42 5.81459 1.09608 0
M  V30 24031 H 4296.69 5.9187 1.54487 0
M  V30 24032 H 4297.17 5.10095 0.0220288 0
M  V30 24033 H 4297.91 0.798962 1.16664 0
M  V30 24034 P 4299.33 2.75334 8.47391 0
M  V30 24035 O 4299.55 2.44571 9.90142 0
M  V30 24036 O 4300.12 3.87688 7.92115 0
M  V30 24037 O 4299.58 1.4459 7.59357 0
M  V30 24038 C 4298.64 0.347608 7.69215 0
M  V30 24039 C 4299.37 -0.96767 7.52806 0
M  V30 24040 O 4299.58 -1.21036 6.1011 0
M  V30 24041 C 4300.77 -1.04544 8.13308 0
M  V30 24042 O 4301.16 -2.38311 8.41922 0
M  V30 24043 C 4301.65 -0.491279 7.02284 0
M  V30 24044 C 4300.94 -0.996264 5.77469 0
M  V30 24045 N 4300.99 -0.0501916 4.62973 0
M  V30 24046 H 4298.16 0.374722 8.67691 0
M  V30 24047 H 4297.89 0.443485 6.90277 0
M  V30 24048 H 4298.75 -1.75537 7.96793 0
M  V30 24049 P 4302.71 -2.75334 8.47391 0
M  V30 24050 O 4302.93 -3.84166 9.4489 0
M  V30 24051 O 4303.5 -1.51964 8.6881 0
M  V30 24052 O 4302.96 -3.29363 6.99321 0
M  V30 24053 C 4302.02 -4.23956 6.42656 0
M  V30 24054 C 4302.75 -5.20775 5.52155 0
M  V30 24055 O 4302.96 -4.56534 4.22446 0
M  V30 24056 C 4304.15 -5.62629 5.96531 0
M  V30 24057 O 4304.54 -6.87667 5.41053 0
M  V30 24058 C 4305.03 -4.52537 5.39283 0
M  V30 24059 C 4304.32 -4.20027 4.08623 0
M  V30 24060 N 4304.37 -2.7613 3.71522 0
M  V30 24061 C 4304.52 -2.45612 2.37989 0
M  V30 24062 O 4304.61 -3.30919 1.51621 0
M  V30 24063 N 4304.56 -1.10684 2.08435 0
M  V30 24064 C 4304.47 -0.0690084 2.9792 0
M  V30 24065 O 4304.52 1.10553 2.59426 0
M  V30 24066 C 4304.32 -0.481522 4.35345 0
M  V30 24067 C 4304.21 0.618778 5.36443 0
M  V30 24068 C 4304.27 -1.78906 4.67968 0
M  V30 24069 H 4301.53 -4.797 7.24003 0
M  V30 24070 H 4301.27 -3.69802 5.84429 0
M  V30 24071 H 4302.13 -6.10356 5.41441 0
M  V30 24072 H 4304.79 -4.78651 3.27911 0
M  V30 24073 H 4305.07 -3.64957 6.05871 0
M  V30 24074 H 4306.06 -4.8868 5.2125 0
M  V30 24075 H 4304.22 -5.66726 7.06352 0
M  V30 24076 H 4304.15 -2.07737 5.72367 0
M  V30 24077 H 4305.18 0.754375 5.86871 0
M  V30 24078 H 4303.45 0.359721 6.10641 0
M  V30 24079 H 4303.93 1.55533 4.8581 0
M  V30 24080 H 4304.67 -0.862651 1.12037 0
M  V30 24081 P 4306.09 -7.20834 5.23717 0
M  V30 24082 O 4306.31 -8.66104 5.38572 0
M  V30 24083 O 4306.88 -6.33544 6.1349 0
M  V30 24084 O 4306.34 -6.7751 3.72168 0
M  V30 24085 C 4305.4 -7.20825 2.7076 0
M  V30 24086 C 4306.13 -7.45864 1.40599 0
M  V30 24087 O 4306.34 -6.17651 0.734225 0
M  V30 24088 C 4307.53 -8.05808 1.51899 0
M  V30 24089 O 4307.92 -8.74358 0.335205 0
M  V30 24090 C 4308.41 -6.83093 1.70294 0
M  V30 24091 C 4307.7 -5.79992 0.836974 0
M  V30 24092 N 4307.75 -4.41864 1.38293 0
M  V30 24093 H 4304.92 -8.13644 3.0377 0
M  V30 24094 H 4304.65 -6.42788 2.55485 0
M  V30 24095 H 4305.51 -8.12039 0.792769 0
M  V30 24096 P 4309.47 -8.91 1.81501e-10 0
M  V30 24097 O 4309.69 -10.1726 -0.733694 0
M  V30 24098 O 4310.26 -8.73148 1.23936 0
M  V30 24099 O 4309.72 -7.66872 -0.971405 0
M  V30 24100 C 4308.78 -7.42309 -2.04641 0
M  V30 24101 C 4309.51 -6.86059 -3.24661 0
M  V30 24102 O 4309.72 -5.42847 -3.03646 0
M  V30 24103 C 4310.91 -7.41196 -3.50753 0
M  V30 24104 O 4311.3 -7.27073 -4.86816 0
M  V30 24105 C 4311.79 -6.5273 -2.63741 0
M  V30 24106 C 4311.08 -5.1842 -2.73198 0
M  V30 24107 N 4311.13 -4.38762 -1.4784 0
M  V30 24108 H 4308.3 -8.36803 -2.32493 0
M  V30 24109 H 4308.03 -6.70197 -1.71129 0
M  V30 24110 H 4308.89 -7.03551 -4.13168 0
M  V30 24111 P 4312.85 -7.20834 -5.23717 0
M  V30 24112 O 4313.07 -7.79853 -6.57286 0
M  V30 24113 O 4313.64 -7.79239 -4.12957 0
M  V30 24114 O 4313.1 -5.63315 -5.29344 0
M  V30 24115 C 4312.16 -4.80255 -6.01876 0
M  V30 24116 C 4312.89 -3.64202 -6.65911 0
M  V30 24117 O 4313.1 -2.60694 -5.64732 0
M  V30 24118 C 4314.29 -3.93473 -7.1943 0
M  V30 24119 O 4314.68 -3.02071 -8.21205 0
M  V30 24120 C 4315.17 -3.73047 -5.97036 0
M  V30 24121 C 4314.46 -2.58828 -5.25741 0
M  V30 24122 N 4314.51 -2.68068 -3.77503 0
M  V30 24123 H 4311.68 -5.40332 -6.79951 0
M  V30 24124 H 4311.41 -4.41613 -5.32378 0
M  V30 24125 H 4312.27 -3.26331 -7.47797 0
M  V30 24126 P 4316.23 -2.75334 -8.47391 0
M  V30 24127 O 4316.45 -2.44595 -9.90239 0
M  V30 24128 O 4317.02 -3.87732 -7.92204 0
M  V30 24129 O 4316.48 -1.4459 -7.59357 0
M  V30 24130 C 4315.54 -0.347563 -7.69115 0
M  V30 24131 C 4316.27 0.96767 -7.52806 0
M  V30 24132 O 4316.48 1.21036 -6.1011 0
M  V30 24133 C 4317.67 1.04544 -8.13308 0
M  V30 24134 O 4318.06 2.38311 -8.41922 0
M  V30 24135 C 4318.55 0.491279 -7.02284 0
M  V30 24136 C 4317.84 0.996264 -5.77469 0
M  V30 24137 N 4317.89 0.0501808 -4.62873 0
M  V30 24138 C 4318.04 0.588177 -3.36904 0
M  V30 24139 O 4318.13 1.78598 -3.17173 0
M  V30 24140 N 4318.08 -0.329694 -2.33686 0
M  V30 24141 C 4317.99 -1.6953 -2.45079 0
M  V30 24142 O 4318.04 -2.41926 -1.44899 0
M  V30 24143 C 4317.84 -2.16933 -3.80505 0
M  V30 24144 C 4317.73 -3.65373 -3.97621 0
M  V30 24145 C 4317.79 -1.30326 -4.83752 0
M  V30 24146 H 4315.05 -0.374722 -8.67691 0
M  V30 24147 H 4314.79 -0.443421 -6.90177 0
M  V30 24148 H 4315.65 1.75537 -7.96793 0
M  V30 24149 H 4318.31 1.94496 -5.46629 0
M  V30 24150 H 4318.59 -0.608651 -7.04676 0
M  V30 24151 H 4319.58 0.889672 -7.08939 0
M  V30 24152 H 4317.74 0.43308 -9.04564 0
M  V30 24153 H 4317.67 -1.68366 -5.8516 0
M  V30 24154 H 4318.7 -4.05985 -4.30448 0
M  V30 24155 H 4316.97 -3.88028 -4.72875 0
M  V30 24156 H 4317.45 -4.11381 -3.01609 0
M  V30 24157 H 4318.19 0.0393617 -1.41345 0
M  V30 24158 P 4319.61 2.75334 -8.47391 0
M  V30 24159 O 4319.83 3.84166 -9.4489 0
M  V30 24160 O 4320.4 1.51964 -8.6881 0
M  V30 24161 O 4319.86 3.29363 -6.99321 0
M  V30 24162 C 4318.92 4.23956 -6.42656 0
M  V30 24163 C 4319.65 5.20775 -5.52155 0
M  V30 24164 O 4319.86 4.56534 -4.22446 0
M  V30 24165 C 4321.05 5.62629 -5.96531 0
M  V30 24166 O 4321.44 6.87667 -5.41053 0
M  V30 24167 C 4321.93 4.52537 -5.39283 0
M  V30 24168 C 4321.22 4.20027 -4.08623 0
M  V30 24169 N 4321.27 2.7613 -3.71522 0
M  V30 24170 C 4321.42 2.45612 -2.37989 0
M  V30 24171 O 4321.51 3.30919 -1.51621 0
M  V30 24172 N 4321.46 1.10684 -2.08435 0
M  V30 24173 C 4321.37 0.0690084 -2.9792 0
M  V30 24174 O 4321.42 -1.10553 -2.59426 0
M  V30 24175 C 4321.22 0.481522 -4.35345 0
M  V30 24176 C 4321.11 -0.618778 -5.36443 0
M  V30 24177 C 4321.17 1.78906 -4.67968 0
M  V30 24178 H 4318.43 4.797 -7.24003 0
M  V30 24179 H 4318.17 3.69802 -5.84429 0
M  V30 24180 H 4319.03 6.10356 -5.41441 0
M  V30 24181 H 4321.69 4.78651 -3.27911 0
M  V30 24182 H 4321.97 3.64957 -6.05871 0
M  V30 24183 H 4322.96 4.8868 -5.2125 0
M  V30 24184 H 4321.12 5.66726 -7.06352 0
M  V30 24185 H 4321.05 2.07737 -5.72367 0
M  V30 24186 H 4322.08 -0.754375 -5.86871 0
M  V30 24187 H 4320.35 -0.359721 -6.10641 0
M  V30 24188 H 4320.83 -1.55533 -4.8581 0
M  V30 24189 H 4321.57 0.862651 -1.12037 0
M  V30 24190 P 4322.99 7.20834 -5.23717 0
M  V30 24191 O 4323.21 8.66104 -5.38572 0
M  V30 24192 O 4323.78 6.33544 -6.1349 0
M  V30 24193 O 4323.24 6.7751 -3.72168 0
M  V30 24194 C 4322.3 7.20825 -2.7076 0
M  V30 24195 C 4323.03 7.45864 -1.40599 0
M  V30 24196 O 4323.24 6.17651 -0.734225 0
M  V30 24197 C 4324.43 8.05808 -1.51899 0
M  V30 24198 O 4324.82 8.74358 -0.335205 0
M  V30 24199 C 4325.31 6.83093 -1.70294 0
M  V30 24200 C 4324.6 5.79992 -0.836974 0
M  V30 24201 N 4324.65 4.41864 -1.38293 0
M  V30 24202 H 4321.82 8.13644 -3.0377 0
M  V30 24203 H 4321.55 6.42788 -2.55485 0
M  V30 24204 H 4322.41 8.12039 -0.792769 0
M  V30 24205 P 4326.37 8.91 -1.8261e-10 0
M  V30 24206 O 4326.59 10.1746 0.733838 0
M  V30 24207 O 4327.16 8.73346 -1.23964 0
M  V30 24208 O 4326.62 7.66872 0.971405 0
M  V30 24209 C 4325.68 7.42405 2.04668 0
M  V30 24210 C 4326.41 6.86059 3.24661 0
M  V30 24211 O 4326.62 5.42934 3.03695 0
M  V30 24212 C 4327.81 7.41287 3.50796 0
M  V30 24213 O 4328.2 7.27073 4.86816 0
M  V30 24214 C 4328.69 6.5273 2.63741 0
M  V30 24215 C 4327.98 5.1842 2.73198 0
M  V30 24216 N 4328.03 4.38762 1.4784 0
M  V30 24217 C 4327.95 4.83651 0.183876 0
M  V30 24218 N 4328.02 3.88759 -0.699393 0
M  V30 24219 C 4328.17 2.7404 0.0575568 0
M  V30 24220 C 4328.3 1.37902 -0.293928 0
M  V30 24221 N 4328.31 0.938021 -1.54797 0
M  V30 24222 N 4328.42 0.491817 0.70549 0
M  V30 24223 C 4328.41 0.931735 1.95979 0
M  V30 24224 N 4328.29 2.16017 2.41481 0
M  V30 24225 C 4328.17 3.02547 1.39121 0
M  V30 24226 H 4325.2 8.36899 2.3252 0
M  V30 24227 H 4324.92 6.70391 1.71179 0
M  V30 24228 H 4325.79 7.03638 4.13219 0
M  V30 24229 H 4328.45 4.59931 3.54016 0
M  V30 24230 H 4328.73 6.88995 1.59871 0
M  V30 24231 H 4329.72 6.4684 3.0373 0
M  V30 24232 H 4327.88 8.47002 3.20749 0
M  V30 24233 H 4327.84 5.8885 -0.0765548 0
M  V30 24234 H 4328.22 1.60276 -2.32875 0
M  V30 24235 H 4328.41 -0.0699355 -1.73859 0
M  V30 24236 H 4328.52 0.165507 2.71897 0
M  V30 24237 P 4329.75 7.20834 5.23717 0
M  V30 24238 O 4329.97 7.79853 6.57286 0
M  V30 24239 O 4330.54 7.79239 4.12957 0
M  V30 24240 O 4330 5.63315 5.29344 0
M  V30 24241 C 4329.06 4.80255 6.01876 0
M  V30 24242 C 4329.79 3.64202 6.65911 0
M  V30 24243 O 4330 2.60694 5.64732 0
M  V30 24244 C 4331.19 3.93473 7.1943 0
M  V30 24245 O 4331.58 3.02071 8.21205 0
M  V30 24246 C 4332.07 3.73047 5.97036 0
M  V30 24247 C 4331.36 2.58828 5.25741 0
M  V30 24248 N 4331.41 2.68068 3.77503 0
M  V30 24249 H 4328.58 5.40332 6.79951 0
M  V30 24250 H 4328.31 4.41613 5.32378 0
M  V30 24251 H 4329.17 3.26331 7.47797 0
M  V30 24252 P 4333.13 2.75334 8.47391 0
M  V30 24253 O 4333.35 2.44571 9.90142 0
M  V30 24254 O 4333.92 3.87688 7.92115 0
M  V30 24255 O 4333.38 1.4459 7.59357 0
M  V30 24256 C 4332.44 0.347608 7.69215 0
M  V30 24257 C 4333.17 -0.96767 7.52806 0
M  V30 24258 O 4333.38 -1.21036 6.1011 0
M  V30 24259 C 4334.57 -1.04544 8.13308 0
M  V30 24260 O 4334.96 -2.38311 8.41922 0
M  V30 24261 C 4335.45 -0.491279 7.02284 0
M  V30 24262 C 4334.74 -0.996264 5.77469 0
M  V30 24263 N 4334.79 -0.0501916 4.62973 0
M  V30 24264 H 4331.96 0.374722 8.67691 0
M  V30 24265 H 4331.69 0.443485 6.90277 0
M  V30 24266 H 4332.55 -1.75537 7.96793 0
M  V30 24267 P 4336.51 -2.75334 8.47391 0
M  V30 24268 O 4336.73 -3.84128 9.44797 0
M  V30 24269 O 4337.3 -1.51947 8.68712 0
M  V30 24270 O 4336.76 -3.29363 6.99321 0
M  V30 24271 C 4335.82 -4.24011 6.4274 0
M  V30 24272 C 4336.55 -5.20775 5.52155 0
M  V30 24273 O 4336.76 -4.56534 4.22446 0
M  V30 24274 C 4337.95 -5.62629 5.96531 0
M  V30 24275 O 4338.34 -6.87667 5.41053 0
M  V30 24276 C 4338.83 -4.52537 5.39283 0
M  V30 24277 C 4338.12 -4.20027 4.08623 0
M  V30 24278 N 4338.17 -2.76189 3.71603 0
M  V30 24279 H 4335.34 -4.797 7.24003 0
M  V30 24280 H 4335.07 -3.69856 5.84513 0
M  V30 24281 H 4335.93 -6.10356 5.41441 0
M  V30 24282 P 4339.89 -7.20834 5.23717 0
M  V30 24283 O 4340.11 -8.66104 5.38572 0
M  V30 24284 O 4340.68 -6.33544 6.1349 0
M  V30 24285 O 4340.14 -6.7751 3.72168 0
M  V30 24286 C 4339.2 -7.20825 2.7076 0
M  V30 24287 C 4339.93 -7.45864 1.40599 0
M  V30 24288 O 4340.14 -6.17651 0.734225 0
M  V30 24289 C 4341.33 -8.05808 1.51899 0
M  V30 24290 O 4341.72 -8.74358 0.335205 0
M  V30 24291 C 4342.21 -6.83093 1.70294 0
M  V30 24292 C 4341.5 -5.79992 0.836974 0
M  V30 24293 N 4341.55 -4.41864 1.38293 0
M  V30 24294 H 4338.72 -8.13644 3.0377 0
M  V30 24295 H 4338.45 -6.42788 2.55485 0
M  V30 24296 H 4339.31 -8.12039 0.792769 0
M  V30 24297 P 4343.27 -8.91 1.83719e-10 0
M  V30 24298 O 4343.49 -10.1726 -0.733694 0
M  V30 24299 O 4344.06 -8.73148 1.23936 0
M  V30 24300 O 4343.52 -7.66872 -0.971405 0
M  V30 24301 C 4342.58 -7.42309 -2.04641 0
M  V30 24302 C 4343.31 -6.86059 -3.24661 0
M  V30 24303 O 4343.52 -5.42847 -3.03646 0
M  V30 24304 C 4344.71 -7.41196 -3.50753 0
M  V30 24305 O 4345.1 -7.27073 -4.86816 0
M  V30 24306 C 4345.59 -6.5273 -2.63741 0
M  V30 24307 C 4344.88 -5.1842 -2.73198 0
M  V30 24308 N 4344.93 -4.38762 -1.4784 0
M  V30 24309 H 4342.1 -8.36803 -2.32493 0
M  V30 24310 H 4341.83 -6.70197 -1.71129 0
M  V30 24311 H 4342.69 -7.03551 -4.13168 0
M  V30 24312 P 4346.65 -7.20834 -5.23717 0
M  V30 24313 O 4346.87 -7.79853 -6.57286 0
M  V30 24314 O 4347.44 -7.79239 -4.12957 0
M  V30 24315 O 4346.9 -5.63315 -5.29344 0
M  V30 24316 C 4345.96 -4.80255 -6.01876 0
M  V30 24317 C 4346.69 -3.64202 -6.65911 0
M  V30 24318 O 4346.9 -2.60694 -5.64732 0
M  V30 24319 C 4348.09 -3.93473 -7.1943 0
M  V30 24320 O 4348.48 -3.02071 -8.21205 0
M  V30 24321 C 4348.97 -3.73047 -5.97036 0
M  V30 24322 C 4348.26 -2.58828 -5.25741 0
M  V30 24323 N 4348.31 -2.68068 -3.77503 0
M  V30 24324 H 4345.48 -5.40332 -6.79951 0
M  V30 24325 H 4345.21 -4.41613 -5.32378 0
M  V30 24326 H 4346.07 -3.26331 -7.47797 0
M  V30 24327 P 4350.03 -2.75334 -8.47391 0
M  V30 24328 O 4350.25 -2.44571 -9.90142 0
M  V30 24329 O 4350.82 -3.87688 -7.92115 0
M  V30 24330 O 4350.28 -1.4459 -7.59357 0
M  V30 24331 C 4349.34 -0.347608 -7.69215 0
M  V30 24332 C 4350.07 0.96767 -7.52806 0
M  V30 24333 O 4350.28 1.21036 -6.1011 0
M  V30 24334 C 4351.47 1.04544 -8.13308 0
M  V30 24335 O 4351.86 2.38311 -8.41922 0
M  V30 24336 C 4352.35 0.491279 -7.02284 0
M  V30 24337 C 4351.64 0.996264 -5.77469 0
M  V30 24338 N 4351.69 0.0501916 -4.62973 0
M  V30 24339 C 4351.61 -1.32786 -4.63244 0
M  V30 24340 N 4351.69 -1.86957 -3.44545 0
M  V30 24341 C 4351.83 -0.780241 -2.58481 0
M  V30 24342 C 4351.96 -0.738536 -1.17757 0
M  V30 24343 O 4351.98 -1.66794 -0.372349 0
M  V30 24344 N 4352.08 0.58337 -0.711393 0
M  V30 24345 C 4352.08 1.70816 -1.51017 0
M  V30 24346 N 4352.21 2.87826 -0.880757 0
M  V30 24347 N 4351.95 1.67126 -2.8339 0
M  V30 24348 C 4351.83 0.401421 -3.30572 0
M  V30 24349 H 4348.86 -0.374722 -8.67691 0
M  V30 24350 H 4348.59 -0.443485 -6.90277 0
M  V30 24351 H 4349.45 1.75537 -7.96793 0
M  V30 24352 H 4352.11 1.95076 -5.46529 0
M  V30 24353 H 4352.39 -0.608565 -7.04577 0
M  V30 24354 H 4353.38 0.889672 -7.08939 0
M  V30 24355 H 4351.54 0.43308 -9.04564 0
M  V30 24356 H 4351.5 -1.91249 -5.54442 0
M  V30 24357 H 4352.18 0.718054 0.275244 0
M  V30 24358 H 4352.21 3.75721 -1.41832 0
M  V30 24359 H 4352.32 2.90436 0.145468 0
M  V30 24360 P 4353.41 2.75334 -8.47391 0
M  V30 24361 O 4353.63 3.84128 -9.44797 0
M  V30 24362 O 4354.2 1.51947 -8.68712 0
M  V30 24363 O 4353.66 3.29363 -6.99321 0
M  V30 24364 C 4352.72 4.24011 -6.4274 0
M  V30 24365 C 4353.45 5.20775 -5.52155 0
M  V30 24366 O 4353.66 4.56534 -4.22446 0
M  V30 24367 C 4354.85 5.62629 -5.96531 0
M  V30 24368 O 4355.24 6.87667 -5.41053 0
M  V30 24369 C 4355.73 4.52537 -5.39283 0
M  V30 24370 C 4355.02 4.20027 -4.08623 0
M  V30 24371 N 4355.07 2.76189 -3.71603 0
M  V30 24372 H 4352.24 4.797 -7.24003 0
M  V30 24373 H 4351.97 3.69856 -5.84513 0
M  V30 24374 H 4352.83 6.10356 -5.41441 0
M  V30 24375 P 4356.79 7.20834 -5.23717 0
M  V30 24376 O 4357.01 8.66104 -5.38572 0
M  V30 24377 O 4357.58 6.33544 -6.1349 0
M  V30 24378 O 4357.04 6.7751 -3.72168 0
M  V30 24379 C 4356.1 7.20825 -2.7076 0
M  V30 24380 C 4356.83 7.45864 -1.40599 0
M  V30 24381 O 4357.04 6.17651 -0.734225 0
M  V30 24382 C 4358.23 8.05808 -1.51899 0
M  V30 24383 O 4358.62 8.74358 -0.335205 0
M  V30 24384 C 4359.11 6.83093 -1.70294 0
M  V30 24385 C 4358.4 5.79992 -0.836974 0
M  V30 24386 N 4358.45 4.41864 -1.38293 0
M  V30 24387 H 4355.62 8.13644 -3.0377 0
M  V30 24388 H 4355.35 6.42788 -2.55485 0
M  V30 24389 H 4356.21 8.12039 -0.792769 0
M  V30 24390 P 4360.17 8.91 -1.84828e-10 0
M  V30 24391 O 4360.39 10.1726 0.733694 0
M  V30 24392 O 4360.96 8.73148 -1.23936 0
M  V30 24393 O 4360.42 7.66872 0.971405 0
M  V30 24394 C 4359.48 7.42309 2.04641 0
M  V30 24395 C 4360.21 6.86059 3.24661 0
M  V30 24396 O 4360.42 5.42847 3.03646 0
M  V30 24397 C 4361.61 7.41196 3.50753 0
M  V30 24398 O 4362 7.27073 4.86816 0
M  V30 24399 C 4362.49 6.5273 2.63741 0
M  V30 24400 C 4361.78 5.1842 2.73198 0
M  V30 24401 N 4361.83 4.38762 1.4784 0
M  V30 24402 C 4361.75 4.81605 0.168631 0
M  V30 24403 N 4361.83 3.85454 -0.713363 0
M  V30 24404 C 4361.97 2.6994 0.0566958 0
M  V30 24405 C 4362.1 1.34815 -0.338502 0
M  V30 24406 N 4362.22 0.496304 0.77465 0
M  V30 24407 C 4362.22 0.908403 2.09122 0
M  V30 24408 N 4362.35 -0.0517805 3.00955 0
M  V30 24409 N 4362.09 2.17875 2.46519 0
M  V30 24410 C 4361.97 3.01988 1.4033 0
M  V30 24411 H 4359 8.36803 2.32493 0
M  V30 24412 H 4358.73 6.70197 1.71129 0
M  V30 24413 H 4359.59 7.03551 4.13168 0
M  V30 24414 P 4363.55 7.20834 5.23717 0
M  V30 24415 O 4363.77 7.79853 6.57286 0
M  V30 24416 O 4364.34 7.79239 4.12957 0
M  V30 24417 O 4363.8 5.63315 5.29344 0
M  V30 24418 C 4362.86 4.80255 6.01876 0
M  V30 24419 C 4363.59 3.64202 6.65911 0
M  V30 24420 O 4363.8 2.60694 5.64732 0
M  V30 24421 C 4364.99 3.93473 7.1943 0
M  V30 24422 O 4365.38 3.02071 8.21205 0
M  V30 24423 C 4365.87 3.73047 5.97036 0
M  V30 24424 C 4365.16 2.58828 5.25741 0
M  V30 24425 N 4365.21 2.68068 3.77503 0
M  V30 24426 H 4362.38 5.40332 6.79951 0
M  V30 24427 H 4362.11 4.41613 5.32378 0
M  V30 24428 H 4362.97 3.26331 7.47797 0
M  V30 24429 P 4366.93 2.75334 8.47391 0
M  V30 24430 O 4367.15 2.44571 9.90142 0
M  V30 24431 O 4367.72 3.87688 7.92115 0
M  V30 24432 O 4367.18 1.4459 7.59357 0
M  V30 24433 C 4366.24 0.347608 7.69215 0
M  V30 24434 C 4366.97 -0.96767 7.52806 0
M  V30 24435 O 4367.18 -1.21036 6.1011 0
M  V30 24436 C 4368.37 -1.04544 8.13308 0
M  V30 24437 O 4368.76 -2.38311 8.41922 0
M  V30 24438 C 4369.25 -0.491279 7.02284 0
M  V30 24439 C 4368.54 -0.996264 5.77469 0
M  V30 24440 N 4368.59 -0.0501916 4.62973 0
M  V30 24441 H 4365.76 0.374722 8.67691 0
M  V30 24442 H 4365.49 0.443485 6.90277 0
M  V30 24443 H 4366.35 -1.75537 7.96793 0
M  V30 24444 P 4370.31 -2.75334 8.47391 0
M  V30 24445 O 4370.53 -3.84204 9.44982 0
M  V30 24446 O 4371.1 -1.51982 8.68909 0
M  V30 24447 O 4370.56 -3.29363 6.99321 0
M  V30 24448 C 4369.62 -4.24066 6.42823 0
M  V30 24449 C 4370.35 -5.20775 5.52155 0
M  V30 24450 O 4370.56 -4.56607 4.22514 0
M  V30 24451 C 4371.75 -5.62697 5.96604 0
M  V30 24452 O 4372.14 -6.87667 5.41053 0
M  V30 24453 C 4372.63 -4.52537 5.39283 0
M  V30 24454 C 4371.92 -4.20027 4.08623 0
M  V30 24455 N 4371.97 -2.76189 3.71603 0
M  V30 24456 H 4369.14 -4.79756 7.24086 0
M  V30 24457 H 4368.86 -3.69963 5.84682 0
M  V30 24458 H 4369.73 -6.10431 5.41508 0
M  V30 24459 H 4372.39 -4.78816 3.28024 0
M  V30 24460 H 4372.67 -3.64957 6.05871 0
M  V30 24461 H 4373.66 -4.88748 5.21323 0
M  V30 24462 H 4371.82 -5.66789 7.0643 0
M  V30 24463 P 4373.69 -7.20834 5.23717 0
M  V30 24464 O 4373.91 -8.66104 5.38572 0
M  V30 24465 O 4374.48 -6.33544 6.1349 0
M  V30 24466 O 4373.94 -6.7751 3.72168 0
M  V30 24467 C 4373 -7.20825 2.7076 0
M  V30 24468 C 4373.73 -7.45864 1.40599 0
M  V30 24469 O 4373.94 -6.17651 0.734225 0
M  V30 24470 C 4375.13 -8.05808 1.51899 0
M  V30 24471 O 4375.52 -8.74358 0.335205 0
M  V30 24472 C 4376.01 -6.83093 1.70294 0
M  V30 24473 C 4375.3 -5.79992 0.836974 0
M  V30 24474 N 4375.35 -4.41864 1.38293 0
M  V30 24475 H 4372.52 -8.13644 3.0377 0
M  V30 24476 H 4372.25 -6.42788 2.55485 0
M  V30 24477 H 4373.11 -8.12039 0.792769 0
M  V30 24478 P 4377.07 -8.91 1.85937e-10 0
M  V30 24479 O 4377.29 -10.1726 -0.733694 0
M  V30 24480 O 4377.86 -8.73148 1.23936 0
M  V30 24481 O 4377.32 -7.66872 -0.971405 0
M  V30 24482 C 4376.38 -7.42309 -2.04641 0
M  V30 24483 C 4377.11 -6.86059 -3.24661 0
M  V30 24484 O 4377.32 -5.42847 -3.03646 0
M  V30 24485 C 4378.51 -7.41196 -3.50753 0
M  V30 24486 O 4378.9 -7.27073 -4.86816 0
M  V30 24487 C 4379.39 -6.5273 -2.63741 0
M  V30 24488 C 4378.68 -5.1842 -2.73198 0
M  V30 24489 N 4378.73 -4.38762 -1.4784 0
M  V30 24490 H 4375.9 -8.36803 -2.32493 0
M  V30 24491 H 4375.63 -6.70197 -1.71129 0
M  V30 24492 H 4376.49 -7.03551 -4.13168 0
M  V30 24493 P 4380.45 -7.20834 -5.23717 0
M  V30 24494 O 4380.67 -7.79853 -6.57286 0
M  V30 24495 O 4381.24 -7.79239 -4.12957 0
M  V30 24496 O 4380.7 -5.63315 -5.29344 0
M  V30 24497 C 4379.76 -4.80255 -6.01876 0
M  V30 24498 C 4380.49 -3.64202 -6.65911 0
M  V30 24499 O 4380.7 -2.60694 -5.64732 0
M  V30 24500 C 4381.89 -3.93473 -7.1943 0
M  V30 24501 O 4382.28 -3.02071 -8.21205 0
M  V30 24502 C 4382.77 -3.73047 -5.97036 0
M  V30 24503 C 4382.06 -2.58828 -5.25741 0
M  V30 24504 N 4382.11 -2.68068 -3.77503 0
M  V30 24505 H 4379.28 -5.40332 -6.79951 0
M  V30 24506 H 4379.01 -4.41613 -5.32378 0
M  V30 24507 H 4379.87 -3.26331 -7.47797 0
M  V30 24508 P 4383.83 -2.75334 -8.47391 0
M  V30 24509 O 4384.05 -2.44571 -9.90142 0
M  V30 24510 O 4384.62 -3.87688 -7.92115 0
M  V30 24511 O 4384.08 -1.4459 -7.59357 0
M  V30 24512 C 4383.14 -0.347608 -7.69215 0
M  V30 24513 C 4383.87 0.96767 -7.52806 0
M  V30 24514 O 4384.08 1.21036 -6.1011 0
M  V30 24515 C 4385.27 1.04544 -8.13308 0
M  V30 24516 O 4385.66 2.38311 -8.41922 0
M  V30 24517 C 4386.15 0.491279 -7.02284 0
M  V30 24518 C 4385.44 0.996264 -5.77469 0
M  V30 24519 N 4385.49 0.0501916 -4.62973 0
M  V30 24520 H 4382.66 -0.374722 -8.67691 0
M  V30 24521 H 4382.39 -0.443485 -6.90277 0
M  V30 24522 H 4383.25 1.75537 -7.96793 0
M  V30 24523 P 4387.21 2.75334 -8.47391 0
M  V30 24524 O 4387.43 3.84128 -9.44797 0
M  V30 24525 O 4388 1.51947 -8.68712 0
M  V30 24526 O 4387.46 3.29363 -6.99321 0
M  V30 24527 C 4386.52 4.24011 -6.4274 0
M  V30 24528 C 4387.25 5.20775 -5.52155 0
M  V30 24529 O 4387.46 4.56534 -4.22446 0
M  V30 24530 C 4388.65 5.62629 -5.96531 0
M  V30 24531 O 4389.04 6.87667 -5.41053 0
M  V30 24532 C 4389.53 4.52537 -5.39283 0
M  V30 24533 C 4388.82 4.20027 -4.08623 0
M  V30 24534 N 4388.87 2.76189 -3.71603 0
M  V30 24535 H 4386.04 4.797 -7.24003 0
M  V30 24536 H 4385.77 3.69856 -5.84513 0
M  V30 24537 H 4386.63 6.10356 -5.41441 0
M  V30 24538 P 4390.59 7.20834 -5.23717 0
M  V30 24539 O 4390.81 8.66104 -5.38572 0
M  V30 24540 O 4391.38 6.33544 -6.1349 0
M  V30 24541 O 4390.84 6.7751 -3.72168 0
M  V30 24542 C 4389.9 7.20825 -2.7076 0
M  V30 24543 C 4390.63 7.45864 -1.40599 0
M  V30 24544 O 4390.84 6.17651 -0.734225 0
M  V30 24545 C 4392.03 8.05808 -1.51899 0
M  V30 24546 O 4392.42 8.74358 -0.335205 0
M  V30 24547 C 4392.91 6.83093 -1.70294 0
M  V30 24548 C 4392.2 5.79992 -0.836974 0
M  V30 24549 N 4392.25 4.41864 -1.38293 0
M  V30 24550 H 4389.42 8.13644 -3.0377 0
M  V30 24551 H 4389.15 6.42788 -2.55485 0
M  V30 24552 H 4390.01 8.12039 -0.792769 0
M  V30 24553 P 4393.97 8.91 -1.87046e-10 0
M  V30 24554 O 4394.19 10.1726 0.733694 0
M  V30 24555 O 4394.76 8.73148 -1.23936 0
M  V30 24556 O 4394.22 7.66872 0.971405 0
M  V30 24557 C 4393.28 7.42309 2.04641 0
M  V30 24558 C 4394.01 6.86059 3.24661 0
M  V30 24559 O 4394.22 5.42847 3.03646 0
M  V30 24560 C 4395.41 7.41196 3.50753 0
M  V30 24561 O 4395.8 7.27073 4.86816 0
M  V30 24562 C 4396.29 6.5273 2.63741 0
M  V30 24563 C 4395.58 5.1842 2.73198 0
M  V30 24564 N 4395.63 4.38762 1.4784 0
M  V30 24565 C 4395.55 4.81605 0.168631 0
M  V30 24566 N 4395.63 3.85454 -0.713363 0
M  V30 24567 C 4395.77 2.6994 0.0566958 0
M  V30 24568 C 4395.9 1.34815 -0.338502 0
M  V30 24569 N 4396.02 0.496304 0.77465 0
M  V30 24570 C 4396.02 0.908403 2.09122 0
M  V30 24571 N 4396.15 -0.0517805 3.00955 0
M  V30 24572 N 4395.89 2.17875 2.46519 0
M  V30 24573 C 4395.77 3.01988 1.4033 0
M  V30 24574 H 4392.8 8.36803 2.32493 0
M  V30 24575 H 4392.53 6.70197 1.71129 0
M  V30 24576 H 4393.39 7.03551 4.13168 0
M  V30 24577 P 4397.35 7.20834 5.23717 0
M  V30 24578 O 4397.57 7.79853 6.57286 0
M  V30 24579 O 4398.14 7.79239 4.12957 0
M  V30 24580 O 4397.6 5.63315 5.29344 0
M  V30 24581 C 4396.66 4.80255 6.01876 0
M  V30 24582 C 4397.39 3.64202 6.65911 0
M  V30 24583 O 4397.6 2.60694 5.64732 0
M  V30 24584 C 4398.79 3.93473 7.1943 0
M  V30 24585 O 4399.18 3.02071 8.21205 0
M  V30 24586 C 4399.67 3.73047 5.97036 0
M  V30 24587 C 4398.96 2.58828 5.25741 0
M  V30 24588 N 4399.01 2.68068 3.77503 0
M  V30 24589 H 4396.17 5.40332 6.79951 0
M  V30 24590 H 4395.9 4.41613 5.32378 0
M  V30 24591 H 4396.77 3.26331 7.47797 0
M  V30 24592 P 4400.73 2.75334 8.47391 0
M  V30 24593 O 4400.95 2.44571 9.90142 0
M  V30 24594 O 4401.52 3.87688 7.92115 0
M  V30 24595 O 4400.98 1.4459 7.59357 0
M  V30 24596 C 4400.04 0.347608 7.69215 0
M  V30 24597 C 4400.77 -0.96767 7.52806 0
M  V30 24598 O 4400.98 -1.21036 6.1011 0
M  V30 24599 C 4402.17 -1.04544 8.13308 0
M  V30 24600 O 4402.56 -2.38311 8.41922 0
M  V30 24601 C 4403.05 -0.491279 7.02284 0
M  V30 24602 C 4402.34 -0.996264 5.77469 0
M  V30 24603 N 4402.39 -0.0501916 4.62973 0
M  V30 24604 H 4399.55 0.374722 8.67691 0
M  V30 24605 H 4399.28 0.443485 6.90277 0
M  V30 24606 H 4400.15 -1.75537 7.96793 0
M  V30 24607 P 4404.11 -2.75334 8.47391 0
M  V30 24608 O 4404.33 -3.84128 9.44797 0
M  V30 24609 O 4404.9 -1.51947 8.68712 0
M  V30 24610 O 4404.36 -3.29363 6.99321 0
M  V30 24611 C 4403.42 -4.24011 6.4274 0
M  V30 24612 C 4404.15 -5.20775 5.52155 0
M  V30 24613 O 4404.36 -4.56534 4.22446 0
M  V30 24614 C 4405.55 -5.62629 5.96531 0
M  V30 24615 O 4405.94 -6.87667 5.41053 0
M  V30 24616 C 4406.43 -4.52537 5.39283 0
M  V30 24617 C 4405.72 -4.20027 4.08623 0
M  V30 24618 N 4405.77 -2.76189 3.71603 0
M  V30 24619 H 4402.93 -4.797 7.24003 0
M  V30 24620 H 4402.66 -3.69856 5.84513 0
M  V30 24621 H 4403.53 -6.10356 5.41441 0
M  V30 24622 P 4407.49 -7.20834 5.23717 0
M  V30 24623 O 4407.71 -8.66104 5.38572 0
M  V30 24624 O 4408.28 -6.33544 6.1349 0
M  V30 24625 O 4407.74 -6.7751 3.72168 0
M  V30 24626 C 4406.8 -7.20825 2.7076 0
M  V30 24627 C 4407.53 -7.45864 1.40599 0
M  V30 24628 O 4407.74 -6.17651 0.734225 0
M  V30 24629 C 4408.93 -8.05808 1.51899 0
M  V30 24630 O 4409.32 -8.74358 0.335205 0
M  V30 24631 C 4409.81 -6.83093 1.70294 0
M  V30 24632 C 4409.1 -5.79992 0.836974 0
M  V30 24633 N 4409.15 -4.41864 1.38293 0
M  V30 24634 H 4406.31 -8.13644 3.0377 0
M  V30 24635 H 4406.04 -6.42788 2.55485 0
M  V30 24636 H 4406.91 -8.12039 0.792769 0
M  V30 24637 P 4410.87 -8.91 1.88155e-10 0
M  V30 24638 O 4411.09 -10.1726 -0.733694 0
M  V30 24639 O 4411.66 -8.73148 1.23936 0
M  V30 24640 O 4411.12 -7.66872 -0.971405 0
M  V30 24641 C 4410.18 -7.42309 -2.04641 0
M  V30 24642 C 4410.91 -6.86059 -3.24661 0
M  V30 24643 O 4411.12 -5.42847 -3.03646 0
M  V30 24644 C 4412.31 -7.41196 -3.50753 0
M  V30 24645 O 4412.7 -7.27073 -4.86816 0
M  V30 24646 C 4413.19 -6.5273 -2.63741 0
M  V30 24647 C 4412.48 -5.1842 -2.73198 0
M  V30 24648 N 4412.53 -4.38762 -1.4784 0
M  V30 24649 H 4409.69 -8.36803 -2.32493 0
M  V30 24650 H 4409.42 -6.70197 -1.71129 0
M  V30 24651 H 4410.29 -7.03551 -4.13168 0
M  V30 24652 P 4414.25 -7.20834 -5.23717 0
M  V30 24653 O 4414.47 -7.79853 -6.57286 0
M  V30 24654 O 4415.04 -7.79239 -4.12957 0
M  V30 24655 O 4414.5 -5.63315 -5.29344 0
M  V30 24656 C 4413.56 -4.80255 -6.01876 0
M  V30 24657 C 4414.29 -3.64202 -6.65911 0
M  V30 24658 O 4414.5 -2.60694 -5.64732 0
M  V30 24659 C 4415.69 -3.93473 -7.1943 0
M  V30 24660 O 4416.08 -3.02071 -8.21205 0
M  V30 24661 C 4416.57 -3.73047 -5.97036 0
M  V30 24662 C 4415.86 -2.58828 -5.25741 0
M  V30 24663 N 4415.91 -2.68068 -3.77503 0
M  V30 24664 H 4413.07 -5.40332 -6.79951 0
M  V30 24665 H 4412.8 -4.41613 -5.32378 0
M  V30 24666 H 4413.67 -3.26331 -7.47797 0
M  V30 24667 P 4417.63 -2.75334 -8.47391 0
M  V30 24668 O 4417.85 -2.44571 -9.90142 0
M  V30 24669 O 4418.42 -3.87688 -7.92115 0
M  V30 24670 O 4417.88 -1.4459 -7.59357 0
M  V30 24671 C 4416.94 -0.347608 -7.69215 0
M  V30 24672 C 4417.67 0.96767 -7.52806 0
M  V30 24673 O 4417.88 1.21036 -6.1011 0
M  V30 24674 C 4419.07 1.04544 -8.13308 0
M  V30 24675 O 4419.46 2.38311 -8.41922 0
M  V30 24676 C 4419.95 0.491279 -7.02284 0
M  V30 24677 C 4419.24 0.996264 -5.77469 0
M  V30 24678 N 4419.29 0.0501916 -4.62973 0
M  V30 24679 H 4416.45 -0.374722 -8.67691 0
M  V30 24680 H 4416.18 -0.443485 -6.90277 0
M  V30 24681 H 4417.05 1.75537 -7.96793 0
M  V30 24682 P 4421.01 2.75334 -8.47391 0
M  V30 24683 O 4421.23 3.84128 -9.44797 0
M  V30 24684 O 4421.8 1.51947 -8.68712 0
M  V30 24685 O 4421.26 3.29363 -6.99321 0
M  V30 24686 C 4420.32 4.24011 -6.4274 0
M  V30 24687 C 4421.05 5.20775 -5.52155 0
M  V30 24688 O 4421.26 4.56534 -4.22446 0
M  V30 24689 C 4422.45 5.62629 -5.96531 0
M  V30 24690 O 4422.84 6.87667 -5.41053 0
M  V30 24691 C 4423.33 4.52537 -5.39283 0
M  V30 24692 C 4422.62 4.20027 -4.08623 0
M  V30 24693 N 4422.67 2.76189 -3.71603 0
M  V30 24694 H 4419.83 4.797 -7.24003 0
M  V30 24695 H 4419.56 3.69856 -5.84513 0
M  V30 24696 H 4420.43 6.10356 -5.41441 0
M  V30 24697 P 4424.39 7.20834 -5.23717 0
M  V30 24698 O 4424.61 8.66104 -5.38572 0
M  V30 24699 O 4425.18 6.33544 -6.1349 0
M  V30 24700 O 4424.64 6.7751 -3.72168 0
M  V30 24701 C 4423.7 7.20825 -2.7076 0
M  V30 24702 C 4424.43 7.45864 -1.40599 0
M  V30 24703 O 4424.64 6.17651 -0.734225 0
M  V30 24704 C 4425.83 8.05808 -1.51899 0
M  V30 24705 O 4426.22 8.74358 -0.335205 0
M  V30 24706 C 4426.71 6.83093 -1.70294 0
M  V30 24707 C 4426 5.79992 -0.836974 0
M  V30 24708 N 4426.05 4.41864 -1.38293 0
M  V30 24709 H 4423.21 8.13644 -3.0377 0
M  V30 24710 H 4422.94 6.42788 -2.55485 0
M  V30 24711 H 4423.81 8.12039 -0.792769 0
M  V30 24712 P 4427.77 8.91 -1.89264e-10 0
M  V30 24713 O 4427.99 10.1726 0.733694 0
M  V30 24714 O 4428.56 8.73148 -1.23936 0
M  V30 24715 O 4428.02 7.66872 0.971405 0
M  V30 24716 C 4427.08 7.42309 2.04641 0
M  V30 24717 C 4427.81 6.86059 3.24661 0
M  V30 24718 O 4428.02 5.42847 3.03646 0
M  V30 24719 C 4429.21 7.41196 3.50753 0
M  V30 24720 O 4429.6 7.27073 4.86816 0
M  V30 24721 C 4430.09 6.5273 2.63741 0
M  V30 24722 C 4429.38 5.1842 2.73198 0
M  V30 24723 N 4429.43 4.38762 1.4784 0
M  V30 24724 H 4426.59 8.36803 2.32493 0
M  V30 24725 H 4426.32 6.70197 1.71129 0
M  V30 24726 H 4427.19 7.03551 4.13168 0
M  V30 24727 P 4431.15 7.20834 5.23717 0
M  V30 24728 O 4431.37 7.79853 6.57286 0
M  V30 24729 O 4431.94 7.79239 4.12957 0
M  V30 24730 O 4431.4 5.63315 5.29344 0
M  V30 24731 C 4430.46 4.80255 6.01876 0
M  V30 24732 C 4431.19 3.64202 6.65911 0
M  V30 24733 O 4431.4 2.60694 5.64732 0
M  V30 24734 C 4432.59 3.93473 7.1943 0
M  V30 24735 O 4432.98 3.02071 8.21205 0
M  V30 24736 C 4433.47 3.73047 5.97036 0
M  V30 24737 C 4432.76 2.58828 5.25741 0
M  V30 24738 N 4432.81 2.68068 3.77503 0
M  V30 24739 H 4429.97 5.40332 6.79951 0
M  V30 24740 H 4429.7 4.41613 5.32378 0
M  V30 24741 H 4430.57 3.26331 7.47797 0
M  V30 24742 P 4434.53 2.75334 8.47391 0
M  V30 24743 O 4434.75 2.44571 9.90142 0
M  V30 24744 O 4435.32 3.87688 7.92115 0
M  V30 24745 O 4434.78 1.4459 7.59357 0
M  V30 24746 C 4433.84 0.347608 7.69215 0
M  V30 24747 C 4434.57 -0.96767 7.52806 0
M  V30 24748 O 4434.78 -1.21036 6.1011 0
M  V30 24749 C 4435.97 -1.04544 8.13308 0
M  V30 24750 O 4436.36 -2.38311 8.41922 0
M  V30 24751 C 4436.85 -0.491279 7.02284 0
M  V30 24752 C 4436.14 -0.996264 5.77469 0
M  V30 24753 N 4436.19 -0.0501916 4.62973 0
M  V30 24754 C 4436.11 1.32786 4.63244 0
M  V30 24755 N 4436.19 1.86957 3.44545 0
M  V30 24756 C 4436.33 0.780241 2.58481 0
M  V30 24757 C 4436.46 0.738536 1.17757 0
M  V30 24758 N 4436.58 -0.58337 0.711393 0
M  V30 24759 C 4436.58 -1.70816 1.51017 0
M  V30 24760 N 4436.71 -2.87826 0.880757 0
M  V30 24761 N 4436.45 -1.67126 2.8339 0
M  V30 24762 C 4436.33 -0.401421 3.30572 0
M  V30 24763 H 4433.35 0.374722 8.67691 0
M  V30 24764 H 4433.08 0.443485 6.90277 0
M  V30 24765 H 4433.95 -1.75537 7.96793 0
M  V30 24766 P 4437.91 -2.75334 8.47391 0
M  V30 24767 O 4438.13 -3.84128 9.44797 0
M  V30 24768 O 4438.7 -1.51947 8.68712 0
M  V30 24769 O 4438.16 -3.29363 6.99321 0
M  V30 24770 C 4437.22 -4.24011 6.4274 0
M  V30 24771 C 4437.95 -5.20775 5.52155 0
M  V30 24772 O 4438.16 -4.56534 4.22446 0
M  V30 24773 C 4439.35 -5.62629 5.96531 0
M  V30 24774 O 4439.74 -6.87667 5.41053 0
M  V30 24775 C 4440.23 -4.52537 5.39283 0
M  V30 24776 C 4439.52 -4.20027 4.08623 0
M  V30 24777 N 4439.57 -2.76189 3.71603 0
M  V30 24778 H 4436.73 -4.797 7.24003 0
M  V30 24779 H 4436.46 -3.69856 5.84513 0
M  V30 24780 H 4437.33 -6.10356 5.41441 0
M  V30 24781 P 4441.29 -7.20834 5.23717 0
M  V30 24782 O 4441.51 -8.66189 5.38625 0
M  V30 24783 O 4442.08 -6.33615 6.1356 0
M  V30 24784 O 4441.54 -6.7751 3.72168 0
M  V30 24785 C 4440.6 -7.20732 2.70725 0
M  V30 24786 C 4441.33 -7.45864 1.40599 0
M  V30 24787 O 4441.54 -6.17651 0.734225 0
M  V30 24788 C 4442.73 -8.05808 1.51899 0
M  V30 24789 O 4443.12 -8.74358 0.335205 0
M  V30 24790 C 4443.61 -6.83093 1.70294 0
M  V30 24791 C 4442.9 -5.79992 0.836974 0
M  V30 24792 N 4442.95 -4.41769 1.38263 0
M  V30 24793 C 4443.1 -3.38591 0.481702 0
M  V30 24794 O 4443.19 -3.56839 -0.718452 0
M  V30 24795 N 4443.14 -2.1206 1.03569 0
M  V30 24796 C 4443.05 -1.80696 2.36966 0
M  V30 24797 O 4443.1 -0.630473 2.74862 0
M  V30 24798 C 4442.9 -2.94845 3.23898 0
M  V30 24799 C 4442.79 -2.65253 4.70362 0
M  V30 24800 C 4442.85 -4.19803 2.73435 0
M  V30 24801 H 4440.11 -8.13644 3.0377 0
M  V30 24802 H 4439.84 -6.42695 2.55448 0
M  V30 24803 H 4440.71 -8.12039 0.792769 0
M  V30 24804 H 4443.37 -5.79978 -0.160587 0
M  V30 24805 H 4443.65 -6.51379 2.75643 0
M  V30 24806 H 4444.64 -7.01734 1.34462 0
M  V30 24807 H 4442.8 -8.73674 2.38337 0
M  V30 24808 H 4442.73 -5.04492 3.4095 0
M  V30 24809 H 4443.76 -2.83924 5.1913 0
M  V30 24810 H 4442.03 -3.29824 5.15163 0
M  V30 24811 H 4442.51 -1.59723 4.84449 0
M  V30 24812 H 4443.25 -1.35644 0.399345 0
M  V30 24813 P 4444.67 -8.91 1.90373e-10 0
M  V30 24814 O 4444.89 -10.1726 -0.733694 0
M  V30 24815 O 4445.46 -8.73148 1.23936 0
M  V30 24816 O 4444.92 -7.66872 -0.971405 0
M  V30 24817 C 4443.98 -7.42309 -2.04641 0
M  V30 24818 C 4444.71 -6.86059 -3.24661 0
M  V30 24819 O 4444.92 -5.42847 -3.03646 0
M  V30 24820 C 4446.11 -7.41196 -3.50753 0
M  V30 24821 O 4446.5 -7.27073 -4.86816 0
M  V30 24822 C 4446.99 -6.5273 -2.63741 0
M  V30 24823 C 4446.28 -5.1842 -2.73198 0
M  V30 24824 N 4446.33 -4.38762 -1.4784 0
M  V30 24825 H 4443.49 -8.36803 -2.32493 0
M  V30 24826 H 4443.22 -6.70197 -1.71129 0
M  V30 24827 H 4444.09 -7.03551 -4.13168 0
M  V30 24828 P 4448.05 -7.20834 -5.23717 0
M  V30 24829 O 4448.27 -7.79853 -6.57286 0
M  V30 24830 O 4448.84 -7.79239 -4.12957 0
M  V30 24831 O 4448.3 -5.63315 -5.29344 0
M  V30 24832 C 4447.36 -4.80255 -6.01876 0
M  V30 24833 C 4448.09 -3.64202 -6.65911 0
M  V30 24834 O 4448.3 -2.60694 -5.64732 0
M  V30 24835 C 4449.49 -3.93473 -7.1943 0
M  V30 24836 O 4449.88 -3.02071 -8.21205 0
M  V30 24837 C 4450.37 -3.73047 -5.97036 0
M  V30 24838 C 4449.66 -2.58828 -5.25741 0
M  V30 24839 N 4449.71 -2.68068 -3.77503 0
M  V30 24840 H 4446.87 -5.40332 -6.79951 0
M  V30 24841 H 4446.6 -4.41613 -5.32378 0
M  V30 24842 H 4447.47 -3.26331 -7.47797 0
M  V30 24843 P 4451.43 -2.75334 -8.47391 0
M  V30 24844 O 4451.65 -2.44571 -9.90142 0
M  V30 24845 O 4452.22 -3.87688 -7.92115 0
M  V30 24846 O 4451.68 -1.4459 -7.59357 0
M  V30 24847 C 4450.74 -0.347608 -7.69215 0
M  V30 24848 C 4451.47 0.96767 -7.52806 0
M  V30 24849 O 4451.68 1.21036 -6.1011 0
M  V30 24850 C 4452.87 1.04544 -8.13308 0
M  V30 24851 O 4453.26 2.38311 -8.41922 0
M  V30 24852 C 4453.75 0.491279 -7.02284 0
M  V30 24853 C 4453.04 0.996264 -5.77469 0
M  V30 24854 N 4453.09 0.0501916 -4.62973 0
M  V30 24855 C 4453.01 -1.32786 -4.63244 0
M  V30 24856 N 4453.09 -1.86957 -3.44545 0
M  V30 24857 C 4453.23 -0.780241 -2.58481 0
M  V30 24858 C 4453.36 -0.738536 -1.17757 0
M  V30 24859 N 4453.48 0.58337 -0.711393 0
M  V30 24860 C 4453.48 1.70816 -1.51017 0
M  V30 24861 N 4453.61 2.87826 -0.880757 0
M  V30 24862 N 4453.35 1.67126 -2.8339 0
M  V30 24863 C 4453.23 0.401421 -3.30572 0
M  V30 24864 H 4450.25 -0.374722 -8.67691 0
M  V30 24865 H 4449.98 -0.443485 -6.90277 0
M  V30 24866 H 4450.85 1.75537 -7.96793 0
M  V30 24867 P 4454.81 2.75334 -8.47391 0
M  V30 24868 O 4455.03 3.84128 -9.44797 0
M  V30 24869 O 4455.6 1.51947 -8.68712 0
M  V30 24870 O 4455.06 3.29363 -6.99321 0
M  V30 24871 C 4454.12 4.24011 -6.4274 0
M  V30 24872 C 4454.85 5.20775 -5.52155 0
M  V30 24873 O 4455.06 4.56534 -4.22446 0
M  V30 24874 C 4456.25 5.62629 -5.96531 0
M  V30 24875 O 4456.64 6.87667 -5.41053 0
M  V30 24876 C 4457.13 4.52537 -5.39283 0
M  V30 24877 C 4456.42 4.20027 -4.08623 0
M  V30 24878 N 4456.47 2.76189 -3.71603 0
M  V30 24879 C 4456.39 1.64862 -4.52822 0
M  V30 24880 N 4456.47 0.512671 -3.88633 0
M  V30 24881 C 4456.61 0.888083 -2.54977 0
M  V30 24882 C 4456.74 0.094668 -1.38677 0
M  V30 24883 N 4456.86 0.890102 -0.232633 0
M  V30 24884 C 4456.86 2.26958 -0.21772 0
M  V30 24885 N 4456.99 2.84626 0.97925 0
M  V30 24886 N 4456.73 3.0178 -1.31033 0
M  V30 24887 C 4456.61 2.26781 -2.43843 0
M  V30 24888 H 4453.63 4.797 -7.24003 0
M  V30 24889 H 4453.36 3.69856 -5.84513 0
M  V30 24890 H 4454.23 6.10356 -5.41441 0
M  V30 24891 P 4458.19 7.20834 -5.23717 0
M  V30 24892 O 4458.41 8.66274 -5.38678 0
M  V30 24893 O 4458.98 6.33687 -6.13629 0
M  V30 24894 O 4458.44 6.7751 -3.72168 0
M  V30 24895 C 4457.5 7.20919 -2.70795 0
M  V30 24896 C 4458.23 7.45864 -1.40599 0
M  V30 24897 O 4458.44 6.17751 -0.734343 0
M  V30 24898 C 4459.63 8.05906 -1.51917 0
M  V30 24899 O 4460.02 8.74358 -0.335205 0
M  V30 24900 C 4460.51 6.83093 -1.70294 0
M  V30 24901 C 4459.8 5.79992 -0.836974 0
M  V30 24902 N 4459.85 4.41864 -1.38293 0
M  V30 24903 C 4459.77 4.02089 -2.69407 0
M  V30 24904 N 4459.84 2.73403 -2.85089 0
M  V30 24905 C 4459.99 2.25086 -1.5642 0
M  V30 24906 C 4460.12 0.942887 -1.04836 0
M  V30 24907 N 4460.13 -0.150999 -1.80369 0
M  V30 24908 N 4460.24 0.812565 0.28167 0
M  V30 24909 C 4460.23 1.90572 1.03784 0
M  V30 24910 N 4460.11 3.167 0.683905 0
M  V30 24911 C 4459.99 3.26538 -0.652815 0
M  V30 24912 H 4457.02 8.13738 -3.03804 0
M  V30 24913 H 4456.74 6.42974 -2.55559 0
M  V30 24914 H 4457.61 8.12139 -0.792866 0
M  V30 24915 H 4460.27 5.80178 0.160643 0
M  V30 24916 H 4460.55 6.51379 -2.75643 0
M  V30 24917 H 4461.54 7.01832 -1.3448 0
M  V30 24918 H 4459.7 8.73771 -2.38364 0
M  V30 24919 H 4459.66 4.7189 -3.52311 0
M  V30 24920 H 4460.04 -0.0721434 -2.82608 0
M  V30 24921 H 4460.23 -1.0785 -1.36544 0
M  V30 24922 H 4460.34 1.73207 2.10241 0
M  V30 24923 P 4461.57 8.91 -1.91482e-10 0
M  V30 24924 O 4461.79 10.1746 0.733838 0
M  V30 24925 O 4462.36 8.73346 -1.23964 0
M  V30 24926 O 4461.82 7.66872 0.971405 0
M  V30 24927 C 4460.88 7.42405 2.04668 0
M  V30 24928 C 4461.61 6.86059 3.24661 0
M  V30 24929 O 4461.82 5.42934 3.03695 0
M  V30 24930 C 4463.01 7.41287 3.50796 0
M  V30 24931 O 4463.4 7.27073 4.86816 0
M  V30 24932 C 4463.89 6.5273 2.63741 0
M  V30 24933 C 4463.18 5.1842 2.73198 0
M  V30 24934 N 4463.23 4.38762 1.4784 0
M  V30 24935 C 4463.15 4.83651 0.183876 0
M  V30 24936 N 4463.22 3.88759 -0.699393 0
M  V30 24937 C 4463.37 2.7404 0.0575568 0
M  V30 24938 C 4463.5 1.37902 -0.293928 0
M  V30 24939 N 4463.51 0.938021 -1.54797 0
M  V30 24940 N 4463.62 0.491817 0.70549 0
M  V30 24941 C 4463.61 0.931735 1.95979 0
M  V30 24942 N 4463.49 2.16017 2.41481 0
M  V30 24943 C 4463.37 3.02547 1.39121 0
M  V30 24944 H 4460.4 8.36899 2.3252 0
M  V30 24945 H 4460.12 6.70391 1.71179 0
M  V30 24946 H 4460.99 7.03638 4.13219 0
M  V30 24947 H 4463.65 4.59931 3.54016 0
M  V30 24948 H 4463.93 6.88995 1.59871 0
M  V30 24949 H 4464.92 6.4684 3.0373 0
M  V30 24950 H 4463.08 8.47002 3.20749 0
M  V30 24951 H 4463.04 5.8885 -0.0765548 0
M  V30 24952 H 4463.42 1.60276 -2.32875 0
M  V30 24953 H 4463.61 -0.0699355 -1.73859 0
M  V30 24954 H 4463.72 0.165507 2.71897 0
M  V30 24955 P 4464.95 7.20834 5.23717 0
M  V30 24956 O 4465.17 7.7993 6.57351 0
M  V30 24957 O 4465.74 7.79328 4.13004 0
M  V30 24958 O 4465.2 5.63315 5.29344 0
M  V30 24959 C 4464.26 4.80193 6.01798 0
M  V30 24960 C 4464.99 3.64202 6.65911 0
M  V30 24961 O 4465.2 2.60694 5.64732 0
M  V30 24962 C 4466.39 3.93473 7.1943 0
M  V30 24963 O 4466.78 3.02071 8.21205 0
M  V30 24964 C 4467.27 3.73047 5.97036 0
M  V30 24965 C 4466.56 2.58828 5.25741 0
M  V30 24966 N 4466.61 2.6801 3.77422 0
M  V30 24967 C 4466.76 1.50443 3.07133 0
M  V30 24968 O 4466.85 0.419406 3.61576 0
M  V30 24969 N 4466.8 1.6403 1.69677 0
M  V30 24970 C 4466.71 2.81206 0.986255 0
M  V30 24971 O 4466.76 2.80892 -0.249754 0
M  V30 24972 C 4466.56 3.99158 1.80325 0
M  V30 24973 C 4466.45 5.29309 1.06921 0
M  V30 24974 C 4466.51 3.89779 3.1476 0
M  V30 24975 H 4463.77 5.40332 6.79951 0
M  V30 24976 H 4463.5 4.41549 5.32301 0
M  V30 24977 H 4464.37 3.26331 7.47797 0
M  V30 24978 H 4467.03 1.6395 5.56554 0
M  V30 24979 H 4467.31 4.63439 5.3432 0
M  V30 24980 H 4468.3 3.44728 6.25838 0
M  V30 24981 H 4466.46 4.96652 7.57263 0
M  V30 24982 H 4466.39 4.80159 3.74441 0
M  V30 24983 H 4467.42 5.81459 1.09608 0
M  V30 24984 H 4465.69 5.9187 1.54487 0
M  V30 24985 H 4466.17 5.10095 0.0220288 0
M  V30 24986 H 4466.91 0.798962 1.16664 0
M  V30 24987 P 4468.33 2.75334 8.47391 0
M  V30 24988 O 4468.55 2.44571 9.90142 0
M  V30 24989 O 4469.12 3.87688 7.92115 0
M  V30 24990 O 4468.58 1.4459 7.59357 0
M  V30 24991 C 4467.64 0.347608 7.69215 0
M  V30 24992 C 4468.37 -0.96767 7.52806 0
M  V30 24993 O 4468.58 -1.21036 6.1011 0
M  V30 24994 C 4469.77 -1.04544 8.13308 0
M  V30 24995 O 4470.16 -2.38311 8.41922 0
M  V30 24996 C 4470.65 -0.491279 7.02284 0
M  V30 24997 C 4469.94 -0.996264 5.77469 0
M  V30 24998 N 4469.99 -0.0501916 4.62973 0
M  V30 24999 H 4467.15 0.374722 8.67691 0
M  V30 25000 H 4466.88 0.443485 6.90277 0
M  V30 25001 H 4467.75 -1.75537 7.96793 0
M  V30 25002 P 4471.71 -2.75334 8.47391 0
M  V30 25003 O 4471.93 -3.84166 9.4489 0
M  V30 25004 O 4472.5 -1.51964 8.6881 0
M  V30 25005 O 4471.96 -3.29363 6.99321 0
M  V30 25006 C 4471.02 -4.23956 6.42656 0
M  V30 25007 C 4471.75 -5.20775 5.52155 0
M  V30 25008 O 4471.96 -4.56534 4.22446 0
M  V30 25009 C 4473.15 -5.62629 5.96531 0
M  V30 25010 O 4473.54 -6.87667 5.41053 0
M  V30 25011 C 4474.03 -4.52537 5.39283 0
M  V30 25012 C 4473.32 -4.20027 4.08623 0
M  V30 25013 N 4473.37 -2.7613 3.71522 0
M  V30 25014 C 4473.52 -2.45612 2.37989 0
M  V30 25015 O 4473.61 -3.30919 1.51621 0
M  V30 25016 N 4473.56 -1.10684 2.08435 0
M  V30 25017 C 4473.47 -0.0690084 2.9792 0
M  V30 25018 O 4473.52 1.10553 2.59426 0
M  V30 25019 C 4473.32 -0.481522 4.35345 0
M  V30 25020 C 4473.21 0.618778 5.36443 0
M  V30 25021 C 4473.27 -1.78906 4.67968 0
M  V30 25022 H 4470.53 -4.797 7.24003 0
M  V30 25023 H 4470.26 -3.69802 5.84429 0
M  V30 25024 H 4471.13 -6.10356 5.41441 0
M  V30 25025 H 4473.79 -4.78651 3.27911 0
M  V30 25026 H 4474.07 -3.64957 6.05871 0
M  V30 25027 H 4475.06 -4.8868 5.2125 0
M  V30 25028 H 4473.22 -5.66726 7.06352 0
M  V30 25029 H 4473.15 -2.07737 5.72367 0
M  V30 25030 H 4474.18 0.754375 5.86871 0
M  V30 25031 H 4472.45 0.359721 6.10641 0
M  V30 25032 H 4472.93 1.55533 4.8581 0
M  V30 25033 H 4473.67 -0.862651 1.12037 0
M  V30 25034 P 4475.09 -7.20834 5.23717 0
M  V30 25035 O 4475.31 -8.66104 5.38572 0
M  V30 25036 O 4475.88 -6.33544 6.1349 0
M  V30 25037 O 4475.34 -6.7751 3.72168 0
M  V30 25038 C 4474.4 -7.20825 2.7076 0
M  V30 25039 C 4475.13 -7.45864 1.40599 0
M  V30 25040 O 4475.34 -6.17651 0.734225 0
M  V30 25041 C 4476.53 -8.05808 1.51899 0
M  V30 25042 O 4476.92 -8.74358 0.335205 0
M  V30 25043 C 4477.41 -6.83093 1.70294 0
M  V30 25044 C 4476.7 -5.79992 0.836974 0
M  V30 25045 N 4476.75 -4.41864 1.38293 0
M  V30 25046 H 4473.91 -8.13644 3.0377 0
M  V30 25047 H 4473.64 -6.42788 2.55485 0
M  V30 25048 H 4474.51 -8.12039 0.792769 0
M  V30 25049 P 4478.47 -8.91 1.92591e-10 0
M  V30 25050 O 4478.69 -10.1726 -0.733694 0
M  V30 25051 O 4479.26 -8.73148 1.23936 0
M  V30 25052 O 4478.72 -7.66872 -0.971405 0
M  V30 25053 C 4477.78 -7.42309 -2.04641 0
M  V30 25054 C 4478.51 -6.86059 -3.24661 0
M  V30 25055 O 4478.72 -5.42847 -3.03646 0
M  V30 25056 C 4479.91 -7.41196 -3.50753 0
M  V30 25057 O 4480.3 -7.27073 -4.86816 0
M  V30 25058 C 4480.79 -6.5273 -2.63741 0
M  V30 25059 C 4480.08 -5.1842 -2.73198 0
M  V30 25060 N 4480.13 -4.38762 -1.4784 0
M  V30 25061 H 4477.29 -8.36803 -2.32493 0
M  V30 25062 H 4477.02 -6.70197 -1.71129 0
M  V30 25063 H 4477.89 -7.03551 -4.13168 0
M  V30 25064 P 4481.85 -7.20834 -5.23717 0
M  V30 25065 O 4482.07 -7.7993 -6.57351 0
M  V30 25066 O 4482.64 -7.79328 -4.13004 0
M  V30 25067 O 4482.1 -5.63315 -5.29344 0
M  V30 25068 C 4481.16 -4.80193 -6.01798 0
M  V30 25069 C 4481.89 -3.64202 -6.65911 0
M  V30 25070 O 4482.1 -2.60694 -5.64732 0
M  V30 25071 C 4483.29 -3.93473 -7.1943 0
M  V30 25072 O 4483.68 -3.02071 -8.21205 0
M  V30 25073 C 4484.17 -3.73047 -5.97036 0
M  V30 25074 C 4483.46 -2.58828 -5.25741 0
M  V30 25075 N 4483.51 -2.6801 -3.77422 0
M  V30 25076 C 4483.66 -1.50443 -3.07133 0
M  V30 25077 O 4483.75 -0.419406 -3.61576 0
M  V30 25078 N 4483.7 -1.6403 -1.69677 0
M  V30 25079 C 4483.61 -2.81206 -0.986255 0
M  V30 25080 O 4483.66 -2.80892 0.249754 0
M  V30 25081 C 4483.46 -3.99158 -1.80325 0
M  V30 25082 C 4483.35 -5.29309 -1.06921 0
M  V30 25083 C 4483.41 -3.89779 -3.1476 0
M  V30 25084 H 4480.67 -5.40332 -6.79951 0
M  V30 25085 H 4480.4 -4.41549 -5.32301 0
M  V30 25086 H 4481.27 -3.26331 -7.47797 0
M  V30 25087 H 4483.93 -1.6395 -5.56554 0
M  V30 25088 H 4484.21 -4.63439 -5.3432 0
M  V30 25089 H 4485.2 -3.44728 -6.25838 0
M  V30 25090 H 4483.36 -4.96652 -7.57263 0
M  V30 25091 H 4483.29 -4.80159 -3.74441 0
M  V30 25092 H 4484.32 -5.81459 -1.09608 0
M  V30 25093 H 4482.59 -5.9187 -1.54487 0
M  V30 25094 H 4483.07 -5.10095 -0.0220288 0
M  V30 25095 H 4483.81 -0.798962 -1.16664 0
M  V30 25096 P 4485.23 -2.75334 -8.47391 0
M  V30 25097 O 4485.45 -2.44619 -9.90336 0
M  V30 25098 O 4486.02 -3.87776 -7.92294 0
M  V30 25099 O 4485.48 -1.4459 -7.59357 0
M  V30 25100 C 4484.54 -0.347653 -7.69315 0
M  V30 25101 C 4485.27 0.96767 -7.52806 0
M  V30 25102 O 4485.48 1.21055 -6.10208 0
M  V30 25103 C 4486.67 1.04557 -8.13408 0
M  V30 25104 O 4487.06 2.38311 -8.41922 0
M  V30 25105 C 4487.55 0.491279 -7.02284 0
M  V30 25106 C 4486.84 0.996264 -5.77469 0
M  V30 25107 N 4486.89 0.0501916 -4.62973 0
M  V30 25108 H 4484.06 -0.374765 -8.67791 0
M  V30 25109 H 4483.78 -0.443613 -6.90476 0
M  V30 25110 H 4484.65 1.75559 -7.96891 0
M  V30 25111 H 4487.31 1.94563 -5.46818 0
M  V30 25112 H 4487.59 -0.608651 -7.04676 0
M  V30 25113 H 4488.58 0.889796 -7.09039 0
M  V30 25114 H 4486.74 0.433128 -9.04664 0
M  V30 25115 P 4488.61 2.75334 -8.47391 0
M  V30 25116 O 4488.83 3.84128 -9.44797 0
M  V30 25117 O 4489.4 1.51947 -8.68712 0
M  V30 25118 O 4488.86 3.29363 -6.99321 0
M  V30 25119 C 4487.92 4.24011 -6.4274 0
M  V30 25120 C 4488.65 5.20775 -5.52155 0
M  V30 25121 O 4488.86 4.56534 -4.22446 0
M  V30 25122 C 4490.05 5.62629 -5.96531 0
M  V30 25123 O 4490.44 6.87667 -5.41053 0
M  V30 25124 C 4490.93 4.52537 -5.39283 0
M  V30 25125 C 4490.22 4.20027 -4.08623 0
M  V30 25126 N 4490.27 2.76189 -3.71603 0
M  V30 25127 H 4487.43 4.797 -7.24003 0
M  V30 25128 H 4487.16 3.69856 -5.84513 0
M  V30 25129 H 4488.03 6.10356 -5.41441 0
M  V30 25130 P 4491.99 7.20834 -5.23717 0
M  V30 25131 O 4492.21 8.66104 -5.38572 0
M  V30 25132 O 4492.78 6.33544 -6.1349 0
M  V30 25133 O 4492.24 6.7751 -3.72168 0
M  V30 25134 C 4491.3 7.20825 -2.7076 0
M  V30 25135 C 4492.03 7.45864 -1.40599 0
M  V30 25136 O 4492.24 6.17651 -0.734225 0
M  V30 25137 C 4493.43 8.05808 -1.51899 0
M  V30 25138 O 4493.82 8.74358 -0.335205 0
M  V30 25139 C 4494.31 6.83093 -1.70294 0
M  V30 25140 C 4493.6 5.79992 -0.836974 0
M  V30 25141 N 4493.65 4.41864 -1.38293 0
M  V30 25142 H 4490.81 8.13644 -3.0377 0
M  V30 25143 H 4490.54 6.42788 -2.55485 0
M  V30 25144 H 4491.41 8.12039 -0.792769 0
M  V30 25145 P 4495.37 8.91 -1.937e-10 0
M  V30 25146 O 4495.59 10.1726 0.733694 0
M  V30 25147 O 4496.16 8.73148 -1.23936 0
M  V30 25148 O 4495.62 7.66872 0.971405 0
M  V30 25149 C 4494.68 7.42309 2.04641 0
M  V30 25150 C 4495.41 6.86059 3.24661 0
M  V30 25151 O 4495.62 5.42847 3.03646 0
M  V30 25152 C 4496.81 7.41196 3.50753 0
M  V30 25153 O 4497.2 7.27073 4.86816 0
M  V30 25154 C 4497.69 6.5273 2.63741 0
M  V30 25155 C 4496.98 5.1842 2.73198 0
M  V30 25156 N 4497.03 4.38762 1.4784 0
M  V30 25157 H 4494.19 8.36803 2.32493 0
M  V30 25158 H 4493.92 6.70197 1.71129 0
M  V30 25159 H 4494.79 7.03551 4.13168 0
M  V30 25160 P 4498.75 7.20834 5.23717 0
M  V30 25161 O 4498.97 7.79853 6.57286 0
M  V30 25162 O 4499.54 7.79239 4.12957 0
M  V30 25163 O 4499 5.63315 5.29344 0
M  V30 25164 C 4498.06 4.80255 6.01876 0
M  V30 25165 C 4498.79 3.64202 6.65911 0
M  V30 25166 O 4499 2.60694 5.64732 0
M  V30 25167 C 4500.19 3.93473 7.1943 0
M  V30 25168 O 4500.58 3.02071 8.21205 0
M  V30 25169 C 4501.07 3.73047 5.97036 0
M  V30 25170 C 4500.36 2.58828 5.25741 0
M  V30 25171 N 4500.41 2.68068 3.77503 0
M  V30 25172 H 4497.57 5.40332 6.79951 0
M  V30 25173 H 4497.3 4.41613 5.32378 0
M  V30 25174 H 4498.17 3.26331 7.47797 0
M  V30 25175 P 4502.13 2.75334 8.47391 0
M  V30 25176 O 4502.35 2.44571 9.90142 0
M  V30 25177 O 4502.92 3.87688 7.92115 0
M  V30 25178 O 4502.38 1.4459 7.59357 0
M  V30 25179 C 4501.44 0.347608 7.69215 0
M  V30 25180 C 4502.17 -0.96767 7.52806 0
M  V30 25181 O 4502.38 -1.21036 6.1011 0
M  V30 25182 C 4503.57 -1.04544 8.13308 0
M  V30 25183 O 4503.96 -2.38311 8.41922 0
M  V30 25184 C 4504.45 -0.491279 7.02284 0
M  V30 25185 C 4503.74 -0.996264 5.77469 0
M  V30 25186 N 4503.79 -0.0501916 4.62973 0
M  V30 25187 H 4500.95 0.374722 8.67691 0
M  V30 25188 H 4500.68 0.443485 6.90277 0
M  V30 25189 H 4501.55 -1.75537 7.96793 0
M  V30 25190 P 4505.51 -2.75334 8.47391 0
M  V30 25191 O 4505.73 -3.84128 9.44797 0
M  V30 25192 O 4506.3 -1.51947 8.68712 0
M  V30 25193 O 4505.76 -3.29363 6.99321 0
M  V30 25194 C 4504.82 -4.24011 6.4274 0
M  V30 25195 C 4505.55 -5.20775 5.52155 0
M  V30 25196 O 4505.76 -4.56534 4.22446 0
M  V30 25197 C 4506.95 -5.62629 5.96531 0
M  V30 25198 O 4507.34 -6.87667 5.41053 0
M  V30 25199 C 4507.83 -4.52537 5.39283 0
M  V30 25200 C 4507.12 -4.20027 4.08623 0
M  V30 25201 N 4507.17 -2.76189 3.71603 0
M  V30 25202 H 4504.33 -4.797 7.24003 0
M  V30 25203 H 4504.06 -3.69856 5.84513 0
M  V30 25204 H 4504.93 -6.10356 5.41441 0
M  V30 25205 P 4508.89 -7.20834 5.23717 0
M  V30 25206 O 4509.11 -8.66104 5.38572 0
M  V30 25207 O 4509.68 -6.33544 6.1349 0
M  V30 25208 O 4509.14 -6.7751 3.72168 0
M  V30 25209 C 4508.2 -7.20825 2.7076 0
M  V30 25210 C 4508.93 -7.45864 1.40599 0
M  V30 25211 O 4509.14 -6.17651 0.734225 0
M  V30 25212 C 4510.33 -8.05808 1.51899 0
M  V30 25213 O 4510.72 -8.74358 0.335205 0
M  V30 25214 C 4511.21 -6.83093 1.70294 0
M  V30 25215 C 4510.5 -5.79992 0.836974 0
M  V30 25216 N 4510.55 -4.41864 1.38293 0
M  V30 25217 H 4507.71 -8.13644 3.0377 0
M  V30 25218 H 4507.44 -6.42788 2.55485 0
M  V30 25219 H 4508.31 -8.12039 0.792769 0
M  V30 25220 P 4512.27 -8.91 1.94809e-10 0
M  V30 25221 O 4512.49 -10.1726 -0.733694 0
M  V30 25222 O 4513.06 -8.73148 1.23936 0
M  V30 25223 O 4512.52 -7.66872 -0.971405 0
M  V30 25224 C 4511.58 -7.42309 -2.04641 0
M  V30 25225 C 4512.31 -6.86059 -3.24661 0
M  V30 25226 O 4512.52 -5.42847 -3.03646 0
M  V30 25227 C 4513.71 -7.41196 -3.50753 0
M  V30 25228 O 4514.1 -7.27073 -4.86816 0
M  V30 25229 C 4514.59 -6.5273 -2.63741 0
M  V30 25230 C 4513.88 -5.1842 -2.73198 0
M  V30 25231 N 4513.93 -4.38762 -1.4784 0
M  V30 25232 H 4511.09 -8.36803 -2.32493 0
M  V30 25233 H 4510.82 -6.70197 -1.71129 0
M  V30 25234 H 4511.69 -7.03551 -4.13168 0
M  V30 25235 P 4515.65 -7.20834 -5.23717 0
M  V30 25236 O 4515.87 -7.79853 -6.57286 0
M  V30 25237 O 4516.44 -7.79239 -4.12957 0
M  V30 25238 O 4515.9 -5.63315 -5.29344 0
M  V30 25239 C 4514.96 -4.80255 -6.01876 0
M  V30 25240 C 4515.69 -3.64202 -6.65911 0
M  V30 25241 O 4515.9 -2.60694 -5.64732 0
M  V30 25242 C 4517.09 -3.93473 -7.1943 0
M  V30 25243 O 4517.48 -3.02071 -8.21205 0
M  V30 25244 C 4517.97 -3.73047 -5.97036 0
M  V30 25245 C 4517.26 -2.58828 -5.25741 0
M  V30 25246 N 4517.31 -2.68068 -3.77503 0
M  V30 25247 H 4514.47 -5.40332 -6.79951 0
M  V30 25248 H 4514.2 -4.41613 -5.32378 0
M  V30 25249 H 4515.07 -3.26331 -7.47797 0
M  V30 25250 P 4519.03 -2.75334 -8.47391 0
M  V30 25251 O 4519.25 -2.44571 -9.90142 0
M  V30 25252 O 4519.82 -3.87688 -7.92115 0
M  V30 25253 O 4519.28 -1.4459 -7.59357 0
M  V30 25254 C 4518.34 -0.347608 -7.69215 0
M  V30 25255 C 4519.07 0.96767 -7.52806 0
M  V30 25256 O 4519.28 1.21036 -6.1011 0
M  V30 25257 C 4520.47 1.04544 -8.13308 0
M  V30 25258 O 4520.86 2.38311 -8.41922 0
M  V30 25259 C 4521.35 0.491279 -7.02284 0
M  V30 25260 C 4520.64 0.996264 -5.77469 0
M  V30 25261 N 4520.69 0.0501916 -4.62973 0
M  V30 25262 H 4517.85 -0.374722 -8.67691 0
M  V30 25263 H 4517.58 -0.443485 -6.90277 0
M  V30 25264 H 4518.45 1.75537 -7.96793 0
M  V30 25265 P 4522.41 2.75334 -8.47391 0
M  V30 25266 O 4522.63 3.84128 -9.44797 0
M  V30 25267 O 4523.2 1.51947 -8.68712 0
M  V30 25268 O 4522.66 3.29363 -6.99321 0
M  V30 25269 C 4521.72 4.24011 -6.4274 0
M  V30 25270 C 4522.45 5.20775 -5.52155 0
M  V30 25271 O 4522.66 4.56534 -4.22446 0
M  V30 25272 C 4523.85 5.62629 -5.96531 0
M  V30 25273 O 4524.24 6.87667 -5.41053 0
M  V30 25274 C 4524.73 4.52537 -5.39283 0
M  V30 25275 C 4524.02 4.20027 -4.08623 0
M  V30 25276 N 4524.07 2.76189 -3.71603 0
M  V30 25277 H 4521.23 4.797 -7.24003 0
M  V30 25278 H 4520.96 3.69856 -5.84513 0
M  V30 25279 H 4521.83 6.10356 -5.41441 0
M  V30 25280 P 4525.79 7.20834 -5.23717 0
M  V30 25281 O 4526.01 8.66104 -5.38572 0
M  V30 25282 O 4526.58 6.33544 -6.1349 0
M  V30 25283 O 4526.04 6.7751 -3.72168 0
M  V30 25284 C 4525.1 7.20825 -2.7076 0
M  V30 25285 C 4525.83 7.45864 -1.40599 0
M  V30 25286 O 4526.04 6.17651 -0.734225 0
M  V30 25287 C 4527.23 8.05808 -1.51899 0
M  V30 25288 O 4527.62 8.74358 -0.335205 0
M  V30 25289 C 4528.11 6.83093 -1.70294 0
M  V30 25290 C 4527.4 5.79992 -0.836974 0
M  V30 25291 N 4527.45 4.41864 -1.38293 0
M  V30 25292 H 4524.61 8.13644 -3.0377 0
M  V30 25293 H 4524.34 6.42788 -2.55485 0
M  V30 25294 H 4525.21 8.12039 -0.792769 0
M  V30 25295 P 4529.17 8.91 -1.95918e-10 0
M  V30 25296 O 4529.39 10.1726 0.733694 0
M  V30 25297 O 4529.96 8.73148 -1.23936 0
M  V30 25298 O 4529.42 7.66872 0.971405 0
M  V30 25299 C 4528.48 7.42309 2.04641 0
M  V30 25300 C 4529.21 6.86059 3.24661 0
M  V30 25301 O 4529.42 5.42847 3.03646 0
M  V30 25302 C 4530.61 7.41196 3.50753 0
M  V30 25303 O 4531 7.27073 4.86816 0
M  V30 25304 C 4531.49 6.5273 2.63741 0
M  V30 25305 C 4530.78 5.1842 2.73198 0
M  V30 25306 N 4530.83 4.38762 1.4784 0
M  V30 25307 H 4527.99 8.36803 2.32493 0
M  V30 25308 H 4527.72 6.70197 1.71129 0
M  V30 25309 H 4528.59 7.03551 4.13168 0
M  V30 25310 P 4532.55 7.20834 5.23717 0
M  V30 25311 O 4532.77 7.79853 6.57286 0
M  V30 25312 O 4533.34 7.79239 4.12957 0
M  V30 25313 O 4532.8 5.63315 5.29344 0
M  V30 25314 C 4531.86 4.80255 6.01876 0
M  V30 25315 C 4532.59 3.64202 6.65911 0
M  V30 25316 O 4532.8 2.60694 5.64732 0
M  V30 25317 C 4533.99 3.93473 7.1943 0
M  V30 25318 O 4534.38 3.02071 8.21205 0
M  V30 25319 C 4534.87 3.73047 5.97036 0
M  V30 25320 C 4534.16 2.58828 5.25741 0
M  V30 25321 N 4534.21 2.68068 3.77503 0
M  V30 25322 H 4531.37 5.40332 6.79951 0
M  V30 25323 H 4531.1 4.41613 5.32378 0
M  V30 25324 H 4531.97 3.26331 7.47797 0
M  V30 25325 P 4535.93 2.75334 8.47391 0
M  V30 25326 O 4536.15 2.44595 9.90239 0
M  V30 25327 O 4536.72 3.87732 7.92204 0
M  V30 25328 O 4536.18 1.4459 7.59357 0
M  V30 25329 C 4535.24 0.347563 7.69115 0
M  V30 25330 C 4535.97 -0.96767 7.52806 0
M  V30 25331 O 4536.18 -1.21036 6.1011 0
M  V30 25332 C 4537.37 -1.04544 8.13308 0
M  V30 25333 O 4537.76 -2.38311 8.41922 0
M  V30 25334 C 4538.25 -0.491279 7.02284 0
M  V30 25335 C 4537.54 -0.996264 5.77469 0
M  V30 25336 N 4537.59 -0.0501808 4.62873 0
M  V30 25337 C 4537.74 -0.588177 3.36904 0
M  V30 25338 O 4537.83 -1.78598 3.17173 0
M  V30 25339 N 4537.78 0.329694 2.33686 0
M  V30 25340 C 4537.69 1.6953 2.45079 0
M  V30 25341 O 4537.74 2.41926 1.44899 0
M  V30 25342 C 4537.54 2.16933 3.80505 0
M  V30 25343 C 4537.43 3.65373 3.97621 0
M  V30 25344 C 4537.49 1.30326 4.83752 0
M  V30 25345 H 4534.75 0.374722 8.67691 0
M  V30 25346 H 4534.48 0.443421 6.90177 0
M  V30 25347 H 4535.35 -1.75537 7.96793 0
M  V30 25348 H 4538.01 -1.94496 5.46629 0
M  V30 25349 H 4538.29 0.608651 7.04676 0
M  V30 25350 H 4539.28 -0.889672 7.08939 0
M  V30 25351 H 4537.44 -0.43308 9.04564 0
M  V30 25352 H 4537.37 1.68366 5.8516 0
M  V30 25353 H 4538.4 4.05985 4.30448 0
M  V30 25354 H 4536.67 3.88028 4.72875 0
M  V30 25355 H 4537.15 4.11381 3.01609 0
M  V30 25356 H 4537.89 -0.0393617 1.41345 0
M  V30 25357 P 4539.31 -2.75334 8.47391 0
M  V30 25358 O 4539.53 -3.84128 9.44797 0
M  V30 25359 O 4540.1 -1.51947 8.68712 0
M  V30 25360 O 4539.56 -3.29363 6.99321 0
M  V30 25361 C 4538.62 -4.24011 6.4274 0
M  V30 25362 C 4539.35 -5.20775 5.52155 0
M  V30 25363 O 4539.56 -4.56534 4.22446 0
M  V30 25364 C 4540.75 -5.62629 5.96531 0
M  V30 25365 O 4541.14 -6.87667 5.41053 0
M  V30 25366 C 4541.63 -4.52537 5.39283 0
M  V30 25367 C 4540.92 -4.20027 4.08623 0
M  V30 25368 N 4540.97 -2.76189 3.71603 0
M  V30 25369 H 4538.13 -4.797 7.24003 0
M  V30 25370 H 4537.86 -3.69856 5.84513 0
M  V30 25371 H 4538.73 -6.10356 5.41441 0
M  V30 25372 P 4542.69 -7.20834 5.23717 0
M  V30 25373 O 4542.91 -8.66104 5.38572 0
M  V30 25374 O 4543.48 -6.33544 6.1349 0
M  V30 25375 O 4542.94 -6.7751 3.72168 0
M  V30 25376 C 4542 -7.20825 2.7076 0
M  V30 25377 C 4542.73 -7.45864 1.40599 0
M  V30 25378 O 4542.94 -6.17651 0.734225 0
M  V30 25379 C 4544.13 -8.05808 1.51899 0
M  V30 25380 O 4544.52 -8.74358 0.335205 0
M  V30 25381 C 4545.01 -6.83093 1.70294 0
M  V30 25382 C 4544.3 -5.79992 0.836974 0
M  V30 25383 N 4544.35 -4.41864 1.38293 0
M  V30 25384 H 4541.51 -8.13644 3.0377 0
M  V30 25385 H 4541.24 -6.42788 2.55485 0
M  V30 25386 H 4542.11 -8.12039 0.792769 0
M  V30 25387 P 4546.07 -8.91 1.97027e-10 0
M  V30 25388 O 4546.29 -10.1726 -0.733694 0
M  V30 25389 O 4546.86 -8.73148 1.23936 0
M  V30 25390 O 4546.32 -7.66872 -0.971405 0
M  V30 25391 C 4545.38 -7.42309 -2.04641 0
M  V30 25392 C 4546.11 -6.86059 -3.24661 0
M  V30 25393 O 4546.32 -5.42847 -3.03646 0
M  V30 25394 C 4547.51 -7.41196 -3.50753 0
M  V30 25395 O 4547.9 -7.27073 -4.86816 0
M  V30 25396 C 4548.39 -6.5273 -2.63741 0
M  V30 25397 C 4547.68 -5.1842 -2.73198 0
M  V30 25398 N 4547.73 -4.38762 -1.4784 0
M  V30 25399 H 4544.89 -8.36803 -2.32493 0
M  V30 25400 H 4544.62 -6.70197 -1.71129 0
M  V30 25401 H 4545.49 -7.03551 -4.13168 0
M  V30 25402 P 4549.45 -7.20834 -5.23717 0
M  V30 25403 O 4549.67 -7.79853 -6.57286 0
M  V30 25404 O 4550.24 -7.79239 -4.12957 0
M  V30 25405 O 4549.7 -5.63315 -5.29344 0
M  V30 25406 C 4548.76 -4.80255 -6.01876 0
M  V30 25407 C 4549.49 -3.64202 -6.65911 0
M  V30 25408 O 4549.7 -2.60694 -5.64732 0
M  V30 25409 C 4550.89 -3.93473 -7.1943 0
M  V30 25410 O 4551.28 -3.02071 -8.21205 0
M  V30 25411 C 4551.77 -3.73047 -5.97036 0
M  V30 25412 C 4551.06 -2.58828 -5.25741 0
M  V30 25413 N 4551.11 -2.68068 -3.77503 0
M  V30 25414 H 4548.27 -5.40332 -6.79951 0
M  V30 25415 H 4548 -4.41613 -5.32378 0
M  V30 25416 H 4548.87 -3.26331 -7.47797 0
M  V30 25417 P 4552.83 -2.75334 -8.47391 0
M  V30 25418 O 4553.05 -2.44571 -9.90142 0
M  V30 25419 O 4553.62 -3.87688 -7.92115 0
M  V30 25420 O 4553.08 -1.4459 -7.59357 0
M  V30 25421 C 4552.14 -0.347608 -7.69215 0
M  V30 25422 C 4552.87 0.96767 -7.52806 0
M  V30 25423 O 4553.08 1.21036 -6.1011 0
M  V30 25424 C 4554.27 1.04544 -8.13308 0
M  V30 25425 O 4554.66 2.38311 -8.41922 0
M  V30 25426 C 4555.15 0.491279 -7.02284 0
M  V30 25427 C 4554.44 0.996264 -5.77469 0
M  V30 25428 N 4554.49 0.0501916 -4.62973 0
M  V30 25429 H 4551.65 -0.374722 -8.67691 0
M  V30 25430 H 4551.38 -0.443485 -6.90277 0
M  V30 25431 H 4552.25 1.75537 -7.96793 0
M  V30 25432 P 4556.21 2.75334 -8.47391 0
M  V30 25433 O 4556.43 3.84128 -9.44797 0
M  V30 25434 O 4557 1.51947 -8.68712 0
M  V30 25435 O 4556.46 3.29363 -6.99321 0
M  V30 25436 C 4555.52 4.24011 -6.4274 0
M  V30 25437 C 4556.25 5.20775 -5.52155 0
M  V30 25438 O 4556.46 4.56534 -4.22446 0
M  V30 25439 C 4557.65 5.62629 -5.96531 0
M  V30 25440 O 4558.04 6.87667 -5.41053 0
M  V30 25441 C 4558.53 4.52537 -5.39283 0
M  V30 25442 C 4557.82 4.20027 -4.08623 0
M  V30 25443 N 4557.87 2.76189 -3.71603 0
M  V30 25444 H 4555.03 4.797 -7.24003 0
M  V30 25445 H 4554.76 3.69856 -5.84513 0
M  V30 25446 H 4555.63 6.10356 -5.41441 0
M  V30 25447 P 4559.59 7.20834 -5.23717 0
M  V30 25448 O 4559.81 8.66104 -5.38572 0
M  V30 25449 O 4560.38 6.33544 -6.1349 0
M  V30 25450 O 4559.84 6.7751 -3.72168 0
M  V30 25451 C 4558.9 7.20825 -2.7076 0
M  V30 25452 C 4559.63 7.45864 -1.40599 0
M  V30 25453 O 4559.84 6.17651 -0.734225 0
M  V30 25454 C 4561.03 8.05808 -1.51899 0
M  V30 25455 O 4561.42 8.74358 -0.335205 0
M  V30 25456 C 4561.91 6.83093 -1.70294 0
M  V30 25457 C 4561.2 5.79992 -0.836974 0
M  V30 25458 N 4561.25 4.41864 -1.38293 0
M  V30 25459 H 4558.41 8.13644 -3.0377 0
M  V30 25460 H 4558.14 6.42788 -2.55485 0
M  V30 25461 H 4559.01 8.12039 -0.792769 0
M  V30 25462 P 4562.97 8.91 -1.98136e-10 0
M  V30 25463 O 4563.19 10.1726 0.733694 0
M  V30 25464 O 4563.76 8.73148 -1.23936 0
M  V30 25465 O 4563.22 7.66872 0.971405 0
M  V30 25466 C 4562.28 7.42309 2.04641 0
M  V30 25467 C 4563.01 6.86059 3.24661 0
M  V30 25468 O 4563.22 5.42847 3.03646 0
M  V30 25469 C 4564.41 7.41196 3.50753 0
M  V30 25470 O 4564.8 7.27073 4.86816 0
M  V30 25471 C 4565.29 6.5273 2.63741 0
M  V30 25472 C 4564.58 5.1842 2.73198 0
M  V30 25473 N 4564.63 4.38762 1.4784 0
M  V30 25474 H 4561.79 8.36803 2.32493 0
M  V30 25475 H 4561.52 6.70197 1.71129 0
M  V30 25476 H 4562.39 7.03551 4.13168 0
M  V30 25477 P 4566.35 7.20834 5.23717 0
M  V30 25478 O 4566.57 7.79853 6.57286 0
M  V30 25479 O 4567.14 7.79239 4.12957 0
M  V30 25480 O 4566.6 5.63315 5.29344 0
M  V30 25481 C 4565.66 4.80255 6.01876 0
M  V30 25482 C 4566.39 3.64202 6.65911 0
M  V30 25483 O 4566.6 2.60694 5.64732 0
M  V30 25484 C 4567.79 3.93473 7.1943 0
M  V30 25485 O 4568.18 3.02071 8.21205 0
M  V30 25486 C 4568.67 3.73047 5.97036 0
M  V30 25487 C 4567.96 2.58828 5.25741 0
M  V30 25488 N 4568.01 2.68068 3.77503 0
M  V30 25489 H 4565.17 5.40332 6.79951 0
M  V30 25490 H 4564.9 4.41613 5.32378 0
M  V30 25491 H 4565.77 3.26331 7.47797 0
M  V30 25492 P 4569.73 2.75334 8.47391 0
M  V30 25493 O 4569.95 2.44619 9.90336 0
M  V30 25494 O 4570.52 3.87776 7.92294 0
M  V30 25495 O 4569.98 1.4459 7.59357 0
M  V30 25496 C 4569.04 0.347653 7.69315 0
M  V30 25497 C 4569.77 -0.96767 7.52806 0
M  V30 25498 O 4569.98 -1.21055 6.10208 0
M  V30 25499 C 4571.17 -1.04557 8.13408 0
M  V30 25500 O 4571.56 -2.38311 8.41922 0
M  V30 25501 C 4572.05 -0.491279 7.02284 0
M  V30 25502 C 4571.34 -0.996264 5.77469 0
M  V30 25503 N 4571.39 -0.0501916 4.62973 0
M  V30 25504 C 4571.31 1.31969 4.65661 0
M  V30 25505 N 4571.38 1.86649 3.48119 0
M  V30 25506 C 4571.53 0.792089 2.62406 0
M  V30 25507 C 4571.66 0.705684 1.2207 0
M  V30 25508 N 4571.67 1.76207 0.413762 0
M  V30 25509 N 4571.78 -0.518981 0.685754 0
M  V30 25510 C 4571.77 -1.57595 1.49174 0
M  V30 25511 N 4571.65 -1.62909 2.80066 0
M  V30 25512 C 4571.53 -0.388195 3.3073 0
M  V30 25513 H 4568.55 0.374765 8.67791 0
M  V30 25514 H 4568.28 0.443613 6.90476 0
M  V30 25515 H 4569.15 -1.75559 7.96891 0
M  V30 25516 H 4571.81 -1.94563 5.46818 0
M  V30 25517 H 4572.09 0.608651 7.04676 0
M  V30 25518 H 4573.08 -0.889796 7.09039 0
M  V30 25519 H 4571.24 -0.433128 9.04664 0
M  V30 25520 H 4571.2 1.89246 5.57664 0
M  V30 25521 H 4571.58 2.71005 0.804694 0
M  V30 25522 H 4571.77 1.63189 -0.603768 0
M  V30 25523 H 4571.88 -2.53475 0.997614 0
M  V30 25524 P 4573.11 -2.75334 8.47391 0
M  V30 25525 O 4573.33 -3.84128 9.44797 0
M  V30 25526 O 4573.9 -1.51947 8.68712 0
M  V30 25527 O 4573.36 -3.29363 6.99321 0
M  V30 25528 C 4572.42 -4.24011 6.4274 0
M  V30 25529 C 4573.15 -5.20775 5.52155 0
M  V30 25530 O 4573.36 -4.56534 4.22446 0
M  V30 25531 C 4574.55 -5.62629 5.96531 0
M  V30 25532 O 4574.94 -6.87667 5.41053 0
M  V30 25533 C 4575.43 -4.52537 5.39283 0
M  V30 25534 C 4574.72 -4.20027 4.08623 0
M  V30 25535 N 4574.77 -2.76189 3.71603 0
M  V30 25536 H 4571.93 -4.797 7.24003 0
M  V30 25537 H 4571.66 -3.69856 5.84513 0
M  V30 25538 H 4572.53 -6.10356 5.41441 0
M  V30 25539 P 4576.49 -7.20834 5.23717 0
M  V30 25540 O 4576.71 -8.66104 5.38572 0
M  V30 25541 O 4577.28 -6.33544 6.1349 0
M  V30 25542 O 4576.74 -6.7751 3.72168 0
M  V30 25543 C 4575.8 -7.20825 2.7076 0
M  V30 25544 C 4576.53 -7.45864 1.40599 0
M  V30 25545 O 4576.74 -6.17651 0.734225 0
M  V30 25546 C 4577.93 -8.05808 1.51899 0
M  V30 25547 O 4578.32 -8.74358 0.335205 0
M  V30 25548 C 4578.81 -6.83093 1.70294 0
M  V30 25549 C 4578.1 -5.79992 0.836974 0
M  V30 25550 N 4578.15 -4.41864 1.38293 0
M  V30 25551 H 4575.31 -8.13644 3.0377 0
M  V30 25552 H 4575.04 -6.42788 2.55485 0
M  V30 25553 H 4575.91 -8.12039 0.792769 0
M  V30 25554 P 4579.87 -8.91 1.99245e-10 0
M  V30 25555 O 4580.09 -10.1726 -0.733694 0
M  V30 25556 O 4580.66 -8.73148 1.23936 0
M  V30 25557 O 4580.12 -7.66872 -0.971405 0
M  V30 25558 C 4579.18 -7.42309 -2.04641 0
M  V30 25559 C 4579.91 -6.86059 -3.24661 0
M  V30 25560 O 4580.12 -5.42847 -3.03646 0
M  V30 25561 C 4581.31 -7.41196 -3.50753 0
M  V30 25562 O 4581.7 -7.27073 -4.86816 0
M  V30 25563 C 4582.19 -6.5273 -2.63741 0
M  V30 25564 C 4581.48 -5.1842 -2.73198 0
M  V30 25565 N 4581.53 -4.38762 -1.4784 0
M  V30 25566 H 4578.69 -8.36803 -2.32493 0
M  V30 25567 H 4578.42 -6.70197 -1.71129 0
M  V30 25568 H 4579.29 -7.03551 -4.13168 0
M  V30 25569 P 4583.25 -7.20834 -5.23717 0
M  V30 25570 O 4583.47 -7.79853 -6.57286 0
M  V30 25571 O 4584.04 -7.79239 -4.12957 0
M  V30 25572 O 4583.5 -5.63315 -5.29344 0
M  V30 25573 C 4582.56 -4.80255 -6.01876 0
M  V30 25574 C 4583.29 -3.64202 -6.65911 0
M  V30 25575 O 4583.5 -2.60694 -5.64732 0
M  V30 25576 C 4584.69 -3.93473 -7.1943 0
M  V30 25577 O 4585.08 -3.02071 -8.21205 0
M  V30 25578 C 4585.57 -3.73047 -5.97036 0
M  V30 25579 C 4584.86 -2.58828 -5.25741 0
M  V30 25580 N 4584.91 -2.68068 -3.77503 0
M  V30 25581 H 4582.07 -5.40332 -6.79951 0
M  V30 25582 H 4581.8 -4.41613 -5.32378 0
M  V30 25583 H 4582.67 -3.26331 -7.47797 0
M  V30 25584 P 4586.63 -2.75334 -8.47391 0
M  V30 25585 O 4586.85 -2.44595 -9.90239 0
M  V30 25586 O 4587.42 -3.87732 -7.92204 0
M  V30 25587 O 4586.88 -1.4459 -7.59357 0
M  V30 25588 C 4585.94 -0.347563 -7.69115 0
M  V30 25589 C 4586.67 0.96767 -7.52806 0
M  V30 25590 O 4586.88 1.21036 -6.1011 0
M  V30 25591 C 4588.07 1.04544 -8.13308 0
M  V30 25592 O 4588.46 2.38311 -8.41922 0
M  V30 25593 C 4588.95 0.491279 -7.02284 0
M  V30 25594 C 4588.24 0.996264 -5.77469 0
M  V30 25595 N 4588.29 0.0501808 -4.62873 0
M  V30 25596 C 4588.44 0.588177 -3.36904 0
M  V30 25597 O 4588.53 1.78598 -3.17173 0
M  V30 25598 N 4588.48 -0.329694 -2.33686 0
M  V30 25599 C 4588.39 -1.6953 -2.45079 0
M  V30 25600 O 4588.44 -2.41926 -1.44899 0
M  V30 25601 C 4588.24 -2.16933 -3.80505 0
M  V30 25602 C 4588.13 -3.65373 -3.97621 0
M  V30 25603 C 4588.19 -1.30326 -4.83752 0
M  V30 25604 H 4585.45 -0.374722 -8.67691 0
M  V30 25605 H 4585.18 -0.443421 -6.90177 0
M  V30 25606 H 4586.05 1.75537 -7.96793 0
M  V30 25607 H 4588.71 1.94496 -5.46629 0
M  V30 25608 H 4588.98 -0.608651 -7.04676 0
M  V30 25609 H 4589.98 0.889672 -7.08939 0
M  V30 25610 H 4588.14 0.43308 -9.04564 0
M  V30 25611 H 4588.07 -1.68366 -5.8516 0
M  V30 25612 H 4589.1 -4.05985 -4.30448 0
M  V30 25613 H 4587.36 -3.88028 -4.72875 0
M  V30 25614 H 4587.85 -4.11381 -3.01609 0
M  V30 25615 H 4588.59 0.0393617 -1.41345 0
M  V30 25616 P 4590.01 2.75334 -8.47391 0
M  V30 25617 O 4590.23 3.84128 -9.44797 0
M  V30 25618 O 4590.8 1.51947 -8.68712 0
M  V30 25619 O 4590.26 3.29363 -6.99321 0
M  V30 25620 C 4589.32 4.24011 -6.4274 0
M  V30 25621 C 4590.05 5.20775 -5.52155 0
M  V30 25622 O 4590.26 4.56534 -4.22446 0
M  V30 25623 C 4591.45 5.62629 -5.96531 0
M  V30 25624 O 4591.84 6.87667 -5.41053 0
M  V30 25625 C 4592.33 4.52537 -5.39283 0
M  V30 25626 C 4591.62 4.20027 -4.08623 0
M  V30 25627 N 4591.67 2.76189 -3.71603 0
M  V30 25628 H 4588.83 4.797 -7.24003 0
M  V30 25629 H 4588.56 3.69856 -5.84513 0
M  V30 25630 H 4589.43 6.10356 -5.41441 0
M  V30 25631 P 4593.39 7.20834 -5.23717 0
M  V30 25632 O 4593.61 8.66189 -5.38625 0
M  V30 25633 O 4594.18 6.33615 -6.1356 0
M  V30 25634 O 4593.64 6.7751 -3.72168 0
M  V30 25635 C 4592.7 7.20732 -2.70725 0
M  V30 25636 C 4593.43 7.45864 -1.40599 0
M  V30 25637 O 4593.64 6.17651 -0.734225 0
M  V30 25638 C 4594.83 8.05808 -1.51899 0
M  V30 25639 O 4595.22 8.74358 -0.335205 0
M  V30 25640 C 4595.71 6.83093 -1.70294 0
M  V30 25641 C 4595 5.79992 -0.836974 0
M  V30 25642 N 4595.05 4.41769 -1.38263 0
M  V30 25643 C 4595.2 3.38591 -0.481702 0
M  V30 25644 O 4595.29 3.56839 0.718452 0
M  V30 25645 N 4595.24 2.1206 -1.03569 0
M  V30 25646 C 4595.15 1.80696 -2.36966 0
M  V30 25647 O 4595.2 0.630473 -2.74862 0
M  V30 25648 C 4595 2.94845 -3.23898 0
M  V30 25649 C 4594.89 2.65253 -4.70362 0
M  V30 25650 C 4594.95 4.19803 -2.73435 0
M  V30 25651 H 4592.21 8.13644 -3.0377 0
M  V30 25652 H 4591.94 6.42695 -2.55448 0
M  V30 25653 H 4592.81 8.12039 -0.792769 0
M  V30 25654 H 4595.47 5.79978 0.160587 0
M  V30 25655 H 4595.74 6.51379 -2.75643 0
M  V30 25656 H 4596.74 7.01734 -1.34462 0
M  V30 25657 H 4594.9 8.73674 -2.38337 0
M  V30 25658 H 4594.83 5.04492 -3.4095 0
M  V30 25659 H 4595.86 2.83924 -5.1913 0
M  V30 25660 H 4594.12 3.29824 -5.15163 0
M  V30 25661 H 4594.61 1.59723 -4.84449 0
M  V30 25662 H 4595.35 1.35644 -0.399345 0
M  V30 25663 P 4596.77 8.91 -2.00354e-10 0
M  V30 25664 O 4596.99 10.1726 0.733694 0
M  V30 25665 O 4597.56 8.73148 -1.23936 0
M  V30 25666 O 4597.02 7.66872 0.971405 0
M  V30 25667 C 4596.08 7.42309 2.04641 0
M  V30 25668 C 4596.81 6.86059 3.24661 0
M  V30 25669 O 4597.02 5.42847 3.03646 0
M  V30 25670 C 4598.21 7.41196 3.50753 0
M  V30 25671 O 4598.6 7.27073 4.86816 0
M  V30 25672 C 4599.09 6.5273 2.63741 0
M  V30 25673 C 4598.38 5.1842 2.73198 0
M  V30 25674 N 4598.43 4.38762 1.4784 0
M  V30 25675 H 4595.59 8.36803 2.32493 0
M  V30 25676 H 4595.32 6.70197 1.71129 0
M  V30 25677 H 4596.19 7.03551 4.13168 0
M  V30 25678 P 4600.15 7.20834 5.23717 0
M  V30 25679 O 4600.37 7.79853 6.57286 0
M  V30 25680 O 4600.94 7.79239 4.12957 0
M  V30 25681 O 4600.4 5.63315 5.29344 0
M  V30 25682 C 4599.46 4.80255 6.01876 0
M  V30 25683 C 4600.19 3.64202 6.65911 0
M  V30 25684 O 4600.4 2.60694 5.64732 0
M  V30 25685 C 4601.59 3.93473 7.1943 0
M  V30 25686 O 4601.98 3.02071 8.21205 0
M  V30 25687 C 4602.47 3.73047 5.97036 0
M  V30 25688 C 4601.76 2.58828 5.25741 0
M  V30 25689 N 4601.81 2.68068 3.77503 0
M  V30 25690 H 4598.97 5.40332 6.79951 0
M  V30 25691 H 4598.7 4.41613 5.32378 0
M  V30 25692 H 4599.57 3.26331 7.47797 0
M  V30 25693 P 4603.53 2.75334 8.47391 0
M  V30 25694 O 4603.75 2.44571 9.90142 0
M  V30 25695 O 4604.32 3.87688 7.92115 0
M  V30 25696 O 4603.78 1.4459 7.59357 0
M  V30 25697 C 4602.84 0.347608 7.69215 0
M  V30 25698 C 4603.57 -0.96767 7.52806 0
M  V30 25699 O 4603.78 -1.21036 6.1011 0
M  V30 25700 C 4604.97 -1.04544 8.13308 0
M  V30 25701 O 4605.36 -2.38311 8.41922 0
M  V30 25702 C 4605.85 -0.491279 7.02284 0
M  V30 25703 C 4605.14 -0.996264 5.77469 0
M  V30 25704 N 4605.19 -0.0501916 4.62973 0
M  V30 25705 H 4602.35 0.374722 8.67691 0
M  V30 25706 H 4602.08 0.443485 6.90277 0
M  V30 25707 H 4602.95 -1.75537 7.96793 0
M  V30 25708 P 4606.91 -2.75334 8.47391 0
M  V30 25709 O 4607.13 -3.84128 9.44797 0
M  V30 25710 O 4607.7 -1.51947 8.68712 0
M  V30 25711 O 4607.16 -3.29363 6.99321 0
M  V30 25712 C 4606.22 -4.24011 6.4274 0
M  V30 25713 C 4606.95 -5.20775 5.52155 0
M  V30 25714 O 4607.16 -4.56534 4.22446 0
M  V30 25715 C 4608.35 -5.62629 5.96531 0
M  V30 25716 O 4608.74 -6.87667 5.41053 0
M  V30 25717 C 4609.23 -4.52537 5.39283 0
M  V30 25718 C 4608.52 -4.20027 4.08623 0
M  V30 25719 N 4608.57 -2.76189 3.71603 0
M  V30 25720 H 4605.73 -4.797 7.24003 0
M  V30 25721 H 4605.46 -3.69856 5.84513 0
M  V30 25722 H 4606.33 -6.10356 5.41441 0
M  V30 25723 P 4610.29 -7.20834 5.23717 0
M  V30 25724 O 4610.51 -8.66104 5.38572 0
M  V30 25725 O 4611.08 -6.33544 6.1349 0
M  V30 25726 O 4610.54 -6.7751 3.72168 0
M  V30 25727 C 4609.6 -7.20825 2.7076 0
M  V30 25728 C 4610.33 -7.45864 1.40599 0
M  V30 25729 O 4610.54 -6.17651 0.734225 0
M  V30 25730 C 4611.73 -8.05808 1.51899 0
M  V30 25731 O 4612.12 -8.74358 0.335205 0
M  V30 25732 C 4612.61 -6.83093 1.70294 0
M  V30 25733 C 4611.9 -5.79992 0.836974 0
M  V30 25734 N 4611.95 -4.41864 1.38293 0
M  V30 25735 H 4609.11 -8.13644 3.0377 0
M  V30 25736 H 4608.84 -6.42788 2.55485 0
M  V30 25737 H 4609.71 -8.12039 0.792769 0
M  V30 25738 P 4613.67 -8.91 2.01463e-10 0
M  V30 25739 O 4613.89 -10.1726 -0.733694 0
M  V30 25740 O 4614.46 -8.73148 1.23936 0
M  V30 25741 O 4613.92 -7.66872 -0.971405 0
M  V30 25742 C 4612.98 -7.42309 -2.04641 0
M  V30 25743 C 4613.71 -6.86059 -3.24661 0
M  V30 25744 O 4613.92 -5.42847 -3.03646 0
M  V30 25745 C 4615.11 -7.41196 -3.50753 0
M  V30 25746 O 4615.5 -7.27073 -4.86816 0
M  V30 25747 C 4615.99 -6.5273 -2.63741 0
M  V30 25748 C 4615.28 -5.1842 -2.73198 0
M  V30 25749 N 4615.33 -4.38762 -1.4784 0
M  V30 25750 H 4612.49 -8.36803 -2.32493 0
M  V30 25751 H 4612.22 -6.70197 -1.71129 0
M  V30 25752 H 4613.09 -7.03551 -4.13168 0
M  V30 25753 P 4617.05 -7.20834 -5.23717 0
M  V30 25754 O 4617.27 -7.79853 -6.57286 0
M  V30 25755 O 4617.84 -7.79239 -4.12957 0
M  V30 25756 O 4617.3 -5.63315 -5.29344 0
M  V30 25757 C 4616.36 -4.80255 -6.01876 0
M  V30 25758 C 4617.09 -3.64202 -6.65911 0
M  V30 25759 O 4617.3 -2.60694 -5.64732 0
M  V30 25760 C 4618.49 -3.93473 -7.1943 0
M  V30 25761 O 4618.88 -3.02071 -8.21205 0
M  V30 25762 C 4619.37 -3.73047 -5.97036 0
M  V30 25763 C 4618.66 -2.58828 -5.25741 0
M  V30 25764 N 4618.71 -2.68068 -3.77503 0
M  V30 25765 H 4615.87 -5.40332 -6.79951 0
M  V30 25766 H 4615.6 -4.41613 -5.32378 0
M  V30 25767 H 4616.47 -3.26331 -7.47797 0
M  V30 25768 P 4620.43 -2.75334 -8.47391 0
M  V30 25769 O 4620.65 -2.44571 -9.90142 0
M  V30 25770 O 4621.22 -3.87688 -7.92115 0
M  V30 25771 O 4620.68 -1.4459 -7.59357 0
M  V30 25772 C 4619.74 -0.347608 -7.69215 0
M  V30 25773 C 4620.47 0.96767 -7.52806 0
M  V30 25774 O 4620.68 1.21036 -6.1011 0
M  V30 25775 C 4621.87 1.04544 -8.13308 0
M  V30 25776 O 4622.26 2.38311 -8.41922 0
M  V30 25777 C 4622.75 0.491279 -7.02284 0
M  V30 25778 C 4622.04 0.996264 -5.77469 0
M  V30 25779 N 4622.09 0.0501916 -4.62973 0
M  V30 25780 H 4619.25 -0.374722 -8.67691 0
M  V30 25781 H 4618.98 -0.443485 -6.90277 0
M  V30 25782 H 4619.85 1.75537 -7.96793 0
M  V30 25783 P 4623.81 2.75334 -8.47391 0
M  V30 25784 O 4624.03 3.84128 -9.44797 0
M  V30 25785 O 4624.6 1.51947 -8.68712 0
M  V30 25786 O 4624.06 3.29363 -6.99321 0
M  V30 25787 C 4623.12 4.24011 -6.4274 0
M  V30 25788 C 4623.85 5.20775 -5.52155 0
M  V30 25789 O 4624.06 4.56534 -4.22446 0
M  V30 25790 C 4625.25 5.62629 -5.96531 0
M  V30 25791 O 4625.64 6.87667 -5.41053 0
M  V30 25792 C 4626.13 4.52537 -5.39283 0
M  V30 25793 C 4625.42 4.20027 -4.08623 0
M  V30 25794 N 4625.47 2.76189 -3.71603 0
M  V30 25795 H 4622.63 4.797 -7.24003 0
M  V30 25796 H 4622.36 3.69856 -5.84513 0
M  V30 25797 H 4623.23 6.10356 -5.41441 0
M  V30 25798 P 4627.19 7.20834 -5.23717 0
M  V30 25799 O 4627.41 8.66104 -5.38572 0
M  V30 25800 O 4627.98 6.33544 -6.1349 0
M  V30 25801 O 4627.44 6.7751 -3.72168 0
M  V30 25802 C 4626.5 7.20825 -2.7076 0
M  V30 25803 C 4627.23 7.45864 -1.40599 0
M  V30 25804 O 4627.44 6.17651 -0.734225 0
M  V30 25805 C 4628.63 8.05808 -1.51899 0
M  V30 25806 O 4629.02 8.74358 -0.335205 0
M  V30 25807 C 4629.51 6.83093 -1.70294 0
M  V30 25808 C 4628.8 5.79992 -0.836974 0
M  V30 25809 N 4628.85 4.41864 -1.38293 0
M  V30 25810 H 4626.01 8.13644 -3.0377 0
M  V30 25811 H 4625.74 6.42788 -2.55485 0
M  V30 25812 H 4626.61 8.12039 -0.792769 0
M  V30 25813 P 4630.57 8.91 -2.02572e-10 0
M  V30 25814 O 4630.79 10.1726 0.733694 0
M  V30 25815 O 4631.36 8.73148 -1.23936 0
M  V30 25816 O 4630.82 7.66872 0.971405 0
M  V30 25817 C 4629.88 7.42309 2.04641 0
M  V30 25818 C 4630.61 6.86059 3.24661 0
M  V30 25819 O 4630.82 5.42847 3.03646 0
M  V30 25820 C 4632.01 7.41196 3.50753 0
M  V30 25821 O 4632.4 7.27073 4.86816 0
M  V30 25822 C 4632.89 6.5273 2.63741 0
M  V30 25823 C 4632.18 5.1842 2.73198 0
M  V30 25824 N 4632.23 4.38762 1.4784 0
M  V30 25825 H 4629.39 8.36803 2.32493 0
M  V30 25826 H 4629.12 6.70197 1.71129 0
M  V30 25827 H 4629.99 7.03551 4.13168 0
M  V30 25828 P 4633.95 7.20834 5.23717 0
M  V30 25829 O 4634.17 7.79853 6.57286 0
M  V30 25830 O 4634.74 7.79239 4.12957 0
M  V30 25831 O 4634.2 5.63315 5.29344 0
M  V30 25832 C 4633.26 4.80255 6.01876 0
M  V30 25833 C 4633.99 3.64202 6.65911 0
M  V30 25834 O 4634.2 2.60694 5.64732 0
M  V30 25835 C 4635.39 3.93473 7.1943 0
M  V30 25836 O 4635.78 3.02071 8.21205 0
M  V30 25837 C 4636.27 3.73047 5.97036 0
M  V30 25838 C 4635.56 2.58828 5.25741 0
M  V30 25839 N 4635.61 2.68068 3.77503 0
M  V30 25840 H 4632.77 5.40332 6.79951 0
M  V30 25841 H 4632.5 4.41613 5.32378 0
M  V30 25842 H 4633.37 3.26331 7.47797 0
M  V30 25843 P 4637.33 2.75334 8.47391 0
M  V30 25844 O 4637.55 2.44571 9.90142 0
M  V30 25845 O 4638.12 3.87688 7.92115 0
M  V30 25846 O 4637.58 1.4459 7.59357 0
M  V30 25847 C 4636.64 0.347608 7.69215 0
M  V30 25848 C 4637.37 -0.96767 7.52806 0
M  V30 25849 O 4637.58 -1.21036 6.1011 0
M  V30 25850 C 4638.77 -1.04544 8.13308 0
M  V30 25851 O 4639.16 -2.38311 8.41922 0
M  V30 25852 C 4639.65 -0.491279 7.02284 0
M  V30 25853 C 4638.94 -0.996264 5.77469 0
M  V30 25854 N 4638.99 -0.0501916 4.62973 0
M  V30 25855 H 4636.15 0.374722 8.67691 0
M  V30 25856 H 4635.88 0.443485 6.90277 0
M  V30 25857 H 4636.75 -1.75537 7.96793 0
M  V30 25858 P 4640.71 -2.75334 8.47391 0
M  V30 25859 O 4640.93 -3.84128 9.44797 0
M  V30 25860 O 4641.5 -1.51947 8.68712 0
M  V30 25861 O 4640.96 -3.29363 6.99321 0
M  V30 25862 C 4640.02 -4.24011 6.4274 0
M  V30 25863 C 4640.75 -5.20775 5.52155 0
M  V30 25864 O 4640.96 -4.56534 4.22446 0
M  V30 25865 C 4642.15 -5.62629 5.96531 0
M  V30 25866 O 4642.54 -6.87667 5.41053 0
M  V30 25867 C 4643.03 -4.52537 5.39283 0
M  V30 25868 C 4642.32 -4.20027 4.08623 0
M  V30 25869 N 4642.37 -2.76189 3.71603 0
M  V30 25870 H 4639.53 -4.797 7.24003 0
M  V30 25871 H 4639.26 -3.69856 5.84513 0
M  V30 25872 H 4640.13 -6.10356 5.41441 0
M  V30 25873 P 4644.09 -7.20834 5.23717 0
M  V30 25874 O 4644.31 -8.66104 5.38572 0
M  V30 25875 O 4644.88 -6.33544 6.1349 0
M  V30 25876 O 4644.34 -6.7751 3.72168 0
M  V30 25877 C 4643.4 -7.20825 2.7076 0
M  V30 25878 C 4644.13 -7.45864 1.40599 0
M  V30 25879 O 4644.34 -6.17651 0.734225 0
M  V30 25880 C 4645.53 -8.05808 1.51899 0
M  V30 25881 O 4645.92 -8.74358 0.335205 0
M  V30 25882 C 4646.41 -6.83093 1.70294 0
M  V30 25883 C 4645.7 -5.79992 0.836974 0
M  V30 25884 N 4645.75 -4.41864 1.38293 0
M  V30 25885 H 4642.91 -8.13644 3.0377 0
M  V30 25886 H 4642.64 -6.42788 2.55485 0
M  V30 25887 H 4643.51 -8.12039 0.792769 0
M  V30 25888 P 4647.47 -8.91 2.03681e-10 0
M  V30 25889 O 4647.69 -10.1726 -0.733694 0
M  V30 25890 O 4648.26 -8.73148 1.23936 0
M  V30 25891 O 4647.72 -7.66872 -0.971405 0
M  V30 25892 C 4646.78 -7.42309 -2.04641 0
M  V30 25893 C 4647.51 -6.86059 -3.24661 0
M  V30 25894 O 4647.72 -5.42847 -3.03646 0
M  V30 25895 C 4648.91 -7.41196 -3.50753 0
M  V30 25896 O 4649.3 -7.27073 -4.86816 0
M  V30 25897 C 4649.79 -6.5273 -2.63741 0
M  V30 25898 C 4649.08 -5.1842 -2.73198 0
M  V30 25899 N 4649.13 -4.38762 -1.4784 0
M  V30 25900 H 4646.29 -8.36803 -2.32493 0
M  V30 25901 H 4646.02 -6.70197 -1.71129 0
M  V30 25902 H 4646.89 -7.03551 -4.13168 0
M  V30 25903 P 4650.85 -7.20834 -5.23717 0
M  V30 25904 O 4651.07 -7.79853 -6.57286 0
M  V30 25905 O 4651.64 -7.79239 -4.12957 0
M  V30 25906 O 4651.1 -5.63315 -5.29344 0
M  V30 25907 C 4650.16 -4.80255 -6.01876 0
M  V30 25908 C 4650.89 -3.64202 -6.65911 0
M  V30 25909 O 4651.1 -2.60694 -5.64732 0
M  V30 25910 C 4652.29 -3.93473 -7.1943 0
M  V30 25911 O 4652.68 -3.02071 -8.21205 0
M  V30 25912 C 4653.17 -3.73047 -5.97036 0
M  V30 25913 C 4652.46 -2.58828 -5.25741 0
M  V30 25914 N 4652.51 -2.68068 -3.77503 0
M  V30 25915 H 4649.67 -5.40332 -6.79951 0
M  V30 25916 H 4649.4 -4.41613 -5.32378 0
M  V30 25917 H 4650.27 -3.26331 -7.47797 0
M  V30 25918 P 4654.23 -2.75334 -8.47391 0
M  V30 25919 O 4654.45 -2.44571 -9.90142 0
M  V30 25920 O 4655.02 -3.87688 -7.92115 0
M  V30 25921 O 4654.48 -1.4459 -7.59357 0
M  V30 25922 C 4653.54 -0.347608 -7.69215 0
M  V30 25923 C 4654.27 0.96767 -7.52806 0
M  V30 25924 O 4654.48 1.21036 -6.1011 0
M  V30 25925 C 4655.67 1.04544 -8.13308 0
M  V30 25926 O 4656.06 2.38311 -8.41922 0
M  V30 25927 C 4656.55 0.491279 -7.02284 0
M  V30 25928 C 4655.84 0.996264 -5.77469 0
M  V30 25929 N 4655.89 0.0501916 -4.62973 0
M  V30 25930 H 4653.05 -0.374722 -8.67691 0
M  V30 25931 H 4652.78 -0.443485 -6.90277 0
M  V30 25932 H 4653.65 1.75537 -7.96793 0
M  V30 25933 P 4657.61 2.75334 -8.47391 0
M  V30 25934 O 4657.83 3.84128 -9.44797 0
M  V30 25935 O 4658.4 1.51947 -8.68712 0
M  V30 25936 O 4657.86 3.29363 -6.99321 0
M  V30 25937 C 4656.92 4.24011 -6.4274 0
M  V30 25938 C 4657.65 5.20775 -5.52155 0
M  V30 25939 O 4657.86 4.56534 -4.22446 0
M  V30 25940 C 4659.05 5.62629 -5.96531 0
M  V30 25941 O 4659.44 6.87667 -5.41053 0
M  V30 25942 C 4659.93 4.52537 -5.39283 0
M  V30 25943 C 4659.22 4.20027 -4.08623 0
M  V30 25944 N 4659.27 2.76189 -3.71603 0
M  V30 25945 H 4656.43 4.797 -7.24003 0
M  V30 25946 H 4656.16 3.69856 -5.84513 0
M  V30 25947 H 4657.03 6.10356 -5.41441 0
M  V30 25948 P 4660.99 7.20834 -5.23717 0
M  V30 25949 O 4661.21 8.66104 -5.38572 0
M  V30 25950 O 4661.78 6.33544 -6.1349 0
M  V30 25951 O 4661.24 6.7751 -3.72168 0
M  V30 25952 C 4660.3 7.20825 -2.7076 0
M  V30 25953 C 4661.03 7.45864 -1.40599 0
M  V30 25954 O 4661.24 6.17651 -0.734225 0
M  V30 25955 C 4662.43 8.05808 -1.51899 0
M  V30 25956 O 4662.82 8.74358 -0.335205 0
M  V30 25957 C 4663.31 6.83093 -1.70294 0
M  V30 25958 C 4662.6 5.79992 -0.836974 0
M  V30 25959 N 4662.65 4.41864 -1.38293 0
M  V30 25960 H 4659.81 8.13644 -3.0377 0
M  V30 25961 H 4659.54 6.42788 -2.55485 0
M  V30 25962 H 4660.41 8.12039 -0.792769 0
M  V30 25963 P 4664.37 8.91 -2.0479e-10 0
M  V30 25964 O 4664.59 10.1746 0.733838 0
M  V30 25965 O 4665.16 8.73346 -1.23964 0
M  V30 25966 O 4664.62 7.66872 0.971405 0
M  V30 25967 C 4663.68 7.42405 2.04668 0
M  V30 25968 C 4664.41 6.86059 3.24661 0
M  V30 25969 O 4664.62 5.42934 3.03695 0
M  V30 25970 C 4665.81 7.41287 3.50796 0
M  V30 25971 O 4666.2 7.27073 4.86816 0
M  V30 25972 C 4666.69 6.5273 2.63741 0
M  V30 25973 C 4665.98 5.1842 2.73198 0
M  V30 25974 N 4666.03 4.38762 1.4784 0
M  V30 25975 C 4665.95 4.83651 0.183876 0
M  V30 25976 N 4666.02 3.88759 -0.699393 0
M  V30 25977 C 4666.17 2.7404 0.0575568 0
M  V30 25978 C 4666.3 1.37902 -0.293928 0
M  V30 25979 N 4666.31 0.938021 -1.54797 0
M  V30 25980 N 4666.42 0.491817 0.70549 0
M  V30 25981 C 4666.41 0.931735 1.95979 0
M  V30 25982 N 4666.29 2.16017 2.41481 0
M  V30 25983 C 4666.17 3.02547 1.39121 0
M  V30 25984 H 4663.19 8.36899 2.3252 0
M  V30 25985 H 4662.92 6.70391 1.71179 0
M  V30 25986 H 4663.79 7.03638 4.13219 0
M  V30 25987 H 4666.45 4.59931 3.54016 0
M  V30 25988 H 4666.73 6.88995 1.59871 0
M  V30 25989 H 4667.72 6.4684 3.0373 0
M  V30 25990 H 4665.88 8.47002 3.20749 0
M  V30 25991 H 4665.84 5.8885 -0.0765548 0
M  V30 25992 H 4666.22 1.60276 -2.32875 0
M  V30 25993 H 4666.41 -0.0699355 -1.73859 0
M  V30 25994 H 4666.52 0.165507 2.71897 0
M  V30 25995 P 4667.75 7.20834 5.23717 0
M  V30 25996 O 4667.97 7.79853 6.57286 0
M  V30 25997 O 4668.54 7.79239 4.12957 0
M  V30 25998 O 4668 5.63315 5.29344 0
M  V30 25999 C 4667.06 4.80255 6.01876 0
M  V30 26000 C 4667.79 3.64202 6.65911 0
M  V30 26001 O 4668 2.60694 5.64732 0
M  V30 26002 C 4669.19 3.93473 7.1943 0
M  V30 26003 O 4669.58 3.02071 8.21205 0
M  V30 26004 C 4670.07 3.73047 5.97036 0
M  V30 26005 C 4669.36 2.58828 5.25741 0
M  V30 26006 N 4669.41 2.68068 3.77503 0
M  V30 26007 H 4666.57 5.40332 6.79951 0
M  V30 26008 H 4666.3 4.41613 5.32378 0
M  V30 26009 H 4667.17 3.26331 7.47797 0
M  V30 26010 P 4671.13 2.75334 8.47391 0
M  V30 26011 O 4671.35 2.44571 9.90142 0
M  V30 26012 O 4671.92 3.87688 7.92115 0
M  V30 26013 O 4671.38 1.4459 7.59357 0
M  V30 26014 C 4670.44 0.347608 7.69215 0
M  V30 26015 C 4671.17 -0.96767 7.52806 0
M  V30 26016 O 4671.38 -1.21036 6.1011 0
M  V30 26017 C 4672.57 -1.04544 8.13308 0
M  V30 26018 O 4672.96 -2.38311 8.41922 0
M  V30 26019 C 4673.45 -0.491279 7.02284 0
M  V30 26020 C 4672.74 -0.996264 5.77469 0
M  V30 26021 N 4672.79 -0.0501916 4.62973 0
M  V30 26022 H 4669.95 0.374722 8.67691 0
M  V30 26023 H 4669.68 0.443485 6.90277 0
M  V30 26024 H 4670.55 -1.75537 7.96793 0
M  V30 26025 P 4674.51 -2.75334 8.47391 0
M  V30 26026 O 4674.73 -3.84128 9.44797 0
M  V30 26027 O 4675.3 -1.51947 8.68712 0
M  V30 26028 O 4674.76 -3.29363 6.99321 0
M  V30 26029 C 4673.82 -4.24011 6.4274 0
M  V30 26030 C 4674.55 -5.20775 5.52155 0
M  V30 26031 O 4674.76 -4.56534 4.22446 0
M  V30 26032 C 4675.95 -5.62629 5.96531 0
M  V30 26033 O 4676.34 -6.87667 5.41053 0
M  V30 26034 C 4676.83 -4.52537 5.39283 0
M  V30 26035 C 4676.12 -4.20027 4.08623 0
M  V30 26036 N 4676.17 -2.76189 3.71603 0
M  V30 26037 H 4673.33 -4.797 7.24003 0
M  V30 26038 H 4673.06 -3.69856 5.84513 0
M  V30 26039 H 4673.93 -6.10356 5.41441 0
M  V30 26040 P 4677.89 -7.20834 5.23717 0
M  V30 26041 O 4678.11 -8.66104 5.38572 0
M  V30 26042 O 4678.68 -6.33544 6.1349 0
M  V30 26043 O 4678.14 -6.7751 3.72168 0
M  V30 26044 C 4677.2 -7.20825 2.7076 0
M  V30 26045 C 4677.93 -7.45864 1.40599 0
M  V30 26046 O 4678.14 -6.17651 0.734225 0
M  V30 26047 C 4679.33 -8.05808 1.51899 0
M  V30 26048 O 4679.72 -8.74358 0.335205 0
M  V30 26049 C 4680.21 -6.83093 1.70294 0
M  V30 26050 C 4679.5 -5.79992 0.836974 0
M  V30 26051 N 4679.55 -4.41864 1.38293 0
M  V30 26052 H 4676.71 -8.13644 3.0377 0
M  V30 26053 H 4676.44 -6.42788 2.55485 0
M  V30 26054 H 4677.31 -8.12039 0.792769 0
M  V30 26055 P 4681.27 -8.91 2.05899e-10 0
M  V30 26056 O 4681.49 -10.1726 -0.733694 0
M  V30 26057 O 4682.06 -8.73148 1.23936 0
M  V30 26058 O 4681.52 -7.66872 -0.971405 0
M  V30 26059 C 4680.58 -7.42309 -2.04641 0
M  V30 26060 C 4681.31 -6.86059 -3.24661 0
M  V30 26061 O 4681.52 -5.42847 -3.03646 0
M  V30 26062 C 4682.71 -7.41196 -3.50753 0
M  V30 26063 O 4683.1 -7.27073 -4.86816 0
M  V30 26064 C 4683.59 -6.5273 -2.63741 0
M  V30 26065 C 4682.88 -5.1842 -2.73198 0
M  V30 26066 N 4682.93 -4.38762 -1.4784 0
M  V30 26067 C 4682.85 -4.81605 -0.168631 0
M  V30 26068 N 4682.93 -3.85454 0.713363 0
M  V30 26069 C 4683.07 -2.6994 -0.0566958 0
M  V30 26070 C 4683.2 -1.34815 0.338502 0
M  V30 26071 O 4683.22 -0.869548 1.47125 0
M  V30 26072 N 4683.32 -0.496304 -0.77465 0
M  V30 26073 C 4683.32 -0.908403 -2.09122 0
M  V30 26074 N 4683.45 0.0517805 -3.00955 0
M  V30 26075 N 4683.19 -2.17875 -2.46519 0
M  V30 26076 C 4683.07 -3.01988 -1.4033 0
M  V30 26077 H 4680.09 -8.36803 -2.32493 0
M  V30 26078 H 4679.82 -6.70197 -1.71129 0
M  V30 26079 H 4680.69 -7.03551 -4.13168 0
M  V30 26080 H 4683.35 -4.59498 -3.54415 0
M  V30 26081 H 4683.62 -6.88898 -1.59848 0
M  V30 26082 H 4684.62 -6.46749 -3.03687 0
M  V30 26083 H 4682.78 -8.46908 -3.20714 0
M  V30 26084 H 4682.73 -5.86405 0.105564 0
M  V30 26085 H 4683.42 0.483664 -0.597855 0
M  V30 26086 H 4683.45 -0.187865 -4.0116 0
M  V30 26087 H 4683.55 1.03585 -2.71726 0
M  V30 26088 P 4684.65 -7.20834 -5.23717 0
M  V30 26089 O 4684.87 -7.79853 -6.57286 0
M  V30 26090 O 4685.44 -7.79239 -4.12957 0
M  V30 26091 O 4684.9 -5.63315 -5.29344 0
M  V30 26092 C 4683.96 -4.80255 -6.01876 0
M  V30 26093 C 4684.69 -3.64202 -6.65911 0
M  V30 26094 O 4684.9 -2.60694 -5.64732 0
M  V30 26095 C 4686.09 -3.93473 -7.1943 0
M  V30 26096 O 4686.48 -3.02071 -8.21205 0
M  V30 26097 C 4686.97 -3.73047 -5.97036 0
M  V30 26098 C 4686.26 -2.58828 -5.25741 0
M  V30 26099 N 4686.31 -2.68068 -3.77503 0
M  V30 26100 H 4683.47 -5.40332 -6.79951 0
M  V30 26101 H 4683.2 -4.41613 -5.32378 0
M  V30 26102 H 4684.07 -3.26331 -7.47797 0
M  V30 26103 P 4688.03 -2.75334 -8.47391 0
M  V30 26104 O 4688.25 -2.44571 -9.90142 0
M  V30 26105 O 4688.82 -3.87688 -7.92115 0
M  V30 26106 O 4688.28 -1.4459 -7.59357 0
M  V30 26107 C 4687.34 -0.347608 -7.69215 0
M  V30 26108 C 4688.07 0.96767 -7.52806 0
M  V30 26109 O 4688.28 1.21036 -6.1011 0
M  V30 26110 C 4689.47 1.04544 -8.13308 0
M  V30 26111 O 4689.86 2.38311 -8.41922 0
M  V30 26112 C 4690.35 0.491279 -7.02284 0
M  V30 26113 C 4689.64 0.996264 -5.77469 0
M  V30 26114 N 4689.69 0.0501916 -4.62973 0
M  V30 26115 H 4686.85 -0.374722 -8.67691 0
M  V30 26116 H 4686.58 -0.443485 -6.90277 0
M  V30 26117 H 4687.45 1.75537 -7.96793 0
M  V30 26118 P 4691.41 2.75334 -8.47391 0
M  V30 26119 O 4691.63 3.84128 -9.44797 0
M  V30 26120 O 4692.2 1.51947 -8.68712 0
M  V30 26121 O 4691.66 3.29363 -6.99321 0
M  V30 26122 C 4690.72 4.24011 -6.4274 0
M  V30 26123 C 4691.45 5.20775 -5.52155 0
M  V30 26124 O 4691.66 4.56534 -4.22446 0
M  V30 26125 C 4692.85 5.62629 -5.96531 0
M  V30 26126 O 4693.24 6.87667 -5.41053 0
M  V30 26127 C 4693.73 4.52537 -5.39283 0
M  V30 26128 C 4693.02 4.20027 -4.08623 0
M  V30 26129 N 4693.07 2.76189 -3.71603 0
M  V30 26130 H 4690.23 4.797 -7.24003 0
M  V30 26131 H 4689.96 3.69856 -5.84513 0
M  V30 26132 H 4690.83 6.10356 -5.41441 0
M  V30 26133 P 4694.79 7.20834 -5.23717 0
M  V30 26134 O 4695.01 8.66104 -5.38572 0
M  V30 26135 O 4695.58 6.33544 -6.1349 0
M  V30 26136 O 4695.04 6.7751 -3.72168 0
M  V30 26137 C 4694.1 7.20825 -2.7076 0
M  V30 26138 C 4694.83 7.45864 -1.40599 0
M  V30 26139 O 4695.04 6.17651 -0.734225 0
M  V30 26140 C 4696.23 8.05808 -1.51899 0
M  V30 26141 O 4696.62 8.74358 -0.335205 0
M  V30 26142 C 4697.11 6.83093 -1.70294 0
M  V30 26143 C 4696.4 5.79992 -0.836974 0
M  V30 26144 N 4696.45 4.41864 -1.38293 0
M  V30 26145 H 4693.61 8.13644 -3.0377 0
M  V30 26146 H 4693.34 6.42788 -2.55485 0
M  V30 26147 H 4694.21 8.12039 -0.792769 0
M  V30 26148 P 4698.17 8.91 -2.07008e-10 0
M  V30 26149 O 4698.39 10.1726 0.733694 0
M  V30 26150 O 4698.96 8.73148 -1.23936 0
M  V30 26151 O 4698.42 7.66872 0.971405 0
M  V30 26152 C 4697.48 7.42309 2.04641 0
M  V30 26153 C 4698.21 6.86059 3.24661 0
M  V30 26154 O 4698.42 5.42847 3.03646 0
M  V30 26155 C 4699.61 7.41196 3.50753 0
M  V30 26156 O 4700 7.27073 4.86816 0
M  V30 26157 C 4700.49 6.5273 2.63741 0
M  V30 26158 C 4699.78 5.1842 2.73198 0
M  V30 26159 N 4699.83 4.38762 1.4784 0
M  V30 26160 H 4696.99 8.36803 2.32493 0
M  V30 26161 H 4696.72 6.70197 1.71129 0
M  V30 26162 H 4697.59 7.03551 4.13168 0
M  V30 26163 P 4701.55 7.20834 5.23717 0
M  V30 26164 O 4701.77 7.79853 6.57286 0
M  V30 26165 O 4702.34 7.79239 4.12957 0
M  V30 26166 O 4701.8 5.63315 5.29344 0
M  V30 26167 C 4700.86 4.80255 6.01876 0
M  V30 26168 C 4701.59 3.64202 6.65911 0
M  V30 26169 O 4701.8 2.60694 5.64732 0
M  V30 26170 C 4702.99 3.93473 7.1943 0
M  V30 26171 O 4703.38 3.02071 8.21205 0
M  V30 26172 C 4703.87 3.73047 5.97036 0
M  V30 26173 C 4703.16 2.58828 5.25741 0
M  V30 26174 N 4703.21 2.68068 3.77503 0
M  V30 26175 H 4700.37 5.40332 6.79951 0
M  V30 26176 H 4700.1 4.41613 5.32378 0
M  V30 26177 H 4700.97 3.26331 7.47797 0
M  V30 26178 P 4704.93 2.75334 8.47391 0
M  V30 26179 O 4705.15 2.44571 9.90142 0
M  V30 26180 O 4705.72 3.87688 7.92115 0
M  V30 26181 O 4705.18 1.4459 7.59357 0
M  V30 26182 C 4704.24 0.347608 7.69215 0
M  V30 26183 C 4704.97 -0.96767 7.52806 0
M  V30 26184 O 4705.18 -1.21036 6.1011 0
M  V30 26185 C 4706.37 -1.04544 8.13308 0
M  V30 26186 O 4706.76 -2.38311 8.41922 0
M  V30 26187 C 4707.25 -0.491279 7.02284 0
M  V30 26188 C 4706.54 -0.996264 5.77469 0
M  V30 26189 N 4706.59 -0.0501916 4.62973 0
M  V30 26190 H 4703.75 0.374722 8.67691 0
M  V30 26191 H 4703.48 0.443485 6.90277 0
M  V30 26192 H 4704.35 -1.75537 7.96793 0
M  V30 26193 P 4708.31 -2.75334 8.47391 0
M  V30 26194 O 4708.53 -3.84128 9.44797 0
M  V30 26195 O 4709.1 -1.51947 8.68712 0
M  V30 26196 O 4708.56 -3.29363 6.99321 0
M  V30 26197 C 4707.62 -4.24011 6.4274 0
M  V30 26198 C 4708.35 -5.20775 5.52155 0
M  V30 26199 O 4708.56 -4.56534 4.22446 0
M  V30 26200 C 4709.75 -5.62629 5.96531 0
M  V30 26201 O 4710.14 -6.87667 5.41053 0
M  V30 26202 C 4710.63 -4.52537 5.39283 0
M  V30 26203 C 4709.92 -4.20027 4.08623 0
M  V30 26204 N 4709.97 -2.76189 3.71603 0
M  V30 26205 H 4707.13 -4.797 7.24003 0
M  V30 26206 H 4706.86 -3.69856 5.84513 0
M  V30 26207 H 4707.73 -6.10356 5.41441 0
M  V30 26208 P 4711.69 -7.20834 5.23717 0
M  V30 26209 O 4711.91 -8.66104 5.38572 0
M  V30 26210 O 4712.48 -6.33544 6.1349 0
M  V30 26211 O 4711.94 -6.7751 3.72168 0
M  V30 26212 C 4711 -7.20825 2.7076 0
M  V30 26213 C 4711.73 -7.45864 1.40599 0
M  V30 26214 O 4711.94 -6.17651 0.734225 0
M  V30 26215 C 4713.13 -8.05808 1.51899 0
M  V30 26216 O 4713.52 -8.74358 0.335205 0
M  V30 26217 C 4714.01 -6.83093 1.70294 0
M  V30 26218 C 4713.3 -5.79992 0.836974 0
M  V30 26219 N 4713.35 -4.41864 1.38293 0
M  V30 26220 H 4710.51 -8.13644 3.0377 0
M  V30 26221 H 4710.24 -6.42788 2.55485 0
M  V30 26222 H 4711.11 -8.12039 0.792769 0
M  V30 26223 P 4715.07 -8.91 2.08117e-10 0
M  V30 26224 O 4715.29 -10.1746 -0.733838 0
M  V30 26225 O 4715.86 -8.73346 1.23964 0
M  V30 26226 O 4715.32 -7.66872 -0.971405 0
M  V30 26227 C 4714.38 -7.42405 -2.04668 0
M  V30 26228 C 4715.11 -6.86059 -3.24661 0
M  V30 26229 O 4715.32 -5.42934 -3.03695 0
M  V30 26230 C 4716.51 -7.41287 -3.50796 0
M  V30 26231 O 4716.9 -7.27073 -4.86816 0
M  V30 26232 C 4717.39 -6.5273 -2.63741 0
M  V30 26233 C 4716.68 -5.1842 -2.73198 0
M  V30 26234 N 4716.73 -4.38762 -1.4784 0
M  V30 26235 C 4716.65 -4.83651 -0.183876 0
M  V30 26236 N 4716.72 -3.88759 0.699393 0
M  V30 26237 C 4716.87 -2.7404 -0.0575568 0
M  V30 26238 C 4717 -1.37902 0.293928 0
M  V30 26239 N 4717.01 -0.938021 1.54797 0
M  V30 26240 N 4717.12 -0.491817 -0.70549 0
M  V30 26241 C 4717.11 -0.931735 -1.95979 0
M  V30 26242 N 4716.99 -2.16017 -2.41481 0
M  V30 26243 C 4716.87 -3.02547 -1.39121 0
M  V30 26244 H 4713.89 -8.36899 -2.3252 0
M  V30 26245 H 4713.62 -6.70391 -1.71179 0
M  V30 26246 H 4714.49 -7.03638 -4.13219 0
M  V30 26247 H 4717.15 -4.59931 -3.54016 0
M  V30 26248 H 4717.43 -6.88995 -1.59871 0
M  V30 26249 H 4718.42 -6.4684 -3.0373 0
M  V30 26250 H 4716.58 -8.47002 -3.20749 0
M  V30 26251 H 4716.54 -5.8885 0.0765548 0
M  V30 26252 H 4716.92 -1.60276 2.32875 0
M  V30 26253 H 4717.11 0.0699355 1.73859 0
M  V30 26254 H 4717.22 -0.165507 -2.71897 0
M  V30 26255 P 4718.45 -7.20834 -5.23717 0
M  V30 26256 O 4718.67 -7.7993 -6.57351 0
M  V30 26257 O 4719.24 -7.79328 -4.13004 0
M  V30 26258 O 4718.7 -5.63315 -5.29344 0
M  V30 26259 C 4717.76 -4.80193 -6.01798 0
M  V30 26260 C 4718.49 -3.64202 -6.65911 0
M  V30 26261 O 4718.7 -2.60694 -5.64732 0
M  V30 26262 C 4719.89 -3.93473 -7.1943 0
M  V30 26263 O 4720.28 -3.02071 -8.21205 0
M  V30 26264 C 4720.77 -3.73047 -5.97036 0
M  V30 26265 C 4720.06 -2.58828 -5.25741 0
M  V30 26266 N 4720.11 -2.6801 -3.77422 0
M  V30 26267 C 4720.26 -1.50443 -3.07133 0
M  V30 26268 O 4720.35 -0.419406 -3.61576 0
M  V30 26269 N 4720.3 -1.6403 -1.69677 0
M  V30 26270 C 4720.21 -2.81206 -0.986255 0
M  V30 26271 O 4720.26 -2.80892 0.249754 0
M  V30 26272 C 4720.06 -3.99158 -1.80325 0
M  V30 26273 C 4719.95 -5.29309 -1.06921 0
M  V30 26274 C 4720.01 -3.89779 -3.1476 0
M  V30 26275 H 4717.27 -5.40332 -6.79951 0
M  V30 26276 H 4717 -4.41549 -5.32301 0
M  V30 26277 H 4717.87 -3.26331 -7.47797 0
M  V30 26278 H 4720.53 -1.6395 -5.56554 0
M  V30 26279 H 4720.8 -4.63439 -5.3432 0
M  V30 26280 H 4721.8 -3.44728 -6.25838 0
M  V30 26281 H 4719.96 -4.96652 -7.57263 0
M  V30 26282 H 4719.89 -4.80159 -3.74441 0
M  V30 26283 H 4720.92 -5.81459 -1.09608 0
M  V30 26284 H 4719.18 -5.9187 -1.54487 0
M  V30 26285 H 4719.67 -5.10095 -0.0220288 0
M  V30 26286 H 4720.41 -0.798962 -1.16664 0
M  V30 26287 P 4721.83 -2.75334 -8.47391 0
M  V30 26288 O 4722.05 -2.44619 -9.90336 0
M  V30 26289 O 4722.62 -3.87776 -7.92294 0
M  V30 26290 O 4722.08 -1.4459 -7.59357 0
M  V30 26291 C 4721.14 -0.347653 -7.69315 0
M  V30 26292 C 4721.87 0.96767 -7.52806 0
M  V30 26293 O 4722.08 1.21055 -6.10208 0
M  V30 26294 C 4723.27 1.04557 -8.13408 0
M  V30 26295 O 4723.66 2.38311 -8.41922 0
M  V30 26296 C 4724.15 0.491279 -7.02284 0
M  V30 26297 C 4723.44 0.996264 -5.77469 0
M  V30 26298 N 4723.49 0.0501916 -4.62973 0
M  V30 26299 H 4720.65 -0.374765 -8.67791 0
M  V30 26300 H 4720.38 -0.443613 -6.90476 0
M  V30 26301 H 4721.25 1.75559 -7.96891 0
M  V30 26302 H 4723.91 1.94563 -5.46818 0
M  V30 26303 H 4724.19 -0.608651 -7.04676 0
M  V30 26304 H 4725.18 0.889796 -7.09039 0
M  V30 26305 H 4723.34 0.433128 -9.04664 0
M  V30 26306 P 4725.21 2.75334 -8.47391 0
M  V30 26307 O 4725.43 3.84128 -9.44797 0
M  V30 26308 O 4726 1.51947 -8.68712 0
M  V30 26309 O 4725.46 3.29363 -6.99321 0
M  V30 26310 C 4724.52 4.24011 -6.4274 0
M  V30 26311 C 4725.25 5.20775 -5.52155 0
M  V30 26312 O 4725.46 4.56534 -4.22446 0
M  V30 26313 C 4726.65 5.62629 -5.96531 0
M  V30 26314 O 4727.04 6.87667 -5.41053 0
M  V30 26315 C 4727.53 4.52537 -5.39283 0
M  V30 26316 C 4726.82 4.20027 -4.08623 0
M  V30 26317 N 4726.87 2.76189 -3.71603 0
M  V30 26318 H 4724.03 4.797 -7.24003 0
M  V30 26319 H 4723.76 3.69856 -5.84513 0
M  V30 26320 H 4724.63 6.10356 -5.41441 0
M  V30 26321 P 4728.59 7.20834 -5.23717 0
M  V30 26322 O 4728.81 8.66104 -5.38572 0
M  V30 26323 O 4729.38 6.33544 -6.1349 0
M  V30 26324 O 4728.84 6.7751 -3.72168 0
M  V30 26325 C 4727.9 7.20825 -2.7076 0
M  V30 26326 C 4728.63 7.45864 -1.40599 0
M  V30 26327 O 4728.84 6.17651 -0.734225 0
M  V30 26328 C 4730.03 8.05808 -1.51899 0
M  V30 26329 O 4730.42 8.74358 -0.335205 0
M  V30 26330 C 4730.91 6.83093 -1.70294 0
M  V30 26331 C 4730.2 5.79992 -0.836974 0
M  V30 26332 N 4730.25 4.41864 -1.38293 0
M  V30 26333 H 4727.41 8.13644 -3.0377 0
M  V30 26334 H 4727.14 6.42788 -2.55485 0
M  V30 26335 H 4728.01 8.12039 -0.792769 0
M  V30 26336 P 4731.97 8.91 -2.09226e-10 0
M  V30 26337 O 4732.19 10.1726 0.733694 0
M  V30 26338 O 4732.76 8.73148 -1.23936 0
M  V30 26339 O 4732.22 7.66872 0.971405 0
M  V30 26340 C 4731.28 7.42309 2.04641 0
M  V30 26341 C 4732.01 6.86059 3.24661 0
M  V30 26342 O 4732.22 5.42847 3.03646 0
M  V30 26343 C 4733.41 7.41196 3.50753 0
M  V30 26344 O 4733.8 7.27073 4.86816 0
M  V30 26345 C 4734.29 6.5273 2.63741 0
M  V30 26346 C 4733.58 5.1842 2.73198 0
M  V30 26347 N 4733.63 4.38762 1.4784 0
M  V30 26348 H 4730.79 8.36803 2.32493 0
M  V30 26349 H 4730.52 6.70197 1.71129 0
M  V30 26350 H 4731.39 7.03551 4.13168 0
M  V30 26351 P 4735.35 7.20834 5.23717 0
M  V30 26352 O 4735.57 7.79853 6.57286 0
M  V30 26353 O 4736.14 7.79239 4.12957 0
M  V30 26354 O 4735.6 5.63315 5.29344 0
M  V30 26355 C 4734.66 4.80255 6.01876 0
M  V30 26356 C 4735.39 3.64202 6.65911 0
M  V30 26357 O 4735.6 2.60694 5.64732 0
M  V30 26358 C 4736.79 3.93473 7.1943 0
M  V30 26359 O 4737.18 3.02071 8.21205 0
M  V30 26360 C 4737.67 3.73047 5.97036 0
M  V30 26361 C 4736.96 2.58828 5.25741 0
M  V30 26362 N 4737.01 2.68068 3.77503 0
M  V30 26363 H 4734.17 5.40332 6.79951 0
M  V30 26364 H 4733.9 4.41613 5.32378 0
M  V30 26365 H 4734.77 3.26331 7.47797 0
M  V30 26366 P 4738.73 2.75334 8.47391 0
M  V30 26367 O 4738.95 2.44595 9.90239 0
M  V30 26368 O 4739.52 3.87732 7.92204 0
M  V30 26369 O 4738.98 1.4459 7.59357 0
M  V30 26370 C 4738.04 0.347563 7.69115 0
M  V30 26371 C 4738.77 -0.96767 7.52806 0
M  V30 26372 O 4738.98 -1.21036 6.1011 0
M  V30 26373 C 4740.17 -1.04544 8.13308 0
M  V30 26374 O 4740.56 -2.38311 8.41922 0
M  V30 26375 C 4741.05 -0.491279 7.02284 0
M  V30 26376 C 4740.34 -0.996264 5.77469 0
M  V30 26377 N 4740.39 -0.0501808 4.62873 0
M  V30 26378 C 4740.54 -0.588177 3.36904 0
M  V30 26379 O 4740.63 -1.78598 3.17173 0
M  V30 26380 N 4740.58 0.329694 2.33686 0
M  V30 26381 C 4740.49 1.6953 2.45079 0
M  V30 26382 O 4740.54 2.41926 1.44899 0
M  V30 26383 C 4740.34 2.16933 3.80505 0
M  V30 26384 C 4740.23 3.65373 3.97621 0
M  V30 26385 C 4740.29 1.30326 4.83752 0
M  V30 26386 H 4737.55 0.374722 8.67691 0
M  V30 26387 H 4737.28 0.443421 6.90177 0
M  V30 26388 H 4738.15 -1.75537 7.96793 0
M  V30 26389 H 4740.8 -1.94496 5.46629 0
M  V30 26390 H 4741.08 0.608651 7.04676 0
M  V30 26391 H 4742.08 -0.889672 7.08939 0
M  V30 26392 H 4740.24 -0.43308 9.04564 0
M  V30 26393 H 4740.17 1.68366 5.8516 0
M  V30 26394 H 4741.2 4.05985 4.30448 0
M  V30 26395 H 4739.46 3.88028 4.72875 0
M  V30 26396 H 4739.95 4.11381 3.01609 0
M  V30 26397 H 4740.69 -0.0393617 1.41345 0
M  V30 26398 P 4742.11 -2.75334 8.47391 0
M  V30 26399 O 4742.33 -3.84128 9.44797 0
M  V30 26400 O 4742.9 -1.51947 8.68712 0
M  V30 26401 O 4742.36 -3.29363 6.99321 0
M  V30 26402 C 4741.42 -4.24011 6.4274 0
M  V30 26403 C 4742.15 -5.20775 5.52155 0
M  V30 26404 O 4742.36 -4.56534 4.22446 0
M  V30 26405 C 4743.55 -5.62629 5.96531 0
M  V30 26406 O 4743.94 -6.87667 5.41053 0
M  V30 26407 C 4744.43 -4.52537 5.39283 0
M  V30 26408 C 4743.72 -4.20027 4.08623 0
M  V30 26409 N 4743.77 -2.76189 3.71603 0
M  V30 26410 H 4740.93 -4.797 7.24003 0
M  V30 26411 H 4740.66 -3.69856 5.84513 0
M  V30 26412 H 4741.53 -6.10356 5.41441 0
M  V30 26413 P 4745.49 -7.20834 5.23717 0
M  V30 26414 O 4745.71 -8.66104 5.38572 0
M  V30 26415 O 4746.28 -6.33544 6.1349 0
M  V30 26416 O 4745.74 -6.7751 3.72168 0
M  V30 26417 C 4744.8 -7.20825 2.7076 0
M  V30 26418 C 4745.53 -7.45864 1.40599 0
M  V30 26419 O 4745.74 -6.17651 0.734225 0
M  V30 26420 C 4746.93 -8.05808 1.51899 0
M  V30 26421 O 4747.32 -8.74358 0.335205 0
M  V30 26422 C 4747.81 -6.83093 1.70294 0
M  V30 26423 C 4747.1 -5.79992 0.836974 0
M  V30 26424 N 4747.15 -4.41864 1.38293 0
M  V30 26425 H 4744.31 -8.13644 3.0377 0
M  V30 26426 H 4744.04 -6.42788 2.55485 0
M  V30 26427 H 4744.91 -8.12039 0.792769 0
M  V30 26428 P 4748.87 -8.91 2.10335e-10 0
M  V30 26429 O 4749.09 -10.1736 -0.733766 0
M  V30 26430 O 4749.66 -8.73247 1.2395 0
M  V30 26431 O 4749.12 -7.66872 -0.971405 0
M  V30 26432 C 4748.18 -7.42212 -2.04614 0
M  V30 26433 C 4748.91 -6.86059 -3.24661 0
M  V30 26434 O 4749.12 -5.42847 -3.03646 0
M  V30 26435 C 4750.31 -7.41196 -3.50753 0
M  V30 26436 O 4750.7 -7.27073 -4.86816 0
M  V30 26437 C 4751.19 -6.5273 -2.63741 0
M  V30 26438 C 4750.48 -5.1842 -2.73198 0
M  V30 26439 N 4750.53 -4.38668 -1.47808 0
M  V30 26440 C 4750.68 -3.02239 -1.60048 0
M  V30 26441 O 4750.77 -2.46459 -2.67869 0
M  V30 26442 N 4750.72 -2.32436 -0.408571 0
M  V30 26443 C 4750.63 -2.85471 0.854993 0
M  V30 26444 O 4750.68 -2.12566 1.8531 0
M  V30 26445 C 4750.48 -4.28918 0.887335 0
M  V30 26446 C 4750.37 -4.91066 2.24619 0
M  V30 26447 C 4750.43 -5.00349 -0.255399 0
M  V30 26448 H 4747.69 -8.36803 -2.32493 0
M  V30 26449 H 4747.42 -6.701 -1.71105 0
M  V30 26450 H 4748.29 -7.03551 -4.13168 0
M  V30 26451 H 4750.94 -4.59773 -3.53894 0
M  V30 26452 H 4751.22 -6.88995 -1.59871 0
M  V30 26453 H 4752.22 -6.46749 -3.03687 0
M  V30 26454 H 4750.38 -8.46908 -3.20714 0
M  V30 26455 H 4750.31 -6.08548 -0.206986 0
M  V30 26456 H 4751.34 -5.34836 2.53099 0
M  V30 26457 H 4749.6 -5.69638 2.2291 0
M  V30 26458 H 4750.09 -4.13971 2.98044 0
M  V30 26459 H 4750.83 -1.33211 -0.474216 0
M  V30 26460 P 4752.25 -7.20834 -5.23717 0
M  V30 26461 O 4752.47 -7.79853 -6.57286 0
M  V30 26462 O 4753.04 -7.79239 -4.12957 0
M  V30 26463 O 4752.5 -5.63315 -5.29344 0
M  V30 26464 C 4751.56 -4.80255 -6.01876 0
M  V30 26465 C 4752.29 -3.64202 -6.65911 0
M  V30 26466 O 4752.5 -2.60694 -5.64732 0
M  V30 26467 C 4753.69 -3.93473 -7.1943 0
M  V30 26468 O 4754.08 -3.02071 -8.21205 0
M  V30 26469 C 4754.57 -3.73047 -5.97036 0
M  V30 26470 C 4753.86 -2.58828 -5.25741 0
M  V30 26471 N 4753.91 -2.68068 -3.77503 0
M  V30 26472 H 4751.07 -5.40332 -6.79951 0
M  V30 26473 H 4750.8 -4.41613 -5.32378 0
M  V30 26474 H 4751.67 -3.26331 -7.47797 0
M  V30 26475 P 4755.63 -2.75334 -8.47391 0
M  V30 26476 O 4755.85 -2.44571 -9.90142 0
M  V30 26477 O 4756.42 -3.87688 -7.92115 0
M  V30 26478 O 4755.88 -1.4459 -7.59357 0
M  V30 26479 C 4754.94 -0.347608 -7.69215 0
M  V30 26480 C 4755.67 0.96767 -7.52806 0
M  V30 26481 O 4755.88 1.21036 -6.1011 0
M  V30 26482 C 4757.07 1.04544 -8.13308 0
M  V30 26483 O 4757.46 2.38311 -8.41922 0
M  V30 26484 C 4757.95 0.491279 -7.02284 0
M  V30 26485 C 4757.24 0.996264 -5.77469 0
M  V30 26486 N 4757.29 0.0501916 -4.62973 0
M  V30 26487 H 4754.45 -0.374722 -8.67691 0
M  V30 26488 H 4754.18 -0.443485 -6.90277 0
M  V30 26489 H 4755.05 1.75537 -7.96793 0
M  V30 26490 P 4759.01 2.75334 -8.47391 0
M  V30 26491 O 4759.23 3.84128 -9.44797 0
M  V30 26492 O 4759.8 1.51947 -8.68712 0
M  V30 26493 O 4759.26 3.29363 -6.99321 0
M  V30 26494 C 4758.32 4.24011 -6.4274 0
M  V30 26495 C 4759.05 5.20775 -5.52155 0
M  V30 26496 O 4759.26 4.56534 -4.22446 0
M  V30 26497 C 4760.45 5.62629 -5.96531 0
M  V30 26498 O 4760.84 6.87667 -5.41053 0
M  V30 26499 C 4761.33 4.52537 -5.39283 0
M  V30 26500 C 4760.62 4.20027 -4.08623 0
M  V30 26501 N 4760.67 2.76189 -3.71603 0
M  V30 26502 H 4757.83 4.797 -7.24003 0
M  V30 26503 H 4757.56 3.69856 -5.84513 0
M  V30 26504 H 4758.43 6.10356 -5.41441 0
M  V30 26505 P 4762.39 7.20834 -5.23717 0
M  V30 26506 O 4762.61 8.66104 -5.38572 0
M  V30 26507 O 4763.18 6.33544 -6.1349 0
M  V30 26508 O 4762.64 6.7751 -3.72168 0
M  V30 26509 C 4761.7 7.20825 -2.7076 0
M  V30 26510 C 4762.43 7.45864 -1.40599 0
M  V30 26511 O 4762.64 6.17651 -0.734225 0
M  V30 26512 C 4763.83 8.05808 -1.51899 0
M  V30 26513 O 4764.22 8.74358 -0.335205 0
M  V30 26514 C 4764.71 6.83093 -1.70294 0
M  V30 26515 C 4764 5.79992 -0.836974 0
M  V30 26516 N 4764.05 4.41864 -1.38293 0
M  V30 26517 H 4761.21 8.13644 -3.0377 0
M  V30 26518 H 4760.94 6.42788 -2.55485 0
M  V30 26519 H 4761.81 8.12039 -0.792769 0
M  V30 26520 P 4765.77 8.91 -2.11444e-10 0
M  V30 26521 O 4765.99 10.1726 0.733694 0
M  V30 26522 O 4766.56 8.73148 -1.23936 0
M  V30 26523 O 4766.02 7.66872 0.971405 0
M  V30 26524 C 4765.08 7.42309 2.04641 0
M  V30 26525 C 4765.81 6.86059 3.24661 0
M  V30 26526 O 4766.02 5.42847 3.03646 0
M  V30 26527 C 4767.21 7.41196 3.50753 0
M  V30 26528 O 4767.6 7.27073 4.86816 0
M  V30 26529 C 4768.09 6.5273 2.63741 0
M  V30 26530 C 4767.38 5.1842 2.73198 0
M  V30 26531 N 4767.43 4.38762 1.4784 0
M  V30 26532 H 4764.59 8.36803 2.32493 0
M  V30 26533 H 4764.32 6.70197 1.71129 0
M  V30 26534 H 4765.19 7.03551 4.13168 0
M  V30 26535 P 4769.15 7.20834 5.23717 0
M  V30 26536 O 4769.37 7.79853 6.57286 0
M  V30 26537 O 4769.94 7.79239 4.12957 0
M  V30 26538 O 4769.4 5.63315 5.29344 0
M  V30 26539 C 4768.46 4.80255 6.01876 0
M  V30 26540 C 4769.19 3.64202 6.65911 0
M  V30 26541 O 4769.4 2.60694 5.64732 0
M  V30 26542 C 4770.59 3.93473 7.1943 0
M  V30 26543 O 4770.98 3.02071 8.21205 0
M  V30 26544 C 4771.47 3.73047 5.97036 0
M  V30 26545 C 4770.76 2.58828 5.25741 0
M  V30 26546 N 4770.81 2.68068 3.77503 0
M  V30 26547 H 4767.97 5.40332 6.79951 0
M  V30 26548 H 4767.7 4.41613 5.32378 0
M  V30 26549 H 4768.57 3.26331 7.47797 0
M  V30 26550 P 4772.53 2.75334 8.47391 0
M  V30 26551 O 4772.75 2.44571 9.90142 0
M  V30 26552 O 4773.32 3.87688 7.92115 0
M  V30 26553 O 4772.78 1.4459 7.59357 0
M  V30 26554 C 4771.84 0.347608 7.69215 0
M  V30 26555 C 4772.57 -0.96767 7.52806 0
M  V30 26556 O 4772.78 -1.21036 6.1011 0
M  V30 26557 C 4773.97 -1.04544 8.13308 0
M  V30 26558 O 4774.36 -2.38311 8.41922 0
M  V30 26559 C 4774.85 -0.491279 7.02284 0
M  V30 26560 C 4774.14 -0.996264 5.77469 0
M  V30 26561 N 4774.19 -0.0501916 4.62973 0
M  V30 26562 H 4771.35 0.374722 8.67691 0
M  V30 26563 H 4771.08 0.443485 6.90277 0
M  V30 26564 H 4771.95 -1.75537 7.96793 0
M  V30 26565 P 4775.91 -2.75334 8.47391 0
M  V30 26566 O 4776.13 -3.84128 9.44797 0
M  V30 26567 O 4776.7 -1.51947 8.68712 0
M  V30 26568 O 4776.16 -3.29363 6.99321 0
M  V30 26569 C 4775.22 -4.24011 6.4274 0
M  V30 26570 C 4775.95 -5.20775 5.52155 0
M  V30 26571 O 4776.16 -4.56534 4.22446 0
M  V30 26572 C 4777.35 -5.62629 5.96531 0
M  V30 26573 O 4777.74 -6.87667 5.41053 0
M  V30 26574 C 4778.23 -4.52537 5.39283 0
M  V30 26575 C 4777.52 -4.20027 4.08623 0
M  V30 26576 N 4777.57 -2.76189 3.71603 0
M  V30 26577 H 4774.73 -4.797 7.24003 0
M  V30 26578 H 4774.46 -3.69856 5.84513 0
M  V30 26579 H 4775.33 -6.10356 5.41441 0
M  V30 26580 P 4779.29 -7.20834 5.23717 0
M  V30 26581 O 4779.51 -8.66189 5.38625 0
M  V30 26582 O 4780.08 -6.33615 6.1356 0
M  V30 26583 O 4779.54 -6.7751 3.72168 0
M  V30 26584 C 4778.6 -7.20732 2.70725 0
M  V30 26585 C 4779.33 -7.45864 1.40599 0
M  V30 26586 O 4779.54 -6.17651 0.734225 0
M  V30 26587 C 4780.73 -8.05808 1.51899 0
M  V30 26588 O 4781.12 -8.74358 0.335205 0
M  V30 26589 C 4781.61 -6.83093 1.70294 0
M  V30 26590 C 4780.9 -5.79992 0.836974 0
M  V30 26591 N 4780.95 -4.41769 1.38263 0
M  V30 26592 C 4781.1 -3.38591 0.481702 0
M  V30 26593 O 4781.19 -3.56839 -0.718452 0
M  V30 26594 N 4781.14 -2.1206 1.03569 0
M  V30 26595 C 4781.05 -1.80696 2.36966 0
M  V30 26596 O 4781.1 -0.630473 2.74862 0
M  V30 26597 C 4780.9 -2.94845 3.23898 0
M  V30 26598 C 4780.79 -2.65253 4.70362 0
M  V30 26599 C 4780.85 -4.19803 2.73435 0
M  V30 26600 H 4778.11 -8.13644 3.0377 0
M  V30 26601 H 4777.84 -6.42695 2.55448 0
M  V30 26602 H 4778.71 -8.12039 0.792769 0
M  V30 26603 H 4781.36 -5.79978 -0.160587 0
M  V30 26604 H 4781.64 -6.51379 2.75643 0
M  V30 26605 H 4782.64 -7.01734 1.34462 0
M  V30 26606 H 4780.8 -8.73674 2.38337 0
M  V30 26607 H 4780.73 -5.04492 3.4095 0
M  V30 26608 H 4781.76 -2.83924 5.1913 0
M  V30 26609 H 4780.02 -3.29824 5.15163 0
M  V30 26610 H 4780.51 -1.59723 4.84449 0
M  V30 26611 H 4781.25 -1.35644 0.399345 0
M  V30 26612 P 4782.67 -8.91 2.12553e-10 0
M  V30 26613 O 4782.89 -10.1726 -0.733694 0
M  V30 26614 O 4783.46 -8.73148 1.23936 0
M  V30 26615 O 4782.92 -7.66872 -0.971405 0
M  V30 26616 C 4781.98 -7.42309 -2.04641 0
M  V30 26617 C 4782.71 -6.86059 -3.24661 0
M  V30 26618 O 4782.92 -5.42847 -3.03646 0
M  V30 26619 C 4784.11 -7.41196 -3.50753 0
M  V30 26620 O 4784.5 -7.27073 -4.86816 0
M  V30 26621 C 4784.99 -6.5273 -2.63741 0
M  V30 26622 C 4784.28 -5.1842 -2.73198 0
M  V30 26623 N 4784.33 -4.38762 -1.4784 0
M  V30 26624 H 4781.49 -8.36803 -2.32493 0
M  V30 26625 H 4781.22 -6.70197 -1.71129 0
M  V30 26626 H 4782.09 -7.03551 -4.13168 0
M  V30 26627 P 4786.05 -7.20834 -5.23717 0
M  V30 26628 O 4786.27 -7.79853 -6.57286 0
M  V30 26629 O 4786.84 -7.79239 -4.12957 0
M  V30 26630 O 4786.3 -5.63315 -5.29344 0
M  V30 26631 C 4785.36 -4.80255 -6.01876 0
M  V30 26632 C 4786.09 -3.64202 -6.65911 0
M  V30 26633 O 4786.3 -2.60694 -5.64732 0
M  V30 26634 C 4787.49 -3.93473 -7.1943 0
M  V30 26635 O 4787.88 -3.02071 -8.21205 0
M  V30 26636 C 4788.37 -3.73047 -5.97036 0
M  V30 26637 C 4787.66 -2.58828 -5.25741 0
M  V30 26638 N 4787.71 -2.68068 -3.77503 0
M  V30 26639 H 4784.87 -5.40332 -6.79951 0
M  V30 26640 H 4784.6 -4.41613 -5.32378 0
M  V30 26641 H 4785.47 -3.26331 -7.47797 0
M  V30 26642 P 4789.43 -2.75334 -8.47391 0
M  V30 26643 O 4789.65 -2.44571 -9.90142 0
M  V30 26644 O 4790.22 -3.87688 -7.92115 0
M  V30 26645 O 4789.68 -1.4459 -7.59357 0
M  V30 26646 C 4788.74 -0.347608 -7.69215 0
M  V30 26647 C 4789.47 0.96767 -7.52806 0
M  V30 26648 O 4789.68 1.21036 -6.1011 0
M  V30 26649 C 4790.87 1.04544 -8.13308 0
M  V30 26650 O 4791.26 2.38311 -8.41922 0
M  V30 26651 C 4791.75 0.491279 -7.02284 0
M  V30 26652 C 4791.04 0.996264 -5.77469 0
M  V30 26653 N 4791.09 0.0501916 -4.62973 0
M  V30 26654 H 4788.25 -0.374722 -8.67691 0
M  V30 26655 H 4787.98 -0.443485 -6.90277 0
M  V30 26656 H 4788.85 1.75537 -7.96793 0
M  V30 26657 P 4792.81 2.75334 -8.47391 0
M  V30 26658 O 4793.03 3.84166 -9.4489 0
M  V30 26659 O 4793.6 1.51964 -8.6881 0
M  V30 26660 O 4793.06 3.29363 -6.99321 0
M  V30 26661 C 4792.12 4.23956 -6.42656 0
M  V30 26662 C 4792.85 5.20775 -5.52155 0
M  V30 26663 O 4793.06 4.56534 -4.22446 0
M  V30 26664 C 4794.25 5.62629 -5.96531 0
M  V30 26665 O 4794.64 6.87667 -5.41053 0
M  V30 26666 C 4795.13 4.52537 -5.39283 0
M  V30 26667 C 4794.42 4.20027 -4.08623 0
M  V30 26668 N 4794.47 2.7613 -3.71522 0
M  V30 26669 C 4794.62 2.45612 -2.37989 0
M  V30 26670 O 4794.71 3.30919 -1.51621 0
M  V30 26671 N 4794.66 1.10684 -2.08435 0
M  V30 26672 C 4794.57 0.0690084 -2.9792 0
M  V30 26673 O 4794.62 -1.10553 -2.59426 0
M  V30 26674 C 4794.42 0.481522 -4.35345 0
M  V30 26675 C 4794.31 -0.618778 -5.36443 0
M  V30 26676 C 4794.37 1.78906 -4.67968 0
M  V30 26677 H 4791.63 4.797 -7.24003 0
M  V30 26678 H 4791.36 3.69802 -5.84429 0
M  V30 26679 H 4792.23 6.10356 -5.41441 0
M  V30 26680 H 4794.88 4.78651 -3.27911 0
M  V30 26681 H 4795.16 3.64957 -6.05871 0
M  V30 26682 H 4796.16 4.8868 -5.2125 0
M  V30 26683 H 4794.32 5.66726 -7.06352 0
M  V30 26684 H 4794.25 2.07737 -5.72367 0
M  V30 26685 H 4795.28 -0.754375 -5.86871 0
M  V30 26686 H 4793.54 -0.359721 -6.10641 0
M  V30 26687 H 4794.03 -1.55533 -4.8581 0
M  V30 26688 H 4794.77 0.862651 -1.12037 0
M  V30 26689 P 4796.19 7.20834 -5.23717 0
M  V30 26690 O 4796.41 8.66274 -5.38678 0
M  V30 26691 O 4796.98 6.33687 -6.13629 0
M  V30 26692 O 4796.44 6.7751 -3.72168 0
M  V30 26693 C 4795.5 7.20919 -2.70795 0
M  V30 26694 C 4796.23 7.45864 -1.40599 0
M  V30 26695 O 4796.44 6.17751 -0.734343 0
M  V30 26696 C 4797.63 8.05906 -1.51917 0
M  V30 26697 O 4798.02 8.74358 -0.335205 0
M  V30 26698 C 4798.51 6.83093 -1.70294 0
M  V30 26699 C 4797.8 5.79992 -0.836974 0
M  V30 26700 N 4797.85 4.41864 -1.38293 0
M  V30 26701 C 4797.77 4.02089 -2.69407 0
M  V30 26702 N 4797.84 2.73403 -2.85089 0
M  V30 26703 C 4797.99 2.25086 -1.5642 0
M  V30 26704 C 4798.12 0.942887 -1.04836 0
M  V30 26705 N 4798.13 -0.150999 -1.80369 0
M  V30 26706 N 4798.24 0.812565 0.28167 0
M  V30 26707 C 4798.23 1.90572 1.03784 0
M  V30 26708 N 4798.11 3.167 0.683905 0
M  V30 26709 C 4797.99 3.26538 -0.652815 0
M  V30 26710 H 4795.01 8.13738 -3.03804 0
M  V30 26711 H 4794.74 6.42974 -2.55559 0
M  V30 26712 H 4795.61 8.12139 -0.792866 0
M  V30 26713 H 4798.26 5.80178 0.160643 0
M  V30 26714 H 4798.54 6.51379 -2.75643 0
M  V30 26715 H 4799.54 7.01832 -1.3448 0
M  V30 26716 H 4797.7 8.73771 -2.38364 0
M  V30 26717 H 4797.66 4.7189 -3.52311 0
M  V30 26718 H 4798.04 -0.0721434 -2.82608 0
M  V30 26719 H 4798.23 -1.0785 -1.36544 0
M  V30 26720 H 4798.34 1.73207 2.10241 0
M  V30 26721 P 4799.57 8.91 -2.13662e-10 0
M  V30 26722 O 4799.79 10.1746 0.733838 0
M  V30 26723 O 4800.36 8.73346 -1.23964 0
M  V30 26724 O 4799.82 7.66872 0.971405 0
M  V30 26725 C 4798.88 7.42405 2.04668 0
M  V30 26726 C 4799.61 6.86059 3.24661 0
M  V30 26727 O 4799.82 5.42934 3.03695 0
M  V30 26728 C 4801.01 7.41287 3.50796 0
M  V30 26729 O 4801.4 7.27073 4.86816 0
M  V30 26730 C 4801.89 6.5273 2.63741 0
M  V30 26731 C 4801.18 5.1842 2.73198 0
M  V30 26732 N 4801.23 4.38762 1.4784 0
M  V30 26733 C 4801.15 4.83651 0.183876 0
M  V30 26734 N 4801.22 3.88759 -0.699393 0
M  V30 26735 C 4801.37 2.7404 0.0575568 0
M  V30 26736 C 4801.5 1.37902 -0.293928 0
M  V30 26737 N 4801.51 0.938021 -1.54797 0
M  V30 26738 N 4801.62 0.491817 0.70549 0
M  V30 26739 C 4801.61 0.931735 1.95979 0
M  V30 26740 N 4801.49 2.16017 2.41481 0
M  V30 26741 C 4801.37 3.02547 1.39121 0
M  V30 26742 H 4798.39 8.36899 2.3252 0
M  V30 26743 H 4798.12 6.70391 1.71179 0
M  V30 26744 H 4798.99 7.03638 4.13219 0
M  V30 26745 H 4801.64 4.59931 3.54016 0
M  V30 26746 H 4801.92 6.88995 1.59871 0
M  V30 26747 H 4802.92 6.4684 3.0373 0
M  V30 26748 H 4801.08 8.47002 3.20749 0
M  V30 26749 H 4801.04 5.8885 -0.0765548 0
M  V30 26750 H 4801.42 1.60276 -2.32875 0
M  V30 26751 H 4801.61 -0.0699355 -1.73859 0
M  V30 26752 H 4801.72 0.165507 2.71897 0
M  V30 26753 P 4802.95 7.20834 5.23717 0
M  V30 26754 O 4803.17 7.79853 6.57286 0
M  V30 26755 O 4803.74 7.79239 4.12957 0
M  V30 26756 O 4803.2 5.63315 5.29344 0
M  V30 26757 C 4802.26 4.80255 6.01876 0
M  V30 26758 C 4802.99 3.64202 6.65911 0
M  V30 26759 O 4803.2 2.60694 5.64732 0
M  V30 26760 C 4804.39 3.93473 7.1943 0
M  V30 26761 O 4804.78 3.02071 8.21205 0
M  V30 26762 C 4805.27 3.73047 5.97036 0
M  V30 26763 C 4804.56 2.58828 5.25741 0
M  V30 26764 N 4804.61 2.68068 3.77503 0
M  V30 26765 H 4801.77 5.40332 6.79951 0
M  V30 26766 H 4801.5 4.41613 5.32378 0
M  V30 26767 H 4802.37 3.26331 7.47797 0
M  V30 26768 P 4806.33 2.75334 8.47391 0
M  V30 26769 O 4806.55 2.44571 9.90142 0
M  V30 26770 O 4807.12 3.87688 7.92115 0
M  V30 26771 O 4806.58 1.4459 7.59357 0
M  V30 26772 C 4805.64 0.347608 7.69215 0
M  V30 26773 C 4806.37 -0.96767 7.52806 0
M  V30 26774 O 4806.58 -1.21036 6.1011 0
M  V30 26775 C 4807.77 -1.04544 8.13308 0
M  V30 26776 O 4808.16 -2.38311 8.41922 0
M  V30 26777 C 4808.65 -0.491279 7.02284 0
M  V30 26778 C 4807.94 -0.996264 5.77469 0
M  V30 26779 N 4807.99 -0.0501916 4.62973 0
M  V30 26780 H 4805.15 0.374722 8.67691 0
M  V30 26781 H 4804.88 0.443485 6.90277 0
M  V30 26782 H 4805.75 -1.75537 7.96793 0
M  V30 26783 P 4809.71 -2.75334 8.47391 0
M  V30 26784 O 4809.93 -3.84128 9.44797 0
M  V30 26785 O 4810.5 -1.51947 8.68712 0
M  V30 26786 O 4809.96 -3.29363 6.99321 0
M  V30 26787 C 4809.02 -4.24011 6.4274 0
M  V30 26788 C 4809.75 -5.20775 5.52155 0
M  V30 26789 O 4809.96 -4.56534 4.22446 0
M  V30 26790 C 4811.15 -5.62629 5.96531 0
M  V30 26791 O 4811.54 -6.87667 5.41053 0
M  V30 26792 C 4812.03 -4.52537 5.39283 0
M  V30 26793 C 4811.32 -4.20027 4.08623 0
M  V30 26794 N 4811.37 -2.76189 3.71603 0
M  V30 26795 H 4808.53 -4.797 7.24003 0
M  V30 26796 H 4808.26 -3.69856 5.84513 0
M  V30 26797 H 4809.13 -6.10356 5.41441 0
M  V30 26798 P 4813.09 -7.20834 5.23717 0
M  V30 26799 O 4813.31 -8.66104 5.38572 0
M  V30 26800 O 4813.88 -6.33544 6.1349 0
M  V30 26801 O 4813.34 -6.7751 3.72168 0
M  V30 26802 C 4812.4 -7.20825 2.7076 0
M  V30 26803 C 4813.13 -7.45864 1.40599 0
M  V30 26804 O 4813.34 -6.17651 0.734225 0
M  V30 26805 C 4814.53 -8.05808 1.51899 0
M  V30 26806 O 4814.92 -8.74358 0.335205 0
M  V30 26807 C 4815.41 -6.83093 1.70294 0
M  V30 26808 C 4814.7 -5.79992 0.836974 0
M  V30 26809 N 4814.75 -4.41864 1.38293 0
M  V30 26810 H 4811.91 -8.13644 3.0377 0
M  V30 26811 H 4811.64 -6.42788 2.55485 0
M  V30 26812 H 4812.51 -8.12039 0.792769 0
M  V30 26813 P 4816.47 -8.91 2.14771e-10 0
M  V30 26814 O 4816.69 -10.1726 -0.733694 0
M  V30 26815 O 4817.26 -8.73148 1.23936 0
M  V30 26816 O 4816.72 -7.66872 -0.971405 0
M  V30 26817 C 4815.78 -7.42309 -2.04641 0
M  V30 26818 C 4816.51 -6.86059 -3.24661 0
M  V30 26819 O 4816.72 -5.42847 -3.03646 0
M  V30 26820 C 4817.91 -7.41196 -3.50753 0
M  V30 26821 O 4818.3 -7.27073 -4.86816 0
M  V30 26822 C 4818.79 -6.5273 -2.63741 0
M  V30 26823 C 4818.08 -5.1842 -2.73198 0
M  V30 26824 N 4818.13 -4.38762 -1.4784 0
M  V30 26825 H 4815.29 -8.36803 -2.32493 0
M  V30 26826 H 4815.02 -6.70197 -1.71129 0
M  V30 26827 H 4815.89 -7.03551 -4.13168 0
M  V30 26828 P 4819.85 -7.20834 -5.23717 0
M  V30 26829 O 4820.07 -7.7993 -6.57351 0
M  V30 26830 O 4820.64 -7.79328 -4.13004 0
M  V30 26831 O 4820.1 -5.63315 -5.29344 0
M  V30 26832 C 4819.16 -4.80193 -6.01798 0
M  V30 26833 C 4819.89 -3.64202 -6.65911 0
M  V30 26834 O 4820.1 -2.60694 -5.64732 0
M  V30 26835 C 4821.29 -3.93473 -7.1943 0
M  V30 26836 O 4821.68 -3.02071 -8.21205 0
M  V30 26837 C 4822.17 -3.73047 -5.97036 0
M  V30 26838 C 4821.46 -2.58828 -5.25741 0
M  V30 26839 N 4821.51 -2.6801 -3.77422 0
M  V30 26840 C 4821.66 -1.50443 -3.07133 0
M  V30 26841 O 4821.75 -0.419406 -3.61576 0
M  V30 26842 N 4821.7 -1.6403 -1.69677 0
M  V30 26843 C 4821.61 -2.81206 -0.986255 0
M  V30 26844 O 4821.66 -2.80892 0.249754 0
M  V30 26845 C 4821.46 -3.99158 -1.80325 0
M  V30 26846 C 4821.35 -5.29309 -1.06921 0
M  V30 26847 C 4821.41 -3.89779 -3.1476 0
M  V30 26848 H 4818.67 -5.40332 -6.79951 0
M  V30 26849 H 4818.4 -4.41549 -5.32301 0
M  V30 26850 H 4819.27 -3.26331 -7.47797 0
M  V30 26851 H 4821.92 -1.6395 -5.56554 0
M  V30 26852 H 4822.2 -4.63439 -5.3432 0
M  V30 26853 H 4823.2 -3.44728 -6.25838 0
M  V30 26854 H 4821.36 -4.96652 -7.57263 0
M  V30 26855 H 4821.29 -4.80159 -3.74441 0
M  V30 26856 H 4822.32 -5.81459 -1.09608 0
M  V30 26857 H 4820.58 -5.9187 -1.54487 0
M  V30 26858 H 4821.07 -5.10095 -0.0220288 0
M  V30 26859 H 4821.81 -0.798962 -1.16664 0
M  V30 26860 P 4823.23 -2.75334 -8.47391 0
M  V30 26861 O 4823.45 -2.44571 -9.90142 0
M  V30 26862 O 4824.02 -3.87688 -7.92115 0
M  V30 26863 O 4823.48 -1.4459 -7.59357 0
M  V30 26864 C 4822.54 -0.347608 -7.69215 0
M  V30 26865 C 4823.27 0.96767 -7.52806 0
M  V30 26866 O 4823.48 1.21036 -6.1011 0
M  V30 26867 C 4824.67 1.04544 -8.13308 0
M  V30 26868 O 4825.06 2.38311 -8.41922 0
M  V30 26869 C 4825.55 0.491279 -7.02284 0
M  V30 26870 C 4824.84 0.996264 -5.77469 0
M  V30 26871 N 4824.89 0.0501916 -4.62973 0
M  V30 26872 H 4822.05 -0.374722 -8.67691 0
M  V30 26873 H 4821.78 -0.443485 -6.90277 0
M  V30 26874 H 4822.65 1.75537 -7.96793 0
M  V30 26875 P 4826.61 2.75334 -8.47391 0
M  V30 26876 O 4826.83 3.84166 -9.4489 0
M  V30 26877 O 4827.4 1.51964 -8.6881 0
M  V30 26878 O 4826.86 3.29363 -6.99321 0
M  V30 26879 C 4825.92 4.23956 -6.42656 0
M  V30 26880 C 4826.65 5.20775 -5.52155 0
M  V30 26881 O 4826.86 4.56534 -4.22446 0
M  V30 26882 C 4828.05 5.62629 -5.96531 0
M  V30 26883 O 4828.44 6.87667 -5.41053 0
M  V30 26884 C 4828.93 4.52537 -5.39283 0
M  V30 26885 C 4828.22 4.20027 -4.08623 0
M  V30 26886 N 4828.27 2.7613 -3.71522 0
M  V30 26887 C 4828.42 2.45612 -2.37989 0
M  V30 26888 O 4828.51 3.30919 -1.51621 0
M  V30 26889 N 4828.46 1.10684 -2.08435 0
M  V30 26890 C 4828.37 0.0690084 -2.9792 0
M  V30 26891 O 4828.42 -1.10553 -2.59426 0
M  V30 26892 C 4828.22 0.481522 -4.35345 0
M  V30 26893 C 4828.11 -0.618778 -5.36443 0
M  V30 26894 C 4828.17 1.78906 -4.67968 0
M  V30 26895 H 4825.43 4.797 -7.24003 0
M  V30 26896 H 4825.16 3.69802 -5.84429 0
M  V30 26897 H 4826.03 6.10356 -5.41441 0
M  V30 26898 H 4828.68 4.78651 -3.27911 0
M  V30 26899 H 4828.96 3.64957 -6.05871 0
M  V30 26900 H 4829.96 4.8868 -5.2125 0
M  V30 26901 H 4828.12 5.66726 -7.06352 0
M  V30 26902 H 4828.05 2.07737 -5.72367 0
M  V30 26903 H 4829.08 -0.754375 -5.86871 0
M  V30 26904 H 4827.34 -0.359721 -6.10641 0
M  V30 26905 H 4827.83 -1.55533 -4.8581 0
M  V30 26906 H 4828.57 0.862651 -1.12037 0
M  V30 26907 P 4829.99 7.20834 -5.23717 0
M  V30 26908 O 4830.21 8.66189 -5.38625 0
M  V30 26909 O 4830.78 6.33615 -6.1356 0
M  V30 26910 O 4830.24 6.7751 -3.72168 0
M  V30 26911 C 4829.3 7.20732 -2.70725 0
M  V30 26912 C 4830.03 7.45864 -1.40599 0
M  V30 26913 O 4830.24 6.17651 -0.734225 0
M  V30 26914 C 4831.43 8.05808 -1.51899 0
M  V30 26915 O 4831.82 8.74358 -0.335205 0
M  V30 26916 C 4832.31 6.83093 -1.70294 0
M  V30 26917 C 4831.6 5.79992 -0.836974 0
M  V30 26918 N 4831.65 4.41769 -1.38263 0
M  V30 26919 C 4831.8 3.38591 -0.481702 0
M  V30 26920 O 4831.89 3.56839 0.718452 0
M  V30 26921 N 4831.84 2.1206 -1.03569 0
M  V30 26922 C 4831.75 1.80696 -2.36966 0
M  V30 26923 O 4831.8 0.630473 -2.74862 0
M  V30 26924 C 4831.6 2.94845 -3.23898 0
M  V30 26925 C 4831.49 2.65253 -4.70362 0
M  V30 26926 C 4831.55 4.19803 -2.73435 0
M  V30 26927 H 4828.81 8.13644 -3.0377 0
M  V30 26928 H 4828.54 6.42695 -2.55448 0
M  V30 26929 H 4829.41 8.12039 -0.792769 0
M  V30 26930 H 4832.06 5.79978 0.160587 0
M  V30 26931 H 4832.34 6.51379 -2.75643 0
M  V30 26932 H 4833.34 7.01734 -1.34462 0
M  V30 26933 H 4831.5 8.73674 -2.38337 0
M  V30 26934 H 4831.43 5.04492 -3.4095 0
M  V30 26935 H 4832.46 2.83924 -5.1913 0
M  V30 26936 H 4830.72 3.29824 -5.15163 0
M  V30 26937 H 4831.21 1.59723 -4.84449 0
M  V30 26938 H 4831.95 1.35644 -0.399345 0
M  V30 26939 P 4833.37 8.91 -2.1588e-10 0
M  V30 26940 O 4833.59 10.1726 0.733694 0
M  V30 26941 O 4834.16 8.73148 -1.23936 0
M  V30 26942 O 4833.62 7.66872 0.971405 0
M  V30 26943 C 4832.68 7.42309 2.04641 0
M  V30 26944 C 4833.41 6.86059 3.24661 0
M  V30 26945 O 4833.62 5.42847 3.03646 0
M  V30 26946 C 4834.81 7.41196 3.50753 0
M  V30 26947 O 4835.2 7.27073 4.86816 0
M  V30 26948 C 4835.69 6.5273 2.63741 0
M  V30 26949 C 4834.98 5.1842 2.73198 0
M  V30 26950 N 4835.03 4.38762 1.4784 0
M  V30 26951 C 4834.95 4.81605 0.168631 0
M  V30 26952 N 4835.03 3.85454 -0.713363 0
M  V30 26953 C 4835.17 2.6994 0.0566958 0
M  V30 26954 C 4835.3 1.34815 -0.338502 0
M  V30 26955 O 4835.32 0.869548 -1.47125 0
M  V30 26956 N 4835.42 0.496304 0.77465 0
M  V30 26957 C 4835.42 0.908403 2.09122 0
M  V30 26958 N 4835.55 -0.0517805 3.00955 0
M  V30 26959 N 4835.29 2.17875 2.46519 0
M  V30 26960 C 4835.17 3.01988 1.4033 0
M  V30 26961 H 4832.19 8.36803 2.32493 0
M  V30 26962 H 4831.92 6.70197 1.71129 0
M  V30 26963 H 4832.79 7.03551 4.13168 0
M  V30 26964 H 4835.44 4.59498 3.54415 0
M  V30 26965 H 4835.72 6.88898 1.59848 0
M  V30 26966 H 4836.72 6.46749 3.03687 0
M  V30 26967 H 4834.88 8.46908 3.20714 0
M  V30 26968 H 4834.83 5.86405 -0.105564 0
M  V30 26969 H 4835.51 -0.483664 0.597855 0
M  V30 26970 H 4835.55 0.187865 4.0116 0
M  V30 26971 H 4835.65 -1.03585 2.71726 0
M  V30 26972 P 4836.75 7.20834 5.23717 0
M  V30 26973 O 4836.97 7.80006 6.57415 0
M  V30 26974 O 4837.54 7.79416 4.13051 0
M  V30 26975 O 4837 5.63315 5.29344 0
M  V30 26976 C 4836.06 4.80318 6.01954 0
M  V30 26977 C 4836.79 3.64202 6.65911 0
M  V30 26978 O 4837 2.60736 5.64823 0
M  V30 26979 C 4838.19 3.93521 7.19518 0
M  V30 26980 O 4838.58 3.02071 8.21205 0
M  V30 26981 C 4839.07 3.73047 5.97036 0
M  V30 26982 C 4838.36 2.58828 5.25741 0
M  V30 26983 N 4838.41 2.68068 3.77503 0
M  V30 26984 C 4838.33 3.80474 2.99159 0
M  V30 26985 N 4838.4 3.55622 1.71925 0
M  V30 26986 C 4838.55 2.1832 1.65733 0
M  V30 26987 C 4838.68 1.28842 0.572777 0
M  V30 26988 N 4838.69 1.66875 -0.70098 0
M  V30 26989 N 4838.8 -0.016788 0.859836 0
M  V30 26990 C 4838.79 -0.398145 2.13316 0
M  V30 26991 N 4838.67 0.328224 3.22333 0
M  V30 26992 C 4838.55 1.62992 2.90383 0
M  V30 26993 H 4835.57 5.40394 6.8003 0
M  V30 26994 H 4835.3 4.41741 5.32532 0
M  V30 26995 H 4836.17 3.26371 7.47889 0
M  V30 26996 H 4838.82 1.64007 5.56746 0
M  V30 26997 H 4839.1 4.63439 5.3432 0
M  V30 26998 H 4840.1 3.44776 6.25925 0
M  V30 26999 H 4838.26 4.96707 7.57347 0
M  V30 27000 H 4838.22 4.8089 3.39924 0
M  V30 27001 H 4838.6 2.66547 -0.941919 0
M  V30 27002 H 4838.79 0.965341 -1.44766 0
M  V30 27003 H 4838.9 -1.46427 2.29697 0
M  V30 27004 P 4840.13 2.75334 8.47391 0
M  V30 27005 O 4840.35 2.44571 9.90142 0
M  V30 27006 O 4840.92 3.87688 7.92115 0
M  V30 27007 O 4840.38 1.4459 7.59357 0
M  V30 27008 C 4839.44 0.347608 7.69215 0
M  V30 27009 C 4840.17 -0.96767 7.52806 0
M  V30 27010 O 4840.38 -1.21036 6.1011 0
M  V30 27011 C 4841.57 -1.04544 8.13308 0
M  V30 27012 O 4841.96 -2.38311 8.41922 0
M  V30 27013 C 4842.45 -0.491279 7.02284 0
M  V30 27014 C 4841.74 -0.996264 5.77469 0
M  V30 27015 N 4841.79 -0.0501916 4.62973 0
M  V30 27016 H 4838.95 0.374722 8.67691 0
M  V30 27017 H 4838.68 0.443485 6.90277 0
M  V30 27018 H 4839.55 -1.75537 7.96793 0
M  V30 27019 P 4843.51 -2.75334 8.47391 0
M  V30 27020 O 4843.73 -3.84128 9.44797 0
M  V30 27021 O 4844.3 -1.51947 8.68712 0
M  V30 27022 O 4843.76 -3.29363 6.99321 0
M  V30 27023 C 4842.82 -4.24011 6.4274 0
M  V30 27024 C 4843.55 -5.20775 5.52155 0
M  V30 27025 O 4843.76 -4.56534 4.22446 0
M  V30 27026 C 4844.95 -5.62629 5.96531 0
M  V30 27027 O 4845.34 -6.87667 5.41053 0
M  V30 27028 C 4845.83 -4.52537 5.39283 0
M  V30 27029 C 4845.12 -4.20027 4.08623 0
M  V30 27030 N 4845.17 -2.76189 3.71603 0
M  V30 27031 H 4842.33 -4.797 7.24003 0
M  V30 27032 H 4842.06 -3.69856 5.84513 0
M  V30 27033 H 4842.93 -6.10356 5.41441 0
M  V30 27034 P 4846.89 -7.20834 5.23717 0
M  V30 27035 O 4847.11 -8.66104 5.38572 0
M  V30 27036 O 4847.68 -6.33544 6.1349 0
M  V30 27037 O 4847.14 -6.7751 3.72168 0
M  V30 27038 C 4846.2 -7.20825 2.7076 0
M  V30 27039 C 4846.93 -7.45864 1.40599 0
M  V30 27040 O 4847.14 -6.17651 0.734225 0
M  V30 27041 C 4848.33 -8.05808 1.51899 0
M  V30 27042 O 4848.72 -8.74358 0.335205 0
M  V30 27043 C 4849.21 -6.83093 1.70294 0
M  V30 27044 C 4848.5 -5.79992 0.836974 0
M  V30 27045 N 4848.55 -4.41864 1.38293 0
M  V30 27046 C 4848.47 -3.99538 2.69438 0
M  V30 27047 N 4848.55 -2.69909 2.84277 0
M  V30 27048 C 4848.69 -2.21719 1.5408 0
M  V30 27049 C 4848.82 -0.891712 1.06628 0
M  V30 27050 N 4848.94 -0.856846 -0.334985 0
M  V30 27051 C 4848.94 -1.9641 -1.15789 0
M  V30 27052 N 4849.07 -1.72708 -2.46522 0
M  V30 27053 N 4848.81 -3.21165 -0.713741 0
M  V30 27054 C 4848.69 -3.26797 0.639748 0
M  V30 27055 H 4845.71 -8.13644 3.0377 0
M  V30 27056 H 4845.44 -6.42788 2.55485 0
M  V30 27057 H 4846.31 -8.12039 0.792769 0
M  V30 27058 P 4850.27 -8.91 2.16989e-10 0
M  V30 27059 O 4850.49 -10.1746 -0.733838 0
M  V30 27060 O 4851.06 -8.73346 1.23964 0
M  V30 27061 O 4850.52 -7.66872 -0.971405 0
M  V30 27062 C 4849.58 -7.42405 -2.04668 0
M  V30 27063 C 4850.31 -6.86059 -3.24661 0
M  V30 27064 O 4850.52 -5.42934 -3.03695 0
M  V30 27065 C 4851.71 -7.41287 -3.50796 0
M  V30 27066 O 4852.1 -7.27073 -4.86816 0
M  V30 27067 C 4852.59 -6.5273 -2.63741 0
M  V30 27068 C 4851.88 -5.1842 -2.73198 0
M  V30 27069 N 4851.93 -4.38762 -1.4784 0
M  V30 27070 C 4851.85 -4.83651 -0.183876 0
M  V30 27071 N 4851.92 -3.88759 0.699393 0
M  V30 27072 C 4852.07 -2.7404 -0.0575568 0
M  V30 27073 C 4852.2 -1.37902 0.293928 0
M  V30 27074 N 4852.21 -0.938021 1.54797 0
M  V30 27075 N 4852.32 -0.491817 -0.70549 0
M  V30 27076 C 4852.31 -0.931735 -1.95979 0
M  V30 27077 N 4852.19 -2.16017 -2.41481 0
M  V30 27078 C 4852.07 -3.02547 -1.39121 0
M  V30 27079 H 4849.09 -8.36899 -2.3252 0
M  V30 27080 H 4848.82 -6.70391 -1.71179 0
M  V30 27081 H 4849.69 -7.03638 -4.13219 0
M  V30 27082 H 4852.34 -4.59931 -3.54016 0
M  V30 27083 H 4852.62 -6.88995 -1.59871 0
M  V30 27084 H 4853.62 -6.4684 -3.0373 0
M  V30 27085 H 4851.78 -8.47002 -3.20749 0
M  V30 27086 H 4851.74 -5.8885 0.0765548 0
M  V30 27087 H 4852.12 -1.60276 2.32875 0
M  V30 27088 H 4852.31 0.0699355 1.73859 0
M  V30 27089 H 4852.42 -0.165507 -2.71897 0
M  V30 27090 P 4853.65 -7.20834 -5.23717 0
M  V30 27091 O 4853.87 -7.80006 -6.57415 0
M  V30 27092 O 4854.44 -7.79416 -4.13051 0
M  V30 27093 O 4853.9 -5.63315 -5.29344 0
M  V30 27094 C 4852.96 -4.80318 -6.01954 0
M  V30 27095 C 4853.69 -3.64202 -6.65911 0
M  V30 27096 O 4853.9 -2.60736 -5.64823 0
M  V30 27097 C 4855.09 -3.93521 -7.19518 0
M  V30 27098 O 4855.48 -3.02071 -8.21205 0
M  V30 27099 C 4855.97 -3.73047 -5.97036 0
M  V30 27100 C 4855.26 -2.58828 -5.25741 0
M  V30 27101 N 4855.31 -2.68068 -3.77503 0
M  V30 27102 C 4855.23 -3.80474 -2.99159 0
M  V30 27103 N 4855.3 -3.55622 -1.71925 0
M  V30 27104 C 4855.45 -2.1832 -1.65733 0
M  V30 27105 C 4855.58 -1.28842 -0.572777 0
M  V30 27106 N 4855.59 -1.66875 0.70098 0
M  V30 27107 N 4855.7 0.016788 -0.859836 0
M  V30 27108 C 4855.69 0.398145 -2.13316 0
M  V30 27109 N 4855.57 -0.328224 -3.22333 0
M  V30 27110 C 4855.45 -1.62992 -2.90383 0
M  V30 27111 H 4852.47 -5.40394 -6.8003 0
M  V30 27112 H 4852.2 -4.41741 -5.32532 0
M  V30 27113 H 4853.07 -3.26371 -7.47889 0
M  V30 27114 H 4855.72 -1.64007 -5.56746 0
M  V30 27115 H 4856 -4.63439 -5.3432 0
M  V30 27116 H 4857 -3.44776 -6.25925 0
M  V30 27117 H 4855.16 -4.96707 -7.57347 0
M  V30 27118 H 4855.12 -4.8089 -3.39924 0
M  V30 27119 H 4855.5 -2.66547 0.941919 0
M  V30 27120 H 4855.69 -0.965341 1.44766 0
M  V30 27121 H 4855.8 1.46427 -2.29697 0
M  V30 27122 P 4857.03 -2.75334 -8.47391 0
M  V30 27123 O 4857.25 -2.44571 -9.90142 0
M  V30 27124 O 4857.82 -3.87688 -7.92115 0
M  V30 27125 O 4857.28 -1.4459 -7.59357 0
M  V30 27126 C 4856.34 -0.347608 -7.69215 0
M  V30 27127 C 4857.07 0.96767 -7.52806 0
M  V30 27128 O 4857.28 1.21036 -6.1011 0
M  V30 27129 C 4858.47 1.04544 -8.13308 0
M  V30 27130 O 4858.86 2.38311 -8.41922 0
M  V30 27131 C 4859.35 0.491279 -7.02284 0
M  V30 27132 C 4858.64 0.996264 -5.77469 0
M  V30 27133 N 4858.69 0.0501916 -4.62973 0
M  V30 27134 H 4855.85 -0.374722 -8.67691 0
M  V30 27135 H 4855.58 -0.443485 -6.90277 0
M  V30 27136 H 4856.45 1.75537 -7.96793 0
M  V30 27137 P 4860.41 2.75334 -8.47391 0
M  V30 27138 O 4860.63 3.84128 -9.44797 0
M  V30 27139 O 4861.2 1.51947 -8.68712 0
M  V30 27140 O 4860.66 3.29363 -6.99321 0
M  V30 27141 C 4859.72 4.24011 -6.4274 0
M  V30 27142 C 4860.45 5.20775 -5.52155 0
M  V30 27143 O 4860.66 4.56534 -4.22446 0
M  V30 27144 C 4861.85 5.62629 -5.96531 0
M  V30 27145 O 4862.24 6.87667 -5.41053 0
M  V30 27146 C 4862.73 4.52537 -5.39283 0
M  V30 27147 C 4862.02 4.20027 -4.08623 0
M  V30 27148 N 4862.07 2.76189 -3.71603 0
M  V30 27149 H 4859.23 4.797 -7.24003 0
M  V30 27150 H 4858.96 3.69856 -5.84513 0
M  V30 27151 H 4859.83 6.10356 -5.41441 0
M  V30 27152 P 4863.79 7.20834 -5.23717 0
M  V30 27153 O 4864.01 8.66104 -5.38572 0
M  V30 27154 O 4864.58 6.33544 -6.1349 0
M  V30 27155 O 4864.04 6.7751 -3.72168 0
M  V30 27156 C 4863.1 7.20825 -2.7076 0
M  V30 27157 C 4863.83 7.45864 -1.40599 0
M  V30 27158 O 4864.04 6.17651 -0.734225 0
M  V30 27159 C 4865.23 8.05808 -1.51899 0
M  V30 27160 O 4865.62 8.74358 -0.335205 0
M  V30 27161 C 4866.11 6.83093 -1.70294 0
M  V30 27162 C 4865.4 5.79992 -0.836974 0
M  V30 27163 N 4865.45 4.41864 -1.38293 0
M  V30 27164 C 4865.37 3.99538 -2.69438 0
M  V30 27165 N 4865.45 2.69909 -2.84277 0
M  V30 27166 C 4865.59 2.21719 -1.5408 0
M  V30 27167 C 4865.72 0.891712 -1.06628 0
M  V30 27168 O 4865.74 -0.161298 -1.70137 0
M  V30 27169 N 4865.84 0.856846 0.334985 0
M  V30 27170 C 4865.84 1.9641 1.15789 0
M  V30 27171 N 4865.97 1.72708 2.46522 0
M  V30 27172 N 4865.71 3.21165 0.713741 0
M  V30 27173 C 4865.59 3.26797 -0.639748 0
M  V30 27174 H 4862.61 8.13644 -3.0377 0
M  V30 27175 H 4862.34 6.42788 -2.55485 0
M  V30 27176 H 4863.21 8.12039 -0.792769 0
M  V30 27177 H 4865.86 5.80061 0.166416 0
M  V30 27178 H 4866.14 6.51287 -2.75604 0
M  V30 27179 H 4867.14 7.01734 -1.34462 0
M  V30 27180 H 4865.3 8.73674 -2.38337 0
M  V30 27181 H 4865.25 4.68207 -3.53221 0
M  V30 27182 H 4865.93 -0.0398818 0.767965 0
M  V30 27183 H 4865.97 2.50995 3.13503 0
M  V30 27184 H 4866.07 0.759148 2.80716 0
M  V30 27185 P 4867.17 8.91 -2.18098e-10 0
M  V30 27186 O 4867.39 10.1736 0.733766 0
M  V30 27187 O 4867.96 8.73247 -1.2395 0
M  V30 27188 O 4867.42 7.66872 0.971405 0
M  V30 27189 C 4866.48 7.42212 2.04614 0
M  V30 27190 C 4867.21 6.86059 3.24661 0
M  V30 27191 O 4867.42 5.42847 3.03646 0
M  V30 27192 C 4868.61 7.41196 3.50753 0
M  V30 27193 O 4869 7.27073 4.86816 0
M  V30 27194 C 4869.49 6.5273 2.63741 0
M  V30 27195 C 4868.78 5.1842 2.73198 0
M  V30 27196 N 4868.83 4.38668 1.47808 0
M  V30 27197 C 4868.98 3.02239 1.60048 0
M  V30 27198 O 4869.07 2.46459 2.67869 0
M  V30 27199 N 4869.02 2.32436 0.408571 0
M  V30 27200 C 4868.93 2.85471 -0.854993 0
M  V30 27201 O 4868.98 2.12566 -1.8531 0
M  V30 27202 C 4868.78 4.28918 -0.887335 0
M  V30 27203 C 4868.67 4.91066 -2.24619 0
M  V30 27204 C 4868.73 5.00349 0.255399 0
M  V30 27205 H 4865.99 8.36803 2.32493 0
M  V30 27206 H 4865.72 6.701 1.71105 0
M  V30 27207 H 4866.59 7.03551 4.13168 0
M  V30 27208 H 4869.24 4.59773 3.53894 0
M  V30 27209 H 4869.52 6.88995 1.59871 0
M  V30 27210 H 4870.52 6.46749 3.03687 0
M  V30 27211 H 4868.68 8.46908 3.20714 0
M  V30 27212 H 4868.61 6.08548 0.206986 0
M  V30 27213 H 4869.64 5.34836 -2.53099 0
M  V30 27214 H 4867.9 5.69638 -2.2291 0
M  V30 27215 H 4868.39 4.13971 -2.98044 0
M  V30 27216 H 4869.13 1.33211 0.474216 0
M  V30 27217 P 4870.55 7.20834 5.23717 0
M  V30 27218 O 4870.77 7.79853 6.57286 0
M  V30 27219 O 4871.34 7.79239 4.12957 0
M  V30 27220 O 4870.8 5.63315 5.29344 0
M  V30 27221 C 4869.86 4.80255 6.01876 0
M  V30 27222 C 4870.59 3.64202 6.65911 0
M  V30 27223 O 4870.8 2.60694 5.64732 0
M  V30 27224 C 4871.99 3.93473 7.1943 0
M  V30 27225 O 4872.38 3.02071 8.21205 0
M  V30 27226 C 4872.87 3.73047 5.97036 0
M  V30 27227 C 4872.16 2.58828 5.25741 0
M  V30 27228 N 4872.21 2.68068 3.77503 0
M  V30 27229 H 4869.37 5.40332 6.79951 0
M  V30 27230 H 4869.1 4.41613 5.32378 0
M  V30 27231 H 4869.97 3.26331 7.47797 0
M  V30 27232 P 4873.93 2.75334 8.47391 0
M  V30 27233 O 4874.15 2.44571 9.90142 0
M  V30 27234 O 4874.72 3.87688 7.92115 0
M  V30 27235 O 4874.18 1.4459 7.59357 0
M  V30 27236 C 4873.24 0.347608 7.69215 0
M  V30 27237 C 4873.97 -0.96767 7.52806 0
M  V30 27238 O 4874.18 -1.21036 6.1011 0
M  V30 27239 C 4875.37 -1.04544 8.13308 0
M  V30 27240 O 4875.76 -2.38311 8.41922 0
M  V30 27241 C 4876.25 -0.491279 7.02284 0
M  V30 27242 C 4875.54 -0.996264 5.77469 0
M  V30 27243 N 4875.59 -0.0501916 4.62973 0
M  V30 27244 C 4875.51 1.32786 4.63244 0
M  V30 27245 N 4875.59 1.86957 3.44545 0
M  V30 27246 C 4875.73 0.780241 2.58481 0
M  V30 27247 C 4875.86 0.738536 1.17757 0
M  V30 27248 N 4875.98 -0.58337 0.711393 0
M  V30 27249 C 4875.98 -1.70816 1.51017 0
M  V30 27250 N 4876.11 -2.87826 0.880757 0
M  V30 27251 N 4875.85 -1.67126 2.8339 0
M  V30 27252 C 4875.73 -0.401421 3.30572 0
M  V30 27253 H 4872.75 0.374722 8.67691 0
M  V30 27254 H 4872.48 0.443485 6.90277 0
M  V30 27255 H 4873.35 -1.75537 7.96793 0
M  V30 27256 P 4877.31 -2.75334 8.47391 0
M  V30 27257 O 4877.53 -3.84128 9.44797 0
M  V30 27258 O 4878.1 -1.51947 8.68712 0
M  V30 27259 O 4877.56 -3.29363 6.99321 0
M  V30 27260 C 4876.62 -4.24011 6.4274 0
M  V30 27261 C 4877.35 -5.20775 5.52155 0
M  V30 27262 O 4877.56 -4.56534 4.22446 0
M  V30 27263 C 4878.75 -5.62629 5.96531 0
M  V30 27264 O 4879.14 -6.87667 5.41053 0
M  V30 27265 C 4879.63 -4.52537 5.39283 0
M  V30 27266 C 4878.92 -4.20027 4.08623 0
M  V30 27267 N 4878.97 -2.76189 3.71603 0
M  V30 27268 H 4876.13 -4.797 7.24003 0
M  V30 27269 H 4875.86 -3.69856 5.84513 0
M  V30 27270 H 4876.73 -6.10356 5.41441 0
M  V30 27271 P 4880.69 -7.20834 5.23717 0
M  V30 27272 O 4880.91 -8.66104 5.38572 0
M  V30 27273 O 4881.48 -6.33544 6.1349 0
M  V30 27274 O 4880.94 -6.7751 3.72168 0
M  V30 27275 C 4880 -7.20825 2.7076 0
M  V30 27276 C 4880.73 -7.45864 1.40599 0
M  V30 27277 O 4880.94 -6.17651 0.734225 0
M  V30 27278 C 4882.13 -8.05808 1.51899 0
M  V30 27279 O 4882.52 -8.74358 0.335205 0
M  V30 27280 C 4883.01 -6.83093 1.70294 0
M  V30 27281 C 4882.3 -5.79992 0.836974 0
M  V30 27282 N 4882.35 -4.41864 1.38293 0
M  V30 27283 H 4879.51 -8.13644 3.0377 0
M  V30 27284 H 4879.24 -6.42788 2.55485 0
M  V30 27285 H 4880.11 -8.12039 0.792769 0
M  V30 27286 P 4884.07 -8.91 2.19207e-10 0
M  V30 27287 O 4884.29 -10.1746 -0.733838 0
M  V30 27288 O 4884.86 -8.73346 1.23964 0
M  V30 27289 O 4884.32 -7.66872 -0.971405 0
M  V30 27290 C 4883.38 -7.42405 -2.04668 0
M  V30 27291 C 4884.11 -6.86059 -3.24661 0
M  V30 27292 O 4884.32 -5.42934 -3.03695 0
M  V30 27293 C 4885.51 -7.41287 -3.50796 0
M  V30 27294 O 4885.9 -7.27073 -4.86816 0
M  V30 27295 C 4886.39 -6.5273 -2.63741 0
M  V30 27296 C 4885.68 -5.1842 -2.73198 0
M  V30 27297 N 4885.73 -4.38762 -1.4784 0
M  V30 27298 C 4885.65 -4.83651 -0.183876 0
M  V30 27299 N 4885.72 -3.88759 0.699393 0
M  V30 27300 C 4885.87 -2.7404 -0.0575568 0
M  V30 27301 C 4886 -1.37902 0.293928 0
M  V30 27302 N 4886.01 -0.938021 1.54797 0
M  V30 27303 N 4886.12 -0.491817 -0.70549 0
M  V30 27304 C 4886.11 -0.931735 -1.95979 0
M  V30 27305 N 4885.99 -2.16017 -2.41481 0
M  V30 27306 C 4885.87 -3.02547 -1.39121 0
M  V30 27307 H 4882.89 -8.36899 -2.3252 0
M  V30 27308 H 4882.62 -6.70391 -1.71179 0
M  V30 27309 H 4883.49 -7.03638 -4.13219 0
M  V30 27310 H 4886.14 -4.59931 -3.54016 0
M  V30 27311 H 4886.42 -6.88995 -1.59871 0
M  V30 27312 H 4887.42 -6.4684 -3.0373 0
M  V30 27313 H 4885.58 -8.47002 -3.20749 0
M  V30 27314 H 4885.54 -5.8885 0.0765548 0
M  V30 27315 H 4885.92 -1.60276 2.32875 0
M  V30 27316 H 4886.11 0.0699355 1.73859 0
M  V30 27317 H 4886.22 -0.165507 -2.71897 0
M  V30 27318 P 4887.45 -7.20834 -5.23717 0
M  V30 27319 O 4887.67 -7.79853 -6.57286 0
M  V30 27320 O 4888.24 -7.79239 -4.12957 0
M  V30 27321 O 4887.7 -5.63315 -5.29344 0
M  V30 27322 C 4886.76 -4.80255 -6.01876 0
M  V30 27323 C 4887.49 -3.64202 -6.65911 0
M  V30 27324 O 4887.7 -2.60694 -5.64732 0
M  V30 27325 C 4888.89 -3.93473 -7.1943 0
M  V30 27326 O 4889.28 -3.02071 -8.21205 0
M  V30 27327 C 4889.77 -3.73047 -5.97036 0
M  V30 27328 C 4889.06 -2.58828 -5.25741 0
M  V30 27329 N 4889.11 -2.68068 -3.77503 0
M  V30 27330 H 4886.27 -5.40332 -6.79951 0
M  V30 27331 H 4886 -4.41613 -5.32378 0
M  V30 27332 H 4886.87 -3.26331 -7.47797 0
M  V30 27333 P 4890.83 -2.75334 -8.47391 0
M  V30 27334 O 4891.05 -2.44571 -9.90142 0
M  V30 27335 O 4891.62 -3.87688 -7.92115 0
M  V30 27336 O 4891.08 -1.4459 -7.59357 0
M  V30 27337 C 4890.14 -0.347608 -7.69215 0
M  V30 27338 C 4890.87 0.96767 -7.52806 0
M  V30 27339 O 4891.08 1.21036 -6.1011 0
M  V30 27340 C 4892.27 1.04544 -8.13308 0
M  V30 27341 O 4892.66 2.38311 -8.41922 0
M  V30 27342 C 4893.15 0.491279 -7.02284 0
M  V30 27343 C 4892.44 0.996264 -5.77469 0
M  V30 27344 N 4892.49 0.0501916 -4.62973 0
M  V30 27345 H 4889.65 -0.374722 -8.67691 0
M  V30 27346 H 4889.38 -0.443485 -6.90277 0
M  V30 27347 H 4890.25 1.75537 -7.96793 0
M  V30 27348 P 4894.21 2.75334 -8.47391 0
M  V30 27349 O 4894.43 3.84128 -9.44797 0
M  V30 27350 O 4895 1.51947 -8.68712 0
M  V30 27351 O 4894.46 3.29363 -6.99321 0
M  V30 27352 C 4893.52 4.24011 -6.4274 0
M  V30 27353 C 4894.25 5.20775 -5.52155 0
M  V30 27354 O 4894.46 4.56534 -4.22446 0
M  V30 27355 C 4895.65 5.62629 -5.96531 0
M  V30 27356 O 4896.04 6.87667 -5.41053 0
M  V30 27357 C 4896.53 4.52537 -5.39283 0
M  V30 27358 C 4895.82 4.20027 -4.08623 0
M  V30 27359 N 4895.87 2.76189 -3.71603 0
M  V30 27360 H 4893.03 4.797 -7.24003 0
M  V30 27361 H 4892.76 3.69856 -5.84513 0
M  V30 27362 H 4893.63 6.10356 -5.41441 0
M  V30 27363 P 4897.59 7.20834 -5.23717 0
M  V30 27364 O 4897.81 8.66104 -5.38572 0
M  V30 27365 O 4898.38 6.33544 -6.1349 0
M  V30 27366 O 4897.84 6.7751 -3.72168 0
M  V30 27367 C 4896.9 7.20825 -2.7076 0
M  V30 27368 C 4897.63 7.45864 -1.40599 0
M  V30 27369 O 4897.84 6.17651 -0.734225 0
M  V30 27370 C 4899.03 8.05808 -1.51899 0
M  V30 27371 O 4899.42 8.74358 -0.335205 0
M  V30 27372 C 4899.91 6.83093 -1.70294 0
M  V30 27373 C 4899.2 5.79992 -0.836974 0
M  V30 27374 N 4899.25 4.41864 -1.38293 0
M  V30 27375 C 4899.17 3.99538 -2.69438 0
M  V30 27376 N 4899.25 2.69909 -2.84277 0
M  V30 27377 C 4899.39 2.21719 -1.5408 0
M  V30 27378 C 4899.52 0.891712 -1.06628 0
M  V30 27379 O 4899.54 -0.161298 -1.70137 0
M  V30 27380 N 4899.64 0.856846 0.334985 0
M  V30 27381 C 4899.64 1.9641 1.15789 0
M  V30 27382 N 4899.77 1.72708 2.46522 0
M  V30 27383 N 4899.51 3.21165 0.713741 0
M  V30 27384 C 4899.39 3.26797 -0.639748 0
M  V30 27385 H 4896.41 8.13644 -3.0377 0
M  V30 27386 H 4896.14 6.42788 -2.55485 0
M  V30 27387 H 4897.01 8.12039 -0.792769 0
M  V30 27388 H 4899.66 5.80061 0.166416 0
M  V30 27389 H 4899.94 6.51287 -2.75604 0
M  V30 27390 H 4900.94 7.01734 -1.34462 0
M  V30 27391 H 4899.1 8.73674 -2.38337 0
M  V30 27392 H 4899.05 4.68207 -3.53221 0
M  V30 27393 H 4899.73 -0.0398818 0.767965 0
M  V30 27394 H 4899.77 2.50995 3.13503 0
M  V30 27395 H 4899.87 0.759148 2.80716 0
M  V30 27396 P 4900.97 8.91 -2.20316e-10 0
M  V30 27397 O 4901.19 10.1726 0.733694 0
M  V30 27398 O 4901.76 8.73148 -1.23936 0
M  V30 27399 O 4901.22 7.66872 0.971405 0
M  V30 27400 C 4900.28 7.42309 2.04641 0
M  V30 27401 C 4901.01 6.86059 3.24661 0
M  V30 27402 O 4901.22 5.42847 3.03646 0
M  V30 27403 C 4902.41 7.41196 3.50753 0
M  V30 27404 O 4902.8 7.27073 4.86816 0
M  V30 27405 C 4903.29 6.5273 2.63741 0
M  V30 27406 C 4902.58 5.1842 2.73198 0
M  V30 27407 N 4902.63 4.38762 1.4784 0
M  V30 27408 H 4899.79 8.36803 2.32493 0
M  V30 27409 H 4899.52 6.70197 1.71129 0
M  V30 27410 H 4900.39 7.03551 4.13168 0
M  V30 27411 P 4904.35 7.20834 5.23717 0
M  V30 27412 O 4904.57 7.79853 6.57286 0
M  V30 27413 O 4905.14 7.79239 4.12957 0
M  V30 27414 O 4904.6 5.63315 5.29344 0
M  V30 27415 C 4903.66 4.80255 6.01876 0
M  V30 27416 C 4904.39 3.64202 6.65911 0
M  V30 27417 O 4904.6 2.60694 5.64732 0
M  V30 27418 C 4905.79 3.93473 7.1943 0
M  V30 27419 O 4906.18 3.02071 8.21205 0
M  V30 27420 C 4906.67 3.73047 5.97036 0
M  V30 27421 C 4905.96 2.58828 5.25741 0
M  V30 27422 N 4906.01 2.68068 3.77503 0
M  V30 27423 H 4903.17 5.40332 6.79951 0
M  V30 27424 H 4902.9 4.41613 5.32378 0
M  V30 27425 H 4903.77 3.26331 7.47797 0
M  V30 27426 P 4907.73 2.75334 8.47391 0
M  V30 27427 O 4907.95 2.44571 9.90142 0
M  V30 27428 O 4908.52 3.87688 7.92115 0
M  V30 27429 O 4907.98 1.4459 7.59357 0
M  V30 27430 C 4907.04 0.347608 7.69215 0
M  V30 27431 C 4907.77 -0.96767 7.52806 0
M  V30 27432 O 4907.98 -1.21036 6.1011 0
M  V30 27433 C 4909.17 -1.04544 8.13308 0
M  V30 27434 O 4909.56 -2.38311 8.41922 0
M  V30 27435 C 4910.05 -0.491279 7.02284 0
M  V30 27436 C 4909.34 -0.996264 5.77469 0
M  V30 27437 N 4909.39 -0.0501916 4.62973 0
M  V30 27438 H 4906.55 0.374722 8.67691 0
M  V30 27439 H 4906.28 0.443485 6.90277 0
M  V30 27440 H 4907.15 -1.75537 7.96793 0
M  V30 27441 P 4911.11 -2.75334 8.47391 0
M  V30 27442 O 4911.33 -3.84128 9.44797 0
M  V30 27443 O 4911.9 -1.51947 8.68712 0
M  V30 27444 O 4911.36 -3.29363 6.99321 0
M  V30 27445 C 4910.42 -4.24011 6.4274 0
M  V30 27446 C 4911.15 -5.20775 5.52155 0
M  V30 27447 O 4911.36 -4.56534 4.22446 0
M  V30 27448 C 4912.55 -5.62629 5.96531 0
M  V30 27449 O 4912.94 -6.87667 5.41053 0
M  V30 27450 C 4913.43 -4.52537 5.39283 0
M  V30 27451 C 4912.72 -4.20027 4.08623 0
M  V30 27452 N 4912.77 -2.76189 3.71603 0
M  V30 27453 H 4909.93 -4.797 7.24003 0
M  V30 27454 H 4909.66 -3.69856 5.84513 0
M  V30 27455 H 4910.53 -6.10356 5.41441 0
M  V30 27456 P 4914.49 -7.20834 5.23717 0
M  V30 27457 O 4914.71 -8.66104 5.38572 0
M  V30 27458 O 4915.28 -6.33544 6.1349 0
M  V30 27459 O 4914.74 -6.7751 3.72168 0
M  V30 27460 C 4913.8 -7.20825 2.7076 0
M  V30 27461 C 4914.53 -7.45864 1.40599 0
M  V30 27462 O 4914.74 -6.17651 0.734225 0
M  V30 27463 C 4915.93 -8.05808 1.51899 0
M  V30 27464 O 4916.32 -8.74358 0.335205 0
M  V30 27465 C 4916.81 -6.83093 1.70294 0
M  V30 27466 C 4916.1 -5.79992 0.836974 0
M  V30 27467 N 4916.15 -4.41864 1.38293 0
M  V30 27468 H 4913.31 -8.13644 3.0377 0
M  V30 27469 H 4913.04 -6.42788 2.55485 0
M  V30 27470 H 4913.91 -8.12039 0.792769 0
M  V30 27471 P 4917.87 -8.91 2.21425e-10 0
M  V30 27472 O 4918.09 -10.1726 -0.733694 0
M  V30 27473 O 4918.66 -8.73148 1.23936 0
M  V30 27474 O 4918.12 -7.66872 -0.971405 0
M  V30 27475 C 4917.18 -7.42309 -2.04641 0
M  V30 27476 C 4917.91 -6.86059 -3.24661 0
M  V30 27477 O 4918.12 -5.42847 -3.03646 0
M  V30 27478 C 4919.31 -7.41196 -3.50753 0
M  V30 27479 O 4919.7 -7.27073 -4.86816 0
M  V30 27480 C 4920.19 -6.5273 -2.63741 0
M  V30 27481 C 4919.48 -5.1842 -2.73198 0
M  V30 27482 N 4919.53 -4.38762 -1.4784 0
M  V30 27483 H 4916.69 -8.36803 -2.32493 0
M  V30 27484 H 4916.42 -6.70197 -1.71129 0
M  V30 27485 H 4917.29 -7.03551 -4.13168 0
M  V30 27486 P 4921.25 -7.20834 -5.23717 0
M  V30 27487 O 4921.47 -7.79853 -6.57286 0
M  V30 27488 O 4922.04 -7.79239 -4.12957 0
M  V30 27489 O 4921.5 -5.63315 -5.29344 0
M  V30 27490 C 4920.56 -4.80255 -6.01876 0
M  V30 27491 C 4921.29 -3.64202 -6.65911 0
M  V30 27492 O 4921.5 -2.60694 -5.64732 0
M  V30 27493 C 4922.69 -3.93473 -7.1943 0
M  V30 27494 O 4923.08 -3.02071 -8.21205 0
M  V30 27495 C 4923.57 -3.73047 -5.97036 0
M  V30 27496 C 4922.86 -2.58828 -5.25741 0
M  V30 27497 N 4922.91 -2.68068 -3.77503 0
M  V30 27498 H 4920.07 -5.40332 -6.79951 0
M  V30 27499 H 4919.8 -4.41613 -5.32378 0
M  V30 27500 H 4920.67 -3.26331 -7.47797 0
M  V30 27501 P 4924.63 -2.75334 -8.47391 0
M  V30 27502 O 4924.85 -2.44619 -9.90336 0
M  V30 27503 O 4925.42 -3.87776 -7.92294 0
M  V30 27504 O 4924.88 -1.4459 -7.59357 0
M  V30 27505 C 4923.94 -0.347653 -7.69315 0
M  V30 27506 C 4924.67 0.96767 -7.52806 0
M  V30 27507 O 4924.88 1.21055 -6.10208 0
M  V30 27508 C 4926.07 1.04557 -8.13408 0
M  V30 27509 O 4926.46 2.38311 -8.41922 0
M  V30 27510 C 4926.95 0.491279 -7.02284 0
M  V30 27511 C 4926.24 0.996264 -5.77469 0
M  V30 27512 N 4926.29 0.0501916 -4.62973 0
M  V30 27513 C 4926.21 -1.31969 -4.65661 0
M  V30 27514 N 4926.28 -1.86649 -3.48119 0
M  V30 27515 C 4926.43 -0.792089 -2.62406 0
M  V30 27516 C 4926.56 -0.705684 -1.2207 0
M  V30 27517 N 4926.57 -1.76207 -0.413762 0
M  V30 27518 N 4926.68 0.518981 -0.685754 0
M  V30 27519 C 4926.67 1.57595 -1.49174 0
M  V30 27520 N 4926.55 1.62909 -2.80066 0
M  V30 27521 C 4926.43 0.388195 -3.3073 0
M  V30 27522 H 4923.45 -0.374765 -8.67791 0
M  V30 27523 H 4923.18 -0.443613 -6.90476 0
M  V30 27524 H 4924.05 1.75559 -7.96891 0
M  V30 27525 H 4926.7 1.94563 -5.46818 0
M  V30 27526 H 4926.98 -0.608651 -7.04676 0
M  V30 27527 H 4927.97 0.889796 -7.09039 0
M  V30 27528 H 4926.14 0.433128 -9.04664 0
M  V30 27529 H 4926.1 -1.89246 -5.57664 0
M  V30 27530 H 4926.48 -2.71005 -0.804694 0
M  V30 27531 H 4926.67 -1.63189 0.603768 0
M  V30 27532 H 4926.78 2.53475 -0.997614 0
M  V30 27533 P 4928.01 2.75334 -8.47391 0
M  V30 27534 O 4928.23 3.84128 -9.44797 0
M  V30 27535 O 4928.8 1.51947 -8.68712 0
M  V30 27536 O 4928.26 3.29363 -6.99321 0
M  V30 27537 C 4927.32 4.24011 -6.4274 0
M  V30 27538 C 4928.05 5.20775 -5.52155 0
M  V30 27539 O 4928.26 4.56534 -4.22446 0
M  V30 27540 C 4929.45 5.62629 -5.96531 0
M  V30 27541 O 4929.84 6.87667 -5.41053 0
M  V30 27542 C 4930.33 4.52537 -5.39283 0
M  V30 27543 C 4929.62 4.20027 -4.08623 0
M  V30 27544 N 4929.67 2.76189 -3.71603 0
M  V30 27545 H 4926.83 4.797 -7.24003 0
M  V30 27546 H 4926.56 3.69856 -5.84513 0
M  V30 27547 H 4927.43 6.10356 -5.41441 0
M  V30 27548 P 4931.39 7.20834 -5.23717 0
M  V30 27549 O 4931.61 8.66189 -5.38625 0
M  V30 27550 O 4932.18 6.33615 -6.1356 0
M  V30 27551 O 4931.64 6.7751 -3.72168 0
M  V30 27552 C 4930.7 7.20732 -2.70725 0
M  V30 27553 C 4931.43 7.45864 -1.40599 0
M  V30 27554 O 4931.64 6.17651 -0.734225 0
M  V30 27555 C 4932.83 8.05808 -1.51899 0
M  V30 27556 O 4933.22 8.74358 -0.335205 0
M  V30 27557 C 4933.71 6.83093 -1.70294 0
M  V30 27558 C 4933 5.79992 -0.836974 0
M  V30 27559 N 4933.05 4.41769 -1.38263 0
M  V30 27560 C 4933.2 3.38591 -0.481702 0
M  V30 27561 O 4933.29 3.56839 0.718452 0
M  V30 27562 N 4933.24 2.1206 -1.03569 0
M  V30 27563 C 4933.15 1.80696 -2.36966 0
M  V30 27564 O 4933.2 0.630473 -2.74862 0
M  V30 27565 C 4933 2.94845 -3.23898 0
M  V30 27566 C 4932.89 2.65253 -4.70362 0
M  V30 27567 C 4932.95 4.19803 -2.73435 0
M  V30 27568 H 4930.21 8.13644 -3.0377 0
M  V30 27569 H 4929.94 6.42695 -2.55448 0
M  V30 27570 H 4930.81 8.12039 -0.792769 0
M  V30 27571 H 4933.46 5.79978 0.160587 0
M  V30 27572 H 4933.74 6.51379 -2.75643 0
M  V30 27573 H 4934.73 7.01734 -1.34462 0
M  V30 27574 H 4932.9 8.73674 -2.38337 0
M  V30 27575 H 4932.83 5.04492 -3.4095 0
M  V30 27576 H 4933.86 2.83924 -5.1913 0
M  V30 27577 H 4932.12 3.29824 -5.15163 0
M  V30 27578 H 4932.61 1.59723 -4.84449 0
M  V30 27579 H 4933.35 1.35644 -0.399345 0
M  V30 27580 P 4934.77 8.91 -2.22534e-10 0
M  V30 27581 O 4934.99 10.1726 0.733694 0
M  V30 27582 O 4935.56 8.73148 -1.23936 0
M  V30 27583 O 4935.02 7.66872 0.971405 0
M  V30 27584 C 4934.08 7.42309 2.04641 0
M  V30 27585 C 4934.81 6.86059 3.24661 0
M  V30 27586 O 4935.02 5.42847 3.03646 0
M  V30 27587 C 4936.21 7.41196 3.50753 0
M  V30 27588 O 4936.6 7.27073 4.86816 0
M  V30 27589 C 4937.09 6.5273 2.63741 0
M  V30 27590 C 4936.38 5.1842 2.73198 0
M  V30 27591 N 4936.43 4.38762 1.4784 0
M  V30 27592 H 4933.59 8.36803 2.32493 0
M  V30 27593 H 4933.32 6.70197 1.71129 0
M  V30 27594 H 4934.19 7.03551 4.13168 0
M  V30 27595 P 4938.15 7.20834 5.23717 0
M  V30 27596 O 4938.37 7.79853 6.57286 0
M  V30 27597 O 4938.94 7.79239 4.12957 0
M  V30 27598 O 4938.4 5.63315 5.29344 0
M  V30 27599 C 4937.46 4.80255 6.01876 0
M  V30 27600 C 4938.19 3.64202 6.65911 0
M  V30 27601 O 4938.4 2.60694 5.64732 0
M  V30 27602 C 4939.59 3.93473 7.1943 0
M  V30 27603 O 4939.98 3.02071 8.21205 0
M  V30 27604 C 4940.47 3.73047 5.97036 0
M  V30 27605 C 4939.76 2.58828 5.25741 0
M  V30 27606 N 4939.81 2.68068 3.77503 0
M  V30 27607 H 4936.97 5.40332 6.79951 0
M  V30 27608 H 4936.7 4.41613 5.32378 0
M  V30 27609 H 4937.57 3.26331 7.47797 0
M  V30 27610 P 4941.53 2.75334 8.47391 0
M  V30 27611 O 4941.75 2.44571 9.90142 0
M  V30 27612 O 4942.32 3.87688 7.92115 0
M  V30 27613 O 4941.78 1.4459 7.59357 0
M  V30 27614 C 4940.84 0.347608 7.69215 0
M  V30 27615 C 4941.57 -0.96767 7.52806 0
M  V30 27616 O 4941.78 -1.21036 6.1011 0
M  V30 27617 C 4942.97 -1.04544 8.13308 0
M  V30 27618 O 4943.36 -2.38311 8.41922 0
M  V30 27619 C 4943.85 -0.491279 7.02284 0
M  V30 27620 C 4943.14 -0.996264 5.77469 0
M  V30 27621 N 4943.19 -0.0501916 4.62973 0
M  V30 27622 C 4943.11 1.32786 4.63244 0
M  V30 27623 N 4943.19 1.86957 3.44545 0
M  V30 27624 C 4943.33 0.780241 2.58481 0
M  V30 27625 C 4943.46 0.738536 1.17757 0
M  V30 27626 N 4943.58 -0.58337 0.711393 0
M  V30 27627 C 4943.58 -1.70816 1.51017 0
M  V30 27628 N 4943.71 -2.87826 0.880757 0
M  V30 27629 N 4943.45 -1.67126 2.8339 0
M  V30 27630 C 4943.33 -0.401421 3.30572 0
M  V30 27631 H 4940.35 0.374722 8.67691 0
M  V30 27632 H 4940.08 0.443485 6.90277 0
M  V30 27633 H 4940.95 -1.75537 7.96793 0
M  V30 27634 P 4944.91 -2.75334 8.47391 0
M  V30 27635 O 4945.13 -3.84128 9.44797 0
M  V30 27636 O 4945.7 -1.51947 8.68712 0
M  V30 27637 O 4945.16 -3.29363 6.99321 0
M  V30 27638 C 4944.22 -4.24011 6.4274 0
M  V30 27639 C 4944.95 -5.20775 5.52155 0
M  V30 27640 O 4945.16 -4.56534 4.22446 0
M  V30 27641 C 4946.35 -5.62629 5.96531 0
M  V30 27642 O 4946.74 -6.87667 5.41053 0
M  V30 27643 C 4947.23 -4.52537 5.39283 0
M  V30 27644 C 4946.52 -4.20027 4.08623 0
M  V30 27645 N 4946.57 -2.76189 3.71603 0
M  V30 27646 C 4946.49 -1.64862 4.52822 0
M  V30 27647 N 4946.57 -0.512671 3.88633 0
M  V30 27648 C 4946.71 -0.888083 2.54977 0
M  V30 27649 C 4946.84 -0.094668 1.38677 0
M  V30 27650 N 4946.96 -0.890102 0.232633 0
M  V30 27651 C 4946.96 -2.26958 0.21772 0
M  V30 27652 N 4947.09 -2.84626 -0.97925 0
M  V30 27653 N 4946.83 -3.0178 1.31033 0
M  V30 27654 C 4946.71 -2.26781 2.43843 0
M  V30 27655 H 4943.73 -4.797 7.24003 0
M  V30 27656 H 4943.46 -3.69856 5.84513 0
M  V30 27657 H 4944.33 -6.10356 5.41441 0
M  V30 27658 P 4948.29 -7.20834 5.23717 0
M  V30 27659 O 4948.51 -8.66104 5.38572 0
M  V30 27660 O 4949.08 -6.33544 6.1349 0
M  V30 27661 O 4948.54 -6.7751 3.72168 0
M  V30 27662 C 4947.6 -7.20825 2.7076 0
M  V30 27663 C 4948.33 -7.45864 1.40599 0
M  V30 27664 O 4948.54 -6.17651 0.734225 0
M  V30 27665 C 4949.73 -8.05808 1.51899 0
M  V30 27666 O 4950.12 -8.74358 0.335205 0
M  V30 27667 C 4950.61 -6.83093 1.70294 0
M  V30 27668 C 4949.9 -5.79992 0.836974 0
M  V30 27669 N 4949.95 -4.41864 1.38293 0
M  V30 27670 H 4947.11 -8.13644 3.0377 0
M  V30 27671 H 4946.84 -6.42788 2.55485 0
M  V30 27672 H 4947.71 -8.12039 0.792769 0
M  V30 27673 P 4951.67 -8.91 2.23643e-10 0
M  V30 27674 O 4951.89 -10.1726 -0.733694 0
M  V30 27675 O 4952.46 -8.73148 1.23936 0
M  V30 27676 O 4951.92 -7.66872 -0.971405 0
M  V30 27677 C 4950.98 -7.42309 -2.04641 0
M  V30 27678 C 4951.71 -6.86059 -3.24661 0
M  V30 27679 O 4951.92 -5.42847 -3.03646 0
M  V30 27680 C 4953.11 -7.41196 -3.50753 0
M  V30 27681 O 4953.5 -7.27073 -4.86816 0
M  V30 27682 C 4953.99 -6.5273 -2.63741 0
M  V30 27683 C 4953.28 -5.1842 -2.73198 0
M  V30 27684 N 4953.33 -4.38762 -1.4784 0
M  V30 27685 C 4953.25 -4.81605 -0.168631 0
M  V30 27686 N 4953.33 -3.85454 0.713363 0
M  V30 27687 C 4953.47 -2.6994 -0.0566958 0
M  V30 27688 C 4953.6 -1.34815 0.338502 0
M  V30 27689 N 4953.72 -0.496304 -0.77465 0
M  V30 27690 C 4953.72 -0.908403 -2.09122 0
M  V30 27691 N 4953.85 0.0517805 -3.00955 0
M  V30 27692 N 4953.59 -2.17875 -2.46519 0
M  V30 27693 C 4953.47 -3.01988 -1.4033 0
M  V30 27694 H 4950.49 -8.36803 -2.32493 0
M  V30 27695 H 4950.22 -6.70197 -1.71129 0
M  V30 27696 H 4951.09 -7.03551 -4.13168 0
M  V30 27697 P 4955.05 -7.20834 -5.23717 0
M  V30 27698 O 4955.27 -7.79853 -6.57286 0
M  V30 27699 O 4955.84 -7.79239 -4.12957 0
M  V30 27700 O 4955.3 -5.63315 -5.29344 0
M  V30 27701 C 4954.36 -4.80255 -6.01876 0
M  V30 27702 C 4955.09 -3.64202 -6.65911 0
M  V30 27703 O 4955.3 -2.60694 -5.64732 0
M  V30 27704 C 4956.49 -3.93473 -7.1943 0
M  V30 27705 O 4956.88 -3.02071 -8.21205 0
M  V30 27706 C 4957.37 -3.73047 -5.97036 0
M  V30 27707 C 4956.66 -2.58828 -5.25741 0
M  V30 27708 N 4956.71 -2.68068 -3.77503 0
M  V30 27709 H 4953.87 -5.40332 -6.79951 0
M  V30 27710 H 4953.6 -4.41613 -5.32378 0
M  V30 27711 H 4954.47 -3.26331 -7.47797 0
M  V30 27712 P 4958.43 -2.75334 -8.47391 0
M  V30 27713 O 4958.65 -2.44571 -9.90142 0
M  V30 27714 O 4959.22 -3.87688 -7.92115 0
M  V30 27715 O 4958.68 -1.4459 -7.59357 0
M  V30 27716 C 4957.74 -0.347608 -7.69215 0
M  V30 27717 C 4958.47 0.96767 -7.52806 0
M  V30 27718 O 4958.68 1.21036 -6.1011 0
M  V30 27719 C 4959.87 1.04544 -8.13308 0
M  V30 27720 O 4960.26 2.38311 -8.41922 0
M  V30 27721 C 4960.75 0.491279 -7.02284 0
M  V30 27722 C 4960.04 0.996264 -5.77469 0
M  V30 27723 N 4960.09 0.0501916 -4.62973 0
M  V30 27724 H 4957.25 -0.374722 -8.67691 0
M  V30 27725 H 4956.98 -0.443485 -6.90277 0
M  V30 27726 H 4957.85 1.75537 -7.96793 0
M  V30 27727 P 4961.81 2.75334 -8.47391 0
M  V30 27728 O 4962.03 3.84128 -9.44797 0
M  V30 27729 O 4962.6 1.51947 -8.68712 0
M  V30 27730 O 4962.06 3.29363 -6.99321 0
M  V30 27731 C 4961.12 4.24011 -6.4274 0
M  V30 27732 C 4961.85 5.20775 -5.52155 0
M  V30 27733 O 4962.06 4.56534 -4.22446 0
M  V30 27734 C 4963.25 5.62629 -5.96531 0
M  V30 27735 O 4963.64 6.87667 -5.41053 0
M  V30 27736 C 4964.13 4.52537 -5.39283 0
M  V30 27737 C 4963.42 4.20027 -4.08623 0
M  V30 27738 N 4963.47 2.76189 -3.71603 0
M  V30 27739 H 4960.63 4.797 -7.24003 0
M  V30 27740 H 4960.36 3.69856 -5.84513 0
M  V30 27741 H 4961.23 6.10356 -5.41441 0
M  V30 27742 P 4965.19 7.20834 -5.23717 0
M  V30 27743 O 4965.41 8.66189 -5.38625 0
M  V30 27744 O 4965.98 6.33615 -6.1356 0
M  V30 27745 O 4965.44 6.7751 -3.72168 0
M  V30 27746 C 4964.5 7.20732 -2.70725 0
M  V30 27747 C 4965.23 7.45864 -1.40599 0
M  V30 27748 O 4965.44 6.17651 -0.734225 0
M  V30 27749 C 4966.63 8.05808 -1.51899 0
M  V30 27750 O 4967.02 8.74358 -0.335205 0
M  V30 27751 C 4967.51 6.83093 -1.70294 0
M  V30 27752 C 4966.8 5.79992 -0.836974 0
M  V30 27753 N 4966.85 4.41769 -1.38263 0
M  V30 27754 C 4967 3.38591 -0.481702 0
M  V30 27755 O 4967.09 3.56839 0.718452 0
M  V30 27756 N 4967.04 2.1206 -1.03569 0
M  V30 27757 C 4966.95 1.80696 -2.36966 0
M  V30 27758 O 4967 0.630473 -2.74862 0
M  V30 27759 C 4966.8 2.94845 -3.23898 0
M  V30 27760 C 4966.69 2.65253 -4.70362 0
M  V30 27761 C 4966.75 4.19803 -2.73435 0
M  V30 27762 H 4964.01 8.13644 -3.0377 0
M  V30 27763 H 4963.74 6.42695 -2.55448 0
M  V30 27764 H 4964.61 8.12039 -0.792769 0
M  V30 27765 H 4967.26 5.79978 0.160587 0
M  V30 27766 H 4967.54 6.51379 -2.75643 0
M  V30 27767 H 4968.53 7.01734 -1.34462 0
M  V30 27768 H 4966.7 8.73674 -2.38337 0
M  V30 27769 H 4966.63 5.04492 -3.4095 0
M  V30 27770 H 4967.66 2.83924 -5.1913 0
M  V30 27771 H 4965.92 3.29824 -5.15163 0
M  V30 27772 H 4966.41 1.59723 -4.84449 0
M  V30 27773 H 4967.15 1.35644 -0.399345 0
M  V30 27774 P 4968.57 8.91 -2.24752e-10 0
M  V30 27775 O 4968.79 10.1726 0.733694 0
M  V30 27776 O 4969.36 8.73148 -1.23936 0
M  V30 27777 O 4968.82 7.66872 0.971405 0
M  V30 27778 C 4967.88 7.42309 2.04641 0
M  V30 27779 C 4968.61 6.86059 3.24661 0
M  V30 27780 O 4968.82 5.42847 3.03646 0
M  V30 27781 C 4970.01 7.41196 3.50753 0
M  V30 27782 O 4970.4 7.27073 4.86816 0
M  V30 27783 C 4970.89 6.5273 2.63741 0
M  V30 27784 C 4970.18 5.1842 2.73198 0
M  V30 27785 N 4970.23 4.38762 1.4784 0
M  V30 27786 H 4967.39 8.36803 2.32493 0
M  V30 27787 H 4967.12 6.70197 1.71129 0
M  V30 27788 H 4967.99 7.03551 4.13168 0
M  V30 27789 P 4971.95 7.20834 5.23717 0
M  V30 27790 O 4972.17 7.79853 6.57286 0
M  V30 27791 O 4972.74 7.79239 4.12957 0
M  V30 27792 O 4972.2 5.63315 5.29344 0
M  V30 27793 C 4971.26 4.80255 6.01876 0
M  V30 27794 C 4971.99 3.64202 6.65911 0
M  V30 27795 O 4972.2 2.60694 5.64732 0
M  V30 27796 C 4973.39 3.93473 7.1943 0
M  V30 27797 O 4973.78 3.02071 8.21205 0
M  V30 27798 C 4974.27 3.73047 5.97036 0
M  V30 27799 C 4973.56 2.58828 5.25741 0
M  V30 27800 N 4973.61 2.68068 3.77503 0
M  V30 27801 H 4970.77 5.40332 6.79951 0
M  V30 27802 H 4970.5 4.41613 5.32378 0
M  V30 27803 H 4971.37 3.26331 7.47797 0
M  V30 27804 P 4975.33 2.75334 8.47391 0
M  V30 27805 O 4975.55 2.44571 9.90142 0
M  V30 27806 O 4976.12 3.87688 7.92115 0
M  V30 27807 O 4975.58 1.4459 7.59357 0
M  V30 27808 C 4974.64 0.347608 7.69215 0
M  V30 27809 C 4975.37 -0.96767 7.52806 0
M  V30 27810 O 4975.58 -1.21036 6.1011 0
M  V30 27811 C 4976.77 -1.04544 8.13308 0
M  V30 27812 O 4977.16 -2.38311 8.41922 0
M  V30 27813 C 4977.65 -0.491279 7.02284 0
M  V30 27814 C 4976.94 -0.996264 5.77469 0
M  V30 27815 N 4976.99 -0.0501916 4.62973 0
M  V30 27816 H 4974.15 0.374722 8.67691 0
M  V30 27817 H 4973.88 0.443485 6.90277 0
M  V30 27818 H 4974.75 -1.75537 7.96793 0
M  V30 27819 P 4978.71 -2.75334 8.47391 0
M  V30 27820 O 4978.93 -3.84128 9.44797 0
M  V30 27821 O 4979.5 -1.51947 8.68712 0
M  V30 27822 O 4978.96 -3.29363 6.99321 0
M  V30 27823 C 4978.02 -4.24011 6.4274 0
M  V30 27824 C 4978.75 -5.20775 5.52155 0
M  V30 27825 O 4978.96 -4.56534 4.22446 0
M  V30 27826 C 4980.15 -5.62629 5.96531 0
M  V30 27827 O 4980.54 -6.87667 5.41053 0
M  V30 27828 C 4981.03 -4.52537 5.39283 0
M  V30 27829 C 4980.32 -4.20027 4.08623 0
M  V30 27830 N 4980.37 -2.76189 3.71603 0
M  V30 27831 H 4977.53 -4.797 7.24003 0
M  V30 27832 H 4977.26 -3.69856 5.84513 0
M  V30 27833 H 4978.13 -6.10356 5.41441 0
M  V30 27834 P 4982.09 -7.20834 5.23717 0
M  V30 27835 O 4982.31 -8.66104 5.38572 0
M  V30 27836 O 4982.88 -6.33544 6.1349 0
M  V30 27837 O 4982.34 -6.7751 3.72168 0
M  V30 27838 C 4981.4 -7.20825 2.7076 0
M  V30 27839 C 4982.13 -7.45864 1.40599 0
M  V30 27840 O 4982.34 -6.17651 0.734225 0
M  V30 27841 C 4983.53 -8.05808 1.51899 0
M  V30 27842 O 4983.92 -8.74358 0.335205 0
M  V30 27843 C 4984.41 -6.83093 1.70294 0
M  V30 27844 C 4983.7 -5.79992 0.836974 0
M  V30 27845 N 4983.75 -4.41864 1.38293 0
M  V30 27846 H 4980.91 -8.13644 3.0377 0
M  V30 27847 H 4980.64 -6.42788 2.55485 0
M  V30 27848 H 4981.51 -8.12039 0.792769 0
M  V30 27849 P 4985.47 -8.91 2.25861e-10 0
M  V30 27850 O 4985.69 -10.1726 -0.733694 0
M  V30 27851 O 4986.26 -8.73148 1.23936 0
M  V30 27852 O 4985.72 -7.66872 -0.971405 0
M  V30 27853 C 4984.78 -7.42309 -2.04641 0
M  V30 27854 C 4985.51 -6.86059 -3.24661 0
M  V30 27855 O 4985.72 -5.42847 -3.03646 0
M  V30 27856 C 4986.91 -7.41196 -3.50753 0
M  V30 27857 O 4987.3 -7.27073 -4.86816 0
M  V30 27858 C 4987.79 -6.5273 -2.63741 0
M  V30 27859 C 4987.08 -5.1842 -2.73198 0
M  V30 27860 N 4987.13 -4.38762 -1.4784 0
M  V30 27861 H 4984.29 -8.36803 -2.32493 0
M  V30 27862 H 4984.02 -6.70197 -1.71129 0
M  V30 27863 H 4984.89 -7.03551 -4.13168 0
M  V30 27864 P 4988.85 -7.20834 -5.23717 0
M  V30 27865 O 4989.07 -7.79853 -6.57286 0
M  V30 27866 O 4989.64 -7.79239 -4.12957 0
M  V30 27867 O 4989.1 -5.63315 -5.29344 0
M  V30 27868 C 4988.16 -4.80255 -6.01876 0
M  V30 27869 C 4988.89 -3.64202 -6.65911 0
M  V30 27870 O 4989.1 -2.60694 -5.64732 0
M  V30 27871 C 4990.29 -3.93473 -7.1943 0
M  V30 27872 O 4990.68 -3.02071 -8.21205 0
M  V30 27873 C 4991.17 -3.73047 -5.97036 0
M  V30 27874 C 4990.46 -2.58828 -5.25741 0
M  V30 27875 N 4990.51 -2.68068 -3.77503 0
M  V30 27876 H 4987.67 -5.40332 -6.79951 0
M  V30 27877 H 4987.4 -4.41613 -5.32378 0
M  V30 27878 H 4988.27 -3.26331 -7.47797 0
M  V30 27879 P 4992.23 -2.75334 -8.47391 0
M  V30 27880 O 4992.45 -2.44571 -9.90142 0
M  V30 27881 O 4993.02 -3.87688 -7.92115 0
M  V30 27882 O 4992.48 -1.4459 -7.59357 0
M  V30 27883 C 4991.54 -0.347608 -7.69215 0
M  V30 27884 C 4992.27 0.96767 -7.52806 0
M  V30 27885 O 4992.48 1.21036 -6.1011 0
M  V30 27886 C 4993.67 1.04544 -8.13308 0
M  V30 27887 O 4994.06 2.38311 -8.41922 0
M  V30 27888 C 4994.55 0.491279 -7.02284 0
M  V30 27889 C 4993.84 0.996264 -5.77469 0
M  V30 27890 N 4993.89 0.0501916 -4.62973 0
M  V30 27891 H 4991.05 -0.374722 -8.67691 0
M  V30 27892 H 4990.78 -0.443485 -6.90277 0
M  V30 27893 H 4991.65 1.75537 -7.96793 0
M  V30 27894 P 4995.61 2.75334 -8.47391 0
M  V30 27895 O 4995.83 3.84128 -9.44797 0
M  V30 27896 O 4996.4 1.51947 -8.68712 0
M  V30 27897 O 4995.86 3.29363 -6.99321 0
M  V30 27898 C 4994.92 4.24011 -6.4274 0
M  V30 27899 C 4995.65 5.20775 -5.52155 0
M  V30 27900 O 4995.86 4.56534 -4.22446 0
M  V30 27901 C 4997.05 5.62629 -5.96531 0
M  V30 27902 O 4997.44 6.87667 -5.41053 0
M  V30 27903 C 4997.93 4.52537 -5.39283 0
M  V30 27904 C 4997.22 4.20027 -4.08623 0
M  V30 27905 N 4997.27 2.76189 -3.71603 0
M  V30 27906 H 4994.43 4.797 -7.24003 0
M  V30 27907 H 4994.16 3.69856 -5.84513 0
M  V30 27908 H 4995.03 6.10356 -5.41441 0
M  V30 27909 P 4998.99 7.20834 -5.23717 0
M  V30 27910 O 4999.21 8.66104 -5.38572 0
M  V30 27911 O 4999.78 6.33544 -6.1349 0
M  V30 27912 O 4999.24 6.7751 -3.72168 0
M  V30 27913 C 4998.3 7.20825 -2.7076 0
M  V30 27914 C 4999.03 7.45864 -1.40599 0
M  V30 27915 O 4999.24 6.17651 -0.734225 0
M  V30 27916 C 5000.43 8.05808 -1.51899 0
M  V30 27917 O 5000.82 8.74358 -0.335205 0
M  V30 27918 C 5001.31 6.83093 -1.70294 0
M  V30 27919 C 5000.6 5.79992 -0.836974 0
M  V30 27920 N 5000.65 4.41864 -1.38293 0
M  V30 27921 H 4997.81 8.13644 -3.0377 0
M  V30 27922 H 4997.54 6.42788 -2.55485 0
M  V30 27923 H 4998.41 8.12039 -0.792769 0
M  V30 27924 P 5002.37 8.91 -2.2697e-10 0
M  V30 27925 O 5002.59 10.1726 0.733694 0
M  V30 27926 O 5003.16 8.73148 -1.23936 0
M  V30 27927 O 5002.62 7.66872 0.971405 0
M  V30 27928 C 5001.68 7.42309 2.04641 0
M  V30 27929 C 5002.41 6.86059 3.24661 0
M  V30 27930 O 5002.62 5.42847 3.03646 0
M  V30 27931 C 5003.81 7.41196 3.50753 0
M  V30 27932 O 5004.2 7.27073 4.86816 0
M  V30 27933 C 5004.69 6.5273 2.63741 0
M  V30 27934 C 5003.98 5.1842 2.73198 0
M  V30 27935 N 5004.03 4.38762 1.4784 0
M  V30 27936 H 5001.19 8.36803 2.32493 0
M  V30 27937 H 5000.92 6.70197 1.71129 0
M  V30 27938 H 5001.79 7.03551 4.13168 0
M  V30 27939 P 5005.75 7.20834 5.23717 0
M  V30 27940 O 5005.97 7.79853 6.57286 0
M  V30 27941 O 5006.54 7.79239 4.12957 0
M  V30 27942 O 5006 5.63315 5.29344 0
M  V30 27943 C 5005.06 4.80255 6.01876 0
M  V30 27944 C 5005.79 3.64202 6.65911 0
M  V30 27945 O 5006 2.60694 5.64732 0
M  V30 27946 C 5007.19 3.93473 7.1943 0
M  V30 27947 O 5007.58 3.02071 8.21205 0
M  V30 27948 C 5008.07 3.73047 5.97036 0
M  V30 27949 C 5007.36 2.58828 5.25741 0
M  V30 27950 N 5007.41 2.68068 3.77503 0
M  V30 27951 H 5004.57 5.40332 6.79951 0
M  V30 27952 H 5004.3 4.41613 5.32378 0
M  V30 27953 H 5005.17 3.26331 7.47797 0
M  V30 27954 P 5009.13 2.75334 8.47391 0
M  V30 27955 O 5009.35 2.44571 9.90142 0
M  V30 27956 O 5009.92 3.87688 7.92115 0
M  V30 27957 O 5009.38 1.4459 7.59357 0
M  V30 27958 C 5008.44 0.347608 7.69215 0
M  V30 27959 C 5009.17 -0.96767 7.52806 0
M  V30 27960 O 5009.38 -1.21036 6.1011 0
M  V30 27961 C 5010.57 -1.04544 8.13308 0
M  V30 27962 O 5010.96 -2.38311 8.41922 0
M  V30 27963 C 5011.45 -0.491279 7.02284 0
M  V30 27964 C 5010.74 -0.996264 5.77469 0
M  V30 27965 N 5010.79 -0.0501916 4.62973 0
M  V30 27966 H 5007.95 0.374722 8.67691 0
M  V30 27967 H 5007.68 0.443485 6.90277 0
M  V30 27968 H 5008.55 -1.75537 7.96793 0
M  V30 27969 P 5012.51 -2.75334 8.47391 0
M  V30 27970 O 5012.73 -3.84128 9.44797 0
M  V30 27971 O 5013.3 -1.51947 8.68712 0
M  V30 27972 O 5012.76 -3.29363 6.99321 0
M  V30 27973 C 5011.82 -4.24011 6.4274 0
M  V30 27974 C 5012.55 -5.20775 5.52155 0
M  V30 27975 O 5012.76 -4.56534 4.22446 0
M  V30 27976 C 5013.95 -5.62629 5.96531 0
M  V30 27977 O 5014.34 -6.87667 5.41053 0
M  V30 27978 C 5014.83 -4.52537 5.39283 0
M  V30 27979 C 5014.12 -4.20027 4.08623 0
M  V30 27980 N 5014.17 -2.76189 3.71603 0
M  V30 27981 H 5011.33 -4.797 7.24003 0
M  V30 27982 H 5011.06 -3.69856 5.84513 0
M  V30 27983 H 5011.93 -6.10356 5.41441 0
M  V30 27984 P 5015.89 -7.20834 5.23717 0
M  V30 27985 O 5016.11 -8.66274 5.38678 0
M  V30 27986 O 5016.68 -6.33687 6.13629 0
M  V30 27987 O 5016.14 -6.7751 3.72168 0
M  V30 27988 C 5015.2 -7.20919 2.70795 0
M  V30 27989 C 5015.93 -7.45864 1.40599 0
M  V30 27990 O 5016.14 -6.17751 0.734343 0
M  V30 27991 C 5017.33 -8.05906 1.51917 0
M  V30 27992 O 5017.72 -8.74358 0.335205 0
M  V30 27993 C 5018.21 -6.83093 1.70294 0
M  V30 27994 C 5017.5 -5.79992 0.836974 0
M  V30 27995 N 5017.55 -4.41864 1.38293 0
M  V30 27996 C 5017.47 -4.02089 2.69407 0
M  V30 27997 N 5017.54 -2.73403 2.85089 0
M  V30 27998 C 5017.69 -2.25086 1.5642 0
M  V30 27999 C 5017.82 -0.942887 1.04836 0
M  V30 28000 N 5017.83 0.150999 1.80369 0
M  V30 28001 N 5017.94 -0.812565 -0.28167 0
M  V30 28002 C 5017.93 -1.90572 -1.03784 0
M  V30 28003 N 5017.81 -3.167 -0.683905 0
M  V30 28004 C 5017.69 -3.26538 0.652815 0
M  V30 28005 H 5014.71 -8.13738 3.03804 0
M  V30 28006 H 5014.44 -6.42974 2.55559 0
M  V30 28007 H 5015.31 -8.12139 0.792866 0
M  V30 28008 H 5017.96 -5.80178 -0.160643 0
M  V30 28009 H 5018.24 -6.51379 2.75643 0
M  V30 28010 H 5019.23 -7.01832 1.3448 0
M  V30 28011 H 5017.4 -8.73771 2.38364 0
M  V30 28012 H 5017.36 -4.7189 3.52311 0
M  V30 28013 H 5017.74 0.0721434 2.82608 0
M  V30 28014 H 5017.93 1.0785 1.36544 0
M  V30 28015 H 5018.04 -1.73207 -2.10241 0
M  V30 28016 P 5019.27 -8.91 2.28079e-10 0
M  V30 28017 O 5019.49 -10.1726 -0.733694 0
M  V30 28018 O 5020.06 -8.73148 1.23936 0
M  V30 28019 O 5019.52 -7.66872 -0.971405 0
M  V30 28020 C 5018.58 -7.42309 -2.04641 0
M  V30 28021 C 5019.31 -6.86059 -3.24661 0
M  V30 28022 O 5019.52 -5.42847 -3.03646 0
M  V30 28023 C 5020.71 -7.41196 -3.50753 0
M  V30 28024 O 5021.1 -7.27073 -4.86816 0
M  V30 28025 C 5021.59 -6.5273 -2.63741 0
M  V30 28026 C 5020.88 -5.1842 -2.73198 0
M  V30 28027 N 5020.93 -4.38762 -1.4784 0
M  V30 28028 H 5018.09 -8.36803 -2.32493 0
M  V30 28029 H 5017.82 -6.70197 -1.71129 0
M  V30 28030 H 5018.69 -7.03551 -4.13168 0
M  V30 28031 P 5022.65 -7.20834 -5.23717 0
M  V30 28032 O 5022.87 -7.7993 -6.57351 0
M  V30 28033 O 5023.44 -7.79328 -4.13004 0
M  V30 28034 O 5022.9 -5.63315 -5.29344 0
M  V30 28035 C 5021.96 -4.80193 -6.01798 0
M  V30 28036 C 5022.69 -3.64202 -6.65911 0
M  V30 28037 O 5022.9 -2.60694 -5.64732 0
M  V30 28038 C 5024.09 -3.93473 -7.1943 0
M  V30 28039 O 5024.48 -3.02071 -8.21205 0
M  V30 28040 C 5024.97 -3.73047 -5.97036 0
M  V30 28041 C 5024.26 -2.58828 -5.25741 0
M  V30 28042 N 5024.31 -2.6801 -3.77422 0
M  V30 28043 C 5024.46 -1.50443 -3.07133 0
M  V30 28044 O 5024.55 -0.419406 -3.61576 0
M  V30 28045 N 5024.5 -1.6403 -1.69677 0
M  V30 28046 C 5024.41 -2.81206 -0.986255 0
M  V30 28047 O 5024.46 -2.80892 0.249754 0
M  V30 28048 C 5024.26 -3.99158 -1.80325 0
M  V30 28049 C 5024.15 -5.29309 -1.06921 0
M  V30 28050 C 5024.21 -3.89779 -3.1476 0
M  V30 28051 H 5021.47 -5.40332 -6.79951 0
M  V30 28052 H 5021.2 -4.41549 -5.32301 0
M  V30 28053 H 5022.07 -3.26331 -7.47797 0
M  V30 28054 H 5024.72 -1.6395 -5.56554 0
M  V30 28055 H 5025 -4.63439 -5.3432 0
M  V30 28056 H 5025.99 -3.44728 -6.25838 0
M  V30 28057 H 5024.16 -4.96652 -7.57263 0
M  V30 28058 H 5024.09 -4.80159 -3.74441 0
M  V30 28059 H 5025.12 -5.81459 -1.09608 0
M  V30 28060 H 5023.38 -5.9187 -1.54487 0
M  V30 28061 H 5023.87 -5.10095 -0.0220288 0
M  V30 28062 H 5024.61 -0.798962 -1.16664 0
M  V30 28063 P 5026.03 -2.75334 -8.47391 0
M  V30 28064 O 5026.25 -2.44571 -9.90142 0
M  V30 28065 O 5026.82 -3.87688 -7.92115 0
M  V30 28066 O 5026.28 -1.4459 -7.59357 0
M  V30 28067 C 5025.34 -0.347608 -7.69215 0
M  V30 28068 C 5026.07 0.96767 -7.52806 0
M  V30 28069 O 5026.28 1.21036 -6.1011 0
M  V30 28070 C 5027.47 1.04544 -8.13308 0
M  V30 28071 O 5027.86 2.38311 -8.41922 0
M  V30 28072 C 5028.35 0.491279 -7.02284 0
M  V30 28073 C 5027.64 0.996264 -5.77469 0
M  V30 28074 N 5027.69 0.0501916 -4.62973 0
M  V30 28075 H 5024.85 -0.374722 -8.67691 0
M  V30 28076 H 5024.58 -0.443485 -6.90277 0
M  V30 28077 H 5025.45 1.75537 -7.96793 0
M  V30 28078 P 5029.41 2.75334 -8.47391 0
M  V30 28079 O 5029.63 3.84128 -9.44797 0
M  V30 28080 O 5030.2 1.51947 -8.68712 0
M  V30 28081 O 5029.66 3.29363 -6.99321 0
M  V30 28082 C 5028.72 4.24011 -6.4274 0
M  V30 28083 C 5029.45 5.20775 -5.52155 0
M  V30 28084 O 5029.66 4.56534 -4.22446 0
M  V30 28085 C 5030.85 5.62629 -5.96531 0
M  V30 28086 O 5031.24 6.87667 -5.41053 0
M  V30 28087 C 5031.73 4.52537 -5.39283 0
M  V30 28088 C 5031.02 4.20027 -4.08623 0
M  V30 28089 N 5031.07 2.76189 -3.71603 0
M  V30 28090 H 5028.23 4.797 -7.24003 0
M  V30 28091 H 5027.96 3.69856 -5.84513 0
M  V30 28092 H 5028.83 6.10356 -5.41441 0
M  V30 28093 P 5032.79 7.20834 -5.23717 0
M  V30 28094 O 5033.01 8.66104 -5.38572 0
M  V30 28095 O 5033.58 6.33544 -6.1349 0
M  V30 28096 O 5033.04 6.7751 -3.72168 0
M  V30 28097 C 5032.1 7.20825 -2.7076 0
M  V30 28098 C 5032.83 7.45864 -1.40599 0
M  V30 28099 O 5033.04 6.17651 -0.734225 0
M  V30 28100 C 5034.23 8.05808 -1.51899 0
M  V30 28101 O 5034.62 8.74358 -0.335205 0
M  V30 28102 C 5035.11 6.83093 -1.70294 0
M  V30 28103 C 5034.4 5.79992 -0.836974 0
M  V30 28104 N 5034.45 4.41864 -1.38293 0
M  V30 28105 H 5031.61 8.13644 -3.0377 0
M  V30 28106 H 5031.34 6.42788 -2.55485 0
M  V30 28107 H 5032.21 8.12039 -0.792769 0
M  V30 28108 P 5036.17 8.91 -2.29188e-10 0
M  V30 28109 O 5036.39 10.1726 0.733694 0
M  V30 28110 O 5036.96 8.73148 -1.23936 0
M  V30 28111 O 5036.42 7.66872 0.971405 0
M  V30 28112 C 5035.48 7.42309 2.04641 0
M  V30 28113 C 5036.21 6.86059 3.24661 0
M  V30 28114 O 5036.42 5.42847 3.03646 0
M  V30 28115 C 5037.61 7.41196 3.50753 0
M  V30 28116 O 5038 7.27073 4.86816 0
M  V30 28117 C 5038.49 6.5273 2.63741 0
M  V30 28118 C 5037.78 5.1842 2.73198 0
M  V30 28119 N 5037.83 4.38762 1.4784 0
M  V30 28120 H 5034.99 8.36803 2.32493 0
M  V30 28121 H 5034.72 6.70197 1.71129 0
M  V30 28122 H 5035.59 7.03551 4.13168 0
M  V30 28123 P 5039.55 7.20834 5.23717 0
M  V30 28124 O 5039.77 7.79853 6.57286 0
M  V30 28125 O 5040.34 7.79239 4.12957 0
M  V30 28126 O 5039.8 5.63315 5.29344 0
M  V30 28127 C 5038.86 4.80255 6.01876 0
M  V30 28128 C 5039.59 3.64202 6.65911 0
M  V30 28129 O 5039.8 2.60694 5.64732 0
M  V30 28130 C 5040.99 3.93473 7.1943 0
M  V30 28131 O 5041.38 3.02071 8.21205 0
M  V30 28132 C 5041.87 3.73047 5.97036 0
M  V30 28133 C 5041.16 2.58828 5.25741 0
M  V30 28134 N 5041.21 2.68068 3.77503 0
M  V30 28135 H 5038.37 5.40332 6.79951 0
M  V30 28136 H 5038.1 4.41613 5.32378 0
M  V30 28137 H 5038.97 3.26331 7.47797 0
M  V30 28138 P 5042.93 2.75334 8.47391 0
M  V30 28139 O 5043.15 2.44571 9.90142 0
M  V30 28140 O 5043.72 3.87688 7.92115 0
M  V30 28141 O 5043.18 1.4459 7.59357 0
M  V30 28142 C 5042.24 0.347608 7.69215 0
M  V30 28143 C 5042.97 -0.96767 7.52806 0
M  V30 28144 O 5043.18 -1.21036 6.1011 0
M  V30 28145 C 5044.37 -1.04544 8.13308 0
M  V30 28146 O 5044.76 -2.38311 8.41922 0
M  V30 28147 C 5045.25 -0.491279 7.02284 0
M  V30 28148 C 5044.54 -0.996264 5.77469 0
M  V30 28149 N 5044.59 -0.0501916 4.62973 0
M  V30 28150 C 5044.51 1.32786 4.63244 0
M  V30 28151 N 5044.59 1.86957 3.44545 0
M  V30 28152 C 5044.73 0.780241 2.58481 0
M  V30 28153 C 5044.86 0.738536 1.17757 0
M  V30 28154 O 5044.88 1.66794 0.372349 0
M  V30 28155 N 5044.98 -0.58337 0.711393 0
M  V30 28156 C 5044.98 -1.70816 1.51017 0
M  V30 28157 N 5045.11 -2.87826 0.880757 0
M  V30 28158 N 5044.85 -1.67126 2.8339 0
M  V30 28159 C 5044.73 -0.401421 3.30572 0
M  V30 28160 H 5041.75 0.374722 8.67691 0
M  V30 28161 H 5041.48 0.443485 6.90277 0
M  V30 28162 H 5042.35 -1.75537 7.96793 0
M  V30 28163 H 5045 -1.95076 5.46529 0
M  V30 28164 H 5045.28 0.608565 7.04577 0
M  V30 28165 H 5046.27 -0.889672 7.08939 0
M  V30 28166 H 5044.44 -0.43308 9.04564 0
M  V30 28167 H 5044.39 1.91249 5.54442 0
M  V30 28168 H 5045.07 -0.718054 -0.275244 0
M  V30 28169 H 5045.11 -3.75721 1.41832 0
M  V30 28170 H 5045.21 -2.90436 -0.145468 0
M  V30 28171 P 5046.31 -2.75334 8.47391 0
M  V30 28172 O 5046.53 -3.84128 9.44797 0
M  V30 28173 O 5047.1 -1.51947 8.68712 0
M  V30 28174 O 5046.56 -3.29363 6.99321 0
M  V30 28175 C 5045.62 -4.24011 6.4274 0
M  V30 28176 C 5046.35 -5.20775 5.52155 0
M  V30 28177 O 5046.56 -4.56534 4.22446 0
M  V30 28178 C 5047.75 -5.62629 5.96531 0
M  V30 28179 O 5048.14 -6.87667 5.41053 0
M  V30 28180 C 5048.63 -4.52537 5.39283 0
M  V30 28181 C 5047.92 -4.20027 4.08623 0
M  V30 28182 N 5047.97 -2.76189 3.71603 0
M  V30 28183 H 5045.13 -4.797 7.24003 0
M  V30 28184 H 5044.86 -3.69856 5.84513 0
M  V30 28185 H 5045.73 -6.10356 5.41441 0
M  V30 28186 P 5049.69 -7.20834 5.23717 0
M  V30 28187 O 5049.91 -8.66104 5.38572 0
M  V30 28188 O 5050.48 -6.33544 6.1349 0
M  V30 28189 O 5049.94 -6.7751 3.72168 0
M  V30 28190 C 5049 -7.20825 2.7076 0
M  V30 28191 C 5049.73 -7.45864 1.40599 0
M  V30 28192 O 5049.94 -6.17651 0.734225 0
M  V30 28193 C 5051.13 -8.05808 1.51899 0
M  V30 28194 O 5051.52 -8.74358 0.335205 0
M  V30 28195 C 5052.01 -6.83093 1.70294 0
M  V30 28196 C 5051.3 -5.79992 0.836974 0
M  V30 28197 N 5051.35 -4.41864 1.38293 0
M  V30 28198 H 5048.51 -8.13644 3.0377 0
M  V30 28199 H 5048.24 -6.42788 2.55485 0
M  V30 28200 H 5049.11 -8.12039 0.792769 0
M  V30 28201 P 5053.07 -8.91 2.30297e-10 0
M  V30 28202 O 5053.29 -10.1726 -0.733694 0
M  V30 28203 O 5053.86 -8.73148 1.23936 0
M  V30 28204 O 5053.32 -7.66872 -0.971405 0
M  V30 28205 C 5052.38 -7.42309 -2.04641 0
M  V30 28206 C 5053.11 -6.86059 -3.24661 0
M  V30 28207 O 5053.32 -5.42847 -3.03646 0
M  V30 28208 C 5054.51 -7.41196 -3.50753 0
M  V30 28209 O 5054.9 -7.27073 -4.86816 0
M  V30 28210 C 5055.39 -6.5273 -2.63741 0
M  V30 28211 C 5054.68 -5.1842 -2.73198 0
M  V30 28212 N 5054.73 -4.38762 -1.4784 0
M  V30 28213 H 5051.89 -8.36803 -2.32493 0
M  V30 28214 H 5051.62 -6.70197 -1.71129 0
M  V30 28215 H 5052.49 -7.03551 -4.13168 0
M  V30 28216 P 5056.45 -7.20834 -5.23717 0
M  V30 28217 O 5056.67 -7.79853 -6.57286 0
M  V30 28218 O 5057.24 -7.79239 -4.12957 0
M  V30 28219 O 5056.7 -5.63315 -5.29344 0
M  V30 28220 C 5055.76 -4.80255 -6.01876 0
M  V30 28221 C 5056.49 -3.64202 -6.65911 0
M  V30 28222 O 5056.7 -2.60694 -5.64732 0
M  V30 28223 C 5057.89 -3.93473 -7.1943 0
M  V30 28224 O 5058.28 -3.02071 -8.21205 0
M  V30 28225 C 5058.77 -3.73047 -5.97036 0
M  V30 28226 C 5058.06 -2.58828 -5.25741 0
M  V30 28227 N 5058.11 -2.68068 -3.77503 0
M  V30 28228 H 5055.27 -5.40332 -6.79951 0
M  V30 28229 H 5055 -4.41613 -5.32378 0
M  V30 28230 H 5055.87 -3.26331 -7.47797 0
M  V30 28231 P 5059.83 -2.75334 -8.47391 0
M  V30 28232 O 5060.05 -2.44571 -9.90142 0
M  V30 28233 O 5060.62 -3.87688 -7.92115 0
M  V30 28234 O 5060.08 -1.4459 -7.59357 0
M  V30 28235 C 5059.14 -0.347608 -7.69215 0
M  V30 28236 C 5059.87 0.96767 -7.52806 0
M  V30 28237 O 5060.08 1.21036 -6.1011 0
M  V30 28238 C 5061.27 1.04544 -8.13308 0
M  V30 28239 O 5061.66 2.38311 -8.41922 0
M  V30 28240 C 5062.15 0.491279 -7.02284 0
M  V30 28241 C 5061.44 0.996264 -5.77469 0
M  V30 28242 N 5061.49 0.0501916 -4.62973 0
M  V30 28243 H 5058.65 -0.374722 -8.67691 0
M  V30 28244 H 5058.38 -0.443485 -6.90277 0
M  V30 28245 H 5059.25 1.75537 -7.96793 0
M  V30 28246 P 5063.21 2.75334 -8.47391 0
M  V30 28247 O 5063.43 3.84204 -9.44982 0
M  V30 28248 O 5064 1.51982 -8.68909 0
M  V30 28249 O 5063.46 3.29363 -6.99321 0
M  V30 28250 C 5062.52 4.24066 -6.42823 0
M  V30 28251 C 5063.25 5.20775 -5.52155 0
M  V30 28252 O 5063.46 4.56607 -4.22514 0
M  V30 28253 C 5064.65 5.62697 -5.96604 0
M  V30 28254 O 5065.04 6.87667 -5.41053 0
M  V30 28255 C 5065.53 4.52537 -5.39283 0
M  V30 28256 C 5064.82 4.20027 -4.08623 0
M  V30 28257 N 5064.87 2.76189 -3.71603 0
M  V30 28258 H 5062.03 4.79756 -7.24086 0
M  V30 28259 H 5061.76 3.69963 -5.84682 0
M  V30 28260 H 5062.63 6.10431 -5.41508 0
M  V30 28261 H 5065.28 4.78816 -3.28024 0
M  V30 28262 H 5065.56 3.64957 -6.05871 0
M  V30 28263 H 5066.55 4.88748 -5.21323 0
M  V30 28264 H 5064.72 5.66789 -7.0643 0
M  V30 28265 P 5066.59 7.20834 -5.23717 0
M  V30 28266 O 5066.81 8.66274 -5.38678 0
M  V30 28267 O 5067.38 6.33687 -6.13629 0
M  V30 28268 O 5066.84 6.7751 -3.72168 0
M  V30 28269 C 5065.9 7.20919 -2.70795 0
M  V30 28270 C 5066.63 7.45864 -1.40599 0
M  V30 28271 O 5066.84 6.17751 -0.734343 0
M  V30 28272 C 5068.03 8.05906 -1.51917 0
M  V30 28273 O 5068.42 8.74358 -0.335205 0
M  V30 28274 C 5068.91 6.83093 -1.70294 0
M  V30 28275 C 5068.2 5.79992 -0.836974 0
M  V30 28276 N 5068.25 4.41864 -1.38293 0
M  V30 28277 H 5065.41 8.13738 -3.03804 0
M  V30 28278 H 5065.14 6.42974 -2.55559 0
M  V30 28279 H 5066.01 8.12139 -0.792866 0
M  V30 28280 H 5068.66 5.80178 0.160643 0
M  V30 28281 H 5068.94 6.51379 -2.75643 0
M  V30 28282 H 5069.93 7.01832 -1.3448 0
M  V30 28283 H 5068.1 8.73771 -2.38364 0
M  V30 28284 P 5069.97 8.91 -2.31407e-10 0
M  V30 28285 O 5070.19 10.1726 0.733694 0
M  V30 28286 O 5070.76 8.73148 -1.23936 0
M  V30 28287 O 5070.22 7.66872 0.971405 0
M  V30 28288 C 5069.28 7.42309 2.04641 0
M  V30 28289 C 5070.01 6.86059 3.24661 0
M  V30 28290 O 5070.22 5.42847 3.03646 0
M  V30 28291 C 5071.41 7.41196 3.50753 0
M  V30 28292 O 5071.8 7.27073 4.86816 0
M  V30 28293 C 5072.29 6.5273 2.63741 0
M  V30 28294 C 5071.58 5.1842 2.73198 0
M  V30 28295 N 5071.63 4.38762 1.4784 0
M  V30 28296 H 5068.79 8.36803 2.32493 0
M  V30 28297 H 5068.52 6.70197 1.71129 0
M  V30 28298 H 5069.39 7.03551 4.13168 0
M  V30 28299 P 5073.35 7.20834 5.23717 0
M  V30 28300 O 5073.57 7.79853 6.57286 0
M  V30 28301 O 5074.14 7.79239 4.12957 0
M  V30 28302 O 5073.6 5.63315 5.29344 0
M  V30 28303 C 5072.66 4.80255 6.01876 0
M  V30 28304 C 5073.39 3.64202 6.65911 0
M  V30 28305 O 5073.6 2.60694 5.64732 0
M  V30 28306 C 5074.79 3.93473 7.1943 0
M  V30 28307 O 5075.18 3.02071 8.21205 0
M  V30 28308 C 5075.67 3.73047 5.97036 0
M  V30 28309 C 5074.96 2.58828 5.25741 0
M  V30 28310 N 5075.01 2.68068 3.77503 0
M  V30 28311 H 5072.17 5.40332 6.79951 0
M  V30 28312 H 5071.9 4.41613 5.32378 0
M  V30 28313 H 5072.77 3.26331 7.47797 0
M  V30 28314 P 5076.73 2.75334 8.47391 0
M  V30 28315 O 5076.95 2.44571 9.90142 0
M  V30 28316 O 5077.52 3.87688 7.92115 0
M  V30 28317 O 5076.98 1.4459 7.59357 0
M  V30 28318 C 5076.04 0.347608 7.69215 0
M  V30 28319 C 5076.77 -0.96767 7.52806 0
M  V30 28320 O 5076.98 -1.21036 6.1011 0
M  V30 28321 C 5078.17 -1.04544 8.13308 0
M  V30 28322 O 5078.56 -2.38311 8.41922 0
M  V30 28323 C 5079.05 -0.491279 7.02284 0
M  V30 28324 C 5078.34 -0.996264 5.77469 0
M  V30 28325 N 5078.39 -0.0501916 4.62973 0
M  V30 28326 H 5075.55 0.374722 8.67691 0
M  V30 28327 H 5075.28 0.443485 6.90277 0
M  V30 28328 H 5076.15 -1.75537 7.96793 0
M  V30 28329 P 5080.11 -2.75334 8.47391 0
M  V30 28330 O 5080.33 -3.84128 9.44797 0
M  V30 28331 O 5080.9 -1.51947 8.68712 0
M  V30 28332 O 5080.36 -3.29363 6.99321 0
M  V30 28333 C 5079.42 -4.24011 6.4274 0
M  V30 28334 C 5080.15 -5.20775 5.52155 0
M  V30 28335 O 5080.36 -4.56534 4.22446 0
M  V30 28336 C 5081.55 -5.62629 5.96531 0
M  V30 28337 O 5081.94 -6.87667 5.41053 0
M  V30 28338 C 5082.43 -4.52537 5.39283 0
M  V30 28339 C 5081.72 -4.20027 4.08623 0
M  V30 28340 N 5081.77 -2.76189 3.71603 0
M  V30 28341 H 5078.93 -4.797 7.24003 0
M  V30 28342 H 5078.66 -3.69856 5.84513 0
M  V30 28343 H 5079.53 -6.10356 5.41441 0
M  V30 28344 P 5083.49 -7.20834 5.23717 0
M  V30 28345 O 5083.71 -8.66274 5.38678 0
M  V30 28346 O 5084.28 -6.33687 6.13629 0
M  V30 28347 O 5083.74 -6.7751 3.72168 0
M  V30 28348 C 5082.8 -7.20919 2.70795 0
M  V30 28349 C 5083.53 -7.45864 1.40599 0
M  V30 28350 O 5083.74 -6.17751 0.734343 0
M  V30 28351 C 5084.93 -8.05906 1.51917 0
M  V30 28352 O 5085.32 -8.74358 0.335205 0
M  V30 28353 C 5085.81 -6.83093 1.70294 0
M  V30 28354 C 5085.1 -5.79992 0.836974 0
M  V30 28355 N 5085.15 -4.41864 1.38293 0
M  V30 28356 C 5085.07 -4.02089 2.69407 0
M  V30 28357 N 5085.14 -2.73403 2.85089 0
M  V30 28358 C 5085.29 -2.25086 1.5642 0
M  V30 28359 C 5085.42 -0.942887 1.04836 0
M  V30 28360 N 5085.43 0.150999 1.80369 0
M  V30 28361 N 5085.54 -0.812565 -0.28167 0
M  V30 28362 C 5085.53 -1.90572 -1.03784 0
M  V30 28363 N 5085.41 -3.167 -0.683905 0
M  V30 28364 C 5085.29 -3.26538 0.652815 0
M  V30 28365 H 5082.31 -8.13738 3.03804 0
M  V30 28366 H 5082.04 -6.42974 2.55559 0
M  V30 28367 H 5082.91 -8.12139 0.792866 0
M  V30 28368 H 5085.56 -5.80178 -0.160643 0
M  V30 28369 H 5085.84 -6.51379 2.75643 0
M  V30 28370 H 5086.83 -7.01832 1.3448 0
M  V30 28371 H 5085 -8.73771 2.38364 0
M  V30 28372 H 5084.96 -4.7189 3.52311 0
M  V30 28373 H 5085.34 0.0721434 2.82608 0
M  V30 28374 H 5085.53 1.0785 1.36544 0
M  V30 28375 H 5085.64 -1.73207 -2.10241 0
M  V30 28376 P 5086.87 -8.91 2.32516e-10 0
M  V30 28377 O 5087.09 -10.1726 -0.733694 0
M  V30 28378 O 5087.66 -8.73148 1.23936 0
M  V30 28379 O 5087.12 -7.66872 -0.971405 0
M  V30 28380 C 5086.18 -7.42309 -2.04641 0
M  V30 28381 C 5086.91 -6.86059 -3.24661 0
M  V30 28382 O 5087.12 -5.42847 -3.03646 0
M  V30 28383 C 5088.31 -7.41196 -3.50753 0
M  V30 28384 O 5088.7 -7.27073 -4.86816 0
M  V30 28385 C 5089.19 -6.5273 -2.63741 0
M  V30 28386 C 5088.48 -5.1842 -2.73198 0
M  V30 28387 N 5088.53 -4.38762 -1.4784 0
M  V30 28388 H 5085.69 -8.36803 -2.32493 0
M  V30 28389 H 5085.42 -6.70197 -1.71129 0
M  V30 28390 H 5086.29 -7.03551 -4.13168 0
M  V30 28391 P 5090.25 -7.20834 -5.23717 0
M  V30 28392 O 5090.47 -7.80006 -6.57415 0
M  V30 28393 O 5091.04 -7.79416 -4.13051 0
M  V30 28394 O 5090.5 -5.63315 -5.29344 0
M  V30 28395 C 5089.56 -4.80318 -6.01954 0
M  V30 28396 C 5090.29 -3.64202 -6.65911 0
M  V30 28397 O 5090.5 -2.60736 -5.64823 0
M  V30 28398 C 5091.69 -3.93521 -7.19518 0
M  V30 28399 O 5092.08 -3.02071 -8.21205 0
M  V30 28400 C 5092.57 -3.73047 -5.97036 0
M  V30 28401 C 5091.86 -2.58828 -5.25741 0
M  V30 28402 N 5091.91 -2.68068 -3.77503 0
M  V30 28403 C 5091.83 -3.80474 -2.99159 0
M  V30 28404 N 5091.9 -3.55622 -1.71925 0
M  V30 28405 C 5092.05 -2.1832 -1.65733 0
M  V30 28406 C 5092.18 -1.28842 -0.572777 0
M  V30 28407 N 5092.19 -1.66875 0.70098 0
M  V30 28408 N 5092.3 0.016788 -0.859836 0
M  V30 28409 C 5092.29 0.398145 -2.13316 0
M  V30 28410 N 5092.17 -0.328224 -3.22333 0
M  V30 28411 C 5092.05 -1.62992 -2.90383 0
M  V30 28412 H 5089.07 -5.40394 -6.8003 0
M  V30 28413 H 5088.8 -4.41741 -5.32532 0
M  V30 28414 H 5089.67 -3.26371 -7.47889 0
M  V30 28415 H 5092.32 -1.64007 -5.56746 0
M  V30 28416 H 5092.6 -4.63439 -5.3432 0
M  V30 28417 H 5093.59 -3.44776 -6.25925 0
M  V30 28418 H 5091.76 -4.96707 -7.57347 0
M  V30 28419 H 5091.72 -4.8089 -3.39924 0
M  V30 28420 H 5092.1 -2.66547 0.941919 0
M  V30 28421 H 5092.29 -0.965341 1.44766 0
M  V30 28422 H 5092.4 1.46427 -2.29697 0
M  V30 28423 P 5093.63 -2.75334 -8.47391 0
M  V30 28424 O 5093.85 -2.44571 -9.90142 0
M  V30 28425 O 5094.42 -3.87688 -7.92115 0
M  V30 28426 O 5093.88 -1.4459 -7.59357 0
M  V30 28427 C 5092.94 -0.347608 -7.69215 0
M  V30 28428 C 5093.67 0.96767 -7.52806 0
M  V30 28429 O 5093.88 1.21036 -6.1011 0
M  V30 28430 C 5095.07 1.04544 -8.13308 0
M  V30 28431 O 5095.46 2.38311 -8.41922 0
M  V30 28432 C 5095.95 0.491279 -7.02284 0
M  V30 28433 C 5095.24 0.996264 -5.77469 0
M  V30 28434 N 5095.29 0.0501916 -4.62973 0
M  V30 28435 H 5092.45 -0.374722 -8.67691 0
M  V30 28436 H 5092.18 -0.443485 -6.90277 0
M  V30 28437 H 5093.05 1.75537 -7.96793 0
M  V30 28438 P 5097.01 2.75334 -8.47391 0
M  V30 28439 O 5097.23 3.84128 -9.44797 0
M  V30 28440 O 5097.8 1.51947 -8.68712 0
M  V30 28441 O 5097.26 3.29363 -6.99321 0
M  V30 28442 C 5096.32 4.24011 -6.4274 0
M  V30 28443 C 5097.05 5.20775 -5.52155 0
M  V30 28444 O 5097.26 4.56534 -4.22446 0
M  V30 28445 C 5098.45 5.62629 -5.96531 0
M  V30 28446 O 5098.84 6.87667 -5.41053 0
M  V30 28447 C 5099.33 4.52537 -5.39283 0
M  V30 28448 C 5098.62 4.20027 -4.08623 0
M  V30 28449 N 5098.67 2.76189 -3.71603 0
M  V30 28450 C 5098.59 1.64862 -4.52822 0
M  V30 28451 N 5098.67 0.512671 -3.88633 0
M  V30 28452 C 5098.81 0.888083 -2.54977 0
M  V30 28453 C 5098.94 0.094668 -1.38677 0
M  V30 28454 N 5099.06 0.890102 -0.232633 0
M  V30 28455 C 5099.06 2.26958 -0.21772 0
M  V30 28456 N 5099.19 2.84626 0.97925 0
M  V30 28457 N 5098.93 3.0178 -1.31033 0
M  V30 28458 C 5098.81 2.26781 -2.43843 0
M  V30 28459 H 5095.83 4.797 -7.24003 0
M  V30 28460 H 5095.56 3.69856 -5.84513 0
M  V30 28461 H 5096.43 6.10356 -5.41441 0
M  V30 28462 P 5100.39 7.20834 -5.23717 0
M  V30 28463 O 5100.61 8.66274 -5.38678 0
M  V30 28464 O 5101.18 6.33687 -6.13629 0
M  V30 28465 O 5100.64 6.7751 -3.72168 0
M  V30 28466 C 5099.7 7.20919 -2.70795 0
M  V30 28467 C 5100.43 7.45864 -1.40599 0
M  V30 28468 O 5100.64 6.17751 -0.734343 0
M  V30 28469 C 5101.83 8.05906 -1.51917 0
M  V30 28470 O 5102.22 8.74358 -0.335205 0
M  V30 28471 C 5102.71 6.83093 -1.70294 0
M  V30 28472 C 5102 5.79992 -0.836974 0
M  V30 28473 N 5102.05 4.41864 -1.38293 0
M  V30 28474 C 5101.97 4.02089 -2.69407 0
M  V30 28475 N 5102.04 2.73403 -2.85089 0
M  V30 28476 C 5102.19 2.25086 -1.5642 0
M  V30 28477 C 5102.32 0.942887 -1.04836 0
M  V30 28478 N 5102.33 -0.150999 -1.80369 0
M  V30 28479 N 5102.44 0.812565 0.28167 0
M  V30 28480 C 5102.43 1.90572 1.03784 0
M  V30 28481 N 5102.31 3.167 0.683905 0
M  V30 28482 C 5102.19 3.26538 -0.652815 0
M  V30 28483 H 5099.21 8.13738 -3.03804 0
M  V30 28484 H 5098.94 6.42974 -2.55559 0
M  V30 28485 H 5099.81 8.12139 -0.792866 0
M  V30 28486 H 5102.46 5.80178 0.160643 0
M  V30 28487 H 5102.74 6.51379 -2.75643 0
M  V30 28488 H 5103.73 7.01832 -1.3448 0
M  V30 28489 H 5101.9 8.73771 -2.38364 0
M  V30 28490 H 5101.86 4.7189 -3.52311 0
M  V30 28491 H 5102.24 -0.0721434 -2.82608 0
M  V30 28492 H 5102.43 -1.0785 -1.36544 0
M  V30 28493 H 5102.54 1.73207 2.10241 0
M  V30 28494 P 5103.77 8.91 -2.33625e-10 0
M  V30 28495 O 5103.99 10.1726 0.733694 0
M  V30 28496 O 5104.56 8.73148 -1.23936 0
M  V30 28497 O 5104.02 7.66872 0.971405 0
M  V30 28498 C 5103.08 7.42309 2.04641 0
M  V30 28499 C 5103.81 6.86059 3.24661 0
M  V30 28500 O 5104.02 5.42847 3.03646 0
M  V30 28501 C 5105.21 7.41196 3.50753 0
M  V30 28502 O 5105.6 7.27073 4.86816 0
M  V30 28503 C 5106.09 6.5273 2.63741 0
M  V30 28504 C 5105.38 5.1842 2.73198 0
M  V30 28505 N 5105.43 4.38762 1.4784 0
M  V30 28506 H 5102.59 8.36803 2.32493 0
M  V30 28507 H 5102.32 6.70197 1.71129 0
M  V30 28508 H 5103.19 7.03551 4.13168 0
M  V30 28509 P 5107.15 7.20834 5.23717 0
M  V30 28510 O 5107.37 7.79853 6.57286 0
M  V30 28511 O 5107.94 7.79239 4.12957 0
M  V30 28512 O 5107.4 5.63315 5.29344 0
M  V30 28513 C 5106.46 4.80255 6.01876 0
M  V30 28514 C 5107.19 3.64202 6.65911 0
M  V30 28515 O 5107.4 2.60694 5.64732 0
M  V30 28516 C 5108.59 3.93473 7.1943 0
M  V30 28517 O 5108.98 3.02071 8.21205 0
M  V30 28518 C 5109.47 3.73047 5.97036 0
M  V30 28519 C 5108.76 2.58828 5.25741 0
M  V30 28520 N 5108.81 2.68068 3.77503 0
M  V30 28521 H 5105.97 5.40332 6.79951 0
M  V30 28522 H 5105.7 4.41613 5.32378 0
M  V30 28523 H 5106.57 3.26331 7.47797 0
M  V30 28524 P 5110.53 2.75334 8.47391 0
M  V30 28525 O 5110.75 2.44571 9.90142 0
M  V30 28526 O 5111.32 3.87688 7.92115 0
M  V30 28527 O 5110.78 1.4459 7.59357 0
M  V30 28528 C 5109.84 0.347608 7.69215 0
M  V30 28529 C 5110.57 -0.96767 7.52806 0
M  V30 28530 O 5110.78 -1.21036 6.1011 0
M  V30 28531 C 5111.97 -1.04544 8.13308 0
M  V30 28532 O 5112.36 -2.38311 8.41922 0
M  V30 28533 C 5112.85 -0.491279 7.02284 0
M  V30 28534 C 5112.14 -0.996264 5.77469 0
M  V30 28535 N 5112.19 -0.0501916 4.62973 0
M  V30 28536 H 5109.35 0.374722 8.67691 0
M  V30 28537 H 5109.08 0.443485 6.90277 0
M  V30 28538 H 5109.95 -1.75537 7.96793 0
M  V30 28539 P 5113.91 -2.75334 8.47391 0
M  V30 28540 O 5114.13 -3.84128 9.44797 0
M  V30 28541 O 5114.7 -1.51947 8.68712 0
M  V30 28542 O 5114.16 -3.29363 6.99321 0
M  V30 28543 C 5113.22 -4.24011 6.4274 0
M  V30 28544 C 5113.95 -5.20775 5.52155 0
M  V30 28545 O 5114.16 -4.56534 4.22446 0
M  V30 28546 C 5115.35 -5.62629 5.96531 0
M  V30 28547 O 5115.74 -6.87667 5.41053 0
M  V30 28548 C 5116.23 -4.52537 5.39283 0
M  V30 28549 C 5115.52 -4.20027 4.08623 0
M  V30 28550 N 5115.57 -2.76189 3.71603 0
M  V30 28551 C 5115.49 -1.64862 4.52822 0
M  V30 28552 N 5115.57 -0.512671 3.88633 0
M  V30 28553 C 5115.71 -0.888083 2.54977 0
M  V30 28554 C 5115.84 -0.094668 1.38677 0
M  V30 28555 N 5115.96 -0.890102 0.232633 0
M  V30 28556 C 5115.96 -2.26958 0.21772 0
M  V30 28557 N 5116.09 -2.84626 -0.97925 0
M  V30 28558 N 5115.83 -3.0178 1.31033 0
M  V30 28559 C 5115.71 -2.26781 2.43843 0
M  V30 28560 H 5112.73 -4.797 7.24003 0
M  V30 28561 H 5112.46 -3.69856 5.84513 0
M  V30 28562 H 5113.33 -6.10356 5.41441 0
M  V30 28563 P 5117.29 -7.20834 5.23717 0
M  V30 28564 O 5117.51 -8.66274 5.38678 0
M  V30 28565 O 5118.08 -6.33687 6.13629 0
M  V30 28566 O 5117.54 -6.7751 3.72168 0
M  V30 28567 C 5116.6 -7.20919 2.70795 0
M  V30 28568 C 5117.33 -7.45864 1.40599 0
M  V30 28569 O 5117.54 -6.17751 0.734343 0
M  V30 28570 C 5118.73 -8.05906 1.51917 0
M  V30 28571 O 5119.12 -8.74358 0.335205 0
M  V30 28572 C 5119.61 -6.83093 1.70294 0
M  V30 28573 C 5118.9 -5.79992 0.836974 0
M  V30 28574 N 5118.95 -4.41864 1.38293 0
M  V30 28575 C 5118.87 -4.02089 2.69407 0
M  V30 28576 N 5118.94 -2.73403 2.85089 0
M  V30 28577 C 5119.09 -2.25086 1.5642 0
M  V30 28578 C 5119.22 -0.942887 1.04836 0
M  V30 28579 N 5119.23 0.150999 1.80369 0
M  V30 28580 N 5119.34 -0.812565 -0.28167 0
M  V30 28581 C 5119.33 -1.90572 -1.03784 0
M  V30 28582 N 5119.21 -3.167 -0.683905 0
M  V30 28583 C 5119.09 -3.26538 0.652815 0
M  V30 28584 H 5116.11 -8.13738 3.03804 0
M  V30 28585 H 5115.84 -6.42974 2.55559 0
M  V30 28586 H 5116.71 -8.12139 0.792866 0
M  V30 28587 H 5119.36 -5.80178 -0.160643 0
M  V30 28588 H 5119.64 -6.51379 2.75643 0
M  V30 28589 H 5120.63 -7.01832 1.3448 0
M  V30 28590 H 5118.8 -8.73771 2.38364 0
M  V30 28591 H 5118.76 -4.7189 3.52311 0
M  V30 28592 H 5119.14 0.0721434 2.82608 0
M  V30 28593 H 5119.33 1.0785 1.36544 0
M  V30 28594 H 5119.44 -1.73207 -2.10241 0
M  V30 28595 P 5120.67 -8.91 2.34734e-10 0
M  V30 28596 O 5120.89 -10.1726 -0.733694 0
M  V30 28597 O 5121.46 -8.73148 1.23936 0
M  V30 28598 O 5120.92 -7.66872 -0.971405 0
M  V30 28599 C 5119.98 -7.42309 -2.04641 0
M  V30 28600 C 5120.71 -6.86059 -3.24661 0
M  V30 28601 O 5120.92 -5.42847 -3.03646 0
M  V30 28602 C 5122.11 -7.41196 -3.50753 0
M  V30 28603 O 5122.5 -7.27073 -4.86816 0
M  V30 28604 C 5122.99 -6.5273 -2.63741 0
M  V30 28605 C 5122.28 -5.1842 -2.73198 0
M  V30 28606 N 5122.33 -4.38762 -1.4784 0
M  V30 28607 H 5119.49 -8.36803 -2.32493 0
M  V30 28608 H 5119.22 -6.70197 -1.71129 0
M  V30 28609 H 5120.09 -7.03551 -4.13168 0
M  V30 28610 P 5124.05 -7.20834 -5.23717 0
M  V30 28611 O 5124.27 -7.79853 -6.57286 0
M  V30 28612 O 5124.84 -7.79239 -4.12957 0
M  V30 28613 O 5124.3 -5.63315 -5.29344 0
M  V30 28614 C 5123.36 -4.80255 -6.01876 0
M  V30 28615 C 5124.09 -3.64202 -6.65911 0
M  V30 28616 O 5124.3 -2.60694 -5.64732 0
M  V30 28617 C 5125.49 -3.93473 -7.1943 0
M  V30 28618 O 5125.88 -3.02071 -8.21205 0
M  V30 28619 C 5126.37 -3.73047 -5.97036 0
M  V30 28620 C 5125.66 -2.58828 -5.25741 0
M  V30 28621 N 5125.71 -2.68068 -3.77503 0
M  V30 28622 H 5122.87 -5.40332 -6.79951 0
M  V30 28623 H 5122.6 -4.41613 -5.32378 0
M  V30 28624 H 5123.47 -3.26331 -7.47797 0
M  V30 28625 P 5127.43 -2.75334 -8.47391 0
M  V30 28626 O 5127.65 -2.44571 -9.90142 0
M  V30 28627 O 5128.22 -3.87688 -7.92115 0
M  V30 28628 O 5127.68 -1.4459 -7.59357 0
M  V30 28629 C 5126.74 -0.347608 -7.69215 0
M  V30 28630 C 5127.47 0.96767 -7.52806 0
M  V30 28631 O 5127.68 1.21036 -6.1011 0
M  V30 28632 C 5128.87 1.04544 -8.13308 0
M  V30 28633 O 5129.26 2.38311 -8.41922 0
M  V30 28634 C 5129.75 0.491279 -7.02284 0
M  V30 28635 C 5129.04 0.996264 -5.77469 0
M  V30 28636 N 5129.09 0.0501916 -4.62973 0
M  V30 28637 H 5126.25 -0.374722 -8.67691 0
M  V30 28638 H 5125.98 -0.443485 -6.90277 0
M  V30 28639 H 5126.85 1.75537 -7.96793 0
M  V30 28640 P 5130.81 2.75334 -8.47391 0
M  V30 28641 O 5131.03 3.84128 -9.44797 0
M  V30 28642 O 5131.6 1.51947 -8.68712 0
M  V30 28643 O 5131.06 3.29363 -6.99321 0
M  V30 28644 C 5130.12 4.24011 -6.4274 0
M  V30 28645 C 5130.85 5.20775 -5.52155 0
M  V30 28646 O 5131.06 4.56534 -4.22446 0
M  V30 28647 C 5132.25 5.62629 -5.96531 0
M  V30 28648 O 5132.64 6.87667 -5.41053 0
M  V30 28649 C 5133.13 4.52537 -5.39283 0
M  V30 28650 C 5132.42 4.20027 -4.08623 0
M  V30 28651 N 5132.47 2.76189 -3.71603 0
M  V30 28652 H 5129.63 4.797 -7.24003 0
M  V30 28653 H 5129.36 3.69856 -5.84513 0
M  V30 28654 H 5130.23 6.10356 -5.41441 0
M  V30 28655 P 5134.19 7.20834 -5.23717 0
M  V30 28656 O 5134.41 8.66104 -5.38572 0
M  V30 28657 O 5134.98 6.33544 -6.1349 0
M  V30 28658 O 5134.44 6.7751 -3.72168 0
M  V30 28659 C 5133.5 7.20825 -2.7076 0
M  V30 28660 C 5134.23 7.45864 -1.40599 0
M  V30 28661 O 5134.44 6.17651 -0.734225 0
M  V30 28662 C 5135.63 8.05808 -1.51899 0
M  V30 28663 O 5136.02 8.74358 -0.335205 0
M  V30 28664 C 5136.51 6.83093 -1.70294 0
M  V30 28665 C 5135.8 5.79992 -0.836974 0
M  V30 28666 N 5135.85 4.41864 -1.38293 0
M  V30 28667 H 5133.01 8.13644 -3.0377 0
M  V30 28668 H 5132.74 6.42788 -2.55485 0
M  V30 28669 H 5133.61 8.12039 -0.792769 0
M  V30 28670 P 5137.57 8.91 -2.35843e-10 0
M  V30 28671 O 5137.79 10.1736 0.733766 0
M  V30 28672 O 5138.36 8.73247 -1.2395 0
M  V30 28673 O 5137.82 7.66872 0.971405 0
M  V30 28674 C 5136.88 7.42212 2.04614 0
M  V30 28675 C 5137.61 6.86059 3.24661 0
M  V30 28676 O 5137.82 5.42847 3.03646 0
M  V30 28677 C 5139.01 7.41196 3.50753 0
M  V30 28678 O 5139.4 7.27073 4.86816 0
M  V30 28679 C 5139.89 6.5273 2.63741 0
M  V30 28680 C 5139.18 5.1842 2.73198 0
M  V30 28681 N 5139.23 4.38668 1.47808 0
M  V30 28682 C 5139.38 3.02239 1.60048 0
M  V30 28683 O 5139.47 2.46459 2.67869 0
M  V30 28684 N 5139.42 2.32436 0.408571 0
M  V30 28685 C 5139.33 2.85471 -0.854993 0
M  V30 28686 C 5139.18 4.28918 -0.887335 0
M  V30 28687 C 5139.13 5.00349 0.255399 0
M  V30 28688 H 5136.39 8.36803 2.32493 0
M  V30 28689 H 5136.12 6.701 1.71105 0
M  V30 28690 H 5136.99 7.03551 4.13168 0
M  V30 28691 H 5139.64 4.59773 3.53894 0
M  V30 28692 H 5139.92 6.88995 1.59871 0
M  V30 28693 H 5140.91 6.46749 3.03687 0
M  V30 28694 H 5139.08 8.46908 3.20714 0
M  V30 28695 H 5139.01 6.08548 0.206986 0
M  V30 28696 P 5140.95 7.20834 5.23717 0
M  V30 28697 O 5141.17 7.79853 6.57286 0
M  V30 28698 O 5141.74 7.79239 4.12957 0
M  V30 28699 O 5141.2 5.63315 5.29344 0
M  V30 28700 C 5140.26 4.80255 6.01876 0
M  V30 28701 C 5140.99 3.64202 6.65911 0
M  V30 28702 O 5141.2 2.60694 5.64732 0
M  V30 28703 C 5142.39 3.93473 7.1943 0
M  V30 28704 O 5142.78 3.02071 8.21205 0
M  V30 28705 C 5143.27 3.73047 5.97036 0
M  V30 28706 C 5142.56 2.58828 5.25741 0
M  V30 28707 N 5142.61 2.68068 3.77503 0
M  V30 28708 H 5139.77 5.40332 6.79951 0
M  V30 28709 H 5139.5 4.41613 5.32378 0
M  V30 28710 H 5140.37 3.26331 7.47797 0
M  V30 28711 P 5144.33 2.75334 8.47391 0
M  V30 28712 O 5144.55 2.44571 9.90142 0
M  V30 28713 O 5145.12 3.87688 7.92115 0
M  V30 28714 O 5144.58 1.4459 7.59357 0
M  V30 28715 C 5143.64 0.347608 7.69215 0
M  V30 28716 C 5144.37 -0.96767 7.52806 0
M  V30 28717 O 5144.58 -1.21036 6.1011 0
M  V30 28718 C 5145.77 -1.04544 8.13308 0
M  V30 28719 O 5146.16 -2.38311 8.41922 0
M  V30 28720 C 5146.65 -0.491279 7.02284 0
M  V30 28721 C 5145.94 -0.996264 5.77469 0
M  V30 28722 N 5145.99 -0.0501916 4.62973 0
M  V30 28723 H 5143.15 0.374722 8.67691 0
M  V30 28724 H 5142.88 0.443485 6.90277 0
M  V30 28725 H 5143.75 -1.75537 7.96793 0
M  V30 28726 P 5147.71 -2.75334 8.47391 0
M  V30 28727 O 5147.93 -3.84128 9.44797 0
M  V30 28728 O 5148.5 -1.51947 8.68712 0
M  V30 28729 O 5147.96 -3.29363 6.99321 0
M  V30 28730 C 5147.02 -4.24011 6.4274 0
M  V30 28731 C 5147.75 -5.20775 5.52155 0
M  V30 28732 O 5147.96 -4.56534 4.22446 0
M  V30 28733 C 5149.15 -5.62629 5.96531 0
M  V30 28734 O 5149.54 -6.87667 5.41053 0
M  V30 28735 C 5150.03 -4.52537 5.39283 0
M  V30 28736 C 5149.32 -4.20027 4.08623 0
M  V30 28737 N 5149.37 -2.76189 3.71603 0
M  V30 28738 H 5146.53 -4.797 7.24003 0
M  V30 28739 H 5146.26 -3.69856 5.84513 0
M  V30 28740 H 5147.13 -6.10356 5.41441 0
M  V30 28741 P 5151.09 -7.20834 5.23717 0
M  V30 28742 O 5151.31 -8.66104 5.38572 0
M  V30 28743 O 5151.88 -6.33544 6.1349 0
M  V30 28744 O 5151.34 -6.7751 3.72168 0
M  V30 28745 C 5150.4 -7.20825 2.7076 0
M  V30 28746 C 5151.13 -7.45864 1.40599 0
M  V30 28747 O 5151.34 -6.17651 0.734225 0
M  V30 28748 C 5152.53 -8.05808 1.51899 0
M  V30 28749 O 5152.92 -8.74358 0.335205 0
M  V30 28750 C 5153.41 -6.83093 1.70294 0
M  V30 28751 C 5152.7 -5.79992 0.836974 0
M  V30 28752 N 5152.75 -4.41864 1.38293 0
M  V30 28753 H 5149.91 -8.13644 3.0377 0
M  V30 28754 H 5149.64 -6.42788 2.55485 0
M  V30 28755 H 5150.51 -8.12039 0.792769 0
M  V30 28756 P 5154.47 -8.91 2.36952e-10 0
M  V30 28757 O 5154.69 -10.1726 -0.733694 0
M  V30 28758 O 5155.26 -8.73148 1.23936 0
M  V30 28759 O 5154.72 -7.66872 -0.971405 0
M  V30 28760 C 5153.78 -7.42309 -2.04641 0
M  V30 28761 C 5154.51 -6.86059 -3.24661 0
M  V30 28762 O 5154.72 -5.42847 -3.03646 0
M  V30 28763 C 5155.91 -7.41196 -3.50753 0
M  V30 28764 O 5156.3 -7.27073 -4.86816 0
M  V30 28765 C 5156.79 -6.5273 -2.63741 0
M  V30 28766 C 5156.08 -5.1842 -2.73198 0
M  V30 28767 N 5156.13 -4.38762 -1.4784 0
M  V30 28768 H 5153.29 -8.36803 -2.32493 0
M  V30 28769 H 5153.02 -6.70197 -1.71129 0
M  V30 28770 H 5153.89 -7.03551 -4.13168 0
M  V30 28771 P 5157.85 -7.20834 -5.23717 0
M  V30 28772 O 5158.07 -7.79853 -6.57286 0
M  V30 28773 O 5158.64 -7.79239 -4.12957 0
M  V30 28774 O 5158.1 -5.63315 -5.29344 0
M  V30 28775 C 5157.16 -4.80255 -6.01876 0
M  V30 28776 C 5157.89 -3.64202 -6.65911 0
M  V30 28777 O 5158.1 -2.60694 -5.64732 0
M  V30 28778 C 5159.29 -3.93473 -7.1943 0
M  V30 28779 O 5159.68 -3.02071 -8.21205 0
M  V30 28780 C 5160.17 -3.73047 -5.97036 0
M  V30 28781 C 5159.46 -2.58828 -5.25741 0
M  V30 28782 N 5159.51 -2.68068 -3.77503 0
M  V30 28783 H 5156.67 -5.40332 -6.79951 0
M  V30 28784 H 5156.4 -4.41613 -5.32378 0
M  V30 28785 H 5157.27 -3.26331 -7.47797 0
M  V30 28786 P 5161.23 -2.75334 -8.47391 0
M  V30 28787 O 5161.45 -2.44571 -9.90142 0
M  V30 28788 O 5162.02 -3.87688 -7.92115 0
M  V30 28789 O 5161.48 -1.4459 -7.59357 0
M  V30 28790 C 5160.54 -0.347608 -7.69215 0
M  V30 28791 C 5161.27 0.96767 -7.52806 0
M  V30 28792 O 5161.48 1.21036 -6.1011 0
M  V30 28793 C 5162.67 1.04544 -8.13308 0
M  V30 28794 O 5163.06 2.38311 -8.41922 0
M  V30 28795 C 5163.55 0.491279 -7.02284 0
M  V30 28796 C 5162.84 0.996264 -5.77469 0
M  V30 28797 N 5162.89 0.0501916 -4.62973 0
M  V30 28798 H 5160.05 -0.374722 -8.67691 0
M  V30 28799 H 5159.78 -0.443485 -6.90277 0
M  V30 28800 H 5160.65 1.75537 -7.96793 0
M  V30 28801 P 5164.61 2.75334 -8.47391 0
M  V30 28802 O 5164.83 3.84128 -9.44797 0
M  V30 28803 O 5165.4 1.51947 -8.68712 0
M  V30 28804 O 5164.86 3.29363 -6.99321 0
M  V30 28805 C 5163.92 4.24011 -6.4274 0
M  V30 28806 C 5164.65 5.20775 -5.52155 0
M  V30 28807 O 5164.86 4.56534 -4.22446 0
M  V30 28808 C 5166.05 5.62629 -5.96531 0
M  V30 28809 O 5166.44 6.87667 -5.41053 0
M  V30 28810 C 5166.93 4.52537 -5.39283 0
M  V30 28811 C 5166.22 4.20027 -4.08623 0
M  V30 28812 N 5166.27 2.76189 -3.71603 0
M  V30 28813 H 5163.43 4.797 -7.24003 0
M  V30 28814 H 5163.16 3.69856 -5.84513 0
M  V30 28815 H 5164.03 6.10356 -5.41441 0
M  V30 28816 P 5167.99 7.20834 -5.23717 0
M  V30 28817 O 5168.21 8.66104 -5.38572 0
M  V30 28818 O 5168.78 6.33544 -6.1349 0
M  V30 28819 O 5168.24 6.7751 -3.72168 0
M  V30 28820 C 5167.3 7.20825 -2.7076 0
M  V30 28821 C 5168.03 7.45864 -1.40599 0
M  V30 28822 O 5168.24 6.17651 -0.734225 0
M  V30 28823 C 5169.43 8.05808 -1.51899 0
M  V30 28824 O 5169.82 8.74358 -0.335205 0
M  V30 28825 C 5170.31 6.83093 -1.70294 0
M  V30 28826 C 5169.6 5.79992 -0.836974 0
M  V30 28827 N 5169.65 4.41864 -1.38293 0
M  V30 28828 H 5166.81 8.13644 -3.0377 0
M  V30 28829 H 5166.54 6.42788 -2.55485 0
M  V30 28830 H 5167.41 8.12039 -0.792769 0
M  V30 28831 P 5171.37 8.91 -2.38061e-10 0
M  V30 28832 O 5171.59 10.1726 0.733694 0
M  V30 28833 O 5172.16 8.73148 -1.23936 0
M  V30 28834 O 5171.62 7.66872 0.971405 0
M  V30 28835 C 5170.68 7.42309 2.04641 0
M  V30 28836 C 5171.41 6.86059 3.24661 0
M  V30 28837 O 5171.62 5.42847 3.03646 0
M  V30 28838 C 5172.81 7.41196 3.50753 0
M  V30 28839 O 5173.2 7.27073 4.86816 0
M  V30 28840 C 5173.69 6.5273 2.63741 0
M  V30 28841 C 5172.98 5.1842 2.73198 0
M  V30 28842 N 5173.03 4.38762 1.4784 0
M  V30 28843 H 5170.19 8.36803 2.32493 0
M  V30 28844 H 5169.92 6.70197 1.71129 0
M  V30 28845 H 5170.79 7.03551 4.13168 0
M  V30 28846 H 5173.07 6.36132 5.14416 0
M  V30 28847 H 5177.09 -9.0732 -2.85239 0
M  V30 28848 O 5176.97 -8.67639 -2.00036 0
M  V30 28849 P 5175.53 -8.7635 -1.60911 0
M  V30 28850 O 5175.31 -10.1388 -1.11561 0
M  V30 28851 O 5174.74 -8.36503 -2.79617 0
M  V30 28852 O 5175.28 -7.71806 -0.42951 0
M  V30 28853 C 5176.22 -7.67148 0.673689 0
M  V30 28854 C 5175.49 -7.33374 1.95559 0
M  V30 28855 O 5175.28 -5.88721 2.00726 0
M  V30 28856 C 5174.09 -7.92526 2.10483 0
M  V30 28857 O 5173.7 -8.02971 3.47653 0
M  V30 28858 C 5173.21 -6.89602 1.41652 0
M  V30 28859 C 5173.92 -5.59201 1.75185 0
M  V30 28860 N 5173.87 -4.58235 0.662552 0
M  V30 28861 H 5176.71 -8.65116 0.777161 0
M  V30 28862 H 5176.98 -6.90173 0.474152 0
M  V30 28863 H 5176.11 -7.66548 2.79458 0
M  V30 28864 P 5172.15 -8.03563 3.84925 0
M  V30 28865 O 5171.93 -8.85821 5.0569 0
M  V30 28866 O 5171.36 -8.41101 2.65469 0
M  V30 28867 O 5171.9 -6.4965 4.18908 0
M  V30 28868 C 5172.84 -5.81037 5.05421 0
M  V30 28869 C 5172.11 -4.78366 5.89277 0
M  V30 28870 O 5171.9 -3.58302 5.08433 0
M  V30 28871 C 5170.71 -5.17448 6.36119 0
M  V30 28872 O 5170.32 -4.45271 7.53232 0
M  V30 28873 C 5169.83 -4.74639 5.19936 0
M  V30 28874 C 5170.54 -3.49432 4.70418 0
M  V30 28875 N 5170.49 -3.31776 3.22945 0
M  V30 28876 H 5173.33 -6.54213 5.71376 0
M  V30 28877 H 5173.6 -5.30492 4.44033 0
M  V30 28878 H 5172.73 -4.55889 6.76652 0
M  V30 28879 P 5168.77 -4.23843 7.83734 0
M  V30 28880 O 5168.55 -4.19407 9.29784 0
M  V30 28881 O 5167.98 -5.24426 7.09156 0
M  V30 28882 O 5168.52 -2.7935 7.20758 0
M  V30 28883 C 5169.46 -1.7299 7.50419 0
M  V30 28884 C 5168.73 -0.406376 7.57911 0
M  V30 28885 O 5168.52 0.0897726 6.21935 0
M  V30 28886 C 5167.33 -0.447224 8.1878 0
M  V30 28887 O 5166.94 0.825065 8.71101 0
M  V30 28888 C 5166.45 -0.783801 6.99623 0
M  V30 28889 C 5167.16 -0.0619192 5.85967 0
M  V30 28890 N 5167.11 -0.790462 4.56202 0
M  V30 28891 H 5169.95 -1.93423 8.4679 0
M  V30 28892 H 5170.22 -1.68852 6.70877 0
M  V30 28893 H 5169.35 0.289041 8.15388 0
M  V30 28894 H 5166.7 0.927006 5.72848 0
M  V30 28895 H 5166.42 -1.86973 6.82036 0
M  V30 28896 H 5165.43 -0.403953 7.13357 0
M  V30 28897 H 5167.26 -1.20599 8.97534 0
M  V30 28898 P 5165.39 1.17771 8.83182 0
M  V30 28899 O 5165.17 2.07206 9.98732 0
M  V30 28900 O 5164.6 -0.0743816 8.81969 0
M  V30 28901 O 5165.14 1.97652 7.47304 0
M  V30 28902 C 5166.08 3.01133 7.08783 0
M  V30 28903 C 5165.35 4.12613 6.37049 0
M  V30 28904 O 5165.14 3.72827 4.97879 0
M  V30 28905 C 5163.95 4.45085 6.88694 0
M  V30 28906 O 5163.56 5.7877 6.5624 0
M  V30 28907 C 5163.07 3.47817 6.12078 0
M  V30 28908 C 5163.78 3.39414 4.77697 0
M  V30 28909 N 5163.73 2.04199 4.15538 0
M  V30 28910 H 5166.57 3.41248 7.98759 0
M  V30 28911 H 5166.84 2.57728 6.42 0
M  V30 28912 H 5165.97 5.02657 6.42673 0
M  V30 28913 H 5163.32 4.11708 4.08956 0
M  V30 28914 H 5163.04 2.49626 6.61679 0
M  V30 28915 H 5162.05 3.8662 6.00862 0
M  V30 28916 H 5163.88 4.29991 7.97006 0
M  V30 28917 P 5162.01 6.144 6.45285 0
M  V30 28918 O 5161.79 7.54673 6.86199 0
M  V30 28919 O 5161.22 5.12391 7.179 0
M  V30 28920 O 5161.76 5.99158 4.88404 0
M  V30 28921 C 5162.7 6.60234 3.96415 0
M  V30 28922 C 5161.97 7.08259 2.72856 0
M  V30 28923 O 5161.76 5.9427 1.83651 0
M  V30 28924 C 5160.57 7.64886 2.9555 0
M  V30 28925 O 5160.18 8.53963 1.90717 0
M  V30 28926 C 5159.69 6.4116 2.90739 0
M  V30 28927 C 5160.4 5.55375 1.86963 0
M  V30 28928 N 5160.35 4.09664 2.15742 0
M  V30 28929 H 5163.19 7.45574 4.45629 0
M  V30 28930 H 5163.46 5.86232 3.67314 0
M  V30 28931 H 5162.59 7.84412 2.24479 0
M  V30 28932 P 5158.63 8.7635 1.60911 0
M  V30 28933 O 5158.41 10.1388 1.11561 0
M  V30 28934 O 5157.84 8.36503 2.79617 0
M  V30 28935 O 5158.38 7.71806 0.42951 0
M  V30 28936 C 5159.32 7.67148 -0.673689 0
M  V30 28937 C 5158.59 7.33374 -1.95559 0
M  V30 28938 O 5158.38 5.88721 -2.00726 0
M  V30 28939 C 5157.19 7.92526 -2.10483 0
M  V30 28940 O 5156.8 8.02971 -3.47653 0
M  V30 28941 C 5156.31 6.89602 -1.41652 0
M  V30 28942 C 5157.02 5.59201 -1.75185 0
M  V30 28943 N 5156.97 4.58301 -0.657969 0
M  V30 28944 H 5159.81 8.65116 -0.777161 0
M  V30 28945 H 5160.08 6.9022 -0.46725 0
M  V30 28946 H 5159.21 7.66548 -2.79458 0
M  V30 28947 H 5156.56 5.16165 -2.65183 0
M  V30 28948 H 5156.28 7.06433 -0.329384 0
M  V30 28949 H 5155.29 6.90926 -1.82021 0
M  V30 28950 H 5157.12 8.90873 -1.62657 0
M  V30 28951 P 5155.25 8.03563 -3.84925 0
M  V30 28952 O 5155.03 8.85821 -5.0569 0
M  V30 28953 O 5154.46 8.41101 -2.65469 0
M  V30 28954 O 5155 6.4965 -4.18908 0
M  V30 28955 C 5155.94 5.81037 -5.05421 0
M  V30 28956 C 5155.21 4.78366 -5.89277 0
M  V30 28957 O 5155 3.58302 -5.08433 0
M  V30 28958 C 5153.81 5.17448 -6.36119 0
M  V30 28959 O 5153.42 4.45271 -7.53232 0
M  V30 28960 C 5152.93 4.74639 -5.19936 0
M  V30 28961 C 5153.64 3.49432 -4.70418 0
M  V30 28962 N 5153.59 3.32099 -3.22613 0
M  V30 28963 H 5156.43 6.54213 -5.71376 0
M  V30 28964 H 5156.7 5.30936 -4.43503 0
M  V30 28965 H 5155.83 4.55889 -6.76652 0
M  V30 28966 H 5153.18 2.61715 -5.17932 0
M  V30 28967 H 5152.9 5.52155 -4.41878 0
M  V30 28968 H 5151.91 4.51981 -5.53374 0
M  V30 28969 H 5153.74 6.25124 -6.55234 0
M  V30 28970 P 5151.87 4.23843 -7.83734 0
M  V30 28971 O 5151.65 4.19407 -9.29784 0
M  V30 28972 O 5151.08 5.24426 -7.09156 0
M  V30 28973 O 5151.62 2.7935 -7.20758 0
M  V30 28974 C 5152.56 1.7299 -7.50419 0
M  V30 28975 C 5151.83 0.406376 -7.57911 0
M  V30 28976 O 5151.62 -0.0897726 -6.21935 0
M  V30 28977 C 5150.43 0.447224 -8.1878 0
M  V30 28978 O 5150.04 -0.825065 -8.71101 0
M  V30 28979 C 5149.55 0.783801 -6.99623 0
M  V30 28980 C 5150.26 0.0619192 -5.85967 0
M  V30 28981 N 5150.21 0.7859 -4.56281 0
M  V30 28982 H 5153.05 1.93423 -8.4679 0
M  V30 28983 H 5153.32 1.68181 -6.71046 0
M  V30 28984 H 5152.45 -0.289041 -8.15388 0
M  V30 28985 P 5148.49 -1.17771 -8.83182 0
M  V30 28986 O 5148.27 -2.07206 -9.98732 0
M  V30 28987 O 5147.7 0.0743816 -8.81969 0
M  V30 28988 O 5148.24 -1.97652 -7.47304 0
M  V30 28989 C 5149.18 -3.01133 -7.08783 0
M  V30 28990 C 5148.45 -4.12613 -6.37049 0
M  V30 28991 O 5148.24 -3.72827 -4.97879 0
M  V30 28992 C 5147.05 -4.45085 -6.88694 0
M  V30 28993 O 5146.66 -5.7877 -6.5624 0
M  V30 28994 C 5146.17 -3.47817 -6.12078 0
M  V30 28995 C 5146.88 -3.39414 -4.77697 0
M  V30 28996 N 5146.83 -2.04615 -4.15333 0
M  V30 28997 H 5149.67 -3.41248 -7.98759 0
M  V30 28998 H 5149.94 -2.5837 -6.41742 0
M  V30 28999 H 5149.07 -5.02657 -6.42673 0
M  V30 29000 P 5145.11 -6.144 -6.45285 0
M  V30 29001 O 5144.89 -7.54673 -6.86199 0
M  V30 29002 O 5144.32 -5.12391 -7.179 0
M  V30 29003 O 5144.86 -5.99158 -4.88404 0
M  V30 29004 C 5145.8 -6.60234 -3.96415 0
M  V30 29005 C 5145.07 -7.08259 -2.72856 0
M  V30 29006 O 5144.86 -5.9427 -1.83651 0
M  V30 29007 C 5143.67 -7.64886 -2.9555 0
M  V30 29008 O 5143.28 -8.53963 -1.90717 0
M  V30 29009 C 5142.79 -6.4116 -2.90739 0
M  V30 29010 C 5143.5 -5.55375 -1.86963 0
M  V30 29011 N 5143.45 -4.09664 -2.15742 0
M  V30 29012 H 5146.29 -7.45574 -4.45629 0
M  V30 29013 H 5146.56 -5.86232 -3.67314 0
M  V30 29014 H 5145.69 -7.84412 -2.24479 0
M  V30 29015 P 5141.73 -8.7635 -1.60911 0
M  V30 29016 O 5141.51 -10.1388 -1.11561 0
M  V30 29017 O 5140.94 -8.36503 -2.79617 0
M  V30 29018 O 5141.48 -7.71806 -0.42951 0
M  V30 29019 C 5142.42 -7.67148 0.673689 0
M  V30 29020 C 5141.69 -7.33374 1.95559 0
M  V30 29021 O 5141.48 -5.88721 2.00726 0
M  V30 29022 C 5140.29 -7.92526 2.10483 0
M  V30 29023 O 5139.9 -8.02971 3.47653 0
M  V30 29024 C 5139.41 -6.89602 1.41652 0
M  V30 29025 C 5140.12 -5.59201 1.75185 0
M  V30 29026 N 5140.07 -4.58235 0.662552 0
M  V30 29027 C 5140.15 -4.7683 -0.704049 0
M  V30 29028 N 5140.07 -3.66233 -1.39775 0
M  V30 29029 C 5139.93 -2.66526 -0.431739 0
M  V30 29030 C 5139.8 -1.26394 -0.575992 0
M  V30 29031 N 5139.68 -0.62859 0.67177 0
M  V30 29032 C 5139.68 -1.27134 1.89385 0
M  V30 29033 N 5139.55 -0.492035 2.96951 0
M  V30 29034 N 5139.81 -2.58978 2.02907 0
M  V30 29035 C 5139.93 -3.22433 0.832218 0
M  V30 29036 H 5142.91 -8.65116 0.777161 0
M  V30 29037 H 5143.18 -6.90173 0.474152 0
M  V30 29038 H 5142.31 -7.66548 2.79458 0
M  V30 29039 P 5138.35 -8.03563 3.84925 0
M  V30 29040 O 5138.13 -8.85821 5.0569 0
M  V30 29041 O 5137.56 -8.41101 2.65469 0
M  V30 29042 O 5138.1 -6.4965 4.18908 0
M  V30 29043 C 5139.04 -5.81037 5.05421 0
M  V30 29044 C 5138.31 -4.78366 5.89277 0
M  V30 29045 O 5138.1 -3.58302 5.08433 0
M  V30 29046 C 5136.91 -5.17448 6.36119 0
M  V30 29047 O 5136.52 -4.45271 7.53232 0
M  V30 29048 C 5136.03 -4.74639 5.19936 0
M  V30 29049 C 5136.74 -3.49432 4.70418 0
M  V30 29050 N 5136.69 -3.32099 3.22613 0
M  V30 29051 H 5139.53 -6.54213 5.71376 0
M  V30 29052 H 5139.8 -5.30936 4.43503 0
M  V30 29053 H 5138.93 -4.55889 6.76652 0
M  V30 29054 H 5136.28 -2.61715 5.17932 0
M  V30 29055 H 5136 -5.52155 4.41878 0
M  V30 29056 H 5135.01 -4.51981 5.53374 0
M  V30 29057 H 5136.84 -6.25124 6.55234 0
M  V30 29058 P 5134.97 -4.23843 7.83734 0
M  V30 29059 O 5134.75 -4.19407 9.29784 0
M  V30 29060 O 5134.18 -5.24426 7.09156 0
M  V30 29061 O 5134.72 -2.7935 7.20758 0
M  V30 29062 C 5135.66 -1.7299 7.50419 0
M  V30 29063 C 5134.93 -0.406376 7.57911 0
M  V30 29064 O 5134.72 0.0897726 6.21935 0
M  V30 29065 C 5133.53 -0.447224 8.1878 0
M  V30 29066 O 5133.14 0.825065 8.71101 0
M  V30 29067 C 5132.65 -0.783801 6.99623 0
M  V30 29068 C 5133.36 -0.0619192 5.85967 0
M  V30 29069 N 5133.31 -0.7859 4.56281 0
M  V30 29070 H 5136.15 -1.93423 8.4679 0
M  V30 29071 H 5136.42 -1.68181 6.71046 0
M  V30 29072 H 5135.55 0.289041 8.15388 0
M  V30 29073 P 5131.59 1.17771 8.83182 0
M  V30 29074 O 5131.37 2.07206 9.98732 0
M  V30 29075 O 5130.8 -0.0743816 8.81969 0
M  V30 29076 O 5131.34 1.97652 7.47304 0
M  V30 29077 C 5132.28 3.01133 7.08783 0
M  V30 29078 C 5131.55 4.12613 6.37049 0
M  V30 29079 O 5131.34 3.72827 4.97879 0
M  V30 29080 C 5130.15 4.45085 6.88694 0
M  V30 29081 O 5129.76 5.7877 6.5624 0
M  V30 29082 C 5129.27 3.47817 6.12078 0
M  V30 29083 C 5129.98 3.39414 4.77697 0
M  V30 29084 N 5129.93 2.04615 4.15333 0
M  V30 29085 H 5132.77 3.41248 7.98759 0
M  V30 29086 H 5133.04 2.5837 6.41742 0
M  V30 29087 H 5132.17 5.02657 6.42673 0
M  V30 29088 P 5128.21 6.144 6.45285 0
M  V30 29089 O 5127.99 7.54673 6.86199 0
M  V30 29090 O 5127.42 5.12391 7.179 0
M  V30 29091 O 5127.96 5.99158 4.88404 0
M  V30 29092 C 5128.9 6.60234 3.96415 0
M  V30 29093 C 5128.17 7.08259 2.72856 0
M  V30 29094 O 5127.96 5.9427 1.83651 0
M  V30 29095 C 5126.77 7.64886 2.9555 0
M  V30 29096 O 5126.38 8.53963 1.90717 0
M  V30 29097 C 5125.89 6.4116 2.90739 0
M  V30 29098 C 5126.6 5.55375 1.86963 0
M  V30 29099 N 5126.55 4.09448 2.16152 0
M  V30 29100 H 5129.39 7.45574 4.45629 0
M  V30 29101 H 5129.66 5.85864 3.679 0
M  V30 29102 H 5128.79 7.84412 2.24479 0
M  V30 29103 H 5126.14 5.73457 0.888562 0
M  V30 29104 H 5125.86 5.90877 3.88583 0
M  V30 29105 H 5124.87 6.6596 2.58858 0
M  V30 29106 H 5126.7 8.16339 3.92049 0
M  V30 29107 P 5124.83 8.7635 1.60911 0
M  V30 29108 O 5124.61 10.1388 1.11561 0
M  V30 29109 O 5124.04 8.36503 2.79617 0
M  V30 29110 O 5124.58 7.71806 0.42951 0
M  V30 29111 C 5125.52 7.67148 -0.673689 0
M  V30 29112 C 5124.79 7.33374 -1.95559 0
M  V30 29113 O 5124.58 5.88721 -2.00726 0
M  V30 29114 C 5123.39 7.92526 -2.10483 0
M  V30 29115 O 5123 8.02971 -3.47653 0
M  V30 29116 C 5122.51 6.89602 -1.41652 0
M  V30 29117 C 5123.22 5.59201 -1.75185 0
M  V30 29118 N 5123.17 4.58301 -0.657969 0
M  V30 29119 H 5126.01 8.65116 -0.777161 0
M  V30 29120 H 5126.28 6.9022 -0.46725 0
M  V30 29121 H 5125.41 7.66548 -2.79458 0
M  V30 29122 H 5122.76 5.16165 -2.65183 0
M  V30 29123 H 5122.48 7.06433 -0.329384 0
M  V30 29124 H 5121.49 6.90926 -1.82021 0
M  V30 29125 H 5123.32 8.90873 -1.62657 0
M  V30 29126 P 5121.45 8.03563 -3.84925 0
M  V30 29127 O 5121.23 8.85821 -5.0569 0
M  V30 29128 O 5120.66 8.41101 -2.65469 0
M  V30 29129 O 5121.2 6.4965 -4.18908 0
M  V30 29130 C 5122.14 5.80886 -5.05289 0
M  V30 29131 C 5121.41 4.78366 -5.89277 0
M  V30 29132 O 5121.2 3.58302 -5.08433 0
M  V30 29133 C 5120.01 5.16748 -6.36559 0
M  V30 29134 O 5119.62 4.45271 -7.53232 0
M  V30 29135 C 5119.13 4.74572 -5.19863 0
M  V30 29136 C 5119.84 3.49373 -4.70338 0
M  V30 29137 N 5119.79 3.31704 -3.22876 0
M  V30 29138 C 5119.64 2.03326 -2.74871 0
M  V30 29139 O 5119.55 1.06486 -3.48076 0
M  V30 29140 N 5119.6 1.91838 -1.37456 0
M  V30 29141 C 5119.69 2.94295 -0.462035 0
M  V30 29142 O 5119.64 2.71763 0.752928 0
M  V30 29143 C 5119.84 4.25064 -1.05249 0
M  V30 29144 C 5119.95 5.39815 -0.095697 0
M  V30 29145 C 5119.89 4.40214 -2.39192 0
M  V30 29146 H 5122.63 6.54063 -5.71245 0
M  V30 29147 H 5122.9 5.30339 -4.43905 0
M  V30 29148 H 5122.03 4.55889 -6.76652 0
M  V30 29149 H 5119.38 2.6167 -5.17842 0
M  V30 29150 H 5119.1 5.52155 -4.41878 0
M  V30 29151 H 5118.11 4.51918 -5.53297 0
M  V30 29152 H 5119.94 6.25055 -6.55162 0
M  V30 29153 H 5120.01 5.39798 -2.81523 0
M  V30 29154 H 5118.98 5.91593 -0.0279582 0
M  V30 29155 H 5120.72 6.10038 -0.450573 0
M  V30 29156 H 5120.23 5.02007 0.89937 0
M  V30 29157 H 5119.49 0.995326 -1.00435 0
M  V30 29158 P 5118.07 4.23843 -7.83734 0
M  V30 29159 O 5117.85 4.19407 -9.29784 0
M  V30 29160 O 5117.28 5.24426 -7.09156 0
M  V30 29161 O 5117.82 2.7935 -7.20758 0
M  V30 29162 C 5118.76 1.72945 -7.50224 0
M  V30 29163 C 5118.03 0.406376 -7.57911 0
M  V30 29164 O 5117.82 -0.0897726 -6.21935 0
M  V30 29165 C 5116.63 0.438983 -8.18724 0
M  V30 29166 O 5116.24 -0.825065 -8.71101 0
M  V30 29167 C 5115.75 0.783689 -6.99524 0
M  V30 29168 C 5116.46 0.0619086 -5.85867 0
M  V30 29169 N 5116.41 0.78573 -4.56183 0
M  V30 29170 C 5116.26 0.0292889 -3.41887 0
M  V30 29171 O 5116.17 -1.18445 -3.4419 0
M  V30 29172 N 5116.22 0.744061 -2.23964 0
M  V30 29173 C 5116.31 2.10932 -2.10362 0
M  V30 29174 C 5116.46 2.8202 -3.34994 0
M  V30 29175 C 5116.51 2.15547 -4.52261 0
M  V30 29176 H 5119.25 1.93379 -8.46595 0
M  V30 29177 H 5119.52 1.68132 -6.70852 0
M  V30 29178 H 5118.65 -0.289041 -8.15388 0
M  V30 29179 H 5116 -0.926847 -5.72749 0
M  V30 29180 H 5115.72 1.86973 -6.82036 0
M  V30 29181 H 5114.73 0.403896 -7.13257 0
M  V30 29182 H 5116.56 1.20585 -8.97435 0
M  V30 29183 H 5116.63 2.71231 -5.45042 0
M  V30 29184 P 5114.69 -1.17771 -8.83182 0
M  V30 29185 O 5114.47 -2.07206 -9.98732 0
M  V30 29186 O 5113.9 0.0743816 -8.81969 0
M  V30 29187 O 5114.44 -1.97652 -7.47304 0
M  V30 29188 C 5115.38 -3.01133 -7.08783 0
M  V30 29189 C 5114.65 -4.12613 -6.37049 0
M  V30 29190 O 5114.44 -3.72827 -4.97879 0
M  V30 29191 C 5113.25 -4.45085 -6.88694 0
M  V30 29192 O 5112.86 -5.7877 -6.5624 0
M  V30 29193 C 5112.37 -3.47817 -6.12078 0
M  V30 29194 C 5113.08 -3.39414 -4.77697 0
M  V30 29195 N 5113.03 -2.04615 -4.15333 0
M  V30 29196 H 5115.87 -3.41248 -7.98759 0
M  V30 29197 H 5116.14 -2.5837 -6.41742 0
M  V30 29198 H 5115.27 -5.02657 -6.42673 0
M  V30 29199 P 5111.31 -6.144 -6.45285 0
M  V30 29200 O 5111.09 -7.54673 -6.86199 0
M  V30 29201 O 5110.52 -5.12391 -7.179 0
M  V30 29202 O 5111.06 -5.99158 -4.88404 0
M  V30 29203 C 5112 -6.60234 -3.96415 0
M  V30 29204 C 5111.27 -7.08259 -2.72856 0
M  V30 29205 O 5111.06 -5.9427 -1.83651 0
M  V30 29206 C 5109.87 -7.64886 -2.9555 0
M  V30 29207 O 5109.48 -8.53963 -1.90717 0
M  V30 29208 C 5108.99 -6.4116 -2.90739 0
M  V30 29209 C 5109.7 -5.55375 -1.86963 0
M  V30 29210 N 5109.65 -4.09448 -2.16152 0
M  V30 29211 H 5112.49 -7.45574 -4.45629 0
M  V30 29212 H 5112.76 -5.85864 -3.679 0
M  V30 29213 H 5111.89 -7.84412 -2.24479 0
M  V30 29214 H 5109.24 -5.73457 -0.888562 0
M  V30 29215 H 5108.96 -5.90877 -3.88583 0
M  V30 29216 H 5107.97 -6.6596 -2.58858 0
M  V30 29217 H 5109.8 -8.16339 -3.92049 0
M  V30 29218 P 5107.93 -8.7635 -1.60911 0
M  V30 29219 O 5107.71 -10.1388 -1.11561 0
M  V30 29220 O 5107.14 -8.36503 -2.79617 0
M  V30 29221 O 5107.68 -7.71806 -0.42951 0
M  V30 29222 C 5108.62 -7.67148 0.673689 0
M  V30 29223 C 5107.89 -7.33374 1.95559 0
M  V30 29224 O 5107.68 -5.88721 2.00726 0
M  V30 29225 C 5106.49 -7.92526 2.10483 0
M  V30 29226 O 5106.1 -8.02971 3.47653 0
M  V30 29227 C 5105.61 -6.89602 1.41652 0
M  V30 29228 C 5106.32 -5.59201 1.75185 0
M  V30 29229 N 5106.27 -4.58301 0.657969 0
M  V30 29230 H 5109.11 -8.65116 0.777161 0
M  V30 29231 H 5109.38 -6.9022 0.46725 0
M  V30 29232 H 5108.51 -7.66548 2.79458 0
M  V30 29233 H 5105.86 -5.16165 2.65183 0
M  V30 29234 H 5105.58 -7.06433 0.329384 0
M  V30 29235 H 5104.59 -6.90926 1.82021 0
M  V30 29236 H 5106.42 -8.90873 1.62657 0
M  V30 29237 P 5104.55 -8.03563 3.84925 0
M  V30 29238 O 5104.33 -8.85821 5.0569 0
M  V30 29239 O 5103.76 -8.41101 2.65469 0
M  V30 29240 O 5104.3 -6.4965 4.18908 0
M  V30 29241 C 5105.24 -5.80886 5.05289 0
M  V30 29242 C 5104.51 -4.78366 5.89277 0
M  V30 29243 O 5104.3 -3.58302 5.08433 0
M  V30 29244 C 5103.11 -5.16748 6.36559 0
M  V30 29245 O 5102.72 -4.45271 7.53232 0
M  V30 29246 C 5102.23 -4.74572 5.19863 0
M  V30 29247 C 5102.94 -3.49373 4.70338 0
M  V30 29248 N 5102.89 -3.31704 3.22876 0
M  V30 29249 C 5102.74 -2.03326 2.74871 0
M  V30 29250 O 5102.65 -1.06486 3.48076 0
M  V30 29251 N 5102.7 -1.91838 1.37456 0
M  V30 29252 C 5102.79 -2.94295 0.462035 0
M  V30 29253 O 5102.74 -2.71763 -0.752928 0
M  V30 29254 C 5102.94 -4.25064 1.05249 0
M  V30 29255 C 5103.05 -5.39815 0.095697 0
M  V30 29256 C 5102.99 -4.40214 2.39192 0
M  V30 29257 H 5105.73 -6.54063 5.71245 0
M  V30 29258 H 5106 -5.30339 4.43905 0
M  V30 29259 H 5105.13 -4.55889 6.76652 0
M  V30 29260 H 5102.48 -2.6167 5.17842 0
M  V30 29261 H 5102.2 -5.52155 4.41878 0
M  V30 29262 H 5101.21 -4.51918 5.53297 0
M  V30 29263 H 5103.04 -6.25055 6.55162 0
M  V30 29264 H 5103.11 -5.39798 2.81523 0
M  V30 29265 H 5102.08 -5.91593 0.0279582 0
M  V30 29266 H 5103.82 -6.10038 0.450573 0
M  V30 29267 H 5103.33 -5.02007 -0.89937 0
M  V30 29268 H 5102.59 -0.995326 1.00435 0
M  V30 29269 P 5101.17 -4.23843 7.83734 0
M  V30 29270 O 5100.95 -4.19407 9.29784 0
M  V30 29271 O 5100.38 -5.24426 7.09156 0
M  V30 29272 O 5100.92 -2.7935 7.20758 0
M  V30 29273 C 5101.86 -1.72945 7.50224 0
M  V30 29274 C 5101.13 -0.406376 7.57911 0
M  V30 29275 O 5100.92 0.0897726 6.21935 0
M  V30 29276 C 5099.73 -0.438983 8.18724 0
M  V30 29277 O 5099.34 0.825065 8.71101 0
M  V30 29278 C 5098.85 -0.783689 6.99524 0
M  V30 29279 C 5099.56 -0.0619086 5.85867 0
M  V30 29280 N 5099.51 -0.78573 4.56183 0
M  V30 29281 C 5099.36 -0.0292889 3.41887 0
M  V30 29282 O 5099.27 1.18445 3.4419 0
M  V30 29283 N 5099.32 -0.744061 2.23964 0
M  V30 29284 C 5099.41 -2.10932 2.10362 0
M  V30 29285 C 5099.56 -2.8202 3.34994 0
M  V30 29286 C 5099.61 -2.15547 4.52261 0
M  V30 29287 H 5102.35 -1.93379 8.46595 0
M  V30 29288 H 5102.62 -1.68132 6.70852 0
M  V30 29289 H 5101.75 0.289041 8.15388 0
M  V30 29290 H 5099.1 0.926847 5.72749 0
M  V30 29291 H 5098.82 -1.86973 6.82036 0
M  V30 29292 H 5097.83 -0.403896 7.13257 0
M  V30 29293 H 5099.66 -1.20585 8.97435 0
M  V30 29294 H 5099.73 -2.71231 5.45042 0
M  V30 29295 P 5097.79 1.17771 8.83182 0
M  V30 29296 O 5097.57 2.07206 9.98732 0
M  V30 29297 O 5097 -0.0743816 8.81969 0
M  V30 29298 O 5097.54 1.97652 7.47304 0
M  V30 29299 C 5098.48 3.01133 7.08783 0
M  V30 29300 C 5097.75 4.12613 6.37049 0
M  V30 29301 O 5097.54 3.72827 4.97879 0
M  V30 29302 C 5096.35 4.45085 6.88694 0
M  V30 29303 O 5095.96 5.7877 6.5624 0
M  V30 29304 C 5095.47 3.47817 6.12078 0
M  V30 29305 C 5096.18 3.39414 4.77697 0
M  V30 29306 N 5096.13 2.04615 4.15333 0
M  V30 29307 H 5098.97 3.41248 7.98759 0
M  V30 29308 H 5099.24 2.5837 6.41742 0
M  V30 29309 H 5098.37 5.02657 6.42673 0
M  V30 29310 P 5094.41 6.144 6.45285 0
M  V30 29311 O 5094.19 7.54673 6.86199 0
M  V30 29312 O 5093.62 5.12391 7.179 0
M  V30 29313 O 5094.16 5.99158 4.88404 0
M  V30 29314 C 5095.1 6.60062 3.96313 0
M  V30 29315 C 5094.37 7.08259 2.72856 0
M  V30 29316 O 5094.16 5.9427 1.83651 0
M  V30 29317 C 5092.97 7.65087 2.94749 0
M  V30 29318 O 5092.58 8.53963 1.90717 0
M  V30 29319 C 5092.09 6.41069 2.90698 0
M  V30 29320 C 5092.8 5.5528 1.86931 0
M  V30 29321 N 5092.75 4.09575 2.15696 0
M  V30 29322 C 5092.6 3.24249 1.08435 0
M  V30 29323 O 5092.51 3.63946 -0.0628747 0
M  V30 29324 N 5092.56 1.90009 1.39973 0
M  V30 29325 C 5092.65 1.34884 2.65614 0
M  V30 29326 O 5092.6 0.123716 2.81728 0
M  V30 29327 C 5092.8 2.3145 3.71736 0
M  V30 29328 C 5092.91 1.75913 5.10438 0
M  V30 29329 C 5092.85 3.63518 3.44754 0
M  V30 29330 H 5095.59 7.45402 4.45526 0
M  V30 29331 H 5095.86 5.86062 3.67208 0
M  V30 29332 H 5094.99 7.84412 2.24479 0
M  V30 29333 H 5092.34 5.73358 0.888409 0
M  V30 29334 H 5092.06 5.90877 3.88583 0
M  V30 29335 H 5091.07 6.65867 2.58821 0
M  V30 29336 H 5092.9 8.16248 3.92006 0
M  V30 29337 H 5092.97 4.34551 4.26383 0
M  V30 29338 H 5091.94 1.85471 5.61775 0
M  V30 29339 H 5093.68 2.31364 5.66257 0
M  V30 29340 H 5093.19 0.695936 5.05229 0
M  V30 29341 H 5092.45 1.26277 0.63625 0
M  V30 29342 P 5091.03 8.7635 1.60911 0
M  V30 29343 O 5090.81 10.1388 1.11561 0
M  V30 29344 O 5090.24 8.36503 2.79617 0
M  V30 29345 O 5090.78 7.71806 0.42951 0
M  V30 29346 C 5091.72 7.67148 -0.673689 0
M  V30 29347 C 5090.99 7.33374 -1.95559 0
M  V30 29348 O 5090.78 5.88721 -2.00726 0
M  V30 29349 C 5089.59 7.92526 -2.10483 0
M  V30 29350 O 5089.2 8.02971 -3.47653 0
M  V30 29351 C 5088.71 6.89602 -1.41652 0
M  V30 29352 C 5089.42 5.59201 -1.75185 0
M  V30 29353 N 5089.37 4.58235 -0.662552 0
M  V30 29354 H 5092.21 8.65116 -0.777161 0
M  V30 29355 H 5092.48 6.90173 -0.474152 0
M  V30 29356 H 5091.61 7.66548 -2.79458 0
M  V30 29357 P 5087.65 8.03563 -3.84925 0
M  V30 29358 O 5087.43 8.85821 -5.0569 0
M  V30 29359 O 5086.86 8.41101 -2.65469 0
M  V30 29360 O 5087.4 6.4965 -4.18908 0
M  V30 29361 C 5088.34 5.80886 -5.05289 0
M  V30 29362 C 5087.61 4.78366 -5.89277 0
M  V30 29363 O 5087.4 3.58302 -5.08433 0
M  V30 29364 C 5086.21 5.16748 -6.36559 0
M  V30 29365 O 5085.82 4.45271 -7.53232 0
M  V30 29366 C 5085.33 4.74572 -5.19863 0
M  V30 29367 C 5086.04 3.49373 -4.70338 0
M  V30 29368 N 5085.99 3.31704 -3.22876 0
M  V30 29369 C 5085.84 2.03326 -2.74871 0
M  V30 29370 O 5085.75 1.06486 -3.48076 0
M  V30 29371 N 5085.8 1.91838 -1.37456 0
M  V30 29372 C 5085.89 2.94295 -0.462035 0
M  V30 29373 O 5085.84 2.71763 0.752928 0
M  V30 29374 C 5086.04 4.25064 -1.05249 0
M  V30 29375 C 5086.15 5.39815 -0.095697 0
M  V30 29376 C 5086.09 4.40214 -2.39192 0
M  V30 29377 H 5088.83 6.54063 -5.71245 0
M  V30 29378 H 5089.1 5.30339 -4.43905 0
M  V30 29379 H 5088.23 4.55889 -6.76652 0
M  V30 29380 H 5085.58 2.6167 -5.17842 0
M  V30 29381 H 5085.3 5.52155 -4.41878 0
M  V30 29382 H 5084.31 4.51918 -5.53297 0
M  V30 29383 H 5086.14 6.25055 -6.55162 0
M  V30 29384 H 5086.21 5.39798 -2.81523 0
M  V30 29385 H 5085.18 5.91593 -0.0279582 0
M  V30 29386 H 5086.92 6.10038 -0.450573 0
M  V30 29387 H 5086.43 5.02007 0.89937 0
M  V30 29388 H 5085.69 0.995326 -1.00435 0
M  V30 29389 P 5084.27 4.23843 -7.83734 0
M  V30 29390 O 5084.05 4.19407 -9.29784 0
M  V30 29391 O 5083.48 5.24426 -7.09156 0
M  V30 29392 O 5084.02 2.7935 -7.20758 0
M  V30 29393 C 5084.96 1.7299 -7.50419 0
M  V30 29394 C 5084.23 0.406376 -7.57911 0
M  V30 29395 O 5084.02 -0.0897726 -6.21935 0
M  V30 29396 C 5082.83 0.447224 -8.1878 0
M  V30 29397 O 5082.44 -0.825065 -8.71101 0
M  V30 29398 C 5081.95 0.783801 -6.99623 0
M  V30 29399 C 5082.66 0.0619192 -5.85967 0
M  V30 29400 N 5082.61 0.790462 -4.56202 0
M  V30 29401 H 5085.45 1.93423 -8.4679 0
M  V30 29402 H 5085.72 1.68852 -6.70877 0
M  V30 29403 H 5084.85 -0.289041 -8.15388 0
M  V30 29404 H 5082.2 -0.927006 -5.72848 0
M  V30 29405 H 5081.92 1.86973 -6.82036 0
M  V30 29406 H 5080.93 0.403953 -7.13357 0
M  V30 29407 H 5082.76 1.20599 -8.97534 0
M  V30 29408 P 5080.89 -1.17771 -8.83182 0
M  V30 29409 O 5080.67 -2.07206 -9.98732 0
M  V30 29410 O 5080.1 0.0743816 -8.81969 0
M  V30 29411 O 5080.64 -1.97652 -7.47304 0
M  V30 29412 C 5081.58 -3.01133 -7.08783 0
M  V30 29413 C 5080.85 -4.12613 -6.37049 0
M  V30 29414 O 5080.64 -3.72827 -4.97879 0
M  V30 29415 C 5079.45 -4.45085 -6.88694 0
M  V30 29416 O 5079.06 -5.7877 -6.5624 0
M  V30 29417 C 5078.57 -3.47817 -6.12078 0
M  V30 29418 C 5079.28 -3.39414 -4.77697 0
M  V30 29419 N 5079.23 -2.04199 -4.15538 0
M  V30 29420 H 5082.07 -3.41248 -7.98759 0
M  V30 29421 H 5082.34 -2.57728 -6.42 0
M  V30 29422 H 5081.47 -5.02657 -6.42673 0
M  V30 29423 H 5078.82 -4.11708 -4.08956 0
M  V30 29424 H 5078.54 -2.49626 -6.61679 0
M  V30 29425 H 5077.55 -3.8662 -6.00862 0
M  V30 29426 H 5079.38 -4.29991 -7.97006 0
M  V30 29427 P 5077.51 -6.144 -6.45285 0
M  V30 29428 O 5077.29 -7.54673 -6.86199 0
M  V30 29429 O 5076.72 -5.12391 -7.179 0
M  V30 29430 O 5077.26 -5.99158 -4.88404 0
M  V30 29431 C 5078.2 -6.60234 -3.96415 0
M  V30 29432 C 5077.47 -7.08259 -2.72856 0
M  V30 29433 O 5077.26 -5.9427 -1.83651 0
M  V30 29434 C 5076.07 -7.64886 -2.9555 0
M  V30 29435 O 5075.68 -8.53963 -1.90717 0
M  V30 29436 C 5075.19 -6.4116 -2.90739 0
M  V30 29437 C 5075.9 -5.55375 -1.86963 0
M  V30 29438 N 5075.85 -4.09664 -2.15742 0
M  V30 29439 H 5078.69 -7.45574 -4.45629 0
M  V30 29440 H 5078.96 -5.86232 -3.67314 0
M  V30 29441 H 5078.09 -7.84412 -2.24479 0
M  V30 29442 P 5074.13 -8.7635 -1.60911 0
M  V30 29443 O 5073.91 -10.1388 -1.11561 0
M  V30 29444 O 5073.34 -8.36503 -2.79617 0
M  V30 29445 O 5073.88 -7.71806 -0.42951 0
M  V30 29446 C 5074.82 -7.67148 0.673689 0
M  V30 29447 C 5074.09 -7.33374 1.95559 0
M  V30 29448 O 5073.88 -5.88721 2.00726 0
M  V30 29449 C 5072.69 -7.92526 2.10483 0
M  V30 29450 O 5072.3 -8.02971 3.47653 0
M  V30 29451 C 5071.81 -6.89602 1.41652 0
M  V30 29452 C 5072.52 -5.59201 1.75185 0
M  V30 29453 N 5072.47 -4.58301 0.657969 0
M  V30 29454 H 5075.31 -8.65116 0.777161 0
M  V30 29455 H 5075.58 -6.9022 0.46725 0
M  V30 29456 H 5074.71 -7.66548 2.79458 0
M  V30 29457 H 5072.06 -5.16165 2.65183 0
M  V30 29458 H 5071.78 -7.06433 0.329384 0
M  V30 29459 H 5070.79 -6.90926 1.82021 0
M  V30 29460 H 5072.62 -8.90873 1.62657 0
M  V30 29461 P 5070.75 -8.03563 3.84925 0
M  V30 29462 O 5070.53 -8.85821 5.0569 0
M  V30 29463 O 5069.96 -8.41101 2.65469 0
M  V30 29464 O 5070.5 -6.4965 4.18908 0
M  V30 29465 C 5071.44 -5.81037 5.05421 0
M  V30 29466 C 5070.71 -4.78366 5.89277 0
M  V30 29467 O 5070.5 -3.58302 5.08433 0
M  V30 29468 C 5069.31 -5.17448 6.36119 0
M  V30 29469 O 5068.92 -4.45271 7.53232 0
M  V30 29470 C 5068.43 -4.74639 5.19936 0
M  V30 29471 C 5069.14 -3.49432 4.70418 0
M  V30 29472 N 5069.09 -3.31776 3.22945 0
M  V30 29473 H 5071.93 -6.54213 5.71376 0
M  V30 29474 H 5072.2 -5.30492 4.44033 0
M  V30 29475 H 5071.33 -4.55889 6.76652 0
M  V30 29476 P 5067.37 -4.23843 7.83734 0
M  V30 29477 O 5067.15 -4.19407 9.29784 0
M  V30 29478 O 5066.58 -5.24426 7.09156 0
M  V30 29479 O 5067.12 -2.7935 7.20758 0
M  V30 29480 C 5068.06 -1.7299 7.50419 0
M  V30 29481 C 5067.33 -0.406376 7.57911 0
M  V30 29482 O 5067.12 0.0897726 6.21935 0
M  V30 29483 C 5065.93 -0.447224 8.1878 0
M  V30 29484 O 5065.54 0.825065 8.71101 0
M  V30 29485 C 5065.05 -0.783801 6.99623 0
M  V30 29486 C 5065.76 -0.0619192 5.85967 0
M  V30 29487 N 5065.71 -0.7859 4.56281 0
M  V30 29488 H 5068.55 -1.93423 8.4679 0
M  V30 29489 H 5068.82 -1.68181 6.71046 0
M  V30 29490 H 5067.95 0.289041 8.15388 0
M  V30 29491 P 5063.99 1.17771 8.83182 0
M  V30 29492 O 5063.77 2.07206 9.98732 0
M  V30 29493 O 5063.2 -0.0743816 8.81969 0
M  V30 29494 O 5063.74 1.97652 7.47304 0
M  V30 29495 C 5064.68 3.01133 7.08783 0
M  V30 29496 C 5063.95 4.12613 6.37049 0
M  V30 29497 O 5063.74 3.72827 4.97879 0
M  V30 29498 C 5062.55 4.45085 6.88694 0
M  V30 29499 O 5062.16 5.7877 6.5624 0
M  V30 29500 C 5061.67 3.47817 6.12078 0
M  V30 29501 C 5062.38 3.39414 4.77697 0
M  V30 29502 N 5062.33 2.04615 4.15333 0
M  V30 29503 H 5065.17 3.41248 7.98759 0
M  V30 29504 H 5065.44 2.5837 6.41742 0
M  V30 29505 H 5064.57 5.02657 6.42673 0
M  V30 29506 P 5060.61 6.144 6.45285 0
M  V30 29507 O 5060.39 7.54673 6.86199 0
M  V30 29508 O 5059.82 5.12391 7.179 0
M  V30 29509 O 5060.36 5.99158 4.88404 0
M  V30 29510 C 5061.3 6.60234 3.96415 0
M  V30 29511 C 5060.57 7.08259 2.72856 0
M  V30 29512 O 5060.36 5.9427 1.83651 0
M  V30 29513 C 5059.17 7.64886 2.9555 0
M  V30 29514 O 5058.78 8.53963 1.90717 0
M  V30 29515 C 5058.29 6.4116 2.90739 0
M  V30 29516 C 5059 5.55375 1.86963 0
M  V30 29517 N 5058.95 4.09448 2.16152 0
M  V30 29518 H 5061.79 7.45574 4.45629 0
M  V30 29519 H 5062.06 5.85864 3.679 0
M  V30 29520 H 5061.19 7.84412 2.24479 0
M  V30 29521 H 5058.54 5.73457 0.888562 0
M  V30 29522 H 5058.26 5.90877 3.88583 0
M  V30 29523 H 5057.27 6.6596 2.58858 0
M  V30 29524 H 5059.1 8.16339 3.92049 0
M  V30 29525 P 5057.23 8.7635 1.60911 0
M  V30 29526 O 5057.01 10.1388 1.11561 0
M  V30 29527 O 5056.44 8.36503 2.79617 0
M  V30 29528 O 5056.98 7.71806 0.42951 0
M  V30 29529 C 5057.92 7.67148 -0.673689 0
M  V30 29530 C 5057.19 7.33374 -1.95559 0
M  V30 29531 O 5056.98 5.88721 -2.00726 0
M  V30 29532 C 5055.79 7.92526 -2.10483 0
M  V30 29533 O 5055.4 8.02971 -3.47653 0
M  V30 29534 C 5054.91 6.89602 -1.41652 0
M  V30 29535 C 5055.62 5.59201 -1.75185 0
M  V30 29536 N 5055.57 4.58301 -0.657969 0
M  V30 29537 H 5058.41 8.65116 -0.777161 0
M  V30 29538 H 5058.68 6.9022 -0.46725 0
M  V30 29539 H 5057.81 7.66548 -2.79458 0
M  V30 29540 H 5055.16 5.16165 -2.65183 0
M  V30 29541 H 5054.88 7.06433 -0.329384 0
M  V30 29542 H 5053.89 6.90926 -1.82021 0
M  V30 29543 H 5055.72 8.90873 -1.62657 0
M  V30 29544 P 5053.85 8.03563 -3.84925 0
M  V30 29545 O 5053.63 8.85821 -5.0569 0
M  V30 29546 O 5053.06 8.41101 -2.65469 0
M  V30 29547 O 5053.6 6.4965 -4.18908 0
M  V30 29548 C 5054.54 5.81037 -5.05421 0
M  V30 29549 C 5053.81 4.78366 -5.89277 0
M  V30 29550 O 5053.6 3.58302 -5.08433 0
M  V30 29551 C 5052.41 5.17448 -6.36119 0
M  V30 29552 O 5052.02 4.45271 -7.53232 0
M  V30 29553 C 5051.53 4.74639 -5.19936 0
M  V30 29554 C 5052.24 3.49432 -4.70418 0
M  V30 29555 N 5052.19 3.32099 -3.22613 0
M  V30 29556 H 5055.03 6.54213 -5.71376 0
M  V30 29557 H 5055.3 5.30936 -4.43503 0
M  V30 29558 H 5054.43 4.55889 -6.76652 0
M  V30 29559 H 5051.78 2.61715 -5.17932 0
M  V30 29560 H 5051.5 5.52155 -4.41878 0
M  V30 29561 H 5050.51 4.51981 -5.53374 0
M  V30 29562 H 5052.34 6.25124 -6.55234 0
M  V30 29563 P 5050.47 4.23843 -7.83734 0
M  V30 29564 O 5050.25 4.19407 -9.29784 0
M  V30 29565 O 5049.68 5.24426 -7.09156 0
M  V30 29566 O 5050.22 2.7935 -7.20758 0
M  V30 29567 C 5051.16 1.7299 -7.50419 0
M  V30 29568 C 5050.43 0.406376 -7.57911 0
M  V30 29569 O 5050.22 -0.0897726 -6.21935 0
M  V30 29570 C 5049.03 0.447224 -8.1878 0
M  V30 29571 O 5048.64 -0.825065 -8.71101 0
M  V30 29572 C 5048.15 0.783801 -6.99623 0
M  V30 29573 C 5048.86 0.0619192 -5.85967 0
M  V30 29574 N 5048.81 0.7859 -4.56281 0
M  V30 29575 H 5051.65 1.93423 -8.4679 0
M  V30 29576 H 5051.92 1.68181 -6.71046 0
M  V30 29577 H 5051.05 -0.289041 -8.15388 0
M  V30 29578 P 5047.09 -1.17771 -8.83182 0
M  V30 29579 O 5046.87 -2.07206 -9.98732 0
M  V30 29580 O 5046.3 0.0743816 -8.81969 0
M  V30 29581 O 5046.84 -1.97678 -7.474 0
M  V30 29582 C 5047.78 -3.01133 -7.08783 0
M  V30 29583 C 5047.05 -4.1203 -6.37546 0
M  V30 29584 O 5046.84 -3.72887 -4.9796 0
M  V30 29585 C 5045.65 -4.45085 -6.88694 0
M  V30 29586 O 5045.26 -5.78836 -6.56315 0
M  V30 29587 C 5044.77 -3.47817 -6.12078 0
M  V30 29588 C 5045.48 -3.39414 -4.77697 0
M  V30 29589 N 5045.43 -2.04615 -4.15333 0
M  V30 29590 C 5045.28 -1.96929 -2.77162 0
M  V30 29591 O 5045.19 -3.02017 -2.12006 0
M  V30 29592 N 5045.23 -0.55485 -2.24237 0
M  V30 29593 C 5045.33 0.367808 -2.9169 0
M  V30 29594 N 5045.28 1.53426 -2.29427 0
M  V30 29595 C 5045.48 0.319148 -4.33828 0
M  V30 29596 C 5045.53 -0.920672 -4.90433 0
M  V30 29597 H 5048.27 -3.41209 -7.98667 0
M  V30 29598 H 5048.54 -2.5837 -6.41742 0
M  V30 29599 H 5047.67 -5.02718 -6.42752 0
M  V30 29600 H 5045.02 -4.11779 -4.09026 0
M  V30 29601 H 5044.74 -2.49661 -6.61772 0
M  V30 29602 H 5043.75 -3.86674 -6.00946 0
M  V30 29603 H 5045.58 -4.29991 -7.97006 0
M  V30 29604 H 5045.65 -1.00589 -5.98303 0
M  V30 29605 H 5045.55 1.22639 -4.93799 0
M  V30 29606 H 5045.16 1.56819 -1.27167 0
M  V30 29607 H 5045.36 2.41062 -2.83063 0
M  V30 29608 P 5043.71 -6.144 -6.45285 0
M  V30 29609 O 5043.49 -7.54673 -6.86199 0
M  V30 29610 O 5042.92 -5.12391 -7.179 0
M  V30 29611 O 5043.46 -5.99158 -4.88404 0
M  V30 29612 C 5044.4 -6.60234 -3.96415 0
M  V30 29613 C 5043.67 -7.08259 -2.72856 0
M  V30 29614 O 5043.46 -5.9427 -1.83651 0
M  V30 29615 C 5042.27 -7.64886 -2.9555 0
M  V30 29616 O 5041.88 -8.53963 -1.90717 0
M  V30 29617 C 5041.39 -6.4116 -2.90739 0
M  V30 29618 C 5042.1 -5.55375 -1.86963 0
M  V30 29619 N 5042.05 -4.09448 -2.16152 0
M  V30 29620 H 5044.89 -7.45574 -4.45629 0
M  V30 29621 H 5045.16 -5.85864 -3.679 0
M  V30 29622 H 5044.29 -7.84412 -2.24479 0
M  V30 29623 H 5041.64 -5.73457 -0.888562 0
M  V30 29624 H 5041.36 -5.90877 -3.88583 0
M  V30 29625 H 5040.37 -6.6596 -2.58858 0
M  V30 29626 H 5042.2 -8.16339 -3.92049 0
M  V30 29627 P 5040.33 -8.7635 -1.60911 0
M  V30 29628 O 5040.11 -10.1388 -1.11561 0
M  V30 29629 O 5039.54 -8.36503 -2.79617 0
M  V30 29630 O 5040.08 -7.71806 -0.42951 0
M  V30 29631 C 5041.02 -7.67148 0.673689 0
M  V30 29632 C 5040.29 -7.33374 1.95559 0
M  V30 29633 O 5040.08 -5.88721 2.00726 0
M  V30 29634 C 5038.89 -7.92526 2.10483 0
M  V30 29635 O 5038.5 -8.02971 3.47653 0
M  V30 29636 C 5038.01 -6.89602 1.41652 0
M  V30 29637 C 5038.72 -5.59201 1.75185 0
M  V30 29638 N 5038.67 -4.58301 0.657969 0
M  V30 29639 H 5041.51 -8.65116 0.777161 0
M  V30 29640 H 5041.78 -6.9022 0.46725 0
M  V30 29641 H 5040.91 -7.66548 2.79458 0
M  V30 29642 H 5038.26 -5.16165 2.65183 0
M  V30 29643 H 5037.98 -7.06433 0.329384 0
M  V30 29644 H 5036.99 -6.90926 1.82021 0
M  V30 29645 H 5038.82 -8.90873 1.62657 0
M  V30 29646 P 5036.95 -8.03563 3.84925 0
M  V30 29647 O 5036.73 -8.85821 5.0569 0
M  V30 29648 O 5036.16 -8.41101 2.65469 0
M  V30 29649 O 5036.7 -6.4965 4.18908 0
M  V30 29650 C 5037.64 -5.81037 5.05421 0
M  V30 29651 C 5036.91 -4.78366 5.89277 0
M  V30 29652 O 5036.7 -3.58302 5.08433 0
M  V30 29653 C 5035.51 -5.17448 6.36119 0
M  V30 29654 O 5035.12 -4.45271 7.53232 0
M  V30 29655 C 5034.63 -4.74639 5.19936 0
M  V30 29656 C 5035.34 -3.49432 4.70418 0
M  V30 29657 N 5035.29 -3.32099 3.22613 0
M  V30 29658 H 5038.13 -6.54213 5.71376 0
M  V30 29659 H 5038.4 -5.30936 4.43503 0
M  V30 29660 H 5037.53 -4.55889 6.76652 0
M  V30 29661 H 5034.88 -2.61715 5.17932 0
M  V30 29662 H 5034.6 -5.52155 4.41878 0
M  V30 29663 H 5033.61 -4.51981 5.53374 0
M  V30 29664 H 5035.44 -6.25124 6.55234 0
M  V30 29665 P 5033.57 -4.23843 7.83734 0
M  V30 29666 O 5033.35 -4.19407 9.29784 0
M  V30 29667 O 5032.78 -5.24426 7.09156 0
M  V30 29668 O 5033.32 -2.7935 7.20758 0
M  V30 29669 C 5034.26 -1.7299 7.50419 0
M  V30 29670 C 5033.53 -0.406376 7.57911 0
M  V30 29671 O 5033.32 0.0897726 6.21935 0
M  V30 29672 C 5032.13 -0.447224 8.1878 0
M  V30 29673 O 5031.74 0.825065 8.71101 0
M  V30 29674 C 5031.25 -0.783801 6.99623 0
M  V30 29675 C 5031.96 -0.0619192 5.85967 0
M  V30 29676 N 5031.91 -0.790462 4.56202 0
M  V30 29677 H 5034.75 -1.93423 8.4679 0
M  V30 29678 H 5035.02 -1.68852 6.70877 0
M  V30 29679 H 5034.15 0.289041 8.15388 0
M  V30 29680 H 5031.5 0.927006 5.72848 0
M  V30 29681 H 5031.22 -1.86973 6.82036 0
M  V30 29682 H 5030.23 -0.403953 7.13357 0
M  V30 29683 H 5032.06 -1.20599 8.97534 0
M  V30 29684 P 5030.19 1.17771 8.83182 0
M  V30 29685 O 5029.97 2.07206 9.98732 0
M  V30 29686 O 5029.4 -0.0743816 8.81969 0
M  V30 29687 O 5029.94 1.97652 7.47304 0
M  V30 29688 C 5030.88 3.01133 7.08783 0
M  V30 29689 C 5030.15 4.12613 6.37049 0
M  V30 29690 O 5029.94 3.72827 4.97879 0
M  V30 29691 C 5028.75 4.45085 6.88694 0
M  V30 29692 O 5028.36 5.7877 6.5624 0
M  V30 29693 C 5027.87 3.47817 6.12078 0
M  V30 29694 C 5028.58 3.39414 4.77697 0
M  V30 29695 N 5028.53 2.04199 4.15538 0
M  V30 29696 H 5031.37 3.41248 7.98759 0
M  V30 29697 H 5031.64 2.57728 6.42 0
M  V30 29698 H 5030.77 5.02657 6.42673 0
M  V30 29699 H 5028.12 4.11708 4.08956 0
M  V30 29700 H 5027.84 2.49626 6.61679 0
M  V30 29701 H 5026.85 3.8662 6.00862 0
M  V30 29702 H 5028.68 4.29991 7.97006 0
M  V30 29703 P 5026.81 6.144 6.45285 0
M  V30 29704 O 5026.59 7.54673 6.86199 0
M  V30 29705 O 5026.02 5.12391 7.179 0
M  V30 29706 O 5026.56 5.99158 4.88404 0
M  V30 29707 C 5027.5 6.60234 3.96415 0
M  V30 29708 C 5026.77 7.08259 2.72856 0
M  V30 29709 O 5026.56 5.9427 1.83651 0
M  V30 29710 C 5025.37 7.64886 2.9555 0
M  V30 29711 O 5024.98 8.53963 1.90717 0
M  V30 29712 C 5024.49 6.4116 2.90739 0
M  V30 29713 C 5025.2 5.55375 1.86963 0
M  V30 29714 N 5025.15 4.09448 2.16152 0
M  V30 29715 C 5025.23 3.46824 3.37593 0
M  V30 29716 N 5025.16 2.17422 3.29777 0
M  V30 29717 C 5025.01 1.93065 1.94427 0
M  V30 29718 C 5024.88 0.738053 1.20141 0
M  V30 29719 N 5024.87 -0.474256 1.74676 0
M  V30 29720 N 5024.76 0.850049 -0.13045 0
M  V30 29721 C 5024.77 2.06169 -0.676992 0
M  V30 29722 N 5024.89 3.23842 -0.101312 0
M  V30 29723 C 5025.01 3.09402 1.23122 0
M  V30 29724 H 5027.99 7.45574 4.45629 0
M  V30 29725 H 5028.26 5.85864 3.679 0
M  V30 29726 H 5027.39 7.84412 2.24479 0
M  V30 29727 H 5024.74 5.73457 0.888562 0
M  V30 29728 H 5024.46 5.90877 3.88583 0
M  V30 29729 H 5023.47 6.6596 2.58858 0
M  V30 29730 H 5025.3 8.16339 3.92049 0
M  V30 29731 H 5025.34 4.00505 4.3174 0
M  V30 29732 H 5024.96 -0.581337 2.76658 0
M  V30 29733 H 5024.77 -1.30811 1.14888 0
M  V30 29734 H 5024.66 2.08295 -1.75542 0
M  V30 29735 P 5023.43 8.7635 1.60911 0
M  V30 29736 O 5023.21 10.1388 1.11561 0
M  V30 29737 O 5022.64 8.36503 2.79617 0
M  V30 29738 O 5023.18 7.71806 0.42951 0
M  V30 29739 C 5024.12 7.67148 -0.673689 0
M  V30 29740 C 5023.39 7.33374 -1.95559 0
M  V30 29741 O 5023.18 5.88721 -2.00726 0
M  V30 29742 C 5021.99 7.92526 -2.10483 0
M  V30 29743 O 5021.6 8.02971 -3.47653 0
M  V30 29744 C 5021.11 6.89602 -1.41652 0
M  V30 29745 C 5021.82 5.59201 -1.75185 0
M  V30 29746 N 5021.77 4.58235 -0.662552 0
M  V30 29747 H 5024.61 8.65116 -0.777161 0
M  V30 29748 H 5024.88 6.90173 -0.474152 0
M  V30 29749 H 5024.01 7.66548 -2.79458 0
M  V30 29750 P 5020.05 8.03563 -3.84925 0
M  V30 29751 O 5019.83 8.85821 -5.0569 0
M  V30 29752 O 5019.26 8.41101 -2.65469 0
M  V30 29753 O 5019.8 6.4965 -4.18908 0
M  V30 29754 C 5020.74 5.80886 -5.05289 0
M  V30 29755 C 5020.01 4.78366 -5.89277 0
M  V30 29756 O 5019.8 3.58302 -5.08433 0
M  V30 29757 C 5018.61 5.16748 -6.36559 0
M  V30 29758 O 5018.22 4.45271 -7.53232 0
M  V30 29759 C 5017.73 4.74572 -5.19863 0
M  V30 29760 C 5018.44 3.49373 -4.70338 0
M  V30 29761 N 5018.39 3.31704 -3.22876 0
M  V30 29762 C 5018.24 2.03326 -2.74871 0
M  V30 29763 O 5018.15 1.06486 -3.48076 0
M  V30 29764 N 5018.2 1.91838 -1.37456 0
M  V30 29765 C 5018.29 2.94295 -0.462035 0
M  V30 29766 O 5018.24 2.71763 0.752928 0
M  V30 29767 C 5018.44 4.25064 -1.05249 0
M  V30 29768 C 5018.55 5.39815 -0.095697 0
M  V30 29769 C 5018.49 4.40214 -2.39192 0
M  V30 29770 H 5021.23 6.54063 -5.71245 0
M  V30 29771 H 5021.5 5.30339 -4.43905 0
M  V30 29772 H 5020.63 4.55889 -6.76652 0
M  V30 29773 H 5017.98 2.6167 -5.17842 0
M  V30 29774 H 5017.7 5.52155 -4.41878 0
M  V30 29775 H 5016.71 4.51918 -5.53297 0
M  V30 29776 H 5018.54 6.25055 -6.55162 0
M  V30 29777 H 5018.61 5.39798 -2.81523 0
M  V30 29778 H 5017.58 5.91593 -0.0279582 0
M  V30 29779 H 5019.32 6.10038 -0.450573 0
M  V30 29780 H 5018.83 5.02007 0.89937 0
M  V30 29781 H 5018.1 0.995326 -1.00435 0
M  V30 29782 P 5016.67 4.23843 -7.83734 0
M  V30 29783 O 5016.45 4.19407 -9.29784 0
M  V30 29784 O 5015.88 5.24426 -7.09156 0
M  V30 29785 O 5016.42 2.7935 -7.20758 0
M  V30 29786 C 5017.36 1.7299 -7.50419 0
M  V30 29787 C 5016.63 0.406376 -7.57911 0
M  V30 29788 O 5016.42 -0.0897726 -6.21935 0
M  V30 29789 C 5015.23 0.447224 -8.1878 0
M  V30 29790 O 5014.84 -0.825065 -8.71101 0
M  V30 29791 C 5014.35 0.783801 -6.99623 0
M  V30 29792 C 5015.06 0.0619192 -5.85967 0
M  V30 29793 N 5015.01 0.790462 -4.56202 0
M  V30 29794 H 5017.85 1.93423 -8.4679 0
M  V30 29795 H 5018.12 1.68852 -6.70877 0
M  V30 29796 H 5017.25 -0.289041 -8.15388 0
M  V30 29797 H 5014.6 -0.927006 -5.72848 0
M  V30 29798 H 5014.32 1.86973 -6.82036 0
M  V30 29799 H 5013.33 0.403953 -7.13357 0
M  V30 29800 H 5015.16 1.20599 -8.97534 0
M  V30 29801 P 5013.29 -1.17771 -8.83182 0
M  V30 29802 O 5013.07 -2.07206 -9.98732 0
M  V30 29803 O 5012.5 0.0743816 -8.81969 0
M  V30 29804 O 5013.04 -1.97652 -7.47304 0
M  V30 29805 C 5013.98 -3.01133 -7.08783 0
M  V30 29806 C 5013.25 -4.12613 -6.37049 0
M  V30 29807 O 5013.04 -3.72827 -4.97879 0
M  V30 29808 C 5011.85 -4.45085 -6.88694 0
M  V30 29809 O 5011.46 -5.7877 -6.5624 0
M  V30 29810 C 5010.97 -3.47817 -6.12078 0
M  V30 29811 C 5011.68 -3.39414 -4.77697 0
M  V30 29812 N 5011.63 -2.04199 -4.15538 0
M  V30 29813 H 5014.47 -3.41248 -7.98759 0
M  V30 29814 H 5014.74 -2.57728 -6.42 0
M  V30 29815 H 5013.87 -5.02657 -6.42673 0
M  V30 29816 H 5011.22 -4.11708 -4.08956 0
M  V30 29817 H 5010.94 -2.49626 -6.61679 0
M  V30 29818 H 5009.95 -3.8662 -6.00862 0
M  V30 29819 H 5011.78 -4.29991 -7.97006 0
M  V30 29820 P 5009.91 -6.144 -6.45285 0
M  V30 29821 O 5009.69 -7.54673 -6.86199 0
M  V30 29822 O 5009.12 -5.12391 -7.179 0
M  V30 29823 O 5009.66 -5.99158 -4.88404 0
M  V30 29824 C 5010.6 -6.60234 -3.96415 0
M  V30 29825 C 5009.87 -7.08259 -2.72856 0
M  V30 29826 O 5009.66 -5.9427 -1.83651 0
M  V30 29827 C 5008.47 -7.64886 -2.9555 0
M  V30 29828 O 5008.08 -8.53963 -1.90717 0
M  V30 29829 C 5007.59 -6.4116 -2.90739 0
M  V30 29830 C 5008.3 -5.55375 -1.86963 0
M  V30 29831 N 5008.25 -4.09664 -2.15742 0
M  V30 29832 H 5011.09 -7.45574 -4.45629 0
M  V30 29833 H 5011.36 -5.86232 -3.67314 0
M  V30 29834 H 5010.49 -7.84412 -2.24479 0
M  V30 29835 P 5006.53 -8.7635 -1.60911 0
M  V30 29836 O 5006.31 -10.1388 -1.11561 0
M  V30 29837 O 5005.74 -8.36503 -2.79617 0
M  V30 29838 O 5006.28 -7.71806 -0.42951 0
M  V30 29839 C 5007.22 -7.67148 0.673689 0
M  V30 29840 C 5006.49 -7.33374 1.95559 0
M  V30 29841 O 5006.28 -5.88721 2.00726 0
M  V30 29842 C 5005.09 -7.92526 2.10483 0
M  V30 29843 O 5004.7 -8.02971 3.47653 0
M  V30 29844 C 5004.21 -6.89602 1.41652 0
M  V30 29845 C 5004.92 -5.59201 1.75185 0
M  V30 29846 N 5004.87 -4.58235 0.662552 0
M  V30 29847 H 5007.71 -8.65116 0.777161 0
M  V30 29848 H 5007.98 -6.90173 0.474152 0
M  V30 29849 H 5007.11 -7.66548 2.79458 0
M  V30 29850 P 5003.15 -8.03563 3.84925 0
M  V30 29851 O 5002.93 -8.85821 5.0569 0
M  V30 29852 O 5002.36 -8.41101 2.65469 0
M  V30 29853 O 5002.9 -6.4965 4.18908 0
M  V30 29854 C 5003.84 -5.81037 5.05421 0
M  V30 29855 C 5003.11 -4.78366 5.89277 0
M  V30 29856 O 5002.9 -3.58302 5.08433 0
M  V30 29857 C 5001.71 -5.17448 6.36119 0
M  V30 29858 O 5001.32 -4.45271 7.53232 0
M  V30 29859 C 5000.83 -4.74639 5.19936 0
M  V30 29860 C 5001.54 -3.49432 4.70418 0
M  V30 29861 N 5001.49 -3.32099 3.22613 0
M  V30 29862 H 5004.33 -6.54213 5.71376 0
M  V30 29863 H 5004.6 -5.30936 4.43503 0
M  V30 29864 H 5003.73 -4.55889 6.76652 0
M  V30 29865 H 5001.08 -2.61715 5.17932 0
M  V30 29866 H 5000.8 -5.52155 4.41878 0
M  V30 29867 H 4999.81 -4.51981 5.53374 0
M  V30 29868 H 5001.64 -6.25124 6.55234 0
M  V30 29869 P 4999.77 -4.23843 7.83734 0
M  V30 29870 O 4999.55 -4.19407 9.29784 0
M  V30 29871 O 4998.98 -5.24426 7.09156 0
M  V30 29872 O 4999.52 -2.7935 7.20758 0
M  V30 29873 C 5000.46 -1.7299 7.50419 0
M  V30 29874 C 4999.73 -0.406376 7.57911 0
M  V30 29875 O 4999.52 0.0897726 6.21935 0
M  V30 29876 C 4998.33 -0.447224 8.1878 0
M  V30 29877 O 4997.94 0.825065 8.71101 0
M  V30 29878 C 4997.45 -0.783801 6.99623 0
M  V30 29879 C 4998.16 -0.0619192 5.85967 0
M  V30 29880 N 4998.11 -0.7859 4.56281 0
M  V30 29881 H 5000.95 -1.93423 8.4679 0
M  V30 29882 H 5001.22 -1.68181 6.71046 0
M  V30 29883 H 5000.35 0.289041 8.15388 0
M  V30 29884 P 4996.39 1.17771 8.83182 0
M  V30 29885 O 4996.17 2.07206 9.98732 0
M  V30 29886 O 4995.6 -0.0743816 8.81969 0
M  V30 29887 O 4996.14 1.97652 7.47304 0
M  V30 29888 C 4997.08 3.01133 7.08783 0
M  V30 29889 C 4996.35 4.12613 6.37049 0
M  V30 29890 O 4996.14 3.72827 4.97879 0
M  V30 29891 C 4994.95 4.45085 6.88694 0
M  V30 29892 O 4994.56 5.7877 6.5624 0
M  V30 29893 C 4994.07 3.47817 6.12078 0
M  V30 29894 C 4994.78 3.39414 4.77697 0
M  V30 29895 N 4994.73 2.04615 4.15333 0
M  V30 29896 H 4997.57 3.41248 7.98759 0
M  V30 29897 H 4997.84 2.5837 6.41742 0
M  V30 29898 H 4996.97 5.02657 6.42673 0
M  V30 29899 P 4993.01 6.144 6.45285 0
M  V30 29900 O 4992.79 7.54673 6.86199 0
M  V30 29901 O 4992.22 5.12391 7.179 0
M  V30 29902 O 4992.76 5.99158 4.88404 0
M  V30 29903 C 4993.7 6.60234 3.96415 0
M  V30 29904 C 4992.97 7.08259 2.72856 0
M  V30 29905 O 4992.76 5.9427 1.83651 0
M  V30 29906 C 4991.57 7.64886 2.9555 0
M  V30 29907 O 4991.18 8.53963 1.90717 0
M  V30 29908 C 4990.69 6.4116 2.90739 0
M  V30 29909 C 4991.4 5.55375 1.86963 0
M  V30 29910 N 4991.35 4.09664 2.15742 0
M  V30 29911 H 4994.19 7.45574 4.45629 0
M  V30 29912 H 4994.46 5.86232 3.67314 0
M  V30 29913 H 4993.59 7.84412 2.24479 0
M  V30 29914 P 4989.63 8.7635 1.60911 0
M  V30 29915 O 4989.41 10.1388 1.11561 0
M  V30 29916 O 4988.84 8.36503 2.79617 0
M  V30 29917 O 4989.38 7.71806 0.42951 0
M  V30 29918 C 4990.32 7.67148 -0.673689 0
M  V30 29919 C 4989.59 7.33374 -1.95559 0
M  V30 29920 O 4989.38 5.88721 -2.00726 0
M  V30 29921 C 4988.19 7.92526 -2.10483 0
M  V30 29922 O 4987.8 8.02971 -3.47653 0
M  V30 29923 C 4987.31 6.89602 -1.41652 0
M  V30 29924 C 4988.02 5.59201 -1.75185 0
M  V30 29925 N 4987.97 4.58301 -0.657969 0
M  V30 29926 H 4990.81 8.65116 -0.777161 0
M  V30 29927 H 4991.08 6.9022 -0.46725 0
M  V30 29928 H 4990.21 7.66548 -2.79458 0
M  V30 29929 H 4987.56 5.16165 -2.65183 0
M  V30 29930 H 4987.28 7.06433 -0.329384 0
M  V30 29931 H 4986.29 6.90926 -1.82021 0
M  V30 29932 H 4988.12 8.90873 -1.62657 0
M  V30 29933 P 4986.25 8.03563 -3.84925 0
M  V30 29934 O 4986.03 8.85821 -5.0569 0
M  V30 29935 O 4985.46 8.41101 -2.65469 0
M  V30 29936 O 4986 6.4965 -4.18908 0
M  V30 29937 C 4986.94 5.81037 -5.05421 0
M  V30 29938 C 4986.21 4.78366 -5.89277 0
M  V30 29939 O 4986 3.58302 -5.08433 0
M  V30 29940 C 4984.81 5.17448 -6.36119 0
M  V30 29941 O 4984.42 4.45271 -7.53232 0
M  V30 29942 C 4983.93 4.74639 -5.19936 0
M  V30 29943 C 4984.64 3.49432 -4.70418 0
M  V30 29944 N 4984.59 3.32099 -3.22613 0
M  V30 29945 H 4987.43 6.54213 -5.71376 0
M  V30 29946 H 4987.7 5.30936 -4.43503 0
M  V30 29947 H 4986.83 4.55889 -6.76652 0
M  V30 29948 H 4984.18 2.61715 -5.17932 0
M  V30 29949 H 4983.9 5.52155 -4.41878 0
M  V30 29950 H 4982.91 4.51981 -5.53374 0
M  V30 29951 H 4984.74 6.25124 -6.55234 0
M  V30 29952 P 4982.87 4.23843 -7.83734 0
M  V30 29953 O 4982.65 4.19407 -9.29784 0
M  V30 29954 O 4982.08 5.24426 -7.09156 0
M  V30 29955 O 4982.62 2.7935 -7.20758 0
M  V30 29956 C 4983.56 1.7299 -7.50419 0
M  V30 29957 C 4982.83 0.406376 -7.57911 0
M  V30 29958 O 4982.62 -0.0897726 -6.21935 0
M  V30 29959 C 4981.43 0.447224 -8.1878 0
M  V30 29960 O 4981.04 -0.825065 -8.71101 0
M  V30 29961 C 4980.55 0.783801 -6.99623 0
M  V30 29962 C 4981.26 0.0619192 -5.85967 0
M  V30 29963 N 4981.21 0.790462 -4.56202 0
M  V30 29964 H 4984.05 1.93423 -8.4679 0
M  V30 29965 H 4984.32 1.68852 -6.70877 0
M  V30 29966 H 4983.45 -0.289041 -8.15388 0
M  V30 29967 H 4980.8 -0.927006 -5.72848 0
M  V30 29968 H 4980.52 1.86973 -6.82036 0
M  V30 29969 H 4979.53 0.403953 -7.13357 0
M  V30 29970 H 4981.36 1.20599 -8.97534 0
M  V30 29971 P 4979.49 -1.17771 -8.83182 0
M  V30 29972 O 4979.27 -2.07206 -9.98732 0
M  V30 29973 O 4978.7 0.0743816 -8.81969 0
M  V30 29974 O 4979.24 -1.97652 -7.47304 0
M  V30 29975 C 4980.18 -3.01133 -7.08783 0
M  V30 29976 C 4979.45 -4.12613 -6.37049 0
M  V30 29977 O 4979.24 -3.72827 -4.97879 0
M  V30 29978 C 4978.05 -4.45085 -6.88694 0
M  V30 29979 O 4977.66 -5.7877 -6.5624 0
M  V30 29980 C 4977.17 -3.47817 -6.12078 0
M  V30 29981 C 4977.88 -3.39414 -4.77697 0
M  V30 29982 N 4977.83 -2.04199 -4.15538 0
M  V30 29983 H 4980.67 -3.41248 -7.98759 0
M  V30 29984 H 4980.94 -2.57728 -6.42 0
M  V30 29985 H 4980.07 -5.02657 -6.42673 0
M  V30 29986 H 4977.42 -4.11708 -4.08956 0
M  V30 29987 H 4977.14 -2.49626 -6.61679 0
M  V30 29988 H 4976.15 -3.8662 -6.00862 0
M  V30 29989 H 4977.98 -4.29991 -7.97006 0
M  V30 29990 P 4976.11 -6.144 -6.45285 0
M  V30 29991 O 4975.89 -7.54673 -6.86199 0
M  V30 29992 O 4975.32 -5.12391 -7.179 0
M  V30 29993 O 4975.86 -5.99158 -4.88404 0
M  V30 29994 C 4976.8 -6.60234 -3.96415 0
M  V30 29995 C 4976.07 -7.08259 -2.72856 0
M  V30 29996 O 4975.86 -5.9427 -1.83651 0
M  V30 29997 C 4974.67 -7.64886 -2.9555 0
M  V30 29998 O 4974.28 -8.53963 -1.90717 0
M  V30 29999 C 4973.79 -6.4116 -2.90739 0
M  V30 30000 C 4974.5 -5.55375 -1.86963 0
M  V30 30001 N 4974.45 -4.09448 -2.16152 0
M  V30 30002 H 4977.29 -7.45574 -4.45629 0
M  V30 30003 H 4977.56 -5.85864 -3.679 0
M  V30 30004 H 4976.69 -7.84412 -2.24479 0
M  V30 30005 H 4974.04 -5.73457 -0.888562 0
M  V30 30006 H 4973.76 -5.90877 -3.88583 0
M  V30 30007 H 4972.77 -6.6596 -2.58858 0
M  V30 30008 H 4974.6 -8.16339 -3.92049 0
M  V30 30009 P 4972.73 -8.7635 -1.60911 0
M  V30 30010 O 4972.51 -10.1388 -1.11561 0
M  V30 30011 O 4971.94 -8.36503 -2.79617 0
M  V30 30012 O 4972.48 -7.71806 -0.42951 0
M  V30 30013 C 4973.42 -7.67148 0.673689 0
M  V30 30014 C 4972.69 -7.33374 1.95559 0
M  V30 30015 O 4972.48 -5.88721 2.00726 0
M  V30 30016 C 4971.29 -7.92526 2.10483 0
M  V30 30017 O 4970.9 -8.02971 3.47653 0
M  V30 30018 C 4970.41 -6.89602 1.41652 0
M  V30 30019 C 4971.12 -5.59201 1.75185 0
M  V30 30020 N 4971.07 -4.58301 0.657969 0
M  V30 30021 H 4973.91 -8.65116 0.777161 0
M  V30 30022 H 4974.18 -6.9022 0.46725 0
M  V30 30023 H 4973.31 -7.66548 2.79458 0
M  V30 30024 H 4970.66 -5.16165 2.65183 0
M  V30 30025 H 4970.38 -7.06433 0.329384 0
M  V30 30026 H 4969.39 -6.90926 1.82021 0
M  V30 30027 H 4971.22 -8.90873 1.62657 0
M  V30 30028 P 4969.35 -8.03563 3.84925 0
M  V30 30029 O 4969.13 -8.85821 5.0569 0
M  V30 30030 O 4968.56 -8.41101 2.65469 0
M  V30 30031 O 4969.1 -6.4965 4.18908 0
M  V30 30032 C 4970.04 -5.81037 5.05421 0
M  V30 30033 C 4969.31 -4.78366 5.89277 0
M  V30 30034 O 4969.1 -3.58302 5.08433 0
M  V30 30035 C 4967.91 -5.17448 6.36119 0
M  V30 30036 O 4967.52 -4.45271 7.53232 0
M  V30 30037 C 4967.03 -4.74639 5.19936 0
M  V30 30038 C 4967.74 -3.49432 4.70418 0
M  V30 30039 N 4967.69 -3.32099 3.22613 0
M  V30 30040 C 4967.77 -4.28245 2.25527 0
M  V30 30041 N 4967.7 -3.80823 1.04874 0
M  V30 30042 C 4967.55 -2.44571 1.23535 0
M  V30 30043 C 4967.42 -1.37068 0.330675 0
M  V30 30044 N 4967.41 -1.51472 -0.990824 0
M  V30 30045 N 4967.3 -0.138614 0.848756 0
M  V30 30046 C 4967.31 0.00675923 2.16999 0
M  V30 30047 N 4967.43 -0.904372 3.11122 0
M  V30 30048 C 4967.55 -2.12707 2.56212 0
M  V30 30049 H 4970.53 -6.54213 5.71376 0
M  V30 30050 H 4970.8 -5.30936 4.43503 0
M  V30 30051 H 4969.93 -4.55889 6.76652 0
M  V30 30052 H 4967.28 -2.61715 5.17932 0
M  V30 30053 H 4967 -5.52155 4.41878 0
M  V30 30054 H 4966.01 -4.51981 5.53374 0
M  V30 30055 H 4967.84 -6.25124 6.55234 0
M  V30 30056 H 4967.88 -5.34372 2.47488 0
M  V30 30057 H 4967.5 -2.45153 -1.4078 0
M  V30 30058 H 4967.31 -0.688422 -1.59911 0
M  V30 30059 H 4967.2 1.02584 2.52346 0
M  V30 30060 P 4965.97 -4.23843 7.83734 0
M  V30 30061 O 4965.75 -4.19407 9.29784 0
M  V30 30062 O 4965.18 -5.24426 7.09156 0
M  V30 30063 O 4965.72 -2.7935 7.20758 0
M  V30 30064 C 4966.66 -1.7299 7.50419 0
M  V30 30065 C 4965.93 -0.406376 7.57911 0
M  V30 30066 O 4965.72 0.0897726 6.21935 0
M  V30 30067 C 4964.53 -0.447224 8.1878 0
M  V30 30068 O 4964.14 0.825065 8.71101 0
M  V30 30069 C 4963.65 -0.783801 6.99623 0
M  V30 30070 C 4964.36 -0.0619192 5.85967 0
M  V30 30071 N 4964.31 -0.790462 4.56202 0
M  V30 30072 H 4967.15 -1.93423 8.4679 0
M  V30 30073 H 4967.42 -1.68852 6.70877 0
M  V30 30074 H 4966.55 0.289041 8.15388 0
M  V30 30075 H 4963.9 0.927006 5.72848 0
M  V30 30076 H 4963.62 -1.86973 6.82036 0
M  V30 30077 H 4962.63 -0.403953 7.13357 0
M  V30 30078 H 4964.46 -1.20599 8.97534 0
M  V30 30079 P 4962.59 1.17771 8.83182 0
M  V30 30080 O 4962.37 2.07206 9.98732 0
M  V30 30081 O 4961.8 -0.0743816 8.81969 0
M  V30 30082 O 4962.34 1.97652 7.47304 0
M  V30 30083 C 4963.28 3.01133 7.08783 0
M  V30 30084 C 4962.55 4.12613 6.37049 0
M  V30 30085 O 4962.34 3.72827 4.97879 0
M  V30 30086 C 4961.15 4.45085 6.88694 0
M  V30 30087 O 4960.76 5.7877 6.5624 0
M  V30 30088 C 4960.27 3.47817 6.12078 0
M  V30 30089 C 4960.98 3.39414 4.77697 0
M  V30 30090 N 4960.93 2.04615 4.15333 0
M  V30 30091 H 4963.77 3.41248 7.98759 0
M  V30 30092 H 4964.04 2.5837 6.41742 0
M  V30 30093 H 4963.17 5.02657 6.42673 0
M  V30 30094 P 4959.21 6.144 6.45285 0
M  V30 30095 O 4958.99 7.54673 6.86199 0
M  V30 30096 O 4958.42 5.12391 7.179 0
M  V30 30097 O 4958.96 5.99158 4.88404 0
M  V30 30098 C 4959.9 6.60234 3.96415 0
M  V30 30099 C 4959.17 7.08259 2.72856 0
M  V30 30100 O 4958.96 5.9427 1.83651 0
M  V30 30101 C 4957.77 7.64886 2.9555 0
M  V30 30102 O 4957.38 8.53963 1.90717 0
M  V30 30103 C 4956.89 6.4116 2.90739 0
M  V30 30104 C 4957.6 5.55375 1.86963 0
M  V30 30105 N 4957.55 4.09448 2.16152 0
M  V30 30106 H 4960.39 7.45574 4.45629 0
M  V30 30107 H 4960.66 5.85864 3.679 0
M  V30 30108 H 4959.79 7.84412 2.24479 0
M  V30 30109 H 4957.14 5.73457 0.888562 0
M  V30 30110 H 4956.86 5.90877 3.88583 0
M  V30 30111 H 4955.87 6.6596 2.58858 0
M  V30 30112 H 4957.7 8.16339 3.92049 0
M  V30 30113 P 4955.83 8.7635 1.60911 0
M  V30 30114 O 4955.61 10.1388 1.11561 0
M  V30 30115 O 4955.04 8.36503 2.79617 0
M  V30 30116 O 4955.58 7.71806 0.42951 0
M  V30 30117 C 4956.52 7.66948 -0.673514 0
M  V30 30118 C 4955.79 7.33374 -1.95559 0
M  V30 30119 O 4955.58 5.88721 -2.00726 0
M  V30 30120 C 4954.39 7.92218 -2.1125 0
M  V30 30121 O 4954 8.02971 -3.47653 0
M  V30 30122 C 4953.51 6.89504 -1.41631 0
M  V30 30123 C 4954.22 5.59106 -1.75155 0
M  V30 30124 N 4954.17 4.58136 -0.662409 0
M  V30 30125 C 4954.02 3.26059 -1.02863 0
M  V30 30126 O 4953.93 2.90743 -2.19009 0
M  V30 30127 N 4953.98 2.35995 0.0155585 0
M  V30 30128 C 4954.07 2.65248 1.35603 0
M  V30 30129 C 4954.22 4.05747 1.64698 0
M  V30 30130 C 4954.27 4.96734 0.652411 0
M  V30 30131 H 4957.01 8.64917 -0.776982 0
M  V30 30132 H 4957.28 6.89974 -0.474015 0
M  V30 30133 H 4956.41 7.66548 -2.79458 0
M  V30 30134 H 4953.76 5.16076 -2.65138 0
M  V30 30135 H 4953.48 7.06433 -0.329384 0
M  V30 30136 H 4952.49 6.90829 -1.81996 0
M  V30 30137 H 4954.32 8.90774 -1.62639 0
M  V30 30138 H 4954.39 6.02181 0.895285 0
M  V30 30139 P 4952.45 8.03563 -3.84925 0
M  V30 30140 O 4952.23 8.85821 -5.0569 0
M  V30 30141 O 4951.66 8.41101 -2.65469 0
M  V30 30142 O 4952.2 6.4965 -4.18908 0
M  V30 30143 C 4953.14 5.81037 -5.05421 0
M  V30 30144 C 4952.41 4.78366 -5.89277 0
M  V30 30145 O 4952.2 3.58302 -5.08433 0
M  V30 30146 C 4951.01 5.17448 -6.36119 0
M  V30 30147 O 4950.62 4.45271 -7.53232 0
M  V30 30148 C 4950.13 4.74639 -5.19936 0
M  V30 30149 C 4950.84 3.49432 -4.70418 0
M  V30 30150 N 4950.79 3.32099 -3.22613 0
M  V30 30151 H 4953.63 6.54213 -5.71376 0
M  V30 30152 H 4953.9 5.30936 -4.43503 0
M  V30 30153 H 4953.03 4.55889 -6.76652 0
M  V30 30154 H 4950.38 2.61715 -5.17932 0
M  V30 30155 H 4950.1 5.52155 -4.41878 0
M  V30 30156 H 4949.11 4.51981 -5.53374 0
M  V30 30157 H 4950.94 6.25124 -6.55234 0
M  V30 30158 P 4949.07 4.23843 -7.83734 0
M  V30 30159 O 4948.85 4.19407 -9.29784 0
M  V30 30160 O 4948.28 5.24426 -7.09156 0
M  V30 30161 O 4948.82 2.7935 -7.20758 0
M  V30 30162 C 4949.76 1.72945 -7.50224 0
M  V30 30163 C 4949.03 0.406376 -7.57911 0
M  V30 30164 O 4948.82 -0.0897726 -6.21935 0
M  V30 30165 C 4947.63 0.438983 -8.18724 0
M  V30 30166 O 4947.24 -0.825065 -8.71101 0
M  V30 30167 C 4946.75 0.783689 -6.99524 0
M  V30 30168 C 4947.46 0.0619086 -5.85867 0
M  V30 30169 N 4947.41 0.78573 -4.56183 0
M  V30 30170 C 4947.26 0.0292889 -3.41887 0
M  V30 30171 O 4947.17 -1.18445 -3.4419 0
M  V30 30172 N 4947.22 0.744061 -2.23964 0
M  V30 30173 C 4947.31 2.10932 -2.10362 0
M  V30 30174 C 4947.46 2.8202 -3.34994 0
M  V30 30175 C 4947.51 2.15547 -4.52261 0
M  V30 30176 H 4950.25 1.93379 -8.46595 0
M  V30 30177 H 4950.52 1.68132 -6.70852 0
M  V30 30178 H 4949.65 -0.289041 -8.15388 0
M  V30 30179 H 4947 -0.926847 -5.72749 0
M  V30 30180 H 4946.72 1.86973 -6.82036 0
M  V30 30181 H 4945.73 0.403896 -7.13257 0
M  V30 30182 H 4947.56 1.20585 -8.97435 0
M  V30 30183 H 4947.63 2.71231 -5.45042 0
M  V30 30184 P 4945.69 -1.17771 -8.83182 0
M  V30 30185 O 4945.47 -2.07206 -9.98732 0
M  V30 30186 O 4944.9 0.0743816 -8.81969 0
M  V30 30187 O 4945.44 -1.97652 -7.47304 0
M  V30 30188 C 4946.38 -3.01055 -7.08599 0
M  V30 30189 C 4945.65 -4.12613 -6.37049 0
M  V30 30190 O 4945.44 -3.72827 -4.97879 0
M  V30 30191 C 4944.25 -4.45719 -6.88164 0
M  V30 30192 O 4943.86 -5.7877 -6.5624 0
M  V30 30193 C 4943.37 -3.47768 -6.11991 0
M  V30 30194 C 4944.08 -3.39356 -4.77615 0
M  V30 30195 N 4944.03 -2.04571 -4.15244 0
M  V30 30196 C 4943.88 -1.98587 -2.78314 0
M  V30 30197 O 4943.79 -2.98134 -2.08835 0
M  V30 30198 N 4943.84 -0.714467 -2.24925 0
M  V30 30199 C 4943.93 0.470001 -2.94169 0
M  V30 30200 C 4944.08 0.312541 -4.36783 0
M  V30 30201 C 4944.13 -0.914512 -4.92583 0
M  V30 30202 H 4946.87 -3.41169 -7.98575 0
M  V30 30203 H 4947.14 -2.58295 -6.41556 0
M  V30 30204 H 4946.27 -5.02657 -6.42673 0
M  V30 30205 H 4943.62 -4.11637 -4.08885 0
M  V30 30206 H 4943.34 -2.49626 -6.61679 0
M  V30 30207 H 4942.35 -3.86566 -6.00778 0
M  V30 30208 H 4944.18 -4.29943 -7.96918 0
M  V30 30209 H 4944.25 -1.00937 -6.00374 0
M  V30 30210 P 4942.31 -6.144 -6.45285 0
M  V30 30211 O 4942.09 -7.54673 -6.86199 0
M  V30 30212 O 4941.52 -5.12391 -7.179 0
M  V30 30213 O 4942.06 -5.99158 -4.88404 0
M  V30 30214 C 4943 -6.60234 -3.96415 0
M  V30 30215 C 4942.27 -7.08259 -2.72856 0
M  V30 30216 O 4942.06 -5.9427 -1.83651 0
M  V30 30217 C 4940.87 -7.64886 -2.9555 0
M  V30 30218 O 4940.48 -8.53963 -1.90717 0
M  V30 30219 C 4939.99 -6.4116 -2.90739 0
M  V30 30220 C 4940.7 -5.55375 -1.86963 0
M  V30 30221 N 4940.65 -4.09664 -2.15742 0
M  V30 30222 H 4943.49 -7.45574 -4.45629 0
M  V30 30223 H 4943.76 -5.86232 -3.67314 0
M  V30 30224 H 4942.89 -7.84412 -2.24479 0
M  V30 30225 P 4938.93 -8.7635 -1.60911 0
M  V30 30226 O 4938.71 -10.1388 -1.11561 0
M  V30 30227 O 4938.14 -8.36503 -2.79617 0
M  V30 30228 O 4938.68 -7.71806 -0.42951 0
M  V30 30229 C 4939.62 -7.67148 0.673689 0
M  V30 30230 C 4938.89 -7.33374 1.95559 0
M  V30 30231 O 4938.68 -5.88721 2.00726 0
M  V30 30232 C 4937.49 -7.92526 2.10483 0
M  V30 30233 O 4937.1 -8.02971 3.47653 0
M  V30 30234 C 4936.61 -6.89602 1.41652 0
M  V30 30235 C 4937.32 -5.59201 1.75185 0
M  V30 30236 N 4937.27 -4.58301 0.657969 0
M  V30 30237 H 4940.11 -8.65116 0.777161 0
M  V30 30238 H 4940.38 -6.9022 0.46725 0
M  V30 30239 H 4939.51 -7.66548 2.79458 0
M  V30 30240 H 4936.86 -5.16165 2.65183 0
M  V30 30241 H 4936.58 -7.06433 0.329384 0
M  V30 30242 H 4935.59 -6.90926 1.82021 0
M  V30 30243 H 4937.42 -8.90873 1.62657 0
M  V30 30244 P 4935.55 -8.03563 3.84925 0
M  V30 30245 O 4935.33 -8.85821 5.0569 0
M  V30 30246 O 4934.76 -8.41101 2.65469 0
M  V30 30247 O 4935.3 -6.4965 4.18908 0
M  V30 30248 C 4936.24 -5.81037 5.05421 0
M  V30 30249 C 4935.51 -4.78366 5.89277 0
M  V30 30250 O 4935.3 -3.58302 5.08433 0
M  V30 30251 C 4934.11 -5.17448 6.36119 0
M  V30 30252 O 4933.72 -4.45271 7.53232 0
M  V30 30253 C 4933.23 -4.74639 5.19936 0
M  V30 30254 C 4933.94 -3.49432 4.70418 0
M  V30 30255 N 4933.89 -3.32099 3.22613 0
M  V30 30256 C 4933.97 -4.28245 2.25527 0
M  V30 30257 N 4933.9 -3.80823 1.04874 0
M  V30 30258 C 4933.75 -2.44571 1.23535 0
M  V30 30259 C 4933.62 -1.37068 0.330675 0
M  V30 30260 N 4933.61 -1.51472 -0.990824 0
M  V30 30261 N 4933.5 -0.138614 0.848756 0
M  V30 30262 C 4933.51 0.00675923 2.16999 0
M  V30 30263 N 4933.63 -0.904372 3.11122 0
M  V30 30264 C 4933.75 -2.12707 2.56212 0
M  V30 30265 H 4936.73 -6.54213 5.71376 0
M  V30 30266 H 4937 -5.30936 4.43503 0
M  V30 30267 H 4936.13 -4.55889 6.76652 0
M  V30 30268 H 4933.48 -2.61715 5.17932 0
M  V30 30269 H 4933.2 -5.52155 4.41878 0
M  V30 30270 H 4932.21 -4.51981 5.53374 0
M  V30 30271 H 4934.04 -6.25124 6.55234 0
M  V30 30272 H 4934.08 -5.34372 2.47488 0
M  V30 30273 H 4933.7 -2.45153 -1.4078 0
M  V30 30274 H 4933.51 -0.688422 -1.59911 0
M  V30 30275 H 4933.4 1.02584 2.52346 0
M  V30 30276 P 4932.17 -4.23843 7.83734 0
M  V30 30277 O 4931.95 -4.19407 9.29784 0
M  V30 30278 O 4931.38 -5.24426 7.09156 0
M  V30 30279 O 4931.92 -2.7935 7.20758 0
M  V30 30280 C 4932.86 -1.7299 7.50419 0
M  V30 30281 C 4932.13 -0.406376 7.57911 0
M  V30 30282 O 4931.92 0.0897726 6.21935 0
M  V30 30283 C 4930.73 -0.447224 8.1878 0
M  V30 30284 O 4930.34 0.825065 8.71101 0
M  V30 30285 C 4929.85 -0.783801 6.99623 0
M  V30 30286 C 4930.56 -0.0619192 5.85967 0
M  V30 30287 N 4930.51 -0.790462 4.56202 0
M  V30 30288 H 4933.35 -1.93423 8.4679 0
M  V30 30289 H 4933.62 -1.68852 6.70877 0
M  V30 30290 H 4932.75 0.289041 8.15388 0
M  V30 30291 H 4930.1 0.927006 5.72848 0
M  V30 30292 H 4929.82 -1.86973 6.82036 0
M  V30 30293 H 4928.83 -0.403953 7.13357 0
M  V30 30294 H 4930.66 -1.20599 8.97534 0
M  V30 30295 P 4928.79 1.17771 8.83182 0
M  V30 30296 O 4928.57 2.07206 9.98732 0
M  V30 30297 O 4928 -0.0743816 8.81969 0
M  V30 30298 O 4928.54 1.97652 7.47304 0
M  V30 30299 C 4929.48 3.01055 7.08599 0
M  V30 30300 C 4928.75 4.12613 6.37049 0
M  V30 30301 O 4928.54 3.72827 4.97879 0
M  V30 30302 C 4927.35 4.45719 6.88164 0
M  V30 30303 O 4926.96 5.7877 6.5624 0
M  V30 30304 C 4926.47 3.47768 6.11991 0
M  V30 30305 C 4927.18 3.39356 4.77615 0
M  V30 30306 N 4927.13 2.04571 4.15244 0
M  V30 30307 C 4926.98 1.98587 2.78314 0
M  V30 30308 O 4926.89 2.98134 2.08835 0
M  V30 30309 N 4926.94 0.714467 2.24925 0
M  V30 30310 C 4927.03 -0.470001 2.94169 0
M  V30 30311 O 4926.98 -1.55587 2.35195 0
M  V30 30312 C 4927.18 -0.312541 4.36783 0
M  V30 30313 C 4927.29 -1.57711 5.16352 0
M  V30 30314 C 4927.23 0.914512 4.92583 0
M  V30 30315 H 4929.97 3.41169 7.98575 0
M  V30 30316 H 4930.24 2.58295 6.41556 0
M  V30 30317 H 4929.37 5.02657 6.42673 0
M  V30 30318 H 4926.72 4.11637 4.08885 0
M  V30 30319 H 4926.44 2.49626 6.61679 0
M  V30 30320 H 4925.45 3.86566 6.00778 0
M  V30 30321 H 4927.28 4.29943 7.96918 0
M  V30 30322 H 4927.35 1.00937 6.00374 0
M  V30 30323 H 4926.32 -1.80153 5.63503 0
M  V30 30324 H 4928.06 -1.4566 5.94104 0
M  V30 30325 H 4927.57 -2.40664 4.49645 0
M  V30 30326 H 4926.84 0.647622 1.25697 0
M  V30 30327 P 4925.41 6.144 6.45285 0
M  V30 30328 O 4925.19 7.54673 6.86199 0
M  V30 30329 O 4924.62 5.12391 7.179 0
M  V30 30330 O 4925.16 5.99158 4.88404 0
M  V30 30331 C 4926.1 6.60234 3.96415 0
M  V30 30332 C 4925.37 7.08259 2.72856 0
M  V30 30333 O 4925.16 5.9427 1.83651 0
M  V30 30334 C 4923.97 7.64886 2.9555 0
M  V30 30335 O 4923.58 8.53963 1.90717 0
M  V30 30336 C 4923.09 6.4116 2.90739 0
M  V30 30337 C 4923.8 5.55375 1.86963 0
M  V30 30338 N 4923.75 4.09664 2.15742 0
M  V30 30339 H 4926.59 7.45574 4.45629 0
M  V30 30340 H 4926.86 5.86232 3.67314 0
M  V30 30341 H 4925.99 7.84412 2.24479 0
M  V30 30342 P 4922.03 8.7635 1.60911 0
M  V30 30343 O 4921.81 10.1388 1.11561 0
M  V30 30344 O 4921.24 8.36503 2.79617 0
M  V30 30345 O 4921.78 7.71806 0.42951 0
M  V30 30346 C 4922.72 7.67148 -0.673689 0
M  V30 30347 C 4921.99 7.33374 -1.95559 0
M  V30 30348 O 4921.78 5.88721 -2.00726 0
M  V30 30349 C 4920.59 7.92526 -2.10483 0
M  V30 30350 O 4920.2 8.02971 -3.47653 0
M  V30 30351 C 4919.71 6.89602 -1.41652 0
M  V30 30352 C 4920.42 5.59201 -1.75185 0
M  V30 30353 N 4920.37 4.58301 -0.657969 0
M  V30 30354 H 4923.21 8.65116 -0.777161 0
M  V30 30355 H 4923.48 6.9022 -0.46725 0
M  V30 30356 H 4922.61 7.66548 -2.79458 0
M  V30 30357 H 4919.96 5.16165 -2.65183 0
M  V30 30358 H 4919.68 7.06433 -0.329384 0
M  V30 30359 H 4918.69 6.90926 -1.82021 0
M  V30 30360 H 4920.52 8.90873 -1.62657 0
M  V30 30361 P 4918.65 8.03563 -3.84925 0
M  V30 30362 O 4918.43 8.85821 -5.0569 0
M  V30 30363 O 4917.86 8.41101 -2.65469 0
M  V30 30364 O 4918.4 6.4965 -4.18908 0
M  V30 30365 C 4919.34 5.81037 -5.05421 0
M  V30 30366 C 4918.61 4.78366 -5.89277 0
M  V30 30367 O 4918.4 3.58302 -5.08433 0
M  V30 30368 C 4917.21 5.17448 -6.36119 0
M  V30 30369 O 4916.82 4.45271 -7.53232 0
M  V30 30370 C 4916.33 4.74639 -5.19936 0
M  V30 30371 C 4917.04 3.49432 -4.70418 0
M  V30 30372 N 4916.99 3.31776 -3.22945 0
M  V30 30373 H 4919.83 6.54213 -5.71376 0
M  V30 30374 H 4920.1 5.30492 -4.44033 0
M  V30 30375 H 4919.23 4.55889 -6.76652 0
M  V30 30376 P 4915.27 4.23843 -7.83734 0
M  V30 30377 O 4915.05 4.19407 -9.29784 0
M  V30 30378 O 4914.48 5.24426 -7.09156 0
M  V30 30379 O 4915.02 2.7935 -7.20758 0
M  V30 30380 C 4915.96 1.7299 -7.50419 0
M  V30 30381 C 4915.23 0.406376 -7.57911 0
M  V30 30382 O 4915.02 -0.0897726 -6.21935 0
M  V30 30383 C 4913.83 0.447224 -8.1878 0
M  V30 30384 O 4913.44 -0.825065 -8.71101 0
M  V30 30385 C 4912.95 0.783801 -6.99623 0
M  V30 30386 C 4913.66 0.0619192 -5.85967 0
M  V30 30387 N 4913.61 0.790462 -4.56202 0
M  V30 30388 H 4916.45 1.93423 -8.4679 0
M  V30 30389 H 4916.72 1.68852 -6.70877 0
M  V30 30390 H 4915.85 -0.289041 -8.15388 0
M  V30 30391 H 4913.2 -0.927006 -5.72848 0
M  V30 30392 H 4912.92 1.86973 -6.82036 0
M  V30 30393 H 4911.93 0.403953 -7.13357 0
M  V30 30394 H 4913.76 1.20599 -8.97534 0
M  V30 30395 P 4911.89 -1.17771 -8.83182 0
M  V30 30396 O 4911.67 -2.07206 -9.98732 0
M  V30 30397 O 4911.1 0.0743816 -8.81969 0
M  V30 30398 O 4911.64 -1.97652 -7.47304 0
M  V30 30399 C 4912.58 -3.01133 -7.08783 0
M  V30 30400 C 4911.85 -4.12613 -6.37049 0
M  V30 30401 O 4911.64 -3.72827 -4.97879 0
M  V30 30402 C 4910.45 -4.45085 -6.88694 0
M  V30 30403 O 4910.06 -5.7877 -6.5624 0
M  V30 30404 C 4909.57 -3.47817 -6.12078 0
M  V30 30405 C 4910.28 -3.39414 -4.77697 0
M  V30 30406 N 4910.23 -2.04615 -4.15333 0
M  V30 30407 H 4913.07 -3.41248 -7.98759 0
M  V30 30408 H 4913.34 -2.5837 -6.41742 0
M  V30 30409 H 4912.47 -5.02657 -6.42673 0
M  V30 30410 P 4908.51 -6.144 -6.45285 0
M  V30 30411 O 4908.29 -7.54673 -6.86199 0
M  V30 30412 O 4907.72 -5.12391 -7.179 0
M  V30 30413 O 4908.26 -5.99158 -4.88404 0
M  V30 30414 C 4909.2 -6.60234 -3.96415 0
M  V30 30415 C 4908.47 -7.08259 -2.72856 0
M  V30 30416 O 4908.26 -5.9427 -1.83651 0
M  V30 30417 C 4907.07 -7.64886 -2.9555 0
M  V30 30418 O 4906.68 -8.53963 -1.90717 0
M  V30 30419 C 4906.19 -6.4116 -2.90739 0
M  V30 30420 C 4906.9 -5.55375 -1.86963 0
M  V30 30421 N 4906.85 -4.09448 -2.16152 0
M  V30 30422 H 4909.69 -7.45574 -4.45629 0
M  V30 30423 H 4909.96 -5.85864 -3.679 0
M  V30 30424 H 4909.09 -7.84412 -2.24479 0
M  V30 30425 H 4906.44 -5.73457 -0.888562 0
M  V30 30426 H 4906.16 -5.90877 -3.88583 0
M  V30 30427 H 4905.17 -6.6596 -2.58858 0
M  V30 30428 H 4907 -8.16339 -3.92049 0
M  V30 30429 P 4905.13 -8.7635 -1.60911 0
M  V30 30430 O 4904.91 -10.1388 -1.11561 0
M  V30 30431 O 4904.34 -8.36503 -2.79617 0
M  V30 30432 O 4904.88 -7.71806 -0.42951 0
M  V30 30433 C 4905.82 -7.67148 0.673689 0
M  V30 30434 C 4905.09 -7.33374 1.95559 0
M  V30 30435 O 4904.88 -5.88721 2.00726 0
M  V30 30436 C 4903.69 -7.92526 2.10483 0
M  V30 30437 O 4903.3 -8.02971 3.47653 0
M  V30 30438 C 4902.81 -6.89602 1.41652 0
M  V30 30439 C 4903.52 -5.59201 1.75185 0
M  V30 30440 N 4903.47 -4.58235 0.662552 0
M  V30 30441 H 4906.31 -8.65116 0.777161 0
M  V30 30442 H 4906.58 -6.90173 0.474152 0
M  V30 30443 H 4905.71 -7.66548 2.79458 0
M  V30 30444 P 4901.75 -8.03563 3.84925 0
M  V30 30445 O 4901.53 -8.85821 5.0569 0
M  V30 30446 O 4900.96 -8.41101 2.65469 0
M  V30 30447 O 4901.5 -6.49734 4.18962 0
M  V30 30448 C 4902.44 -5.81037 5.05421 0
M  V30 30449 C 4901.71 -4.79018 5.88876 0
M  V30 30450 O 4901.5 -3.58359 5.08515 0
M  V30 30451 C 4900.31 -5.17448 6.36119 0
M  V30 30452 O 4899.92 -4.45322 7.53318 0
M  V30 30453 C 4899.43 -4.74639 5.19936 0
M  V30 30454 C 4900.14 -3.49432 4.70418 0
M  V30 30455 N 4900.09 -3.31776 3.22945 0
M  V30 30456 C 4899.94 -2.02742 2.72939 0
M  V30 30457 O 4899.85 -1.08301 3.52749 0
M  V30 30458 N 4899.89 -1.96117 1.22063 0
M  V30 30459 C 4899.99 -2.8878 0.551566 0
M  V30 30460 N 4899.94 -2.65609 -0.750198 0
M  V30 30461 C 4900.14 -4.22457 1.03707 0
M  V30 30462 C 4900.19 -4.37979 2.39113 0
M  V30 30463 H 4902.93 -6.54138 5.7131 0
M  V30 30464 H 4903.2 -5.30492 4.44033 0
M  V30 30465 H 4902.33 -4.55945 6.76735 0
M  V30 30466 H 4899.68 -2.6176 5.18021 0
M  V30 30467 H 4899.4 -5.52233 4.41941 0
M  V30 30468 H 4898.41 -4.52045 5.53452 0
M  V30 30469 H 4900.24 -6.25124 6.55234 0
M  V30 30470 H 4900.31 -5.37936 2.80552 0
M  V30 30471 H 4900.21 -5.07528 0.359553 0
M  V30 30472 H 4899.82 -1.69403 -1.09847 0
M  V30 30473 H 4900.02 -3.43701 -1.41792 0
M  V30 30474 P 4898.37 -4.23843 7.83734 0
M  V30 30475 O 4898.15 -4.19407 9.29784 0
M  V30 30476 O 4897.58 -5.24426 7.09156 0
M  V30 30477 O 4898.12 -2.7935 7.20758 0
M  V30 30478 C 4899.06 -1.7299 7.50419 0
M  V30 30479 C 4898.33 -0.406376 7.57911 0
M  V30 30480 O 4898.12 0.0897726 6.21935 0
M  V30 30481 C 4896.93 -0.447224 8.1878 0
M  V30 30482 O 4896.54 0.825065 8.71101 0
M  V30 30483 C 4896.05 -0.783801 6.99623 0
M  V30 30484 C 4896.76 -0.0619192 5.85967 0
M  V30 30485 N 4896.71 -0.790462 4.56202 0
M  V30 30486 H 4899.55 -1.93423 8.4679 0
M  V30 30487 H 4899.82 -1.68852 6.70877 0
M  V30 30488 H 4898.95 0.289041 8.15388 0
M  V30 30489 H 4896.3 0.927006 5.72848 0
M  V30 30490 H 4896.02 -1.86973 6.82036 0
M  V30 30491 H 4895.03 -0.403953 7.13357 0
M  V30 30492 H 4896.86 -1.20599 8.97534 0
M  V30 30493 P 4894.99 1.17771 8.83182 0
M  V30 30494 O 4894.77 2.07206 9.98732 0
M  V30 30495 O 4894.2 -0.0743816 8.81969 0
M  V30 30496 O 4894.74 1.97652 7.47304 0
M  V30 30497 C 4895.68 3.01133 7.08783 0
M  V30 30498 C 4894.95 4.12613 6.37049 0
M  V30 30499 O 4894.74 3.72827 4.97879 0
M  V30 30500 C 4893.55 4.45085 6.88694 0
M  V30 30501 O 4893.16 5.7877 6.5624 0
M  V30 30502 C 4892.67 3.47817 6.12078 0
M  V30 30503 C 4893.38 3.39414 4.77697 0
M  V30 30504 N 4893.33 2.04615 4.15333 0
M  V30 30505 H 4896.17 3.41248 7.98759 0
M  V30 30506 H 4896.44 2.5837 6.41742 0
M  V30 30507 H 4895.57 5.02657 6.42673 0
M  V30 30508 P 4891.61 6.144 6.45285 0
M  V30 30509 O 4891.39 7.54673 6.86199 0
M  V30 30510 O 4890.82 5.12391 7.179 0
M  V30 30511 O 4891.36 5.99158 4.88404 0
M  V30 30512 C 4892.3 6.60234 3.96415 0
M  V30 30513 C 4891.57 7.08259 2.72856 0
M  V30 30514 O 4891.36 5.9427 1.83651 0
M  V30 30515 C 4890.17 7.64886 2.9555 0
M  V30 30516 O 4889.78 8.53963 1.90717 0
M  V30 30517 C 4889.29 6.4116 2.90739 0
M  V30 30518 C 4890 5.55375 1.86963 0
M  V30 30519 N 4889.95 4.09664 2.15742 0
M  V30 30520 H 4892.79 7.45574 4.45629 0
M  V30 30521 H 4893.06 5.86232 3.67314 0
M  V30 30522 H 4892.19 7.84412 2.24479 0
M  V30 30523 P 4888.23 8.7635 1.60911 0
M  V30 30524 O 4888.01 10.1388 1.11561 0
M  V30 30525 O 4887.44 8.36503 2.79617 0
M  V30 30526 O 4887.98 7.71806 0.42951 0
M  V30 30527 C 4888.92 7.66948 -0.673514 0
M  V30 30528 C 4888.19 7.33374 -1.95559 0
M  V30 30529 O 4887.98 5.88721 -2.00726 0
M  V30 30530 C 4886.79 7.92218 -2.1125 0
M  V30 30531 O 4886.4 8.02971 -3.47653 0
M  V30 30532 C 4885.91 6.89504 -1.41631 0
M  V30 30533 C 4886.62 5.59106 -1.75155 0
M  V30 30534 N 4886.57 4.58136 -0.662409 0
M  V30 30535 C 4886.42 3.26059 -1.02863 0
M  V30 30536 O 4886.33 2.90743 -2.19009 0
M  V30 30537 N 4886.38 2.35995 0.0155585 0
M  V30 30538 C 4886.47 2.65248 1.35603 0
M  V30 30539 O 4886.42 1.75605 2.20651 0
M  V30 30540 C 4886.62 4.05747 1.64698 0
M  V30 30541 C 4886.73 4.42345 3.09553 0
M  V30 30542 C 4886.67 4.96734 0.652411 0
M  V30 30543 H 4889.41 8.64917 -0.776982 0
M  V30 30544 H 4889.68 6.89974 -0.474015 0
M  V30 30545 H 4888.81 7.66548 -2.79458 0
M  V30 30546 H 4886.16 5.16076 -2.65138 0
M  V30 30547 H 4885.88 7.06433 -0.329384 0
M  V30 30548 H 4884.89 6.90829 -1.81996 0
M  V30 30549 H 4886.72 8.90774 -1.62639 0
M  V30 30550 H 4886.79 6.02181 0.895285 0
M  V30 30551 H 4885.76 4.80252 3.45468 0
M  V30 30552 H 4887.5 5.20015 3.22119 0
M  V30 30553 H 4887.01 3.53269 3.67833 0
M  V30 30554 H 4886.28 1.39558 -0.227499 0
M  V30 30555 P 4884.85 8.03563 -3.84925 0
M  V30 30556 O 4884.63 8.85821 -5.0569 0
M  V30 30557 O 4884.06 8.41101 -2.65469 0
M  V30 30558 O 4884.6 6.4965 -4.18908 0
M  V30 30559 C 4885.54 5.81037 -5.05421 0
M  V30 30560 C 4884.81 4.78366 -5.89277 0
M  V30 30561 O 4884.6 3.58302 -5.08433 0
M  V30 30562 C 4883.41 5.17448 -6.36119 0
M  V30 30563 O 4883.02 4.45271 -7.53232 0
M  V30 30564 C 4882.53 4.74639 -5.19936 0
M  V30 30565 C 4883.24 3.49432 -4.70418 0
M  V30 30566 N 4883.19 3.31776 -3.22945 0
M  V30 30567 H 4886.03 6.54213 -5.71376 0
M  V30 30568 H 4886.3 5.30492 -4.44033 0
M  V30 30569 H 4885.43 4.55889 -6.76652 0
M  V30 30570 P 4881.47 4.23843 -7.83734 0
M  V30 30571 O 4881.25 4.19407 -9.29784 0
M  V30 30572 O 4880.68 5.24426 -7.09156 0
M  V30 30573 O 4881.22 2.7935 -7.20758 0
M  V30 30574 C 4882.16 1.7299 -7.50419 0
M  V30 30575 C 4881.43 0.406376 -7.57911 0
M  V30 30576 O 4881.22 -0.0897726 -6.21935 0
M  V30 30577 C 4880.03 0.447224 -8.1878 0
M  V30 30578 O 4879.64 -0.825065 -8.71101 0
M  V30 30579 C 4879.15 0.783801 -6.99623 0
M  V30 30580 C 4879.86 0.0619192 -5.85967 0
M  V30 30581 N 4879.81 0.790462 -4.56202 0
M  V30 30582 H 4882.65 1.93423 -8.4679 0
M  V30 30583 H 4882.92 1.68852 -6.70877 0
M  V30 30584 H 4882.05 -0.289041 -8.15388 0
M  V30 30585 H 4879.4 -0.927006 -5.72848 0
M  V30 30586 H 4879.12 1.86973 -6.82036 0
M  V30 30587 H 4878.13 0.403953 -7.13357 0
M  V30 30588 H 4879.96 1.20599 -8.97534 0
M  V30 30589 P 4878.09 -1.17771 -8.83182 0
M  V30 30590 O 4877.87 -2.07206 -9.98732 0
M  V30 30591 O 4877.3 0.0743816 -8.81969 0
M  V30 30592 O 4877.84 -1.97652 -7.47304 0
M  V30 30593 C 4878.78 -3.01055 -7.08599 0
M  V30 30594 C 4878.05 -4.12613 -6.37049 0
M  V30 30595 O 4877.84 -3.72827 -4.97879 0
M  V30 30596 C 4876.65 -4.45719 -6.88164 0
M  V30 30597 O 4876.26 -5.7877 -6.5624 0
M  V30 30598 C 4875.77 -3.47768 -6.11991 0
M  V30 30599 C 4876.48 -3.39356 -4.77615 0
M  V30 30600 N 4876.43 -2.04571 -4.15244 0
M  V30 30601 C 4876.28 -1.98587 -2.78314 0
M  V30 30602 O 4876.19 -2.98134 -2.08835 0
M  V30 30603 N 4876.24 -0.714467 -2.24925 0
M  V30 30604 C 4876.33 0.470001 -2.94169 0
M  V30 30605 C 4876.48 0.312541 -4.36783 0
M  V30 30606 C 4876.53 -0.914512 -4.92583 0
M  V30 30607 H 4879.27 -3.41169 -7.98575 0
M  V30 30608 H 4879.54 -2.58295 -6.41556 0
M  V30 30609 H 4878.67 -5.02657 -6.42673 0
M  V30 30610 H 4876.02 -4.11637 -4.08885 0
M  V30 30611 H 4875.74 -2.49626 -6.61679 0
M  V30 30612 H 4874.75 -3.86566 -6.00778 0
M  V30 30613 H 4876.58 -4.29943 -7.96918 0
M  V30 30614 H 4876.65 -1.00937 -6.00374 0
M  V30 30615 P 4874.71 -6.144 -6.45285 0
M  V30 30616 O 4874.49 -7.54673 -6.86199 0
M  V30 30617 O 4873.92 -5.12391 -7.179 0
M  V30 30618 O 4874.46 -5.99158 -4.88404 0
M  V30 30619 C 4875.4 -6.60234 -3.96415 0
M  V30 30620 C 4874.67 -7.08259 -2.72856 0
M  V30 30621 O 4874.46 -5.9427 -1.83651 0
M  V30 30622 C 4873.27 -7.64886 -2.9555 0
M  V30 30623 O 4872.88 -8.53963 -1.90717 0
M  V30 30624 C 4872.39 -6.4116 -2.90739 0
M  V30 30625 C 4873.1 -5.55375 -1.86963 0
M  V30 30626 N 4873.05 -4.09448 -2.16152 0
M  V30 30627 H 4875.89 -7.45574 -4.45629 0
M  V30 30628 H 4876.16 -5.85864 -3.679 0
M  V30 30629 H 4875.29 -7.84412 -2.24479 0
M  V30 30630 H 4872.64 -5.73457 -0.888562 0
M  V30 30631 H 4872.36 -5.90877 -3.88583 0
M  V30 30632 H 4871.37 -6.6596 -2.58858 0
M  V30 30633 H 4873.2 -8.16339 -3.92049 0
M  V30 30634 P 4871.33 -8.7635 -1.60911 0
M  V30 30635 O 4871.11 -10.1388 -1.11561 0
M  V30 30636 O 4870.54 -8.36503 -2.79617 0
M  V30 30637 O 4871.08 -7.71806 -0.42951 0
M  V30 30638 C 4872.02 -7.67148 0.673689 0
M  V30 30639 C 4871.29 -7.33374 1.95559 0
M  V30 30640 O 4871.08 -5.88721 2.00726 0
M  V30 30641 C 4869.89 -7.92526 2.10483 0
M  V30 30642 O 4869.5 -8.02971 3.47653 0
M  V30 30643 C 4869.01 -6.89602 1.41652 0
M  V30 30644 C 4869.72 -5.59201 1.75185 0
M  V30 30645 N 4869.67 -4.58301 0.657969 0
M  V30 30646 C 4869.75 -4.79019 -0.692603 0
M  V30 30647 N 4869.68 -3.69736 -1.38998 0
M  V30 30648 C 4869.53 -2.70474 -0.438135 0
M  V30 30649 C 4869.4 -1.30327 -0.538142 0
M  V30 30650 N 4869.39 -0.64304 -1.69192 0
M  V30 30651 N 4869.28 -0.611027 0.605183 0
M  V30 30652 C 4869.29 -1.27002 1.75953 0
M  V30 30653 N 4869.41 -2.56038 1.98546 0
M  V30 30654 C 4869.53 -3.22681 0.822541 0
M  V30 30655 H 4872.51 -8.65116 0.777161 0
M  V30 30656 H 4872.78 -6.9022 0.46725 0
M  V30 30657 H 4871.91 -7.66548 2.79458 0
M  V30 30658 H 4869.26 -5.16165 2.65183 0
M  V30 30659 H 4868.98 -7.06433 0.329384 0
M  V30 30660 H 4867.99 -6.90926 1.82021 0
M  V30 30661 H 4869.82 -8.90873 1.62657 0
M  V30 30662 H 4869.86 -5.77785 -1.13874 0
M  V30 30663 H 4869.48 -1.15585 -2.57991 0
M  V30 30664 H 4869.29 0.382989 -1.69835 0
M  V30 30665 H 4869.19 -0.653331 2.64449 0
M  V30 30666 P 4867.95 -8.03563 3.84925 0
M  V30 30667 O 4867.73 -8.85821 5.0569 0
M  V30 30668 O 4867.16 -8.41101 2.65469 0
M  V30 30669 O 4867.7 -6.49734 4.18962 0
M  V30 30670 C 4868.64 -5.81037 5.05421 0
M  V30 30671 C 4867.91 -4.79018 5.88876 0
M  V30 30672 O 4867.7 -3.58359 5.08515 0
M  V30 30673 C 4866.51 -5.17448 6.36119 0
M  V30 30674 O 4866.12 -4.45322 7.53318 0
M  V30 30675 C 4865.63 -4.74639 5.19936 0
M  V30 30676 C 4866.34 -3.49432 4.70418 0
M  V30 30677 N 4866.29 -3.31776 3.22945 0
M  V30 30678 C 4866.14 -2.02742 2.72939 0
M  V30 30679 O 4866.05 -1.08301 3.52749 0
M  V30 30680 N 4866.09 -1.96117 1.22063 0
M  V30 30681 C 4866.19 -2.8878 0.551566 0
M  V30 30682 N 4866.14 -2.65609 -0.750198 0
M  V30 30683 C 4866.34 -4.22457 1.03707 0
M  V30 30684 C 4866.39 -4.37979 2.39113 0
M  V30 30685 H 4869.13 -6.54138 5.7131 0
M  V30 30686 H 4869.4 -5.30492 4.44033 0
M  V30 30687 H 4868.53 -4.55945 6.76735 0
M  V30 30688 H 4865.88 -2.6176 5.18021 0
M  V30 30689 H 4865.6 -5.52233 4.41941 0
M  V30 30690 H 4864.61 -4.52045 5.53452 0
M  V30 30691 H 4866.44 -6.25124 6.55234 0
M  V30 30692 H 4866.51 -5.37936 2.80552 0
M  V30 30693 H 4866.41 -5.07528 0.359553 0
M  V30 30694 H 4866.02 -1.69403 -1.09847 0
M  V30 30695 H 4866.22 -3.43701 -1.41792 0
M  V30 30696 P 4864.57 -4.23843 7.83734 0
M  V30 30697 O 4864.35 -4.19407 9.29784 0
M  V30 30698 O 4863.78 -5.24426 7.09156 0
M  V30 30699 O 4864.32 -2.7935 7.20758 0
M  V30 30700 C 4865.26 -1.7299 7.50419 0
M  V30 30701 C 4864.53 -0.406376 7.57911 0
M  V30 30702 O 4864.32 0.0897726 6.21935 0
M  V30 30703 C 4863.13 -0.447224 8.1878 0
M  V30 30704 O 4862.74 0.825065 8.71101 0
M  V30 30705 C 4862.25 -0.783801 6.99623 0
M  V30 30706 C 4862.96 -0.0619192 5.85967 0
M  V30 30707 N 4862.91 -0.790462 4.56202 0
M  V30 30708 H 4865.75 -1.93423 8.4679 0
M  V30 30709 H 4866.02 -1.68852 6.70877 0
M  V30 30710 H 4865.15 0.289041 8.15388 0
M  V30 30711 H 4862.5 0.927006 5.72848 0
M  V30 30712 H 4862.22 -1.86973 6.82036 0
M  V30 30713 H 4861.23 -0.403953 7.13357 0
M  V30 30714 H 4863.06 -1.20599 8.97534 0
M  V30 30715 P 4861.19 1.17771 8.83182 0
M  V30 30716 O 4860.97 2.07206 9.98732 0
M  V30 30717 O 4860.4 -0.0743816 8.81969 0
M  V30 30718 O 4860.94 1.97652 7.47304 0
M  V30 30719 C 4861.88 3.01133 7.08783 0
M  V30 30720 C 4861.15 4.12613 6.37049 0
M  V30 30721 O 4860.94 3.72827 4.97879 0
M  V30 30722 C 4859.75 4.45085 6.88694 0
M  V30 30723 O 4859.36 5.7877 6.5624 0
M  V30 30724 C 4858.87 3.47817 6.12078 0
M  V30 30725 C 4859.58 3.39414 4.77697 0
M  V30 30726 N 4859.53 2.04615 4.15333 0
M  V30 30727 H 4862.37 3.41248 7.98759 0
M  V30 30728 H 4862.64 2.5837 6.41742 0
M  V30 30729 H 4861.77 5.02657 6.42673 0
M  V30 30730 P 4857.81 6.144 6.45285 0
M  V30 30731 O 4857.59 7.54673 6.86199 0
M  V30 30732 O 4857.02 5.12391 7.179 0
M  V30 30733 O 4857.56 5.99158 4.88404 0
M  V30 30734 C 4858.5 6.60062 3.96313 0
M  V30 30735 C 4857.77 7.08259 2.72856 0
M  V30 30736 O 4857.56 5.9427 1.83651 0
M  V30 30737 C 4856.37 7.65087 2.94749 0
M  V30 30738 O 4855.98 8.53963 1.90717 0
M  V30 30739 C 4855.49 6.41069 2.90698 0
M  V30 30740 C 4856.2 5.5528 1.86931 0
M  V30 30741 N 4856.15 4.09575 2.15696 0
M  V30 30742 C 4856 3.24249 1.08435 0
M  V30 30743 O 4855.91 3.63946 -0.0628747 0
M  V30 30744 N 4855.96 1.90009 1.39973 0
M  V30 30745 C 4856.05 1.34884 2.65614 0
M  V30 30746 O 4856 0.123716 2.81728 0
M  V30 30747 C 4856.2 2.3145 3.71736 0
M  V30 30748 C 4856.31 1.75913 5.10438 0
M  V30 30749 C 4856.25 3.63518 3.44754 0
M  V30 30750 H 4858.99 7.45402 4.45526 0
M  V30 30751 H 4859.26 5.86062 3.67208 0
M  V30 30752 H 4858.39 7.84412 2.24479 0
M  V30 30753 H 4855.74 5.73358 0.888409 0
M  V30 30754 H 4855.46 5.90877 3.88583 0
M  V30 30755 H 4854.47 6.65867 2.58821 0
M  V30 30756 H 4856.3 8.16248 3.92006 0
M  V30 30757 H 4856.37 4.34551 4.26383 0
M  V30 30758 H 4855.34 1.85471 5.61775 0
M  V30 30759 H 4857.08 2.31364 5.66257 0
M  V30 30760 H 4856.59 0.695936 5.05229 0
M  V30 30761 H 4855.86 1.26277 0.63625 0
M  V30 30762 P 4854.43 8.7635 1.60911 0
M  V30 30763 O 4854.21 10.1388 1.11561 0
M  V30 30764 O 4853.64 8.36503 2.79617 0
M  V30 30765 O 4854.18 7.71806 0.42951 0
M  V30 30766 C 4855.12 7.66948 -0.673514 0
M  V30 30767 C 4854.39 7.33374 -1.95559 0
M  V30 30768 O 4854.18 5.88721 -2.00726 0
M  V30 30769 C 4852.99 7.92218 -2.1125 0
M  V30 30770 O 4852.6 8.02971 -3.47653 0
M  V30 30771 C 4852.11 6.89504 -1.41631 0
M  V30 30772 C 4852.82 5.59106 -1.75155 0
M  V30 30773 N 4852.77 4.58136 -0.662409 0
M  V30 30774 C 4852.62 3.26059 -1.02863 0
M  V30 30775 O 4852.53 2.90743 -2.19009 0
M  V30 30776 N 4852.58 2.35995 0.0155585 0
M  V30 30777 C 4852.67 2.65248 1.35603 0
M  V30 30778 O 4852.62 1.75605 2.20651 0
M  V30 30779 C 4852.82 4.05747 1.64698 0
M  V30 30780 C 4852.93 4.42345 3.09553 0
M  V30 30781 C 4852.87 4.96734 0.652411 0
M  V30 30782 H 4855.61 8.64917 -0.776982 0
M  V30 30783 H 4855.88 6.89974 -0.474015 0
M  V30 30784 H 4855.01 7.66548 -2.79458 0
M  V30 30785 H 4852.36 5.16076 -2.65138 0
M  V30 30786 H 4852.08 7.06433 -0.329384 0
M  V30 30787 H 4851.09 6.90829 -1.81996 0
M  V30 30788 H 4852.92 8.90774 -1.62639 0
M  V30 30789 H 4852.99 6.02181 0.895285 0
M  V30 30790 H 4851.96 4.80252 3.45468 0
M  V30 30791 H 4853.7 5.20015 3.22119 0
M  V30 30792 H 4853.21 3.53269 3.67833 0
M  V30 30793 H 4852.48 1.39558 -0.227499 0
M  V30 30794 P 4851.05 8.03563 -3.84925 0
M  V30 30795 O 4850.83 8.85821 -5.0569 0
M  V30 30796 O 4850.26 8.41101 -2.65469 0
M  V30 30797 O 4850.8 6.4965 -4.18908 0
M  V30 30798 C 4851.74 5.80886 -5.05289 0
M  V30 30799 C 4851.01 4.78366 -5.89277 0
M  V30 30800 O 4850.8 3.58302 -5.08433 0
M  V30 30801 C 4849.61 5.16748 -6.36559 0
M  V30 30802 O 4849.22 4.45271 -7.53232 0
M  V30 30803 C 4848.73 4.74572 -5.19863 0
M  V30 30804 C 4849.44 3.49373 -4.70338 0
M  V30 30805 N 4849.39 3.31704 -3.22876 0
M  V30 30806 C 4849.24 2.03326 -2.74871 0
M  V30 30807 O 4849.15 1.06486 -3.48076 0
M  V30 30808 N 4849.2 1.91838 -1.37456 0
M  V30 30809 C 4849.29 2.94295 -0.462035 0
M  V30 30810 C 4849.44 4.25064 -1.05249 0
M  V30 30811 C 4849.49 4.40214 -2.39192 0
M  V30 30812 H 4852.23 6.54063 -5.71245 0
M  V30 30813 H 4852.5 5.30339 -4.43905 0
M  V30 30814 H 4851.63 4.55889 -6.76652 0
M  V30 30815 H 4848.98 2.6167 -5.17842 0
M  V30 30816 H 4848.7 5.52155 -4.41878 0
M  V30 30817 H 4847.71 4.51918 -5.53297 0
M  V30 30818 H 4849.54 6.25055 -6.55162 0
M  V30 30819 H 4849.61 5.39798 -2.81523 0
M  V30 30820 P 4847.67 4.23843 -7.83734 0
M  V30 30821 O 4847.45 4.19407 -9.29784 0
M  V30 30822 O 4846.88 5.24426 -7.09156 0
M  V30 30823 O 4847.42 2.7935 -7.20758 0
M  V30 30824 C 4848.36 1.7299 -7.50419 0
M  V30 30825 C 4847.63 0.406376 -7.57911 0
M  V30 30826 O 4847.42 -0.0897726 -6.21935 0
M  V30 30827 C 4846.23 0.447224 -8.1878 0
M  V30 30828 O 4845.84 -0.825065 -8.71101 0
M  V30 30829 C 4845.35 0.783801 -6.99623 0
M  V30 30830 C 4846.06 0.0619192 -5.85967 0
M  V30 30831 N 4846.01 0.790462 -4.56202 0
M  V30 30832 H 4848.85 1.93423 -8.4679 0
M  V30 30833 H 4849.12 1.68852 -6.70877 0
M  V30 30834 H 4848.25 -0.289041 -8.15388 0
M  V30 30835 H 4845.6 -0.927006 -5.72848 0
M  V30 30836 H 4845.32 1.86973 -6.82036 0
M  V30 30837 H 4844.33 0.403953 -7.13357 0
M  V30 30838 H 4846.16 1.20599 -8.97534 0
M  V30 30839 P 4844.29 -1.17771 -8.83182 0
M  V30 30840 O 4844.07 -2.07206 -9.98732 0
M  V30 30841 O 4843.5 0.0743816 -8.81969 0
M  V30 30842 O 4844.04 -1.97652 -7.47304 0
M  V30 30843 C 4844.98 -3.01133 -7.08783 0
M  V30 30844 C 4844.25 -4.12613 -6.37049 0
M  V30 30845 O 4844.04 -3.72827 -4.97879 0
M  V30 30846 C 4842.85 -4.45085 -6.88694 0
M  V30 30847 O 4842.46 -5.7877 -6.5624 0
M  V30 30848 C 4841.97 -3.47817 -6.12078 0
M  V30 30849 C 4842.68 -3.39414 -4.77697 0
M  V30 30850 N 4842.63 -2.04199 -4.15538 0
M  V30 30851 H 4845.47 -3.41248 -7.98759 0
M  V30 30852 H 4845.74 -2.57728 -6.42 0
M  V30 30853 H 4844.87 -5.02657 -6.42673 0
M  V30 30854 H 4842.22 -4.11708 -4.08956 0
M  V30 30855 H 4841.94 -2.49626 -6.61679 0
M  V30 30856 H 4840.95 -3.8662 -6.00862 0
M  V30 30857 H 4842.78 -4.29991 -7.97006 0
M  V30 30858 P 4840.91 -6.144 -6.45285 0
M  V30 30859 O 4840.69 -7.54673 -6.86199 0
M  V30 30860 O 4840.12 -5.12391 -7.179 0
M  V30 30861 O 4840.66 -5.99158 -4.88404 0
M  V30 30862 C 4841.6 -6.60062 -3.96313 0
M  V30 30863 C 4840.87 -7.08259 -2.72856 0
M  V30 30864 O 4840.66 -5.9427 -1.83651 0
M  V30 30865 C 4839.47 -7.65087 -2.94749 0
M  V30 30866 O 4839.08 -8.53963 -1.90717 0
M  V30 30867 C 4838.59 -6.41069 -2.90698 0
M  V30 30868 C 4839.3 -5.5528 -1.86931 0
M  V30 30869 N 4839.25 -4.09575 -2.15696 0
M  V30 30870 C 4839.1 -3.24249 -1.08435 0
M  V30 30871 O 4839.01 -3.63946 0.0628747 0
M  V30 30872 N 4839.06 -1.90009 -1.39973 0
M  V30 30873 C 4839.15 -1.34884 -2.65614 0
M  V30 30874 O 4839.1 -0.123716 -2.81728 0
M  V30 30875 C 4839.3 -2.3145 -3.71736 0
M  V30 30876 C 4839.41 -1.75913 -5.10438 0
M  V30 30877 C 4839.35 -3.63518 -3.44754 0
M  V30 30878 H 4842.09 -7.45402 -4.45526 0
M  V30 30879 H 4842.36 -5.86062 -3.67208 0
M  V30 30880 H 4841.49 -7.84412 -2.24479 0
M  V30 30881 H 4838.84 -5.73358 -0.888409 0
M  V30 30882 H 4838.56 -5.90877 -3.88583 0
M  V30 30883 H 4837.57 -6.65867 -2.58821 0
M  V30 30884 H 4839.4 -8.16248 -3.92006 0
M  V30 30885 H 4839.47 -4.34551 -4.26383 0
M  V30 30886 H 4838.44 -1.85471 -5.61775 0
M  V30 30887 H 4840.18 -2.31364 -5.66257 0
M  V30 30888 H 4839.69 -0.695936 -5.05229 0
M  V30 30889 H 4838.96 -1.26277 -0.63625 0
M  V30 30890 P 4837.53 -8.7635 -1.60911 0
M  V30 30891 O 4837.31 -10.1388 -1.11561 0
M  V30 30892 O 4836.74 -8.36503 -2.79617 0
M  V30 30893 O 4837.28 -7.71906 -0.429565 0
M  V30 30894 C 4838.22 -7.67148 0.673689 0
M  V30 30895 C 4837.49 -7.33666 1.94851 0
M  V30 30896 O 4837.28 -5.88816 2.00759 0
M  V30 30897 C 4836.09 -7.92526 2.10483 0
M  V30 30898 O 4835.7 -8.03063 3.47693 0
M  V30 30899 C 4835.21 -6.89602 1.41652 0
M  V30 30900 C 4835.92 -5.59201 1.75185 0
M  V30 30901 N 4835.87 -4.58235 0.662552 0
M  V30 30902 C 4835.72 -3.24451 1.01643 0
M  V30 30903 O 4835.63 -2.94958 2.21722 0
M  V30 30904 N 4835.67 -2.30408 -0.165238 0
M  V30 30905 C 4835.77 -2.66048 -1.25118 0
M  V30 30906 N 4835.72 -1.70787 -2.16813 0
M  V30 30907 C 4835.92 -4.02732 -1.64413 0
M  V30 30908 C 4835.97 -4.9488 -0.63991 0
M  V30 30909 H 4838.71 -8.65017 0.777072 0
M  V30 30910 H 4838.98 -6.90173 0.474152 0
M  V30 30911 H 4838.11 -7.66642 2.79492 0
M  V30 30912 H 4835.46 -5.16254 2.65229 0
M  V30 30913 H 4835.18 -7.06532 0.329431 0
M  V30 30914 H 4834.19 -6.91023 1.82047 0
M  V30 30915 H 4836.02 -8.90873 1.62657 0
M  V30 30916 H 4836.09 -6.00104 -0.892197 0
M  V30 30917 H 4835.99 -4.31733 -2.69229 0
M  V30 30918 H 4835.6 -0.724835 -1.8844 0
M  V30 30919 H 4835.8 -1.94716 -3.16734 0
M  V30 30920 P 4834.15 -8.03563 3.84925 0
M  V30 30921 O 4833.93 -8.85821 5.0569 0
M  V30 30922 O 4833.36 -8.41101 2.65469 0
M  V30 30923 O 4833.9 -6.4965 4.18908 0
M  V30 30924 C 4834.84 -5.81037 5.05421 0
M  V30 30925 C 4834.11 -4.78366 5.89277 0
M  V30 30926 O 4833.9 -3.58302 5.08433 0
M  V30 30927 C 4832.71 -5.17448 6.36119 0
M  V30 30928 O 4832.32 -4.45271 7.53232 0
M  V30 30929 C 4831.83 -4.74639 5.19936 0
M  V30 30930 C 4832.54 -3.49432 4.70418 0
M  V30 30931 N 4832.49 -3.32099 3.22613 0
M  V30 30932 C 4832.57 -4.28245 2.25527 0
M  V30 30933 N 4832.5 -3.80823 1.04874 0
M  V30 30934 C 4832.35 -2.44571 1.23535 0
M  V30 30935 C 4832.22 -1.37068 0.330675 0
M  V30 30936 N 4832.21 -1.51472 -0.990824 0
M  V30 30937 N 4832.1 -0.138614 0.848756 0
M  V30 30938 C 4832.11 0.00675923 2.16999 0
M  V30 30939 N 4832.23 -0.904372 3.11122 0
M  V30 30940 C 4832.35 -2.12707 2.56212 0
M  V30 30941 H 4835.33 -6.54213 5.71376 0
M  V30 30942 H 4835.6 -5.30936 4.43503 0
M  V30 30943 H 4834.73 -4.55889 6.76652 0
M  V30 30944 H 4832.08 -2.61715 5.17932 0
M  V30 30945 H 4831.8 -5.52155 4.41878 0
M  V30 30946 H 4830.81 -4.51981 5.53374 0
M  V30 30947 H 4832.64 -6.25124 6.55234 0
M  V30 30948 H 4832.68 -5.34372 2.47488 0
M  V30 30949 H 4832.3 -2.45153 -1.4078 0
M  V30 30950 H 4832.11 -0.688422 -1.59911 0
M  V30 30951 H 4832.01 1.02584 2.52346 0
M  V30 30952 P 4830.77 -4.23843 7.83734 0
M  V30 30953 O 4830.55 -4.19407 9.29784 0
M  V30 30954 O 4829.98 -5.24426 7.09156 0
M  V30 30955 O 4830.52 -2.7935 7.20758 0
M  V30 30956 C 4831.46 -1.7299 7.50419 0
M  V30 30957 C 4830.73 -0.406376 7.57911 0
M  V30 30958 O 4830.52 0.0897726 6.21935 0
M  V30 30959 C 4829.33 -0.447224 8.1878 0
M  V30 30960 O 4828.94 0.825065 8.71101 0
M  V30 30961 C 4828.45 -0.783801 6.99623 0
M  V30 30962 C 4829.16 -0.0619192 5.85967 0
M  V30 30963 N 4829.11 -0.790462 4.56202 0
M  V30 30964 C 4829.19 -2.13895 4.34171 0
M  V30 30965 N 4829.12 -2.46449 3.08687 0
M  V30 30966 C 4828.97 -1.2525 2.43697 0
M  V30 30967 C 4828.84 -0.914535 1.07318 0
M  V30 30968 N 4828.83 -1.80782 0.0887348 0
M  V30 30969 N 4828.72 0.386745 0.768133 0
M  V30 30970 C 4828.73 1.28096 1.75159 0
M  V30 30971 N 4828.85 1.09708 3.04861 0
M  V30 30972 C 4828.97 -0.214857 3.32306 0
M  V30 30973 H 4831.95 -1.93423 8.4679 0
M  V30 30974 H 4832.22 -1.68852 6.70877 0
M  V30 30975 H 4831.35 0.289041 8.15388 0
M  V30 30976 H 4828.7 0.927006 5.72848 0
M  V30 30977 H 4828.42 -1.86973 6.82036 0
M  V30 30978 H 4827.43 -0.403953 7.13357 0
M  V30 30979 H 4829.26 -1.20599 8.97534 0
M  V30 30980 H 4829.3 -2.86846 5.14318 0
M  V30 30981 H 4828.92 -2.81082 0.302037 0
M  V30 30982 H 4828.73 -1.49688 -0.889064 0
M  V30 30983 H 4828.63 2.31317 1.43855 0
M  V30 30984 P 4827.39 1.17771 8.83182 0
M  V30 30985 O 4827.17 2.07206 9.98732 0
M  V30 30986 O 4826.6 -0.0743816 8.81969 0
M  V30 30987 O 4827.14 1.97652 7.47304 0
M  V30 30988 C 4828.08 3.01133 7.08783 0
M  V30 30989 C 4827.35 4.12613 6.37049 0
M  V30 30990 O 4827.14 3.72827 4.97879 0
M  V30 30991 C 4825.95 4.45085 6.88694 0
M  V30 30992 O 4825.56 5.7877 6.5624 0
M  V30 30993 C 4825.07 3.47817 6.12078 0
M  V30 30994 C 4825.78 3.39414 4.77697 0
M  V30 30995 N 4825.73 2.04199 4.15538 0
M  V30 30996 H 4828.57 3.41248 7.98759 0
M  V30 30997 H 4828.84 2.57728 6.42 0
M  V30 30998 H 4827.97 5.02657 6.42673 0
M  V30 30999 H 4825.32 4.11708 4.08956 0
M  V30 31000 H 4825.04 2.49626 6.61679 0
M  V30 31001 H 4824.05 3.8662 6.00862 0
M  V30 31002 H 4825.88 4.29991 7.97006 0
M  V30 31003 P 4824.01 6.144 6.45285 0
M  V30 31004 O 4823.79 7.54673 6.86199 0
M  V30 31005 O 4823.22 5.12391 7.179 0
M  V30 31006 O 4823.76 5.99158 4.88404 0
M  V30 31007 C 4824.7 6.60234 3.96415 0
M  V30 31008 C 4823.97 7.08259 2.72856 0
M  V30 31009 O 4823.76 5.9427 1.83651 0
M  V30 31010 C 4822.57 7.64886 2.9555 0
M  V30 31011 O 4822.18 8.53963 1.90717 0
M  V30 31012 C 4821.69 6.4116 2.90739 0
M  V30 31013 C 4822.4 5.55375 1.86963 0
M  V30 31014 N 4822.35 4.09448 2.16152 0
M  V30 31015 C 4822.43 3.46824 3.37593 0
M  V30 31016 N 4822.36 2.17422 3.29777 0
M  V30 31017 C 4822.21 1.93065 1.94427 0
M  V30 31018 C 4822.08 0.738053 1.20141 0
M  V30 31019 N 4822.07 -0.474256 1.74676 0
M  V30 31020 N 4821.96 0.850049 -0.13045 0
M  V30 31021 C 4821.97 2.06169 -0.676992 0
M  V30 31022 N 4822.09 3.23842 -0.101312 0
M  V30 31023 C 4822.21 3.09402 1.23122 0
M  V30 31024 H 4825.19 7.45574 4.45629 0
M  V30 31025 H 4825.46 5.85864 3.679 0
M  V30 31026 H 4824.59 7.84412 2.24479 0
M  V30 31027 H 4821.94 5.73457 0.888562 0
M  V30 31028 H 4821.66 5.90877 3.88583 0
M  V30 31029 H 4820.67 6.6596 2.58858 0
M  V30 31030 H 4822.5 8.16339 3.92049 0
M  V30 31031 H 4822.54 4.00505 4.3174 0
M  V30 31032 H 4822.16 -0.581337 2.76658 0
M  V30 31033 H 4821.97 -1.30811 1.14888 0
M  V30 31034 H 4821.87 2.08295 -1.75542 0
M  V30 31035 P 4820.63 8.7635 1.60911 0
M  V30 31036 O 4820.41 10.1388 1.11561 0
M  V30 31037 O 4819.84 8.36503 2.79617 0
M  V30 31038 O 4820.38 7.71806 0.42951 0
M  V30 31039 C 4821.32 7.67148 -0.673689 0
M  V30 31040 C 4820.59 7.33374 -1.95559 0
M  V30 31041 O 4820.38 5.88721 -2.00726 0
M  V30 31042 C 4819.19 7.92526 -2.10483 0
M  V30 31043 O 4818.8 8.02971 -3.47653 0
M  V30 31044 C 4818.31 6.89602 -1.41652 0
M  V30 31045 C 4819.02 5.59201 -1.75185 0
M  V30 31046 N 4818.97 4.58301 -0.657969 0
M  V30 31047 H 4821.81 8.65116 -0.777161 0
M  V30 31048 H 4822.08 6.9022 -0.46725 0
M  V30 31049 H 4821.21 7.66548 -2.79458 0
M  V30 31050 H 4818.56 5.16165 -2.65183 0
M  V30 31051 H 4818.28 7.06433 -0.329384 0
M  V30 31052 H 4817.29 6.90926 -1.82021 0
M  V30 31053 H 4819.12 8.90873 -1.62657 0
M  V30 31054 P 4817.25 8.03563 -3.84925 0
M  V30 31055 O 4817.03 8.85821 -5.0569 0
M  V30 31056 O 4816.46 8.41101 -2.65469 0
M  V30 31057 O 4817 6.4965 -4.18908 0
M  V30 31058 C 4817.94 5.81037 -5.05421 0
M  V30 31059 C 4817.21 4.78366 -5.89277 0
M  V30 31060 O 4817 3.58302 -5.08433 0
M  V30 31061 C 4815.81 5.17448 -6.36119 0
M  V30 31062 O 4815.42 4.45271 -7.53232 0
M  V30 31063 C 4814.93 4.74639 -5.19936 0
M  V30 31064 C 4815.64 3.49432 -4.70418 0
M  V30 31065 N 4815.59 3.32099 -3.22613 0
M  V30 31066 H 4818.43 6.54213 -5.71376 0
M  V30 31067 H 4818.7 5.30936 -4.43503 0
M  V30 31068 H 4817.83 4.55889 -6.76652 0
M  V30 31069 H 4815.18 2.61715 -5.17932 0
M  V30 31070 H 4814.9 5.52155 -4.41878 0
M  V30 31071 H 4813.91 4.51981 -5.53374 0
M  V30 31072 H 4815.74 6.25124 -6.55234 0
M  V30 31073 P 4813.87 4.23843 -7.83734 0
M  V30 31074 O 4813.65 4.19407 -9.29784 0
M  V30 31075 O 4813.08 5.24426 -7.09156 0
M  V30 31076 O 4813.62 2.7935 -7.20758 0
M  V30 31077 C 4814.56 1.7299 -7.50419 0
M  V30 31078 C 4813.83 0.406376 -7.57911 0
M  V30 31079 O 4813.62 -0.0897726 -6.21935 0
M  V30 31080 C 4812.43 0.447224 -8.1878 0
M  V30 31081 O 4812.04 -0.825065 -8.71101 0
M  V30 31082 C 4811.55 0.783801 -6.99623 0
M  V30 31083 C 4812.26 0.0619192 -5.85967 0
M  V30 31084 N 4812.21 0.7859 -4.56281 0
M  V30 31085 H 4815.05 1.93423 -8.4679 0
M  V30 31086 H 4815.32 1.68181 -6.71046 0
M  V30 31087 H 4814.45 -0.289041 -8.15388 0
M  V30 31088 P 4810.49 -1.17771 -8.83182 0
M  V30 31089 O 4810.27 -2.07206 -9.98732 0
M  V30 31090 O 4809.7 0.0743816 -8.81969 0
M  V30 31091 O 4810.24 -1.97652 -7.47304 0
M  V30 31092 C 4811.18 -3.01133 -7.08783 0
M  V30 31093 C 4810.45 -4.12613 -6.37049 0
M  V30 31094 O 4810.24 -3.72827 -4.97879 0
M  V30 31095 C 4809.05 -4.45085 -6.88694 0
M  V30 31096 O 4808.66 -5.7877 -6.5624 0
M  V30 31097 C 4808.17 -3.47817 -6.12078 0
M  V30 31098 C 4808.88 -3.39414 -4.77697 0
M  V30 31099 N 4808.83 -2.04199 -4.15538 0
M  V30 31100 H 4811.67 -3.41248 -7.98759 0
M  V30 31101 H 4811.94 -2.57728 -6.42 0
M  V30 31102 H 4811.07 -5.02657 -6.42673 0
M  V30 31103 H 4808.42 -4.11708 -4.08956 0
M  V30 31104 H 4808.14 -2.49626 -6.61679 0
M  V30 31105 H 4807.15 -3.8662 -6.00862 0
M  V30 31106 H 4808.98 -4.29991 -7.97006 0
M  V30 31107 P 4807.11 -6.144 -6.45285 0
M  V30 31108 O 4806.89 -7.54673 -6.86199 0
M  V30 31109 O 4806.32 -5.12391 -7.179 0
M  V30 31110 O 4806.86 -5.99158 -4.88404 0
M  V30 31111 C 4807.8 -6.60234 -3.96415 0
M  V30 31112 C 4807.07 -7.08259 -2.72856 0
M  V30 31113 O 4806.86 -5.9427 -1.83651 0
M  V30 31114 C 4805.67 -7.64886 -2.9555 0
M  V30 31115 O 4805.28 -8.53963 -1.90717 0
M  V30 31116 C 4804.79 -6.4116 -2.90739 0
M  V30 31117 C 4805.5 -5.55375 -1.86963 0
M  V30 31118 N 4805.45 -4.09448 -2.16152 0
M  V30 31119 H 4808.29 -7.45574 -4.45629 0
M  V30 31120 H 4808.56 -5.85864 -3.679 0
M  V30 31121 H 4807.69 -7.84412 -2.24479 0
M  V30 31122 H 4805.04 -5.73457 -0.888562 0
M  V30 31123 H 4804.76 -5.90877 -3.88583 0
M  V30 31124 H 4803.77 -6.6596 -2.58858 0
M  V30 31125 H 4805.6 -8.16339 -3.92049 0
M  V30 31126 P 4803.73 -8.7635 -1.60911 0
M  V30 31127 O 4803.51 -10.1388 -1.11561 0
M  V30 31128 O 4802.94 -8.36503 -2.79617 0
M  V30 31129 O 4803.48 -7.71806 -0.42951 0
M  V30 31130 C 4804.42 -7.66948 0.673514 0
M  V30 31131 C 4803.69 -7.33374 1.95559 0
M  V30 31132 O 4803.48 -5.88721 2.00726 0
M  V30 31133 C 4802.29 -7.92218 2.1125 0
M  V30 31134 O 4801.9 -8.02971 3.47653 0
M  V30 31135 C 4801.41 -6.89504 1.41631 0
M  V30 31136 C 4802.12 -5.59106 1.75155 0
M  V30 31137 N 4802.07 -4.58136 0.662409 0
M  V30 31138 C 4801.92 -3.26059 1.02863 0
M  V30 31139 O 4801.83 -2.90743 2.19009 0
M  V30 31140 N 4801.88 -2.35995 -0.0155585 0
M  V30 31141 C 4801.97 -2.65248 -1.35603 0
M  V30 31142 O 4801.92 -1.75605 -2.20651 0
M  V30 31143 C 4802.12 -4.05747 -1.64698 0
M  V30 31144 C 4802.23 -4.42345 -3.09553 0
M  V30 31145 C 4802.17 -4.96734 -0.652411 0
M  V30 31146 H 4804.91 -8.64917 0.776982 0
M  V30 31147 H 4805.18 -6.89974 0.474015 0
M  V30 31148 H 4804.31 -7.66548 2.79458 0
M  V30 31149 H 4801.66 -5.16076 2.65138 0
M  V30 31150 H 4801.38 -7.06433 0.329384 0
M  V30 31151 H 4800.39 -6.90829 1.81996 0
M  V30 31152 H 4802.22 -8.90774 1.62639 0
M  V30 31153 H 4802.29 -6.02181 -0.895285 0
M  V30 31154 H 4801.26 -4.80252 -3.45468 0
M  V30 31155 H 4803 -5.20015 -3.22119 0
M  V30 31156 H 4802.51 -3.53269 -3.67833 0
M  V30 31157 H 4801.78 -1.39558 0.227499 0
M  V30 31158 P 4800.35 -8.03563 3.84925 0
M  V30 31159 O 4800.13 -8.85821 5.0569 0
M  V30 31160 O 4799.56 -8.41101 2.65469 0
M  V30 31161 O 4800.1 -6.4965 4.18908 0
M  V30 31162 C 4801.04 -5.80886 5.05289 0
M  V30 31163 C 4800.31 -4.78366 5.89277 0
M  V30 31164 O 4800.1 -3.58302 5.08433 0
M  V30 31165 C 4798.91 -5.16748 6.36559 0
M  V30 31166 O 4798.52 -4.45271 7.53232 0
M  V30 31167 C 4798.03 -4.74572 5.19863 0
M  V30 31168 C 4798.74 -3.49373 4.70338 0
M  V30 31169 N 4798.69 -3.31704 3.22876 0
M  V30 31170 C 4798.54 -2.03326 2.74871 0
M  V30 31171 O 4798.45 -1.06486 3.48076 0
M  V30 31172 N 4798.5 -1.91838 1.37456 0
M  V30 31173 C 4798.59 -2.94295 0.462035 0
M  V30 31174 O 4798.54 -2.71763 -0.752928 0
M  V30 31175 C 4798.74 -4.25064 1.05249 0
M  V30 31176 C 4798.85 -5.39815 0.095697 0
M  V30 31177 C 4798.79 -4.40214 2.39192 0
M  V30 31178 H 4801.53 -6.54063 5.71245 0
M  V30 31179 H 4801.8 -5.30339 4.43905 0
M  V30 31180 H 4800.93 -4.55889 6.76652 0
M  V30 31181 H 4798.28 -2.6167 5.17842 0
M  V30 31182 H 4798 -5.52155 4.41878 0
M  V30 31183 H 4797.01 -4.51918 5.53297 0
M  V30 31184 H 4798.84 -6.25055 6.55162 0
M  V30 31185 H 4798.91 -5.39798 2.81523 0
M  V30 31186 H 4797.88 -5.91593 0.0279582 0
M  V30 31187 H 4799.62 -6.10038 0.450573 0
M  V30 31188 H 4799.13 -5.02007 -0.89937 0
M  V30 31189 H 4798.4 -0.995326 1.00435 0
M  V30 31190 P 4796.97 -4.23843 7.83734 0
M  V30 31191 O 4796.75 -4.19407 9.29784 0
M  V30 31192 O 4796.18 -5.24426 7.09156 0
M  V30 31193 O 4796.72 -2.7935 7.20758 0
M  V30 31194 C 4797.66 -1.7299 7.50419 0
M  V30 31195 C 4796.93 -0.406376 7.57911 0
M  V30 31196 O 4796.72 0.0897726 6.21935 0
M  V30 31197 C 4795.53 -0.447224 8.1878 0
M  V30 31198 O 4795.14 0.825065 8.71101 0
M  V30 31199 C 4794.65 -0.783801 6.99623 0
M  V30 31200 C 4795.36 -0.0619192 5.85967 0
M  V30 31201 N 4795.31 -0.790462 4.56202 0
M  V30 31202 C 4795.39 -2.13895 4.34171 0
M  V30 31203 N 4795.32 -2.46449 3.08687 0
M  V30 31204 C 4795.17 -1.2525 2.43697 0
M  V30 31205 C 4795.04 -0.914535 1.07318 0
M  V30 31206 N 4795.03 -1.80782 0.0887348 0
M  V30 31207 N 4794.92 0.386745 0.768133 0
M  V30 31208 C 4794.93 1.28096 1.75159 0
M  V30 31209 N 4795.05 1.09708 3.04861 0
M  V30 31210 C 4795.17 -0.214857 3.32306 0
M  V30 31211 H 4798.15 -1.93423 8.4679 0
M  V30 31212 H 4798.42 -1.68852 6.70877 0
M  V30 31213 H 4797.55 0.289041 8.15388 0
M  V30 31214 H 4794.9 0.927006 5.72848 0
M  V30 31215 H 4794.62 -1.86973 6.82036 0
M  V30 31216 H 4793.63 -0.403953 7.13357 0
M  V30 31217 H 4795.46 -1.20599 8.97534 0
M  V30 31218 H 4795.5 -2.86846 5.14318 0
M  V30 31219 H 4795.12 -2.81082 0.302037 0
M  V30 31220 H 4794.93 -1.49688 -0.889064 0
M  V30 31221 H 4794.83 2.31317 1.43855 0
M  V30 31222 P 4793.59 1.17771 8.83182 0
M  V30 31223 O 4793.37 2.07206 9.98732 0
M  V30 31224 O 4792.8 -0.0743816 8.81969 0
M  V30 31225 O 4793.34 1.97652 7.47304 0
M  V30 31226 C 4794.28 3.01133 7.08783 0
M  V30 31227 C 4793.55 4.12613 6.37049 0
M  V30 31228 O 4793.34 3.72827 4.97879 0
M  V30 31229 C 4792.15 4.45085 6.88694 0
M  V30 31230 O 4791.76 5.7877 6.5624 0
M  V30 31231 C 4791.27 3.47817 6.12078 0
M  V30 31232 C 4791.98 3.39414 4.77697 0
M  V30 31233 N 4791.93 2.04199 4.15538 0
M  V30 31234 H 4794.77 3.41248 7.98759 0
M  V30 31235 H 4795.04 2.57728 6.42 0
M  V30 31236 H 4794.17 5.02657 6.42673 0
M  V30 31237 H 4791.52 4.11708 4.08956 0
M  V30 31238 H 4791.24 2.49626 6.61679 0
M  V30 31239 H 4790.25 3.8662 6.00862 0
M  V30 31240 H 4792.08 4.29991 7.97006 0
M  V30 31241 P 4790.21 6.144 6.45285 0
M  V30 31242 O 4789.99 7.54673 6.86199 0
M  V30 31243 O 4789.42 5.12391 7.179 0
M  V30 31244 O 4789.96 5.99158 4.88404 0
M  V30 31245 C 4790.9 6.60234 3.96415 0
M  V30 31246 C 4790.17 7.08259 2.72856 0
M  V30 31247 O 4789.96 5.9427 1.83651 0
M  V30 31248 C 4788.77 7.64886 2.9555 0
M  V30 31249 O 4788.38 8.53963 1.90717 0
M  V30 31250 C 4787.89 6.4116 2.90739 0
M  V30 31251 C 4788.6 5.55375 1.86963 0
M  V30 31252 N 4788.55 4.09448 2.16152 0
M  V30 31253 H 4791.39 7.45574 4.45629 0
M  V30 31254 H 4791.66 5.85864 3.679 0
M  V30 31255 H 4790.79 7.84412 2.24479 0
M  V30 31256 H 4788.14 5.73457 0.888562 0
M  V30 31257 H 4787.86 5.90877 3.88583 0
M  V30 31258 H 4786.87 6.6596 2.58858 0
M  V30 31259 H 4788.7 8.16339 3.92049 0
M  V30 31260 P 4786.83 8.7635 1.60911 0
M  V30 31261 O 4786.61 10.1388 1.11561 0
M  V30 31262 O 4786.04 8.36503 2.79617 0
M  V30 31263 O 4786.58 7.71806 0.42951 0
M  V30 31264 C 4787.52 7.67148 -0.673689 0
M  V30 31265 C 4786.79 7.33374 -1.95559 0
M  V30 31266 O 4786.58 5.88721 -2.00726 0
M  V30 31267 C 4785.39 7.92526 -2.10483 0
M  V30 31268 O 4785 8.02971 -3.47653 0
M  V30 31269 C 4784.51 6.89602 -1.41652 0
M  V30 31270 C 4785.22 5.59201 -1.75185 0
M  V30 31271 N 4785.17 4.58235 -0.662552 0
M  V30 31272 H 4788.01 8.65116 -0.777161 0
M  V30 31273 H 4788.28 6.90173 -0.474152 0
M  V30 31274 H 4787.41 7.66548 -2.79458 0
M  V30 31275 P 4783.45 8.03563 -3.84925 0
M  V30 31276 O 4783.23 8.85821 -5.0569 0
M  V30 31277 O 4782.66 8.41101 -2.65469 0
M  V30 31278 O 4783.2 6.4965 -4.18908 0
M  V30 31279 C 4784.14 5.81037 -5.05421 0
M  V30 31280 C 4783.41 4.78366 -5.89277 0
M  V30 31281 O 4783.2 3.58302 -5.08433 0
M  V30 31282 C 4782.01 5.17448 -6.36119 0
M  V30 31283 O 4781.62 4.45271 -7.53232 0
M  V30 31284 C 4781.13 4.74639 -5.19936 0
M  V30 31285 C 4781.84 3.49432 -4.70418 0
M  V30 31286 N 4781.79 3.32099 -3.22613 0
M  V30 31287 C 4781.87 4.28245 -2.25527 0
M  V30 31288 N 4781.8 3.80823 -1.04874 0
M  V30 31289 C 4781.65 2.44571 -1.23535 0
M  V30 31290 C 4781.52 1.37068 -0.330675 0
M  V30 31291 N 4781.51 1.51472 0.990824 0
M  V30 31292 N 4781.4 0.138614 -0.848756 0
M  V30 31293 C 4781.41 -0.00675923 -2.16999 0
M  V30 31294 N 4781.53 0.904372 -3.11122 0
M  V30 31295 C 4781.65 2.12707 -2.56212 0
M  V30 31296 H 4784.63 6.54213 -5.71376 0
M  V30 31297 H 4784.9 5.30936 -4.43503 0
M  V30 31298 H 4784.03 4.55889 -6.76652 0
M  V30 31299 H 4781.38 2.61715 -5.17932 0
M  V30 31300 H 4781.1 5.52155 -4.41878 0
M  V30 31301 H 4780.11 4.51981 -5.53374 0
M  V30 31302 H 4781.94 6.25124 -6.55234 0
M  V30 31303 H 4781.98 5.34372 -2.47488 0
M  V30 31304 H 4781.6 2.45153 1.4078 0
M  V30 31305 H 4781.41 0.688422 1.59911 0
M  V30 31306 H 4781.31 -1.02584 -2.52346 0
M  V30 31307 P 4780.07 4.23843 -7.83734 0
M  V30 31308 O 4779.85 4.19407 -9.29784 0
M  V30 31309 O 4779.28 5.24426 -7.09156 0
M  V30 31310 O 4779.82 2.7935 -7.20758 0
M  V30 31311 C 4780.76 1.7299 -7.50419 0
M  V30 31312 C 4780.03 0.406376 -7.57911 0
M  V30 31313 O 4779.82 -0.0897726 -6.21935 0
M  V30 31314 C 4778.63 0.447224 -8.1878 0
M  V30 31315 O 4778.24 -0.825065 -8.71101 0
M  V30 31316 C 4777.75 0.783801 -6.99623 0
M  V30 31317 C 4778.46 0.0619192 -5.85967 0
M  V30 31318 N 4778.41 0.7859 -4.56281 0
M  V30 31319 H 4781.25 1.93423 -8.4679 0
M  V30 31320 H 4781.52 1.68181 -6.71046 0
M  V30 31321 H 4780.65 -0.289041 -8.15388 0
M  V30 31322 P 4776.69 -1.17771 -8.83182 0
M  V30 31323 O 4776.47 -2.07206 -9.98732 0
M  V30 31324 O 4775.9 0.0743816 -8.81969 0
M  V30 31325 O 4776.44 -1.97652 -7.47304 0
M  V30 31326 C 4777.38 -3.01133 -7.08783 0
M  V30 31327 C 4776.65 -4.12613 -6.37049 0
M  V30 31328 O 4776.44 -3.72827 -4.97879 0
M  V30 31329 C 4775.25 -4.45085 -6.88694 0
M  V30 31330 O 4774.86 -5.7877 -6.5624 0
M  V30 31331 C 4774.37 -3.47817 -6.12078 0
M  V30 31332 C 4775.08 -3.39414 -4.77697 0
M  V30 31333 N 4775.03 -2.04615 -4.15333 0
M  V30 31334 H 4777.87 -3.41248 -7.98759 0
M  V30 31335 H 4778.14 -2.5837 -6.41742 0
M  V30 31336 H 4777.27 -5.02657 -6.42673 0
M  V30 31337 P 4773.31 -6.144 -6.45285 0
M  V30 31338 O 4773.09 -7.54673 -6.86199 0
M  V30 31339 O 4772.52 -5.12391 -7.179 0
M  V30 31340 O 4773.06 -5.99158 -4.88404 0
M  V30 31341 C 4774 -6.60234 -3.96415 0
M  V30 31342 C 4773.27 -7.08259 -2.72856 0
M  V30 31343 O 4773.06 -5.9427 -1.83651 0
M  V30 31344 C 4771.87 -7.64886 -2.9555 0
M  V30 31345 O 4771.48 -8.53963 -1.90717 0
M  V30 31346 C 4770.99 -6.4116 -2.90739 0
M  V30 31347 C 4771.7 -5.55375 -1.86963 0
M  V30 31348 N 4771.65 -4.09448 -2.16152 0
M  V30 31349 H 4774.49 -7.45574 -4.45629 0
M  V30 31350 H 4774.76 -5.85864 -3.679 0
M  V30 31351 H 4773.89 -7.84412 -2.24479 0
M  V30 31352 H 4771.24 -5.73457 -0.888562 0
M  V30 31353 H 4770.96 -5.90877 -3.88583 0
M  V30 31354 H 4769.97 -6.6596 -2.58858 0
M  V30 31355 H 4771.8 -8.16339 -3.92049 0
M  V30 31356 P 4769.93 -8.7635 -1.60911 0
M  V30 31357 O 4769.71 -10.1388 -1.11561 0
M  V30 31358 O 4769.14 -8.36503 -2.79617 0
M  V30 31359 O 4769.68 -7.71806 -0.42951 0
M  V30 31360 C 4770.62 -7.67148 0.673689 0
M  V30 31361 C 4769.89 -7.33374 1.95559 0
M  V30 31362 O 4769.68 -5.88721 2.00726 0
M  V30 31363 C 4768.49 -7.92526 2.10483 0
M  V30 31364 O 4768.1 -8.02971 3.47653 0
M  V30 31365 C 4767.61 -6.89602 1.41652 0
M  V30 31366 C 4768.32 -5.59201 1.75185 0
M  V30 31367 N 4768.27 -4.58301 0.657969 0
M  V30 31368 H 4771.11 -8.65116 0.777161 0
M  V30 31369 H 4771.38 -6.9022 0.46725 0
M  V30 31370 H 4770.51 -7.66548 2.79458 0
M  V30 31371 H 4767.86 -5.16165 2.65183 0
M  V30 31372 H 4767.58 -7.06433 0.329384 0
M  V30 31373 H 4766.59 -6.90926 1.82021 0
M  V30 31374 H 4768.42 -8.90873 1.62657 0
M  V30 31375 P 4766.55 -8.03563 3.84925 0
M  V30 31376 O 4766.33 -8.85821 5.0569 0
M  V30 31377 O 4765.76 -8.41101 2.65469 0
M  V30 31378 O 4766.3 -6.4965 4.18908 0
M  V30 31379 C 4767.24 -5.81037 5.05421 0
M  V30 31380 C 4766.51 -4.78366 5.89277 0
M  V30 31381 O 4766.3 -3.58302 5.08433 0
M  V30 31382 C 4765.11 -5.17448 6.36119 0
M  V30 31383 O 4764.72 -4.45271 7.53232 0
M  V30 31384 C 4764.23 -4.74639 5.19936 0
M  V30 31385 C 4764.94 -3.49432 4.70418 0
M  V30 31386 N 4764.89 -3.31776 3.22945 0
M  V30 31387 H 4767.73 -6.54213 5.71376 0
M  V30 31388 H 4768 -5.30492 4.44033 0
M  V30 31389 H 4767.13 -4.55889 6.76652 0
M  V30 31390 P 4763.17 -4.23843 7.83734 0
M  V30 31391 O 4762.95 -4.19407 9.29784 0
M  V30 31392 O 4762.38 -5.24426 7.09156 0
M  V30 31393 O 4762.92 -2.7935 7.20758 0
M  V30 31394 C 4763.86 -1.7299 7.50419 0
M  V30 31395 C 4763.13 -0.406376 7.57911 0
M  V30 31396 O 4762.92 0.0897726 6.21935 0
M  V30 31397 C 4761.73 -0.447224 8.1878 0
M  V30 31398 O 4761.34 0.825065 8.71101 0
M  V30 31399 C 4760.85 -0.783801 6.99623 0
M  V30 31400 C 4761.56 -0.0619192 5.85967 0
M  V30 31401 N 4761.51 -0.7859 4.56281 0
M  V30 31402 H 4764.35 -1.93423 8.4679 0
M  V30 31403 H 4764.62 -1.68181 6.71046 0
M  V30 31404 H 4763.75 0.289041 8.15388 0
M  V30 31405 P 4759.79 1.17771 8.83182 0
M  V30 31406 O 4759.57 2.07206 9.98732 0
M  V30 31407 O 4759 -0.0743816 8.81969 0
M  V30 31408 O 4759.54 1.97652 7.47304 0
M  V30 31409 C 4760.48 3.01133 7.08783 0
M  V30 31410 C 4759.75 4.12613 6.37049 0
M  V30 31411 O 4759.54 3.72827 4.97879 0
M  V30 31412 C 4758.35 4.45085 6.88694 0
M  V30 31413 O 4757.96 5.7877 6.5624 0
M  V30 31414 C 4757.47 3.47817 6.12078 0
M  V30 31415 C 4758.18 3.39414 4.77697 0
M  V30 31416 N 4758.13 2.04615 4.15333 0
M  V30 31417 H 4760.97 3.41248 7.98759 0
M  V30 31418 H 4761.24 2.5837 6.41742 0
M  V30 31419 H 4760.37 5.02657 6.42673 0
M  V30 31420 P 4756.41 6.144 6.45285 0
M  V30 31421 O 4756.19 7.54673 6.86199 0
M  V30 31422 O 4755.62 5.12391 7.179 0
M  V30 31423 O 4756.16 5.99158 4.88404 0
M  V30 31424 C 4757.1 6.60234 3.96415 0
M  V30 31425 C 4756.37 7.08259 2.72856 0
M  V30 31426 O 4756.16 5.9427 1.83651 0
M  V30 31427 C 4754.97 7.64886 2.9555 0
M  V30 31428 O 4754.58 8.53963 1.90717 0
M  V30 31429 C 4754.09 6.4116 2.90739 0
M  V30 31430 C 4754.8 5.55375 1.86963 0
M  V30 31431 N 4754.75 4.09664 2.15742 0
M  V30 31432 H 4757.59 7.45574 4.45629 0
M  V30 31433 H 4757.86 5.86232 3.67314 0
M  V30 31434 H 4756.99 7.84412 2.24479 0
M  V30 31435 P 4753.03 8.7635 1.60911 0
M  V30 31436 O 4752.81 10.1388 1.11561 0
M  V30 31437 O 4752.24 8.36503 2.79617 0
M  V30 31438 O 4752.78 7.71806 0.42951 0
M  V30 31439 C 4753.72 7.67148 -0.673689 0
M  V30 31440 C 4752.99 7.33374 -1.95559 0
M  V30 31441 O 4752.78 5.88721 -2.00726 0
M  V30 31442 C 4751.59 7.92526 -2.10483 0
M  V30 31443 O 4751.2 8.02971 -3.47653 0
M  V30 31444 C 4750.71 6.89602 -1.41652 0
M  V30 31445 C 4751.42 5.59201 -1.75185 0
M  V30 31446 N 4751.37 4.58301 -0.657969 0
M  V30 31447 C 4751.45 4.79019 0.692603 0
M  V30 31448 N 4751.38 3.69736 1.38998 0
M  V30 31449 C 4751.23 2.70474 0.438135 0
M  V30 31450 C 4751.1 1.30327 0.538142 0
M  V30 31451 N 4751.09 0.64304 1.69192 0
M  V30 31452 N 4750.98 0.611027 -0.605183 0
M  V30 31453 C 4750.99 1.27002 -1.75953 0
M  V30 31454 N 4751.11 2.56038 -1.98546 0
M  V30 31455 C 4751.23 3.22681 -0.822541 0
M  V30 31456 H 4754.21 8.65116 -0.777161 0
M  V30 31457 H 4754.48 6.9022 -0.46725 0
M  V30 31458 H 4753.61 7.66548 -2.79458 0
M  V30 31459 H 4750.96 5.16165 -2.65183 0
M  V30 31460 H 4750.68 7.06433 -0.329384 0
M  V30 31461 H 4749.69 6.90926 -1.82021 0
M  V30 31462 H 4751.52 8.90873 -1.62657 0
M  V30 31463 H 4751.56 5.77785 1.13874 0
M  V30 31464 H 4751.18 1.15585 2.57991 0
M  V30 31465 H 4750.99 -0.382989 1.69835 0
M  V30 31466 H 4750.89 0.653331 -2.64449 0
M  V30 31467 P 4749.65 8.03563 -3.84925 0
M  V30 31468 O 4749.43 8.85821 -5.0569 0
M  V30 31469 O 4748.86 8.41101 -2.65469 0
M  V30 31470 O 4749.4 6.4965 -4.18908 0
M  V30 31471 C 4750.34 5.81037 -5.05421 0
M  V30 31472 C 4749.61 4.78366 -5.89277 0
M  V30 31473 O 4749.4 3.58302 -5.08433 0
M  V30 31474 C 4748.21 5.17448 -6.36119 0
M  V30 31475 O 4747.82 4.45271 -7.53232 0
M  V30 31476 C 4747.33 4.74639 -5.19936 0
M  V30 31477 C 4748.04 3.49432 -4.70418 0
M  V30 31478 N 4747.99 3.31776 -3.22945 0
M  V30 31479 H 4750.83 6.54213 -5.71376 0
M  V30 31480 H 4751.1 5.30492 -4.44033 0
M  V30 31481 H 4750.23 4.55889 -6.76652 0
M  V30 31482 P 4746.27 4.23843 -7.83734 0
M  V30 31483 O 4746.05 4.19407 -9.29784 0
M  V30 31484 O 4745.48 5.24426 -7.09156 0
M  V30 31485 O 4746.02 2.7935 -7.20758 0
M  V30 31486 C 4746.96 1.7299 -7.50419 0
M  V30 31487 C 4746.23 0.406376 -7.57911 0
M  V30 31488 O 4746.02 -0.0897726 -6.21935 0
M  V30 31489 C 4744.83 0.447224 -8.1878 0
M  V30 31490 O 4744.44 -0.825065 -8.71101 0
M  V30 31491 C 4743.95 0.783801 -6.99623 0
M  V30 31492 C 4744.66 0.0619192 -5.85967 0
M  V30 31493 N 4744.61 0.7859 -4.56281 0
M  V30 31494 H 4747.45 1.93423 -8.4679 0
M  V30 31495 H 4747.72 1.68181 -6.71046 0
M  V30 31496 H 4746.85 -0.289041 -8.15388 0
M  V30 31497 P 4742.89 -1.17771 -8.83182 0
M  V30 31498 O 4742.67 -2.07206 -9.98732 0
M  V30 31499 O 4742.1 0.0743816 -8.81969 0
M  V30 31500 O 4742.64 -1.97652 -7.47304 0
M  V30 31501 C 4743.58 -3.01133 -7.08783 0
M  V30 31502 C 4742.85 -4.12613 -6.37049 0
M  V30 31503 O 4742.64 -3.72827 -4.97879 0
M  V30 31504 C 4741.45 -4.45085 -6.88694 0
M  V30 31505 O 4741.06 -5.7877 -6.5624 0
M  V30 31506 C 4740.57 -3.47817 -6.12078 0
M  V30 31507 C 4741.28 -3.39414 -4.77697 0
M  V30 31508 N 4741.23 -2.04199 -4.15538 0
M  V30 31509 C 4741.31 -0.821545 -4.76977 0
M  V30 31510 N 4741.24 0.1794 -3.94592 0
M  V30 31511 C 4741.09 -0.419121 -2.70776 0
M  V30 31512 C 4740.96 0.109072 -1.40577 0
M  V30 31513 N 4740.95 1.4104 -1.1344 0
M  V30 31514 N 4740.84 -0.764381 -0.39411 0
M  V30 31515 C 4740.85 -2.06587 -0.664135 0
M  V30 31516 N 4740.97 -2.67948 -1.82153 0
M  V30 31517 C 4741.09 -1.77942 -2.8147 0
M  V30 31518 H 4744.07 -3.41248 -7.98759 0
M  V30 31519 H 4744.34 -2.57728 -6.42 0
M  V30 31520 H 4743.47 -5.02657 -6.42673 0
M  V30 31521 H 4740.82 -4.11708 -4.08956 0
M  V30 31522 H 4740.54 -2.49626 -6.61679 0
M  V30 31523 H 4739.55 -3.8662 -6.00862 0
M  V30 31524 H 4741.38 -4.29991 -7.97006 0
M  V30 31525 H 4741.42 -0.702451 -5.84696 0
M  V30 31526 H 4741.04 2.09647 -1.89651 0
M  V30 31527 H 4740.85 1.73358 -0.160575 0
M  V30 31528 H 4740.75 -2.71695 0.195838 0
M  V30 31529 P 4739.51 -6.144 -6.45285 0
M  V30 31530 O 4739.29 -7.54673 -6.86199 0
M  V30 31531 O 4738.72 -5.12391 -7.179 0
M  V30 31532 O 4739.26 -5.99158 -4.88404 0
M  V30 31533 C 4740.2 -6.60234 -3.96415 0
M  V30 31534 C 4739.47 -7.08259 -2.72856 0
M  V30 31535 O 4739.26 -5.9427 -1.83651 0
M  V30 31536 C 4738.07 -7.64886 -2.9555 0
M  V30 31537 O 4737.68 -8.53963 -1.90717 0
M  V30 31538 C 4737.19 -6.4116 -2.90739 0
M  V30 31539 C 4737.9 -5.55375 -1.86963 0
M  V30 31540 N 4737.85 -4.09664 -2.15742 0
M  V30 31541 H 4740.69 -7.45574 -4.45629 0
M  V30 31542 H 4740.96 -5.86232 -3.67314 0
M  V30 31543 H 4740.09 -7.84412 -2.24479 0
M  V30 31544 P 4736.13 -8.7635 -1.60911 0
M  V30 31545 O 4735.91 -10.1388 -1.11561 0
M  V30 31546 O 4735.34 -8.36503 -2.79617 0
M  V30 31547 O 4735.88 -7.71806 -0.42951 0
M  V30 31548 C 4736.82 -7.67148 0.673689 0
M  V30 31549 C 4736.09 -7.33374 1.95559 0
M  V30 31550 O 4735.88 -5.88721 2.00726 0
M  V30 31551 C 4734.69 -7.92526 2.10483 0
M  V30 31552 O 4734.3 -8.02971 3.47653 0
M  V30 31553 C 4733.81 -6.89602 1.41652 0
M  V30 31554 C 4734.52 -5.59201 1.75185 0
M  V30 31555 N 4734.47 -4.58301 0.657969 0
M  V30 31556 H 4737.31 -8.65116 0.777161 0
M  V30 31557 H 4737.58 -6.9022 0.46725 0
M  V30 31558 H 4736.72 -7.66548 2.79458 0
M  V30 31559 H 4734.06 -5.16165 2.65183 0
M  V30 31560 H 4733.78 -7.06433 0.329384 0
M  V30 31561 H 4732.79 -6.90926 1.82021 0
M  V30 31562 H 4734.62 -8.90873 1.62657 0
M  V30 31563 P 4732.75 -8.03563 3.84925 0
M  V30 31564 O 4732.53 -8.85821 5.0569 0
M  V30 31565 O 4731.96 -8.41101 2.65469 0
M  V30 31566 O 4732.5 -6.4965 4.18908 0
M  V30 31567 C 4733.44 -5.81037 5.05421 0
M  V30 31568 C 4732.71 -4.78366 5.89277 0
M  V30 31569 O 4732.5 -3.58302 5.08433 0
M  V30 31570 C 4731.31 -5.17448 6.36119 0
M  V30 31571 O 4730.92 -4.45271 7.53232 0
M  V30 31572 C 4730.43 -4.74639 5.19936 0
M  V30 31573 C 4731.14 -3.49432 4.70418 0
M  V30 31574 N 4731.09 -3.31776 3.22945 0
M  V30 31575 H 4733.93 -6.54213 5.71376 0
M  V30 31576 H 4734.2 -5.30492 4.44033 0
M  V30 31577 H 4733.34 -4.55889 6.76652 0
M  V30 31578 P 4729.37 -4.23843 7.83734 0
M  V30 31579 O 4729.15 -4.19407 9.29784 0
M  V30 31580 O 4728.58 -5.24426 7.09156 0
M  V30 31581 O 4729.12 -2.7935 7.20758 0
M  V30 31582 C 4730.06 -1.7299 7.50419 0
M  V30 31583 C 4729.33 -0.406376 7.57911 0
M  V30 31584 O 4729.12 0.0897726 6.21935 0
M  V30 31585 C 4727.93 -0.447224 8.1878 0
M  V30 31586 O 4727.54 0.825065 8.71101 0
M  V30 31587 C 4727.05 -0.783801 6.99623 0
M  V30 31588 C 4727.76 -0.0619192 5.85967 0
M  V30 31589 N 4727.71 -0.7859 4.56281 0
M  V30 31590 H 4730.55 -1.93423 8.4679 0
M  V30 31591 H 4730.82 -1.68181 6.71046 0
M  V30 31592 H 4729.96 0.289041 8.15388 0
M  V30 31593 P 4725.99 1.17771 8.83182 0
M  V30 31594 O 4725.77 2.07206 9.98732 0
M  V30 31595 O 4725.2 -0.0743816 8.81969 0
M  V30 31596 O 4725.74 1.97652 7.47304 0
M  V30 31597 C 4726.68 3.01133 7.08783 0
M  V30 31598 C 4725.95 4.12613 6.37049 0
M  V30 31599 O 4725.74 3.72827 4.97879 0
M  V30 31600 C 4724.55 4.45085 6.88694 0
M  V30 31601 O 4724.16 5.7877 6.5624 0
M  V30 31602 C 4723.67 3.47817 6.12078 0
M  V30 31603 C 4724.38 3.39414 4.77697 0
M  V30 31604 N 4724.33 2.04615 4.15333 0
M  V30 31605 H 4727.17 3.41248 7.98759 0
M  V30 31606 H 4727.44 2.5837 6.41742 0
M  V30 31607 H 4726.58 5.02657 6.42673 0
M  V30 31608 P 4722.61 6.144 6.45285 0
M  V30 31609 O 4722.39 7.54673 6.86199 0
M  V30 31610 O 4721.82 5.12391 7.179 0
M  V30 31611 O 4722.36 5.99158 4.88404 0
M  V30 31612 C 4723.3 6.60234 3.96415 0
M  V30 31613 C 4722.57 7.08259 2.72856 0
M  V30 31614 O 4722.36 5.9427 1.83651 0
M  V30 31615 C 4721.17 7.64886 2.9555 0
M  V30 31616 O 4720.78 8.53963 1.90717 0
M  V30 31617 C 4720.29 6.4116 2.90739 0
M  V30 31618 C 4721 5.55375 1.86963 0
M  V30 31619 N 4720.95 4.09448 2.16152 0
M  V30 31620 C 4721.03 3.46824 3.37593 0
M  V30 31621 N 4720.96 2.17422 3.29777 0
M  V30 31622 C 4720.81 1.93065 1.94427 0
M  V30 31623 C 4720.68 0.738053 1.20141 0
M  V30 31624 N 4720.67 -0.474256 1.74676 0
M  V30 31625 N 4720.56 0.850049 -0.13045 0
M  V30 31626 C 4720.57 2.06169 -0.676992 0
M  V30 31627 N 4720.69 3.23842 -0.101312 0
M  V30 31628 C 4720.81 3.09402 1.23122 0
M  V30 31629 H 4723.79 7.45574 4.45629 0
M  V30 31630 H 4724.06 5.85864 3.679 0
M  V30 31631 H 4723.2 7.84412 2.24479 0
M  V30 31632 H 4720.54 5.73457 0.888562 0
M  V30 31633 H 4720.26 5.90877 3.88583 0
M  V30 31634 H 4719.27 6.6596 2.58858 0
M  V30 31635 H 4721.1 8.16339 3.92049 0
M  V30 31636 H 4721.14 4.00505 4.3174 0
M  V30 31637 H 4720.76 -0.581337 2.76658 0
M  V30 31638 H 4720.57 -1.30811 1.14888 0
M  V30 31639 H 4720.47 2.08295 -1.75542 0
M  V30 31640 P 4719.23 8.7635 1.60911 0
M  V30 31641 O 4719.01 10.1388 1.11561 0
M  V30 31642 O 4718.44 8.36503 2.79617 0
M  V30 31643 O 4718.98 7.71806 0.42951 0
M  V30 31644 C 4719.92 7.66948 -0.673514 0
M  V30 31645 C 4719.19 7.33374 -1.95559 0
M  V30 31646 O 4718.98 5.88721 -2.00726 0
M  V30 31647 C 4717.79 7.92218 -2.1125 0
M  V30 31648 O 4717.4 8.02971 -3.47653 0
M  V30 31649 C 4716.91 6.89504 -1.41631 0
M  V30 31650 C 4717.62 5.59106 -1.75155 0
M  V30 31651 N 4717.57 4.58136 -0.662409 0
M  V30 31652 C 4717.42 3.26059 -1.02863 0
M  V30 31653 O 4717.33 2.90743 -2.19009 0
M  V30 31654 N 4717.38 2.35995 0.0155585 0
M  V30 31655 C 4717.47 2.65248 1.35603 0
M  V30 31656 O 4717.42 1.75605 2.20651 0
M  V30 31657 C 4717.62 4.05747 1.64698 0
M  V30 31658 C 4717.73 4.42345 3.09553 0
M  V30 31659 C 4717.67 4.96734 0.652411 0
M  V30 31660 H 4720.41 8.64917 -0.776982 0
M  V30 31661 H 4720.68 6.89974 -0.474015 0
M  V30 31662 H 4719.82 7.66548 -2.79458 0
M  V30 31663 H 4717.16 5.16076 -2.65138 0
M  V30 31664 H 4716.88 7.06433 -0.329384 0
M  V30 31665 H 4715.89 6.90829 -1.81996 0
M  V30 31666 H 4717.72 8.90774 -1.62639 0
M  V30 31667 H 4717.79 6.02181 0.895285 0
M  V30 31668 H 4716.76 4.80252 3.45468 0
M  V30 31669 H 4718.5 5.20015 3.22119 0
M  V30 31670 H 4718.01 3.53269 3.67833 0
M  V30 31671 H 4717.28 1.39558 -0.227499 0
M  V30 31672 P 4715.85 8.03563 -3.84925 0
M  V30 31673 O 4715.63 8.85821 -5.0569 0
M  V30 31674 O 4715.06 8.41101 -2.65469 0
M  V30 31675 O 4715.6 6.4965 -4.18908 0
M  V30 31676 C 4716.54 5.81037 -5.05421 0
M  V30 31677 C 4715.81 4.78366 -5.89277 0
M  V30 31678 O 4715.6 3.58302 -5.08433 0
M  V30 31679 C 4714.41 5.17448 -6.36119 0
M  V30 31680 O 4714.02 4.45271 -7.53232 0
M  V30 31681 C 4713.53 4.74639 -5.19936 0
M  V30 31682 C 4714.24 3.49432 -4.70418 0
M  V30 31683 N 4714.19 3.31776 -3.22945 0
M  V30 31684 H 4717.03 6.54213 -5.71376 0
M  V30 31685 H 4717.3 5.30492 -4.44033 0
M  V30 31686 H 4716.44 4.55889 -6.76652 0
M  V30 31687 P 4712.47 4.23843 -7.83734 0
M  V30 31688 O 4712.25 4.19407 -9.29784 0
M  V30 31689 O 4711.68 5.24426 -7.09156 0
M  V30 31690 O 4712.22 2.7935 -7.20758 0
M  V30 31691 C 4713.16 1.7299 -7.50419 0
M  V30 31692 C 4712.43 0.406376 -7.57911 0
M  V30 31693 O 4712.22 -0.0897726 -6.21935 0
M  V30 31694 C 4711.03 0.447224 -8.1878 0
M  V30 31695 O 4710.64 -0.825065 -8.71101 0
M  V30 31696 C 4710.15 0.783801 -6.99623 0
M  V30 31697 C 4710.86 0.0619192 -5.85967 0
M  V30 31698 N 4710.81 0.7859 -4.56281 0
M  V30 31699 H 4713.65 1.93423 -8.4679 0
M  V30 31700 H 4713.92 1.68181 -6.71046 0
M  V30 31701 H 4713.06 -0.289041 -8.15388 0
M  V30 31702 P 4709.09 -1.17771 -8.83182 0
M  V30 31703 O 4708.87 -2.07206 -9.98732 0
M  V30 31704 O 4708.3 0.0743816 -8.81969 0
M  V30 31705 O 4708.84 -1.97652 -7.47304 0
M  V30 31706 C 4709.78 -3.01133 -7.08783 0
M  V30 31707 C 4709.05 -4.12613 -6.37049 0
M  V30 31708 O 4708.84 -3.72827 -4.97879 0
M  V30 31709 C 4707.65 -4.45085 -6.88694 0
M  V30 31710 O 4707.26 -5.7877 -6.5624 0
M  V30 31711 C 4706.77 -3.47817 -6.12078 0
M  V30 31712 C 4707.48 -3.39414 -4.77697 0
M  V30 31713 N 4707.43 -2.04199 -4.15538 0
M  V30 31714 H 4710.27 -3.41248 -7.98759 0
M  V30 31715 H 4710.54 -2.57728 -6.42 0
M  V30 31716 H 4709.68 -5.02657 -6.42673 0
M  V30 31717 H 4707.02 -4.11708 -4.08956 0
M  V30 31718 H 4706.74 -2.49626 -6.61679 0
M  V30 31719 H 4705.75 -3.8662 -6.00862 0
M  V30 31720 H 4707.58 -4.29991 -7.97006 0
M  V30 31721 P 4705.71 -6.144 -6.45285 0
M  V30 31722 O 4705.49 -7.54673 -6.86199 0
M  V30 31723 O 4704.92 -5.12391 -7.179 0
M  V30 31724 O 4705.46 -5.99158 -4.88404 0
M  V30 31725 C 4706.4 -6.60234 -3.96415 0
M  V30 31726 C 4705.67 -7.08259 -2.72856 0
M  V30 31727 O 4705.46 -5.9427 -1.83651 0
M  V30 31728 C 4704.27 -7.64886 -2.9555 0
M  V30 31729 O 4703.88 -8.53963 -1.90717 0
M  V30 31730 C 4703.39 -6.4116 -2.90739 0
M  V30 31731 C 4704.1 -5.55375 -1.86963 0
M  V30 31732 N 4704.05 -4.09448 -2.16152 0
M  V30 31733 H 4706.89 -7.45574 -4.45629 0
M  V30 31734 H 4707.16 -5.85864 -3.679 0
M  V30 31735 H 4706.3 -7.84412 -2.24479 0
M  V30 31736 H 4703.64 -5.73457 -0.888562 0
M  V30 31737 H 4703.36 -5.90877 -3.88583 0
M  V30 31738 H 4702.37 -6.6596 -2.58858 0
M  V30 31739 H 4704.2 -8.16339 -3.92049 0
M  V30 31740 P 4702.33 -8.7635 -1.60911 0
M  V30 31741 O 4702.11 -10.1388 -1.11561 0
M  V30 31742 O 4701.54 -8.36503 -2.79617 0
M  V30 31743 O 4702.08 -7.71806 -0.42951 0
M  V30 31744 C 4703.02 -7.67148 0.673689 0
M  V30 31745 C 4702.29 -7.33374 1.95559 0
M  V30 31746 O 4702.08 -5.88721 2.00726 0
M  V30 31747 C 4700.89 -7.92526 2.10483 0
M  V30 31748 O 4700.5 -8.02971 3.47653 0
M  V30 31749 C 4700.01 -6.89602 1.41652 0
M  V30 31750 C 4700.72 -5.59201 1.75185 0
M  V30 31751 N 4700.67 -4.58301 0.657969 0
M  V30 31752 H 4703.51 -8.65116 0.777161 0
M  V30 31753 H 4703.78 -6.9022 0.46725 0
M  V30 31754 H 4702.92 -7.66548 2.79458 0
M  V30 31755 H 4700.26 -5.16165 2.65183 0
M  V30 31756 H 4699.98 -7.06433 0.329384 0
M  V30 31757 H 4698.99 -6.90926 1.82021 0
M  V30 31758 H 4700.82 -8.90873 1.62657 0
M  V30 31759 P 4698.95 -8.03563 3.84925 0
M  V30 31760 O 4698.73 -8.85821 5.0569 0
M  V30 31761 O 4698.16 -8.41101 2.65469 0
M  V30 31762 O 4698.7 -6.4965 4.18908 0
M  V30 31763 C 4699.64 -5.81037 5.05421 0
M  V30 31764 C 4698.91 -4.78366 5.89277 0
M  V30 31765 O 4698.7 -3.58302 5.08433 0
M  V30 31766 C 4697.51 -5.17448 6.36119 0
M  V30 31767 O 4697.12 -4.45271 7.53232 0
M  V30 31768 C 4696.63 -4.74639 5.19936 0
M  V30 31769 C 4697.34 -3.49432 4.70418 0
M  V30 31770 N 4697.29 -3.31776 3.22945 0
M  V30 31771 H 4700.13 -6.54213 5.71376 0
M  V30 31772 H 4700.4 -5.30492 4.44033 0
M  V30 31773 H 4699.54 -4.55889 6.76652 0
M  V30 31774 P 4695.57 -4.23843 7.83734 0
M  V30 31775 O 4695.35 -4.19407 9.29784 0
M  V30 31776 O 4694.78 -5.24426 7.09156 0
M  V30 31777 O 4695.32 -2.7935 7.20758 0
M  V30 31778 C 4696.26 -1.7299 7.50419 0
M  V30 31779 C 4695.53 -0.406376 7.57911 0
M  V30 31780 O 4695.32 0.0897726 6.21935 0
M  V30 31781 C 4694.13 -0.447224 8.1878 0
M  V30 31782 O 4693.74 0.825065 8.71101 0
M  V30 31783 C 4693.25 -0.783801 6.99623 0
M  V30 31784 C 4693.96 -0.0619192 5.85967 0
M  V30 31785 N 4693.91 -0.7859 4.56281 0
M  V30 31786 H 4696.75 -1.93423 8.4679 0
M  V30 31787 H 4697.02 -1.68181 6.71046 0
M  V30 31788 H 4696.16 0.289041 8.15388 0
M  V30 31789 P 4692.19 1.17771 8.83182 0
M  V30 31790 O 4691.97 2.07206 9.98732 0
M  V30 31791 O 4691.4 -0.0743816 8.81969 0
M  V30 31792 O 4691.94 1.97652 7.47304 0
M  V30 31793 C 4692.88 3.01133 7.08783 0
M  V30 31794 C 4692.15 4.12613 6.37049 0
M  V30 31795 O 4691.94 3.72827 4.97879 0
M  V30 31796 C 4690.75 4.45085 6.88694 0
M  V30 31797 O 4690.36 5.7877 6.5624 0
M  V30 31798 C 4689.87 3.47817 6.12078 0
M  V30 31799 C 4690.58 3.39414 4.77697 0
M  V30 31800 N 4690.53 2.04615 4.15333 0
M  V30 31801 H 4693.37 3.41248 7.98759 0
M  V30 31802 H 4693.64 2.5837 6.41742 0
M  V30 31803 H 4692.78 5.02657 6.42673 0
M  V30 31804 P 4688.81 6.144 6.45285 0
M  V30 31805 O 4688.59 7.54673 6.86199 0
M  V30 31806 O 4688.02 5.12391 7.179 0
M  V30 31807 O 4688.56 5.99158 4.88404 0
M  V30 31808 C 4689.5 6.60234 3.96415 0
M  V30 31809 C 4688.77 7.08259 2.72856 0
M  V30 31810 O 4688.56 5.9427 1.83651 0
M  V30 31811 C 4687.37 7.64886 2.9555 0
M  V30 31812 O 4686.98 8.53963 1.90717 0
M  V30 31813 C 4686.49 6.4116 2.90739 0
M  V30 31814 C 4687.2 5.55375 1.86963 0
M  V30 31815 N 4687.15 4.09448 2.16152 0
M  V30 31816 H 4689.99 7.45574 4.45629 0
M  V30 31817 H 4690.26 5.85864 3.679 0
M  V30 31818 H 4689.4 7.84412 2.24479 0
M  V30 31819 H 4686.74 5.73457 0.888562 0
M  V30 31820 H 4686.46 5.90877 3.88583 0
M  V30 31821 H 4685.47 6.6596 2.58858 0
M  V30 31822 H 4687.3 8.16339 3.92049 0
M  V30 31823 P 4685.43 8.7635 1.60911 0
M  V30 31824 O 4685.21 10.1388 1.11561 0
M  V30 31825 O 4684.64 8.36503 2.79617 0
M  V30 31826 O 4685.18 7.71906 0.429565 0
M  V30 31827 C 4686.12 7.67148 -0.673689 0
M  V30 31828 C 4685.39 7.33666 -1.94851 0
M  V30 31829 O 4685.18 5.88816 -2.00759 0
M  V30 31830 C 4683.99 7.92526 -2.10483 0
M  V30 31831 O 4683.6 8.03063 -3.47693 0
M  V30 31832 C 4683.11 6.89602 -1.41652 0
M  V30 31833 C 4683.82 5.59201 -1.75185 0
M  V30 31834 N 4683.77 4.58235 -0.662552 0
M  V30 31835 C 4683.62 3.24451 -1.01643 0
M  V30 31836 O 4683.53 2.94958 -2.21722 0
M  V30 31837 N 4683.57 2.30408 0.165238 0
M  V30 31838 C 4683.67 2.66048 1.25118 0
M  V30 31839 N 4683.62 1.70787 2.16813 0
M  V30 31840 C 4683.82 4.02732 1.64413 0
M  V30 31841 C 4683.87 4.9488 0.63991 0
M  V30 31842 H 4686.61 8.65017 -0.777072 0
M  V30 31843 H 4686.88 6.90173 -0.474152 0
M  V30 31844 H 4686.02 7.66642 -2.79492 0
M  V30 31845 H 4683.36 5.16254 -2.65229 0
M  V30 31846 H 4683.08 7.06532 -0.329431 0
M  V30 31847 H 4682.09 6.91023 -1.82047 0
M  V30 31848 H 4683.92 8.90873 -1.62657 0
M  V30 31849 H 4684 6.00104 0.892197 0
M  V30 31850 H 4683.89 4.31733 2.69229 0
M  V30 31851 H 4683.51 0.724835 1.8844 0
M  V30 31852 H 4683.7 1.94716 3.16734 0
M  V30 31853 P 4682.05 8.03563 -3.84925 0
M  V30 31854 O 4681.83 8.85821 -5.0569 0
M  V30 31855 O 4681.26 8.41101 -2.65469 0
M  V30 31856 O 4681.8 6.4965 -4.18908 0
M  V30 31857 C 4682.74 5.81037 -5.05421 0
M  V30 31858 C 4682.01 4.78366 -5.89277 0
M  V30 31859 O 4681.8 3.58302 -5.08433 0
M  V30 31860 C 4680.61 5.17448 -6.36119 0
M  V30 31861 O 4680.22 4.45271 -7.53232 0
M  V30 31862 C 4679.73 4.74639 -5.19936 0
M  V30 31863 C 4680.44 3.49432 -4.70418 0
M  V30 31864 N 4680.39 3.32099 -3.22613 0
M  V30 31865 H 4683.23 6.54213 -5.71376 0
M  V30 31866 H 4683.5 5.30936 -4.43503 0
M  V30 31867 H 4682.64 4.55889 -6.76652 0
M  V30 31868 H 4679.98 2.61715 -5.17932 0
M  V30 31869 H 4679.7 5.52155 -4.41878 0
M  V30 31870 H 4678.71 4.51981 -5.53374 0
M  V30 31871 H 4680.54 6.25124 -6.55234 0
M  V30 31872 P 4678.67 4.23843 -7.83734 0
M  V30 31873 O 4678.45 4.19407 -9.29784 0
M  V30 31874 O 4677.88 5.24426 -7.09156 0
M  V30 31875 O 4678.42 2.7935 -7.20758 0
M  V30 31876 C 4679.36 1.7299 -7.50419 0
M  V30 31877 C 4678.63 0.406376 -7.57911 0
M  V30 31878 O 4678.42 -0.0897726 -6.21935 0
M  V30 31879 C 4677.23 0.447224 -8.1878 0
M  V30 31880 O 4676.84 -0.825065 -8.71101 0
M  V30 31881 C 4676.35 0.783801 -6.99623 0
M  V30 31882 C 4677.06 0.0619192 -5.85967 0
M  V30 31883 N 4677.01 0.7859 -4.56281 0
M  V30 31884 H 4679.85 1.93423 -8.4679 0
M  V30 31885 H 4680.12 1.68181 -6.71046 0
M  V30 31886 H 4679.26 -0.289041 -8.15388 0
M  V30 31887 P 4675.29 -1.17771 -8.83182 0
M  V30 31888 O 4675.07 -2.07206 -9.98732 0
M  V30 31889 O 4674.5 0.0743816 -8.81969 0
M  V30 31890 O 4675.04 -1.97652 -7.47304 0
M  V30 31891 C 4675.98 -3.01133 -7.08783 0
M  V30 31892 C 4675.25 -4.12613 -6.37049 0
M  V30 31893 O 4675.04 -3.72827 -4.97879 0
M  V30 31894 C 4673.85 -4.45085 -6.88694 0
M  V30 31895 O 4673.46 -5.7877 -6.5624 0
M  V30 31896 C 4672.97 -3.47817 -6.12078 0
M  V30 31897 C 4673.68 -3.39414 -4.77697 0
M  V30 31898 N 4673.63 -2.04199 -4.15538 0
M  V30 31899 H 4676.47 -3.41248 -7.98759 0
M  V30 31900 H 4676.74 -2.57728 -6.42 0
M  V30 31901 H 4675.88 -5.02657 -6.42673 0
M  V30 31902 H 4673.22 -4.11708 -4.08956 0
M  V30 31903 H 4672.94 -2.49626 -6.61679 0
M  V30 31904 H 4671.95 -3.8662 -6.00862 0
M  V30 31905 H 4673.78 -4.29991 -7.97006 0
M  V30 31906 P 4671.91 -6.144 -6.45285 0
M  V30 31907 O 4671.69 -7.54673 -6.86199 0
M  V30 31908 O 4671.12 -5.12391 -7.179 0
M  V30 31909 O 4671.66 -5.99158 -4.88404 0
M  V30 31910 C 4672.6 -6.60234 -3.96415 0
M  V30 31911 C 4671.87 -7.08259 -2.72856 0
M  V30 31912 O 4671.66 -5.9427 -1.83651 0
M  V30 31913 C 4670.47 -7.64886 -2.9555 0
M  V30 31914 O 4670.08 -8.53963 -1.90717 0
M  V30 31915 C 4669.59 -6.4116 -2.90739 0
M  V30 31916 C 4670.3 -5.55375 -1.86963 0
M  V30 31917 N 4670.25 -4.09448 -2.16152 0
M  V30 31918 H 4673.09 -7.45574 -4.45629 0
M  V30 31919 H 4673.36 -5.85864 -3.679 0
M  V30 31920 H 4672.5 -7.84412 -2.24479 0
M  V30 31921 H 4669.84 -5.73457 -0.888562 0
M  V30 31922 H 4669.56 -5.90877 -3.88583 0
M  V30 31923 H 4668.57 -6.6596 -2.58858 0
M  V30 31924 H 4670.4 -8.16339 -3.92049 0
M  V30 31925 P 4668.53 -8.7635 -1.60911 0
M  V30 31926 O 4668.31 -10.1388 -1.11561 0
M  V30 31927 O 4667.74 -8.36503 -2.79617 0
M  V30 31928 O 4668.28 -7.71806 -0.42951 0
M  V30 31929 C 4669.22 -7.66948 0.673514 0
M  V30 31930 C 4668.49 -7.33374 1.95559 0
M  V30 31931 O 4668.28 -5.88721 2.00726 0
M  V30 31932 C 4667.09 -7.92218 2.1125 0
M  V30 31933 O 4666.7 -8.02971 3.47653 0
M  V30 31934 C 4666.21 -6.89504 1.41631 0
M  V30 31935 C 4666.92 -5.59106 1.75155 0
M  V30 31936 N 4666.87 -4.58136 0.662409 0
M  V30 31937 C 4666.72 -3.26059 1.02863 0
M  V30 31938 O 4666.63 -2.90743 2.19009 0
M  V30 31939 N 4666.68 -2.35995 -0.0155585 0
M  V30 31940 C 4666.77 -2.65248 -1.35603 0
M  V30 31941 O 4666.72 -1.75605 -2.20651 0
M  V30 31942 C 4666.92 -4.05747 -1.64698 0
M  V30 31943 C 4667.03 -4.42345 -3.09553 0
M  V30 31944 C 4666.97 -4.96734 -0.652411 0
M  V30 31945 H 4669.71 -8.64917 0.776982 0
M  V30 31946 H 4669.98 -6.89974 0.474015 0
M  V30 31947 H 4669.12 -7.66548 2.79458 0
M  V30 31948 H 4666.46 -5.16076 2.65138 0
M  V30 31949 H 4666.18 -7.06433 0.329384 0
M  V30 31950 H 4665.19 -6.90829 1.81996 0
M  V30 31951 H 4667.02 -8.90774 1.62639 0
M  V30 31952 H 4667.09 -6.02181 -0.895285 0
M  V30 31953 H 4666.06 -4.80252 -3.45468 0
M  V30 31954 H 4667.8 -5.20015 -3.22119 0
M  V30 31955 H 4667.31 -3.53269 -3.67833 0
M  V30 31956 H 4666.58 -1.39558 0.227499 0
M  V30 31957 P 4665.15 -8.03563 3.84925 0
M  V30 31958 O 4664.93 -8.85821 5.0569 0
M  V30 31959 O 4664.36 -8.41101 2.65469 0
M  V30 31960 O 4664.9 -6.4965 4.18908 0
M  V30 31961 C 4665.84 -5.81037 5.05421 0
M  V30 31962 C 4665.11 -4.78366 5.89277 0
M  V30 31963 O 4664.9 -3.58302 5.08433 0
M  V30 31964 C 4663.71 -5.17448 6.36119 0
M  V30 31965 O 4663.32 -4.45271 7.53232 0
M  V30 31966 C 4662.83 -4.74639 5.19936 0
M  V30 31967 C 4663.54 -3.49432 4.70418 0
M  V30 31968 N 4663.49 -3.31776 3.22945 0
M  V30 31969 H 4666.33 -6.54213 5.71376 0
M  V30 31970 H 4666.6 -5.30492 4.44033 0
M  V30 31971 H 4665.74 -4.55889 6.76652 0
M  V30 31972 P 4661.77 -4.23843 7.83734 0
M  V30 31973 O 4661.55 -4.19407 9.29784 0
M  V30 31974 O 4660.98 -5.24426 7.09156 0
M  V30 31975 O 4661.52 -2.7935 7.20758 0
M  V30 31976 C 4662.46 -1.7299 7.50419 0
M  V30 31977 C 4661.73 -0.406376 7.57911 0
M  V30 31978 O 4661.52 0.0897726 6.21935 0
M  V30 31979 C 4660.33 -0.447224 8.1878 0
M  V30 31980 O 4659.94 0.825065 8.71101 0
M  V30 31981 C 4659.45 -0.783801 6.99623 0
M  V30 31982 C 4660.16 -0.0619192 5.85967 0
M  V30 31983 N 4660.11 -0.7859 4.56281 0
M  V30 31984 H 4662.95 -1.93423 8.4679 0
M  V30 31985 H 4663.22 -1.68181 6.71046 0
M  V30 31986 H 4662.36 0.289041 8.15388 0
M  V30 31987 P 4658.39 1.17771 8.83182 0
M  V30 31988 O 4658.17 2.07206 9.98732 0
M  V30 31989 O 4657.6 -0.0743816 8.81969 0
M  V30 31990 O 4658.14 1.97652 7.47304 0
M  V30 31991 C 4659.08 3.01133 7.08783 0
M  V30 31992 C 4658.35 4.12613 6.37049 0
M  V30 31993 O 4658.14 3.72827 4.97879 0
M  V30 31994 C 4656.95 4.45085 6.88694 0
M  V30 31995 O 4656.56 5.7877 6.5624 0
M  V30 31996 C 4656.07 3.47817 6.12078 0
M  V30 31997 C 4656.78 3.39414 4.77697 0
M  V30 31998 N 4656.73 2.04199 4.15538 0
M  V30 31999 H 4659.57 3.41248 7.98759 0
M  V30 32000 H 4659.84 2.57728 6.42 0
M  V30 32001 H 4658.98 5.02657 6.42673 0
M  V30 32002 H 4656.32 4.11708 4.08956 0
M  V30 32003 H 4656.04 2.49626 6.61679 0
M  V30 32004 H 4655.05 3.8662 6.00862 0
M  V30 32005 H 4656.88 4.29991 7.97006 0
M  V30 32006 P 4655.01 6.144 6.45285 0
M  V30 32007 O 4654.79 7.54673 6.86199 0
M  V30 32008 O 4654.22 5.12391 7.179 0
M  V30 32009 O 4654.76 5.99158 4.88404 0
M  V30 32010 C 4655.7 6.60234 3.96415 0
M  V30 32011 C 4654.97 7.08259 2.72856 0
M  V30 32012 O 4654.76 5.9427 1.83651 0
M  V30 32013 C 4653.57 7.64886 2.9555 0
M  V30 32014 O 4653.18 8.53963 1.90717 0
M  V30 32015 C 4652.69 6.4116 2.90739 0
M  V30 32016 C 4653.4 5.55375 1.86963 0
M  V30 32017 N 4653.35 4.09448 2.16152 0
M  V30 32018 H 4656.19 7.45574 4.45629 0
M  V30 32019 H 4656.46 5.85864 3.679 0
M  V30 32020 H 4655.6 7.84412 2.24479 0
M  V30 32021 H 4652.94 5.73457 0.888562 0
M  V30 32022 H 4652.66 5.90877 3.88583 0
M  V30 32023 H 4651.67 6.6596 2.58858 0
M  V30 32024 H 4653.5 8.16339 3.92049 0
M  V30 32025 P 4651.63 8.7635 1.60911 0
M  V30 32026 O 4651.41 10.1388 1.11561 0
M  V30 32027 O 4650.84 8.36503 2.79617 0
M  V30 32028 O 4651.38 7.71806 0.42951 0
M  V30 32029 C 4652.32 7.67148 -0.673689 0
M  V30 32030 C 4651.59 7.33374 -1.95559 0
M  V30 32031 O 4651.38 5.88721 -2.00726 0
M  V30 32032 C 4650.19 7.92526 -2.10483 0
M  V30 32033 O 4649.8 8.02971 -3.47653 0
M  V30 32034 C 4649.31 6.89602 -1.41652 0
M  V30 32035 C 4650.02 5.59201 -1.75185 0
M  V30 32036 N 4649.97 4.58235 -0.662552 0
M  V30 32037 H 4652.81 8.65116 -0.777161 0
M  V30 32038 H 4653.08 6.90173 -0.474152 0
M  V30 32039 H 4652.22 7.66548 -2.79458 0
M  V30 32040 P 4648.25 8.03563 -3.84925 0
M  V30 32041 O 4648.03 8.85821 -5.0569 0
M  V30 32042 O 4647.46 8.41101 -2.65469 0
M  V30 32043 O 4648 6.4965 -4.18908 0
M  V30 32044 C 4648.94 5.81037 -5.05421 0
M  V30 32045 C 4648.21 4.78366 -5.89277 0
M  V30 32046 O 4648 3.58302 -5.08433 0
M  V30 32047 C 4646.81 5.17448 -6.36119 0
M  V30 32048 O 4646.42 4.45271 -7.53232 0
M  V30 32049 C 4645.93 4.74639 -5.19936 0
M  V30 32050 C 4646.64 3.49432 -4.70418 0
M  V30 32051 N 4646.59 3.31776 -3.22945 0
M  V30 32052 H 4649.43 6.54213 -5.71376 0
M  V30 32053 H 4649.7 5.30492 -4.44033 0
M  V30 32054 H 4648.84 4.55889 -6.76652 0
M  V30 32055 P 4644.87 4.23843 -7.83734 0
M  V30 32056 O 4644.65 4.19407 -9.29784 0
M  V30 32057 O 4644.08 5.24426 -7.09156 0
M  V30 32058 O 4644.62 2.7935 -7.20758 0
M  V30 32059 C 4645.56 1.7299 -7.50419 0
M  V30 32060 C 4644.83 0.406376 -7.57911 0
M  V30 32061 O 4644.62 -0.0897726 -6.21935 0
M  V30 32062 C 4643.43 0.447224 -8.1878 0
M  V30 32063 O 4643.04 -0.825065 -8.71101 0
M  V30 32064 C 4642.55 0.783801 -6.99623 0
M  V30 32065 C 4643.26 0.0619192 -5.85967 0
M  V30 32066 N 4643.21 0.790462 -4.56202 0
M  V30 32067 H 4646.05 1.93423 -8.4679 0
M  V30 32068 H 4646.32 1.68852 -6.70877 0
M  V30 32069 H 4645.46 -0.289041 -8.15388 0
M  V30 32070 H 4642.8 -0.927006 -5.72848 0
M  V30 32071 H 4642.52 1.86973 -6.82036 0
M  V30 32072 H 4641.53 0.403953 -7.13357 0
M  V30 32073 H 4643.36 1.20599 -8.97534 0
M  V30 32074 P 4641.49 -1.17771 -8.83182 0
M  V30 32075 O 4641.27 -2.07206 -9.98732 0
M  V30 32076 O 4640.7 0.0743816 -8.81969 0
M  V30 32077 O 4641.24 -1.97652 -7.47304 0
M  V30 32078 C 4642.18 -3.01133 -7.08783 0
M  V30 32079 C 4641.45 -4.12613 -6.37049 0
M  V30 32080 O 4641.24 -3.72827 -4.97879 0
M  V30 32081 C 4640.05 -4.45085 -6.88694 0
M  V30 32082 O 4639.66 -5.7877 -6.5624 0
M  V30 32083 C 4639.17 -3.47817 -6.12078 0
M  V30 32084 C 4639.88 -3.39414 -4.77697 0
M  V30 32085 N 4639.83 -2.04199 -4.15538 0
M  V30 32086 H 4642.67 -3.41248 -7.98759 0
M  V30 32087 H 4642.94 -2.57728 -6.42 0
M  V30 32088 H 4642.08 -5.02657 -6.42673 0
M  V30 32089 H 4639.42 -4.11708 -4.08956 0
M  V30 32090 H 4639.14 -2.49626 -6.61679 0
M  V30 32091 H 4638.15 -3.8662 -6.00862 0
M  V30 32092 H 4639.98 -4.29991 -7.97006 0
M  V30 32093 P 4638.11 -6.144 -6.45285 0
M  V30 32094 O 4637.89 -7.54673 -6.86199 0
M  V30 32095 O 4637.32 -5.12391 -7.179 0
M  V30 32096 O 4637.86 -5.99158 -4.88404 0
M  V30 32097 C 4638.8 -6.60234 -3.96415 0
M  V30 32098 C 4638.07 -7.08259 -2.72856 0
M  V30 32099 O 4637.86 -5.9427 -1.83651 0
M  V30 32100 C 4636.67 -7.64886 -2.9555 0
M  V30 32101 O 4636.28 -8.53963 -1.90717 0
M  V30 32102 C 4635.79 -6.4116 -2.90739 0
M  V30 32103 C 4636.5 -5.55375 -1.86963 0
M  V30 32104 N 4636.45 -4.09664 -2.15742 0
M  V30 32105 H 4639.29 -7.45574 -4.45629 0
M  V30 32106 H 4639.56 -5.86232 -3.67314 0
M  V30 32107 H 4638.7 -7.84412 -2.24479 0
M  V30 32108 P 4634.73 -8.7635 -1.60911 0
M  V30 32109 O 4634.51 -10.1388 -1.11561 0
M  V30 32110 O 4633.94 -8.36503 -2.79617 0
M  V30 32111 O 4634.48 -7.71806 -0.42951 0
M  V30 32112 C 4635.42 -7.67148 0.673689 0
M  V30 32113 C 4634.69 -7.33374 1.95559 0
M  V30 32114 O 4634.48 -5.88721 2.00726 0
M  V30 32115 C 4633.29 -7.92526 2.10483 0
M  V30 32116 O 4632.9 -8.02971 3.47653 0
M  V30 32117 C 4632.41 -6.89602 1.41652 0
M  V30 32118 C 4633.12 -5.59201 1.75185 0
M  V30 32119 N 4633.07 -4.58235 0.662552 0
M  V30 32120 H 4635.91 -8.65116 0.777161 0
M  V30 32121 H 4636.18 -6.90173 0.474152 0
M  V30 32122 H 4635.32 -7.66548 2.79458 0
M  V30 32123 P 4631.35 -8.03563 3.84925 0
M  V30 32124 O 4631.13 -8.85821 5.0569 0
M  V30 32125 O 4630.56 -8.41101 2.65469 0
M  V30 32126 O 4631.1 -6.4965 4.18908 0
M  V30 32127 C 4632.04 -5.81037 5.05421 0
M  V30 32128 C 4631.31 -4.78366 5.89277 0
M  V30 32129 O 4631.1 -3.58302 5.08433 0
M  V30 32130 C 4629.91 -5.17448 6.36119 0
M  V30 32131 O 4629.52 -4.45271 7.53232 0
M  V30 32132 C 4629.03 -4.74639 5.19936 0
M  V30 32133 C 4629.74 -3.49432 4.70418 0
M  V30 32134 N 4629.69 -3.32099 3.22613 0
M  V30 32135 H 4632.53 -6.54213 5.71376 0
M  V30 32136 H 4632.8 -5.30936 4.43503 0
M  V30 32137 H 4631.94 -4.55889 6.76652 0
M  V30 32138 H 4629.28 -2.61715 5.17932 0
M  V30 32139 H 4629 -5.52155 4.41878 0
M  V30 32140 H 4628.01 -4.51981 5.53374 0
M  V30 32141 H 4629.84 -6.25124 6.55234 0
M  V30 32142 P 4627.97 -4.23843 7.83734 0
M  V30 32143 O 4627.75 -4.19407 9.29784 0
M  V30 32144 O 4627.18 -5.24426 7.09156 0
M  V30 32145 O 4627.72 -2.7935 7.20758 0
M  V30 32146 C 4628.66 -1.7299 7.50419 0
M  V30 32147 C 4627.93 -0.406376 7.57911 0
M  V30 32148 O 4627.72 0.0897726 6.21935 0
M  V30 32149 C 4626.53 -0.447224 8.1878 0
M  V30 32150 O 4626.14 0.825065 8.71101 0
M  V30 32151 C 4625.65 -0.783801 6.99623 0
M  V30 32152 C 4626.36 -0.0619192 5.85967 0
M  V30 32153 N 4626.31 -0.7859 4.56281 0
M  V30 32154 H 4629.15 -1.93423 8.4679 0
M  V30 32155 H 4629.42 -1.68181 6.71046 0
M  V30 32156 H 4628.56 0.289041 8.15388 0
M  V30 32157 P 4624.59 1.17771 8.83182 0
M  V30 32158 O 4624.37 2.07206 9.98732 0
M  V30 32159 O 4623.8 -0.0743816 8.81969 0
M  V30 32160 O 4624.34 1.97652 7.47304 0
M  V30 32161 C 4625.28 3.01133 7.08783 0
M  V30 32162 C 4624.55 4.12613 6.37049 0
M  V30 32163 O 4624.34 3.72827 4.97879 0
M  V30 32164 C 4623.15 4.45085 6.88694 0
M  V30 32165 O 4622.76 5.7877 6.5624 0
M  V30 32166 C 4622.27 3.47817 6.12078 0
M  V30 32167 C 4622.98 3.39414 4.77697 0
M  V30 32168 N 4622.93 2.04615 4.15333 0
M  V30 32169 H 4625.77 3.41248 7.98759 0
M  V30 32170 H 4626.04 2.5837 6.41742 0
M  V30 32171 H 4625.18 5.02657 6.42673 0
M  V30 32172 P 4621.21 6.144 6.45285 0
M  V30 32173 O 4620.99 7.54673 6.86199 0
M  V30 32174 O 4620.42 5.12391 7.179 0
M  V30 32175 O 4620.96 5.99158 4.88404 0
M  V30 32176 C 4621.9 6.60234 3.96415 0
M  V30 32177 C 4621.17 7.08259 2.72856 0
M  V30 32178 O 4620.96 5.9427 1.83651 0
M  V30 32179 C 4619.77 7.64886 2.9555 0
M  V30 32180 O 4619.38 8.53963 1.90717 0
M  V30 32181 C 4618.89 6.4116 2.90739 0
M  V30 32182 C 4619.6 5.55375 1.86963 0
M  V30 32183 N 4619.55 4.09448 2.16152 0
M  V30 32184 H 4622.39 7.45574 4.45629 0
M  V30 32185 H 4622.66 5.85864 3.679 0
M  V30 32186 H 4621.8 7.84412 2.24479 0
M  V30 32187 H 4619.14 5.73457 0.888562 0
M  V30 32188 H 4618.86 5.90877 3.88583 0
M  V30 32189 H 4617.87 6.6596 2.58858 0
M  V30 32190 H 4619.7 8.16339 3.92049 0
M  V30 32191 P 4617.83 8.7635 1.60911 0
M  V30 32192 O 4617.61 10.1388 1.11561 0
M  V30 32193 O 4617.04 8.36503 2.79617 0
M  V30 32194 O 4617.58 7.71806 0.42951 0
M  V30 32195 C 4618.52 7.67148 -0.673689 0
M  V30 32196 C 4617.79 7.33374 -1.95559 0
M  V30 32197 O 4617.58 5.88721 -2.00726 0
M  V30 32198 C 4616.39 7.92526 -2.10483 0
M  V30 32199 O 4616 8.02971 -3.47653 0
M  V30 32200 C 4615.51 6.89602 -1.41652 0
M  V30 32201 C 4616.22 5.59201 -1.75185 0
M  V30 32202 N 4616.17 4.58235 -0.662552 0
M  V30 32203 H 4619.01 8.65116 -0.777161 0
M  V30 32204 H 4619.28 6.90173 -0.474152 0
M  V30 32205 H 4618.42 7.66548 -2.79458 0
M  V30 32206 P 4614.45 8.03563 -3.84925 0
M  V30 32207 O 4614.23 8.85821 -5.0569 0
M  V30 32208 O 4613.66 8.41101 -2.65469 0
M  V30 32209 O 4614.2 6.4965 -4.18908 0
M  V30 32210 C 4615.14 5.81037 -5.05421 0
M  V30 32211 C 4614.41 4.78366 -5.89277 0
M  V30 32212 O 4614.2 3.58302 -5.08433 0
M  V30 32213 C 4613.01 5.17448 -6.36119 0
M  V30 32214 O 4612.62 4.45271 -7.53232 0
M  V30 32215 C 4612.13 4.74639 -5.19936 0
M  V30 32216 C 4612.84 3.49432 -4.70418 0
M  V30 32217 N 4612.79 3.32099 -3.22613 0
M  V30 32218 H 4615.63 6.54213 -5.71376 0
M  V30 32219 H 4615.9 5.30936 -4.43503 0
M  V30 32220 H 4615.04 4.55889 -6.76652 0
M  V30 32221 H 4612.38 2.61715 -5.17932 0
M  V30 32222 H 4612.1 5.52155 -4.41878 0
M  V30 32223 H 4611.11 4.51981 -5.53374 0
M  V30 32224 H 4612.94 6.25124 -6.55234 0
M  V30 32225 P 4611.07 4.23843 -7.83734 0
M  V30 32226 O 4610.85 4.19407 -9.29784 0
M  V30 32227 O 4610.28 5.24426 -7.09156 0
M  V30 32228 O 4610.82 2.7935 -7.20758 0
M  V30 32229 C 4611.76 1.7299 -7.50419 0
M  V30 32230 C 4611.03 0.406376 -7.57911 0
M  V30 32231 O 4610.82 -0.0897726 -6.21935 0
M  V30 32232 C 4609.63 0.447224 -8.1878 0
M  V30 32233 O 4609.24 -0.825065 -8.71101 0
M  V30 32234 C 4608.75 0.783801 -6.99623 0
M  V30 32235 C 4609.46 0.0619192 -5.85967 0
M  V30 32236 N 4609.41 0.7859 -4.56281 0
M  V30 32237 H 4612.25 1.93423 -8.4679 0
M  V30 32238 H 4612.52 1.68181 -6.71046 0
M  V30 32239 H 4611.66 -0.289041 -8.15388 0
M  V30 32240 P 4607.69 -1.17771 -8.83182 0
M  V30 32241 O 4607.47 -2.07206 -9.98732 0
M  V30 32242 O 4606.9 0.0743816 -8.81969 0
M  V30 32243 O 4607.44 -1.97652 -7.47304 0
M  V30 32244 C 4608.38 -3.01133 -7.08783 0
M  V30 32245 C 4607.65 -4.12613 -6.37049 0
M  V30 32246 O 4607.44 -3.72827 -4.97879 0
M  V30 32247 C 4606.25 -4.45085 -6.88694 0
M  V30 32248 O 4605.86 -5.7877 -6.5624 0
M  V30 32249 C 4605.37 -3.47817 -6.12078 0
M  V30 32250 C 4606.08 -3.39414 -4.77697 0
M  V30 32251 N 4606.03 -2.04199 -4.15538 0
M  V30 32252 H 4608.87 -3.41248 -7.98759 0
M  V30 32253 H 4609.14 -2.57728 -6.42 0
M  V30 32254 H 4608.28 -5.02657 -6.42673 0
M  V30 32255 H 4605.62 -4.11708 -4.08956 0
M  V30 32256 H 4605.34 -2.49626 -6.61679 0
M  V30 32257 H 4604.35 -3.8662 -6.00862 0
M  V30 32258 H 4606.18 -4.29991 -7.97006 0
M  V30 32259 P 4604.31 -6.144 -6.45285 0
M  V30 32260 O 4604.09 -7.54673 -6.86199 0
M  V30 32261 O 4603.52 -5.12391 -7.179 0
M  V30 32262 O 4604.06 -5.99158 -4.88404 0
M  V30 32263 C 4605 -6.60234 -3.96415 0
M  V30 32264 C 4604.27 -7.08259 -2.72856 0
M  V30 32265 O 4604.06 -5.9427 -1.83651 0
M  V30 32266 C 4602.87 -7.64886 -2.9555 0
M  V30 32267 O 4602.48 -8.53963 -1.90717 0
M  V30 32268 C 4601.99 -6.4116 -2.90739 0
M  V30 32269 C 4602.7 -5.55375 -1.86963 0
M  V30 32270 N 4602.65 -4.09664 -2.15742 0
M  V30 32271 H 4605.49 -7.45574 -4.45629 0
M  V30 32272 H 4605.76 -5.86232 -3.67314 0
M  V30 32273 H 4604.9 -7.84412 -2.24479 0
M  V30 32274 P 4600.93 -8.7635 -1.60911 0
M  V30 32275 O 4600.71 -10.1388 -1.11561 0
M  V30 32276 O 4600.14 -8.36503 -2.79617 0
M  V30 32277 O 4600.68 -7.71806 -0.42951 0
M  V30 32278 C 4601.62 -7.67148 0.673689 0
M  V30 32279 C 4600.89 -7.33374 1.95559 0
M  V30 32280 O 4600.68 -5.88721 2.00726 0
M  V30 32281 C 4599.49 -7.92526 2.10483 0
M  V30 32282 O 4599.1 -8.02971 3.47653 0
M  V30 32283 C 4598.61 -6.89602 1.41652 0
M  V30 32284 C 4599.32 -5.59201 1.75185 0
M  V30 32285 N 4599.27 -4.58301 0.657969 0
M  V30 32286 H 4602.11 -8.65116 0.777161 0
M  V30 32287 H 4602.38 -6.9022 0.46725 0
M  V30 32288 H 4601.52 -7.66548 2.79458 0
M  V30 32289 H 4598.86 -5.16165 2.65183 0
M  V30 32290 H 4598.58 -7.06433 0.329384 0
M  V30 32291 H 4597.59 -6.90926 1.82021 0
M  V30 32292 H 4599.42 -8.90873 1.62657 0
M  V30 32293 P 4597.55 -8.03563 3.84925 0
M  V30 32294 O 4597.33 -8.85821 5.0569 0
M  V30 32295 O 4596.76 -8.41101 2.65469 0
M  V30 32296 O 4597.3 -6.4965 4.18908 0
M  V30 32297 C 4598.24 -5.81037 5.05421 0
M  V30 32298 C 4597.51 -4.78366 5.89277 0
M  V30 32299 O 4597.3 -3.58302 5.08433 0
M  V30 32300 C 4596.11 -5.17448 6.36119 0
M  V30 32301 O 4595.72 -4.45271 7.53232 0
M  V30 32302 C 4595.23 -4.74639 5.19936 0
M  V30 32303 C 4595.94 -3.49432 4.70418 0
M  V30 32304 N 4595.89 -3.32099 3.22613 0
M  V30 32305 C 4595.97 -4.28245 2.25527 0
M  V30 32306 N 4595.9 -3.80823 1.04874 0
M  V30 32307 C 4595.75 -2.44571 1.23535 0
M  V30 32308 C 4595.62 -1.37068 0.330675 0
M  V30 32309 N 4595.61 -1.51472 -0.990824 0
M  V30 32310 N 4595.5 -0.138614 0.848756 0
M  V30 32311 C 4595.51 0.00675923 2.16999 0
M  V30 32312 N 4595.63 -0.904372 3.11122 0
M  V30 32313 C 4595.75 -2.12707 2.56212 0
M  V30 32314 H 4598.73 -6.54213 5.71376 0
M  V30 32315 H 4599 -5.30936 4.43503 0
M  V30 32316 H 4598.14 -4.55889 6.76652 0
M  V30 32317 H 4595.48 -2.61715 5.17932 0
M  V30 32318 H 4595.2 -5.52155 4.41878 0
M  V30 32319 H 4594.21 -4.51981 5.53374 0
M  V30 32320 H 4596.04 -6.25124 6.55234 0
M  V30 32321 H 4596.08 -5.34372 2.47488 0
M  V30 32322 H 4595.7 -2.45153 -1.4078 0
M  V30 32323 H 4595.51 -0.688422 -1.59911 0
M  V30 32324 H 4595.41 1.02584 2.52346 0
M  V30 32325 P 4594.17 -4.23843 7.83734 0
M  V30 32326 O 4593.95 -4.19407 9.29784 0
M  V30 32327 O 4593.38 -5.24426 7.09156 0
M  V30 32328 O 4593.92 -2.7935 7.20758 0
M  V30 32329 C 4594.86 -1.7299 7.50419 0
M  V30 32330 C 4594.13 -0.406376 7.57911 0
M  V30 32331 O 4593.92 0.0897726 6.21935 0
M  V30 32332 C 4592.73 -0.447224 8.1878 0
M  V30 32333 O 4592.34 0.825065 8.71101 0
M  V30 32334 C 4591.85 -0.783801 6.99623 0
M  V30 32335 C 4592.56 -0.0619192 5.85967 0
M  V30 32336 N 4592.51 -0.790462 4.56202 0
M  V30 32337 H 4595.35 -1.93423 8.4679 0
M  V30 32338 H 4595.62 -1.68852 6.70877 0
M  V30 32339 H 4594.76 0.289041 8.15388 0
M  V30 32340 H 4592.1 0.927006 5.72848 0
M  V30 32341 H 4591.82 -1.86973 6.82036 0
M  V30 32342 H 4590.83 -0.403953 7.13357 0
M  V30 32343 H 4592.66 -1.20599 8.97534 0
M  V30 32344 P 4590.79 1.17771 8.83182 0
M  V30 32345 O 4590.57 2.07206 9.98732 0
M  V30 32346 O 4590 -0.0743816 8.81969 0
M  V30 32347 O 4590.54 1.97652 7.47304 0
M  V30 32348 C 4591.48 3.01133 7.08783 0
M  V30 32349 C 4590.75 4.12613 6.37049 0
M  V30 32350 O 4590.54 3.72827 4.97879 0
M  V30 32351 C 4589.35 4.45085 6.88694 0
M  V30 32352 O 4588.96 5.7877 6.5624 0
M  V30 32353 C 4588.47 3.47817 6.12078 0
M  V30 32354 C 4589.18 3.39414 4.77697 0
M  V30 32355 N 4589.13 2.04199 4.15538 0
M  V30 32356 C 4589.21 0.821545 4.76977 0
M  V30 32357 N 4589.14 -0.1794 3.94592 0
M  V30 32358 C 4588.99 0.419121 2.70776 0
M  V30 32359 C 4588.86 -0.109072 1.40577 0
M  V30 32360 N 4588.85 -1.4104 1.1344 0
M  V30 32361 N 4588.74 0.764381 0.39411 0
M  V30 32362 C 4588.75 2.06587 0.664135 0
M  V30 32363 N 4588.87 2.67948 1.82153 0
M  V30 32364 C 4588.99 1.77942 2.8147 0
M  V30 32365 H 4591.97 3.41248 7.98759 0
M  V30 32366 H 4592.24 2.57728 6.42 0
M  V30 32367 H 4591.38 5.02657 6.42673 0
M  V30 32368 H 4588.72 4.11708 4.08956 0
M  V30 32369 H 4588.44 2.49626 6.61679 0
M  V30 32370 H 4587.45 3.8662 6.00862 0
M  V30 32371 H 4589.28 4.29991 7.97006 0
M  V30 32372 H 4589.32 0.702451 5.84696 0
M  V30 32373 H 4588.94 -2.09647 1.89651 0
M  V30 32374 H 4588.75 -1.73358 0.160575 0
M  V30 32375 H 4588.65 2.71695 -0.195838 0
M  V30 32376 P 4587.41 6.144 6.45285 0
M  V30 32377 O 4587.19 7.54673 6.86199 0
M  V30 32378 O 4586.62 5.12391 7.179 0
M  V30 32379 O 4587.16 5.99158 4.88404 0
M  V30 32380 C 4588.1 6.60234 3.96415 0
M  V30 32381 C 4587.37 7.08259 2.72856 0
M  V30 32382 O 4587.16 5.9427 1.83651 0
M  V30 32383 C 4585.97 7.64886 2.9555 0
M  V30 32384 O 4585.58 8.53963 1.90717 0
M  V30 32385 C 4585.09 6.4116 2.90739 0
M  V30 32386 C 4585.8 5.55375 1.86963 0
M  V30 32387 N 4585.75 4.09448 2.16152 0
M  V30 32388 H 4588.59 7.45574 4.45629 0
M  V30 32389 H 4588.86 5.85864 3.679 0
M  V30 32390 H 4588 7.84412 2.24479 0
M  V30 32391 H 4585.34 5.73457 0.888562 0
M  V30 32392 H 4585.06 5.90877 3.88583 0
M  V30 32393 H 4584.07 6.6596 2.58858 0
M  V30 32394 H 4585.9 8.16339 3.92049 0
M  V30 32395 P 4584.03 8.7635 1.60911 0
M  V30 32396 O 4583.81 10.1388 1.11561 0
M  V30 32397 O 4583.24 8.36503 2.79617 0
M  V30 32398 O 4583.78 7.71806 0.42951 0
M  V30 32399 C 4584.72 7.67148 -0.673689 0
M  V30 32400 C 4583.99 7.33374 -1.95559 0
M  V30 32401 O 4583.78 5.88721 -2.00726 0
M  V30 32402 C 4582.59 7.92526 -2.10483 0
M  V30 32403 O 4582.2 8.02971 -3.47653 0
M  V30 32404 C 4581.71 6.89602 -1.41652 0
M  V30 32405 C 4582.42 5.59201 -1.75185 0
M  V30 32406 N 4582.37 4.58235 -0.662552 0
M  V30 32407 H 4585.21 8.65116 -0.777161 0
M  V30 32408 H 4585.48 6.90173 -0.474152 0
M  V30 32409 H 4584.62 7.66548 -2.79458 0
M  V30 32410 P 4580.65 8.03563 -3.84925 0
M  V30 32411 O 4580.43 8.85821 -5.0569 0
M  V30 32412 O 4579.86 8.41101 -2.65469 0
M  V30 32413 O 4580.4 6.4965 -4.18908 0
M  V30 32414 C 4581.34 5.81037 -5.05421 0
M  V30 32415 C 4580.61 4.78366 -5.89277 0
M  V30 32416 O 4580.4 3.58302 -5.08433 0
M  V30 32417 C 4579.21 5.17448 -6.36119 0
M  V30 32418 O 4578.82 4.45271 -7.53232 0
M  V30 32419 C 4578.33 4.74639 -5.19936 0
M  V30 32420 C 4579.04 3.49432 -4.70418 0
M  V30 32421 N 4578.99 3.31776 -3.22945 0
M  V30 32422 H 4581.83 6.54213 -5.71376 0
M  V30 32423 H 4582.1 5.30492 -4.44033 0
M  V30 32424 H 4581.24 4.55889 -6.76652 0
M  V30 32425 P 4577.27 4.23843 -7.83734 0
M  V30 32426 O 4577.05 4.19407 -9.29784 0
M  V30 32427 O 4576.48 5.24426 -7.09156 0
M  V30 32428 O 4577.02 2.7935 -7.20758 0
M  V30 32429 C 4577.96 1.7299 -7.50419 0
M  V30 32430 C 4577.23 0.406376 -7.57911 0
M  V30 32431 O 4577.02 -0.0897726 -6.21935 0
M  V30 32432 C 4575.83 0.447224 -8.1878 0
M  V30 32433 O 4575.44 -0.825065 -8.71101 0
M  V30 32434 C 4574.95 0.783801 -6.99623 0
M  V30 32435 C 4575.66 0.0619192 -5.85967 0
M  V30 32436 N 4575.61 0.790462 -4.56202 0
M  V30 32437 H 4578.45 1.93423 -8.4679 0
M  V30 32438 H 4578.72 1.68852 -6.70877 0
M  V30 32439 H 4577.86 -0.289041 -8.15388 0
M  V30 32440 H 4575.2 -0.927006 -5.72848 0
M  V30 32441 H 4574.92 1.86973 -6.82036 0
M  V30 32442 H 4573.93 0.403953 -7.13357 0
M  V30 32443 H 4575.76 1.20599 -8.97534 0
M  V30 32444 P 4573.89 -1.17771 -8.83182 0
M  V30 32445 O 4573.67 -2.07206 -9.98732 0
M  V30 32446 O 4573.1 0.0743816 -8.81969 0
M  V30 32447 O 4573.64 -1.97652 -7.47304 0
M  V30 32448 C 4574.58 -3.01055 -7.08599 0
M  V30 32449 C 4573.85 -4.12613 -6.37049 0
M  V30 32450 O 4573.64 -3.72827 -4.97879 0
M  V30 32451 C 4572.45 -4.45719 -6.88164 0
M  V30 32452 O 4572.06 -5.7877 -6.5624 0
M  V30 32453 C 4571.57 -3.47768 -6.11991 0
M  V30 32454 C 4572.28 -3.39356 -4.77615 0
M  V30 32455 N 4572.23 -2.04571 -4.15244 0
M  V30 32456 C 4572.08 -1.98587 -2.78314 0
M  V30 32457 O 4571.99 -2.98134 -2.08835 0
M  V30 32458 N 4572.04 -0.714467 -2.24925 0
M  V30 32459 C 4572.13 0.470001 -2.94169 0
M  V30 32460 O 4572.08 1.55587 -2.35195 0
M  V30 32461 C 4572.28 0.312541 -4.36783 0
M  V30 32462 C 4572.39 1.57711 -5.16352 0
M  V30 32463 C 4572.33 -0.914512 -4.92583 0
M  V30 32464 H 4575.07 -3.41169 -7.98575 0
M  V30 32465 H 4575.34 -2.58295 -6.41556 0
M  V30 32466 H 4574.48 -5.02657 -6.42673 0
M  V30 32467 H 4571.82 -4.11637 -4.08885 0
M  V30 32468 H 4571.54 -2.49626 -6.61679 0
M  V30 32469 H 4570.55 -3.86566 -6.00778 0
M  V30 32470 H 4572.38 -4.29943 -7.96918 0
M  V30 32471 H 4572.45 -1.00937 -6.00374 0
M  V30 32472 H 4571.42 1.80153 -5.63503 0
M  V30 32473 H 4573.16 1.4566 -5.94104 0
M  V30 32474 H 4572.67 2.40664 -4.49645 0
M  V30 32475 H 4571.94 -0.647622 -1.25697 0
M  V30 32476 P 4570.51 -6.144 -6.45285 0
M  V30 32477 O 4570.29 -7.54673 -6.86199 0
M  V30 32478 O 4569.72 -5.12391 -7.179 0
M  V30 32479 O 4570.26 -5.99158 -4.88404 0
M  V30 32480 C 4571.2 -6.60234 -3.96415 0
M  V30 32481 C 4570.47 -7.08259 -2.72856 0
M  V30 32482 O 4570.26 -5.9427 -1.83651 0
M  V30 32483 C 4569.07 -7.64886 -2.9555 0
M  V30 32484 O 4568.68 -8.53963 -1.90717 0
M  V30 32485 C 4568.19 -6.4116 -2.90739 0
M  V30 32486 C 4568.9 -5.55375 -1.86963 0
M  V30 32487 N 4568.85 -4.09448 -2.16152 0
M  V30 32488 H 4571.69 -7.45574 -4.45629 0
M  V30 32489 H 4571.96 -5.85864 -3.679 0
M  V30 32490 H 4571.1 -7.84412 -2.24479 0
M  V30 32491 H 4568.44 -5.73457 -0.888562 0
M  V30 32492 H 4568.16 -5.90877 -3.88583 0
M  V30 32493 H 4567.17 -6.6596 -2.58858 0
M  V30 32494 H 4569 -8.16339 -3.92049 0
M  V30 32495 P 4567.13 -8.7635 -1.60911 0
M  V30 32496 O 4566.91 -10.1388 -1.11561 0
M  V30 32497 O 4566.34 -8.36503 -2.79617 0
M  V30 32498 O 4566.88 -7.71806 -0.42951 0
M  V30 32499 C 4567.82 -7.67148 0.673689 0
M  V30 32500 C 4567.09 -7.33374 1.95559 0
M  V30 32501 O 4566.88 -5.88721 2.00726 0
M  V30 32502 C 4565.69 -7.92526 2.10483 0
M  V30 32503 O 4565.3 -8.02971 3.47653 0
M  V30 32504 C 4564.81 -6.89602 1.41652 0
M  V30 32505 C 4565.52 -5.59201 1.75185 0
M  V30 32506 N 4565.47 -4.58301 0.657969 0
M  V30 32507 H 4568.31 -8.65116 0.777161 0
M  V30 32508 H 4568.58 -6.9022 0.46725 0
M  V30 32509 H 4567.72 -7.66548 2.79458 0
M  V30 32510 H 4565.06 -5.16165 2.65183 0
M  V30 32511 H 4564.78 -7.06433 0.329384 0
M  V30 32512 H 4563.79 -6.90926 1.82021 0
M  V30 32513 H 4565.62 -8.90873 1.62657 0
M  V30 32514 P 4563.75 -8.03563 3.84925 0
M  V30 32515 O 4563.53 -8.85821 5.0569 0
M  V30 32516 O 4562.96 -8.41101 2.65469 0
M  V30 32517 O 4563.5 -6.4965 4.18908 0
M  V30 32518 C 4564.44 -5.81037 5.05421 0
M  V30 32519 C 4563.71 -4.78366 5.89277 0
M  V30 32520 O 4563.5 -3.58302 5.08433 0
M  V30 32521 C 4562.31 -5.17448 6.36119 0
M  V30 32522 O 4561.92 -4.45271 7.53232 0
M  V30 32523 C 4561.43 -4.74639 5.19936 0
M  V30 32524 C 4562.14 -3.49432 4.70418 0
M  V30 32525 N 4562.09 -3.31776 3.22945 0
M  V30 32526 H 4564.93 -6.54213 5.71376 0
M  V30 32527 H 4565.2 -5.30492 4.44033 0
M  V30 32528 H 4564.34 -4.55889 6.76652 0
M  V30 32529 P 4560.37 -4.23843 7.83734 0
M  V30 32530 O 4560.15 -4.19407 9.29784 0
M  V30 32531 O 4559.58 -5.24426 7.09156 0
M  V30 32532 O 4560.12 -2.7935 7.20758 0
M  V30 32533 C 4561.06 -1.7299 7.50419 0
M  V30 32534 C 4560.33 -0.406376 7.57911 0
M  V30 32535 O 4560.12 0.0897726 6.21935 0
M  V30 32536 C 4558.93 -0.447224 8.1878 0
M  V30 32537 O 4558.54 0.825065 8.71101 0
M  V30 32538 C 4558.05 -0.783801 6.99623 0
M  V30 32539 C 4558.76 -0.0619192 5.85967 0
M  V30 32540 N 4558.71 -0.7859 4.56281 0
M  V30 32541 H 4561.55 -1.93423 8.4679 0
M  V30 32542 H 4561.82 -1.68181 6.71046 0
M  V30 32543 H 4560.96 0.289041 8.15388 0
M  V30 32544 P 4556.99 1.17771 8.83182 0
M  V30 32545 O 4556.77 2.07206 9.98732 0
M  V30 32546 O 4556.2 -0.0743816 8.81969 0
M  V30 32547 O 4556.74 1.97652 7.47304 0
M  V30 32548 C 4557.68 3.01133 7.08783 0
M  V30 32549 C 4556.95 4.12613 6.37049 0
M  V30 32550 O 4556.74 3.72827 4.97879 0
M  V30 32551 C 4555.55 4.45085 6.88694 0
M  V30 32552 O 4555.16 5.7877 6.5624 0
M  V30 32553 C 4554.67 3.47817 6.12078 0
M  V30 32554 C 4555.38 3.39414 4.77697 0
M  V30 32555 N 4555.33 2.04615 4.15333 0
M  V30 32556 H 4558.17 3.41248 7.98759 0
M  V30 32557 H 4558.44 2.5837 6.41742 0
M  V30 32558 H 4557.58 5.02657 6.42673 0
M  V30 32559 P 4553.61 6.144 6.45285 0
M  V30 32560 O 4553.39 7.54673 6.86199 0
M  V30 32561 O 4552.82 5.12391 7.179 0
M  V30 32562 O 4553.36 5.99158 4.88404 0
M  V30 32563 C 4554.3 6.60234 3.96415 0
M  V30 32564 C 4553.57 7.08259 2.72856 0
M  V30 32565 O 4553.36 5.9427 1.83651 0
M  V30 32566 C 4552.17 7.64886 2.9555 0
M  V30 32567 O 4551.78 8.53963 1.90717 0
M  V30 32568 C 4551.29 6.4116 2.90739 0
M  V30 32569 C 4552 5.55375 1.86963 0
M  V30 32570 N 4551.95 4.09448 2.16152 0
M  V30 32571 H 4554.79 7.45574 4.45629 0
M  V30 32572 H 4555.06 5.85864 3.679 0
M  V30 32573 H 4554.2 7.84412 2.24479 0
M  V30 32574 H 4551.54 5.73457 0.888562 0
M  V30 32575 H 4551.26 5.90877 3.88583 0
M  V30 32576 H 4550.27 6.6596 2.58858 0
M  V30 32577 H 4552.1 8.16339 3.92049 0
M  V30 32578 P 4550.23 8.7635 1.60911 0
M  V30 32579 O 4550.01 10.1388 1.11561 0
M  V30 32580 O 4549.44 8.36503 2.79617 0
M  V30 32581 O 4549.98 7.71806 0.42951 0
M  V30 32582 C 4550.92 7.67148 -0.673689 0
M  V30 32583 C 4550.19 7.33374 -1.95559 0
M  V30 32584 O 4549.98 5.88721 -2.00726 0
M  V30 32585 C 4548.79 7.92526 -2.10483 0
M  V30 32586 O 4548.4 8.02971 -3.47653 0
M  V30 32587 C 4547.91 6.89602 -1.41652 0
M  V30 32588 C 4548.62 5.59201 -1.75185 0
M  V30 32589 N 4548.57 4.58235 -0.662552 0
M  V30 32590 H 4551.41 8.65116 -0.777161 0
M  V30 32591 H 4551.68 6.90173 -0.474152 0
M  V30 32592 H 4550.82 7.66548 -2.79458 0
M  V30 32593 P 4546.85 8.03563 -3.84925 0
M  V30 32594 O 4546.63 8.85821 -5.0569 0
M  V30 32595 O 4546.06 8.41101 -2.65469 0
M  V30 32596 O 4546.6 6.4965 -4.18908 0
M  V30 32597 C 4547.54 5.81037 -5.05421 0
M  V30 32598 C 4546.81 4.78366 -5.89277 0
M  V30 32599 O 4546.6 3.58302 -5.08433 0
M  V30 32600 C 4545.41 5.17448 -6.36119 0
M  V30 32601 O 4545.02 4.45271 -7.53232 0
M  V30 32602 C 4544.53 4.74639 -5.19936 0
M  V30 32603 C 4545.24 3.49432 -4.70418 0
M  V30 32604 N 4545.19 3.32099 -3.22613 0
M  V30 32605 H 4548.03 6.54213 -5.71376 0
M  V30 32606 H 4548.3 5.30936 -4.43503 0
M  V30 32607 H 4547.44 4.55889 -6.76652 0
M  V30 32608 H 4544.78 2.61715 -5.17932 0
M  V30 32609 H 4544.5 5.52155 -4.41878 0
M  V30 32610 H 4543.51 4.51981 -5.53374 0
M  V30 32611 H 4545.34 6.25124 -6.55234 0
M  V30 32612 P 4543.47 4.23843 -7.83734 0
M  V30 32613 O 4543.25 4.19407 -9.29784 0
M  V30 32614 O 4542.68 5.24426 -7.09156 0
M  V30 32615 O 4543.22 2.7935 -7.20758 0
M  V30 32616 C 4544.16 1.7299 -7.50419 0
M  V30 32617 C 4543.43 0.406376 -7.57911 0
M  V30 32618 O 4543.22 -0.0897726 -6.21935 0
M  V30 32619 C 4542.03 0.447224 -8.1878 0
M  V30 32620 O 4541.64 -0.825065 -8.71101 0
M  V30 32621 C 4541.15 0.783801 -6.99623 0
M  V30 32622 C 4541.86 0.0619192 -5.85967 0
M  V30 32623 N 4541.81 0.790462 -4.56202 0
M  V30 32624 H 4544.65 1.93423 -8.4679 0
M  V30 32625 H 4544.92 1.68852 -6.70877 0
M  V30 32626 H 4544.06 -0.289041 -8.15388 0
M  V30 32627 H 4541.4 -0.927006 -5.72848 0
M  V30 32628 H 4541.12 1.86973 -6.82036 0
M  V30 32629 H 4540.13 0.403953 -7.13357 0
M  V30 32630 H 4541.96 1.20599 -8.97534 0
M  V30 32631 P 4540.09 -1.17771 -8.83182 0
M  V30 32632 O 4539.87 -2.07206 -9.98732 0
M  V30 32633 O 4539.3 0.0743816 -8.81969 0
M  V30 32634 O 4539.84 -1.97652 -7.47304 0
M  V30 32635 C 4540.78 -3.01133 -7.08783 0
M  V30 32636 C 4540.05 -4.12613 -6.37049 0
M  V30 32637 O 4539.84 -3.72827 -4.97879 0
M  V30 32638 C 4538.65 -4.45085 -6.88694 0
M  V30 32639 O 4538.26 -5.7877 -6.5624 0
M  V30 32640 C 4537.77 -3.47817 -6.12078 0
M  V30 32641 C 4538.48 -3.39414 -4.77697 0
M  V30 32642 N 4538.43 -2.04199 -4.15538 0
M  V30 32643 C 4538.51 -0.821545 -4.76977 0
M  V30 32644 N 4538.44 0.1794 -3.94592 0
M  V30 32645 C 4538.29 -0.419121 -2.70776 0
M  V30 32646 C 4538.16 0.109072 -1.40577 0
M  V30 32647 N 4538.15 1.4104 -1.1344 0
M  V30 32648 N 4538.04 -0.764381 -0.39411 0
M  V30 32649 C 4538.05 -2.06587 -0.664135 0
M  V30 32650 N 4538.17 -2.67948 -1.82153 0
M  V30 32651 C 4538.29 -1.77942 -2.8147 0
M  V30 32652 H 4541.27 -3.41248 -7.98759 0
M  V30 32653 H 4541.54 -2.57728 -6.42 0
M  V30 32654 H 4540.68 -5.02657 -6.42673 0
M  V30 32655 H 4538.02 -4.11708 -4.08956 0
M  V30 32656 H 4537.74 -2.49626 -6.61679 0
M  V30 32657 H 4536.75 -3.8662 -6.00862 0
M  V30 32658 H 4538.58 -4.29991 -7.97006 0
M  V30 32659 H 4538.63 -0.702451 -5.84696 0
M  V30 32660 H 4538.24 2.09647 -1.89651 0
M  V30 32661 H 4538.06 1.73358 -0.160575 0
M  V30 32662 H 4537.95 -2.71695 0.195838 0
M  V30 32663 P 4536.71 -6.144 -6.45285 0
M  V30 32664 O 4536.49 -7.54673 -6.86199 0
M  V30 32665 O 4535.92 -5.12391 -7.179 0
M  V30 32666 O 4536.46 -5.99158 -4.88404 0
M  V30 32667 C 4537.4 -6.60234 -3.96415 0
M  V30 32668 C 4536.67 -7.08259 -2.72856 0
M  V30 32669 O 4536.46 -5.9427 -1.83651 0
M  V30 32670 C 4535.27 -7.64886 -2.9555 0
M  V30 32671 O 4534.88 -8.53963 -1.90717 0
M  V30 32672 C 4534.39 -6.4116 -2.90739 0
M  V30 32673 C 4535.1 -5.55375 -1.86963 0
M  V30 32674 N 4535.05 -4.09448 -2.16152 0
M  V30 32675 H 4537.89 -7.45574 -4.45629 0
M  V30 32676 H 4538.16 -5.85864 -3.679 0
M  V30 32677 H 4537.3 -7.84412 -2.24479 0
M  V30 32678 H 4534.64 -5.73457 -0.888562 0
M  V30 32679 H 4534.36 -5.90877 -3.88583 0
M  V30 32680 H 4533.37 -6.6596 -2.58858 0
M  V30 32681 H 4535.2 -8.16339 -3.92049 0
M  V30 32682 P 4533.33 -8.7635 -1.60911 0
M  V30 32683 O 4533.11 -10.1388 -1.11561 0
M  V30 32684 O 4532.54 -8.36503 -2.79617 0
M  V30 32685 O 4533.08 -7.71806 -0.42951 0
M  V30 32686 C 4534.02 -7.67148 0.673689 0
M  V30 32687 C 4533.29 -7.33374 1.95559 0
M  V30 32688 O 4533.08 -5.88721 2.00726 0
M  V30 32689 C 4531.89 -7.92526 2.10483 0
M  V30 32690 O 4531.5 -8.02971 3.47653 0
M  V30 32691 C 4531.01 -6.89602 1.41652 0
M  V30 32692 C 4531.72 -5.59201 1.75185 0
M  V30 32693 N 4531.67 -4.58235 0.662552 0
M  V30 32694 H 4534.51 -8.65116 0.777161 0
M  V30 32695 H 4534.78 -6.90173 0.474152 0
M  V30 32696 H 4533.92 -7.66548 2.79458 0
M  V30 32697 P 4529.95 -8.03563 3.84925 0
M  V30 32698 O 4529.73 -8.85821 5.0569 0
M  V30 32699 O 4529.16 -8.41101 2.65469 0
M  V30 32700 O 4529.7 -6.4965 4.18908 0
M  V30 32701 C 4530.64 -5.81037 5.05421 0
M  V30 32702 C 4529.91 -4.78366 5.89277 0
M  V30 32703 O 4529.7 -3.58302 5.08433 0
M  V30 32704 C 4528.51 -5.17448 6.36119 0
M  V30 32705 O 4528.12 -4.45271 7.53232 0
M  V30 32706 C 4527.63 -4.74639 5.19936 0
M  V30 32707 C 4528.34 -3.49432 4.70418 0
M  V30 32708 N 4528.29 -3.32099 3.22613 0
M  V30 32709 H 4531.13 -6.54213 5.71376 0
M  V30 32710 H 4531.4 -5.30936 4.43503 0
M  V30 32711 H 4530.54 -4.55889 6.76652 0
M  V30 32712 H 4527.88 -2.61715 5.17932 0
M  V30 32713 H 4527.6 -5.52155 4.41878 0
M  V30 32714 H 4526.61 -4.51981 5.53374 0
M  V30 32715 H 4528.44 -6.25124 6.55234 0
M  V30 32716 P 4526.57 -4.23843 7.83734 0
M  V30 32717 O 4526.35 -4.19407 9.29784 0
M  V30 32718 O 4525.78 -5.24426 7.09156 0
M  V30 32719 O 4526.32 -2.7935 7.20758 0
M  V30 32720 C 4527.26 -1.7299 7.50419 0
M  V30 32721 C 4526.53 -0.406376 7.57911 0
M  V30 32722 O 4526.32 0.0897726 6.21935 0
M  V30 32723 C 4525.13 -0.447224 8.1878 0
M  V30 32724 O 4524.74 0.825065 8.71101 0
M  V30 32725 C 4524.25 -0.783801 6.99623 0
M  V30 32726 C 4524.96 -0.0619192 5.85967 0
M  V30 32727 N 4524.91 -0.7859 4.56281 0
M  V30 32728 H 4527.75 -1.93423 8.4679 0
M  V30 32729 H 4528.02 -1.68181 6.71046 0
M  V30 32730 H 4527.16 0.289041 8.15388 0
M  V30 32731 P 4523.19 1.17771 8.83182 0
M  V30 32732 O 4522.97 2.07206 9.98732 0
M  V30 32733 O 4522.4 -0.0743816 8.81969 0
M  V30 32734 O 4522.94 1.97652 7.47304 0
M  V30 32735 C 4523.88 3.01133 7.08783 0
M  V30 32736 C 4523.15 4.12613 6.37049 0
M  V30 32737 O 4522.94 3.72827 4.97879 0
M  V30 32738 C 4521.75 4.45085 6.88694 0
M  V30 32739 O 4521.36 5.7877 6.5624 0
M  V30 32740 C 4520.87 3.47817 6.12078 0
M  V30 32741 C 4521.58 3.39414 4.77697 0
M  V30 32742 N 4521.53 2.04199 4.15538 0
M  V30 32743 H 4524.37 3.41248 7.98759 0
M  V30 32744 H 4524.64 2.57728 6.42 0
M  V30 32745 H 4523.78 5.02657 6.42673 0
M  V30 32746 H 4521.12 4.11708 4.08956 0
M  V30 32747 H 4520.84 2.49626 6.61679 0
M  V30 32748 H 4519.85 3.8662 6.00862 0
M  V30 32749 H 4521.68 4.29991 7.97006 0
M  V30 32750 P 4519.81 6.144 6.45285 0
M  V30 32751 O 4519.59 7.54673 6.86199 0
M  V30 32752 O 4519.02 5.12391 7.179 0
M  V30 32753 O 4519.56 5.99158 4.88404 0
M  V30 32754 C 4520.5 6.60234 3.96415 0
M  V30 32755 C 4519.77 7.08259 2.72856 0
M  V30 32756 O 4519.56 5.9427 1.83651 0
M  V30 32757 C 4518.37 7.64886 2.9555 0
M  V30 32758 O 4517.98 8.53963 1.90717 0
M  V30 32759 C 4517.49 6.4116 2.90739 0
M  V30 32760 C 4518.2 5.55375 1.86963 0
M  V30 32761 N 4518.15 4.09448 2.16152 0
M  V30 32762 H 4520.99 7.45574 4.45629 0
M  V30 32763 H 4521.26 5.85864 3.679 0
M  V30 32764 H 4520.4 7.84412 2.24479 0
M  V30 32765 H 4517.74 5.73457 0.888562 0
M  V30 32766 H 4517.46 5.90877 3.88583 0
M  V30 32767 H 4516.47 6.6596 2.58858 0
M  V30 32768 H 4518.3 8.16339 3.92049 0
M  V30 32769 P 4516.43 8.7635 1.60911 0
M  V30 32770 O 4516.21 10.1388 1.11561 0
M  V30 32771 O 4515.64 8.36503 2.79617 0
M  V30 32772 O 4516.18 7.71806 0.42951 0
M  V30 32773 C 4517.12 7.67148 -0.673689 0
M  V30 32774 C 4516.39 7.33374 -1.95559 0
M  V30 32775 O 4516.18 5.88721 -2.00726 0
M  V30 32776 C 4514.99 7.92526 -2.10483 0
M  V30 32777 O 4514.6 8.02971 -3.47653 0
M  V30 32778 C 4514.11 6.89602 -1.41652 0
M  V30 32779 C 4514.82 5.59201 -1.75185 0
M  V30 32780 N 4514.77 4.58235 -0.662552 0
M  V30 32781 H 4517.61 8.65116 -0.777161 0
M  V30 32782 H 4517.88 6.90173 -0.474152 0
M  V30 32783 H 4517.02 7.66548 -2.79458 0
M  V30 32784 P 4513.05 8.03563 -3.84925 0
M  V30 32785 O 4512.83 8.85821 -5.0569 0
M  V30 32786 O 4512.26 8.41101 -2.65469 0
M  V30 32787 O 4512.8 6.4965 -4.18908 0
M  V30 32788 C 4513.74 5.81037 -5.05421 0
M  V30 32789 C 4513.01 4.78366 -5.89277 0
M  V30 32790 O 4512.8 3.58302 -5.08433 0
M  V30 32791 C 4511.61 5.17448 -6.36119 0
M  V30 32792 O 4511.22 4.45271 -7.53232 0
M  V30 32793 C 4510.73 4.74639 -5.19936 0
M  V30 32794 C 4511.44 3.49432 -4.70418 0
M  V30 32795 N 4511.39 3.32099 -3.22613 0
M  V30 32796 H 4514.23 6.54213 -5.71376 0
M  V30 32797 H 4514.5 5.30936 -4.43503 0
M  V30 32798 H 4513.64 4.55889 -6.76652 0
M  V30 32799 H 4510.98 2.61715 -5.17932 0
M  V30 32800 H 4510.7 5.52155 -4.41878 0
M  V30 32801 H 4509.71 4.51981 -5.53374 0
M  V30 32802 H 4511.54 6.25124 -6.55234 0
M  V30 32803 P 4509.67 4.23843 -7.83734 0
M  V30 32804 O 4509.45 4.19407 -9.29784 0
M  V30 32805 O 4508.88 5.24426 -7.09156 0
M  V30 32806 O 4509.42 2.7935 -7.20758 0
M  V30 32807 C 4510.36 1.7299 -7.50419 0
M  V30 32808 C 4509.63 0.406376 -7.57911 0
M  V30 32809 O 4509.42 -0.0897726 -6.21935 0
M  V30 32810 C 4508.23 0.447224 -8.1878 0
M  V30 32811 O 4507.84 -0.825065 -8.71101 0
M  V30 32812 C 4507.35 0.783801 -6.99623 0
M  V30 32813 C 4508.06 0.0619192 -5.85967 0
M  V30 32814 N 4508.01 0.7859 -4.56281 0
M  V30 32815 H 4510.85 1.93423 -8.4679 0
M  V30 32816 H 4511.12 1.68181 -6.71046 0
M  V30 32817 H 4510.26 -0.289041 -8.15388 0
M  V30 32818 P 4506.29 -1.17771 -8.83182 0
M  V30 32819 O 4506.07 -2.07206 -9.98732 0
M  V30 32820 O 4505.5 0.0743816 -8.81969 0
M  V30 32821 O 4506.04 -1.97652 -7.47304 0
M  V30 32822 C 4506.98 -3.01133 -7.08783 0
M  V30 32823 C 4506.25 -4.12613 -6.37049 0
M  V30 32824 O 4506.04 -3.72827 -4.97879 0
M  V30 32825 C 4504.85 -4.45085 -6.88694 0
M  V30 32826 O 4504.46 -5.7877 -6.5624 0
M  V30 32827 C 4503.97 -3.47817 -6.12078 0
M  V30 32828 C 4504.68 -3.39414 -4.77697 0
M  V30 32829 N 4504.63 -2.04199 -4.15538 0
M  V30 32830 H 4507.47 -3.41248 -7.98759 0
M  V30 32831 H 4507.74 -2.57728 -6.42 0
M  V30 32832 H 4506.88 -5.02657 -6.42673 0
M  V30 32833 H 4504.22 -4.11708 -4.08956 0
M  V30 32834 H 4503.94 -2.49626 -6.61679 0
M  V30 32835 H 4502.95 -3.8662 -6.00862 0
M  V30 32836 H 4504.78 -4.29991 -7.97006 0
M  V30 32837 P 4502.91 -6.144 -6.45285 0
M  V30 32838 O 4502.69 -7.54673 -6.86199 0
M  V30 32839 O 4502.12 -5.12391 -7.179 0
M  V30 32840 O 4502.66 -5.99158 -4.88404 0
M  V30 32841 C 4503.6 -6.60234 -3.96415 0
M  V30 32842 C 4502.87 -7.08259 -2.72856 0
M  V30 32843 O 4502.66 -5.9427 -1.83651 0
M  V30 32844 C 4501.47 -7.64886 -2.9555 0
M  V30 32845 O 4501.08 -8.53963 -1.90717 0
M  V30 32846 C 4500.59 -6.4116 -2.90739 0
M  V30 32847 C 4501.3 -5.55375 -1.86963 0
M  V30 32848 N 4501.25 -4.09448 -2.16152 0
M  V30 32849 H 4504.09 -7.45574 -4.45629 0
M  V30 32850 H 4504.36 -5.85864 -3.679 0
M  V30 32851 H 4503.5 -7.84412 -2.24479 0
M  V30 32852 H 4500.84 -5.73457 -0.888562 0
M  V30 32853 H 4500.56 -5.90877 -3.88583 0
M  V30 32854 H 4499.57 -6.6596 -2.58858 0
M  V30 32855 H 4501.4 -8.16339 -3.92049 0
M  V30 32856 P 4499.53 -8.7635 -1.60911 0
M  V30 32857 O 4499.31 -10.1388 -1.11561 0
M  V30 32858 O 4498.74 -8.36503 -2.79617 0
M  V30 32859 O 4499.28 -7.71806 -0.42951 0
M  V30 32860 C 4500.22 -7.67148 0.673689 0
M  V30 32861 C 4499.49 -7.33374 1.95559 0
M  V30 32862 O 4499.28 -5.88721 2.00726 0
M  V30 32863 C 4498.09 -7.92526 2.10483 0
M  V30 32864 O 4497.7 -8.02971 3.47653 0
M  V30 32865 C 4497.21 -6.89602 1.41652 0
M  V30 32866 C 4497.92 -5.59201 1.75185 0
M  V30 32867 N 4497.87 -4.58301 0.657969 0
M  V30 32868 H 4500.71 -8.65116 0.777161 0
M  V30 32869 H 4500.98 -6.9022 0.46725 0
M  V30 32870 H 4500.12 -7.66548 2.79458 0
M  V30 32871 H 4497.46 -5.16165 2.65183 0
M  V30 32872 H 4497.18 -7.06433 0.329384 0
M  V30 32873 H 4496.19 -6.90926 1.82021 0
M  V30 32874 H 4498.02 -8.90873 1.62657 0
M  V30 32875 P 4496.15 -8.03563 3.84925 0
M  V30 32876 O 4495.93 -8.85821 5.0569 0
M  V30 32877 O 4495.36 -8.41101 2.65469 0
M  V30 32878 O 4495.9 -6.4965 4.18908 0
M  V30 32879 C 4496.84 -5.81037 5.05421 0
M  V30 32880 C 4496.11 -4.78366 5.89277 0
M  V30 32881 O 4495.9 -3.58302 5.08433 0
M  V30 32882 C 4494.71 -5.17448 6.36119 0
M  V30 32883 O 4494.32 -4.45271 7.53232 0
M  V30 32884 C 4493.83 -4.74639 5.19936 0
M  V30 32885 C 4494.54 -3.49432 4.70418 0
M  V30 32886 N 4494.49 -3.31776 3.22945 0
M  V30 32887 H 4497.33 -6.54213 5.71376 0
M  V30 32888 H 4497.6 -5.30492 4.44033 0
M  V30 32889 H 4496.74 -4.55889 6.76652 0
M  V30 32890 P 4492.77 -4.23843 7.83734 0
M  V30 32891 O 4492.55 -4.19407 9.29784 0
M  V30 32892 O 4491.98 -5.24426 7.09156 0
M  V30 32893 O 4492.52 -2.7935 7.20758 0
M  V30 32894 C 4493.46 -1.7299 7.50419 0
M  V30 32895 C 4492.73 -0.406376 7.57911 0
M  V30 32896 O 4492.52 0.0897726 6.21935 0
M  V30 32897 C 4491.33 -0.447224 8.1878 0
M  V30 32898 O 4490.94 0.825065 8.71101 0
M  V30 32899 C 4490.45 -0.783801 6.99623 0
M  V30 32900 C 4491.16 -0.0619192 5.85967 0
M  V30 32901 N 4491.11 -0.790462 4.56202 0
M  V30 32902 H 4493.95 -1.93423 8.4679 0
M  V30 32903 H 4494.22 -1.68852 6.70877 0
M  V30 32904 H 4493.36 0.289041 8.15388 0
M  V30 32905 H 4490.7 0.927006 5.72848 0
M  V30 32906 H 4490.42 -1.86973 6.82036 0
M  V30 32907 H 4489.43 -0.403953 7.13357 0
M  V30 32908 H 4491.26 -1.20599 8.97534 0
M  V30 32909 P 4489.39 1.17771 8.83182 0
M  V30 32910 O 4489.17 2.07206 9.98732 0
M  V30 32911 O 4488.6 -0.0743816 8.81969 0
M  V30 32912 O 4489.14 1.97652 7.47304 0
M  V30 32913 C 4490.08 3.01133 7.08783 0
M  V30 32914 C 4489.35 4.12613 6.37049 0
M  V30 32915 O 4489.14 3.72827 4.97879 0
M  V30 32916 C 4487.95 4.45085 6.88694 0
M  V30 32917 O 4487.56 5.7877 6.5624 0
M  V30 32918 C 4487.07 3.47817 6.12078 0
M  V30 32919 C 4487.78 3.39414 4.77697 0
M  V30 32920 N 4487.73 2.04615 4.15333 0
M  V30 32921 H 4490.57 3.41248 7.98759 0
M  V30 32922 H 4490.84 2.5837 6.41742 0
M  V30 32923 H 4489.98 5.02657 6.42673 0
M  V30 32924 P 4486.01 6.144 6.45285 0
M  V30 32925 O 4485.79 7.54673 6.86199 0
M  V30 32926 O 4485.22 5.12391 7.179 0
M  V30 32927 O 4485.76 5.99158 4.88404 0
M  V30 32928 C 4486.7 6.60234 3.96415 0
M  V30 32929 C 4485.97 7.08259 2.72856 0
M  V30 32930 O 4485.76 5.9427 1.83651 0
M  V30 32931 C 4484.57 7.64886 2.9555 0
M  V30 32932 O 4484.18 8.53963 1.90717 0
M  V30 32933 C 4483.69 6.4116 2.90739 0
M  V30 32934 C 4484.4 5.55375 1.86963 0
M  V30 32935 N 4484.35 4.09448 2.16152 0
M  V30 32936 C 4484.43 3.46824 3.37593 0
M  V30 32937 N 4484.36 2.17422 3.29777 0
M  V30 32938 C 4484.21 1.93065 1.94427 0
M  V30 32939 C 4484.08 0.738053 1.20141 0
M  V30 32940 N 4484.07 -0.474256 1.74676 0
M  V30 32941 N 4483.96 0.850049 -0.13045 0
M  V30 32942 C 4483.97 2.06169 -0.676992 0
M  V30 32943 N 4484.09 3.23842 -0.101312 0
M  V30 32944 C 4484.21 3.09402 1.23122 0
M  V30 32945 H 4487.19 7.45574 4.45629 0
M  V30 32946 H 4487.46 5.85864 3.679 0
M  V30 32947 H 4486.6 7.84412 2.24479 0
M  V30 32948 H 4483.94 5.73457 0.888562 0
M  V30 32949 H 4483.66 5.90877 3.88583 0
M  V30 32950 H 4482.67 6.6596 2.58858 0
M  V30 32951 H 4484.5 8.16339 3.92049 0
M  V30 32952 H 4484.55 4.00505 4.3174 0
M  V30 32953 H 4484.16 -0.581337 2.76658 0
M  V30 32954 H 4483.98 -1.30811 1.14888 0
M  V30 32955 H 4483.87 2.08295 -1.75542 0
M  V30 32956 P 4482.63 8.7635 1.60911 0
M  V30 32957 O 4482.41 10.1388 1.11561 0
M  V30 32958 O 4481.84 8.36503 2.79617 0
M  V30 32959 O 4482.38 7.71806 0.42951 0
M  V30 32960 C 4483.32 7.67148 -0.673689 0
M  V30 32961 C 4482.59 7.33374 -1.95559 0
M  V30 32962 O 4482.38 5.88721 -2.00726 0
M  V30 32963 C 4481.19 7.92526 -2.10483 0
M  V30 32964 O 4480.8 8.02971 -3.47653 0
M  V30 32965 C 4480.31 6.89602 -1.41652 0
M  V30 32966 C 4481.02 5.59201 -1.75185 0
M  V30 32967 N 4480.97 4.58235 -0.662552 0
M  V30 32968 H 4483.81 8.65116 -0.777161 0
M  V30 32969 H 4484.08 6.90173 -0.474152 0
M  V30 32970 H 4483.22 7.66548 -2.79458 0
M  V30 32971 P 4479.25 8.03563 -3.84925 0
M  V30 32972 O 4479.03 8.85821 -5.0569 0
M  V30 32973 O 4478.46 8.41101 -2.65469 0
M  V30 32974 O 4479 6.4965 -4.18908 0
M  V30 32975 C 4479.94 5.81037 -5.05421 0
M  V30 32976 C 4479.21 4.78366 -5.89277 0
M  V30 32977 O 4479 3.58302 -5.08433 0
M  V30 32978 C 4477.81 5.17448 -6.36119 0
M  V30 32979 O 4477.42 4.45271 -7.53232 0
M  V30 32980 C 4476.93 4.74639 -5.19936 0
M  V30 32981 C 4477.64 3.49432 -4.70418 0
M  V30 32982 N 4477.59 3.32099 -3.22613 0
M  V30 32983 H 4480.43 6.54213 -5.71376 0
M  V30 32984 H 4480.7 5.30936 -4.43503 0
M  V30 32985 H 4479.84 4.55889 -6.76652 0
M  V30 32986 H 4477.18 2.61715 -5.17932 0
M  V30 32987 H 4476.9 5.52155 -4.41878 0
M  V30 32988 H 4475.91 4.51981 -5.53374 0
M  V30 32989 H 4477.74 6.25124 -6.55234 0
M  V30 32990 P 4475.87 4.23843 -7.83734 0
M  V30 32991 O 4475.65 4.19407 -9.29784 0
M  V30 32992 O 4475.08 5.24426 -7.09156 0
M  V30 32993 O 4475.62 2.7935 -7.20758 0
M  V30 32994 C 4476.56 1.7299 -7.50419 0
M  V30 32995 C 4475.83 0.406376 -7.57911 0
M  V30 32996 O 4475.62 -0.0897726 -6.21935 0
M  V30 32997 C 4474.43 0.447224 -8.1878 0
M  V30 32998 O 4474.04 -0.825065 -8.71101 0
M  V30 32999 C 4473.55 0.783801 -6.99623 0
M  V30 33000 C 4474.26 0.0619192 -5.85967 0
M  V30 33001 N 4474.21 0.790462 -4.56202 0
M  V30 33002 C 4474.29 2.13895 -4.34171 0
M  V30 33003 N 4474.22 2.46449 -3.08687 0
M  V30 33004 C 4474.07 1.2525 -2.43697 0
M  V30 33005 C 4473.94 0.914535 -1.07318 0
M  V30 33006 N 4473.93 1.80782 -0.0887348 0
M  V30 33007 N 4473.82 -0.386745 -0.768133 0
M  V30 33008 C 4473.83 -1.28096 -1.75159 0
M  V30 33009 N 4473.95 -1.09708 -3.04861 0
M  V30 33010 C 4474.07 0.214857 -3.32306 0
M  V30 33011 H 4477.05 1.93423 -8.4679 0
M  V30 33012 H 4477.32 1.68852 -6.70877 0
M  V30 33013 H 4476.46 -0.289041 -8.15388 0
M  V30 33014 H 4473.8 -0.927006 -5.72848 0
M  V30 33015 H 4473.52 1.86973 -6.82036 0
M  V30 33016 H 4472.53 0.403953 -7.13357 0
M  V30 33017 H 4474.36 1.20599 -8.97534 0
M  V30 33018 H 4474.41 2.86846 -5.14318 0
M  V30 33019 H 4474.02 2.81082 -0.302037 0
M  V30 33020 H 4473.84 1.49688 0.889064 0
M  V30 33021 H 4473.73 -2.31317 -1.43855 0
M  V30 33022 P 4472.49 -1.17771 -8.83182 0
M  V30 33023 O 4472.27 -2.07206 -9.98732 0
M  V30 33024 O 4471.7 0.0743816 -8.81969 0
M  V30 33025 O 4472.24 -1.97652 -7.47304 0
M  V30 33026 C 4473.18 -3.01133 -7.08783 0
M  V30 33027 C 4472.45 -4.12613 -6.37049 0
M  V30 33028 O 4472.24 -3.72827 -4.97879 0
M  V30 33029 C 4471.05 -4.45085 -6.88694 0
M  V30 33030 O 4470.66 -5.7877 -6.5624 0
M  V30 33031 C 4470.17 -3.47817 -6.12078 0
M  V30 33032 C 4470.88 -3.39414 -4.77697 0
M  V30 33033 N 4470.83 -2.04199 -4.15538 0
M  V30 33034 H 4473.67 -3.41248 -7.98759 0
M  V30 33035 H 4473.94 -2.57728 -6.42 0
M  V30 33036 H 4473.08 -5.02657 -6.42673 0
M  V30 33037 H 4470.42 -4.11708 -4.08956 0
M  V30 33038 H 4470.14 -2.49626 -6.61679 0
M  V30 33039 H 4469.15 -3.8662 -6.00862 0
M  V30 33040 H 4470.98 -4.29991 -7.97006 0
M  V30 33041 P 4469.11 -6.144 -6.45285 0
M  V30 33042 O 4468.89 -7.54673 -6.86199 0
M  V30 33043 O 4468.32 -5.12391 -7.179 0
M  V30 33044 O 4468.86 -5.99158 -4.88404 0
M  V30 33045 C 4469.8 -6.60234 -3.96415 0
M  V30 33046 C 4469.07 -7.08259 -2.72856 0
M  V30 33047 O 4468.86 -5.9427 -1.83651 0
M  V30 33048 C 4467.67 -7.64886 -2.9555 0
M  V30 33049 O 4467.28 -8.53963 -1.90717 0
M  V30 33050 C 4466.79 -6.4116 -2.90739 0
M  V30 33051 C 4467.5 -5.55375 -1.86963 0
M  V30 33052 N 4467.45 -4.09448 -2.16152 0
M  V30 33053 C 4467.53 -3.46824 -3.37593 0
M  V30 33054 N 4467.46 -2.17422 -3.29777 0
M  V30 33055 C 4467.31 -1.93065 -1.94427 0
M  V30 33056 C 4467.18 -0.738053 -1.20141 0
M  V30 33057 N 4467.17 0.474256 -1.74676 0
M  V30 33058 N 4467.06 -0.850049 0.13045 0
M  V30 33059 C 4467.07 -2.06169 0.676992 0
M  V30 33060 N 4467.19 -3.23842 0.101312 0
M  V30 33061 C 4467.31 -3.09402 -1.23122 0
M  V30 33062 H 4470.29 -7.45574 -4.45629 0
M  V30 33063 H 4470.56 -5.85864 -3.679 0
M  V30 33064 H 4469.7 -7.84412 -2.24479 0
M  V30 33065 H 4467.04 -5.73457 -0.888562 0
M  V30 33066 H 4466.76 -5.90877 -3.88583 0
M  V30 33067 H 4465.77 -6.6596 -2.58858 0
M  V30 33068 H 4467.6 -8.16339 -3.92049 0
M  V30 33069 H 4467.65 -4.00505 -4.3174 0
M  V30 33070 H 4467.26 0.581337 -2.76658 0
M  V30 33071 H 4467.08 1.30811 -1.14888 0
M  V30 33072 H 4466.97 -2.08295 1.75542 0
M  V30 33073 P 4465.73 -8.7635 -1.60911 0
M  V30 33074 O 4465.51 -10.1388 -1.11561 0
M  V30 33075 O 4464.94 -8.36503 -2.79617 0
M  V30 33076 O 4465.48 -7.71806 -0.42951 0
M  V30 33077 C 4466.42 -7.66948 0.673514 0
M  V30 33078 C 4465.69 -7.33374 1.95559 0
M  V30 33079 O 4465.48 -5.88721 2.00726 0
M  V30 33080 C 4464.29 -7.92218 2.1125 0
M  V30 33081 O 4463.9 -8.02971 3.47653 0
M  V30 33082 C 4463.41 -6.89504 1.41631 0
M  V30 33083 C 4464.12 -5.59106 1.75155 0
M  V30 33084 N 4464.07 -4.58136 0.662409 0
M  V30 33085 C 4463.92 -3.26059 1.02863 0
M  V30 33086 O 4463.83 -2.90743 2.19009 0
M  V30 33087 N 4463.88 -2.35995 -0.0155585 0
M  V30 33088 C 4463.97 -2.65248 -1.35603 0
M  V30 33089 O 4463.92 -1.75605 -2.20651 0
M  V30 33090 C 4464.12 -4.05747 -1.64698 0
M  V30 33091 C 4464.23 -4.42345 -3.09553 0
M  V30 33092 C 4464.17 -4.96734 -0.652411 0
M  V30 33093 H 4466.91 -8.64917 0.776982 0
M  V30 33094 H 4467.18 -6.89974 0.474015 0
M  V30 33095 H 4466.32 -7.66548 2.79458 0
M  V30 33096 H 4463.66 -5.16076 2.65138 0
M  V30 33097 H 4463.38 -7.06433 0.329384 0
M  V30 33098 H 4462.39 -6.90829 1.81996 0
M  V30 33099 H 4464.22 -8.90774 1.62639 0
M  V30 33100 H 4464.3 -6.02181 -0.895285 0
M  V30 33101 H 4463.27 -4.80252 -3.45468 0
M  V30 33102 H 4465 -5.20015 -3.22119 0
M  V30 33103 H 4464.51 -3.53269 -3.67833 0
M  V30 33104 H 4463.78 -1.39558 0.227499 0
M  V30 33105 P 4462.35 -8.03563 3.84925 0
M  V30 33106 O 4462.13 -8.85821 5.0569 0
M  V30 33107 O 4461.56 -8.41101 2.65469 0
M  V30 33108 O 4462.1 -6.4965 4.18908 0
M  V30 33109 C 4463.04 -5.80886 5.05289 0
M  V30 33110 C 4462.31 -4.78366 5.89277 0
M  V30 33111 O 4462.1 -3.58302 5.08433 0
M  V30 33112 C 4460.91 -5.16748 6.36559 0
M  V30 33113 O 4460.52 -4.45271 7.53232 0
M  V30 33114 C 4460.03 -4.74572 5.19863 0
M  V30 33115 C 4460.74 -3.49373 4.70338 0
M  V30 33116 N 4460.69 -3.31704 3.22876 0
M  V30 33117 C 4460.54 -2.03326 2.74871 0
M  V30 33118 O 4460.45 -1.06486 3.48076 0
M  V30 33119 N 4460.5 -1.91838 1.37456 0
M  V30 33120 C 4460.59 -2.94295 0.462035 0
M  V30 33121 O 4460.54 -2.71763 -0.752928 0
M  V30 33122 C 4460.74 -4.25064 1.05249 0
M  V30 33123 C 4460.85 -5.39815 0.095697 0
M  V30 33124 C 4460.79 -4.40214 2.39192 0
M  V30 33125 H 4463.53 -6.54063 5.71245 0
M  V30 33126 H 4463.8 -5.30339 4.43905 0
M  V30 33127 H 4462.94 -4.55889 6.76652 0
M  V30 33128 H 4460.28 -2.6167 5.17842 0
M  V30 33129 H 4460 -5.52155 4.41878 0
M  V30 33130 H 4459.01 -4.51918 5.53297 0
M  V30 33131 H 4460.84 -6.25055 6.55162 0
M  V30 33132 H 4460.92 -5.39798 2.81523 0
M  V30 33133 H 4459.89 -5.91593 0.0279582 0
M  V30 33134 H 4461.62 -6.10038 0.450573 0
M  V30 33135 H 4461.13 -5.02007 -0.89937 0
M  V30 33136 H 4460.4 -0.995326 1.00435 0
M  V30 33137 P 4458.97 -4.23843 7.83734 0
M  V30 33138 O 4458.75 -4.19407 9.29784 0
M  V30 33139 O 4458.18 -5.24426 7.09156 0
M  V30 33140 O 4458.72 -2.7935 7.20758 0
M  V30 33141 C 4459.66 -1.72945 7.50224 0
M  V30 33142 C 4458.93 -0.406376 7.57911 0
M  V30 33143 O 4458.72 0.0897726 6.21935 0
M  V30 33144 C 4457.53 -0.438983 8.18724 0
M  V30 33145 O 4457.14 0.825065 8.71101 0
M  V30 33146 C 4456.65 -0.783689 6.99524 0
M  V30 33147 C 4457.36 -0.0619086 5.85867 0
M  V30 33148 N 4457.31 -0.78573 4.56183 0
M  V30 33149 C 4457.16 -0.0292889 3.41887 0
M  V30 33150 O 4457.07 1.18445 3.4419 0
M  V30 33151 N 4457.12 -0.744061 2.23964 0
M  V30 33152 C 4457.21 -2.10932 2.10362 0
M  V30 33153 C 4457.36 -2.8202 3.34994 0
M  V30 33154 C 4457.41 -2.15547 4.52261 0
M  V30 33155 H 4460.15 -1.93379 8.46595 0
M  V30 33156 H 4460.42 -1.68132 6.70852 0
M  V30 33157 H 4459.56 0.289041 8.15388 0
M  V30 33158 H 4456.9 0.926847 5.72749 0
M  V30 33159 H 4456.62 -1.86973 6.82036 0
M  V30 33160 H 4455.63 -0.403896 7.13257 0
M  V30 33161 H 4457.46 -1.20585 8.97435 0
M  V30 33162 H 4457.54 -2.71231 5.45042 0
M  V30 33163 P 4455.59 1.17771 8.83182 0
M  V30 33164 O 4455.37 2.07206 9.98732 0
M  V30 33165 O 4454.8 -0.0743816 8.81969 0
M  V30 33166 O 4455.34 1.97652 7.47304 0
M  V30 33167 C 4456.28 3.01055 7.08599 0
M  V30 33168 C 4455.55 4.12613 6.37049 0
M  V30 33169 O 4455.34 3.72827 4.97879 0
M  V30 33170 C 4454.15 4.45719 6.88164 0
M  V30 33171 O 4453.76 5.7877 6.5624 0
M  V30 33172 C 4453.27 3.47768 6.11991 0
M  V30 33173 C 4453.98 3.39356 4.77615 0
M  V30 33174 N 4453.93 2.04571 4.15244 0
M  V30 33175 C 4453.78 1.98587 2.78314 0
M  V30 33176 O 4453.69 2.98134 2.08835 0
M  V30 33177 N 4453.74 0.714467 2.24925 0
M  V30 33178 C 4453.83 -0.470001 2.94169 0
M  V30 33179 C 4453.98 -0.312541 4.36783 0
M  V30 33180 C 4454.03 0.914512 4.92583 0
M  V30 33181 H 4456.77 3.41169 7.98575 0
M  V30 33182 H 4457.04 2.58295 6.41556 0
M  V30 33183 H 4456.18 5.02657 6.42673 0
M  V30 33184 H 4453.52 4.11637 4.08885 0
M  V30 33185 H 4453.24 2.49626 6.61679 0
M  V30 33186 H 4452.25 3.86566 6.00778 0
M  V30 33187 H 4454.08 4.29943 7.96918 0
M  V30 33188 H 4454.16 1.00937 6.00374 0
M  V30 33189 P 4452.21 6.144 6.45285 0
M  V30 33190 O 4451.99 7.54673 6.86199 0
M  V30 33191 O 4451.42 5.12391 7.179 0
M  V30 33192 O 4451.96 5.99158 4.88404 0
M  V30 33193 C 4452.9 6.60234 3.96415 0
M  V30 33194 C 4452.17 7.08259 2.72856 0
M  V30 33195 O 4451.96 5.9427 1.83651 0
M  V30 33196 C 4450.77 7.64886 2.9555 0
M  V30 33197 O 4450.38 8.53963 1.90717 0
M  V30 33198 C 4449.89 6.4116 2.90739 0
M  V30 33199 C 4450.6 5.55375 1.86963 0
M  V30 33200 N 4450.55 4.09664 2.15742 0
M  V30 33201 H 4453.39 7.45574 4.45629 0
M  V30 33202 H 4453.66 5.86232 3.67314 0
M  V30 33203 H 4452.8 7.84412 2.24479 0
M  V30 33204 P 4448.83 8.7635 1.60911 0
M  V30 33205 O 4448.61 10.1388 1.11561 0
M  V30 33206 O 4448.04 8.36503 2.79617 0
M  V30 33207 O 4448.58 7.71806 0.42951 0
M  V30 33208 C 4449.52 7.67148 -0.673689 0
M  V30 33209 C 4448.79 7.33374 -1.95559 0
M  V30 33210 O 4448.58 5.88721 -2.00726 0
M  V30 33211 C 4447.39 7.92526 -2.10483 0
M  V30 33212 O 4447 8.02971 -3.47653 0
M  V30 33213 C 4446.51 6.89602 -1.41652 0
M  V30 33214 C 4447.22 5.59201 -1.75185 0
M  V30 33215 N 4447.17 4.58235 -0.662552 0
M  V30 33216 H 4450.01 8.65116 -0.777161 0
M  V30 33217 H 4450.28 6.90173 -0.474152 0
M  V30 33218 H 4449.42 7.66548 -2.79458 0
M  V30 33219 P 4445.45 8.03563 -3.84925 0
M  V30 33220 O 4445.23 8.85821 -5.0569 0
M  V30 33221 O 4444.66 8.41101 -2.65469 0
M  V30 33222 O 4445.2 6.4965 -4.18908 0
M  V30 33223 C 4446.14 5.81037 -5.05421 0
M  V30 33224 C 4445.41 4.78366 -5.89277 0
M  V30 33225 O 4445.2 3.58302 -5.08433 0
M  V30 33226 C 4444.01 5.17448 -6.36119 0
M  V30 33227 O 4443.62 4.45271 -7.53232 0
M  V30 33228 C 4443.13 4.74639 -5.19936 0
M  V30 33229 C 4443.84 3.49432 -4.70418 0
M  V30 33230 N 4443.79 3.32099 -3.22613 0
M  V30 33231 C 4443.87 4.28245 -2.25527 0
M  V30 33232 N 4443.8 3.80823 -1.04874 0
M  V30 33233 C 4443.65 2.44571 -1.23535 0
M  V30 33234 C 4443.52 1.37068 -0.330675 0
M  V30 33235 N 4443.51 1.51472 0.990824 0
M  V30 33236 N 4443.4 0.138614 -0.848756 0
M  V30 33237 C 4443.41 -0.00675923 -2.16999 0
M  V30 33238 N 4443.53 0.904372 -3.11122 0
M  V30 33239 C 4443.65 2.12707 -2.56212 0
M  V30 33240 H 4446.63 6.54213 -5.71376 0
M  V30 33241 H 4446.9 5.30936 -4.43503 0
M  V30 33242 H 4446.04 4.55889 -6.76652 0
M  V30 33243 H 4443.38 2.61715 -5.17932 0
M  V30 33244 H 4443.1 5.52155 -4.41878 0
M  V30 33245 H 4442.11 4.51981 -5.53374 0
M  V30 33246 H 4443.94 6.25124 -6.55234 0
M  V30 33247 H 4443.99 5.34372 -2.47488 0
M  V30 33248 H 4443.6 2.45153 1.4078 0
M  V30 33249 H 4443.42 0.688422 1.59911 0
M  V30 33250 H 4443.31 -1.02584 -2.52346 0
M  V30 33251 P 4442.07 4.23843 -7.83734 0
M  V30 33252 O 4441.85 4.19407 -9.29784 0
M  V30 33253 O 4441.28 5.24426 -7.09156 0
M  V30 33254 O 4441.82 2.7935 -7.20758 0
M  V30 33255 C 4442.76 1.7299 -7.50419 0
M  V30 33256 C 4442.03 0.406376 -7.57911 0
M  V30 33257 O 4441.82 -0.0897726 -6.21935 0
M  V30 33258 C 4440.63 0.447224 -8.1878 0
M  V30 33259 O 4440.24 -0.825065 -8.71101 0
M  V30 33260 C 4439.75 0.783801 -6.99623 0
M  V30 33261 C 4440.46 0.0619192 -5.85967 0
M  V30 33262 N 4440.41 0.7859 -4.56281 0
M  V30 33263 H 4443.25 1.93423 -8.4679 0
M  V30 33264 H 4443.52 1.68181 -6.71046 0
M  V30 33265 H 4442.66 -0.289041 -8.15388 0
M  V30 33266 P 4438.69 -1.17771 -8.83182 0
M  V30 33267 O 4438.47 -2.07206 -9.98732 0
M  V30 33268 O 4437.9 0.0743816 -8.81969 0
M  V30 33269 O 4438.44 -1.97652 -7.47304 0
M  V30 33270 C 4439.38 -3.01055 -7.08599 0
M  V30 33271 C 4438.65 -4.12613 -6.37049 0
M  V30 33272 O 4438.44 -3.72827 -4.97879 0
M  V30 33273 C 4437.25 -4.45719 -6.88164 0
M  V30 33274 O 4436.86 -5.7877 -6.5624 0
M  V30 33275 C 4436.37 -3.47768 -6.11991 0
M  V30 33276 C 4437.08 -3.39356 -4.77615 0
M  V30 33277 N 4437.03 -2.04571 -4.15244 0
M  V30 33278 C 4436.88 -1.98587 -2.78314 0
M  V30 33279 O 4436.79 -2.98134 -2.08835 0
M  V30 33280 N 4436.84 -0.714467 -2.24925 0
M  V30 33281 C 4436.93 0.470001 -2.94169 0
M  V30 33282 C 4437.08 0.312541 -4.36783 0
M  V30 33283 C 4437.13 -0.914512 -4.92583 0
M  V30 33284 H 4439.87 -3.41169 -7.98575 0
M  V30 33285 H 4440.14 -2.58295 -6.41556 0
M  V30 33286 H 4439.28 -5.02657 -6.42673 0
M  V30 33287 H 4436.62 -4.11637 -4.08885 0
M  V30 33288 H 4436.34 -2.49626 -6.61679 0
M  V30 33289 H 4435.35 -3.86566 -6.00778 0
M  V30 33290 H 4437.18 -4.29943 -7.96918 0
M  V30 33291 H 4437.26 -1.00937 -6.00374 0
M  V30 33292 P 4435.31 -6.144 -6.45285 0
M  V30 33293 O 4435.09 -7.54673 -6.86199 0
M  V30 33294 O 4434.52 -5.12391 -7.179 0
M  V30 33295 O 4435.06 -5.99158 -4.88404 0
M  V30 33296 C 4436 -6.60234 -3.96415 0
M  V30 33297 C 4435.27 -7.08259 -2.72856 0
M  V30 33298 O 4435.06 -5.9427 -1.83651 0
M  V30 33299 C 4433.87 -7.64886 -2.9555 0
M  V30 33300 O 4433.48 -8.53963 -1.90717 0
M  V30 33301 C 4432.99 -6.4116 -2.90739 0
M  V30 33302 C 4433.7 -5.55375 -1.86963 0
M  V30 33303 N 4433.65 -4.09664 -2.15742 0
M  V30 33304 H 4436.49 -7.45574 -4.45629 0
M  V30 33305 H 4436.76 -5.86232 -3.67314 0
M  V30 33306 H 4435.9 -7.84412 -2.24479 0
M  V30 33307 P 4431.93 -8.7635 -1.60911 0
M  V30 33308 O 4431.71 -10.1388 -1.11561 0
M  V30 33309 O 4431.14 -8.36503 -2.79617 0
M  V30 33310 O 4431.68 -7.71806 -0.42951 0
M  V30 33311 C 4432.62 -7.67148 0.673689 0
M  V30 33312 C 4431.89 -7.33374 1.95559 0
M  V30 33313 O 4431.68 -5.88721 2.00726 0
M  V30 33314 C 4430.49 -7.92526 2.10483 0
M  V30 33315 O 4430.1 -8.02971 3.47653 0
M  V30 33316 C 4429.61 -6.89602 1.41652 0
M  V30 33317 C 4430.32 -5.59201 1.75185 0
M  V30 33318 N 4430.27 -4.58235 0.662552 0
M  V30 33319 H 4433.11 -8.65116 0.777161 0
M  V30 33320 H 4433.38 -6.90173 0.474152 0
M  V30 33321 H 4432.52 -7.66548 2.79458 0
M  V30 33322 P 4428.55 -8.03563 3.84925 0
M  V30 33323 O 4428.33 -8.85821 5.0569 0
M  V30 33324 O 4427.76 -8.41101 2.65469 0
M  V30 33325 O 4428.3 -6.4965 4.18908 0
M  V30 33326 C 4429.24 -5.81037 5.05421 0
M  V30 33327 C 4428.51 -4.78366 5.89277 0
M  V30 33328 O 4428.3 -3.58302 5.08433 0
M  V30 33329 C 4427.11 -5.17448 6.36119 0
M  V30 33330 O 4426.72 -4.45271 7.53232 0
M  V30 33331 C 4426.23 -4.74639 5.19936 0
M  V30 33332 C 4426.94 -3.49432 4.70418 0
M  V30 33333 N 4426.89 -3.31776 3.22945 0
M  V30 33334 H 4429.73 -6.54213 5.71376 0
M  V30 33335 H 4430 -5.30492 4.44033 0
M  V30 33336 H 4429.14 -4.55889 6.76652 0
M  V30 33337 P 4425.17 -4.23843 7.83734 0
M  V30 33338 O 4424.95 -4.19407 9.29784 0
M  V30 33339 O 4424.38 -5.24426 7.09156 0
M  V30 33340 O 4424.92 -2.7935 7.20758 0
M  V30 33341 C 4425.86 -1.7299 7.50419 0
M  V30 33342 C 4425.13 -0.406376 7.57911 0
M  V30 33343 O 4424.92 0.0897726 6.21935 0
M  V30 33344 C 4423.73 -0.447224 8.1878 0
M  V30 33345 O 4423.34 0.825065 8.71101 0
M  V30 33346 C 4422.85 -0.783801 6.99623 0
M  V30 33347 C 4423.56 -0.0619192 5.85967 0
M  V30 33348 N 4423.51 -0.790462 4.56202 0
M  V30 33349 H 4426.35 -1.93423 8.4679 0
M  V30 33350 H 4426.62 -1.68852 6.70877 0
M  V30 33351 H 4425.76 0.289041 8.15388 0
M  V30 33352 H 4423.1 0.927006 5.72848 0
M  V30 33353 H 4422.82 -1.86973 6.82036 0
M  V30 33354 H 4421.83 -0.403953 7.13357 0
M  V30 33355 H 4423.66 -1.20599 8.97534 0
M  V30 33356 P 4421.79 1.17771 8.83182 0
M  V30 33357 O 4421.57 2.07206 9.98732 0
M  V30 33358 O 4421 -0.0743816 8.81969 0
M  V30 33359 O 4421.54 1.97652 7.47304 0
M  V30 33360 C 4422.48 3.01133 7.08783 0
M  V30 33361 C 4421.75 4.12613 6.37049 0
M  V30 33362 O 4421.54 3.72827 4.97879 0
M  V30 33363 C 4420.35 4.45085 6.88694 0
M  V30 33364 O 4419.96 5.7877 6.5624 0
M  V30 33365 C 4419.47 3.47817 6.12078 0
M  V30 33366 C 4420.18 3.39414 4.77697 0
M  V30 33367 N 4420.13 2.04615 4.15333 0
M  V30 33368 H 4422.97 3.41248 7.98759 0
M  V30 33369 H 4423.24 2.5837 6.41742 0
M  V30 33370 H 4422.38 5.02657 6.42673 0
M  V30 33371 P 4418.41 6.144 6.45285 0
M  V30 33372 O 4418.19 7.54673 6.86199 0
M  V30 33373 O 4417.62 5.12391 7.179 0
M  V30 33374 O 4418.16 5.99158 4.88404 0
M  V30 33375 C 4419.1 6.60234 3.96415 0
M  V30 33376 C 4418.37 7.08259 2.72856 0
M  V30 33377 O 4418.16 5.9427 1.83651 0
M  V30 33378 C 4416.97 7.64886 2.9555 0
M  V30 33379 O 4416.58 8.53963 1.90717 0
M  V30 33380 C 4416.09 6.4116 2.90739 0
M  V30 33381 C 4416.8 5.55375 1.86963 0
M  V30 33382 N 4416.75 4.09664 2.15742 0
M  V30 33383 H 4419.59 7.45574 4.45629 0
M  V30 33384 H 4419.86 5.86232 3.67314 0
M  V30 33385 H 4419 7.84412 2.24479 0
M  V30 33386 P 4415.03 8.7635 1.60911 0
M  V30 33387 O 4414.81 10.1388 1.11561 0
M  V30 33388 O 4414.24 8.36503 2.79617 0
M  V30 33389 O 4414.78 7.71806 0.42951 0
M  V30 33390 C 4415.72 7.67148 -0.673689 0
M  V30 33391 C 4414.99 7.33374 -1.95559 0
M  V30 33392 O 4414.78 5.88721 -2.00726 0
M  V30 33393 C 4413.59 7.92526 -2.10483 0
M  V30 33394 O 4413.2 8.02971 -3.47653 0
M  V30 33395 C 4412.71 6.89602 -1.41652 0
M  V30 33396 C 4413.42 5.59201 -1.75185 0
M  V30 33397 N 4413.37 4.58301 -0.657969 0
M  V30 33398 H 4416.21 8.65116 -0.777161 0
M  V30 33399 H 4416.48 6.9022 -0.46725 0
M  V30 33400 H 4415.62 7.66548 -2.79458 0
M  V30 33401 H 4412.96 5.16165 -2.65183 0
M  V30 33402 H 4412.68 7.06433 -0.329384 0
M  V30 33403 H 4411.69 6.90926 -1.82021 0
M  V30 33404 H 4413.52 8.90873 -1.62657 0
M  V30 33405 P 4411.65 8.03563 -3.84925 0
M  V30 33406 O 4411.43 8.85821 -5.0569 0
M  V30 33407 O 4410.86 8.41101 -2.65469 0
M  V30 33408 O 4411.4 6.4965 -4.18908 0
M  V30 33409 C 4412.34 5.81037 -5.05421 0
M  V30 33410 C 4411.61 4.78366 -5.89277 0
M  V30 33411 O 4411.4 3.58302 -5.08433 0
M  V30 33412 C 4410.21 5.17448 -6.36119 0
M  V30 33413 O 4409.82 4.45271 -7.53232 0
M  V30 33414 C 4409.33 4.74639 -5.19936 0
M  V30 33415 C 4410.04 3.49432 -4.70418 0
M  V30 33416 N 4409.99 3.31776 -3.22945 0
M  V30 33417 H 4412.83 6.54213 -5.71376 0
M  V30 33418 H 4413.1 5.30492 -4.44033 0
M  V30 33419 H 4412.24 4.55889 -6.76652 0
M  V30 33420 P 4408.27 4.23843 -7.83734 0
M  V30 33421 O 4408.05 4.19407 -9.29784 0
M  V30 33422 O 4407.48 5.24426 -7.09156 0
M  V30 33423 O 4408.02 2.7935 -7.20758 0
M  V30 33424 C 4408.96 1.7299 -7.50419 0
M  V30 33425 C 4408.23 0.406376 -7.57911 0
M  V30 33426 O 4408.02 -0.0897726 -6.21935 0
M  V30 33427 C 4406.83 0.447224 -8.1878 0
M  V30 33428 O 4406.44 -0.825065 -8.71101 0
M  V30 33429 C 4405.95 0.783801 -6.99623 0
M  V30 33430 C 4406.66 0.0619192 -5.85967 0
M  V30 33431 N 4406.61 0.790462 -4.56202 0
M  V30 33432 H 4409.45 1.93423 -8.4679 0
M  V30 33433 H 4409.72 1.68852 -6.70877 0
M  V30 33434 H 4408.86 -0.289041 -8.15388 0
M  V30 33435 H 4406.2 -0.927006 -5.72848 0
M  V30 33436 H 4405.92 1.86973 -6.82036 0
M  V30 33437 H 4404.93 0.403953 -7.13357 0
M  V30 33438 H 4406.76 1.20599 -8.97534 0
M  V30 33439 P 4404.89 -1.17771 -8.83182 0
M  V30 33440 O 4404.67 -2.07206 -9.98732 0
M  V30 33441 O 4404.1 0.0743816 -8.81969 0
M  V30 33442 O 4404.64 -1.97652 -7.47304 0
M  V30 33443 C 4405.58 -3.01133 -7.08783 0
M  V30 33444 C 4404.85 -4.12613 -6.37049 0
M  V30 33445 O 4404.64 -3.72827 -4.97879 0
M  V30 33446 C 4403.45 -4.45085 -6.88694 0
M  V30 33447 O 4403.06 -5.7877 -6.5624 0
M  V30 33448 C 4402.57 -3.47817 -6.12078 0
M  V30 33449 C 4403.28 -3.39414 -4.77697 0
M  V30 33450 N 4403.23 -2.04199 -4.15538 0
M  V30 33451 H 4406.07 -3.41248 -7.98759 0
M  V30 33452 H 4406.34 -2.57728 -6.42 0
M  V30 33453 H 4405.48 -5.02657 -6.42673 0
M  V30 33454 H 4402.82 -4.11708 -4.08956 0
M  V30 33455 H 4402.54 -2.49626 -6.61679 0
M  V30 33456 H 4401.55 -3.8662 -6.00862 0
M  V30 33457 H 4403.38 -4.29991 -7.97006 0
M  V30 33458 P 4401.51 -6.144 -6.45285 0
M  V30 33459 O 4401.29 -7.54673 -6.86199 0
M  V30 33460 O 4400.72 -5.12391 -7.179 0
M  V30 33461 O 4401.26 -5.99158 -4.88404 0
M  V30 33462 C 4402.2 -6.60234 -3.96415 0
M  V30 33463 C 4401.47 -7.08259 -2.72856 0
M  V30 33464 O 4401.26 -5.9427 -1.83651 0
M  V30 33465 C 4400.07 -7.64886 -2.9555 0
M  V30 33466 O 4399.68 -8.53963 -1.90717 0
M  V30 33467 C 4399.19 -6.4116 -2.90739 0
M  V30 33468 C 4399.9 -5.55375 -1.86963 0
M  V30 33469 N 4399.85 -4.09448 -2.16152 0
M  V30 33470 H 4402.69 -7.45574 -4.45629 0
M  V30 33471 H 4402.96 -5.85864 -3.679 0
M  V30 33472 H 4402.1 -7.84412 -2.24479 0
M  V30 33473 H 4399.44 -5.73457 -0.888562 0
M  V30 33474 H 4399.16 -5.90877 -3.88583 0
M  V30 33475 H 4398.17 -6.6596 -2.58858 0
M  V30 33476 H 4400 -8.16339 -3.92049 0
M  V30 33477 P 4398.13 -8.7635 -1.60911 0
M  V30 33478 O 4397.91 -10.1388 -1.11561 0
M  V30 33479 O 4397.34 -8.36503 -2.79617 0
M  V30 33480 O 4397.88 -7.71806 -0.42951 0
M  V30 33481 C 4398.82 -7.66948 0.673514 0
M  V30 33482 C 4398.09 -7.33374 1.95559 0
M  V30 33483 O 4397.88 -5.88721 2.00726 0
M  V30 33484 C 4396.69 -7.92218 2.1125 0
M  V30 33485 O 4396.3 -8.02971 3.47653 0
M  V30 33486 C 4395.81 -6.89504 1.41631 0
M  V30 33487 C 4396.52 -5.59106 1.75155 0
M  V30 33488 N 4396.47 -4.58136 0.662409 0
M  V30 33489 C 4396.32 -3.26059 1.02863 0
M  V30 33490 O 4396.23 -2.90743 2.19009 0
M  V30 33491 N 4396.28 -2.35995 -0.0155585 0
M  V30 33492 C 4396.37 -2.65248 -1.35603 0
M  V30 33493 C 4396.52 -4.05747 -1.64698 0
M  V30 33494 C 4396.57 -4.96734 -0.652411 0
M  V30 33495 H 4399.32 -8.64917 0.776982 0
M  V30 33496 H 4399.58 -6.89974 0.474015 0
M  V30 33497 H 4398.72 -7.66548 2.79458 0
M  V30 33498 H 4396.06 -5.16076 2.65138 0
M  V30 33499 H 4395.78 -7.06433 0.329384 0
M  V30 33500 H 4394.79 -6.90829 1.81996 0
M  V30 33501 H 4396.63 -8.90774 1.62639 0
M  V30 33502 H 4396.7 -6.02181 -0.895285 0
M  V30 33503 P 4394.75 -8.03563 3.84925 0
M  V30 33504 O 4394.53 -8.85821 5.0569 0
M  V30 33505 O 4393.96 -8.41101 2.65469 0
M  V30 33506 O 4394.5 -6.4965 4.18908 0
M  V30 33507 C 4395.44 -5.81037 5.05421 0
M  V30 33508 C 4394.71 -4.78366 5.89277 0
M  V30 33509 O 4394.5 -3.58302 5.08433 0
M  V30 33510 C 4393.31 -5.17448 6.36119 0
M  V30 33511 O 4392.92 -4.45271 7.53232 0
M  V30 33512 C 4392.43 -4.74639 5.19936 0
M  V30 33513 C 4393.14 -3.49432 4.70418 0
M  V30 33514 N 4393.09 -3.32099 3.22613 0
M  V30 33515 H 4395.93 -6.54213 5.71376 0
M  V30 33516 H 4396.21 -5.30936 4.43503 0
M  V30 33517 H 4395.34 -4.55889 6.76652 0
M  V30 33518 H 4392.68 -2.61715 5.17932 0
M  V30 33519 H 4392.4 -5.52155 4.41878 0
M  V30 33520 H 4391.41 -4.51981 5.53374 0
M  V30 33521 H 4393.25 -6.25124 6.55234 0
M  V30 33522 P 4391.37 -4.23843 7.83734 0
M  V30 33523 O 4391.15 -4.19407 9.29784 0
M  V30 33524 O 4390.58 -5.24426 7.09156 0
M  V30 33525 O 4391.12 -2.7935 7.20758 0
M  V30 33526 C 4392.06 -1.7299 7.50419 0
M  V30 33527 C 4391.33 -0.406376 7.57911 0
M  V30 33528 O 4391.12 0.0897726 6.21935 0
M  V30 33529 C 4389.93 -0.447224 8.1878 0
M  V30 33530 O 4389.54 0.825065 8.71101 0
M  V30 33531 C 4389.05 -0.783801 6.99623 0
M  V30 33532 C 4389.76 -0.0619192 5.85967 0
M  V30 33533 N 4389.71 -0.790462 4.56202 0
M  V30 33534 H 4392.55 -1.93423 8.4679 0
M  V30 33535 H 4392.83 -1.68852 6.70877 0
M  V30 33536 H 4391.96 0.289041 8.15388 0
M  V30 33537 H 4389.3 0.927006 5.72848 0
M  V30 33538 H 4389.02 -1.86973 6.82036 0
M  V30 33539 H 4388.03 -0.403953 7.13357 0
M  V30 33540 H 4389.87 -1.20599 8.97534 0
M  V30 33541 P 4387.99 1.17771 8.83182 0
M  V30 33542 O 4387.77 2.07206 9.98732 0
M  V30 33543 O 4387.2 -0.0743816 8.81969 0
M  V30 33544 O 4387.74 1.97652 7.47304 0
M  V30 33545 C 4388.68 3.01133 7.08783 0
M  V30 33546 C 4387.95 4.12613 6.37049 0
M  V30 33547 O 4387.74 3.72827 4.97879 0
M  V30 33548 C 4386.55 4.45085 6.88694 0
M  V30 33549 O 4386.16 5.7877 6.5624 0
M  V30 33550 C 4385.67 3.47817 6.12078 0
M  V30 33551 C 4386.38 3.39414 4.77697 0
M  V30 33552 N 4386.33 2.04615 4.15333 0
M  V30 33553 H 4389.17 3.41248 7.98759 0
M  V30 33554 H 4389.45 2.5837 6.41742 0
M  V30 33555 H 4388.58 5.02657 6.42673 0
M  V30 33556 P 4384.61 6.144 6.45285 0
M  V30 33557 O 4384.39 7.54673 6.86199 0
M  V30 33558 O 4383.82 5.12391 7.179 0
M  V30 33559 O 4384.36 5.99158 4.88404 0
M  V30 33560 C 4385.3 6.60234 3.96415 0
M  V30 33561 C 4384.57 7.08259 2.72856 0
M  V30 33562 O 4384.36 5.9427 1.83651 0
M  V30 33563 C 4383.17 7.64886 2.9555 0
M  V30 33564 O 4382.78 8.53963 1.90717 0
M  V30 33565 C 4382.29 6.4116 2.90739 0
M  V30 33566 C 4383 5.55375 1.86963 0
M  V30 33567 N 4382.95 4.09448 2.16152 0
M  V30 33568 H 4385.79 7.45574 4.45629 0
M  V30 33569 H 4386.07 5.85864 3.679 0
M  V30 33570 H 4385.2 7.84412 2.24479 0
M  V30 33571 H 4382.54 5.73457 0.888562 0
M  V30 33572 H 4382.26 5.90877 3.88583 0
M  V30 33573 H 4381.27 6.6596 2.58858 0
M  V30 33574 H 4383.11 8.16339 3.92049 0
M  V30 33575 P 4381.23 8.7635 1.60911 0
M  V30 33576 O 4381.01 10.1388 1.11561 0
M  V30 33577 O 4380.44 8.36503 2.79617 0
M  V30 33578 O 4380.98 7.71806 0.42951 0
M  V30 33579 C 4381.92 7.67148 -0.673689 0
M  V30 33580 C 4381.19 7.33374 -1.95559 0
M  V30 33581 O 4380.98 5.88721 -2.00726 0
M  V30 33582 C 4379.79 7.92526 -2.10483 0
M  V30 33583 O 4379.4 8.02971 -3.47653 0
M  V30 33584 C 4378.91 6.89602 -1.41652 0
M  V30 33585 C 4379.62 5.59201 -1.75185 0
M  V30 33586 N 4379.57 4.58301 -0.657969 0
M  V30 33587 H 4382.41 8.65116 -0.777161 0
M  V30 33588 H 4382.69 6.9022 -0.46725 0
M  V30 33589 H 4381.82 7.66548 -2.79458 0
M  V30 33590 H 4379.16 5.16165 -2.65183 0
M  V30 33591 H 4378.88 7.06433 -0.329384 0
M  V30 33592 H 4377.89 6.90926 -1.82021 0
M  V30 33593 H 4379.73 8.90873 -1.62657 0
M  V30 33594 P 4377.85 8.03563 -3.84925 0
M  V30 33595 O 4377.63 8.85821 -5.0569 0
M  V30 33596 O 4377.06 8.41101 -2.65469 0
M  V30 33597 O 4377.6 6.4965 -4.18908 0
M  V30 33598 C 4378.54 5.81037 -5.05421 0
M  V30 33599 C 4377.81 4.78366 -5.89277 0
M  V30 33600 O 4377.6 3.58302 -5.08433 0
M  V30 33601 C 4376.41 5.17448 -6.36119 0
M  V30 33602 O 4376.02 4.45271 -7.53232 0
M  V30 33603 C 4375.53 4.74639 -5.19936 0
M  V30 33604 C 4376.24 3.49432 -4.70418 0
M  V30 33605 N 4376.19 3.32099 -3.22613 0
M  V30 33606 H 4379.03 6.54213 -5.71376 0
M  V30 33607 H 4379.31 5.30936 -4.43503 0
M  V30 33608 H 4378.44 4.55889 -6.76652 0
M  V30 33609 H 4375.78 2.61715 -5.17932 0
M  V30 33610 H 4375.5 5.52155 -4.41878 0
M  V30 33611 H 4374.51 4.51981 -5.53374 0
M  V30 33612 H 4376.35 6.25124 -6.55234 0
M  V30 33613 P 4374.47 4.23843 -7.83734 0
M  V30 33614 O 4374.25 4.19407 -9.29784 0
M  V30 33615 O 4373.68 5.24426 -7.09156 0
M  V30 33616 O 4374.22 2.7935 -7.20758 0
M  V30 33617 C 4375.16 1.7299 -7.50419 0
M  V30 33618 C 4374.43 0.406376 -7.57911 0
M  V30 33619 O 4374.22 -0.0897726 -6.21935 0
M  V30 33620 C 4373.03 0.447224 -8.1878 0
M  V30 33621 O 4372.64 -0.825065 -8.71101 0
M  V30 33622 C 4372.15 0.783801 -6.99623 0
M  V30 33623 C 4372.86 0.0619192 -5.85967 0
M  V30 33624 N 4372.81 0.7859 -4.56281 0
M  V30 33625 H 4375.65 1.93423 -8.4679 0
M  V30 33626 H 4375.93 1.68181 -6.71046 0
M  V30 33627 H 4375.06 -0.289041 -8.15388 0
M  V30 33628 P 4371.09 -1.17771 -8.83182 0
M  V30 33629 O 4370.87 -2.07206 -9.98732 0
M  V30 33630 O 4370.3 0.0743816 -8.81969 0
M  V30 33631 O 4370.84 -1.97652 -7.47304 0
M  V30 33632 C 4371.78 -3.01133 -7.08783 0
M  V30 33633 C 4371.05 -4.12613 -6.37049 0
M  V30 33634 O 4370.84 -3.72827 -4.97879 0
M  V30 33635 C 4369.65 -4.45085 -6.88694 0
M  V30 33636 O 4369.26 -5.7877 -6.5624 0
M  V30 33637 C 4368.77 -3.47817 -6.12078 0
M  V30 33638 C 4369.48 -3.39414 -4.77697 0
M  V30 33639 N 4369.43 -2.04615 -4.15333 0
M  V30 33640 H 4372.27 -3.41248 -7.98759 0
M  V30 33641 H 4372.55 -2.5837 -6.41742 0
M  V30 33642 H 4371.68 -5.02657 -6.42673 0
M  V30 33643 P 4367.71 -6.144 -6.45285 0
M  V30 33644 O 4367.49 -7.54673 -6.86199 0
M  V30 33645 O 4366.92 -5.12391 -7.179 0
M  V30 33646 O 4367.46 -5.99158 -4.88404 0
M  V30 33647 C 4368.4 -6.60234 -3.96415 0
M  V30 33648 C 4367.67 -7.08259 -2.72856 0
M  V30 33649 O 4367.46 -5.9427 -1.83651 0
M  V30 33650 C 4366.27 -7.64886 -2.9555 0
M  V30 33651 O 4365.88 -8.53963 -1.90717 0
M  V30 33652 C 4365.39 -6.4116 -2.90739 0
M  V30 33653 C 4366.1 -5.55375 -1.86963 0
M  V30 33654 N 4366.05 -4.09664 -2.15742 0
M  V30 33655 H 4368.89 -7.45574 -4.45629 0
M  V30 33656 H 4369.17 -5.86232 -3.67314 0
M  V30 33657 H 4368.3 -7.84412 -2.24479 0
M  V30 33658 P 4364.33 -8.7635 -1.60911 0
M  V30 33659 O 4364.11 -10.1388 -1.11561 0
M  V30 33660 O 4363.54 -8.36503 -2.79617 0
M  V30 33661 O 4364.08 -7.71806 -0.42951 0
M  V30 33662 C 4365.02 -7.66948 0.673514 0
M  V30 33663 C 4364.29 -7.33374 1.95559 0
M  V30 33664 O 4364.08 -5.88721 2.00726 0
M  V30 33665 C 4362.89 -7.92218 2.1125 0
M  V30 33666 O 4362.5 -8.02971 3.47653 0
M  V30 33667 C 4362.01 -6.89504 1.41631 0
M  V30 33668 C 4362.72 -5.59106 1.75155 0
M  V30 33669 N 4362.67 -4.58136 0.662409 0
M  V30 33670 C 4362.52 -3.26059 1.02863 0
M  V30 33671 O 4362.43 -2.90743 2.19009 0
M  V30 33672 N 4362.48 -2.35995 -0.0155585 0
M  V30 33673 C 4362.57 -2.65248 -1.35603 0
M  V30 33674 C 4362.72 -4.05747 -1.64698 0
M  V30 33675 C 4362.77 -4.96734 -0.652411 0
M  V30 33676 H 4365.52 -8.64917 0.776982 0
M  V30 33677 H 4365.78 -6.89974 0.474015 0
M  V30 33678 H 4364.92 -7.66548 2.79458 0
M  V30 33679 H 4362.26 -5.16076 2.65138 0
M  V30 33680 H 4361.98 -7.06433 0.329384 0
M  V30 33681 H 4360.99 -6.90829 1.81996 0
M  V30 33682 H 4362.83 -8.90774 1.62639 0
M  V30 33683 H 4362.9 -6.02181 -0.895285 0
M  V30 33684 P 4360.95 -8.03563 3.84925 0
M  V30 33685 O 4360.73 -8.85821 5.0569 0
M  V30 33686 O 4360.16 -8.41101 2.65469 0
M  V30 33687 O 4360.7 -6.4965 4.18908 0
M  V30 33688 C 4361.64 -5.81037 5.05421 0
M  V30 33689 C 4360.91 -4.78366 5.89277 0
M  V30 33690 O 4360.7 -3.58302 5.08433 0
M  V30 33691 C 4359.51 -5.17448 6.36119 0
M  V30 33692 O 4359.12 -4.45271 7.53232 0
M  V30 33693 C 4358.63 -4.74639 5.19936 0
M  V30 33694 C 4359.34 -3.49432 4.70418 0
M  V30 33695 N 4359.29 -3.32099 3.22613 0
M  V30 33696 H 4362.13 -6.54213 5.71376 0
M  V30 33697 H 4362.41 -5.30936 4.43503 0
M  V30 33698 H 4361.54 -4.55889 6.76652 0
M  V30 33699 H 4358.88 -2.61715 5.17932 0
M  V30 33700 H 4358.6 -5.52155 4.41878 0
M  V30 33701 H 4357.61 -4.51981 5.53374 0
M  V30 33702 H 4359.45 -6.25124 6.55234 0
M  V30 33703 P 4357.57 -4.23843 7.83734 0
M  V30 33704 O 4357.35 -4.19407 9.29784 0
M  V30 33705 O 4356.78 -5.24426 7.09156 0
M  V30 33706 O 4357.32 -2.7935 7.20758 0
M  V30 33707 C 4358.26 -1.7299 7.50419 0
M  V30 33708 C 4357.53 -0.406376 7.57911 0
M  V30 33709 O 4357.32 0.0897726 6.21935 0
M  V30 33710 C 4356.13 -0.447224 8.1878 0
M  V30 33711 O 4355.74 0.825065 8.71101 0
M  V30 33712 C 4355.25 -0.783801 6.99623 0
M  V30 33713 C 4355.96 -0.0619192 5.85967 0
M  V30 33714 N 4355.91 -0.790462 4.56202 0
M  V30 33715 H 4358.75 -1.93423 8.4679 0
M  V30 33716 H 4359.03 -1.68852 6.70877 0
M  V30 33717 H 4358.16 0.289041 8.15388 0
M  V30 33718 H 4355.5 0.927006 5.72848 0
M  V30 33719 H 4355.22 -1.86973 6.82036 0
M  V30 33720 H 4354.23 -0.403953 7.13357 0
M  V30 33721 H 4356.07 -1.20599 8.97534 0
M  V30 33722 P 4354.19 1.17771 8.83182 0
M  V30 33723 O 4353.97 2.07206 9.98732 0
M  V30 33724 O 4353.4 -0.0743816 8.81969 0
M  V30 33725 O 4353.94 1.97678 7.474 0
M  V30 33726 C 4354.88 3.01133 7.08783 0
M  V30 33727 C 4354.15 4.1203 6.37546 0
M  V30 33728 O 4353.94 3.72887 4.9796 0
M  V30 33729 C 4352.75 4.45085 6.88694 0
M  V30 33730 O 4352.36 5.78836 6.56315 0
M  V30 33731 C 4351.87 3.47817 6.12078 0
M  V30 33732 C 4352.58 3.39414 4.77697 0
M  V30 33733 N 4352.53 2.04615 4.15333 0
M  V30 33734 C 4352.38 1.96929 2.77162 0
M  V30 33735 O 4352.29 3.02017 2.12006 0
M  V30 33736 N 4352.33 0.55485 2.24237 0
M  V30 33737 C 4352.43 -0.367808 2.9169 0
M  V30 33738 N 4352.38 -1.53426 2.29427 0
M  V30 33739 C 4352.58 -0.319148 4.33828 0
M  V30 33740 C 4352.63 0.920672 4.90433 0
M  V30 33741 H 4355.37 3.41209 7.98667 0
M  V30 33742 H 4355.64 2.5837 6.41742 0
M  V30 33743 H 4354.78 5.02718 6.42752 0
M  V30 33744 H 4352.12 4.11779 4.09026 0
M  V30 33745 H 4351.84 2.49661 6.61772 0
M  V30 33746 H 4350.85 3.86674 6.00946 0
M  V30 33747 H 4352.69 4.29991 7.97006 0
M  V30 33748 H 4352.76 1.00589 5.98303 0
M  V30 33749 H 4352.66 -1.22639 4.93799 0
M  V30 33750 H 4352.27 -1.56819 1.27167 0
M  V30 33751 H 4352.46 -2.41062 2.83063 0
M  V30 33752 P 4350.81 6.144 6.45285 0
M  V30 33753 O 4350.59 7.54673 6.86199 0
M  V30 33754 O 4350.02 5.12391 7.179 0
M  V30 33755 O 4350.56 5.99158 4.88404 0
M  V30 33756 C 4351.5 6.60234 3.96415 0
M  V30 33757 C 4350.77 7.08259 2.72856 0
M  V30 33758 O 4350.56 5.9427 1.83651 0
M  V30 33759 C 4349.37 7.64886 2.9555 0
M  V30 33760 O 4348.98 8.53963 1.90717 0
M  V30 33761 C 4348.49 6.4116 2.90739 0
M  V30 33762 C 4349.2 5.55375 1.86963 0
M  V30 33763 N 4349.15 4.09448 2.16152 0
M  V30 33764 H 4351.99 7.45574 4.45629 0
M  V30 33765 H 4352.27 5.85864 3.679 0
M  V30 33766 H 4351.4 7.84412 2.24479 0
M  V30 33767 H 4348.74 5.73457 0.888562 0
M  V30 33768 H 4348.46 5.90877 3.88583 0
M  V30 33769 H 4347.47 6.6596 2.58858 0
M  V30 33770 H 4349.31 8.16339 3.92049 0
M  V30 33771 P 4347.43 8.7635 1.60911 0
M  V30 33772 O 4347.21 10.1388 1.11561 0
M  V30 33773 O 4346.64 8.36503 2.79617 0
M  V30 33774 O 4347.18 7.71806 0.42951 0
M  V30 33775 C 4348.12 7.67148 -0.673689 0
M  V30 33776 C 4347.39 7.33374 -1.95559 0
M  V30 33777 O 4347.18 5.88721 -2.00726 0
M  V30 33778 C 4345.99 7.92526 -2.10483 0
M  V30 33779 O 4345.6 8.02971 -3.47653 0
M  V30 33780 C 4345.11 6.89602 -1.41652 0
M  V30 33781 C 4345.82 5.59201 -1.75185 0
M  V30 33782 N 4345.77 4.58301 -0.657969 0
M  V30 33783 H 4348.61 8.65116 -0.777161 0
M  V30 33784 H 4348.89 6.9022 -0.46725 0
M  V30 33785 H 4348.02 7.66548 -2.79458 0
M  V30 33786 H 4345.36 5.16165 -2.65183 0
M  V30 33787 H 4345.08 7.06433 -0.329384 0
M  V30 33788 H 4344.09 6.90926 -1.82021 0
M  V30 33789 H 4345.93 8.90873 -1.62657 0
M  V30 33790 P 4344.05 8.03563 -3.84925 0
M  V30 33791 O 4343.83 8.85821 -5.0569 0
M  V30 33792 O 4343.26 8.41101 -2.65469 0
M  V30 33793 O 4343.8 6.4965 -4.18908 0
M  V30 33794 C 4344.74 5.81037 -5.05421 0
M  V30 33795 C 4344.01 4.78366 -5.89277 0
M  V30 33796 O 4343.8 3.58302 -5.08433 0
M  V30 33797 C 4342.61 5.17448 -6.36119 0
M  V30 33798 O 4342.22 4.45271 -7.53232 0
M  V30 33799 C 4341.73 4.74639 -5.19936 0
M  V30 33800 C 4342.44 3.49432 -4.70418 0
M  V30 33801 N 4342.39 3.31776 -3.22945 0
M  V30 33802 H 4345.23 6.54213 -5.71376 0
M  V30 33803 H 4345.51 5.30492 -4.44033 0
M  V30 33804 H 4344.64 4.55889 -6.76652 0
M  V30 33805 P 4340.67 4.23843 -7.83734 0
M  V30 33806 O 4340.45 4.19407 -9.29784 0
M  V30 33807 O 4339.88 5.24426 -7.09156 0
M  V30 33808 O 4340.42 2.7935 -7.20758 0
M  V30 33809 C 4341.36 1.7299 -7.50419 0
M  V30 33810 C 4340.63 0.406376 -7.57911 0
M  V30 33811 O 4340.42 -0.0897726 -6.21935 0
M  V30 33812 C 4339.23 0.447224 -8.1878 0
M  V30 33813 O 4338.84 -0.825065 -8.71101 0
M  V30 33814 C 4338.35 0.783801 -6.99623 0
M  V30 33815 C 4339.06 0.0619192 -5.85967 0
M  V30 33816 N 4339.01 0.7859 -4.56281 0
M  V30 33817 H 4341.85 1.93423 -8.4679 0
M  V30 33818 H 4342.13 1.68181 -6.71046 0
M  V30 33819 H 4341.26 -0.289041 -8.15388 0
M  V30 33820 P 4337.29 -1.17771 -8.83182 0
M  V30 33821 O 4337.07 -2.07206 -9.98732 0
M  V30 33822 O 4336.5 0.0743816 -8.81969 0
M  V30 33823 O 4337.04 -1.97652 -7.47304 0
M  V30 33824 C 4337.98 -3.01133 -7.08783 0
M  V30 33825 C 4337.25 -4.12613 -6.37049 0
M  V30 33826 O 4337.04 -3.72827 -4.97879 0
M  V30 33827 C 4335.85 -4.45085 -6.88694 0
M  V30 33828 O 4335.46 -5.7877 -6.5624 0
M  V30 33829 C 4334.97 -3.47817 -6.12078 0
M  V30 33830 C 4335.68 -3.39414 -4.77697 0
M  V30 33831 N 4335.63 -2.04199 -4.15538 0
M  V30 33832 H 4338.47 -3.41248 -7.98759 0
M  V30 33833 H 4338.75 -2.57728 -6.42 0
M  V30 33834 H 4337.88 -5.02657 -6.42673 0
M  V30 33835 H 4335.22 -4.11708 -4.08956 0
M  V30 33836 H 4334.94 -2.49626 -6.61679 0
M  V30 33837 H 4333.95 -3.8662 -6.00862 0
M  V30 33838 H 4335.79 -4.29991 -7.97006 0
M  V30 33839 P 4333.91 -6.144 -6.45285 0
M  V30 33840 O 4333.69 -7.54673 -6.86199 0
M  V30 33841 O 4333.12 -5.12391 -7.179 0
M  V30 33842 O 4333.66 -5.99158 -4.88404 0
M  V30 33843 C 4334.6 -6.60234 -3.96415 0
M  V30 33844 C 4333.87 -7.08259 -2.72856 0
M  V30 33845 O 4333.66 -5.9427 -1.83651 0
M  V30 33846 C 4332.47 -7.64886 -2.9555 0
M  V30 33847 O 4332.08 -8.53963 -1.90717 0
M  V30 33848 C 4331.59 -6.4116 -2.90739 0
M  V30 33849 C 4332.3 -5.55375 -1.86963 0
M  V30 33850 N 4332.25 -4.09664 -2.15742 0
M  V30 33851 H 4335.09 -7.45574 -4.45629 0
M  V30 33852 H 4335.37 -5.86232 -3.67314 0
M  V30 33853 H 4334.5 -7.84412 -2.24479 0
M  V30 33854 P 4330.53 -8.7635 -1.60911 0
M  V30 33855 O 4330.31 -10.1388 -1.11561 0
M  V30 33856 O 4329.74 -8.36503 -2.79617 0
M  V30 33857 O 4330.28 -7.71806 -0.42951 0
M  V30 33858 C 4331.22 -7.66948 0.673514 0
M  V30 33859 C 4330.49 -7.33374 1.95559 0
M  V30 33860 O 4330.28 -5.88721 2.00726 0
M  V30 33861 C 4329.09 -7.92218 2.1125 0
M  V30 33862 O 4328.7 -8.02971 3.47653 0
M  V30 33863 C 4328.21 -6.89504 1.41631 0
M  V30 33864 C 4328.92 -5.59106 1.75155 0
M  V30 33865 N 4328.87 -4.58136 0.662409 0
M  V30 33866 C 4328.72 -3.26059 1.02863 0
M  V30 33867 O 4328.63 -2.90743 2.19009 0
M  V30 33868 N 4328.68 -2.35995 -0.0155585 0
M  V30 33869 C 4328.77 -2.65248 -1.35603 0
M  V30 33870 O 4328.72 -1.75605 -2.20651 0
M  V30 33871 C 4328.92 -4.05747 -1.64698 0
M  V30 33872 C 4329.03 -4.42345 -3.09553 0
M  V30 33873 C 4328.97 -4.96734 -0.652411 0
M  V30 33874 H 4331.72 -8.64917 0.776982 0
M  V30 33875 H 4331.98 -6.89974 0.474015 0
M  V30 33876 H 4331.12 -7.66548 2.79458 0
M  V30 33877 H 4328.46 -5.16076 2.65138 0
M  V30 33878 H 4328.18 -7.06433 0.329384 0
M  V30 33879 H 4327.19 -6.90829 1.81996 0
M  V30 33880 H 4329.03 -8.90774 1.62639 0
M  V30 33881 H 4329.1 -6.02181 -0.895285 0
M  V30 33882 H 4328.07 -4.80252 -3.45468 0
M  V30 33883 H 4329.8 -5.20015 -3.22119 0
M  V30 33884 H 4329.32 -3.53269 -3.67833 0
M  V30 33885 H 4328.58 -1.39558 0.227499 0
M  V30 33886 P 4327.15 -8.03563 3.84925 0
M  V30 33887 O 4326.93 -8.85821 5.0569 0
M  V30 33888 O 4326.36 -8.41101 2.65469 0
M  V30 33889 O 4326.9 -6.4965 4.18908 0
M  V30 33890 C 4327.84 -5.81037 5.05421 0
M  V30 33891 C 4327.11 -4.78366 5.89277 0
M  V30 33892 O 4326.9 -3.58302 5.08433 0
M  V30 33893 C 4325.71 -5.17448 6.36119 0
M  V30 33894 O 4325.32 -4.45271 7.53232 0
M  V30 33895 C 4324.83 -4.74639 5.19936 0
M  V30 33896 C 4325.54 -3.49432 4.70418 0
M  V30 33897 N 4325.49 -3.31776 3.22945 0
M  V30 33898 H 4328.33 -6.54213 5.71376 0
M  V30 33899 H 4328.61 -5.30492 4.44033 0
M  V30 33900 H 4327.74 -4.55889 6.76652 0
M  V30 33901 P 4323.77 -4.23843 7.83734 0
M  V30 33902 O 4323.55 -4.19407 9.29784 0
M  V30 33903 O 4322.98 -5.24426 7.09156 0
M  V30 33904 O 4323.52 -2.7935 7.20758 0
M  V30 33905 C 4324.46 -1.7299 7.50419 0
M  V30 33906 C 4323.73 -0.406376 7.57911 0
M  V30 33907 O 4323.52 0.0897726 6.21935 0
M  V30 33908 C 4322.33 -0.447224 8.1878 0
M  V30 33909 O 4321.94 0.825065 8.71101 0
M  V30 33910 C 4321.45 -0.783801 6.99623 0
M  V30 33911 C 4322.16 -0.0619192 5.85967 0
M  V30 33912 N 4322.11 -0.790462 4.56202 0
M  V30 33913 C 4322.19 -2.13895 4.34171 0
M  V30 33914 N 4322.12 -2.46449 3.08687 0
M  V30 33915 C 4321.97 -1.2525 2.43697 0
M  V30 33916 C 4321.84 -0.914535 1.07318 0
M  V30 33917 N 4321.83 -1.80782 0.0887348 0
M  V30 33918 N 4321.72 0.386745 0.768133 0
M  V30 33919 C 4321.73 1.28096 1.75159 0
M  V30 33920 N 4321.85 1.09708 3.04861 0
M  V30 33921 C 4321.97 -0.214857 3.32306 0
M  V30 33922 H 4324.95 -1.93423 8.4679 0
M  V30 33923 H 4325.23 -1.68852 6.70877 0
M  V30 33924 H 4324.36 0.289041 8.15388 0
M  V30 33925 H 4321.7 0.927006 5.72848 0
M  V30 33926 H 4321.42 -1.86973 6.82036 0
M  V30 33927 H 4320.43 -0.403953 7.13357 0
M  V30 33928 H 4322.27 -1.20599 8.97534 0
M  V30 33929 H 4322.31 -2.86846 5.14318 0
M  V30 33930 H 4321.93 -2.81082 0.302037 0
M  V30 33931 H 4321.74 -1.49688 -0.889064 0
M  V30 33932 H 4321.63 2.31317 1.43855 0
M  V30 33933 P 4320.39 1.17771 8.83182 0
M  V30 33934 O 4320.17 2.07206 9.98732 0
M  V30 33935 O 4319.6 -0.0743816 8.81969 0
M  V30 33936 O 4320.14 1.97652 7.47304 0
M  V30 33937 C 4321.08 3.01133 7.08783 0
M  V30 33938 C 4320.35 4.12613 6.37049 0
M  V30 33939 O 4320.14 3.72827 4.97879 0
M  V30 33940 C 4318.95 4.45085 6.88694 0
M  V30 33941 O 4318.56 5.7877 6.5624 0
M  V30 33942 C 4318.07 3.47817 6.12078 0
M  V30 33943 C 4318.78 3.39414 4.77697 0
M  V30 33944 N 4318.73 2.04199 4.15538 0
M  V30 33945 C 4318.81 0.821545 4.76977 0
M  V30 33946 N 4318.74 -0.1794 3.94592 0
M  V30 33947 C 4318.59 0.419121 2.70776 0
M  V30 33948 C 4318.46 -0.109072 1.40577 0
M  V30 33949 N 4318.45 -1.4104 1.1344 0
M  V30 33950 N 4318.34 0.764381 0.39411 0
M  V30 33951 C 4318.35 2.06587 0.664135 0
M  V30 33952 N 4318.47 2.67948 1.82153 0
M  V30 33953 C 4318.59 1.77942 2.8147 0
M  V30 33954 H 4321.57 3.41248 7.98759 0
M  V30 33955 H 4321.85 2.57728 6.42 0
M  V30 33956 H 4320.98 5.02657 6.42673 0
M  V30 33957 H 4318.32 4.11708 4.08956 0
M  V30 33958 H 4318.04 2.49626 6.61679 0
M  V30 33959 H 4317.05 3.8662 6.00862 0
M  V30 33960 H 4318.89 4.29991 7.97006 0
M  V30 33961 H 4318.93 0.702451 5.84696 0
M  V30 33962 H 4318.55 -2.09647 1.89651 0
M  V30 33963 H 4318.36 -1.73358 0.160575 0
M  V30 33964 H 4318.25 2.71695 -0.195838 0
M  V30 33965 P 4317.01 6.144 6.45285 0
M  V30 33966 O 4316.79 7.54673 6.86199 0
M  V30 33967 O 4316.22 5.12391 7.179 0
M  V30 33968 O 4316.76 5.99158 4.88404 0
M  V30 33969 C 4317.7 6.60234 3.96415 0
M  V30 33970 C 4316.97 7.08259 2.72856 0
M  V30 33971 O 4316.76 5.9427 1.83651 0
M  V30 33972 C 4315.57 7.64886 2.9555 0
M  V30 33973 O 4315.18 8.53963 1.90717 0
M  V30 33974 C 4314.69 6.4116 2.90739 0
M  V30 33975 C 4315.4 5.55375 1.86963 0
M  V30 33976 N 4315.35 4.09664 2.15742 0
M  V30 33977 H 4318.19 7.45574 4.45629 0
M  V30 33978 H 4318.47 5.86232 3.67314 0
M  V30 33979 H 4317.6 7.84412 2.24479 0
M  V30 33980 P 4313.63 8.7635 1.60911 0
M  V30 33981 O 4313.41 10.1388 1.11561 0
M  V30 33982 O 4312.84 8.36503 2.79617 0
M  V30 33983 O 4313.38 7.71806 0.42951 0
M  V30 33984 C 4314.32 7.67148 -0.673689 0
M  V30 33985 C 4313.59 7.33374 -1.95559 0
M  V30 33986 O 4313.38 5.88721 -2.00726 0
M  V30 33987 C 4312.19 7.92526 -2.10483 0
M  V30 33988 O 4311.8 8.02971 -3.47653 0
M  V30 33989 C 4311.31 6.89602 -1.41652 0
M  V30 33990 C 4312.02 5.59201 -1.75185 0
M  V30 33991 N 4311.97 4.58301 -0.657969 0
M  V30 33992 H 4314.81 8.65116 -0.777161 0
M  V30 33993 H 4315.09 6.9022 -0.46725 0
M  V30 33994 H 4314.22 7.66548 -2.79458 0
M  V30 33995 H 4311.56 5.16165 -2.65183 0
M  V30 33996 H 4311.28 7.06433 -0.329384 0
M  V30 33997 H 4310.29 6.90926 -1.82021 0
M  V30 33998 H 4312.13 8.90873 -1.62657 0
M  V30 33999 P 4310.25 8.03563 -3.84925 0
M  V30 34000 O 4310.03 8.85821 -5.0569 0
M  V30 34001 O 4309.46 8.41101 -2.65469 0
M  V30 34002 O 4310 6.4965 -4.18908 0
M  V30 34003 C 4310.94 5.81037 -5.05421 0
M  V30 34004 C 4310.21 4.78366 -5.89277 0
M  V30 34005 O 4310 3.58302 -5.08433 0
M  V30 34006 C 4308.81 5.17448 -6.36119 0
M  V30 34007 O 4308.42 4.45271 -7.53232 0
M  V30 34008 C 4307.93 4.74639 -5.19936 0
M  V30 34009 C 4308.64 3.49432 -4.70418 0
M  V30 34010 N 4308.59 3.32099 -3.22613 0
M  V30 34011 H 4311.43 6.54213 -5.71376 0
M  V30 34012 H 4311.71 5.30936 -4.43503 0
M  V30 34013 H 4310.84 4.55889 -6.76652 0
M  V30 34014 H 4308.18 2.61715 -5.17932 0
M  V30 34015 H 4307.9 5.52155 -4.41878 0
M  V30 34016 H 4306.91 4.51981 -5.53374 0
M  V30 34017 H 4308.75 6.25124 -6.55234 0
M  V30 34018 P 4306.87 4.23843 -7.83734 0
M  V30 34019 O 4306.65 4.19407 -9.29784 0
M  V30 34020 O 4306.08 5.24426 -7.09156 0
M  V30 34021 O 4306.62 2.7935 -7.20758 0
M  V30 34022 C 4307.56 1.7299 -7.50419 0
M  V30 34023 C 4306.83 0.406376 -7.57911 0
M  V30 34024 O 4306.62 -0.0897726 -6.21935 0
M  V30 34025 C 4305.43 0.447224 -8.1878 0
M  V30 34026 O 4305.04 -0.825065 -8.71101 0
M  V30 34027 C 4304.55 0.783801 -6.99623 0
M  V30 34028 C 4305.26 0.0619192 -5.85967 0
M  V30 34029 N 4305.21 0.790462 -4.56202 0
M  V30 34030 C 4305.29 2.13895 -4.34171 0
M  V30 34031 N 4305.22 2.46449 -3.08687 0
M  V30 34032 C 4305.07 1.2525 -2.43697 0
M  V30 34033 C 4304.94 0.914535 -1.07318 0
M  V30 34034 N 4304.93 1.80782 -0.0887348 0
M  V30 34035 N 4304.82 -0.386745 -0.768133 0
M  V30 34036 C 4304.83 -1.28096 -1.75159 0
M  V30 34037 N 4304.95 -1.09708 -3.04861 0
M  V30 34038 C 4305.07 0.214857 -3.32306 0
M  V30 34039 H 4308.05 1.93423 -8.4679 0
M  V30 34040 H 4308.33 1.68852 -6.70877 0
M  V30 34041 H 4307.46 -0.289041 -8.15388 0
M  V30 34042 H 4304.8 -0.927006 -5.72848 0
M  V30 34043 H 4304.52 1.86973 -6.82036 0
M  V30 34044 H 4303.53 0.403953 -7.13357 0
M  V30 34045 H 4305.37 1.20599 -8.97534 0
M  V30 34046 H 4305.41 2.86846 -5.14318 0
M  V30 34047 H 4305.03 2.81082 -0.302037 0
M  V30 34048 H 4304.84 1.49688 0.889064 0
M  V30 34049 H 4304.73 -2.31317 -1.43855 0
M  V30 34050 P 4303.49 -1.17771 -8.83182 0
M  V30 34051 O 4303.27 -2.07206 -9.98732 0
M  V30 34052 O 4302.7 0.0743816 -8.81969 0
M  V30 34053 O 4303.24 -1.97652 -7.47304 0
M  V30 34054 C 4304.18 -3.01133 -7.08783 0
M  V30 34055 C 4303.45 -4.12613 -6.37049 0
M  V30 34056 O 4303.24 -3.72827 -4.97879 0
M  V30 34057 C 4302.05 -4.45085 -6.88694 0
M  V30 34058 O 4301.66 -5.7877 -6.5624 0
M  V30 34059 C 4301.17 -3.47817 -6.12078 0
M  V30 34060 C 4301.88 -3.39414 -4.77697 0
M  V30 34061 N 4301.83 -2.04199 -4.15538 0
M  V30 34062 H 4304.67 -3.41248 -7.98759 0
M  V30 34063 H 4304.95 -2.57728 -6.42 0
M  V30 34064 H 4304.08 -5.02657 -6.42673 0
M  V30 34065 H 4301.42 -4.11708 -4.08956 0
M  V30 34066 H 4301.14 -2.49626 -6.61679 0
M  V30 34067 H 4300.15 -3.8662 -6.00862 0
M  V30 34068 H 4301.99 -4.29991 -7.97006 0
M  V30 34069 P 4300.11 -6.144 -6.45285 0
M  V30 34070 O 4299.89 -7.54673 -6.86199 0
M  V30 34071 O 4299.32 -5.12391 -7.179 0
M  V30 34072 O 4299.86 -5.99158 -4.88404 0
M  V30 34073 C 4300.8 -6.60234 -3.96415 0
M  V30 34074 C 4300.07 -7.08259 -2.72856 0
M  V30 34075 O 4299.86 -5.9427 -1.83651 0
M  V30 34076 C 4298.67 -7.64886 -2.9555 0
M  V30 34077 O 4298.28 -8.53963 -1.90717 0
M  V30 34078 C 4297.79 -6.4116 -2.90739 0
M  V30 34079 C 4298.5 -5.55375 -1.86963 0
M  V30 34080 N 4298.45 -4.09448 -2.16152 0
M  V30 34081 C 4298.53 -3.46824 -3.37593 0
M  V30 34082 N 4298.46 -2.17422 -3.29777 0
M  V30 34083 C 4298.31 -1.93065 -1.94427 0
M  V30 34084 C 4298.18 -0.738053 -1.20141 0
M  V30 34085 N 4298.17 0.474256 -1.74676 0
M  V30 34086 N 4298.06 -0.850049 0.13045 0
M  V30 34087 C 4298.07 -2.06169 0.676992 0
M  V30 34088 N 4298.19 -3.23842 0.101312 0
M  V30 34089 C 4298.31 -3.09402 -1.23122 0
M  V30 34090 H 4301.29 -7.45574 -4.45629 0
M  V30 34091 H 4301.57 -5.85864 -3.679 0
M  V30 34092 H 4300.7 -7.84412 -2.24479 0
M  V30 34093 H 4298.04 -5.73457 -0.888562 0
M  V30 34094 H 4297.76 -5.90877 -3.88583 0
M  V30 34095 H 4296.77 -6.6596 -2.58858 0
M  V30 34096 H 4298.61 -8.16339 -3.92049 0
M  V30 34097 H 4298.65 -4.00505 -4.3174 0
M  V30 34098 H 4298.27 0.581337 -2.76658 0
M  V30 34099 H 4298.08 1.30811 -1.14888 0
M  V30 34100 H 4297.97 -2.08295 1.75542 0
M  V30 34101 P 4296.73 -8.7635 -1.60911 0
M  V30 34102 O 4296.51 -10.1388 -1.11561 0
M  V30 34103 O 4295.94 -8.36503 -2.79617 0
M  V30 34104 O 4296.48 -7.71906 -0.429565 0
M  V30 34105 C 4297.42 -7.67148 0.673689 0
M  V30 34106 C 4296.69 -7.33666 1.94851 0
M  V30 34107 O 4296.48 -5.88816 2.00759 0
M  V30 34108 C 4295.29 -7.92526 2.10483 0
M  V30 34109 O 4294.9 -8.03063 3.47693 0
M  V30 34110 C 4294.41 -6.89602 1.41652 0
M  V30 34111 C 4295.12 -5.59201 1.75185 0
M  V30 34112 N 4295.07 -4.58235 0.662552 0
M  V30 34113 C 4294.92 -3.24451 1.01643 0
M  V30 34114 O 4294.83 -2.94958 2.21722 0
M  V30 34115 N 4294.87 -2.30408 -0.165238 0
M  V30 34116 C 4294.97 -2.66048 -1.25118 0
M  V30 34117 N 4294.92 -1.70787 -2.16813 0
M  V30 34118 C 4295.12 -4.02732 -1.64413 0
M  V30 34119 C 4295.17 -4.9488 -0.63991 0
M  V30 34120 H 4297.91 -8.65017 0.777072 0
M  V30 34121 H 4298.18 -6.90173 0.474152 0
M  V30 34122 H 4297.32 -7.66642 2.79492 0
M  V30 34123 H 4294.66 -5.16254 2.65229 0
M  V30 34124 H 4294.38 -7.06532 0.329431 0
M  V30 34125 H 4293.39 -6.91023 1.82047 0
M  V30 34126 H 4295.23 -8.90873 1.62657 0
M  V30 34127 H 4295.3 -6.00104 -0.892197 0
M  V30 34128 H 4295.2 -4.31733 -2.69229 0
M  V30 34129 H 4294.81 -0.724835 -1.8844 0
M  V30 34130 H 4295 -1.94716 -3.16734 0
M  V30 34131 P 4293.35 -8.03563 3.84925 0
M  V30 34132 O 4293.13 -8.85821 5.0569 0
M  V30 34133 O 4292.56 -8.41101 2.65469 0
M  V30 34134 O 4293.1 -6.4965 4.18908 0
M  V30 34135 C 4294.04 -5.81037 5.05421 0
M  V30 34136 C 4293.31 -4.78366 5.89277 0
M  V30 34137 O 4293.1 -3.58302 5.08433 0
M  V30 34138 C 4291.91 -5.17448 6.36119 0
M  V30 34139 O 4291.52 -4.45271 7.53232 0
M  V30 34140 C 4291.03 -4.74639 5.19936 0
M  V30 34141 C 4291.74 -3.49432 4.70418 0
M  V30 34142 N 4291.69 -3.31776 3.22945 0
M  V30 34143 H 4294.53 -6.54213 5.71376 0
M  V30 34144 H 4294.81 -5.30492 4.44033 0
M  V30 34145 H 4293.94 -4.55889 6.76652 0
M  V30 34146 P 4289.97 -4.23843 7.83734 0
M  V30 34147 O 4289.75 -4.19407 9.29784 0
M  V30 34148 O 4289.18 -5.24426 7.09156 0
M  V30 34149 O 4289.72 -2.7935 7.20758 0
M  V30 34150 C 4290.66 -1.7299 7.50419 0
M  V30 34151 C 4289.93 -0.406376 7.57911 0
M  V30 34152 O 4289.72 0.0897726 6.21935 0
M  V30 34153 C 4288.53 -0.447224 8.1878 0
M  V30 34154 O 4288.14 0.825065 8.71101 0
M  V30 34155 C 4287.65 -0.783801 6.99623 0
M  V30 34156 C 4288.36 -0.0619192 5.85967 0
M  V30 34157 N 4288.31 -0.7859 4.56281 0
M  V30 34158 H 4291.15 -1.93423 8.4679 0
M  V30 34159 H 4291.43 -1.68181 6.71046 0
M  V30 34160 H 4290.56 0.289041 8.15388 0
M  V30 34161 P 4286.59 1.17771 8.83182 0
M  V30 34162 O 4286.37 2.07206 9.98732 0
M  V30 34163 O 4285.8 -0.0743816 8.81969 0
M  V30 34164 O 4286.34 1.97652 7.47304 0
M  V30 34165 C 4287.28 3.01055 7.08599 0
M  V30 34166 C 4286.55 4.12613 6.37049 0
M  V30 34167 O 4286.34 3.72827 4.97879 0
M  V30 34168 C 4285.15 4.45719 6.88164 0
M  V30 34169 O 4284.76 5.7877 6.5624 0
M  V30 34170 C 4284.27 3.47768 6.11991 0
M  V30 34171 C 4284.98 3.39356 4.77615 0
M  V30 34172 N 4284.93 2.04571 4.15244 0
M  V30 34173 C 4284.78 1.98587 2.78314 0
M  V30 34174 O 4284.69 2.98134 2.08835 0
M  V30 34175 N 4284.74 0.714467 2.24925 0
M  V30 34176 C 4284.83 -0.470001 2.94169 0
M  V30 34177 C 4284.98 -0.312541 4.36783 0
M  V30 34178 C 4285.03 0.914512 4.92583 0
M  V30 34179 H 4287.78 3.41169 7.98575 0
M  V30 34180 H 4288.04 2.58295 6.41556 0
M  V30 34181 H 4287.18 5.02657 6.42673 0
M  V30 34182 H 4284.52 4.11637 4.08885 0
M  V30 34183 H 4284.24 2.49626 6.61679 0
M  V30 34184 H 4283.25 3.86566 6.00778 0
M  V30 34185 H 4285.09 4.29943 7.96918 0
M  V30 34186 H 4285.16 1.00937 6.00374 0
M  V30 34187 P 4283.21 6.144 6.45285 0
M  V30 34188 O 4282.99 7.54673 6.86199 0
M  V30 34189 O 4282.42 5.12391 7.179 0
M  V30 34190 O 4282.96 5.99158 4.88404 0
M  V30 34191 C 4283.9 6.60234 3.96415 0
M  V30 34192 C 4283.17 7.08259 2.72856 0
M  V30 34193 O 4282.96 5.9427 1.83651 0
M  V30 34194 C 4281.77 7.64886 2.9555 0
M  V30 34195 O 4281.38 8.53963 1.90717 0
M  V30 34196 C 4280.89 6.4116 2.90739 0
M  V30 34197 C 4281.6 5.55375 1.86963 0
M  V30 34198 N 4281.55 4.09448 2.16152 0
M  V30 34199 H 4284.39 7.45574 4.45629 0
M  V30 34200 H 4284.67 5.85864 3.679 0
M  V30 34201 H 4283.8 7.84412 2.24479 0
M  V30 34202 H 4281.14 5.73457 0.888562 0
M  V30 34203 H 4280.86 5.90877 3.88583 0
M  V30 34204 H 4279.87 6.6596 2.58858 0
M  V30 34205 H 4281.71 8.16339 3.92049 0
M  V30 34206 P 4279.83 8.7635 1.60911 0
M  V30 34207 O 4279.61 10.1388 1.11561 0
M  V30 34208 O 4279.04 8.36503 2.79617 0
M  V30 34209 O 4279.58 7.71806 0.42951 0
M  V30 34210 C 4280.52 7.67148 -0.673689 0
M  V30 34211 C 4279.79 7.33374 -1.95559 0
M  V30 34212 O 4279.58 5.88721 -2.00726 0
M  V30 34213 C 4278.39 7.92526 -2.10483 0
M  V30 34214 O 4278 8.02971 -3.47653 0
M  V30 34215 C 4277.51 6.89602 -1.41652 0
M  V30 34216 C 4278.22 5.59201 -1.75185 0
M  V30 34217 N 4278.17 4.58235 -0.662552 0
M  V30 34218 H 4281.01 8.65116 -0.777161 0
M  V30 34219 H 4281.29 6.90173 -0.474152 0
M  V30 34220 H 4280.42 7.66548 -2.79458 0
M  V30 34221 P 4276.45 8.03563 -3.84925 0
M  V30 34222 O 4276.23 8.85821 -5.0569 0
M  V30 34223 O 4275.66 8.41101 -2.65469 0
M  V30 34224 O 4276.2 6.4965 -4.18908 0
M  V30 34225 C 4277.14 5.81037 -5.05421 0
M  V30 34226 C 4276.41 4.78366 -5.89277 0
M  V30 34227 O 4276.2 3.58302 -5.08433 0
M  V30 34228 C 4275.01 5.17448 -6.36119 0
M  V30 34229 O 4274.62 4.45271 -7.53232 0
M  V30 34230 C 4274.13 4.74639 -5.19936 0
M  V30 34231 C 4274.84 3.49432 -4.70418 0
M  V30 34232 N 4274.79 3.32099 -3.22613 0
M  V30 34233 H 4277.63 6.54213 -5.71376 0
M  V30 34234 H 4277.91 5.30936 -4.43503 0
M  V30 34235 H 4277.04 4.55889 -6.76652 0
M  V30 34236 H 4274.38 2.61715 -5.17932 0
M  V30 34237 H 4274.1 5.52155 -4.41878 0
M  V30 34238 H 4273.11 4.51981 -5.53374 0
M  V30 34239 H 4274.95 6.25124 -6.55234 0
M  V30 34240 P 4273.07 4.23843 -7.83734 0
M  V30 34241 O 4272.85 4.19407 -9.29784 0
M  V30 34242 O 4272.28 5.24426 -7.09156 0
M  V30 34243 O 4272.82 2.7935 -7.20758 0
M  V30 34244 C 4273.76 1.7299 -7.50419 0
M  V30 34245 C 4273.03 0.406376 -7.57911 0
M  V30 34246 O 4272.82 -0.0897726 -6.21935 0
M  V30 34247 C 4271.63 0.447224 -8.1878 0
M  V30 34248 O 4271.24 -0.825065 -8.71101 0
M  V30 34249 C 4270.75 0.783801 -6.99623 0
M  V30 34250 C 4271.46 0.0619192 -5.85967 0
M  V30 34251 N 4271.41 0.790462 -4.56202 0
M  V30 34252 H 4274.25 1.93423 -8.4679 0
M  V30 34253 H 4274.53 1.68852 -6.70877 0
M  V30 34254 H 4273.66 -0.289041 -8.15388 0
M  V30 34255 H 4271 -0.927006 -5.72848 0
M  V30 34256 H 4270.72 1.86973 -6.82036 0
M  V30 34257 H 4269.73 0.403953 -7.13357 0
M  V30 34258 H 4271.57 1.20599 -8.97534 0
M  V30 34259 P 4269.69 -1.17771 -8.83182 0
M  V30 34260 O 4269.47 -2.07206 -9.98732 0
M  V30 34261 O 4268.9 0.0743816 -8.81969 0
M  V30 34262 O 4269.44 -1.97652 -7.47304 0
M  V30 34263 C 4270.38 -3.01133 -7.08783 0
M  V30 34264 C 4269.65 -4.12613 -6.37049 0
M  V30 34265 O 4269.44 -3.72827 -4.97879 0
M  V30 34266 C 4268.25 -4.45085 -6.88694 0
M  V30 34267 O 4267.86 -5.7877 -6.5624 0
M  V30 34268 C 4267.37 -3.47817 -6.12078 0
M  V30 34269 C 4268.08 -3.39414 -4.77697 0
M  V30 34270 N 4268.03 -2.04615 -4.15333 0
M  V30 34271 H 4270.87 -3.41248 -7.98759 0
M  V30 34272 H 4271.15 -2.5837 -6.41742 0
M  V30 34273 H 4270.28 -5.02657 -6.42673 0
M  V30 34274 P 4266.31 -6.144 -6.45285 0
M  V30 34275 O 4266.09 -7.54673 -6.86199 0
M  V30 34276 O 4265.52 -5.12391 -7.179 0
M  V30 34277 O 4266.06 -5.99158 -4.88404 0
M  V30 34278 C 4267 -6.60234 -3.96415 0
M  V30 34279 C 4266.27 -7.08259 -2.72856 0
M  V30 34280 O 4266.06 -5.9427 -1.83651 0
M  V30 34281 C 4264.87 -7.64886 -2.9555 0
M  V30 34282 O 4264.48 -8.53963 -1.90717 0
M  V30 34283 C 4263.99 -6.4116 -2.90739 0
M  V30 34284 C 4264.7 -5.55375 -1.86963 0
M  V30 34285 N 4264.65 -4.09664 -2.15742 0
M  V30 34286 H 4267.49 -7.45574 -4.45629 0
M  V30 34287 H 4267.77 -5.86232 -3.67314 0
M  V30 34288 H 4266.9 -7.84412 -2.24479 0
M  V30 34289 P 4262.93 -8.7635 -1.60911 0
M  V30 34290 O 4262.71 -10.1388 -1.11561 0
M  V30 34291 O 4262.14 -8.36503 -2.79617 0
M  V30 34292 O 4262.68 -7.71806 -0.42951 0
M  V30 34293 C 4263.62 -7.66948 0.673514 0
M  V30 34294 C 4262.89 -7.33374 1.95559 0
M  V30 34295 O 4262.68 -5.88721 2.00726 0
M  V30 34296 C 4261.49 -7.92218 2.1125 0
M  V30 34297 O 4261.1 -8.02971 3.47653 0
M  V30 34298 C 4260.61 -6.89504 1.41631 0
M  V30 34299 C 4261.32 -5.59106 1.75155 0
M  V30 34300 N 4261.27 -4.58136 0.662409 0
M  V30 34301 C 4261.12 -3.26059 1.02863 0
M  V30 34302 O 4261.03 -2.90743 2.19009 0
M  V30 34303 N 4261.08 -2.35995 -0.0155585 0
M  V30 34304 C 4261.17 -2.65248 -1.35603 0
M  V30 34305 C 4261.32 -4.05747 -1.64698 0
M  V30 34306 C 4261.37 -4.96734 -0.652411 0
M  V30 34307 H 4264.12 -8.64917 0.776982 0
M  V30 34308 H 4264.38 -6.89974 0.474015 0
M  V30 34309 H 4263.52 -7.66548 2.79458 0
M  V30 34310 H 4260.86 -5.16076 2.65138 0
M  V30 34311 H 4260.58 -7.06433 0.329384 0
M  V30 34312 H 4259.59 -6.90829 1.81996 0
M  V30 34313 H 4261.43 -8.90774 1.62639 0
M  V30 34314 H 4261.5 -6.02181 -0.895285 0
M  V30 34315 P 4259.55 -8.03563 3.84925 0
M  V30 34316 O 4259.33 -8.85821 5.0569 0
M  V30 34317 O 4258.76 -8.41101 2.65469 0
M  V30 34318 O 4259.3 -6.4965 4.18908 0
M  V30 34319 C 4260.24 -5.81037 5.05421 0
M  V30 34320 C 4259.51 -4.78366 5.89277 0
M  V30 34321 O 4259.3 -3.58302 5.08433 0
M  V30 34322 C 4258.11 -5.17448 6.36119 0
M  V30 34323 O 4257.72 -4.45271 7.53232 0
M  V30 34324 C 4257.23 -4.74639 5.19936 0
M  V30 34325 C 4257.94 -3.49432 4.70418 0
M  V30 34326 N 4257.89 -3.31776 3.22945 0
M  V30 34327 H 4260.73 -6.54213 5.71376 0
M  V30 34328 H 4261.01 -5.30492 4.44033 0
M  V30 34329 H 4260.14 -4.55889 6.76652 0
M  V30 34330 P 4256.17 -4.23843 7.83734 0
M  V30 34331 O 4255.95 -4.19407 9.29784 0
M  V30 34332 O 4255.38 -5.24426 7.09156 0
M  V30 34333 O 4255.92 -2.7935 7.20758 0
M  V30 34334 C 4256.86 -1.7299 7.50419 0
M  V30 34335 C 4256.13 -0.406376 7.57911 0
M  V30 34336 O 4255.92 0.0897726 6.21935 0
M  V30 34337 C 4254.73 -0.447224 8.1878 0
M  V30 34338 O 4254.34 0.825065 8.71101 0
M  V30 34339 C 4253.85 -0.783801 6.99623 0
M  V30 34340 C 4254.56 -0.0619192 5.85967 0
M  V30 34341 N 4254.51 -0.790462 4.56202 0
M  V30 34342 H 4257.35 -1.93423 8.4679 0
M  V30 34343 H 4257.63 -1.68852 6.70877 0
M  V30 34344 H 4256.76 0.289041 8.15388 0
M  V30 34345 H 4254.1 0.927006 5.72848 0
M  V30 34346 H 4253.82 -1.86973 6.82036 0
M  V30 34347 H 4252.83 -0.403953 7.13357 0
M  V30 34348 H 4254.67 -1.20599 8.97534 0
M  V30 34349 P 4252.79 1.17771 8.83182 0
M  V30 34350 O 4252.57 2.07206 9.98732 0
M  V30 34351 O 4252 -0.0743816 8.81969 0
M  V30 34352 O 4252.54 1.97652 7.47304 0
M  V30 34353 C 4253.48 3.01133 7.08783 0
M  V30 34354 C 4252.75 4.12613 6.37049 0
M  V30 34355 O 4252.54 3.72827 4.97879 0
M  V30 34356 C 4251.35 4.45085 6.88694 0
M  V30 34357 O 4250.96 5.7877 6.5624 0
M  V30 34358 C 4250.47 3.47817 6.12078 0
M  V30 34359 C 4251.18 3.39414 4.77697 0
M  V30 34360 N 4251.13 2.04615 4.15333 0
M  V30 34361 H 4253.97 3.41248 7.98759 0
M  V30 34362 H 4254.25 2.5837 6.41742 0
M  V30 34363 H 4253.38 5.02657 6.42673 0
M  V30 34364 P 4249.41 6.144 6.45285 0
M  V30 34365 O 4249.19 7.54673 6.86199 0
M  V30 34366 O 4248.62 5.12391 7.179 0
M  V30 34367 O 4249.16 5.99236 4.88467 0
M  V30 34368 C 4250.1 6.60234 3.96415 0
M  V30 34369 C 4249.37 7.08079 2.736 0
M  V30 34370 O 4249.16 5.94365 1.8368 0
M  V30 34371 C 4247.97 7.64886 2.9555 0
M  V30 34372 O 4247.58 8.5406 1.90739 0
M  V30 34373 C 4247.09 6.4116 2.90739 0
M  V30 34374 C 4247.8 5.55375 1.86963 0
M  V30 34375 N 4247.75 4.09664 2.15742 0
M  V30 34376 C 4247.6 3.22231 1.08477 0
M  V30 34377 O 4247.51 3.68951 -0.0600489 0
M  V30 34378 N 4247.55 1.76692 1.48799 0
M  V30 34379 C 4247.65 1.41695 2.57602 0
M  V30 34380 N 4247.6 0.107296 2.75791 0
M  V30 34381 C 4247.8 2.29178 3.69733 0
M  V30 34382 C 4247.85 3.62753 3.42653 0
M  V30 34383 H 4250.59 7.45488 4.45578 0
M  V30 34384 H 4250.86 5.86232 3.67314 0
M  V30 34385 H 4250 7.84508 2.24507 0
M  V30 34386 H 4247.34 5.73556 0.888715 0
M  V30 34387 H 4247.06 5.9096 3.88638 0
M  V30 34388 H 4246.07 6.66053 2.58894 0
M  V30 34389 H 4247.91 8.16339 3.92049 0
M  V30 34390 H 4247.98 4.33052 4.24913 0
M  V30 34391 H 4247.88 1.9103 4.71577 0
M  V30 34392 H 4247.49 -0.521221 1.95056 0
M  V30 34393 H 4247.68 -0.286429 3.70695 0
M  V30 34394 P 4246.03 8.7635 1.60911 0
M  V30 34395 O 4245.81 10.1388 1.11561 0
M  V30 34396 O 4245.24 8.36503 2.79617 0
M  V30 34397 O 4245.78 7.71806 0.42951 0
M  V30 34398 C 4246.72 7.67148 -0.673689 0
M  V30 34399 C 4245.99 7.33374 -1.95559 0
M  V30 34400 O 4245.78 5.88721 -2.00726 0
M  V30 34401 C 4244.59 7.92526 -2.10483 0
M  V30 34402 O 4244.2 8.02971 -3.47653 0
M  V30 34403 C 4243.71 6.89602 -1.41652 0
M  V30 34404 C 4244.42 5.59201 -1.75185 0
M  V30 34405 N 4244.37 4.58235 -0.662552 0
M  V30 34406 H 4247.21 8.65116 -0.777161 0
M  V30 34407 H 4247.49 6.90173 -0.474152 0
M  V30 34408 H 4246.62 7.66548 -2.79458 0
M  V30 34409 P 4242.65 8.03563 -3.84925 0
M  V30 34410 O 4242.43 8.85821 -5.0569 0
M  V30 34411 O 4241.86 8.41101 -2.65469 0
M  V30 34412 O 4242.4 6.4965 -4.18908 0
M  V30 34413 C 4243.34 5.81037 -5.05421 0
M  V30 34414 C 4242.61 4.78366 -5.89277 0
M  V30 34415 O 4242.4 3.58302 -5.08433 0
M  V30 34416 C 4241.21 5.17448 -6.36119 0
M  V30 34417 O 4240.82 4.45271 -7.53232 0
M  V30 34418 C 4240.33 4.74639 -5.19936 0
M  V30 34419 C 4241.04 3.49432 -4.70418 0
M  V30 34420 N 4240.99 3.31776 -3.22945 0
M  V30 34421 H 4243.83 6.54213 -5.71376 0
M  V30 34422 H 4244.11 5.30492 -4.44033 0
M  V30 34423 H 4243.24 4.55889 -6.76652 0
M  V30 34424 P 4239.27 4.23843 -7.83734 0
M  V30 34425 O 4239.05 4.19407 -9.29784 0
M  V30 34426 O 4238.48 5.24426 -7.09156 0
M  V30 34427 O 4239.02 2.7935 -7.20758 0
M  V30 34428 C 4239.96 1.7299 -7.50419 0
M  V30 34429 C 4239.23 0.406376 -7.57911 0
M  V30 34430 O 4239.02 -0.0897726 -6.21935 0
M  V30 34431 C 4237.83 0.447224 -8.1878 0
M  V30 34432 O 4237.44 -0.825065 -8.71101 0
M  V30 34433 C 4236.95 0.783801 -6.99623 0
M  V30 34434 C 4237.66 0.0619192 -5.85967 0
M  V30 34435 N 4237.61 0.7859 -4.56281 0
M  V30 34436 H 4240.45 1.93423 -8.4679 0
M  V30 34437 H 4240.73 1.68181 -6.71046 0
M  V30 34438 H 4239.86 -0.289041 -8.15388 0
M  V30 34439 P 4235.89 -1.17771 -8.83182 0
M  V30 34440 O 4235.67 -2.07206 -9.98732 0
M  V30 34441 O 4235.1 0.0743816 -8.81969 0
M  V30 34442 O 4235.64 -1.97652 -7.47304 0
M  V30 34443 C 4236.58 -3.01133 -7.08783 0
M  V30 34444 C 4235.85 -4.12613 -6.37049 0
M  V30 34445 O 4235.64 -3.72827 -4.97879 0
M  V30 34446 C 4234.45 -4.45085 -6.88694 0
M  V30 34447 O 4234.06 -5.7877 -6.5624 0
M  V30 34448 C 4233.57 -3.47817 -6.12078 0
M  V30 34449 C 4234.28 -3.39414 -4.77697 0
M  V30 34450 N 4234.23 -2.04615 -4.15333 0
M  V30 34451 H 4237.07 -3.41248 -7.98759 0
M  V30 34452 H 4237.35 -2.5837 -6.41742 0
M  V30 34453 H 4236.48 -5.02657 -6.42673 0
M  V30 34454 P 4232.51 -6.144 -6.45285 0
M  V30 34455 O 4232.29 -7.54673 -6.86199 0
M  V30 34456 O 4231.72 -5.12391 -7.179 0
M  V30 34457 O 4232.26 -5.99236 -4.88467 0
M  V30 34458 C 4233.2 -6.60234 -3.96415 0
M  V30 34459 C 4232.47 -7.08079 -2.736 0
M  V30 34460 O 4232.26 -5.94365 -1.8368 0
M  V30 34461 C 4231.07 -7.64886 -2.9555 0
M  V30 34462 O 4230.68 -8.5406 -1.90739 0
M  V30 34463 C 4230.19 -6.4116 -2.90739 0
M  V30 34464 C 4230.9 -5.55375 -1.86963 0
M  V30 34465 N 4230.85 -4.09664 -2.15742 0
M  V30 34466 C 4230.7 -3.22231 -1.08477 0
M  V30 34467 O 4230.61 -3.68951 0.0600489 0
M  V30 34468 N 4230.65 -1.76692 -1.48799 0
M  V30 34469 C 4230.75 -1.41695 -2.57602 0
M  V30 34470 N 4230.7 -0.107296 -2.75791 0
M  V30 34471 C 4230.9 -2.29178 -3.69733 0
M  V30 34472 C 4230.95 -3.62753 -3.42653 0
M  V30 34473 H 4233.69 -7.45488 -4.45578 0
M  V30 34474 H 4233.96 -5.86232 -3.67314 0
M  V30 34475 H 4233.1 -7.84508 -2.24507 0
M  V30 34476 H 4230.44 -5.73556 -0.888715 0
M  V30 34477 H 4230.16 -5.9096 -3.88638 0
M  V30 34478 H 4229.17 -6.66053 -2.58894 0
M  V30 34479 H 4231.01 -8.16339 -3.92049 0
M  V30 34480 H 4231.08 -4.33052 -4.24913 0
M  V30 34481 H 4230.98 -1.9103 -4.71577 0
M  V30 34482 H 4230.59 0.521221 -1.95056 0
M  V30 34483 H 4230.78 0.286429 -3.70695 0
M  V30 34484 P 4229.14 -8.7635 -1.60911 0
M  V30 34485 O 4228.92 -10.1388 -1.11561 0
M  V30 34486 O 4228.35 -8.36503 -2.79617 0
M  V30 34487 O 4228.89 -7.71806 -0.42951 0
M  V30 34488 C 4229.83 -7.67148 0.673689 0
M  V30 34489 C 4229.1 -7.33374 1.95559 0
M  V30 34490 O 4228.89 -5.88721 2.00726 0
M  V30 34491 C 4227.7 -7.92526 2.10483 0
M  V30 34492 O 4227.31 -8.02971 3.47653 0
M  V30 34493 C 4226.82 -6.89602 1.41652 0
M  V30 34494 C 4227.53 -5.59201 1.75185 0
M  V30 34495 N 4227.48 -4.58301 0.657969 0
M  V30 34496 H 4230.31 -8.65116 0.777161 0
M  V30 34497 H 4230.59 -6.9022 0.46725 0
M  V30 34498 H 4229.72 -7.66548 2.79458 0
M  V30 34499 H 4227.06 -5.16165 2.65183 0
M  V30 34500 H 4226.78 -7.06433 0.329384 0
M  V30 34501 H 4225.79 -6.90926 1.82021 0
M  V30 34502 H 4227.63 -8.90873 1.62657 0
M  V30 34503 P 4225.76 -8.03563 3.84925 0
M  V30 34504 O 4225.54 -8.85821 5.0569 0
M  V30 34505 O 4224.97 -8.41101 2.65469 0
M  V30 34506 O 4225.51 -6.4965 4.18908 0
M  V30 34507 C 4226.45 -5.81037 5.05421 0
M  V30 34508 C 4225.72 -4.78366 5.89277 0
M  V30 34509 O 4225.51 -3.58302 5.08433 0
M  V30 34510 C 4224.32 -5.17448 6.36119 0
M  V30 34511 O 4223.93 -4.45271 7.53232 0
M  V30 34512 C 4223.44 -4.74639 5.19936 0
M  V30 34513 C 4224.15 -3.49432 4.70418 0
M  V30 34514 N 4224.1 -3.31776 3.22945 0
M  V30 34515 H 4226.93 -6.54213 5.71376 0
M  V30 34516 H 4227.21 -5.30492 4.44033 0
M  V30 34517 H 4226.34 -4.55889 6.76652 0
M  V30 34518 P 4222.38 -4.23843 7.83734 0
M  V30 34519 O 4222.16 -4.19407 9.29784 0
M  V30 34520 O 4221.59 -5.24426 7.09156 0
M  V30 34521 O 4222.13 -2.7935 7.20758 0
M  V30 34522 C 4223.07 -1.7299 7.50419 0
M  V30 34523 C 4222.34 -0.406376 7.57911 0
M  V30 34524 O 4222.13 0.0897726 6.21935 0
M  V30 34525 C 4220.94 -0.447224 8.1878 0
M  V30 34526 O 4220.55 0.825065 8.71101 0
M  V30 34527 C 4220.06 -0.783801 6.99623 0
M  V30 34528 C 4220.77 -0.0619192 5.85967 0
M  V30 34529 N 4220.72 -0.7859 4.56281 0
M  V30 34530 H 4223.55 -1.93423 8.4679 0
M  V30 34531 H 4223.83 -1.68181 6.71046 0
M  V30 34532 H 4222.96 0.289041 8.15388 0
M  V30 34533 P 4219 1.17771 8.83182 0
M  V30 34534 O 4218.78 2.07206 9.98732 0
M  V30 34535 O 4218.21 -0.0743816 8.81969 0
M  V30 34536 O 4218.75 1.97652 7.47304 0
M  V30 34537 C 4219.69 3.01133 7.08783 0
M  V30 34538 C 4218.96 4.12613 6.37049 0
M  V30 34539 O 4218.75 3.72827 4.97879 0
M  V30 34540 C 4217.56 4.45085 6.88694 0
M  V30 34541 O 4217.17 5.7877 6.5624 0
M  V30 34542 C 4216.68 3.47817 6.12078 0
M  V30 34543 C 4217.39 3.39414 4.77697 0
M  V30 34544 N 4217.34 2.04615 4.15333 0
M  V30 34545 H 4220.17 3.41248 7.98759 0
M  V30 34546 H 4220.45 2.5837 6.41742 0
M  V30 34547 H 4219.58 5.02657 6.42673 0
M  V30 34548 P 4215.62 6.144 6.45285 0
M  V30 34549 O 4215.4 7.54673 6.86199 0
M  V30 34550 O 4214.83 5.12391 7.179 0
M  V30 34551 O 4215.37 5.99158 4.88404 0
M  V30 34552 C 4216.31 6.60234 3.96415 0
M  V30 34553 C 4215.58 7.08259 2.72856 0
M  V30 34554 O 4215.37 5.9427 1.83651 0
M  V30 34555 C 4214.18 7.64886 2.9555 0
M  V30 34556 O 4213.79 8.53963 1.90717 0
M  V30 34557 C 4213.3 6.4116 2.90739 0
M  V30 34558 C 4214.01 5.55375 1.86963 0
M  V30 34559 N 4213.96 4.09448 2.16152 0
M  V30 34560 H 4216.79 7.45574 4.45629 0
M  V30 34561 H 4217.07 5.85864 3.679 0
M  V30 34562 H 4216.2 7.84412 2.24479 0
M  V30 34563 H 4213.54 5.73457 0.888562 0
M  V30 34564 H 4213.26 5.90877 3.88583 0
M  V30 34565 H 4212.27 6.6596 2.58858 0
M  V30 34566 H 4214.11 8.16339 3.92049 0
M  V30 34567 P 4212.24 8.7635 1.60911 0
M  V30 34568 O 4212.02 10.1388 1.11561 0
M  V30 34569 O 4211.45 8.36503 2.79617 0
M  V30 34570 O 4211.99 7.71906 0.429565 0
M  V30 34571 C 4212.93 7.67148 -0.673689 0
M  V30 34572 C 4212.2 7.33666 -1.94851 0
M  V30 34573 O 4211.99 5.88816 -2.00759 0
M  V30 34574 C 4210.8 7.92526 -2.10483 0
M  V30 34575 O 4210.41 8.03063 -3.47693 0
M  V30 34576 C 4209.92 6.89602 -1.41652 0
M  V30 34577 C 4210.63 5.59201 -1.75185 0
M  V30 34578 N 4210.58 4.58235 -0.662552 0
M  V30 34579 C 4210.43 3.24451 -1.01643 0
M  V30 34580 O 4210.34 2.94958 -2.21722 0
M  V30 34581 N 4210.38 2.30408 0.165238 0
M  V30 34582 C 4210.48 2.66048 1.25118 0
M  V30 34583 N 4210.43 1.70787 2.16813 0
M  V30 34584 C 4210.63 4.02732 1.64413 0
M  V30 34585 C 4210.68 4.9488 0.63991 0
M  V30 34586 H 4213.42 8.65017 -0.777072 0
M  V30 34587 H 4213.69 6.90173 -0.474152 0
M  V30 34588 H 4212.82 7.66642 -2.79492 0
M  V30 34589 H 4210.16 5.16254 -2.65229 0
M  V30 34590 H 4209.88 7.06532 -0.329431 0
M  V30 34591 H 4208.89 6.91023 -1.82047 0
M  V30 34592 H 4210.73 8.90873 -1.62657 0
M  V30 34593 H 4210.8 6.00104 0.892197 0
M  V30 34594 H 4210.7 4.31733 2.69229 0
M  V30 34595 H 4210.31 0.724835 1.8844 0
M  V30 34596 H 4210.5 1.94716 3.16734 0
M  V30 34597 P 4208.86 8.03563 -3.84925 0
M  V30 34598 O 4208.64 8.85821 -5.0569 0
M  V30 34599 O 4208.07 8.41101 -2.65469 0
M  V30 34600 O 4208.61 6.4965 -4.18908 0
M  V30 34601 C 4209.55 5.81037 -5.05421 0
M  V30 34602 C 4208.82 4.78366 -5.89277 0
M  V30 34603 O 4208.61 3.58302 -5.08433 0
M  V30 34604 C 4207.42 5.17448 -6.36119 0
M  V30 34605 O 4207.03 4.45271 -7.53232 0
M  V30 34606 C 4206.54 4.74639 -5.19936 0
M  V30 34607 C 4207.25 3.49432 -4.70418 0
M  V30 34608 N 4207.2 3.31776 -3.22945 0
M  V30 34609 H 4210.03 6.54213 -5.71376 0
M  V30 34610 H 4210.31 5.30492 -4.44033 0
M  V30 34611 H 4209.44 4.55889 -6.76652 0
M  V30 34612 P 4205.48 4.23843 -7.83734 0
M  V30 34613 O 4205.26 4.19407 -9.29784 0
M  V30 34614 O 4204.69 5.24426 -7.09156 0
M  V30 34615 O 4205.23 2.7935 -7.20758 0
M  V30 34616 C 4206.17 1.7299 -7.50419 0
M  V30 34617 C 4205.44 0.406376 -7.57911 0
M  V30 34618 O 4205.23 -0.0897726 -6.21935 0
M  V30 34619 C 4204.04 0.447224 -8.1878 0
M  V30 34620 O 4203.65 -0.825065 -8.71101 0
M  V30 34621 C 4203.16 0.783801 -6.99623 0
M  V30 34622 C 4203.87 0.0619192 -5.85967 0
M  V30 34623 N 4203.82 0.790462 -4.56202 0
M  V30 34624 C 4203.9 2.13895 -4.34171 0
M  V30 34625 N 4203.83 2.46449 -3.08687 0
M  V30 34626 C 4203.68 1.2525 -2.43697 0
M  V30 34627 C 4203.55 0.914535 -1.07318 0
M  V30 34628 N 4203.54 1.80782 -0.0887348 0
M  V30 34629 N 4203.43 -0.386745 -0.768133 0
M  V30 34630 C 4203.44 -1.28096 -1.75159 0
M  V30 34631 N 4203.56 -1.09708 -3.04861 0
M  V30 34632 C 4203.68 0.214857 -3.32306 0
M  V30 34633 H 4206.65 1.93423 -8.4679 0
M  V30 34634 H 4206.93 1.68852 -6.70877 0
M  V30 34635 H 4206.06 -0.289041 -8.15388 0
M  V30 34636 H 4203.4 -0.927006 -5.72848 0
M  V30 34637 H 4203.12 1.86973 -6.82036 0
M  V30 34638 H 4202.13 0.403953 -7.13357 0
M  V30 34639 H 4203.97 1.20599 -8.97534 0
M  V30 34640 H 4204.01 2.86846 -5.14318 0
M  V30 34641 H 4203.63 2.81082 -0.302037 0
M  V30 34642 H 4203.44 1.49688 0.889064 0
M  V30 34643 H 4203.33 -2.31317 -1.43855 0
M  V30 34644 P 4202.1 -1.17771 -8.83182 0
M  V30 34645 O 4201.88 -2.07206 -9.98732 0
M  V30 34646 O 4201.31 0.0743816 -8.81969 0
M  V30 34647 O 4201.85 -1.97652 -7.47304 0
M  V30 34648 C 4202.79 -3.01133 -7.08783 0
M  V30 34649 C 4202.06 -4.12613 -6.37049 0
M  V30 34650 O 4201.85 -3.72827 -4.97879 0
M  V30 34651 C 4200.66 -4.45085 -6.88694 0
M  V30 34652 O 4200.27 -5.7877 -6.5624 0
M  V30 34653 C 4199.78 -3.47817 -6.12078 0
M  V30 34654 C 4200.49 -3.39414 -4.77697 0
M  V30 34655 N 4200.44 -2.04615 -4.15333 0
M  V30 34656 H 4203.27 -3.41248 -7.98759 0
M  V30 34657 H 4203.55 -2.5837 -6.41742 0
M  V30 34658 H 4202.68 -5.02657 -6.42673 0
M  V30 34659 P 4198.72 -6.144 -6.45285 0
M  V30 34660 O 4198.5 -7.54673 -6.86199 0
M  V30 34661 O 4197.93 -5.12391 -7.179 0
M  V30 34662 O 4198.47 -5.99158 -4.88404 0
M  V30 34663 C 4199.41 -6.60234 -3.96415 0
M  V30 34664 C 4198.68 -7.08259 -2.72856 0
M  V30 34665 O 4198.47 -5.9427 -1.83651 0
M  V30 34666 C 4197.28 -7.64886 -2.9555 0
M  V30 34667 O 4196.89 -8.53963 -1.90717 0
M  V30 34668 C 4196.4 -6.4116 -2.90739 0
M  V30 34669 C 4197.11 -5.55375 -1.86963 0
M  V30 34670 N 4197.06 -4.09664 -2.15742 0
M  V30 34671 H 4199.89 -7.45574 -4.45629 0
M  V30 34672 H 4200.17 -5.86232 -3.67314 0
M  V30 34673 H 4199.3 -7.84412 -2.24479 0
M  V30 34674 P 4195.34 -8.7635 -1.60911 0
M  V30 34675 O 4195.12 -10.1388 -1.11561 0
M  V30 34676 O 4194.55 -8.36503 -2.79617 0
M  V30 34677 O 4195.09 -7.71806 -0.42951 0
M  V30 34678 C 4196.03 -7.67148 0.673689 0
M  V30 34679 C 4195.3 -7.33374 1.95559 0
M  V30 34680 O 4195.09 -5.88721 2.00726 0
M  V30 34681 C 4193.9 -7.92526 2.10483 0
M  V30 34682 O 4193.51 -8.02971 3.47653 0
M  V30 34683 C 4193.02 -6.89602 1.41652 0
M  V30 34684 C 4193.73 -5.59201 1.75185 0
M  V30 34685 N 4193.68 -4.58235 0.662552 0
M  V30 34686 H 4196.51 -8.65116 0.777161 0
M  V30 34687 H 4196.79 -6.90173 0.474152 0
M  V30 34688 H 4195.92 -7.66548 2.79458 0
M  V30 34689 P 4191.96 -8.03563 3.84925 0
M  V30 34690 O 4191.74 -8.85821 5.0569 0
M  V30 34691 O 4191.17 -8.41101 2.65469 0
M  V30 34692 O 4191.71 -6.4965 4.18908 0
M  V30 34693 C 4192.65 -5.81037 5.05421 0
M  V30 34694 C 4191.92 -4.78366 5.89277 0
M  V30 34695 O 4191.71 -3.58302 5.08433 0
M  V30 34696 C 4190.52 -5.17448 6.36119 0
M  V30 34697 O 4190.13 -4.45271 7.53232 0
M  V30 34698 C 4189.64 -4.74639 5.19936 0
M  V30 34699 C 4190.35 -3.49432 4.70418 0
M  V30 34700 N 4190.3 -3.32099 3.22613 0
M  V30 34701 H 4193.13 -6.54213 5.71376 0
M  V30 34702 H 4193.41 -5.30936 4.43503 0
M  V30 34703 H 4192.54 -4.55889 6.76652 0
M  V30 34704 H 4189.88 -2.61715 5.17932 0
M  V30 34705 H 4189.6 -5.52155 4.41878 0
M  V30 34706 H 4188.61 -4.51981 5.53374 0
M  V30 34707 H 4190.45 -6.25124 6.55234 0
M  V30 34708 P 4188.58 -4.23843 7.83734 0
M  V30 34709 O 4188.36 -4.19407 9.29784 0
M  V30 34710 O 4187.79 -5.24426 7.09156 0
M  V30 34711 O 4188.33 -2.7935 7.20758 0
M  V30 34712 C 4189.27 -1.7299 7.50419 0
M  V30 34713 C 4188.54 -0.406376 7.57911 0
M  V30 34714 O 4188.33 0.0897726 6.21935 0
M  V30 34715 C 4187.14 -0.447224 8.1878 0
M  V30 34716 O 4186.75 0.825065 8.71101 0
M  V30 34717 C 4186.26 -0.783801 6.99623 0
M  V30 34718 C 4186.97 -0.0619192 5.85967 0
M  V30 34719 N 4186.92 -0.7859 4.56281 0
M  V30 34720 H 4189.75 -1.93423 8.4679 0
M  V30 34721 H 4190.03 -1.68181 6.71046 0
M  V30 34722 H 4189.16 0.289041 8.15388 0
M  V30 34723 P 4185.2 1.17771 8.83182 0
M  V30 34724 O 4184.98 2.07206 9.98732 0
M  V30 34725 O 4184.41 -0.0743816 8.81969 0
M  V30 34726 O 4184.95 1.97652 7.47304 0
M  V30 34727 C 4185.89 3.01133 7.08783 0
M  V30 34728 C 4185.16 4.12613 6.37049 0
M  V30 34729 O 4184.95 3.72827 4.97879 0
M  V30 34730 C 4183.76 4.45085 6.88694 0
M  V30 34731 O 4183.37 5.7877 6.5624 0
M  V30 34732 C 4182.88 3.47817 6.12078 0
M  V30 34733 C 4183.59 3.39414 4.77697 0
M  V30 34734 N 4183.54 2.04199 4.15538 0
M  V30 34735 H 4186.37 3.41248 7.98759 0
M  V30 34736 H 4186.65 2.57728 6.42 0
M  V30 34737 H 4185.78 5.02657 6.42673 0
M  V30 34738 H 4183.12 4.11708 4.08956 0
M  V30 34739 H 4182.84 2.49626 6.61679 0
M  V30 34740 H 4181.85 3.8662 6.00862 0
M  V30 34741 H 4183.69 4.29991 7.97006 0
M  V30 34742 P 4181.82 6.144 6.45285 0
M  V30 34743 O 4181.6 7.54673 6.86199 0
M  V30 34744 O 4181.03 5.12391 7.179 0
M  V30 34745 O 4181.57 5.99158 4.88404 0
M  V30 34746 C 4182.51 6.60234 3.96415 0
M  V30 34747 C 4181.78 7.08259 2.72856 0
M  V30 34748 O 4181.57 5.9427 1.83651 0
M  V30 34749 C 4180.38 7.64886 2.9555 0
M  V30 34750 O 4179.99 8.53963 1.90717 0
M  V30 34751 C 4179.5 6.4116 2.90739 0
M  V30 34752 C 4180.21 5.55375 1.86963 0
M  V30 34753 N 4180.16 4.09448 2.16152 0
M  V30 34754 H 4182.99 7.45574 4.45629 0
M  V30 34755 H 4183.27 5.85864 3.679 0
M  V30 34756 H 4182.4 7.84412 2.24479 0
M  V30 34757 H 4179.74 5.73457 0.888562 0
M  V30 34758 H 4179.46 5.90877 3.88583 0
M  V30 34759 H 4178.47 6.6596 2.58858 0
M  V30 34760 H 4180.31 8.16339 3.92049 0
M  V30 34761 P 4178.44 8.7635 1.60911 0
M  V30 34762 O 4178.22 10.1388 1.11561 0
M  V30 34763 O 4177.65 8.36503 2.79617 0
M  V30 34764 O 4178.19 7.71806 0.42951 0
M  V30 34765 C 4179.13 7.67148 -0.673689 0
M  V30 34766 C 4178.4 7.33374 -1.95559 0
M  V30 34767 O 4178.19 5.88721 -2.00726 0
M  V30 34768 C 4177 7.92526 -2.10483 0
M  V30 34769 O 4176.61 8.02971 -3.47653 0
M  V30 34770 C 4176.12 6.89602 -1.41652 0
M  V30 34771 C 4176.83 5.59201 -1.75185 0
M  V30 34772 N 4176.78 4.58301 -0.657969 0
M  V30 34773 H 4179.61 8.65116 -0.777161 0
M  V30 34774 H 4179.89 6.9022 -0.46725 0
M  V30 34775 H 4179.02 7.66548 -2.79458 0
M  V30 34776 H 4176.36 5.16165 -2.65183 0
M  V30 34777 H 4176.08 7.06433 -0.329384 0
M  V30 34778 H 4175.09 6.90926 -1.82021 0
M  V30 34779 H 4176.93 8.90873 -1.62657 0
M  V30 34780 P 4175.06 8.03563 -3.84925 0
M  V30 34781 O 4174.84 8.85821 -5.0569 0
M  V30 34782 O 4174.27 8.41101 -2.65469 0
M  V30 34783 O 4174.81 6.4965 -4.18908 0
M  V30 34784 C 4175.75 5.81037 -5.05421 0
M  V30 34785 C 4175.02 4.78366 -5.89277 0
M  V30 34786 O 4174.81 3.58302 -5.08433 0
M  V30 34787 C 4173.62 5.17448 -6.36119 0
M  V30 34788 O 4173.23 4.45271 -7.53232 0
M  V30 34789 C 4172.74 4.74639 -5.19936 0
M  V30 34790 C 4173.45 3.49432 -4.70418 0
M  V30 34791 N 4173.4 3.31776 -3.22945 0
M  V30 34792 H 4176.23 6.54213 -5.71376 0
M  V30 34793 H 4176.51 5.30492 -4.44033 0
M  V30 34794 H 4175.64 4.55889 -6.76652 0
M  V30 34795 P 4171.68 4.23843 -7.83734 0
M  V30 34796 O 4171.46 4.19407 -9.29784 0
M  V30 34797 O 4170.89 5.24426 -7.09156 0
M  V30 34798 O 4171.43 2.7935 -7.20758 0
M  V30 34799 C 4172.37 1.7299 -7.50419 0
M  V30 34800 C 4171.64 0.406376 -7.57911 0
M  V30 34801 O 4171.43 -0.0897726 -6.21935 0
M  V30 34802 C 4170.24 0.447224 -8.1878 0
M  V30 34803 O 4169.85 -0.825065 -8.71101 0
M  V30 34804 C 4169.36 0.783801 -6.99623 0
M  V30 34805 C 4170.07 0.0619192 -5.85967 0
M  V30 34806 N 4170.02 0.790462 -4.56202 0
M  V30 34807 H 4172.85 1.93423 -8.4679 0
M  V30 34808 H 4173.13 1.68852 -6.70877 0
M  V30 34809 H 4172.26 -0.289041 -8.15388 0
M  V30 34810 H 4169.6 -0.927006 -5.72848 0
M  V30 34811 H 4169.32 1.86973 -6.82036 0
M  V30 34812 H 4168.33 0.403953 -7.13357 0
M  V30 34813 H 4170.17 1.20599 -8.97534 0
M  V30 34814 P 4168.3 -1.17771 -8.83182 0
M  V30 34815 O 4168.08 -2.07206 -9.98732 0
M  V30 34816 O 4167.51 0.0743816 -8.81969 0
M  V30 34817 O 4168.05 -1.97652 -7.47304 0
M  V30 34818 C 4168.99 -3.01133 -7.08783 0
M  V30 34819 C 4168.26 -4.12613 -6.37049 0
M  V30 34820 O 4168.05 -3.72827 -4.97879 0
M  V30 34821 C 4166.86 -4.45085 -6.88694 0
M  V30 34822 O 4166.47 -5.7877 -6.5624 0
M  V30 34823 C 4165.98 -3.47817 -6.12078 0
M  V30 34824 C 4166.69 -3.39414 -4.77697 0
M  V30 34825 N 4166.64 -2.04199 -4.15538 0
M  V30 34826 H 4169.47 -3.41248 -7.98759 0
M  V30 34827 H 4169.75 -2.57728 -6.42 0
M  V30 34828 H 4168.88 -5.02657 -6.42673 0
M  V30 34829 H 4166.22 -4.11708 -4.08956 0
M  V30 34830 H 4165.94 -2.49626 -6.61679 0
M  V30 34831 H 4164.95 -3.8662 -6.00862 0
M  V30 34832 H 4166.79 -4.29991 -7.97006 0
M  V30 34833 P 4164.92 -6.144 -6.45285 0
M  V30 34834 O 4164.7 -7.54673 -6.86199 0
M  V30 34835 O 4164.13 -5.12391 -7.179 0
M  V30 34836 O 4164.67 -5.99158 -4.88404 0
M  V30 34837 C 4165.61 -6.60234 -3.96415 0
M  V30 34838 C 4164.88 -7.08259 -2.72856 0
M  V30 34839 O 4164.67 -5.9427 -1.83651 0
M  V30 34840 C 4163.48 -7.64886 -2.9555 0
M  V30 34841 O 4163.09 -8.53963 -1.90717 0
M  V30 34842 C 4162.6 -6.4116 -2.90739 0
M  V30 34843 C 4163.31 -5.55375 -1.86963 0
M  V30 34844 N 4163.26 -4.09664 -2.15742 0
M  V30 34845 H 4166.09 -7.45574 -4.45629 0
M  V30 34846 H 4166.37 -5.86232 -3.67314 0
M  V30 34847 H 4165.5 -7.84412 -2.24479 0
M  V30 34848 P 4161.54 -8.7635 -1.60911 0
M  V30 34849 O 4161.32 -10.1388 -1.11561 0
M  V30 34850 O 4160.75 -8.36503 -2.79617 0
M  V30 34851 O 4161.29 -7.71806 -0.42951 0
M  V30 34852 C 4162.23 -7.66948 0.673514 0
M  V30 34853 C 4161.5 -7.33374 1.95559 0
M  V30 34854 O 4161.29 -5.88721 2.00726 0
M  V30 34855 C 4160.1 -7.92218 2.1125 0
M  V30 34856 O 4159.71 -8.02971 3.47653 0
M  V30 34857 C 4159.22 -6.89504 1.41631 0
M  V30 34858 C 4159.93 -5.59106 1.75155 0
M  V30 34859 N 4159.88 -4.58136 0.662409 0
M  V30 34860 C 4159.73 -3.26059 1.02863 0
M  V30 34861 O 4159.64 -2.90743 2.19009 0
M  V30 34862 N 4159.69 -2.35995 -0.0155585 0
M  V30 34863 C 4159.78 -2.65248 -1.35603 0
M  V30 34864 O 4159.73 -1.75605 -2.20651 0
M  V30 34865 C 4159.93 -4.05747 -1.64698 0
M  V30 34866 C 4160.04 -4.42345 -3.09553 0
M  V30 34867 C 4159.98 -4.96734 -0.652411 0
M  V30 34868 H 4162.72 -8.64917 0.776982 0
M  V30 34869 H 4162.99 -6.89974 0.474015 0
M  V30 34870 H 4162.12 -7.66548 2.79458 0
M  V30 34871 H 4159.46 -5.16076 2.65138 0
M  V30 34872 H 4159.18 -7.06433 0.329384 0
M  V30 34873 H 4158.19 -6.90829 1.81996 0
M  V30 34874 H 4160.03 -8.90774 1.62639 0
M  V30 34875 H 4160.1 -6.02181 -0.895285 0
M  V30 34876 H 4159.07 -4.80252 -3.45468 0
M  V30 34877 H 4160.8 -5.20015 -3.22119 0
M  V30 34878 H 4160.32 -3.53269 -3.67833 0
M  V30 34879 H 4159.58 -1.39558 0.227499 0
M  V30 34880 P 4158.16 -8.03563 3.84925 0
M  V30 34881 O 4157.94 -8.85821 5.0569 0
M  V30 34882 O 4157.37 -8.41101 2.65469 0
M  V30 34883 O 4157.91 -6.4965 4.18908 0
M  V30 34884 C 4158.85 -5.81037 5.05421 0
M  V30 34885 C 4158.12 -4.78366 5.89277 0
M  V30 34886 O 4157.91 -3.58302 5.08433 0
M  V30 34887 C 4156.72 -5.17448 6.36119 0
M  V30 34888 O 4156.33 -4.45271 7.53232 0
M  V30 34889 C 4155.84 -4.74639 5.19936 0
M  V30 34890 C 4156.55 -3.49432 4.70418 0
M  V30 34891 N 4156.5 -3.31776 3.22945 0
M  V30 34892 H 4159.33 -6.54213 5.71376 0
M  V30 34893 H 4159.61 -5.30492 4.44033 0
M  V30 34894 H 4158.74 -4.55889 6.76652 0
M  V30 34895 P 4154.78 -4.23843 7.83734 0
M  V30 34896 O 4154.56 -4.19407 9.29784 0
M  V30 34897 O 4153.99 -5.24426 7.09156 0
M  V30 34898 O 4154.53 -2.7935 7.20758 0
M  V30 34899 C 4155.47 -1.72945 7.50224 0
M  V30 34900 C 4154.74 -0.406376 7.57911 0
M  V30 34901 O 4154.53 0.0897726 6.21935 0
M  V30 34902 C 4153.34 -0.438983 8.18724 0
M  V30 34903 O 4152.95 0.825065 8.71101 0
M  V30 34904 C 4152.46 -0.783689 6.99524 0
M  V30 34905 C 4153.17 -0.0619086 5.85867 0
M  V30 34906 N 4153.12 -0.78573 4.56183 0
M  V30 34907 C 4152.97 -0.0292889 3.41887 0
M  V30 34908 O 4152.88 1.18445 3.4419 0
M  V30 34909 N 4152.93 -0.744061 2.23964 0
M  V30 34910 C 4153.02 -2.10932 2.10362 0
M  V30 34911 O 4152.97 -2.64117 0.98825 0
M  V30 34912 C 4153.17 -2.8202 3.34994 0
M  V30 34913 C 4153.28 -4.31095 3.25037 0
M  V30 34914 C 4153.22 -2.15547 4.52261 0
M  V30 34915 H 4155.96 -1.93379 8.46595 0
M  V30 34916 H 4156.23 -1.68132 6.70852 0
M  V30 34917 H 4155.36 0.289041 8.15388 0
M  V30 34918 H 4152.7 0.926847 5.72749 0
M  V30 34919 H 4152.42 -1.86973 6.82036 0
M  V30 34920 H 4151.43 -0.403896 7.13257 0
M  V30 34921 H 4153.27 -1.20585 8.97435 0
M  V30 34922 H 4153.34 -2.71231 5.45042 0
M  V30 34923 H 4152.31 -4.76966 3.49992 0
M  V30 34924 H 4154.04 -4.67047 3.95024 0
M  V30 34925 H 4153.56 -4.58996 2.22312 0
M  V30 34926 H 4152.82 -0.214893 1.39758 0
M  V30 34927 P 4151.4 1.17771 8.83182 0
M  V30 34928 O 4151.18 2.07206 9.98732 0
M  V30 34929 O 4150.61 -0.0743816 8.81969 0
M  V30 34930 O 4151.15 1.97652 7.47304 0
M  V30 34931 C 4152.09 3.01133 7.08783 0
M  V30 34932 C 4151.36 4.12613 6.37049 0
M  V30 34933 O 4151.15 3.72827 4.97879 0
M  V30 34934 C 4149.96 4.45085 6.88694 0
M  V30 34935 O 4149.57 5.7877 6.5624 0
M  V30 34936 C 4149.08 3.47817 6.12078 0
M  V30 34937 C 4149.79 3.39414 4.77697 0
M  V30 34938 N 4149.74 2.04199 4.15538 0
M  V30 34939 H 4152.57 3.41248 7.98759 0
M  V30 34940 H 4152.85 2.57728 6.42 0
M  V30 34941 H 4151.98 5.02657 6.42673 0
M  V30 34942 H 4149.32 4.11708 4.08956 0
M  V30 34943 H 4149.04 2.49626 6.61679 0
M  V30 34944 H 4148.05 3.8662 6.00862 0
M  V30 34945 H 4149.89 4.29991 7.97006 0
M  V30 34946 P 4148.02 6.144 6.45285 0
M  V30 34947 O 4147.8 7.54673 6.86199 0
M  V30 34948 O 4147.23 5.12391 7.179 0
M  V30 34949 O 4147.77 5.99158 4.88404 0
M  V30 34950 C 4148.71 6.60234 3.96415 0
M  V30 34951 C 4147.98 7.08259 2.72856 0
M  V30 34952 O 4147.77 5.9427 1.83651 0
M  V30 34953 C 4146.58 7.64886 2.9555 0
M  V30 34954 O 4146.19 8.53963 1.90717 0
M  V30 34955 C 4145.7 6.4116 2.90739 0
M  V30 34956 C 4146.41 5.55375 1.86963 0
M  V30 34957 N 4146.36 4.09664 2.15742 0
M  V30 34958 H 4149.19 7.45574 4.45629 0
M  V30 34959 H 4149.47 5.86232 3.67314 0
M  V30 34960 H 4148.6 7.84412 2.24479 0
M  V30 34961 P 4144.64 8.7635 1.60911 0
M  V30 34962 O 4144.42 10.1388 1.11561 0
M  V30 34963 O 4143.85 8.36503 2.79617 0
M  V30 34964 O 4144.39 7.71806 0.42951 0
M  V30 34965 C 4145.33 7.67148 -0.673689 0
M  V30 34966 C 4144.6 7.33374 -1.95559 0
M  V30 34967 O 4144.39 5.88721 -2.00726 0
M  V30 34968 C 4143.2 7.92526 -2.10483 0
M  V30 34969 O 4142.81 8.02971 -3.47653 0
M  V30 34970 C 4142.32 6.89602 -1.41652 0
M  V30 34971 C 4143.03 5.59201 -1.75185 0
M  V30 34972 N 4142.98 4.58235 -0.662552 0
M  V30 34973 H 4145.81 8.65116 -0.777161 0
M  V30 34974 H 4146.09 6.90173 -0.474152 0
M  V30 34975 H 4145.22 7.66548 -2.79458 0
M  V30 34976 P 4141.26 8.03563 -3.84925 0
M  V30 34977 O 4141.04 8.85821 -5.0569 0
M  V30 34978 O 4140.47 8.41101 -2.65469 0
M  V30 34979 O 4141.01 6.4965 -4.18908 0
M  V30 34980 C 4141.95 5.81037 -5.05421 0
M  V30 34981 C 4141.22 4.78366 -5.89277 0
M  V30 34982 O 4141.01 3.58302 -5.08433 0
M  V30 34983 C 4139.82 5.17448 -6.36119 0
M  V30 34984 O 4139.43 4.45271 -7.53232 0
M  V30 34985 C 4138.94 4.74639 -5.19936 0
M  V30 34986 C 4139.65 3.49432 -4.70418 0
M  V30 34987 N 4139.6 3.31776 -3.22945 0
M  V30 34988 H 4142.43 6.54213 -5.71376 0
M  V30 34989 H 4142.71 5.30492 -4.44033 0
M  V30 34990 H 4141.84 4.55889 -6.76652 0
M  V30 34991 P 4137.88 4.23843 -7.83734 0
M  V30 34992 O 4137.66 4.19407 -9.29784 0
M  V30 34993 O 4137.09 5.24426 -7.09156 0
M  V30 34994 O 4137.63 2.7935 -7.20758 0
M  V30 34995 C 4138.57 1.7299 -7.50419 0
M  V30 34996 C 4137.84 0.406376 -7.57911 0
M  V30 34997 O 4137.63 -0.0897726 -6.21935 0
M  V30 34998 C 4136.44 0.447224 -8.1878 0
M  V30 34999 O 4136.05 -0.825065 -8.71101 0
M  V30 35000 C 4135.56 0.783801 -6.99623 0
M  V30 35001 C 4136.27 0.0619192 -5.85967 0
M  V30 35002 N 4136.22 0.790462 -4.56202 0
M  V30 35003 C 4136.3 2.13895 -4.34171 0
M  V30 35004 N 4136.23 2.46449 -3.08687 0
M  V30 35005 C 4136.08 1.2525 -2.43697 0
M  V30 35006 C 4135.95 0.914535 -1.07318 0
M  V30 35007 N 4135.94 1.80782 -0.0887348 0
M  V30 35008 N 4135.83 -0.386745 -0.768133 0
M  V30 35009 C 4135.84 -1.28096 -1.75159 0
M  V30 35010 N 4135.96 -1.09708 -3.04861 0
M  V30 35011 C 4136.08 0.214857 -3.32306 0
M  V30 35012 H 4139.05 1.93423 -8.4679 0
M  V30 35013 H 4139.33 1.68852 -6.70877 0
M  V30 35014 H 4138.46 -0.289041 -8.15388 0
M  V30 35015 H 4135.8 -0.927006 -5.72848 0
M  V30 35016 H 4135.52 1.86973 -6.82036 0
M  V30 35017 H 4134.53 0.403953 -7.13357 0
M  V30 35018 H 4136.37 1.20599 -8.97534 0
M  V30 35019 H 4136.41 2.86846 -5.14318 0
M  V30 35020 H 4136.03 2.81082 -0.302037 0
M  V30 35021 H 4135.84 1.49688 0.889064 0
M  V30 35022 H 4135.73 -2.31317 -1.43855 0
M  V30 35023 P 4134.5 -1.17771 -8.83182 0
M  V30 35024 O 4134.28 -2.07206 -9.98732 0
M  V30 35025 O 4133.71 0.0743816 -8.81969 0
M  V30 35026 O 4134.25 -1.97652 -7.47304 0
M  V30 35027 C 4135.19 -3.01133 -7.08783 0
M  V30 35028 C 4134.46 -4.12613 -6.37049 0
M  V30 35029 O 4134.25 -3.72827 -4.97879 0
M  V30 35030 C 4133.06 -4.45085 -6.88694 0
M  V30 35031 O 4132.67 -5.7877 -6.5624 0
M  V30 35032 C 4132.18 -3.47817 -6.12078 0
M  V30 35033 C 4132.89 -3.39414 -4.77697 0
M  V30 35034 N 4132.84 -2.04615 -4.15333 0
M  V30 35035 H 4135.67 -3.41248 -7.98759 0
M  V30 35036 H 4135.95 -2.5837 -6.41742 0
M  V30 35037 H 4135.08 -5.02657 -6.42673 0
M  V30 35038 P 4131.12 -6.144 -6.45285 0
M  V30 35039 O 4130.9 -7.54673 -6.86199 0
M  V30 35040 O 4130.33 -5.12391 -7.179 0
M  V30 35041 O 4130.87 -5.99158 -4.88404 0
M  V30 35042 C 4131.81 -6.60062 -3.96313 0
M  V30 35043 C 4131.08 -7.08259 -2.72856 0
M  V30 35044 O 4130.87 -5.9427 -1.83651 0
M  V30 35045 C 4129.68 -7.65087 -2.94749 0
M  V30 35046 O 4129.29 -8.53963 -1.90717 0
M  V30 35047 C 4128.8 -6.41069 -2.90698 0
M  V30 35048 C 4129.51 -5.5528 -1.86931 0
M  V30 35049 N 4129.46 -4.09575 -2.15696 0
M  V30 35050 C 4129.31 -3.24249 -1.08435 0
M  V30 35051 O 4129.22 -3.63946 0.0628747 0
M  V30 35052 N 4129.27 -1.90009 -1.39973 0
M  V30 35053 C 4129.36 -1.34884 -2.65614 0
M  V30 35054 C 4129.51 -2.3145 -3.71736 0
M  V30 35055 C 4129.56 -3.63518 -3.44754 0
M  V30 35056 H 4132.3 -7.45402 -4.45526 0
M  V30 35057 H 4132.57 -5.86062 -3.67208 0
M  V30 35058 H 4131.7 -7.84412 -2.24479 0
M  V30 35059 H 4129.04 -5.73358 -0.888409 0
M  V30 35060 H 4128.76 -5.90877 -3.88583 0
M  V30 35061 H 4127.77 -6.65867 -2.58821 0
M  V30 35062 H 4129.61 -8.16248 -3.92006 0
M  V30 35063 H 4129.68 -4.34551 -4.26383 0
M  V30 35064 P 4127.74 -8.7635 -1.60911 0
M  V30 35065 O 4127.52 -10.1388 -1.11561 0
M  V30 35066 O 4126.95 -8.36503 -2.79617 0
M  V30 35067 O 4127.49 -7.71806 -0.42951 0
M  V30 35068 C 4128.43 -7.67148 0.673689 0
M  V30 35069 C 4127.7 -7.33374 1.95559 0
M  V30 35070 O 4127.49 -5.88721 2.00726 0
M  V30 35071 C 4126.3 -7.92526 2.10483 0
M  V30 35072 O 4125.91 -8.02971 3.47653 0
M  V30 35073 C 4125.42 -6.89602 1.41652 0
M  V30 35074 C 4126.13 -5.59201 1.75185 0
M  V30 35075 N 4126.08 -4.58235 0.662552 0
M  V30 35076 H 4128.91 -8.65116 0.777161 0
M  V30 35077 H 4129.19 -6.90173 0.474152 0
M  V30 35078 H 4128.32 -7.66548 2.79458 0
M  V30 35079 P 4124.36 -8.03563 3.84925 0
M  V30 35080 O 4124.14 -8.85821 5.0569 0
M  V30 35081 O 4123.57 -8.41101 2.65469 0
M  V30 35082 O 4124.11 -6.4965 4.18908 0
M  V30 35083 C 4125.05 -5.81037 5.05421 0
M  V30 35084 C 4124.32 -4.78366 5.89277 0
M  V30 35085 O 4124.11 -3.58302 5.08433 0
M  V30 35086 C 4122.92 -5.17448 6.36119 0
M  V30 35087 O 4122.53 -4.45271 7.53232 0
M  V30 35088 C 4122.04 -4.74639 5.19936 0
M  V30 35089 C 4122.75 -3.49432 4.70418 0
M  V30 35090 N 4122.7 -3.31776 3.22945 0
M  V30 35091 H 4125.53 -6.54213 5.71376 0
M  V30 35092 H 4125.81 -5.30492 4.44033 0
M  V30 35093 H 4124.94 -4.55889 6.76652 0
M  V30 35094 P 4120.98 -4.23843 7.83734 0
M  V30 35095 O 4120.76 -4.19407 9.29784 0
M  V30 35096 O 4120.19 -5.24426 7.09156 0
M  V30 35097 O 4120.73 -2.7935 7.20758 0
M  V30 35098 C 4121.67 -1.7299 7.50419 0
M  V30 35099 C 4120.94 -0.406376 7.57911 0
M  V30 35100 O 4120.73 0.0897726 6.21935 0
M  V30 35101 C 4119.54 -0.447224 8.1878 0
M  V30 35102 O 4119.15 0.825065 8.71101 0
M  V30 35103 C 4118.66 -0.783801 6.99623 0
M  V30 35104 C 4119.37 -0.0619192 5.85967 0
M  V30 35105 N 4119.32 -0.7859 4.56281 0
M  V30 35106 H 4122.15 -1.93423 8.4679 0
M  V30 35107 H 4122.43 -1.68181 6.71046 0
M  V30 35108 H 4121.56 0.289041 8.15388 0
M  V30 35109 P 4117.6 1.17771 8.83182 0
M  V30 35110 O 4117.38 2.07206 9.98732 0
M  V30 35111 O 4116.81 -0.0743816 8.81969 0
M  V30 35112 O 4117.35 1.97652 7.47304 0
M  V30 35113 C 4118.29 3.01055 7.08599 0
M  V30 35114 C 4117.56 4.12613 6.37049 0
M  V30 35115 O 4117.35 3.72827 4.97879 0
M  V30 35116 C 4116.16 4.45719 6.88164 0
M  V30 35117 O 4115.77 5.7877 6.5624 0
M  V30 35118 C 4115.28 3.47768 6.11991 0
M  V30 35119 C 4115.99 3.39356 4.77615 0
M  V30 35120 N 4115.94 2.04571 4.15244 0
M  V30 35121 C 4115.79 1.98587 2.78314 0
M  V30 35122 O 4115.7 2.98134 2.08835 0
M  V30 35123 N 4115.75 0.714467 2.24925 0
M  V30 35124 C 4115.84 -0.470001 2.94169 0
M  V30 35125 C 4115.99 -0.312541 4.36783 0
M  V30 35126 C 4116.04 0.914512 4.92583 0
M  V30 35127 H 4118.78 3.41169 7.98575 0
M  V30 35128 H 4119.05 2.58295 6.41556 0
M  V30 35129 H 4118.18 5.02657 6.42673 0
M  V30 35130 H 4115.52 4.11637 4.08885 0
M  V30 35131 H 4115.24 2.49626 6.61679 0
M  V30 35132 H 4114.25 3.86566 6.00778 0
M  V30 35133 H 4116.09 4.29943 7.96918 0
M  V30 35134 H 4116.16 1.00937 6.00374 0
M  V30 35135 P 4114.22 6.144 6.45285 0
M  V30 35136 O 4114 7.54673 6.86199 0
M  V30 35137 O 4113.43 5.12391 7.179 0
M  V30 35138 O 4113.97 5.99158 4.88404 0
M  V30 35139 C 4114.91 6.60234 3.96415 0
M  V30 35140 C 4114.18 7.08259 2.72856 0
M  V30 35141 O 4113.97 5.9427 1.83651 0
M  V30 35142 C 4112.78 7.64886 2.9555 0
M  V30 35143 O 4112.39 8.53963 1.90717 0
M  V30 35144 C 4111.9 6.4116 2.90739 0
M  V30 35145 C 4112.61 5.55375 1.86963 0
M  V30 35146 N 4112.56 4.09664 2.15742 0
M  V30 35147 H 4115.39 7.45574 4.45629 0
M  V30 35148 H 4115.67 5.86232 3.67314 0
M  V30 35149 H 4114.8 7.84412 2.24479 0
M  V30 35150 P 4110.84 8.7635 1.60911 0
M  V30 35151 O 4110.62 10.1388 1.11561 0
M  V30 35152 O 4110.05 8.36503 2.79617 0
M  V30 35153 O 4110.59 7.71906 0.429565 0
M  V30 35154 C 4111.53 7.67148 -0.673689 0
M  V30 35155 C 4110.8 7.33666 -1.94851 0
M  V30 35156 O 4110.59 5.88816 -2.00759 0
M  V30 35157 C 4109.4 7.92526 -2.10483 0
M  V30 35158 O 4109.01 8.03063 -3.47693 0
M  V30 35159 C 4108.52 6.89602 -1.41652 0
M  V30 35160 C 4109.23 5.59201 -1.75185 0
M  V30 35161 N 4109.18 4.58235 -0.662552 0
M  V30 35162 C 4109.03 3.24451 -1.01643 0
M  V30 35163 O 4108.94 2.94958 -2.21722 0
M  V30 35164 N 4108.98 2.30408 0.165238 0
M  V30 35165 C 4109.08 2.66048 1.25118 0
M  V30 35166 N 4109.03 1.70787 2.16813 0
M  V30 35167 C 4109.23 4.02732 1.64413 0
M  V30 35168 C 4109.28 4.9488 0.63991 0
M  V30 35169 H 4112.02 8.65017 -0.777072 0
M  V30 35170 H 4112.29 6.90173 -0.474152 0
M  V30 35171 H 4111.42 7.66642 -2.79492 0
M  V30 35172 H 4108.76 5.16254 -2.65229 0
M  V30 35173 H 4108.48 7.06532 -0.329431 0
M  V30 35174 H 4107.49 6.91023 -1.82047 0
M  V30 35175 H 4109.33 8.90873 -1.62657 0
M  V30 35176 H 4109.4 6.00104 0.892197 0
M  V30 35177 H 4109.3 4.31733 2.69229 0
M  V30 35178 H 4108.91 0.724835 1.8844 0
M  V30 35179 H 4109.1 1.94716 3.16734 0
M  V30 35180 P 4107.46 8.03563 -3.84925 0
M  V30 35181 O 4107.24 8.85821 -5.0569 0
M  V30 35182 O 4106.67 8.41101 -2.65469 0
M  V30 35183 O 4107.21 6.4965 -4.18908 0
M  V30 35184 C 4108.15 5.80886 -5.05289 0
M  V30 35185 C 4107.42 4.78366 -5.89277 0
M  V30 35186 O 4107.21 3.58302 -5.08433 0
M  V30 35187 C 4106.02 5.16748 -6.36559 0
M  V30 35188 O 4105.63 4.45271 -7.53232 0
M  V30 35189 C 4105.14 4.74572 -5.19863 0
M  V30 35190 C 4105.85 3.49373 -4.70338 0
M  V30 35191 N 4105.8 3.31704 -3.22876 0
M  V30 35192 C 4105.65 2.03326 -2.74871 0
M  V30 35193 O 4105.56 1.06486 -3.48076 0
M  V30 35194 N 4105.61 1.91838 -1.37456 0
M  V30 35195 C 4105.7 2.94295 -0.462035 0
M  V30 35196 C 4105.85 4.25064 -1.05249 0
M  V30 35197 C 4105.9 4.40214 -2.39192 0
M  V30 35198 H 4108.64 6.54063 -5.71245 0
M  V30 35199 H 4108.91 5.30339 -4.43905 0
M  V30 35200 H 4108.04 4.55889 -6.76652 0
M  V30 35201 H 4105.38 2.6167 -5.17842 0
M  V30 35202 H 4105.1 5.52155 -4.41878 0
M  V30 35203 H 4104.11 4.51918 -5.53297 0
M  V30 35204 H 4105.95 6.25055 -6.55162 0
M  V30 35205 H 4106.02 5.39798 -2.81523 0
M  V30 35206 P 4104.08 4.23843 -7.83734 0
M  V30 35207 O 4103.86 4.19407 -9.29784 0
M  V30 35208 O 4103.29 5.24426 -7.09156 0
M  V30 35209 O 4103.83 2.7935 -7.20758 0
M  V30 35210 C 4104.77 1.7299 -7.50419 0
M  V30 35211 C 4104.04 0.406376 -7.57911 0
M  V30 35212 O 4103.83 -0.0897726 -6.21935 0
M  V30 35213 C 4102.64 0.447224 -8.1878 0
M  V30 35214 O 4102.25 -0.825065 -8.71101 0
M  V30 35215 C 4101.76 0.783801 -6.99623 0
M  V30 35216 C 4102.47 0.0619192 -5.85967 0
M  V30 35217 N 4102.42 0.7859 -4.56281 0
M  V30 35218 H 4105.25 1.93423 -8.4679 0
M  V30 35219 H 4105.53 1.68181 -6.71046 0
M  V30 35220 H 4104.66 -0.289041 -8.15388 0
M  V30 35221 P 4100.7 -1.17771 -8.83182 0
M  V30 35222 O 4100.48 -2.07206 -9.98732 0
M  V30 35223 O 4099.91 0.0743816 -8.81969 0
M  V30 35224 O 4100.45 -1.97652 -7.47304 0
M  V30 35225 C 4101.39 -3.01133 -7.08783 0
M  V30 35226 C 4100.66 -4.12613 -6.37049 0
M  V30 35227 O 4100.45 -3.72827 -4.97879 0
M  V30 35228 C 4099.26 -4.45085 -6.88694 0
M  V30 35229 O 4098.87 -5.7877 -6.5624 0
M  V30 35230 C 4098.38 -3.47817 -6.12078 0
M  V30 35231 C 4099.09 -3.39414 -4.77697 0
M  V30 35232 N 4099.04 -2.04199 -4.15538 0
M  V30 35233 H 4101.87 -3.41248 -7.98759 0
M  V30 35234 H 4102.15 -2.57728 -6.42 0
M  V30 35235 H 4101.28 -5.02657 -6.42673 0
M  V30 35236 H 4098.62 -4.11708 -4.08956 0
M  V30 35237 H 4098.34 -2.49626 -6.61679 0
M  V30 35238 H 4097.35 -3.8662 -6.00862 0
M  V30 35239 H 4099.19 -4.29991 -7.97006 0
M  V30 35240 P 4097.32 -6.144 -6.45285 0
M  V30 35241 O 4097.1 -7.54673 -6.86199 0
M  V30 35242 O 4096.53 -5.12391 -7.179 0
M  V30 35243 O 4097.07 -5.99158 -4.88404 0
M  V30 35244 C 4098.01 -6.60234 -3.96415 0
M  V30 35245 C 4097.28 -7.08259 -2.72856 0
M  V30 35246 O 4097.07 -5.9427 -1.83651 0
M  V30 35247 C 4095.88 -7.64886 -2.9555 0
M  V30 35248 O 4095.49 -8.53963 -1.90717 0
M  V30 35249 C 4095 -6.4116 -2.90739 0
M  V30 35250 C 4095.71 -5.55375 -1.86963 0
M  V30 35251 N 4095.66 -4.09664 -2.15742 0
M  V30 35252 H 4098.49 -7.45574 -4.45629 0
M  V30 35253 H 4098.77 -5.86232 -3.67314 0
M  V30 35254 H 4097.9 -7.84412 -2.24479 0
M  V30 35255 P 4093.94 -8.7635 -1.60911 0
M  V30 35256 O 4093.72 -10.1388 -1.11561 0
M  V30 35257 O 4093.15 -8.36503 -2.79617 0
M  V30 35258 O 4093.69 -7.71806 -0.42951 0
M  V30 35259 C 4094.63 -7.67148 0.673689 0
M  V30 35260 C 4093.9 -7.33374 1.95559 0
M  V30 35261 O 4093.69 -5.88721 2.00726 0
M  V30 35262 C 4092.5 -7.92526 2.10483 0
M  V30 35263 O 4092.11 -8.02971 3.47653 0
M  V30 35264 C 4091.62 -6.89602 1.41652 0
M  V30 35265 C 4092.33 -5.59201 1.75185 0
M  V30 35266 N 4092.28 -4.58235 0.662552 0
M  V30 35267 H 4095.11 -8.65116 0.777161 0
M  V30 35268 H 4095.39 -6.90173 0.474152 0
M  V30 35269 H 4094.52 -7.66548 2.79458 0
M  V30 35270 P 4090.56 -8.03563 3.84925 0
M  V30 35271 O 4090.34 -8.85821 5.0569 0
M  V30 35272 O 4089.77 -8.41101 2.65469 0
M  V30 35273 O 4090.31 -6.4965 4.18908 0
M  V30 35274 C 4091.25 -5.81037 5.05421 0
M  V30 35275 C 4090.52 -4.78366 5.89277 0
M  V30 35276 O 4090.31 -3.58302 5.08433 0
M  V30 35277 C 4089.12 -5.17448 6.36119 0
M  V30 35278 O 4088.73 -4.45271 7.53232 0
M  V30 35279 C 4088.24 -4.74639 5.19936 0
M  V30 35280 C 4088.95 -3.49432 4.70418 0
M  V30 35281 N 4088.9 -3.31776 3.22945 0
M  V30 35282 H 4091.73 -6.54213 5.71376 0
M  V30 35283 H 4092.01 -5.30492 4.44033 0
M  V30 35284 H 4091.14 -4.55889 6.76652 0
M  V30 35285 P 4087.18 -4.23843 7.83734 0
M  V30 35286 O 4086.96 -4.19407 9.29784 0
M  V30 35287 O 4086.39 -5.24426 7.09156 0
M  V30 35288 O 4086.93 -2.7935 7.20758 0
M  V30 35289 C 4087.87 -1.7299 7.50419 0
M  V30 35290 C 4087.14 -0.406376 7.57911 0
M  V30 35291 O 4086.93 0.0897726 6.21935 0
M  V30 35292 C 4085.74 -0.447224 8.1878 0
M  V30 35293 O 4085.35 0.825065 8.71101 0
M  V30 35294 C 4084.86 -0.783801 6.99623 0
M  V30 35295 C 4085.57 -0.0619192 5.85967 0
M  V30 35296 N 4085.52 -0.7859 4.56281 0
M  V30 35297 H 4088.35 -1.93423 8.4679 0
M  V30 35298 H 4088.63 -1.68181 6.71046 0
M  V30 35299 H 4087.76 0.289041 8.15388 0
M  V30 35300 P 4083.8 1.17771 8.83182 0
M  V30 35301 O 4083.58 2.07206 9.98732 0
M  V30 35302 O 4083.01 -0.0743816 8.81969 0
M  V30 35303 O 4083.55 1.97652 7.47304 0
M  V30 35304 C 4084.49 3.01055 7.08599 0
M  V30 35305 C 4083.76 4.12613 6.37049 0
M  V30 35306 O 4083.55 3.72827 4.97879 0
M  V30 35307 C 4082.36 4.45719 6.88164 0
M  V30 35308 O 4081.97 5.7877 6.5624 0
M  V30 35309 C 4081.48 3.47768 6.11991 0
M  V30 35310 C 4082.19 3.39356 4.77615 0
M  V30 35311 N 4082.14 2.04571 4.15244 0
M  V30 35312 C 4081.99 1.98587 2.78314 0
M  V30 35313 O 4081.9 2.98134 2.08835 0
M  V30 35314 N 4081.95 0.714467 2.24925 0
M  V30 35315 C 4082.04 -0.470001 2.94169 0
M  V30 35316 O 4081.99 -1.55587 2.35195 0
M  V30 35317 C 4082.19 -0.312541 4.36783 0
M  V30 35318 C 4082.3 -1.57711 5.16352 0
M  V30 35319 C 4082.24 0.914512 4.92583 0
M  V30 35320 H 4084.98 3.41169 7.98575 0
M  V30 35321 H 4085.25 2.58295 6.41556 0
M  V30 35322 H 4084.38 5.02657 6.42673 0
M  V30 35323 H 4081.72 4.11637 4.08885 0
M  V30 35324 H 4081.44 2.49626 6.61679 0
M  V30 35325 H 4080.45 3.86566 6.00778 0
M  V30 35326 H 4082.29 4.29943 7.96918 0
M  V30 35327 H 4082.36 1.00937 6.00374 0
M  V30 35328 H 4081.33 -1.80153 5.63503 0
M  V30 35329 H 4083.06 -1.4566 5.94104 0
M  V30 35330 H 4082.58 -2.40664 4.49645 0
M  V30 35331 H 4081.84 0.647622 1.25697 0
M  V30 35332 P 4080.42 6.144 6.45285 0
M  V30 35333 O 4080.2 7.54673 6.86199 0
M  V30 35334 O 4079.63 5.12391 7.179 0
M  V30 35335 O 4080.17 5.99158 4.88404 0
M  V30 35336 C 4081.11 6.60234 3.96415 0
M  V30 35337 C 4080.38 7.08259 2.72856 0
M  V30 35338 O 4080.17 5.9427 1.83651 0
M  V30 35339 C 4078.98 7.64886 2.9555 0
M  V30 35340 O 4078.59 8.53963 1.90717 0
M  V30 35341 C 4078.1 6.4116 2.90739 0
M  V30 35342 C 4078.81 5.55375 1.86963 0
M  V30 35343 N 4078.76 4.09664 2.15742 0
M  V30 35344 H 4081.59 7.45574 4.45629 0
M  V30 35345 H 4081.87 5.86232 3.67314 0
M  V30 35346 H 4081 7.84412 2.24479 0
M  V30 35347 P 4077.04 8.7635 1.60911 0
M  V30 35348 O 4076.82 10.1388 1.11561 0
M  V30 35349 O 4076.25 8.36503 2.79617 0
M  V30 35350 O 4076.79 7.71806 0.42951 0
M  V30 35351 C 4077.73 7.67148 -0.673689 0
M  V30 35352 C 4077 7.33374 -1.95559 0
M  V30 35353 O 4076.79 5.88721 -2.00726 0
M  V30 35354 C 4075.6 7.92526 -2.10483 0
M  V30 35355 O 4075.21 8.02971 -3.47653 0
M  V30 35356 C 4074.72 6.89602 -1.41652 0
M  V30 35357 C 4075.43 5.59201 -1.75185 0
M  V30 35358 N 4075.38 4.58235 -0.662552 0
M  V30 35359 H 4078.21 8.65116 -0.777161 0
M  V30 35360 H 4078.49 6.90173 -0.474152 0
M  V30 35361 H 4077.62 7.66548 -2.79458 0
M  V30 35362 P 4073.66 8.03563 -3.84925 0
M  V30 35363 O 4073.44 8.85821 -5.0569 0
M  V30 35364 O 4072.87 8.41101 -2.65469 0
M  V30 35365 O 4073.41 6.4965 -4.18908 0
M  V30 35366 C 4074.35 5.81037 -5.05421 0
M  V30 35367 C 4073.62 4.78366 -5.89277 0
M  V30 35368 O 4073.41 3.58302 -5.08433 0
M  V30 35369 C 4072.22 5.17448 -6.36119 0
M  V30 35370 O 4071.83 4.45271 -7.53232 0
M  V30 35371 C 4071.34 4.74639 -5.19936 0
M  V30 35372 C 4072.05 3.49432 -4.70418 0
M  V30 35373 N 4072 3.32099 -3.22613 0
M  V30 35374 C 4072.08 4.28245 -2.25527 0
M  V30 35375 N 4072.01 3.80823 -1.04874 0
M  V30 35376 C 4071.86 2.44571 -1.23535 0
M  V30 35377 C 4071.73 1.37068 -0.330675 0
M  V30 35378 N 4071.72 1.51472 0.990824 0
M  V30 35379 N 4071.61 0.138614 -0.848756 0
M  V30 35380 C 4071.62 -0.00675923 -2.16999 0
M  V30 35381 N 4071.74 0.904372 -3.11122 0
M  V30 35382 C 4071.86 2.12707 -2.56212 0
M  V30 35383 H 4074.83 6.54213 -5.71376 0
M  V30 35384 H 4075.11 5.30936 -4.43503 0
M  V30 35385 H 4074.24 4.55889 -6.76652 0
M  V30 35386 H 4071.58 2.61715 -5.17932 0
M  V30 35387 H 4071.3 5.52155 -4.41878 0
M  V30 35388 H 4070.31 4.51981 -5.53374 0
M  V30 35389 H 4072.15 6.25124 -6.55234 0
M  V30 35390 H 4072.19 5.34372 -2.47488 0
M  V30 35391 H 4071.81 2.45153 1.4078 0
M  V30 35392 H 4071.62 0.688422 1.59911 0
M  V30 35393 H 4071.51 -1.02584 -2.52346 0
M  V30 35394 P 4070.28 4.23843 -7.83734 0
M  V30 35395 O 4070.06 4.19407 -9.29784 0
M  V30 35396 O 4069.49 5.24426 -7.09156 0
M  V30 35397 O 4070.03 2.7935 -7.20758 0
M  V30 35398 C 4070.97 1.7299 -7.50419 0
M  V30 35399 C 4070.24 0.406376 -7.57911 0
M  V30 35400 O 4070.03 -0.0897726 -6.21935 0
M  V30 35401 C 4068.84 0.447224 -8.1878 0
M  V30 35402 O 4068.45 -0.825065 -8.71101 0
M  V30 35403 C 4067.96 0.783801 -6.99623 0
M  V30 35404 C 4068.67 0.0619192 -5.85967 0
M  V30 35405 N 4068.62 0.790462 -4.56202 0
M  V30 35406 H 4071.45 1.93423 -8.4679 0
M  V30 35407 H 4071.73 1.68852 -6.70877 0
M  V30 35408 H 4070.86 -0.289041 -8.15388 0
M  V30 35409 H 4068.2 -0.927006 -5.72848 0
M  V30 35410 H 4067.92 1.86973 -6.82036 0
M  V30 35411 H 4066.93 0.403953 -7.13357 0
M  V30 35412 H 4068.77 1.20599 -8.97534 0
M  V30 35413 P 4066.9 -1.17771 -8.83182 0
M  V30 35414 O 4066.68 -2.07206 -9.98732 0
M  V30 35415 O 4066.11 0.0743816 -8.81969 0
M  V30 35416 O 4066.65 -1.97652 -7.47304 0
M  V30 35417 C 4067.59 -3.01133 -7.08783 0
M  V30 35418 C 4066.86 -4.12613 -6.37049 0
M  V30 35419 O 4066.65 -3.72827 -4.97879 0
M  V30 35420 C 4065.46 -4.45085 -6.88694 0
M  V30 35421 O 4065.07 -5.7877 -6.5624 0
M  V30 35422 C 4064.58 -3.47817 -6.12078 0
M  V30 35423 C 4065.29 -3.39414 -4.77697 0
M  V30 35424 N 4065.24 -2.04199 -4.15538 0
M  V30 35425 H 4068.07 -3.41248 -7.98759 0
M  V30 35426 H 4068.35 -2.57728 -6.42 0
M  V30 35427 H 4067.48 -5.02657 -6.42673 0
M  V30 35428 H 4064.82 -4.11708 -4.08956 0
M  V30 35429 H 4064.54 -2.49626 -6.61679 0
M  V30 35430 H 4063.55 -3.8662 -6.00862 0
M  V30 35431 H 4065.39 -4.29991 -7.97006 0
M  V30 35432 P 4063.52 -6.144 -6.45285 0
M  V30 35433 O 4063.3 -7.54673 -6.86199 0
M  V30 35434 O 4062.73 -5.12391 -7.179 0
M  V30 35435 O 4063.27 -5.99236 -4.88467 0
M  V30 35436 C 4064.21 -6.60234 -3.96415 0
M  V30 35437 C 4063.48 -7.08079 -2.736 0
M  V30 35438 O 4063.27 -5.94365 -1.8368 0
M  V30 35439 C 4062.08 -7.64886 -2.9555 0
M  V30 35440 O 4061.69 -8.5406 -1.90739 0
M  V30 35441 C 4061.2 -6.4116 -2.90739 0
M  V30 35442 C 4061.91 -5.55375 -1.86963 0
M  V30 35443 N 4061.86 -4.09664 -2.15742 0
M  V30 35444 C 4061.71 -3.22231 -1.08477 0
M  V30 35445 O 4061.62 -3.68951 0.0600489 0
M  V30 35446 N 4061.66 -1.76692 -1.48799 0
M  V30 35447 C 4061.76 -1.41695 -2.57602 0
M  V30 35448 N 4061.71 -0.107296 -2.75791 0
M  V30 35449 C 4061.91 -2.29178 -3.69733 0
M  V30 35450 C 4061.96 -3.62753 -3.42653 0
M  V30 35451 H 4064.7 -7.45488 -4.45578 0
M  V30 35452 H 4064.97 -5.86232 -3.67314 0
M  V30 35453 H 4064.1 -7.84508 -2.24507 0
M  V30 35454 H 4061.44 -5.73556 -0.888715 0
M  V30 35455 H 4061.16 -5.9096 -3.88638 0
M  V30 35456 H 4060.17 -6.66053 -2.58894 0
M  V30 35457 H 4062.01 -8.16339 -3.92049 0
M  V30 35458 H 4062.08 -4.33052 -4.24913 0
M  V30 35459 H 4061.98 -1.9103 -4.71577 0
M  V30 35460 H 4061.59 0.521221 -1.95056 0
M  V30 35461 H 4061.78 0.286429 -3.70695 0
M  V30 35462 P 4060.14 -8.7635 -1.60911 0
M  V30 35463 O 4059.92 -10.1388 -1.11561 0
M  V30 35464 O 4059.35 -8.36503 -2.79617 0
M  V30 35465 O 4059.89 -7.71806 -0.42951 0
M  V30 35466 C 4060.83 -7.67148 0.673689 0
M  V30 35467 C 4060.1 -7.33374 1.95559 0
M  V30 35468 O 4059.89 -5.88721 2.00726 0
M  V30 35469 C 4058.7 -7.92526 2.10483 0
M  V30 35470 O 4058.31 -8.02971 3.47653 0
M  V30 35471 C 4057.82 -6.89602 1.41652 0
M  V30 35472 C 4058.53 -5.59201 1.75185 0
M  V30 35473 N 4058.48 -4.58301 0.657969 0
M  V30 35474 H 4061.32 -8.65116 0.777161 0
M  V30 35475 H 4061.59 -6.9022 0.46725 0
M  V30 35476 H 4060.72 -7.66548 2.79458 0
M  V30 35477 H 4058.06 -5.16165 2.65183 0
M  V30 35478 H 4057.78 -7.06433 0.329384 0
M  V30 35479 H 4056.79 -6.90926 1.82021 0
M  V30 35480 H 4058.63 -8.90873 1.62657 0
M  V30 35481 P 4056.76 -8.03563 3.84925 0
M  V30 35482 O 4056.54 -8.85821 5.0569 0
M  V30 35483 O 4055.97 -8.41101 2.65469 0
M  V30 35484 O 4056.51 -6.4965 4.18908 0
M  V30 35485 C 4057.45 -5.80886 5.05289 0
M  V30 35486 C 4056.72 -4.78366 5.89277 0
M  V30 35487 O 4056.51 -3.58302 5.08433 0
M  V30 35488 C 4055.32 -5.16748 6.36559 0
M  V30 35489 O 4054.93 -4.45271 7.53232 0
M  V30 35490 C 4054.44 -4.74572 5.19863 0
M  V30 35491 C 4055.15 -3.49373 4.70338 0
M  V30 35492 N 4055.1 -3.31704 3.22876 0
M  V30 35493 C 4054.95 -2.03326 2.74871 0
M  V30 35494 O 4054.86 -1.06486 3.48076 0
M  V30 35495 N 4054.91 -1.91838 1.37456 0
M  V30 35496 C 4055 -2.94295 0.462035 0
M  V30 35497 O 4054.95 -2.71763 -0.752928 0
M  V30 35498 C 4055.15 -4.25064 1.05249 0
M  V30 35499 C 4055.26 -5.39815 0.095697 0
M  V30 35500 C 4055.2 -4.40214 2.39192 0
M  V30 35501 H 4057.94 -6.54063 5.71245 0
M  V30 35502 H 4058.21 -5.30339 4.43905 0
M  V30 35503 H 4057.34 -4.55889 6.76652 0
M  V30 35504 H 4054.68 -2.6167 5.17842 0
M  V30 35505 H 4054.41 -5.52155 4.41878 0
M  V30 35506 H 4053.41 -4.51918 5.53297 0
M  V30 35507 H 4055.25 -6.25055 6.55162 0
M  V30 35508 H 4055.32 -5.39798 2.81523 0
M  V30 35509 H 4054.29 -5.91593 0.0279582 0
M  V30 35510 H 4056.03 -6.10038 0.450573 0
M  V30 35511 H 4055.54 -5.02007 -0.89937 0
M  V30 35512 H 4054.8 -0.995326 1.00435 0
M  V30 35513 P 4053.38 -4.23843 7.83734 0
M  V30 35514 O 4053.16 -4.19407 9.29784 0
M  V30 35515 O 4052.59 -5.24426 7.09156 0
M  V30 35516 O 4053.13 -2.7935 7.20758 0
M  V30 35517 C 4054.07 -1.7299 7.50419 0
M  V30 35518 C 4053.34 -0.406376 7.57911 0
M  V30 35519 O 4053.13 0.0897726 6.21935 0
M  V30 35520 C 4051.94 -0.447224 8.1878 0
M  V30 35521 O 4051.55 0.825065 8.71101 0
M  V30 35522 C 4051.06 -0.783801 6.99623 0
M  V30 35523 C 4051.77 -0.0619192 5.85967 0
M  V30 35524 N 4051.72 -0.790462 4.56202 0
M  V30 35525 H 4054.56 -1.93423 8.4679 0
M  V30 35526 H 4054.83 -1.68852 6.70877 0
M  V30 35527 H 4053.96 0.289041 8.15388 0
M  V30 35528 H 4051.3 0.927006 5.72848 0
M  V30 35529 H 4051.02 -1.86973 6.82036 0
M  V30 35530 H 4050.03 -0.403953 7.13357 0
M  V30 35531 H 4051.87 -1.20599 8.97534 0
M  V30 35532 P 4050 1.17771 8.83182 0
M  V30 35533 O 4049.78 2.07206 9.98732 0
M  V30 35534 O 4049.21 -0.0743816 8.81969 0
M  V30 35535 O 4049.75 1.97678 7.474 0
M  V30 35536 C 4050.69 3.01133 7.08783 0
M  V30 35537 C 4049.96 4.1203 6.37546 0
M  V30 35538 O 4049.75 3.72887 4.9796 0
M  V30 35539 C 4048.56 4.45085 6.88694 0
M  V30 35540 O 4048.17 5.78836 6.56315 0
M  V30 35541 C 4047.68 3.47817 6.12078 0
M  V30 35542 C 4048.39 3.39414 4.77697 0
M  V30 35543 N 4048.34 2.04615 4.15333 0
M  V30 35544 C 4048.19 1.96929 2.77162 0
M  V30 35545 O 4048.1 3.02017 2.12006 0
M  V30 35546 N 4048.14 0.55485 2.24237 0
M  V30 35547 C 4048.24 -0.367808 2.9169 0
M  V30 35548 N 4048.19 -1.53426 2.29427 0
M  V30 35549 C 4048.39 -0.319148 4.33828 0
M  V30 35550 C 4048.44 0.920672 4.90433 0
M  V30 35551 H 4051.18 3.41209 7.98667 0
M  V30 35552 H 4051.45 2.5837 6.41742 0
M  V30 35553 H 4050.58 5.02718 6.42752 0
M  V30 35554 H 4047.92 4.11779 4.09026 0
M  V30 35555 H 4047.64 2.49661 6.61772 0
M  V30 35556 H 4046.65 3.86674 6.00946 0
M  V30 35557 H 4048.49 4.29991 7.97006 0
M  V30 35558 H 4048.56 1.00589 5.98303 0
M  V30 35559 H 4048.46 -1.22639 4.93799 0
M  V30 35560 H 4048.07 -1.56819 1.27167 0
M  V30 35561 H 4048.27 -2.41062 2.83063 0
M  V30 35562 P 4046.62 6.144 6.45285 0
M  V30 35563 O 4046.4 7.54673 6.86199 0
M  V30 35564 O 4045.83 5.12391 7.179 0
M  V30 35565 O 4046.37 5.99236 4.88467 0
M  V30 35566 C 4047.31 6.60234 3.96415 0
M  V30 35567 C 4046.58 7.08079 2.736 0
M  V30 35568 O 4046.37 5.94365 1.8368 0
M  V30 35569 C 4045.18 7.64886 2.9555 0
M  V30 35570 O 4044.79 8.5406 1.90739 0
M  V30 35571 C 4044.3 6.4116 2.90739 0
M  V30 35572 C 4045.01 5.55375 1.86963 0
M  V30 35573 N 4044.96 4.09664 2.15742 0
M  V30 35574 C 4044.81 3.22231 1.08477 0
M  V30 35575 O 4044.72 3.68951 -0.0600489 0
M  V30 35576 N 4044.76 1.76692 1.48799 0
M  V30 35577 C 4044.86 1.41695 2.57602 0
M  V30 35578 N 4044.81 0.107296 2.75791 0
M  V30 35579 C 4045.01 2.29178 3.69733 0
M  V30 35580 C 4045.06 3.62753 3.42653 0
M  V30 35581 H 4047.8 7.45488 4.45578 0
M  V30 35582 H 4048.07 5.86232 3.67314 0
M  V30 35583 H 4047.2 7.84508 2.24507 0
M  V30 35584 H 4044.54 5.73556 0.888715 0
M  V30 35585 H 4044.26 5.9096 3.88638 0
M  V30 35586 H 4043.27 6.66053 2.58894 0
M  V30 35587 H 4045.11 8.16339 3.92049 0
M  V30 35588 H 4045.18 4.33052 4.24913 0
M  V30 35589 H 4045.08 1.9103 4.71577 0
M  V30 35590 H 4044.69 -0.521221 1.95056 0
M  V30 35591 H 4044.89 -0.286429 3.70695 0
M  V30 35592 P 4043.24 8.7635 1.60911 0
M  V30 35593 O 4043.02 10.1388 1.11561 0
M  V30 35594 O 4042.45 8.36503 2.79617 0
M  V30 35595 O 4042.99 7.71806 0.42951 0
M  V30 35596 C 4043.93 7.67148 -0.673689 0
M  V30 35597 C 4043.2 7.33374 -1.95559 0
M  V30 35598 O 4042.99 5.88721 -2.00726 0
M  V30 35599 C 4041.8 7.92526 -2.10483 0
M  V30 35600 O 4041.41 8.02971 -3.47653 0
M  V30 35601 C 4040.92 6.89602 -1.41652 0
M  V30 35602 C 4041.63 5.59201 -1.75185 0
M  V30 35603 N 4041.58 4.58301 -0.657969 0
M  V30 35604 H 4044.42 8.65116 -0.777161 0
M  V30 35605 H 4044.69 6.9022 -0.46725 0
M  V30 35606 H 4043.82 7.66548 -2.79458 0
M  V30 35607 H 4041.16 5.16165 -2.65183 0
M  V30 35608 H 4040.88 7.06433 -0.329384 0
M  V30 35609 H 4039.89 6.90926 -1.82021 0
M  V30 35610 H 4041.73 8.90873 -1.62657 0
M  V30 35611 P 4039.86 8.03563 -3.84925 0
M  V30 35612 O 4039.64 8.85821 -5.0569 0
M  V30 35613 O 4039.07 8.41101 -2.65469 0
M  V30 35614 O 4039.61 6.49734 -4.18962 0
M  V30 35615 C 4040.55 5.81037 -5.05421 0
M  V30 35616 C 4039.82 4.79018 -5.88876 0
M  V30 35617 O 4039.61 3.58359 -5.08515 0
M  V30 35618 C 4038.42 5.17448 -6.36119 0
M  V30 35619 O 4038.03 4.45322 -7.53318 0
M  V30 35620 C 4037.54 4.74639 -5.19936 0
M  V30 35621 C 4038.25 3.49432 -4.70418 0
M  V30 35622 N 4038.2 3.31776 -3.22945 0
M  V30 35623 C 4038.05 2.02742 -2.72939 0
M  V30 35624 O 4037.96 1.08301 -3.52749 0
M  V30 35625 N 4038 1.96117 -1.22063 0
M  V30 35626 C 4038.1 2.8878 -0.551566 0
M  V30 35627 N 4038.05 2.65609 0.750198 0
M  V30 35628 C 4038.25 4.22457 -1.03707 0
M  V30 35629 C 4038.3 4.37979 -2.39113 0
M  V30 35630 H 4041.04 6.54138 -5.7131 0
M  V30 35631 H 4041.31 5.30492 -4.44033 0
M  V30 35632 H 4040.44 4.55945 -6.76735 0
M  V30 35633 H 4037.78 2.6176 -5.18021 0
M  V30 35634 H 4037.5 5.52233 -4.41941 0
M  V30 35635 H 4036.51 4.52045 -5.53452 0
M  V30 35636 H 4038.35 6.25124 -6.55234 0
M  V30 35637 H 4038.42 5.37936 -2.80552 0
M  V30 35638 H 4038.32 5.07528 -0.359553 0
M  V30 35639 H 4037.93 1.69403 1.09847 0
M  V30 35640 H 4038.13 3.43701 1.41792 0
M  V30 35641 P 4036.48 4.23843 -7.83734 0
M  V30 35642 O 4036.26 4.19407 -9.29784 0
M  V30 35643 O 4035.69 5.24426 -7.09156 0
M  V30 35644 O 4036.23 2.7935 -7.20758 0
M  V30 35645 C 4037.17 1.7299 -7.50419 0
M  V30 35646 C 4036.44 0.406376 -7.57911 0
M  V30 35647 O 4036.23 -0.0897726 -6.21935 0
M  V30 35648 C 4035.04 0.447224 -8.1878 0
M  V30 35649 O 4034.65 -0.825065 -8.71101 0
M  V30 35650 C 4034.16 0.783801 -6.99623 0
M  V30 35651 C 4034.87 0.0619192 -5.85967 0
M  V30 35652 N 4034.82 0.7859 -4.56281 0
M  V30 35653 H 4037.66 1.93423 -8.4679 0
M  V30 35654 H 4037.93 1.68181 -6.71046 0
M  V30 35655 H 4037.06 -0.289041 -8.15388 0
M  V30 35656 P 4033.1 -1.17771 -8.83182 0
M  V30 35657 O 4032.88 -2.07206 -9.98732 0
M  V30 35658 O 4032.31 0.0743816 -8.81969 0
M  V30 35659 O 4032.85 -1.97652 -7.47304 0
M  V30 35660 C 4033.79 -3.01133 -7.08783 0
M  V30 35661 C 4033.06 -4.12613 -6.37049 0
M  V30 35662 O 4032.85 -3.72827 -4.97879 0
M  V30 35663 C 4031.66 -4.45085 -6.88694 0
M  V30 35664 O 4031.27 -5.7877 -6.5624 0
M  V30 35665 C 4030.78 -3.47817 -6.12078 0
M  V30 35666 C 4031.49 -3.39414 -4.77697 0
M  V30 35667 N 4031.44 -2.04615 -4.15333 0
M  V30 35668 H 4034.28 -3.41248 -7.98759 0
M  V30 35669 H 4034.55 -2.5837 -6.41742 0
M  V30 35670 H 4033.68 -5.02657 -6.42673 0
M  V30 35671 P 4029.72 -6.144 -6.45285 0
M  V30 35672 O 4029.5 -7.54673 -6.86199 0
M  V30 35673 O 4028.93 -5.12391 -7.179 0
M  V30 35674 O 4029.47 -5.99236 -4.88467 0
M  V30 35675 C 4030.41 -6.60234 -3.96415 0
M  V30 35676 C 4029.68 -7.08079 -2.736 0
M  V30 35677 O 4029.47 -5.94365 -1.8368 0
M  V30 35678 C 4028.28 -7.64886 -2.9555 0
M  V30 35679 O 4027.89 -8.5406 -1.90739 0
M  V30 35680 C 4027.4 -6.4116 -2.90739 0
M  V30 35681 C 4028.11 -5.55375 -1.86963 0
M  V30 35682 N 4028.06 -4.09664 -2.15742 0
M  V30 35683 C 4027.91 -3.22231 -1.08477 0
M  V30 35684 O 4027.82 -3.68951 0.0600489 0
M  V30 35685 N 4027.86 -1.76692 -1.48799 0
M  V30 35686 C 4027.96 -1.41695 -2.57602 0
M  V30 35687 N 4027.91 -0.107296 -2.75791 0
M  V30 35688 C 4028.11 -2.29178 -3.69733 0
M  V30 35689 C 4028.16 -3.62753 -3.42653 0
M  V30 35690 H 4030.9 -7.45488 -4.45578 0
M  V30 35691 H 4031.17 -5.86232 -3.67314 0
M  V30 35692 H 4030.3 -7.84508 -2.24507 0
M  V30 35693 H 4027.64 -5.73556 -0.888715 0
M  V30 35694 H 4027.36 -5.9096 -3.88638 0
M  V30 35695 H 4026.37 -6.66053 -2.58894 0
M  V30 35696 H 4028.21 -8.16339 -3.92049 0
M  V30 35697 H 4028.28 -4.33052 -4.24913 0
M  V30 35698 H 4028.18 -1.9103 -4.71577 0
M  V30 35699 H 4027.79 0.521221 -1.95056 0
M  V30 35700 H 4027.99 0.286429 -3.70695 0
M  V30 35701 P 4026.34 -8.7635 -1.60911 0
M  V30 35702 O 4026.12 -10.1388 -1.11561 0
M  V30 35703 O 4025.55 -8.36503 -2.79617 0
M  V30 35704 O 4026.09 -7.71806 -0.42951 0
M  V30 35705 C 4027.03 -7.67148 0.673689 0
M  V30 35706 C 4026.3 -7.33374 1.95559 0
M  V30 35707 O 4026.09 -5.88721 2.00726 0
M  V30 35708 C 4024.9 -7.92526 2.10483 0
M  V30 35709 O 4024.51 -8.02971 3.47653 0
M  V30 35710 C 4024.02 -6.89602 1.41652 0
M  V30 35711 C 4024.73 -5.59201 1.75185 0
M  V30 35712 N 4024.68 -4.58235 0.662552 0
M  V30 35713 H 4027.52 -8.65116 0.777161 0
M  V30 35714 H 4027.79 -6.90173 0.474152 0
M  V30 35715 H 4026.92 -7.66548 2.79458 0
M  V30 35716 P 4022.96 -8.03563 3.84925 0
M  V30 35717 O 4022.74 -8.85821 5.0569 0
M  V30 35718 O 4022.17 -8.41101 2.65469 0
M  V30 35719 O 4022.71 -6.4965 4.18908 0
M  V30 35720 C 4023.65 -5.81037 5.05421 0
M  V30 35721 C 4022.92 -4.78366 5.89277 0
M  V30 35722 O 4022.71 -3.58302 5.08433 0
M  V30 35723 C 4021.52 -5.17448 6.36119 0
M  V30 35724 O 4021.13 -4.45271 7.53232 0
M  V30 35725 C 4020.64 -4.74639 5.19936 0
M  V30 35726 C 4021.35 -3.49432 4.70418 0
M  V30 35727 N 4021.3 -3.31776 3.22945 0
M  V30 35728 H 4024.14 -6.54213 5.71376 0
M  V30 35729 H 4024.41 -5.30492 4.44033 0
M  V30 35730 H 4023.54 -4.55889 6.76652 0
M  V30 35731 P 4019.58 -4.23843 7.83734 0
M  V30 35732 O 4019.36 -4.19407 9.29784 0
M  V30 35733 O 4018.79 -5.24426 7.09156 0
M  V30 35734 O 4019.33 -2.7935 7.20758 0
M  V30 35735 C 4020.27 -1.7299 7.50419 0
M  V30 35736 C 4019.54 -0.406376 7.57911 0
M  V30 35737 O 4019.33 0.0897726 6.21935 0
M  V30 35738 C 4018.14 -0.447224 8.1878 0
M  V30 35739 O 4017.75 0.825065 8.71101 0
M  V30 35740 C 4017.26 -0.783801 6.99623 0
M  V30 35741 C 4017.97 -0.0619192 5.85967 0
M  V30 35742 N 4017.92 -0.7859 4.56281 0
M  V30 35743 H 4020.76 -1.93423 8.4679 0
M  V30 35744 H 4021.03 -1.68181 6.71046 0
M  V30 35745 H 4020.16 0.289041 8.15388 0
M  V30 35746 P 4016.2 1.17771 8.83182 0
M  V30 35747 O 4015.98 2.07206 9.98732 0
M  V30 35748 O 4015.41 -0.0743816 8.81969 0
M  V30 35749 O 4015.95 1.97652 7.47304 0
M  V30 35750 C 4016.89 3.01133 7.08783 0
M  V30 35751 C 4016.16 4.12613 6.37049 0
M  V30 35752 O 4015.95 3.72827 4.97879 0
M  V30 35753 C 4014.76 4.45085 6.88694 0
M  V30 35754 O 4014.37 5.7877 6.5624 0
M  V30 35755 C 4013.88 3.47817 6.12078 0
M  V30 35756 C 4014.59 3.39414 4.77697 0
M  V30 35757 N 4014.54 2.04199 4.15538 0
M  V30 35758 H 4017.38 3.41248 7.98759 0
M  V30 35759 H 4017.65 2.57728 6.42 0
M  V30 35760 H 4016.78 5.02657 6.42673 0
M  V30 35761 H 4014.12 4.11708 4.08956 0
M  V30 35762 H 4013.84 2.49626 6.61679 0
M  V30 35763 H 4012.85 3.8662 6.00862 0
M  V30 35764 H 4014.69 4.29991 7.97006 0
M  V30 35765 P 4012.82 6.144 6.45285 0
M  V30 35766 O 4012.6 7.54673 6.86199 0
M  V30 35767 O 4012.03 5.12391 7.179 0
M  V30 35768 O 4012.57 5.99158 4.88404 0
M  V30 35769 C 4013.51 6.60234 3.96415 0
M  V30 35770 C 4012.78 7.08259 2.72856 0
M  V30 35771 O 4012.57 5.9427 1.83651 0
M  V30 35772 C 4011.38 7.64886 2.9555 0
M  V30 35773 O 4010.99 8.53963 1.90717 0
M  V30 35774 C 4010.5 6.4116 2.90739 0
M  V30 35775 C 4011.21 5.55375 1.86963 0
M  V30 35776 N 4011.16 4.09664 2.15742 0
M  V30 35777 H 4014 7.45574 4.45629 0
M  V30 35778 H 4014.27 5.86232 3.67314 0
M  V30 35779 H 4013.4 7.84412 2.24479 0
M  V30 35780 P 4009.44 8.7635 1.60911 0
M  V30 35781 O 4009.22 10.1388 1.11561 0
M  V30 35782 O 4008.65 8.36503 2.79617 0
M  V30 35783 O 4009.19 7.71806 0.42951 0
M  V30 35784 C 4010.13 7.67148 -0.673689 0
M  V30 35785 C 4009.4 7.33374 -1.95559 0
M  V30 35786 O 4009.19 5.88721 -2.00726 0
M  V30 35787 C 4008 7.92526 -2.10483 0
M  V30 35788 O 4007.61 8.02971 -3.47653 0
M  V30 35789 C 4007.12 6.89602 -1.41652 0
M  V30 35790 C 4007.83 5.59201 -1.75185 0
M  V30 35791 N 4007.78 4.58301 -0.657969 0
M  V30 35792 H 4010.62 8.65116 -0.777161 0
M  V30 35793 H 4010.89 6.9022 -0.46725 0
M  V30 35794 H 4010.02 7.66548 -2.79458 0
M  V30 35795 H 4007.36 5.16165 -2.65183 0
M  V30 35796 H 4007.08 7.06433 -0.329384 0
M  V30 35797 H 4006.09 6.90926 -1.82021 0
M  V30 35798 H 4007.93 8.90873 -1.62657 0
M  V30 35799 P 4006.06 8.03563 -3.84925 0
M  V30 35800 O 4005.84 8.85821 -5.0569 0
M  V30 35801 O 4005.27 8.41101 -2.65469 0
M  V30 35802 O 4005.81 6.4965 -4.18908 0
M  V30 35803 C 4006.75 5.81037 -5.05421 0
M  V30 35804 C 4006.02 4.78366 -5.89277 0
M  V30 35805 O 4005.81 3.58302 -5.08433 0
M  V30 35806 C 4004.62 5.17448 -6.36119 0
M  V30 35807 O 4004.23 4.45271 -7.53232 0
M  V30 35808 C 4003.74 4.74639 -5.19936 0
M  V30 35809 C 4004.45 3.49432 -4.70418 0
M  V30 35810 N 4004.4 3.31776 -3.22945 0
M  V30 35811 H 4007.24 6.54213 -5.71376 0
M  V30 35812 H 4007.51 5.30492 -4.44033 0
M  V30 35813 H 4006.64 4.55889 -6.76652 0
M  V30 35814 P 4002.68 4.23843 -7.83734 0
M  V30 35815 O 4002.46 4.19407 -9.29784 0
M  V30 35816 O 4001.89 5.24426 -7.09156 0
M  V30 35817 O 4002.43 2.7935 -7.20758 0
M  V30 35818 C 4003.37 1.7299 -7.50419 0
M  V30 35819 C 4002.64 0.406376 -7.57911 0
M  V30 35820 O 4002.43 -0.0897726 -6.21935 0
M  V30 35821 C 4001.24 0.447224 -8.1878 0
M  V30 35822 O 4000.85 -0.825065 -8.71101 0
M  V30 35823 C 4000.36 0.783801 -6.99623 0
M  V30 35824 C 4001.07 0.0619192 -5.85967 0
M  V30 35825 N 4001.02 0.790462 -4.56202 0
M  V30 35826 H 4003.86 1.93423 -8.4679 0
M  V30 35827 H 4004.13 1.68852 -6.70877 0
M  V30 35828 H 4003.26 -0.289041 -8.15388 0
M  V30 35829 H 4000.6 -0.927006 -5.72848 0
M  V30 35830 H 4000.32 1.86973 -6.82036 0
M  V30 35831 H 3999.33 0.403953 -7.13357 0
M  V30 35832 H 4001.17 1.20599 -8.97534 0
M  V30 35833 P 3999.3 -1.17771 -8.83182 0
M  V30 35834 O 3999.08 -2.07206 -9.98732 0
M  V30 35835 O 3998.51 0.0743816 -8.81969 0
M  V30 35836 O 3999.05 -1.97652 -7.47304 0
M  V30 35837 C 3999.99 -3.01055 -7.08599 0
M  V30 35838 C 3999.26 -4.12613 -6.37049 0
M  V30 35839 O 3999.05 -3.72827 -4.97879 0
M  V30 35840 C 3997.86 -4.45719 -6.88164 0
M  V30 35841 O 3997.47 -5.7877 -6.5624 0
M  V30 35842 C 3996.98 -3.47768 -6.11991 0
M  V30 35843 C 3997.69 -3.39356 -4.77615 0
M  V30 35844 N 3997.64 -2.04571 -4.15244 0
M  V30 35845 C 3997.49 -1.98587 -2.78314 0
M  V30 35846 O 3997.4 -2.98134 -2.08835 0
M  V30 35847 N 3997.45 -0.714467 -2.24925 0
M  V30 35848 C 3997.54 0.470001 -2.94169 0
M  V30 35849 O 3997.49 1.55587 -2.35195 0
M  V30 35850 C 3997.69 0.312541 -4.36783 0
M  V30 35851 C 3997.8 1.57711 -5.16352 0
M  V30 35852 C 3997.74 -0.914512 -4.92583 0
M  V30 35853 H 4000.48 -3.41169 -7.98575 0
M  V30 35854 H 4000.75 -2.58295 -6.41556 0
M  V30 35855 H 3999.88 -5.02657 -6.42673 0
M  V30 35856 H 3997.22 -4.11637 -4.08885 0
M  V30 35857 H 3996.95 -2.49626 -6.61679 0
M  V30 35858 H 3995.95 -3.86566 -6.00778 0
M  V30 35859 H 3997.79 -4.29943 -7.96918 0
M  V30 35860 H 3997.86 -1.00937 -6.00374 0
M  V30 35861 H 3996.83 1.80153 -5.63503 0
M  V30 35862 H 3998.57 1.4566 -5.94104 0
M  V30 35863 H 3998.08 2.40664 -4.49645 0
M  V30 35864 H 3997.34 -0.647622 -1.25697 0
M  V30 35865 P 3995.92 -6.144 -6.45285 0
M  V30 35866 O 3995.7 -7.54673 -6.86199 0
M  V30 35867 O 3995.13 -5.12391 -7.179 0
M  V30 35868 O 3995.67 -5.99158 -4.88404 0
M  V30 35869 C 3996.61 -6.60234 -3.96415 0
M  V30 35870 C 3995.88 -7.08259 -2.72856 0
M  V30 35871 O 3995.67 -5.9427 -1.83651 0
M  V30 35872 C 3994.48 -7.64886 -2.9555 0
M  V30 35873 O 3994.09 -8.53963 -1.90717 0
M  V30 35874 C 3993.6 -6.4116 -2.90739 0
M  V30 35875 C 3994.31 -5.55375 -1.86963 0
M  V30 35876 N 3994.26 -4.09664 -2.15742 0
M  V30 35877 H 3997.1 -7.45574 -4.45629 0
M  V30 35878 H 3997.37 -5.86232 -3.67314 0
M  V30 35879 H 3996.5 -7.84412 -2.24479 0
M  V30 35880 P 3992.54 -8.7635 -1.60911 0
M  V30 35881 O 3992.32 -10.1388 -1.11561 0
M  V30 35882 O 3991.75 -8.36503 -2.79617 0
M  V30 35883 O 3992.29 -7.71806 -0.42951 0
M  V30 35884 C 3993.23 -7.67148 0.673689 0
M  V30 35885 C 3992.5 -7.33374 1.95559 0
M  V30 35886 O 3992.29 -5.88721 2.00726 0
M  V30 35887 C 3991.1 -7.92526 2.10483 0
M  V30 35888 O 3990.71 -8.02971 3.47653 0
M  V30 35889 C 3990.22 -6.89602 1.41652 0
M  V30 35890 C 3990.93 -5.59201 1.75185 0
M  V30 35891 N 3990.88 -4.58235 0.662552 0
M  V30 35892 H 3993.72 -8.65116 0.777161 0
M  V30 35893 H 3993.99 -6.90173 0.474152 0
M  V30 35894 H 3993.12 -7.66548 2.79458 0
M  V30 35895 P 3989.16 -8.03563 3.84925 0
M  V30 35896 O 3988.94 -8.85821 5.0569 0
M  V30 35897 O 3988.37 -8.41101 2.65469 0
M  V30 35898 O 3988.91 -6.4965 4.18908 0
M  V30 35899 C 3989.85 -5.80886 5.05289 0
M  V30 35900 C 3989.12 -4.78366 5.89277 0
M  V30 35901 O 3988.91 -3.58302 5.08433 0
M  V30 35902 C 3987.72 -5.16748 6.36559 0
M  V30 35903 O 3987.33 -4.45271 7.53232 0
M  V30 35904 C 3986.84 -4.74572 5.19863 0
M  V30 35905 C 3987.55 -3.49373 4.70338 0
M  V30 35906 N 3987.5 -3.31704 3.22876 0
M  V30 35907 C 3987.35 -2.03326 2.74871 0
M  V30 35908 O 3987.26 -1.06486 3.48076 0
M  V30 35909 N 3987.31 -1.91838 1.37456 0
M  V30 35910 C 3987.4 -2.94295 0.462035 0
M  V30 35911 O 3987.35 -2.71763 -0.752928 0
M  V30 35912 C 3987.55 -4.25064 1.05249 0
M  V30 35913 C 3987.66 -5.39815 0.095697 0
M  V30 35914 C 3987.6 -4.40214 2.39192 0
M  V30 35915 H 3990.34 -6.54063 5.71245 0
M  V30 35916 H 3990.61 -5.30339 4.43905 0
M  V30 35917 H 3989.74 -4.55889 6.76652 0
M  V30 35918 H 3987.08 -2.6167 5.17842 0
M  V30 35919 H 3986.81 -5.52155 4.41878 0
M  V30 35920 H 3985.81 -4.51918 5.53297 0
M  V30 35921 H 3987.65 -6.25055 6.55162 0
M  V30 35922 H 3987.72 -5.39798 2.81523 0
M  V30 35923 H 3986.69 -5.91593 0.0279582 0
M  V30 35924 H 3988.43 -6.10038 0.450573 0
M  V30 35925 H 3987.94 -5.02007 -0.89937 0
M  V30 35926 H 3987.2 -0.995326 1.00435 0
M  V30 35927 P 3985.78 -4.23843 7.83734 0
M  V30 35928 O 3985.56 -4.19407 9.29784 0
M  V30 35929 O 3984.99 -5.24426 7.09156 0
M  V30 35930 O 3985.53 -2.7935 7.20758 0
M  V30 35931 C 3986.47 -1.7299 7.50419 0
M  V30 35932 C 3985.74 -0.406376 7.57911 0
M  V30 35933 O 3985.53 0.0897726 6.21935 0
M  V30 35934 C 3984.34 -0.447224 8.1878 0
M  V30 35935 O 3983.95 0.825065 8.71101 0
M  V30 35936 C 3983.46 -0.783801 6.99623 0
M  V30 35937 C 3984.17 -0.0619192 5.85967 0
M  V30 35938 N 3984.12 -0.7859 4.56281 0
M  V30 35939 H 3986.96 -1.93423 8.4679 0
M  V30 35940 H 3987.23 -1.68181 6.71046 0
M  V30 35941 H 3986.36 0.289041 8.15388 0
M  V30 35942 P 3982.4 1.17771 8.83182 0
M  V30 35943 O 3982.18 2.07206 9.98732 0
M  V30 35944 O 3981.61 -0.0743816 8.81969 0
M  V30 35945 O 3982.15 1.97652 7.47304 0
M  V30 35946 C 3983.09 3.01133 7.08783 0
M  V30 35947 C 3982.36 4.12613 6.37049 0
M  V30 35948 O 3982.15 3.72827 4.97879 0
M  V30 35949 C 3980.96 4.45085 6.88694 0
M  V30 35950 O 3980.57 5.7877 6.5624 0
M  V30 35951 C 3980.08 3.47817 6.12078 0
M  V30 35952 C 3980.79 3.39414 4.77697 0
M  V30 35953 N 3980.74 2.04615 4.15333 0
M  V30 35954 H 3983.58 3.41248 7.98759 0
M  V30 35955 H 3983.85 2.5837 6.41742 0
M  V30 35956 H 3982.98 5.02657 6.42673 0
M  V30 35957 P 3979.02 6.144 6.45285 0
M  V30 35958 O 3978.8 7.54673 6.86199 0
M  V30 35959 O 3978.23 5.12391 7.179 0
M  V30 35960 O 3978.77 5.99158 4.88404 0
M  V30 35961 C 3979.71 6.60234 3.96415 0
M  V30 35962 C 3978.98 7.08259 2.72856 0
M  V30 35963 O 3978.77 5.9427 1.83651 0
M  V30 35964 C 3977.58 7.64886 2.9555 0
M  V30 35965 O 3977.19 8.53963 1.90717 0
M  V30 35966 C 3976.7 6.4116 2.90739 0
M  V30 35967 C 3977.41 5.55375 1.86963 0
M  V30 35968 N 3977.36 4.09664 2.15742 0
M  V30 35969 H 3980.2 7.45574 4.45629 0
M  V30 35970 H 3980.47 5.86232 3.67314 0
M  V30 35971 H 3979.6 7.84412 2.24479 0
M  V30 35972 P 3975.64 8.7635 1.60911 0
M  V30 35973 O 3975.42 10.1388 1.11561 0
M  V30 35974 O 3974.85 8.36503 2.79617 0
M  V30 35975 O 3975.39 7.71806 0.42951 0
M  V30 35976 C 3976.33 7.67148 -0.673689 0
M  V30 35977 C 3975.6 7.33374 -1.95559 0
M  V30 35978 O 3975.39 5.88721 -2.00726 0
M  V30 35979 C 3974.2 7.92526 -2.10483 0
M  V30 35980 O 3973.81 8.02971 -3.47653 0
M  V30 35981 C 3973.32 6.89602 -1.41652 0
M  V30 35982 C 3974.03 5.59201 -1.75185 0
M  V30 35983 N 3973.98 4.58235 -0.662552 0
M  V30 35984 H 3976.82 8.65116 -0.777161 0
M  V30 35985 H 3977.09 6.90173 -0.474152 0
M  V30 35986 H 3976.22 7.66548 -2.79458 0
M  V30 35987 P 3972.26 8.03563 -3.84925 0
M  V30 35988 O 3972.04 8.85821 -5.0569 0
M  V30 35989 O 3971.47 8.41101 -2.65469 0
M  V30 35990 O 3972.01 6.4965 -4.18908 0
M  V30 35991 C 3972.95 5.81037 -5.05421 0
M  V30 35992 C 3972.22 4.78366 -5.89277 0
M  V30 35993 O 3972.01 3.58302 -5.08433 0
M  V30 35994 C 3970.82 5.17448 -6.36119 0
M  V30 35995 O 3970.43 4.45271 -7.53232 0
M  V30 35996 C 3969.94 4.74639 -5.19936 0
M  V30 35997 C 3970.65 3.49432 -4.70418 0
M  V30 35998 N 3970.6 3.31776 -3.22945 0
M  V30 35999 H 3973.44 6.54213 -5.71376 0
M  V30 36000 H 3973.71 5.30492 -4.44033 0
M  V30 36001 H 3972.84 4.55889 -6.76652 0
M  V30 36002 P 3968.88 4.23843 -7.83734 0
M  V30 36003 O 3968.66 4.19407 -9.29784 0
M  V30 36004 O 3968.09 5.24426 -7.09156 0
M  V30 36005 O 3968.63 2.7935 -7.20758 0
M  V30 36006 C 3969.57 1.7299 -7.50419 0
M  V30 36007 C 3968.84 0.406376 -7.57911 0
M  V30 36008 O 3968.63 -0.0897726 -6.21935 0
M  V30 36009 C 3967.44 0.447224 -8.1878 0
M  V30 36010 O 3967.05 -0.825065 -8.71101 0
M  V30 36011 C 3966.56 0.783801 -6.99623 0
M  V30 36012 C 3967.27 0.0619192 -5.85967 0
M  V30 36013 N 3967.22 0.7859 -4.56281 0
M  V30 36014 H 3970.06 1.93423 -8.4679 0
M  V30 36015 H 3970.33 1.68181 -6.71046 0
M  V30 36016 H 3969.46 -0.289041 -8.15388 0
M  V30 36017 P 3965.5 -1.17771 -8.83182 0
M  V30 36018 O 3965.28 -2.07206 -9.98732 0
M  V30 36019 O 3964.71 0.0743816 -8.81969 0
M  V30 36020 O 3965.25 -1.97652 -7.47304 0
M  V30 36021 C 3966.19 -3.01133 -7.08783 0
M  V30 36022 C 3965.46 -4.12613 -6.37049 0
M  V30 36023 O 3965.25 -3.72827 -4.97879 0
M  V30 36024 C 3964.06 -4.45085 -6.88694 0
M  V30 36025 O 3963.67 -5.7877 -6.5624 0
M  V30 36026 C 3963.18 -3.47817 -6.12078 0
M  V30 36027 C 3963.89 -3.39414 -4.77697 0
M  V30 36028 N 3963.84 -2.04199 -4.15538 0
M  V30 36029 C 3963.92 -0.821545 -4.76977 0
M  V30 36030 N 3963.85 0.1794 -3.94592 0
M  V30 36031 C 3963.7 -0.419121 -2.70776 0
M  V30 36032 C 3963.57 0.109072 -1.40577 0
M  V30 36033 N 3963.56 1.4104 -1.1344 0
M  V30 36034 N 3963.45 -0.764381 -0.39411 0
M  V30 36035 C 3963.46 -2.06587 -0.664135 0
M  V30 36036 N 3963.58 -2.67948 -1.82153 0
M  V30 36037 C 3963.7 -1.77942 -2.8147 0
M  V30 36038 H 3966.68 -3.41248 -7.98759 0
M  V30 36039 H 3966.95 -2.57728 -6.42 0
M  V30 36040 H 3966.08 -5.02657 -6.42673 0
M  V30 36041 H 3963.42 -4.11708 -4.08956 0
M  V30 36042 H 3963.14 -2.49626 -6.61679 0
M  V30 36043 H 3962.15 -3.8662 -6.00862 0
M  V30 36044 H 3963.99 -4.29991 -7.97006 0
M  V30 36045 H 3964.03 -0.702451 -5.84696 0
M  V30 36046 H 3963.65 2.09647 -1.89651 0
M  V30 36047 H 3963.46 1.73358 -0.160575 0
M  V30 36048 H 3963.35 -2.71695 0.195838 0
M  V30 36049 P 3962.12 -6.144 -6.45285 0
M  V30 36050 O 3961.9 -7.54673 -6.86199 0
M  V30 36051 O 3961.33 -5.12391 -7.179 0
M  V30 36052 O 3961.87 -5.99158 -4.88404 0
M  V30 36053 C 3962.81 -6.60062 -3.96313 0
M  V30 36054 C 3962.08 -7.08259 -2.72856 0
M  V30 36055 O 3961.87 -5.9427 -1.83651 0
M  V30 36056 C 3960.68 -7.65087 -2.94749 0
M  V30 36057 O 3960.29 -8.53963 -1.90717 0
M  V30 36058 C 3959.8 -6.41069 -2.90698 0
M  V30 36059 C 3960.51 -5.5528 -1.86931 0
M  V30 36060 N 3960.46 -4.09575 -2.15696 0
M  V30 36061 C 3960.31 -3.24249 -1.08435 0
M  V30 36062 O 3960.22 -3.63946 0.0628747 0
M  V30 36063 N 3960.27 -1.90009 -1.39973 0
M  V30 36064 C 3960.36 -1.34884 -2.65614 0
M  V30 36065 O 3960.31 -0.123716 -2.81728 0
M  V30 36066 C 3960.51 -2.3145 -3.71736 0
M  V30 36067 C 3960.62 -1.75913 -5.10438 0
M  V30 36068 C 3960.56 -3.63518 -3.44754 0
M  V30 36069 H 3963.3 -7.45402 -4.45526 0
M  V30 36070 H 3963.57 -5.86062 -3.67208 0
M  V30 36071 H 3962.7 -7.84412 -2.24479 0
M  V30 36072 H 3960.04 -5.73358 -0.888409 0
M  V30 36073 H 3959.77 -5.90877 -3.88583 0
M  V30 36074 H 3958.77 -6.65867 -2.58821 0
M  V30 36075 H 3960.61 -8.16248 -3.92006 0
M  V30 36076 H 3960.68 -4.34551 -4.26383 0
M  V30 36077 H 3959.65 -1.85471 -5.61775 0
M  V30 36078 H 3961.39 -2.31364 -5.66257 0
M  V30 36079 H 3960.9 -0.695936 -5.05229 0
M  V30 36080 H 3960.16 -1.26277 -0.63625 0
M  V30 36081 P 3958.74 -8.7635 -1.60911 0
M  V30 36082 O 3958.52 -10.1388 -1.11561 0
M  V30 36083 O 3957.95 -8.36503 -2.79617 0
M  V30 36084 O 3958.49 -7.71806 -0.42951 0
M  V30 36085 C 3959.43 -7.67148 0.673689 0
M  V30 36086 C 3958.7 -7.33374 1.95559 0
M  V30 36087 O 3958.49 -5.88721 2.00726 0
M  V30 36088 C 3957.3 -7.92526 2.10483 0
M  V30 36089 O 3956.91 -8.02971 3.47653 0
M  V30 36090 C 3956.42 -6.89602 1.41652 0
M  V30 36091 C 3957.13 -5.59201 1.75185 0
M  V30 36092 N 3957.08 -4.58235 0.662552 0
M  V30 36093 H 3959.92 -8.65116 0.777161 0
M  V30 36094 H 3960.19 -6.90173 0.474152 0
M  V30 36095 H 3959.32 -7.66548 2.79458 0
M  V30 36096 P 3955.36 -8.03563 3.84925 0
M  V30 36097 O 3955.14 -8.85821 5.0569 0
M  V30 36098 O 3954.57 -8.41101 2.65469 0
M  V30 36099 O 3955.11 -6.4965 4.18908 0
M  V30 36100 C 3956.05 -5.81037 5.05421 0
M  V30 36101 C 3955.32 -4.78366 5.89277 0
M  V30 36102 O 3955.11 -3.58302 5.08433 0
M  V30 36103 C 3953.92 -5.17448 6.36119 0
M  V30 36104 O 3953.53 -4.45271 7.53232 0
M  V30 36105 C 3953.04 -4.74639 5.19936 0
M  V30 36106 C 3953.75 -3.49432 4.70418 0
M  V30 36107 N 3953.7 -3.32099 3.22613 0
M  V30 36108 H 3956.54 -6.54213 5.71376 0
M  V30 36109 H 3956.81 -5.30936 4.43503 0
M  V30 36110 H 3955.94 -4.55889 6.76652 0
M  V30 36111 H 3953.28 -2.61715 5.17932 0
M  V30 36112 H 3953 -5.52155 4.41878 0
M  V30 36113 H 3952.01 -4.51981 5.53374 0
M  V30 36114 H 3953.85 -6.25124 6.55234 0
M  V30 36115 P 3951.98 -4.23843 7.83734 0
M  V30 36116 O 3951.76 -4.19407 9.29784 0
M  V30 36117 O 3951.19 -5.24426 7.09156 0
M  V30 36118 O 3951.73 -2.7935 7.20758 0
M  V30 36119 C 3952.67 -1.7299 7.50419 0
M  V30 36120 C 3951.94 -0.406376 7.57911 0
M  V30 36121 O 3951.73 0.0897726 6.21935 0
M  V30 36122 C 3950.54 -0.447224 8.1878 0
M  V30 36123 O 3950.15 0.825065 8.71101 0
M  V30 36124 C 3949.66 -0.783801 6.99623 0
M  V30 36125 C 3950.37 -0.0619192 5.85967 0
M  V30 36126 N 3950.32 -0.7859 4.56281 0
M  V30 36127 H 3953.16 -1.93423 8.4679 0
M  V30 36128 H 3953.43 -1.68181 6.71046 0
M  V30 36129 H 3952.56 0.289041 8.15388 0
M  V30 36130 P 3948.6 1.17771 8.83182 0
M  V30 36131 O 3948.38 2.07206 9.98732 0
M  V30 36132 O 3947.81 -0.0743816 8.81969 0
M  V30 36133 O 3948.35 1.97652 7.47304 0
M  V30 36134 C 3949.29 3.01133 7.08783 0
M  V30 36135 C 3948.56 4.12613 6.37049 0
M  V30 36136 O 3948.35 3.72827 4.97879 0
M  V30 36137 C 3947.16 4.45085 6.88694 0
M  V30 36138 O 3946.77 5.7877 6.5624 0
M  V30 36139 C 3946.28 3.47817 6.12078 0
M  V30 36140 C 3946.99 3.39414 4.77697 0
M  V30 36141 N 3946.94 2.04199 4.15538 0
M  V30 36142 H 3949.78 3.41248 7.98759 0
M  V30 36143 H 3950.05 2.57728 6.42 0
M  V30 36144 H 3949.18 5.02657 6.42673 0
M  V30 36145 H 3946.52 4.11708 4.08956 0
M  V30 36146 H 3946.24 2.49626 6.61679 0
M  V30 36147 H 3945.25 3.8662 6.00862 0
M  V30 36148 H 3947.09 4.29991 7.97006 0
M  V30 36149 P 3945.22 6.144 6.45285 0
M  V30 36150 O 3945 7.54673 6.86199 0
M  V30 36151 O 3944.43 5.12391 7.179 0
M  V30 36152 O 3944.97 5.99158 4.88404 0
M  V30 36153 C 3945.91 6.60234 3.96415 0
M  V30 36154 C 3945.18 7.08259 2.72856 0
M  V30 36155 O 3944.97 5.9427 1.83651 0
M  V30 36156 C 3943.78 7.64886 2.9555 0
M  V30 36157 O 3943.39 8.53963 1.90717 0
M  V30 36158 C 3942.9 6.4116 2.90739 0
M  V30 36159 C 3943.61 5.55375 1.86963 0
M  V30 36160 N 3943.56 4.09664 2.15742 0
M  V30 36161 H 3946.4 7.45574 4.45629 0
M  V30 36162 H 3946.67 5.86232 3.67314 0
M  V30 36163 H 3945.8 7.84412 2.24479 0
M  V30 36164 P 3941.84 8.7635 1.60911 0
M  V30 36165 O 3941.62 10.1388 1.11561 0
M  V30 36166 O 3941.05 8.36503 2.79617 0
M  V30 36167 O 3941.59 7.71806 0.42951 0
M  V30 36168 C 3942.53 7.67148 -0.673689 0
M  V30 36169 C 3941.8 7.33374 -1.95559 0
M  V30 36170 O 3941.59 5.88721 -2.00726 0
M  V30 36171 C 3940.4 7.92526 -2.10483 0
M  V30 36172 O 3940.01 8.02971 -3.47653 0
M  V30 36173 C 3939.52 6.89602 -1.41652 0
M  V30 36174 C 3940.23 5.59201 -1.75185 0
M  V30 36175 N 3940.18 4.58235 -0.662552 0
M  V30 36176 H 3943.02 8.65116 -0.777161 0
M  V30 36177 H 3943.29 6.90173 -0.474152 0
M  V30 36178 H 3942.42 7.66548 -2.79458 0
M  V30 36179 P 3938.46 8.03563 -3.84925 0
M  V30 36180 O 3938.24 8.85821 -5.0569 0
M  V30 36181 O 3937.67 8.41101 -2.65469 0
M  V30 36182 O 3938.21 6.4965 -4.18908 0
M  V30 36183 C 3939.15 5.81037 -5.05421 0
M  V30 36184 C 3938.42 4.78366 -5.89277 0
M  V30 36185 O 3938.21 3.58302 -5.08433 0
M  V30 36186 C 3937.02 5.17448 -6.36119 0
M  V30 36187 O 3936.63 4.45271 -7.53232 0
M  V30 36188 C 3936.14 4.74639 -5.19936 0
M  V30 36189 C 3936.85 3.49432 -4.70418 0
M  V30 36190 N 3936.8 3.32099 -3.22613 0
M  V30 36191 H 3939.64 6.54213 -5.71376 0
M  V30 36192 H 3939.91 5.30936 -4.43503 0
M  V30 36193 H 3939.04 4.55889 -6.76652 0
M  V30 36194 H 3936.38 2.61715 -5.17932 0
M  V30 36195 H 3936.1 5.52155 -4.41878 0
M  V30 36196 H 3935.11 4.51981 -5.53374 0
M  V30 36197 H 3936.95 6.25124 -6.55234 0
M  V30 36198 P 3935.08 4.23843 -7.83734 0
M  V30 36199 O 3934.86 4.19407 -9.29784 0
M  V30 36200 O 3934.29 5.24426 -7.09156 0
M  V30 36201 O 3934.83 2.7935 -7.20758 0
M  V30 36202 C 3935.77 1.7299 -7.50419 0
M  V30 36203 C 3935.04 0.406376 -7.57911 0
M  V30 36204 O 3934.83 -0.0897726 -6.21935 0
M  V30 36205 C 3933.64 0.447224 -8.1878 0
M  V30 36206 O 3933.25 -0.825065 -8.71101 0
M  V30 36207 C 3932.76 0.783801 -6.99623 0
M  V30 36208 C 3933.47 0.0619192 -5.85967 0
M  V30 36209 N 3933.42 0.790462 -4.56202 0
M  V30 36210 H 3936.26 1.93423 -8.4679 0
M  V30 36211 H 3936.53 1.68852 -6.70877 0
M  V30 36212 H 3935.66 -0.289041 -8.15388 0
M  V30 36213 H 3933 -0.927006 -5.72848 0
M  V30 36214 H 3932.72 1.86973 -6.82036 0
M  V30 36215 H 3931.73 0.403953 -7.13357 0
M  V30 36216 H 3933.57 1.20599 -8.97534 0
M  V30 36217 P 3931.7 -1.17771 -8.83182 0
M  V30 36218 O 3931.48 -2.07206 -9.98732 0
M  V30 36219 O 3930.91 0.0743816 -8.81969 0
M  V30 36220 O 3931.45 -1.97652 -7.47304 0
M  V30 36221 C 3932.39 -3.01133 -7.08783 0
M  V30 36222 C 3931.66 -4.12613 -6.37049 0
M  V30 36223 O 3931.45 -3.72827 -4.97879 0
M  V30 36224 C 3930.26 -4.45085 -6.88694 0
M  V30 36225 O 3929.87 -5.7877 -6.5624 0
M  V30 36226 C 3929.38 -3.47817 -6.12078 0
M  V30 36227 C 3930.09 -3.39414 -4.77697 0
M  V30 36228 N 3930.04 -2.04615 -4.15333 0
M  V30 36229 H 3932.88 -3.41248 -7.98759 0
M  V30 36230 H 3933.15 -2.5837 -6.41742 0
M  V30 36231 H 3932.28 -5.02657 -6.42673 0
M  V30 36232 P 3928.32 -6.144 -6.45285 0
M  V30 36233 O 3928.1 -7.54673 -6.86199 0
M  V30 36234 O 3927.53 -5.12391 -7.179 0
M  V30 36235 O 3928.07 -5.99158 -4.88404 0
M  V30 36236 C 3929.01 -6.60234 -3.96415 0
M  V30 36237 C 3928.28 -7.08259 -2.72856 0
M  V30 36238 O 3928.07 -5.9427 -1.83651 0
M  V30 36239 C 3926.88 -7.64886 -2.9555 0
M  V30 36240 O 3926.49 -8.53963 -1.90717 0
M  V30 36241 C 3926 -6.4116 -2.90739 0
M  V30 36242 C 3926.71 -5.55375 -1.86963 0
M  V30 36243 N 3926.66 -4.09448 -2.16152 0
M  V30 36244 H 3929.5 -7.45574 -4.45629 0
M  V30 36245 H 3929.77 -5.85864 -3.679 0
M  V30 36246 H 3928.9 -7.84412 -2.24479 0
M  V30 36247 H 3926.24 -5.73457 -0.888562 0
M  V30 36248 H 3925.96 -5.90877 -3.88583 0
M  V30 36249 H 3924.97 -6.6596 -2.58858 0
M  V30 36250 H 3926.81 -8.16339 -3.92049 0
M  V30 36251 P 3924.94 -8.7635 -1.60911 0
M  V30 36252 O 3924.72 -10.1388 -1.11561 0
M  V30 36253 O 3924.15 -8.36503 -2.79617 0
M  V30 36254 O 3924.69 -7.71806 -0.42951 0
M  V30 36255 C 3925.63 -7.67148 0.673689 0
M  V30 36256 C 3924.9 -7.33374 1.95559 0
M  V30 36257 O 3924.69 -5.88721 2.00726 0
M  V30 36258 C 3923.5 -7.92526 2.10483 0
M  V30 36259 O 3923.11 -8.02971 3.47653 0
M  V30 36260 C 3922.62 -6.89602 1.41652 0
M  V30 36261 C 3923.33 -5.59201 1.75185 0
M  V30 36262 N 3923.28 -4.58301 0.657969 0
M  V30 36263 H 3926.12 -8.65116 0.777161 0
M  V30 36264 H 3926.39 -6.9022 0.46725 0
M  V30 36265 H 3925.52 -7.66548 2.79458 0
M  V30 36266 H 3922.86 -5.16165 2.65183 0
M  V30 36267 H 3922.58 -7.06433 0.329384 0
M  V30 36268 H 3921.59 -6.90926 1.82021 0
M  V30 36269 H 3923.43 -8.90873 1.62657 0
M  V30 36270 P 3921.56 -8.03563 3.84925 0
M  V30 36271 O 3921.34 -8.85821 5.0569 0
M  V30 36272 O 3920.77 -8.41101 2.65469 0
M  V30 36273 O 3921.31 -6.4965 4.18908 0
M  V30 36274 C 3922.25 -5.80886 5.05289 0
M  V30 36275 C 3921.52 -4.78366 5.89277 0
M  V30 36276 O 3921.31 -3.58302 5.08433 0
M  V30 36277 C 3920.12 -5.16748 6.36559 0
M  V30 36278 O 3919.73 -4.45271 7.53232 0
M  V30 36279 C 3919.24 -4.74572 5.19863 0
M  V30 36280 C 3919.95 -3.49373 4.70338 0
M  V30 36281 N 3919.9 -3.31704 3.22876 0
M  V30 36282 C 3919.75 -2.03326 2.74871 0
M  V30 36283 O 3919.66 -1.06486 3.48076 0
M  V30 36284 N 3919.71 -1.91838 1.37456 0
M  V30 36285 C 3919.8 -2.94295 0.462035 0
M  V30 36286 C 3919.95 -4.25064 1.05249 0
M  V30 36287 C 3920 -4.40214 2.39192 0
M  V30 36288 H 3922.74 -6.54063 5.71245 0
M  V30 36289 H 3923.01 -5.30339 4.43905 0
M  V30 36290 H 3922.14 -4.55889 6.76652 0
M  V30 36291 H 3919.48 -2.6167 5.17842 0
M  V30 36292 H 3919.21 -5.52155 4.41878 0
M  V30 36293 H 3918.21 -4.51918 5.53297 0
M  V30 36294 H 3920.05 -6.25055 6.55162 0
M  V30 36295 H 3920.12 -5.39798 2.81523 0
M  V30 36296 P 3918.18 -4.23843 7.83734 0
M  V30 36297 O 3917.96 -4.19407 9.29784 0
M  V30 36298 O 3917.39 -5.24426 7.09156 0
M  V30 36299 O 3917.93 -2.7935 7.20758 0
M  V30 36300 C 3918.87 -1.7299 7.50419 0
M  V30 36301 C 3918.14 -0.406376 7.57911 0
M  V30 36302 O 3917.93 0.0897726 6.21935 0
M  V30 36303 C 3916.74 -0.447224 8.1878 0
M  V30 36304 O 3916.35 0.825065 8.71101 0
M  V30 36305 C 3915.86 -0.783801 6.99623 0
M  V30 36306 C 3916.57 -0.0619192 5.85967 0
M  V30 36307 N 3916.52 -0.790462 4.56202 0
M  V30 36308 H 3919.36 -1.93423 8.4679 0
M  V30 36309 H 3919.63 -1.68852 6.70877 0
M  V30 36310 H 3918.76 0.289041 8.15388 0
M  V30 36311 H 3916.1 0.927006 5.72848 0
M  V30 36312 H 3915.82 -1.86973 6.82036 0
M  V30 36313 H 3914.83 -0.403953 7.13357 0
M  V30 36314 H 3916.67 -1.20599 8.97534 0
M  V30 36315 P 3914.8 1.17771 8.83182 0
M  V30 36316 O 3914.58 2.07206 9.98732 0
M  V30 36317 O 3914.01 -0.0743816 8.81969 0
M  V30 36318 O 3914.55 1.97652 7.47304 0
M  V30 36319 C 3915.49 3.01133 7.08783 0
M  V30 36320 C 3914.76 4.12613 6.37049 0
M  V30 36321 O 3914.55 3.72827 4.97879 0
M  V30 36322 C 3913.36 4.45085 6.88694 0
M  V30 36323 O 3912.97 5.7877 6.5624 0
M  V30 36324 C 3912.48 3.47817 6.12078 0
M  V30 36325 C 3913.19 3.39414 4.77697 0
M  V30 36326 N 3913.14 2.04615 4.15333 0
M  V30 36327 H 3915.98 3.41248 7.98759 0
M  V30 36328 H 3916.25 2.5837 6.41742 0
M  V30 36329 H 3915.38 5.02657 6.42673 0
M  V30 36330 P 3911.42 6.144 6.45285 0
M  V30 36331 O 3911.2 7.54673 6.86199 0
M  V30 36332 O 3910.63 5.12391 7.179 0
M  V30 36333 O 3911.17 5.99158 4.88404 0
M  V30 36334 C 3912.11 6.60234 3.96415 0
M  V30 36335 C 3911.38 7.08259 2.72856 0
M  V30 36336 O 3911.17 5.9427 1.83651 0
M  V30 36337 C 3909.98 7.64886 2.9555 0
M  V30 36338 O 3909.59 8.53963 1.90717 0
M  V30 36339 C 3909.1 6.4116 2.90739 0
M  V30 36340 C 3909.81 5.55375 1.86963 0
M  V30 36341 N 3909.76 4.09448 2.16152 0
M  V30 36342 C 3909.84 3.46824 3.37593 0
M  V30 36343 N 3909.77 2.17422 3.29777 0
M  V30 36344 C 3909.62 1.93065 1.94427 0
M  V30 36345 C 3909.49 0.738053 1.20141 0
M  V30 36346 N 3909.48 -0.474256 1.74676 0
M  V30 36347 N 3909.37 0.850049 -0.13045 0
M  V30 36348 C 3909.38 2.06169 -0.676992 0
M  V30 36349 N 3909.5 3.23842 -0.101312 0
M  V30 36350 C 3909.62 3.09402 1.23122 0
M  V30 36351 H 3912.6 7.45574 4.45629 0
M  V30 36352 H 3912.87 5.85864 3.679 0
M  V30 36353 H 3912 7.84412 2.24479 0
M  V30 36354 H 3909.34 5.73457 0.888562 0
M  V30 36355 H 3909.06 5.90877 3.88583 0
M  V30 36356 H 3908.07 6.6596 2.58858 0
M  V30 36357 H 3909.91 8.16339 3.92049 0
M  V30 36358 H 3909.95 4.00505 4.3174 0
M  V30 36359 H 3909.57 -0.581337 2.76658 0
M  V30 36360 H 3909.38 -1.30811 1.14888 0
M  V30 36361 H 3909.27 2.08295 -1.75542 0
M  V30 36362 P 3908.04 8.7635 1.60911 0
M  V30 36363 O 3907.82 10.1388 1.11561 0
M  V30 36364 O 3907.25 8.36503 2.79617 0
M  V30 36365 O 3907.79 7.71806 0.42951 0
M  V30 36366 C 3908.73 7.67148 -0.673689 0
M  V30 36367 C 3908 7.33374 -1.95559 0
M  V30 36368 O 3907.79 5.88721 -2.00726 0
M  V30 36369 C 3906.6 7.92526 -2.10483 0
M  V30 36370 O 3906.21 8.02971 -3.47653 0
M  V30 36371 C 3905.72 6.89602 -1.41652 0
M  V30 36372 C 3906.43 5.59201 -1.75185 0
M  V30 36373 N 3906.38 4.58301 -0.657969 0
M  V30 36374 H 3909.22 8.65116 -0.777161 0
M  V30 36375 H 3909.49 6.9022 -0.46725 0
M  V30 36376 H 3908.62 7.66548 -2.79458 0
M  V30 36377 H 3905.96 5.16165 -2.65183 0
M  V30 36378 H 3905.68 7.06433 -0.329384 0
M  V30 36379 H 3904.69 6.90926 -1.82021 0
M  V30 36380 H 3906.53 8.90873 -1.62657 0
M  V30 36381 P 3904.66 8.03563 -3.84925 0
M  V30 36382 O 3904.44 8.85821 -5.0569 0
M  V30 36383 O 3903.87 8.41101 -2.65469 0
M  V30 36384 O 3904.41 6.4965 -4.18908 0
M  V30 36385 C 3905.35 5.81037 -5.05421 0
M  V30 36386 C 3904.62 4.78366 -5.89277 0
M  V30 36387 O 3904.41 3.58302 -5.08433 0
M  V30 36388 C 3903.22 5.17448 -6.36119 0
M  V30 36389 O 3902.83 4.45271 -7.53232 0
M  V30 36390 C 3902.34 4.74639 -5.19936 0
M  V30 36391 C 3903.05 3.49432 -4.70418 0
M  V30 36392 N 3903 3.31776 -3.22945 0
M  V30 36393 H 3905.84 6.54213 -5.71376 0
M  V30 36394 H 3906.11 5.30492 -4.44033 0
M  V30 36395 H 3905.24 4.55889 -6.76652 0
M  V30 36396 P 3901.28 4.23843 -7.83734 0
M  V30 36397 O 3901.06 4.19407 -9.29784 0
M  V30 36398 O 3900.49 5.24426 -7.09156 0
M  V30 36399 O 3901.03 2.7935 -7.20758 0
M  V30 36400 C 3901.97 1.7299 -7.50419 0
M  V30 36401 C 3901.24 0.406376 -7.57911 0
M  V30 36402 O 3901.03 -0.0897726 -6.21935 0
M  V30 36403 C 3899.84 0.447224 -8.1878 0
M  V30 36404 O 3899.45 -0.825065 -8.71101 0
M  V30 36405 C 3898.96 0.783801 -6.99623 0
M  V30 36406 C 3899.67 0.0619192 -5.85967 0
M  V30 36407 N 3899.62 0.7859 -4.56281 0
M  V30 36408 H 3902.46 1.93423 -8.4679 0
M  V30 36409 H 3902.73 1.68181 -6.71046 0
M  V30 36410 H 3901.86 -0.289041 -8.15388 0
M  V30 36411 P 3897.9 -1.17771 -8.83182 0
M  V30 36412 O 3897.68 -2.07206 -9.98732 0
M  V30 36413 O 3897.11 0.0743816 -8.81969 0
M  V30 36414 O 3897.65 -1.97652 -7.47304 0
M  V30 36415 C 3898.59 -3.01133 -7.08783 0
M  V30 36416 C 3897.86 -4.12613 -6.37049 0
M  V30 36417 O 3897.65 -3.72827 -4.97879 0
M  V30 36418 C 3896.46 -4.45085 -6.88694 0
M  V30 36419 O 3896.07 -5.7877 -6.5624 0
M  V30 36420 C 3895.58 -3.47817 -6.12078 0
M  V30 36421 C 3896.29 -3.39414 -4.77697 0
M  V30 36422 N 3896.24 -2.04615 -4.15333 0
M  V30 36423 H 3899.08 -3.41248 -7.98759 0
M  V30 36424 H 3899.35 -2.5837 -6.41742 0
M  V30 36425 H 3898.48 -5.02657 -6.42673 0
M  V30 36426 P 3894.52 -6.144 -6.45285 0
M  V30 36427 O 3894.3 -7.54673 -6.86199 0
M  V30 36428 O 3893.73 -5.12391 -7.179 0
M  V30 36429 O 3894.27 -5.99158 -4.88404 0
M  V30 36430 C 3895.21 -6.60234 -3.96415 0
M  V30 36431 C 3894.48 -7.08259 -2.72856 0
M  V30 36432 O 3894.27 -5.9427 -1.83651 0
M  V30 36433 C 3893.08 -7.64886 -2.9555 0
M  V30 36434 O 3892.69 -8.53963 -1.90717 0
M  V30 36435 C 3892.2 -6.4116 -2.90739 0
M  V30 36436 C 3892.91 -5.55375 -1.86963 0
M  V30 36437 N 3892.86 -4.09664 -2.15742 0
M  V30 36438 H 3895.7 -7.45574 -4.45629 0
M  V30 36439 H 3895.97 -5.86232 -3.67314 0
M  V30 36440 H 3895.1 -7.84412 -2.24479 0
M  V30 36441 P 3891.14 -8.7635 -1.60911 0
M  V30 36442 O 3890.92 -10.1388 -1.11561 0
M  V30 36443 O 3890.35 -8.36503 -2.79617 0
M  V30 36444 O 3890.89 -7.71806 -0.42951 0
M  V30 36445 C 3891.83 -7.67148 0.673689 0
M  V30 36446 C 3891.1 -7.33374 1.95559 0
M  V30 36447 O 3890.89 -5.88721 2.00726 0
M  V30 36448 C 3889.7 -7.92526 2.10483 0
M  V30 36449 O 3889.31 -8.02971 3.47653 0
M  V30 36450 C 3888.82 -6.89602 1.41652 0
M  V30 36451 C 3889.53 -5.59201 1.75185 0
M  V30 36452 N 3889.48 -4.58301 0.657969 0
M  V30 36453 H 3892.32 -8.65116 0.777161 0
M  V30 36454 H 3892.59 -6.9022 0.46725 0
M  V30 36455 H 3891.72 -7.66548 2.79458 0
M  V30 36456 H 3889.07 -5.16165 2.65183 0
M  V30 36457 H 3888.79 -7.06433 0.329384 0
M  V30 36458 H 3887.79 -6.90926 1.82021 0
M  V30 36459 H 3889.63 -8.90873 1.62657 0
M  V30 36460 P 3887.76 -8.03563 3.84925 0
M  V30 36461 O 3887.54 -8.85821 5.0569 0
M  V30 36462 O 3886.97 -8.41101 2.65469 0
M  V30 36463 O 3887.51 -6.4965 4.18908 0
M  V30 36464 C 3888.45 -5.81037 5.05421 0
M  V30 36465 C 3887.72 -4.78366 5.89277 0
M  V30 36466 O 3887.51 -3.58302 5.08433 0
M  V30 36467 C 3886.32 -5.17448 6.36119 0
M  V30 36468 O 3885.93 -4.45271 7.53232 0
M  V30 36469 C 3885.44 -4.74639 5.19936 0
M  V30 36470 C 3886.15 -3.49432 4.70418 0
M  V30 36471 N 3886.1 -3.31776 3.22945 0
M  V30 36472 H 3888.94 -6.54213 5.71376 0
M  V30 36473 H 3889.21 -5.30492 4.44033 0
M  V30 36474 H 3888.34 -4.55889 6.76652 0
M  V30 36475 P 3884.38 -4.23843 7.83734 0
M  V30 36476 O 3884.16 -4.19407 9.29784 0
M  V30 36477 O 3883.59 -5.24426 7.09156 0
M  V30 36478 O 3884.13 -2.7935 7.20758 0
M  V30 36479 C 3885.07 -1.7299 7.50419 0
M  V30 36480 C 3884.34 -0.406376 7.57911 0
M  V30 36481 O 3884.13 0.0897726 6.21935 0
M  V30 36482 C 3882.94 -0.447224 8.1878 0
M  V30 36483 O 3882.55 0.825065 8.71101 0
M  V30 36484 C 3882.06 -0.783801 6.99623 0
M  V30 36485 C 3882.77 -0.0619192 5.85967 0
M  V30 36486 N 3882.72 -0.7859 4.56281 0
M  V30 36487 H 3885.56 -1.93423 8.4679 0
M  V30 36488 H 3885.83 -1.68181 6.71046 0
M  V30 36489 H 3884.96 0.289041 8.15388 0
M  V30 36490 P 3881 1.17771 8.83182 0
M  V30 36491 O 3880.78 2.07206 9.98732 0
M  V30 36492 O 3880.21 -0.0743816 8.81969 0
M  V30 36493 O 3880.75 1.97652 7.47304 0
M  V30 36494 C 3881.69 3.01055 7.08599 0
M  V30 36495 C 3880.96 4.12613 6.37049 0
M  V30 36496 O 3880.75 3.72827 4.97879 0
M  V30 36497 C 3879.56 4.45719 6.88164 0
M  V30 36498 O 3879.17 5.7877 6.5624 0
M  V30 36499 C 3878.68 3.47768 6.11991 0
M  V30 36500 C 3879.39 3.39356 4.77615 0
M  V30 36501 N 3879.34 2.04571 4.15244 0
M  V30 36502 C 3879.19 1.98587 2.78314 0
M  V30 36503 O 3879.1 2.98134 2.08835 0
M  V30 36504 N 3879.15 0.714467 2.24925 0
M  V30 36505 C 3879.24 -0.470001 2.94169 0
M  V30 36506 C 3879.39 -0.312541 4.36783 0
M  V30 36507 C 3879.44 0.914512 4.92583 0
M  V30 36508 H 3882.18 3.41169 7.98575 0
M  V30 36509 H 3882.45 2.58295 6.41556 0
M  V30 36510 H 3881.58 5.02657 6.42673 0
M  V30 36511 H 3878.93 4.11637 4.08885 0
M  V30 36512 H 3878.65 2.49626 6.61679 0
M  V30 36513 H 3877.65 3.86566 6.00778 0
M  V30 36514 H 3879.49 4.29943 7.96918 0
M  V30 36515 H 3879.56 1.00937 6.00374 0
M  V30 36516 P 3877.62 6.144 6.45285 0
M  V30 36517 O 3877.4 7.54673 6.86199 0
M  V30 36518 O 3876.83 5.12391 7.179 0
M  V30 36519 O 3877.37 5.99158 4.88404 0
M  V30 36520 C 3878.31 6.60234 3.96415 0
M  V30 36521 C 3877.58 7.08259 2.72856 0
M  V30 36522 O 3877.37 5.9427 1.83651 0
M  V30 36523 C 3876.18 7.64886 2.9555 0
M  V30 36524 O 3875.79 8.53963 1.90717 0
M  V30 36525 C 3875.3 6.4116 2.90739 0
M  V30 36526 C 3876.01 5.55375 1.86963 0
M  V30 36527 N 3875.96 4.09664 2.15742 0
M  V30 36528 H 3878.8 7.45574 4.45629 0
M  V30 36529 H 3879.07 5.86232 3.67314 0
M  V30 36530 H 3878.2 7.84412 2.24479 0
M  V30 36531 P 3874.24 8.7635 1.60911 0
M  V30 36532 O 3874.02 10.1388 1.11561 0
M  V30 36533 O 3873.45 8.36503 2.79617 0
M  V30 36534 O 3873.99 7.71806 0.42951 0
M  V30 36535 C 3874.93 7.66948 -0.673514 0
M  V30 36536 C 3874.2 7.33374 -1.95559 0
M  V30 36537 O 3873.99 5.88721 -2.00726 0
M  V30 36538 C 3872.8 7.92218 -2.1125 0
M  V30 36539 O 3872.41 8.02971 -3.47653 0
M  V30 36540 C 3871.92 6.89504 -1.41631 0
M  V30 36541 C 3872.63 5.59106 -1.75155 0
M  V30 36542 N 3872.58 4.58136 -0.662409 0
M  V30 36543 C 3872.43 3.26059 -1.02863 0
M  V30 36544 O 3872.34 2.90743 -2.19009 0
M  V30 36545 N 3872.39 2.35995 0.0155585 0
M  V30 36546 C 3872.48 2.65248 1.35603 0
M  V30 36547 C 3872.63 4.05747 1.64698 0
M  V30 36548 C 3872.68 4.96734 0.652411 0
M  V30 36549 H 3875.42 8.64917 -0.776982 0
M  V30 36550 H 3875.69 6.89974 -0.474015 0
M  V30 36551 H 3874.82 7.66548 -2.79458 0
M  V30 36552 H 3872.17 5.16076 -2.65138 0
M  V30 36553 H 3871.89 7.06433 -0.329384 0
M  V30 36554 H 3870.89 6.90829 -1.81996 0
M  V30 36555 H 3872.73 8.90774 -1.62639 0
M  V30 36556 H 3872.8 6.02181 0.895285 0
M  V30 36557 P 3870.86 8.03563 -3.84925 0
M  V30 36558 O 3870.64 8.85821 -5.0569 0
M  V30 36559 O 3870.07 8.41101 -2.65469 0
M  V30 36560 O 3870.61 6.4965 -4.18908 0
M  V30 36561 C 3871.55 5.81037 -5.05421 0
M  V30 36562 C 3870.82 4.78366 -5.89277 0
M  V30 36563 O 3870.61 3.58302 -5.08433 0
M  V30 36564 C 3869.42 5.17448 -6.36119 0
M  V30 36565 O 3869.03 4.45271 -7.53232 0
M  V30 36566 C 3868.54 4.74639 -5.19936 0
M  V30 36567 C 3869.25 3.49432 -4.70418 0
M  V30 36568 N 3869.2 3.31776 -3.22945 0
M  V30 36569 C 3869.28 4.27147 -2.23315 0
M  V30 36570 N 3869.2 3.78447 -1.02186 0
M  V30 36571 C 3869.06 2.41001 -1.21732 0
M  V30 36572 C 3868.93 1.36111 -0.27694 0
M  V30 36573 O 3868.91 1.42065 0.951767 0
M  V30 36574 N 3868.81 0.113683 -0.912949 0
M  V30 36575 C 3868.81 -0.0846396 -2.27943 0
M  V30 36576 N 3868.68 -1.34737 -2.6916 0
M  V30 36577 N 3868.94 0.902521 -3.16379 0
M  V30 36578 C 3869.06 2.11937 -2.56849 0
M  V30 36579 H 3872.04 6.54213 -5.71376 0
M  V30 36580 H 3872.31 5.30492 -4.44033 0
M  V30 36581 H 3871.44 4.55889 -6.76652 0
M  V30 36582 H 3868.79 2.6176 -5.18021 0
M  V30 36583 H 3868.51 5.52233 -4.41941 0
M  V30 36584 H 3867.51 4.52045 -5.53452 0
M  V30 36585 H 3869.35 6.25193 -6.55307 0
M  V30 36586 H 3869.4 5.3351 -2.43857 0
M  V30 36587 H 3868.72 -0.69331 -0.330371 0
M  V30 36588 H 3868.68 -1.56433 -3.6988 0
M  V30 36589 H 3868.58 -2.10701 -2.00133 0
M  V30 36590 P 3867.48 4.23843 -7.83734 0
M  V30 36591 O 3867.26 4.19407 -9.29784 0
M  V30 36592 O 3866.69 5.24426 -7.09156 0
M  V30 36593 O 3867.23 2.7935 -7.20758 0
M  V30 36594 C 3868.17 1.7299 -7.50419 0
M  V30 36595 C 3867.44 0.406376 -7.57911 0
M  V30 36596 O 3867.23 -0.0897726 -6.21935 0
M  V30 36597 C 3866.04 0.447224 -8.1878 0
M  V30 36598 O 3865.65 -0.825065 -8.71101 0
M  V30 36599 C 3865.16 0.783801 -6.99623 0
M  V30 36600 C 3865.87 0.0619192 -5.85967 0
M  V30 36601 N 3865.82 0.7859 -4.56281 0
M  V30 36602 H 3868.66 1.93423 -8.4679 0
M  V30 36603 H 3868.93 1.68181 -6.71046 0
M  V30 36604 H 3868.06 -0.289041 -8.15388 0
M  V30 36605 P 3864.1 -1.17771 -8.83182 0
M  V30 36606 O 3863.88 -2.07206 -9.98732 0
M  V30 36607 O 3863.31 0.0743816 -8.81969 0
M  V30 36608 O 3863.85 -1.97652 -7.47304 0
M  V30 36609 C 3864.79 -3.01133 -7.08783 0
M  V30 36610 C 3864.06 -4.12613 -6.37049 0
M  V30 36611 O 3863.85 -3.72827 -4.97879 0
M  V30 36612 C 3862.66 -4.45085 -6.88694 0
M  V30 36613 O 3862.27 -5.7877 -6.5624 0
M  V30 36614 C 3861.78 -3.47817 -6.12078 0
M  V30 36615 C 3862.49 -3.39414 -4.77697 0
M  V30 36616 N 3862.44 -2.04615 -4.15333 0
M  V30 36617 H 3865.28 -3.41248 -7.98759 0
M  V30 36618 H 3865.55 -2.5837 -6.41742 0
M  V30 36619 H 3864.68 -5.02657 -6.42673 0
M  V30 36620 P 3860.72 -6.144 -6.45285 0
M  V30 36621 O 3860.5 -7.54673 -6.86199 0
M  V30 36622 O 3859.93 -5.12391 -7.179 0
M  V30 36623 O 3860.47 -5.99158 -4.88404 0
M  V30 36624 C 3861.41 -6.60234 -3.96415 0
M  V30 36625 C 3860.68 -7.08259 -2.72856 0
M  V30 36626 O 3860.47 -5.9427 -1.83651 0
M  V30 36627 C 3859.28 -7.64886 -2.9555 0
M  V30 36628 O 3858.89 -8.53963 -1.90717 0
M  V30 36629 C 3858.4 -6.4116 -2.90739 0
M  V30 36630 C 3859.11 -5.55375 -1.86963 0
M  V30 36631 N 3859.06 -4.09448 -2.16152 0
M  V30 36632 H 3861.9 -7.45574 -4.45629 0
M  V30 36633 H 3862.17 -5.85864 -3.679 0
M  V30 36634 H 3861.3 -7.84412 -2.24479 0
M  V30 36635 H 3858.65 -5.73457 -0.888562 0
M  V30 36636 H 3858.37 -5.90877 -3.88583 0
M  V30 36637 H 3857.37 -6.6596 -2.58858 0
M  V30 36638 H 3859.21 -8.16339 -3.92049 0
M  V30 36639 P 3857.34 -8.7635 -1.60911 0
M  V30 36640 O 3857.12 -10.1388 -1.11561 0
M  V30 36641 O 3856.55 -8.36503 -2.79617 0
M  V30 36642 O 3857.09 -7.71806 -0.42951 0
M  V30 36643 C 3858.03 -7.67148 0.673689 0
M  V30 36644 C 3857.3 -7.33374 1.95559 0
M  V30 36645 O 3857.09 -5.88721 2.00726 0
M  V30 36646 C 3855.9 -7.92526 2.10483 0
M  V30 36647 O 3855.51 -8.02971 3.47653 0
M  V30 36648 C 3855.02 -6.89602 1.41652 0
M  V30 36649 C 3855.73 -5.59201 1.75185 0
M  V30 36650 N 3855.68 -4.58301 0.657969 0
M  V30 36651 H 3858.52 -8.65116 0.777161 0
M  V30 36652 H 3858.79 -6.9022 0.46725 0
M  V30 36653 H 3857.92 -7.66548 2.79458 0
M  V30 36654 H 3855.27 -5.16165 2.65183 0
M  V30 36655 H 3854.99 -7.06433 0.329384 0
M  V30 36656 H 3853.99 -6.90926 1.82021 0
M  V30 36657 H 3855.83 -8.90873 1.62657 0
M  V30 36658 P 3853.96 -8.03563 3.84925 0
M  V30 36659 O 3853.74 -8.85821 5.0569 0
M  V30 36660 O 3853.17 -8.41101 2.65469 0
M  V30 36661 O 3853.71 -6.4965 4.18908 0
M  V30 36662 C 3854.65 -5.81037 5.05421 0
M  V30 36663 C 3853.92 -4.78366 5.89277 0
M  V30 36664 O 3853.71 -3.58302 5.08433 0
M  V30 36665 C 3852.52 -5.17448 6.36119 0
M  V30 36666 O 3852.13 -4.45271 7.53232 0
M  V30 36667 C 3851.64 -4.74639 5.19936 0
M  V30 36668 C 3852.35 -3.49432 4.70418 0
M  V30 36669 N 3852.3 -3.32099 3.22613 0
M  V30 36670 H 3855.14 -6.54213 5.71376 0
M  V30 36671 H 3855.41 -5.30936 4.43503 0
M  V30 36672 H 3854.54 -4.55889 6.76652 0
M  V30 36673 H 3851.89 -2.61715 5.17932 0
M  V30 36674 H 3851.61 -5.52155 4.41878 0
M  V30 36675 H 3850.61 -4.51981 5.53374 0
M  V30 36676 H 3852.45 -6.25124 6.55234 0
M  V30 36677 P 3850.58 -4.23843 7.83734 0
M  V30 36678 O 3850.36 -4.19407 9.29784 0
M  V30 36679 O 3849.79 -5.24426 7.09156 0
M  V30 36680 O 3850.33 -2.7935 7.20758 0
M  V30 36681 C 3851.27 -1.7299 7.50419 0
M  V30 36682 C 3850.54 -0.406376 7.57911 0
M  V30 36683 O 3850.33 0.0897726 6.21935 0
M  V30 36684 C 3849.14 -0.447224 8.1878 0
M  V30 36685 O 3848.75 0.825065 8.71101 0
M  V30 36686 C 3848.26 -0.783801 6.99623 0
M  V30 36687 C 3848.97 -0.0619192 5.85967 0
M  V30 36688 N 3848.92 -0.7859 4.56281 0
M  V30 36689 H 3851.76 -1.93423 8.4679 0
M  V30 36690 H 3852.03 -1.68181 6.71046 0
M  V30 36691 H 3851.16 0.289041 8.15388 0
M  V30 36692 P 3847.2 1.17771 8.83182 0
M  V30 36693 O 3846.98 2.07206 9.98732 0
M  V30 36694 O 3846.41 -0.0743816 8.81969 0
M  V30 36695 O 3846.95 1.97652 7.47304 0
M  V30 36696 C 3847.89 3.01133 7.08783 0
M  V30 36697 C 3847.16 4.12613 6.37049 0
M  V30 36698 O 3846.95 3.72827 4.97879 0
M  V30 36699 C 3845.76 4.45085 6.88694 0
M  V30 36700 O 3845.37 5.7877 6.5624 0
M  V30 36701 C 3844.88 3.47817 6.12078 0
M  V30 36702 C 3845.59 3.39414 4.77697 0
M  V30 36703 N 3845.54 2.04199 4.15538 0
M  V30 36704 H 3848.38 3.41248 7.98759 0
M  V30 36705 H 3848.65 2.57728 6.42 0
M  V30 36706 H 3847.78 5.02657 6.42673 0
M  V30 36707 H 3845.13 4.11708 4.08956 0
M  V30 36708 H 3844.85 2.49626 6.61679 0
M  V30 36709 H 3843.85 3.8662 6.00862 0
M  V30 36710 H 3845.69 4.29991 7.97006 0
M  V30 36711 P 3843.82 6.144 6.45285 0
M  V30 36712 O 3843.6 7.54673 6.86199 0
M  V30 36713 O 3843.03 5.12391 7.179 0
M  V30 36714 O 3843.57 5.99158 4.88404 0
M  V30 36715 C 3844.51 6.60234 3.96415 0
M  V30 36716 C 3843.78 7.08259 2.72856 0
M  V30 36717 O 3843.57 5.9427 1.83651 0
M  V30 36718 C 3842.38 7.64886 2.9555 0
M  V30 36719 O 3841.99 8.53963 1.90717 0
M  V30 36720 C 3841.5 6.4116 2.90739 0
M  V30 36721 C 3842.21 5.55375 1.86963 0
M  V30 36722 N 3842.16 4.09448 2.16152 0
M  V30 36723 C 3842.24 3.46824 3.37593 0
M  V30 36724 N 3842.17 2.17422 3.29777 0
M  V30 36725 C 3842.02 1.93065 1.94427 0
M  V30 36726 C 3841.89 0.738053 1.20141 0
M  V30 36727 N 3841.88 -0.474256 1.74676 0
M  V30 36728 N 3841.77 0.850049 -0.13045 0
M  V30 36729 C 3841.78 2.06169 -0.676992 0
M  V30 36730 N 3841.9 3.23842 -0.101312 0
M  V30 36731 C 3842.02 3.09402 1.23122 0
M  V30 36732 H 3845 7.45574 4.45629 0
M  V30 36733 H 3845.27 5.85864 3.679 0
M  V30 36734 H 3844.4 7.84412 2.24479 0
M  V30 36735 H 3841.75 5.73457 0.888562 0
M  V30 36736 H 3841.47 5.90877 3.88583 0
M  V30 36737 H 3840.47 6.6596 2.58858 0
M  V30 36738 H 3842.31 8.16339 3.92049 0
M  V30 36739 H 3842.35 4.00505 4.3174 0
M  V30 36740 H 3841.97 -0.581337 2.76658 0
M  V30 36741 H 3841.78 -1.30811 1.14888 0
M  V30 36742 H 3841.67 2.08295 -1.75542 0
M  V30 36743 P 3840.44 8.7635 1.60911 0
M  V30 36744 O 3840.22 10.1388 1.11561 0
M  V30 36745 O 3839.65 8.36503 2.79617 0
M  V30 36746 O 3840.19 7.71806 0.42951 0
M  V30 36747 C 3841.13 7.67148 -0.673689 0
M  V30 36748 C 3840.4 7.33374 -1.95559 0
M  V30 36749 O 3840.19 5.88721 -2.00726 0
M  V30 36750 C 3839 7.92526 -2.10483 0
M  V30 36751 O 3838.61 8.02971 -3.47653 0
M  V30 36752 C 3838.12 6.89602 -1.41652 0
M  V30 36753 C 3838.83 5.59201 -1.75185 0
M  V30 36754 N 3838.78 4.58235 -0.662552 0
M  V30 36755 H 3841.62 8.65116 -0.777161 0
M  V30 36756 H 3841.89 6.90173 -0.474152 0
M  V30 36757 H 3841.02 7.66548 -2.79458 0
M  V30 36758 P 3837.06 8.03563 -3.84925 0
M  V30 36759 O 3836.84 8.85821 -5.0569 0
M  V30 36760 O 3836.27 8.41101 -2.65469 0
M  V30 36761 O 3836.81 6.4965 -4.18908 0
M  V30 36762 C 3837.75 5.81037 -5.05421 0
M  V30 36763 C 3837.02 4.78366 -5.89277 0
M  V30 36764 O 3836.81 3.58302 -5.08433 0
M  V30 36765 C 3835.62 5.17448 -6.36119 0
M  V30 36766 O 3835.23 4.45271 -7.53232 0
M  V30 36767 C 3834.74 4.74639 -5.19936 0
M  V30 36768 C 3835.45 3.49432 -4.70418 0
M  V30 36769 N 3835.4 3.31776 -3.22945 0
M  V30 36770 C 3835.48 4.27147 -2.23315 0
M  V30 36771 N 3835.4 3.78447 -1.02186 0
M  V30 36772 C 3835.26 2.41001 -1.21732 0
M  V30 36773 C 3835.13 1.36111 -0.27694 0
M  V30 36774 N 3835.01 0.113683 -0.912949 0
M  V30 36775 C 3835.01 -0.0846396 -2.27943 0
M  V30 36776 N 3834.88 -1.34737 -2.6916 0
M  V30 36777 N 3835.14 0.902521 -3.16379 0
M  V30 36778 C 3835.26 2.11937 -2.56849 0
M  V30 36779 H 3838.24 6.54213 -5.71376 0
M  V30 36780 H 3838.51 5.30492 -4.44033 0
M  V30 36781 H 3837.64 4.55889 -6.76652 0
M  V30 36782 P 3833.68 4.23843 -7.83734 0
M  V30 36783 O 3833.46 4.19407 -9.29784 0
M  V30 36784 O 3832.89 5.24426 -7.09156 0
M  V30 36785 O 3833.43 2.7935 -7.20758 0
M  V30 36786 C 3834.37 1.7299 -7.50419 0
M  V30 36787 C 3833.64 0.406376 -7.57911 0
M  V30 36788 O 3833.43 -0.0897726 -6.21935 0
M  V30 36789 C 3832.24 0.447224 -8.1878 0
M  V30 36790 O 3831.85 -0.825065 -8.71101 0
M  V30 36791 C 3831.36 0.783801 -6.99623 0
M  V30 36792 C 3832.07 0.0619192 -5.85967 0
M  V30 36793 N 3832.02 0.7859 -4.56281 0
M  V30 36794 H 3834.86 1.93423 -8.4679 0
M  V30 36795 H 3835.13 1.68181 -6.71046 0
M  V30 36796 H 3834.26 -0.289041 -8.15388 0
M  V30 36797 P 3830.3 -1.17771 -8.83182 0
M  V30 36798 O 3830.08 -2.07206 -9.98732 0
M  V30 36799 O 3829.51 0.0743816 -8.81969 0
M  V30 36800 O 3830.05 -1.97652 -7.47304 0
M  V30 36801 C 3830.99 -3.01133 -7.08783 0
M  V30 36802 C 3830.26 -4.12613 -6.37049 0
M  V30 36803 O 3830.05 -3.72827 -4.97879 0
M  V30 36804 C 3828.86 -4.45085 -6.88694 0
M  V30 36805 O 3828.47 -5.7877 -6.5624 0
M  V30 36806 C 3827.98 -3.47817 -6.12078 0
M  V30 36807 C 3828.69 -3.39414 -4.77697 0
M  V30 36808 N 3828.64 -2.04615 -4.15333 0
M  V30 36809 H 3831.48 -3.41248 -7.98759 0
M  V30 36810 H 3831.75 -2.5837 -6.41742 0
M  V30 36811 H 3830.88 -5.02657 -6.42673 0
M  V30 36812 P 3826.92 -6.144 -6.45285 0
M  V30 36813 O 3826.7 -7.54673 -6.86199 0
M  V30 36814 O 3826.13 -5.12391 -7.179 0
M  V30 36815 O 3826.67 -5.99158 -4.88404 0
M  V30 36816 C 3827.61 -6.60234 -3.96415 0
M  V30 36817 C 3826.88 -7.08259 -2.72856 0
M  V30 36818 O 3826.67 -5.9427 -1.83651 0
M  V30 36819 C 3825.48 -7.64886 -2.9555 0
M  V30 36820 O 3825.09 -8.53963 -1.90717 0
M  V30 36821 C 3824.6 -6.4116 -2.90739 0
M  V30 36822 C 3825.31 -5.55375 -1.86963 0
M  V30 36823 N 3825.26 -4.09664 -2.15742 0
M  V30 36824 H 3828.1 -7.45574 -4.45629 0
M  V30 36825 H 3828.37 -5.86232 -3.67314 0
M  V30 36826 H 3827.5 -7.84412 -2.24479 0
M  V30 36827 P 3823.54 -8.7635 -1.60911 0
M  V30 36828 O 3823.32 -10.1388 -1.11561 0
M  V30 36829 O 3822.75 -8.36503 -2.79617 0
M  V30 36830 O 3823.29 -7.71806 -0.42951 0
M  V30 36831 C 3824.23 -7.67148 0.673689 0
M  V30 36832 C 3823.5 -7.33374 1.95559 0
M  V30 36833 O 3823.29 -5.88721 2.00726 0
M  V30 36834 C 3822.1 -7.92526 2.10483 0
M  V30 36835 O 3821.71 -8.02971 3.47653 0
M  V30 36836 C 3821.22 -6.89602 1.41652 0
M  V30 36837 C 3821.93 -5.59201 1.75185 0
M  V30 36838 N 3821.88 -4.58235 0.662552 0
M  V30 36839 H 3824.72 -8.65116 0.777161 0
M  V30 36840 H 3824.99 -6.90173 0.474152 0
M  V30 36841 H 3824.12 -7.66548 2.79458 0
M  V30 36842 P 3820.16 -8.03563 3.84925 0
M  V30 36843 O 3819.94 -8.85821 5.0569 0
M  V30 36844 O 3819.37 -8.41101 2.65469 0
M  V30 36845 O 3819.91 -6.4965 4.18908 0
M  V30 36846 C 3820.85 -5.81037 5.05421 0
M  V30 36847 C 3820.12 -4.78366 5.89277 0
M  V30 36848 O 3819.91 -3.58302 5.08433 0
M  V30 36849 C 3818.72 -5.17448 6.36119 0
M  V30 36850 O 3818.33 -4.45271 7.53232 0
M  V30 36851 C 3817.84 -4.74639 5.19936 0
M  V30 36852 C 3818.55 -3.49432 4.70418 0
M  V30 36853 N 3818.5 -3.32099 3.22613 0
M  V30 36854 H 3821.34 -6.54213 5.71376 0
M  V30 36855 H 3821.61 -5.30936 4.43503 0
M  V30 36856 H 3820.74 -4.55889 6.76652 0
M  V30 36857 H 3818.09 -2.61715 5.17932 0
M  V30 36858 H 3817.81 -5.52155 4.41878 0
M  V30 36859 H 3816.81 -4.51981 5.53374 0
M  V30 36860 H 3818.65 -6.25124 6.55234 0
M  V30 36861 P 3816.78 -4.23843 7.83734 0
M  V30 36862 O 3816.56 -4.19407 9.29784 0
M  V30 36863 O 3815.99 -5.24426 7.09156 0
M  V30 36864 O 3816.53 -2.7935 7.20758 0
M  V30 36865 C 3817.47 -1.7299 7.50419 0
M  V30 36866 C 3816.74 -0.406376 7.57911 0
M  V30 36867 O 3816.53 0.0897726 6.21935 0
M  V30 36868 C 3815.34 -0.447224 8.1878 0
M  V30 36869 O 3814.95 0.825065 8.71101 0
M  V30 36870 C 3814.46 -0.783801 6.99623 0
M  V30 36871 C 3815.17 -0.0619192 5.85967 0
M  V30 36872 N 3815.12 -0.7859 4.56281 0
M  V30 36873 H 3817.96 -1.93423 8.4679 0
M  V30 36874 H 3818.23 -1.68181 6.71046 0
M  V30 36875 H 3817.36 0.289041 8.15388 0
M  V30 36876 P 3813.4 1.17771 8.83182 0
M  V30 36877 O 3813.18 2.07206 9.98732 0
M  V30 36878 O 3812.61 -0.0743816 8.81969 0
M  V30 36879 O 3813.15 1.97652 7.47304 0
M  V30 36880 C 3814.09 3.01133 7.08783 0
M  V30 36881 C 3813.36 4.12613 6.37049 0
M  V30 36882 O 3813.15 3.72827 4.97879 0
M  V30 36883 C 3811.96 4.45085 6.88694 0
M  V30 36884 O 3811.57 5.7877 6.5624 0
M  V30 36885 C 3811.08 3.47817 6.12078 0
M  V30 36886 C 3811.79 3.39414 4.77697 0
M  V30 36887 N 3811.74 2.04615 4.15333 0
M  V30 36888 H 3814.58 3.41248 7.98759 0
M  V30 36889 H 3814.85 2.5837 6.41742 0
M  V30 36890 H 3813.98 5.02657 6.42673 0
M  V30 36891 P 3810.02 6.144 6.45285 0
M  V30 36892 O 3809.8 7.54673 6.86199 0
M  V30 36893 O 3809.23 5.12391 7.179 0
M  V30 36894 O 3809.77 5.99158 4.88404 0
M  V30 36895 C 3810.71 6.60234 3.96415 0
M  V30 36896 C 3809.98 7.08259 2.72856 0
M  V30 36897 O 3809.77 5.9427 1.83651 0
M  V30 36898 C 3808.58 7.64886 2.9555 0
M  V30 36899 O 3808.19 8.53963 1.90717 0
M  V30 36900 C 3807.7 6.4116 2.90739 0
M  V30 36901 C 3808.41 5.55375 1.86963 0
M  V30 36902 N 3808.36 4.09664 2.15742 0
M  V30 36903 C 3808.44 3.44381 3.37233 0
M  V30 36904 N 3808.36 2.14131 3.28347 0
M  V30 36905 C 3808.22 1.90247 1.91588 0
M  V30 36906 C 3808.09 0.683992 1.20892 0
M  V30 36907 N 3807.97 0.903396 -0.173998 0
M  V30 36908 C 3807.97 2.14171 -0.784879 0
M  V30 36909 N 3807.84 2.1435 -2.11317 0
M  V30 36910 N 3808.1 3.28784 -0.119316 0
M  V30 36911 C 3808.22 3.0977 1.22194 0
M  V30 36912 H 3811.2 7.45574 4.45629 0
M  V30 36913 H 3811.47 5.86232 3.67314 0
M  V30 36914 H 3810.6 7.84412 2.24479 0
M  V30 36915 P 3806.64 8.7635 1.60911 0
M  V30 36916 O 3806.42 10.1388 1.11561 0
M  V30 36917 O 3805.85 8.36503 2.79617 0
M  V30 36918 O 3806.39 7.71806 0.42951 0
M  V30 36919 C 3807.33 7.67148 -0.673689 0
M  V30 36920 C 3806.6 7.33374 -1.95559 0
M  V30 36921 O 3806.39 5.88721 -2.00726 0
M  V30 36922 C 3805.2 7.92526 -2.10483 0
M  V30 36923 O 3804.81 8.02971 -3.47653 0
M  V30 36924 C 3804.32 6.89602 -1.41652 0
M  V30 36925 C 3805.03 5.59201 -1.75185 0
M  V30 36926 N 3804.98 4.58235 -0.662552 0
M  V30 36927 H 3807.82 8.65116 -0.777161 0
M  V30 36928 H 3808.09 6.90173 -0.474152 0
M  V30 36929 H 3807.22 7.66548 -2.79458 0
M  V30 36930 P 3803.26 8.03563 -3.84925 0
M  V30 36931 O 3803.04 8.85821 -5.0569 0
M  V30 36932 O 3802.47 8.41101 -2.65469 0
M  V30 36933 O 3803.01 6.4965 -4.18908 0
M  V30 36934 C 3803.95 5.81037 -5.05421 0
M  V30 36935 C 3803.22 4.78366 -5.89277 0
M  V30 36936 O 3803.01 3.58302 -5.08433 0
M  V30 36937 C 3801.82 5.17448 -6.36119 0
M  V30 36938 O 3801.43 4.45271 -7.53232 0
M  V30 36939 C 3800.94 4.74639 -5.19936 0
M  V30 36940 C 3801.65 3.49432 -4.70418 0
M  V30 36941 N 3801.6 3.31776 -3.22945 0
M  V30 36942 H 3804.44 6.54213 -5.71376 0
M  V30 36943 H 3804.71 5.30492 -4.44033 0
M  V30 36944 H 3803.84 4.55889 -6.76652 0
M  V30 36945 P 3799.88 4.23843 -7.83734 0
M  V30 36946 O 3799.66 4.19407 -9.29784 0
M  V30 36947 O 3799.09 5.24426 -7.09156 0
M  V30 36948 O 3799.63 2.7935 -7.20758 0
M  V30 36949 C 3800.57 1.7299 -7.50419 0
M  V30 36950 C 3799.84 0.406376 -7.57911 0
M  V30 36951 O 3799.63 -0.0897726 -6.21935 0
M  V30 36952 C 3798.44 0.447224 -8.1878 0
M  V30 36953 O 3798.05 -0.825065 -8.71101 0
M  V30 36954 C 3797.56 0.783801 -6.99623 0
M  V30 36955 C 3798.27 0.0619192 -5.85967 0
M  V30 36956 N 3798.22 0.790462 -4.56202 0
M  V30 36957 C 3798.3 2.13895 -4.34171 0
M  V30 36958 N 3798.23 2.46449 -3.08687 0
M  V30 36959 C 3798.08 1.2525 -2.43697 0
M  V30 36960 C 3797.95 0.914535 -1.07318 0
M  V30 36961 N 3797.94 1.80782 -0.0887348 0
M  V30 36962 N 3797.83 -0.386745 -0.768133 0
M  V30 36963 C 3797.84 -1.28096 -1.75159 0
M  V30 36964 N 3797.96 -1.09708 -3.04861 0
M  V30 36965 C 3798.08 0.214857 -3.32306 0
M  V30 36966 H 3801.06 1.93423 -8.4679 0
M  V30 36967 H 3801.33 1.68852 -6.70877 0
M  V30 36968 H 3800.46 -0.289041 -8.15388 0
M  V30 36969 H 3797.81 -0.927006 -5.72848 0
M  V30 36970 H 3797.53 1.86973 -6.82036 0
M  V30 36971 H 3796.53 0.403953 -7.13357 0
M  V30 36972 H 3798.37 1.20599 -8.97534 0
M  V30 36973 H 3798.41 2.86846 -5.14318 0
M  V30 36974 H 3798.03 2.81082 -0.302037 0
M  V30 36975 H 3797.84 1.49688 0.889064 0
M  V30 36976 H 3797.73 -2.31317 -1.43855 0
M  V30 36977 P 3796.5 -1.17771 -8.83182 0
M  V30 36978 O 3796.28 -2.07206 -9.98732 0
M  V30 36979 O 3795.71 0.0743816 -8.81969 0
M  V30 36980 O 3796.25 -1.97652 -7.47304 0
M  V30 36981 C 3797.19 -3.01133 -7.08783 0
M  V30 36982 C 3796.46 -4.12613 -6.37049 0
M  V30 36983 O 3796.25 -3.72827 -4.97879 0
M  V30 36984 C 3795.06 -4.45085 -6.88694 0
M  V30 36985 O 3794.67 -5.7877 -6.5624 0
M  V30 36986 C 3794.18 -3.47817 -6.12078 0
M  V30 36987 C 3794.89 -3.39414 -4.77697 0
M  V30 36988 N 3794.84 -2.04615 -4.15333 0
M  V30 36989 H 3797.68 -3.41248 -7.98759 0
M  V30 36990 H 3797.95 -2.5837 -6.41742 0
M  V30 36991 H 3797.08 -5.02657 -6.42673 0
M  V30 36992 P 3793.12 -6.144 -6.45285 0
M  V30 36993 O 3792.9 -7.54673 -6.86199 0
M  V30 36994 O 3792.33 -5.12391 -7.179 0
M  V30 36995 O 3792.87 -5.99236 -4.88467 0
M  V30 36996 C 3793.81 -6.60234 -3.96415 0
M  V30 36997 C 3793.08 -7.08079 -2.736 0
M  V30 36998 O 3792.87 -5.94365 -1.8368 0
M  V30 36999 C 3791.68 -7.64886 -2.9555 0
M  V30 37000 O 3791.29 -8.5406 -1.90739 0
M  V30 37001 C 3790.8 -6.4116 -2.90739 0
M  V30 37002 C 3791.51 -5.55375 -1.86963 0
M  V30 37003 N 3791.46 -4.09664 -2.15742 0
M  V30 37004 C 3791.31 -3.22231 -1.08477 0
M  V30 37005 O 3791.22 -3.68951 0.0600489 0
M  V30 37006 N 3791.26 -1.76692 -1.48799 0
M  V30 37007 C 3791.36 -1.41695 -2.57602 0
M  V30 37008 N 3791.31 -0.107296 -2.75791 0
M  V30 37009 C 3791.51 -2.29178 -3.69733 0
M  V30 37010 C 3791.56 -3.62753 -3.42653 0
M  V30 37011 H 3794.3 -7.45488 -4.45578 0
M  V30 37012 H 3794.57 -5.86232 -3.67314 0
M  V30 37013 H 3793.7 -7.84508 -2.24507 0
M  V30 37014 H 3791.05 -5.73556 -0.888715 0
M  V30 37015 H 3790.77 -5.9096 -3.88638 0
M  V30 37016 H 3789.77 -6.66053 -2.58894 0
M  V30 37017 H 3791.61 -8.16339 -3.92049 0
M  V30 37018 H 3791.68 -4.33052 -4.24913 0
M  V30 37019 H 3791.58 -1.9103 -4.71577 0
M  V30 37020 H 3791.19 0.521221 -1.95056 0
M  V30 37021 H 3791.39 0.286429 -3.70695 0
M  V30 37022 P 3789.74 -8.7635 -1.60911 0
M  V30 37023 O 3789.52 -10.1388 -1.11561 0
M  V30 37024 O 3788.95 -8.36503 -2.79617 0
M  V30 37025 O 3789.49 -7.71806 -0.42951 0
M  V30 37026 C 3790.43 -7.67148 0.673689 0
M  V30 37027 C 3789.7 -7.33374 1.95559 0
M  V30 37028 O 3789.49 -5.88721 2.00726 0
M  V30 37029 C 3788.3 -7.92526 2.10483 0
M  V30 37030 O 3787.91 -8.02971 3.47653 0
M  V30 37031 C 3787.42 -6.89602 1.41652 0
M  V30 37032 C 3788.13 -5.59201 1.75185 0
M  V30 37033 N 3788.08 -4.58301 0.657969 0
M  V30 37034 H 3790.92 -8.65116 0.777161 0
M  V30 37035 H 3791.19 -6.9022 0.46725 0
M  V30 37036 H 3790.32 -7.66548 2.79458 0
M  V30 37037 H 3787.67 -5.16165 2.65183 0
M  V30 37038 H 3787.39 -7.06433 0.329384 0
M  V30 37039 H 3786.39 -6.90926 1.82021 0
M  V30 37040 H 3788.23 -8.90873 1.62657 0
M  V30 37041 P 3786.36 -8.03563 3.84925 0
M  V30 37042 O 3786.14 -8.85821 5.0569 0
M  V30 37043 O 3785.57 -8.41101 2.65469 0
M  V30 37044 O 3786.11 -6.4965 4.18908 0
M  V30 37045 C 3787.05 -5.81037 5.05421 0
M  V30 37046 C 3786.32 -4.78366 5.89277 0
M  V30 37047 O 3786.11 -3.58302 5.08433 0
M  V30 37048 C 3784.92 -5.17448 6.36119 0
M  V30 37049 O 3784.53 -4.45271 7.53232 0
M  V30 37050 C 3784.04 -4.74639 5.19936 0
M  V30 37051 C 3784.75 -3.49432 4.70418 0
M  V30 37052 N 3784.7 -3.32099 3.22613 0
M  V30 37053 H 3787.54 -6.54213 5.71376 0
M  V30 37054 H 3787.81 -5.30936 4.43503 0
M  V30 37055 H 3786.94 -4.55889 6.76652 0
M  V30 37056 H 3784.29 -2.61715 5.17932 0
M  V30 37057 H 3784.01 -5.52155 4.41878 0
M  V30 37058 H 3783.01 -4.51981 5.53374 0
M  V30 37059 H 3784.85 -6.25124 6.55234 0
M  V30 37060 P 3782.98 -4.23843 7.83734 0
M  V30 37061 O 3782.76 -4.19407 9.29784 0
M  V30 37062 O 3782.19 -5.24426 7.09156 0
M  V30 37063 O 3782.73 -2.7935 7.20758 0
M  V30 37064 C 3783.67 -1.7299 7.50419 0
M  V30 37065 C 3782.94 -0.406376 7.57911 0
M  V30 37066 O 3782.73 0.0897726 6.21935 0
M  V30 37067 C 3781.54 -0.447224 8.1878 0
M  V30 37068 O 3781.15 0.825065 8.71101 0
M  V30 37069 C 3780.66 -0.783801 6.99623 0
M  V30 37070 C 3781.37 -0.0619192 5.85967 0
M  V30 37071 N 3781.32 -0.790462 4.56202 0
M  V30 37072 C 3781.4 -2.13895 4.34171 0
M  V30 37073 N 3781.33 -2.46449 3.08687 0
M  V30 37074 C 3781.18 -1.2525 2.43697 0
M  V30 37075 C 3781.05 -0.914535 1.07318 0
M  V30 37076 N 3781.04 -1.80782 0.0887348 0
M  V30 37077 N 3780.93 0.386745 0.768133 0
M  V30 37078 C 3780.94 1.28096 1.75159 0
M  V30 37079 N 3781.06 1.09708 3.04861 0
M  V30 37080 C 3781.18 -0.214857 3.32306 0
M  V30 37081 H 3784.16 -1.93423 8.4679 0
M  V30 37082 H 3784.43 -1.68852 6.70877 0
M  V30 37083 H 3783.56 0.289041 8.15388 0
M  V30 37084 H 3780.91 0.927006 5.72848 0
M  V30 37085 H 3780.63 -1.86973 6.82036 0
M  V30 37086 H 3779.63 -0.403953 7.13357 0
M  V30 37087 H 3781.47 -1.20599 8.97534 0
M  V30 37088 H 3781.51 -2.86846 5.14318 0
M  V30 37089 H 3781.13 -2.81082 0.302037 0
M  V30 37090 H 3780.94 -1.49688 -0.889064 0
M  V30 37091 H 3780.83 2.31317 1.43855 0
M  V30 37092 P 3779.6 1.17771 8.83182 0
M  V30 37093 O 3779.38 2.07206 9.98732 0
M  V30 37094 O 3778.81 -0.0743816 8.81969 0
M  V30 37095 O 3779.35 1.97652 7.47304 0
M  V30 37096 C 3780.29 3.01133 7.08783 0
M  V30 37097 C 3779.56 4.12613 6.37049 0
M  V30 37098 O 3779.35 3.72827 4.97879 0
M  V30 37099 C 3778.16 4.45085 6.88694 0
M  V30 37100 O 3777.77 5.7877 6.5624 0
M  V30 37101 C 3777.28 3.47817 6.12078 0
M  V30 37102 C 3777.99 3.39414 4.77697 0
M  V30 37103 N 3777.94 2.04615 4.15333 0
M  V30 37104 H 3780.78 3.41248 7.98759 0
M  V30 37105 H 3781.05 2.5837 6.41742 0
M  V30 37106 H 3780.18 5.02657 6.42673 0
M  V30 37107 P 3776.22 6.144 6.45285 0
M  V30 37108 O 3776 7.54673 6.86199 0
M  V30 37109 O 3775.43 5.12391 7.179 0
M  V30 37110 O 3775.97 5.99158 4.88404 0
M  V30 37111 C 3776.91 6.60234 3.96415 0
M  V30 37112 C 3776.18 7.08259 2.72856 0
M  V30 37113 O 3775.97 5.9427 1.83651 0
M  V30 37114 C 3774.78 7.64886 2.9555 0
M  V30 37115 O 3774.39 8.53963 1.90717 0
M  V30 37116 C 3773.9 6.4116 2.90739 0
M  V30 37117 C 3774.61 5.55375 1.86963 0
M  V30 37118 N 3774.56 4.09448 2.16152 0
M  V30 37119 H 3777.4 7.45574 4.45629 0
M  V30 37120 H 3777.67 5.85864 3.679 0
M  V30 37121 H 3776.8 7.84412 2.24479 0
M  V30 37122 H 3774.15 5.73457 0.888562 0
M  V30 37123 H 3773.87 5.90877 3.88583 0
M  V30 37124 H 3772.87 6.6596 2.58858 0
M  V30 37125 H 3774.71 8.16339 3.92049 0
M  V30 37126 P 3772.84 8.7635 1.60911 0
M  V30 37127 O 3772.62 10.1388 1.11561 0
M  V30 37128 O 3772.05 8.36503 2.79617 0
M  V30 37129 O 3772.59 7.71806 0.42951 0
M  V30 37130 C 3773.53 7.67148 -0.673689 0
M  V30 37131 C 3772.8 7.33374 -1.95559 0
M  V30 37132 O 3772.59 5.88721 -2.00726 0
M  V30 37133 C 3771.4 7.92526 -2.10483 0
M  V30 37134 O 3771.01 8.02971 -3.47653 0
M  V30 37135 C 3770.52 6.89602 -1.41652 0
M  V30 37136 C 3771.23 5.59201 -1.75185 0
M  V30 37137 N 3771.18 4.58301 -0.657969 0
M  V30 37138 H 3774.02 8.65116 -0.777161 0
M  V30 37139 H 3774.29 6.9022 -0.46725 0
M  V30 37140 H 3773.42 7.66548 -2.79458 0
M  V30 37141 H 3770.77 5.16165 -2.65183 0
M  V30 37142 H 3770.49 7.06433 -0.329384 0
M  V30 37143 H 3769.49 6.90926 -1.82021 0
M  V30 37144 H 3771.33 8.90873 -1.62657 0
M  V30 37145 P 3769.46 8.03563 -3.84925 0
M  V30 37146 O 3769.24 8.85821 -5.0569 0
M  V30 37147 O 3768.67 8.41101 -2.65469 0
M  V30 37148 O 3769.21 6.4965 -4.18908 0
M  V30 37149 C 3770.15 5.81037 -5.05421 0
M  V30 37150 C 3769.42 4.78366 -5.89277 0
M  V30 37151 O 3769.21 3.58302 -5.08433 0
M  V30 37152 C 3768.02 5.17448 -6.36119 0
M  V30 37153 O 3767.63 4.45271 -7.53232 0
M  V30 37154 C 3767.14 4.74639 -5.19936 0
M  V30 37155 C 3767.85 3.49432 -4.70418 0
M  V30 37156 N 3767.8 3.32099 -3.22613 0
M  V30 37157 H 3770.64 6.54213 -5.71376 0
M  V30 37158 H 3770.91 5.30936 -4.43503 0
M  V30 37159 H 3770.04 4.55889 -6.76652 0
M  V30 37160 H 3767.39 2.61715 -5.17932 0
M  V30 37161 H 3767.11 5.52155 -4.41878 0
M  V30 37162 H 3766.11 4.51981 -5.53374 0
M  V30 37163 H 3767.95 6.25124 -6.55234 0
M  V30 37164 P 3766.08 4.23843 -7.83734 0
M  V30 37165 O 3765.86 4.19407 -9.29784 0
M  V30 37166 O 3765.29 5.24426 -7.09156 0
M  V30 37167 O 3765.83 2.7935 -7.20758 0
M  V30 37168 C 3766.77 1.7299 -7.50419 0
M  V30 37169 C 3766.04 0.406376 -7.57911 0
M  V30 37170 O 3765.83 -0.0897726 -6.21935 0
M  V30 37171 C 3764.64 0.447224 -8.1878 0
M  V30 37172 O 3764.25 -0.825065 -8.71101 0
M  V30 37173 C 3763.76 0.783801 -6.99623 0
M  V30 37174 C 3764.47 0.0619192 -5.85967 0
M  V30 37175 N 3764.42 0.790462 -4.56202 0
M  V30 37176 H 3767.26 1.93423 -8.4679 0
M  V30 37177 H 3767.53 1.68852 -6.70877 0
M  V30 37178 H 3766.66 -0.289041 -8.15388 0
M  V30 37179 H 3764.01 -0.927006 -5.72848 0
M  V30 37180 H 3763.73 1.86973 -6.82036 0
M  V30 37181 H 3762.73 0.403953 -7.13357 0
M  V30 37182 H 3764.57 1.20599 -8.97534 0
M  V30 37183 P 3762.7 -1.17771 -8.83182 0
M  V30 37184 O 3762.48 -2.07206 -9.98732 0
M  V30 37185 O 3761.91 0.0743816 -8.81969 0
M  V30 37186 O 3762.45 -1.97652 -7.47304 0
M  V30 37187 C 3763.39 -3.01133 -7.08783 0
M  V30 37188 C 3762.66 -4.12613 -6.37049 0
M  V30 37189 O 3762.45 -3.72827 -4.97879 0
M  V30 37190 C 3761.26 -4.45085 -6.88694 0
M  V30 37191 O 3760.87 -5.7877 -6.5624 0
M  V30 37192 C 3760.38 -3.47817 -6.12078 0
M  V30 37193 C 3761.09 -3.39414 -4.77697 0
M  V30 37194 N 3761.04 -2.04615 -4.15333 0
M  V30 37195 H 3763.88 -3.41248 -7.98759 0
M  V30 37196 H 3764.15 -2.5837 -6.41742 0
M  V30 37197 H 3763.28 -5.02657 -6.42673 0
M  V30 37198 P 3759.32 -6.144 -6.45285 0
M  V30 37199 O 3759.1 -7.54673 -6.86199 0
M  V30 37200 O 3758.53 -5.12391 -7.179 0
M  V30 37201 O 3759.07 -5.99158 -4.88404 0
M  V30 37202 C 3760.01 -6.60234 -3.96415 0
M  V30 37203 C 3759.28 -7.08259 -2.72856 0
M  V30 37204 O 3759.07 -5.9427 -1.83651 0
M  V30 37205 C 3757.88 -7.64886 -2.9555 0
M  V30 37206 O 3757.49 -8.53963 -1.90717 0
M  V30 37207 C 3757 -6.4116 -2.90739 0
M  V30 37208 C 3757.71 -5.55375 -1.86963 0
M  V30 37209 N 3757.66 -4.09448 -2.16152 0
M  V30 37210 C 3757.74 -3.46824 -3.37593 0
M  V30 37211 N 3757.67 -2.17422 -3.29777 0
M  V30 37212 C 3757.52 -1.93065 -1.94427 0
M  V30 37213 C 3757.39 -0.738053 -1.20141 0
M  V30 37214 N 3757.38 0.474256 -1.74676 0
M  V30 37215 N 3757.27 -0.850049 0.13045 0
M  V30 37216 C 3757.28 -2.06169 0.676992 0
M  V30 37217 N 3757.4 -3.23842 0.101312 0
M  V30 37218 C 3757.52 -3.09402 -1.23122 0
M  V30 37219 H 3760.5 -7.45574 -4.45629 0
M  V30 37220 H 3760.77 -5.85864 -3.679 0
M  V30 37221 H 3759.9 -7.84412 -2.24479 0
M  V30 37222 H 3757.25 -5.73457 -0.888562 0
M  V30 37223 H 3756.97 -5.90877 -3.88583 0
M  V30 37224 H 3755.97 -6.6596 -2.58858 0
M  V30 37225 H 3757.81 -8.16339 -3.92049 0
M  V30 37226 H 3757.85 -4.00505 -4.3174 0
M  V30 37227 H 3757.47 0.581337 -2.76658 0
M  V30 37228 H 3757.28 1.30811 -1.14888 0
M  V30 37229 H 3757.17 -2.08295 1.75542 0
M  V30 37230 P 3755.94 -8.7635 -1.60911 0
M  V30 37231 O 3755.72 -10.1388 -1.11561 0
M  V30 37232 O 3755.15 -8.36503 -2.79617 0
M  V30 37233 O 3755.69 -7.71806 -0.42951 0
M  V30 37234 C 3756.63 -7.67148 0.673689 0
M  V30 37235 C 3755.9 -7.33374 1.95559 0
M  V30 37236 O 3755.69 -5.88721 2.00726 0
M  V30 37237 C 3754.5 -7.92526 2.10483 0
M  V30 37238 O 3754.11 -8.02971 3.47653 0
M  V30 37239 C 3753.62 -6.89602 1.41652 0
M  V30 37240 C 3754.33 -5.59201 1.75185 0
M  V30 37241 N 3754.28 -4.58235 0.662552 0
M  V30 37242 H 3757.12 -8.65116 0.777161 0
M  V30 37243 H 3757.39 -6.90173 0.474152 0
M  V30 37244 H 3756.52 -7.66548 2.79458 0
M  V30 37245 P 3752.56 -8.03563 3.84925 0
M  V30 37246 O 3752.34 -8.85821 5.0569 0
M  V30 37247 O 3751.77 -8.41101 2.65469 0
M  V30 37248 O 3752.31 -6.4965 4.18908 0
M  V30 37249 C 3753.25 -5.81037 5.05421 0
M  V30 37250 C 3752.52 -4.78366 5.89277 0
M  V30 37251 O 3752.31 -3.58302 5.08433 0
M  V30 37252 C 3751.12 -5.17448 6.36119 0
M  V30 37253 O 3750.73 -4.45271 7.53232 0
M  V30 37254 C 3750.24 -4.74639 5.19936 0
M  V30 37255 C 3750.95 -3.49432 4.70418 0
M  V30 37256 N 3750.9 -3.32099 3.22613 0
M  V30 37257 H 3753.74 -6.54213 5.71376 0
M  V30 37258 H 3754.01 -5.30936 4.43503 0
M  V30 37259 H 3753.14 -4.55889 6.76652 0
M  V30 37260 H 3750.49 -2.61715 5.17932 0
M  V30 37261 H 3750.21 -5.52155 4.41878 0
M  V30 37262 H 3749.21 -4.51981 5.53374 0
M  V30 37263 H 3751.05 -6.25124 6.55234 0
M  V30 37264 P 3749.18 -4.23843 7.83734 0
M  V30 37265 O 3748.96 -4.19407 9.29784 0
M  V30 37266 O 3748.39 -5.24426 7.09156 0
M  V30 37267 O 3748.93 -2.7935 7.20758 0
M  V30 37268 C 3749.87 -1.7299 7.50419 0
M  V30 37269 C 3749.14 -0.406376 7.57911 0
M  V30 37270 O 3748.93 0.0897726 6.21935 0
M  V30 37271 C 3747.74 -0.447224 8.1878 0
M  V30 37272 O 3747.35 0.825065 8.71101 0
M  V30 37273 C 3746.86 -0.783801 6.99623 0
M  V30 37274 C 3747.57 -0.0619192 5.85967 0
M  V30 37275 N 3747.52 -0.7859 4.56281 0
M  V30 37276 H 3750.36 -1.93423 8.4679 0
M  V30 37277 H 3750.63 -1.68181 6.71046 0
M  V30 37278 H 3749.76 0.289041 8.15388 0
M  V30 37279 P 3745.8 1.17771 8.83182 0
M  V30 37280 O 3745.58 2.07206 9.98732 0
M  V30 37281 O 3745.01 -0.0743816 8.81969 0
M  V30 37282 O 3745.55 1.97652 7.47304 0
M  V30 37283 C 3746.49 3.01133 7.08783 0
M  V30 37284 C 3745.76 4.12613 6.37049 0
M  V30 37285 O 3745.55 3.72827 4.97879 0
M  V30 37286 C 3744.36 4.45085 6.88694 0
M  V30 37287 O 3743.97 5.7877 6.5624 0
M  V30 37288 C 3743.48 3.47817 6.12078 0
M  V30 37289 C 3744.19 3.39414 4.77697 0
M  V30 37290 N 3744.14 2.04615 4.15333 0
M  V30 37291 H 3746.98 3.41248 7.98759 0
M  V30 37292 H 3747.25 2.5837 6.41742 0
M  V30 37293 H 3746.38 5.02657 6.42673 0
M  V30 37294 P 3742.42 6.144 6.45285 0
M  V30 37295 O 3742.2 7.54673 6.86199 0
M  V30 37296 O 3741.63 5.12391 7.179 0
M  V30 37297 O 3742.17 5.99158 4.88404 0
M  V30 37298 C 3743.11 6.60234 3.96415 0
M  V30 37299 C 3742.38 7.08259 2.72856 0
M  V30 37300 O 3742.17 5.9427 1.83651 0
M  V30 37301 C 3740.98 7.64886 2.9555 0
M  V30 37302 O 3740.59 8.53963 1.90717 0
M  V30 37303 C 3740.1 6.4116 2.90739 0
M  V30 37304 C 3740.81 5.55375 1.86963 0
M  V30 37305 N 3740.76 4.09448 2.16152 0
M  V30 37306 H 3743.6 7.45574 4.45629 0
M  V30 37307 H 3743.87 5.85864 3.679 0
M  V30 37308 H 3743 7.84412 2.24479 0
M  V30 37309 H 3740.35 5.73457 0.888562 0
M  V30 37310 H 3740.07 5.90877 3.88583 0
M  V30 37311 H 3739.07 6.6596 2.58858 0
M  V30 37312 H 3740.91 8.16339 3.92049 0
M  V30 37313 P 3739.04 8.7635 1.60911 0
M  V30 37314 O 3738.82 10.1388 1.11561 0
M  V30 37315 O 3738.25 8.36503 2.79617 0
M  V30 37316 O 3738.79 7.71806 0.42951 0
M  V30 37317 C 3739.73 7.67148 -0.673689 0
M  V30 37318 C 3739 7.33374 -1.95559 0
M  V30 37319 O 3738.79 5.88721 -2.00726 0
M  V30 37320 C 3737.6 7.92526 -2.10483 0
M  V30 37321 O 3737.21 8.02971 -3.47653 0
M  V30 37322 C 3736.72 6.89602 -1.41652 0
M  V30 37323 C 3737.43 5.59201 -1.75185 0
M  V30 37324 N 3737.38 4.58301 -0.657969 0
M  V30 37325 H 3740.22 8.65116 -0.777161 0
M  V30 37326 H 3740.49 6.9022 -0.46725 0
M  V30 37327 H 3739.62 7.66548 -2.79458 0
M  V30 37328 H 3736.97 5.16165 -2.65183 0
M  V30 37329 H 3736.69 7.06433 -0.329384 0
M  V30 37330 H 3735.69 6.90926 -1.82021 0
M  V30 37331 H 3737.53 8.90873 -1.62657 0
M  V30 37332 P 3735.66 8.03563 -3.84925 0
M  V30 37333 O 3735.44 8.85821 -5.0569 0
M  V30 37334 O 3734.87 8.41101 -2.65469 0
M  V30 37335 O 3735.41 6.4965 -4.18908 0
M  V30 37336 C 3736.35 5.81037 -5.05421 0
M  V30 37337 C 3735.62 4.78366 -5.89277 0
M  V30 37338 O 3735.41 3.58302 -5.08433 0
M  V30 37339 C 3734.22 5.17448 -6.36119 0
M  V30 37340 O 3733.83 4.45271 -7.53232 0
M  V30 37341 C 3733.34 4.74639 -5.19936 0
M  V30 37342 C 3734.05 3.49432 -4.70418 0
M  V30 37343 N 3734 3.31776 -3.22945 0
M  V30 37344 H 3736.84 6.54213 -5.71376 0
M  V30 37345 H 3737.11 5.30492 -4.44033 0
M  V30 37346 H 3736.24 4.55889 -6.76652 0
M  V30 37347 P 3732.28 4.23843 -7.83734 0
M  V30 37348 O 3732.06 4.19407 -9.29784 0
M  V30 37349 O 3731.49 5.24426 -7.09156 0
M  V30 37350 O 3732.03 2.7935 -7.20758 0
M  V30 37351 C 3732.97 1.7299 -7.50419 0
M  V30 37352 C 3732.24 0.406376 -7.57911 0
M  V30 37353 O 3732.03 -0.0897726 -6.21935 0
M  V30 37354 C 3730.84 0.447224 -8.1878 0
M  V30 37355 O 3730.45 -0.825065 -8.71101 0
M  V30 37356 C 3729.96 0.783801 -6.99623 0
M  V30 37357 C 3730.67 0.0619192 -5.85967 0
M  V30 37358 N 3730.62 0.7859 -4.56281 0
M  V30 37359 H 3733.46 1.93423 -8.4679 0
M  V30 37360 H 3733.73 1.68181 -6.71046 0
M  V30 37361 H 3732.86 -0.289041 -8.15388 0
M  V30 37362 P 3728.9 -1.17771 -8.83182 0
M  V30 37363 O 3728.68 -2.07206 -9.98732 0
M  V30 37364 O 3728.11 0.0743816 -8.81969 0
M  V30 37365 O 3728.65 -1.97652 -7.47304 0
M  V30 37366 C 3729.59 -3.01133 -7.08783 0
M  V30 37367 C 3728.86 -4.12613 -6.37049 0
M  V30 37368 O 3728.65 -3.72827 -4.97879 0
M  V30 37369 C 3727.46 -4.45085 -6.88694 0
M  V30 37370 O 3727.07 -5.7877 -6.5624 0
M  V30 37371 C 3726.58 -3.47817 -6.12078 0
M  V30 37372 C 3727.29 -3.39414 -4.77697 0
M  V30 37373 N 3727.24 -2.04615 -4.15333 0
M  V30 37374 H 3730.08 -3.41248 -7.98759 0
M  V30 37375 H 3730.35 -2.5837 -6.41742 0
M  V30 37376 H 3729.48 -5.02657 -6.42673 0
M  V30 37377 P 3725.52 -6.144 -6.45285 0
M  V30 37378 O 3725.3 -7.54673 -6.86199 0
M  V30 37379 O 3724.73 -5.12391 -7.179 0
M  V30 37380 O 3725.27 -5.99158 -4.88404 0
M  V30 37381 C 3726.21 -6.60234 -3.96415 0
M  V30 37382 C 3725.48 -7.08259 -2.72856 0
M  V30 37383 O 3725.27 -5.9427 -1.83651 0
M  V30 37384 C 3724.08 -7.64886 -2.9555 0
M  V30 37385 O 3723.69 -8.53963 -1.90717 0
M  V30 37386 C 3723.2 -6.4116 -2.90739 0
M  V30 37387 C 3723.91 -5.55375 -1.86963 0
M  V30 37388 N 3723.86 -4.09664 -2.15742 0
M  V30 37389 H 3726.7 -7.45574 -4.45629 0
M  V30 37390 H 3726.97 -5.86232 -3.67314 0
M  V30 37391 H 3726.1 -7.84412 -2.24479 0
M  V30 37392 P 3722.14 -8.7635 -1.60911 0
M  V30 37393 O 3721.92 -10.1388 -1.11561 0
M  V30 37394 O 3721.35 -8.36503 -2.79617 0
M  V30 37395 O 3721.89 -7.71806 -0.42951 0
M  V30 37396 C 3722.83 -7.67148 0.673689 0
M  V30 37397 C 3722.1 -7.33374 1.95559 0
M  V30 37398 O 3721.89 -5.88721 2.00726 0
M  V30 37399 C 3720.7 -7.92526 2.10483 0
M  V30 37400 O 3720.31 -8.02971 3.47653 0
M  V30 37401 C 3719.82 -6.89602 1.41652 0
M  V30 37402 C 3720.53 -5.59201 1.75185 0
M  V30 37403 N 3720.48 -4.58235 0.662552 0
M  V30 37404 H 3723.32 -8.65116 0.777161 0
M  V30 37405 H 3723.59 -6.90173 0.474152 0
M  V30 37406 H 3722.72 -7.66548 2.79458 0
M  V30 37407 P 3718.76 -8.03563 3.84925 0
M  V30 37408 O 3718.54 -8.85821 5.0569 0
M  V30 37409 O 3717.97 -8.41101 2.65469 0
M  V30 37410 O 3718.51 -6.4965 4.18908 0
M  V30 37411 C 3719.45 -5.81037 5.05421 0
M  V30 37412 C 3718.72 -4.78366 5.89277 0
M  V30 37413 O 3718.51 -3.58302 5.08433 0
M  V30 37414 C 3717.32 -5.17448 6.36119 0
M  V30 37415 O 3716.93 -4.45271 7.53232 0
M  V30 37416 C 3716.44 -4.74639 5.19936 0
M  V30 37417 C 3717.15 -3.49432 4.70418 0
M  V30 37418 N 3717.1 -3.31776 3.22945 0
M  V30 37419 H 3719.94 -6.54213 5.71376 0
M  V30 37420 H 3720.21 -5.30492 4.44033 0
M  V30 37421 H 3719.34 -4.55889 6.76652 0
M  V30 37422 P 3715.38 -4.23843 7.83734 0
M  V30 37423 O 3715.16 -4.19407 9.29784 0
M  V30 37424 O 3714.59 -5.24426 7.09156 0
M  V30 37425 O 3715.13 -2.7935 7.20758 0
M  V30 37426 C 3716.07 -1.7299 7.50419 0
M  V30 37427 C 3715.34 -0.406376 7.57911 0
M  V30 37428 O 3715.13 0.0897726 6.21935 0
M  V30 37429 C 3713.94 -0.447224 8.1878 0
M  V30 37430 O 3713.55 0.825065 8.71101 0
M  V30 37431 C 3713.06 -0.783801 6.99623 0
M  V30 37432 C 3713.77 -0.0619192 5.85967 0
M  V30 37433 N 3713.72 -0.790462 4.56202 0
M  V30 37434 H 3716.56 -1.93423 8.4679 0
M  V30 37435 H 3716.83 -1.68852 6.70877 0
M  V30 37436 H 3715.96 0.289041 8.15388 0
M  V30 37437 H 3713.31 0.927006 5.72848 0
M  V30 37438 H 3713.03 -1.86973 6.82036 0
M  V30 37439 H 3712.04 -0.403953 7.13357 0
M  V30 37440 H 3713.87 -1.20599 8.97534 0
M  V30 37441 P 3712 1.17771 8.83182 0
M  V30 37442 O 3711.78 2.07206 9.98732 0
M  V30 37443 O 3711.21 -0.0743816 8.81969 0
M  V30 37444 O 3711.75 1.97652 7.47304 0
M  V30 37445 C 3712.69 3.01133 7.08783 0
M  V30 37446 C 3711.96 4.12613 6.37049 0
M  V30 37447 O 3711.75 3.72827 4.97879 0
M  V30 37448 C 3710.56 4.45085 6.88694 0
M  V30 37449 O 3710.17 5.7877 6.5624 0
M  V30 37450 C 3709.68 3.47817 6.12078 0
M  V30 37451 C 3710.39 3.39414 4.77697 0
M  V30 37452 N 3710.34 2.04615 4.15333 0
M  V30 37453 H 3713.18 3.41248 7.98759 0
M  V30 37454 H 3713.45 2.5837 6.41742 0
M  V30 37455 H 3712.58 5.02657 6.42673 0
M  V30 37456 P 3708.62 6.144 6.45285 0
M  V30 37457 O 3708.4 7.54673 6.86199 0
M  V30 37458 O 3707.83 5.12391 7.179 0
M  V30 37459 O 3708.37 5.99158 4.88404 0
M  V30 37460 C 3709.31 6.60234 3.96415 0
M  V30 37461 C 3708.58 7.08259 2.72856 0
M  V30 37462 O 3708.37 5.9427 1.83651 0
M  V30 37463 C 3707.18 7.64886 2.9555 0
M  V30 37464 O 3706.79 8.53963 1.90717 0
M  V30 37465 C 3706.3 6.4116 2.90739 0
M  V30 37466 C 3707.01 5.55375 1.86963 0
M  V30 37467 N 3706.96 4.09664 2.15742 0
M  V30 37468 H 3709.8 7.45574 4.45629 0
M  V30 37469 H 3710.07 5.86232 3.67314 0
M  V30 37470 H 3709.2 7.84412 2.24479 0
M  V30 37471 P 3705.24 8.7635 1.60911 0
M  V30 37472 O 3705.02 10.1388 1.11561 0
M  V30 37473 O 3704.45 8.36503 2.79617 0
M  V30 37474 O 3704.99 7.71806 0.42951 0
M  V30 37475 C 3705.93 7.67148 -0.673689 0
M  V30 37476 C 3705.2 7.33374 -1.95559 0
M  V30 37477 O 3704.99 5.88721 -2.00726 0
M  V30 37478 C 3703.8 7.92526 -2.10483 0
M  V30 37479 O 3703.41 8.02971 -3.47653 0
M  V30 37480 C 3702.92 6.89602 -1.41652 0
M  V30 37481 C 3703.63 5.59201 -1.75185 0
M  V30 37482 N 3703.58 4.58301 -0.657969 0
M  V30 37483 H 3706.42 8.65116 -0.777161 0
M  V30 37484 H 3706.69 6.9022 -0.46725 0
M  V30 37485 H 3705.82 7.66548 -2.79458 0
M  V30 37486 H 3703.17 5.16165 -2.65183 0
M  V30 37487 H 3702.89 7.06433 -0.329384 0
M  V30 37488 H 3701.9 6.90926 -1.82021 0
M  V30 37489 H 3703.73 8.90873 -1.62657 0
M  V30 37490 P 3701.86 8.03563 -3.84925 0
M  V30 37491 O 3701.64 8.85821 -5.0569 0
M  V30 37492 O 3701.07 8.41101 -2.65469 0
M  V30 37493 O 3701.61 6.4965 -4.18908 0
M  V30 37494 C 3702.55 5.81037 -5.05421 0
M  V30 37495 C 3701.82 4.78366 -5.89277 0
M  V30 37496 O 3701.61 3.58302 -5.08433 0
M  V30 37497 C 3700.42 5.17448 -6.36119 0
M  V30 37498 O 3700.03 4.45271 -7.53232 0
M  V30 37499 C 3699.54 4.74639 -5.19936 0
M  V30 37500 C 3700.25 3.49432 -4.70418 0
M  V30 37501 N 3700.2 3.31776 -3.22945 0
M  V30 37502 H 3703.04 6.54213 -5.71376 0
M  V30 37503 H 3703.31 5.30492 -4.44033 0
M  V30 37504 H 3702.44 4.55889 -6.76652 0
M  V30 37505 P 3698.48 4.23843 -7.83734 0
M  V30 37506 O 3698.26 4.19407 -9.29784 0
M  V30 37507 O 3697.69 5.24426 -7.09156 0
M  V30 37508 O 3698.23 2.7935 -7.20758 0
M  V30 37509 C 3699.17 1.7299 -7.50419 0
M  V30 37510 C 3698.44 0.406376 -7.57911 0
M  V30 37511 O 3698.23 -0.0897726 -6.21935 0
M  V30 37512 C 3697.04 0.447224 -8.1878 0
M  V30 37513 O 3696.65 -0.825065 -8.71101 0
M  V30 37514 C 3696.16 0.783801 -6.99623 0
M  V30 37515 C 3696.87 0.0619192 -5.85967 0
M  V30 37516 N 3696.82 0.7859 -4.56281 0
M  V30 37517 H 3699.66 1.93423 -8.4679 0
M  V30 37518 H 3699.93 1.68181 -6.71046 0
M  V30 37519 H 3699.06 -0.289041 -8.15388 0
M  V30 37520 P 3695.1 -1.17771 -8.83182 0
M  V30 37521 O 3694.88 -2.07206 -9.98732 0
M  V30 37522 O 3694.31 0.0743816 -8.81969 0
M  V30 37523 O 3694.85 -1.97652 -7.47304 0
M  V30 37524 C 3695.79 -3.01055 -7.08599 0
M  V30 37525 C 3695.06 -4.12613 -6.37049 0
M  V30 37526 O 3694.85 -3.72827 -4.97879 0
M  V30 37527 C 3693.66 -4.45719 -6.88164 0
M  V30 37528 O 3693.27 -5.7877 -6.5624 0
M  V30 37529 C 3692.78 -3.47768 -6.11991 0
M  V30 37530 C 3693.49 -3.39356 -4.77615 0
M  V30 37531 N 3693.44 -2.04571 -4.15244 0
M  V30 37532 C 3693.29 -1.98587 -2.78314 0
M  V30 37533 O 3693.2 -2.98134 -2.08835 0
M  V30 37534 N 3693.25 -0.714467 -2.24925 0
M  V30 37535 C 3693.34 0.470001 -2.94169 0
M  V30 37536 O 3693.29 1.55587 -2.35195 0
M  V30 37537 C 3693.49 0.312541 -4.36783 0
M  V30 37538 C 3693.6 1.57711 -5.16352 0
M  V30 37539 C 3693.54 -0.914512 -4.92583 0
M  V30 37540 H 3696.28 -3.41169 -7.98575 0
M  V30 37541 H 3696.55 -2.58295 -6.41556 0
M  V30 37542 H 3695.68 -5.02657 -6.42673 0
M  V30 37543 H 3693.03 -4.11637 -4.08885 0
M  V30 37544 H 3692.75 -2.49626 -6.61679 0
M  V30 37545 H 3691.76 -3.86566 -6.00778 0
M  V30 37546 H 3693.59 -4.29943 -7.96918 0
M  V30 37547 H 3693.66 -1.00937 -6.00374 0
M  V30 37548 H 3692.63 1.80153 -5.63503 0
M  V30 37549 H 3694.37 1.4566 -5.94104 0
M  V30 37550 H 3693.88 2.40664 -4.49645 0
M  V30 37551 H 3693.14 -0.647622 -1.25697 0
M  V30 37552 P 3691.72 -6.144 -6.45285 0
M  V30 37553 O 3691.5 -7.54673 -6.86199 0
M  V30 37554 O 3690.93 -5.12391 -7.179 0
M  V30 37555 O 3691.47 -5.99158 -4.88404 0
M  V30 37556 C 3692.41 -6.60234 -3.96415 0
M  V30 37557 C 3691.68 -7.08259 -2.72856 0
M  V30 37558 O 3691.47 -5.9427 -1.83651 0
M  V30 37559 C 3690.28 -7.64886 -2.9555 0
M  V30 37560 O 3689.89 -8.53963 -1.90717 0
M  V30 37561 C 3689.4 -6.4116 -2.90739 0
M  V30 37562 C 3690.11 -5.55375 -1.86963 0
M  V30 37563 N 3690.06 -4.09664 -2.15742 0
M  V30 37564 H 3692.9 -7.45574 -4.45629 0
M  V30 37565 H 3693.17 -5.86232 -3.67314 0
M  V30 37566 H 3692.3 -7.84412 -2.24479 0
M  V30 37567 P 3688.34 -8.7635 -1.60911 0
M  V30 37568 O 3688.12 -10.1388 -1.11561 0
M  V30 37569 O 3687.55 -8.36503 -2.79617 0
M  V30 37570 O 3688.09 -7.71806 -0.42951 0
M  V30 37571 C 3689.03 -7.67148 0.673689 0
M  V30 37572 C 3688.3 -7.33374 1.95559 0
M  V30 37573 O 3688.09 -5.88721 2.00726 0
M  V30 37574 C 3686.9 -7.92526 2.10483 0
M  V30 37575 O 3686.51 -8.02971 3.47653 0
M  V30 37576 C 3686.02 -6.89602 1.41652 0
M  V30 37577 C 3686.73 -5.59201 1.75185 0
M  V30 37578 N 3686.68 -4.58301 0.657969 0
M  V30 37579 H 3689.52 -8.65116 0.777161 0
M  V30 37580 H 3689.79 -6.9022 0.46725 0
M  V30 37581 H 3688.92 -7.66548 2.79458 0
M  V30 37582 H 3686.27 -5.16165 2.65183 0
M  V30 37583 H 3685.99 -7.06433 0.329384 0
M  V30 37584 H 3685 -6.90926 1.82021 0
M  V30 37585 H 3686.83 -8.90873 1.62657 0
M  V30 37586 P 3684.96 -8.03563 3.84925 0
M  V30 37587 O 3684.74 -8.85821 5.0569 0
M  V30 37588 O 3684.17 -8.41101 2.65469 0
M  V30 37589 O 3684.71 -6.4965 4.18908 0
M  V30 37590 C 3685.65 -5.81037 5.05421 0
M  V30 37591 C 3684.92 -4.78366 5.89277 0
M  V30 37592 O 3684.71 -3.58302 5.08433 0
M  V30 37593 C 3683.52 -5.17448 6.36119 0
M  V30 37594 O 3683.13 -4.45271 7.53232 0
M  V30 37595 C 3682.64 -4.74639 5.19936 0
M  V30 37596 C 3683.35 -3.49432 4.70418 0
M  V30 37597 N 3683.3 -3.31776 3.22945 0
M  V30 37598 H 3686.14 -6.54213 5.71376 0
M  V30 37599 H 3686.41 -5.30492 4.44033 0
M  V30 37600 H 3685.54 -4.55889 6.76652 0
M  V30 37601 P 3681.58 -4.23843 7.83734 0
M  V30 37602 O 3681.36 -4.19407 9.29784 0
M  V30 37603 O 3680.79 -5.24426 7.09156 0
M  V30 37604 O 3681.33 -2.7935 7.20758 0
M  V30 37605 C 3682.27 -1.72945 7.50224 0
M  V30 37606 C 3681.54 -0.406376 7.57911 0
M  V30 37607 O 3681.33 0.0897726 6.21935 0
M  V30 37608 C 3680.14 -0.438983 8.18724 0
M  V30 37609 O 3679.75 0.825065 8.71101 0
M  V30 37610 C 3679.26 -0.783689 6.99524 0
M  V30 37611 C 3679.97 -0.0619086 5.85867 0
M  V30 37612 N 3679.92 -0.78573 4.56183 0
M  V30 37613 C 3679.77 -0.0292889 3.41887 0
M  V30 37614 O 3679.68 1.18445 3.4419 0
M  V30 37615 N 3679.73 -0.744061 2.23964 0
M  V30 37616 C 3679.82 -2.10932 2.10362 0
M  V30 37617 O 3679.77 -2.64117 0.98825 0
M  V30 37618 C 3679.97 -2.8202 3.34994 0
M  V30 37619 C 3680.08 -4.31095 3.25037 0
M  V30 37620 C 3680.02 -2.15547 4.52261 0
M  V30 37621 H 3682.76 -1.93379 8.46595 0
M  V30 37622 H 3683.03 -1.68132 6.70852 0
M  V30 37623 H 3682.16 0.289041 8.15388 0
M  V30 37624 H 3679.51 0.926847 5.72749 0
M  V30 37625 H 3679.23 -1.86973 6.82036 0
M  V30 37626 H 3678.24 -0.403896 7.13257 0
M  V30 37627 H 3680.07 -1.20585 8.97435 0
M  V30 37628 H 3680.14 -2.71231 5.45042 0
M  V30 37629 H 3679.11 -4.76966 3.49992 0
M  V30 37630 H 3680.85 -4.67047 3.95024 0
M  V30 37631 H 3680.36 -4.58996 2.22312 0
M  V30 37632 H 3679.62 -0.214893 1.39758 0
M  V30 37633 P 3678.2 1.17771 8.83182 0
M  V30 37634 O 3677.98 2.07206 9.98732 0
M  V30 37635 O 3677.41 -0.0743816 8.81969 0
M  V30 37636 O 3677.95 1.97652 7.47304 0
M  V30 37637 C 3678.89 3.01133 7.08783 0
M  V30 37638 C 3678.16 4.12613 6.37049 0
M  V30 37639 O 3677.95 3.72827 4.97879 0
M  V30 37640 C 3676.76 4.45085 6.88694 0
M  V30 37641 O 3676.37 5.7877 6.5624 0
M  V30 37642 C 3675.88 3.47817 6.12078 0
M  V30 37643 C 3676.59 3.39414 4.77697 0
M  V30 37644 N 3676.54 2.04199 4.15538 0
M  V30 37645 H 3679.38 3.41248 7.98759 0
M  V30 37646 H 3679.65 2.57728 6.42 0
M  V30 37647 H 3678.78 5.02657 6.42673 0
M  V30 37648 H 3676.13 4.11708 4.08956 0
M  V30 37649 H 3675.85 2.49626 6.61679 0
M  V30 37650 H 3674.86 3.8662 6.00862 0
M  V30 37651 H 3676.69 4.29991 7.97006 0
M  V30 37652 P 3674.82 6.144 6.45285 0
M  V30 37653 O 3674.6 7.54673 6.86199 0
M  V30 37654 O 3674.03 5.12391 7.179 0
M  V30 37655 O 3674.57 5.99158 4.88404 0
M  V30 37656 C 3675.51 6.60234 3.96415 0
M  V30 37657 C 3674.78 7.08259 2.72856 0
M  V30 37658 O 3674.57 5.9427 1.83651 0
M  V30 37659 C 3673.38 7.64886 2.9555 0
M  V30 37660 O 3672.99 8.53963 1.90717 0
M  V30 37661 C 3672.5 6.4116 2.90739 0
M  V30 37662 C 3673.21 5.55375 1.86963 0
M  V30 37663 N 3673.16 4.09664 2.15742 0
M  V30 37664 H 3676 7.45574 4.45629 0
M  V30 37665 H 3676.27 5.86232 3.67314 0
M  V30 37666 H 3675.4 7.84412 2.24479 0
M  V30 37667 P 3671.44 8.7635 1.60911 0
M  V30 37668 O 3671.22 10.1388 1.11561 0
M  V30 37669 O 3670.65 8.36503 2.79617 0
M  V30 37670 O 3671.19 7.71806 0.42951 0
M  V30 37671 C 3672.13 7.67148 -0.673689 0
M  V30 37672 C 3671.4 7.33374 -1.95559 0
M  V30 37673 O 3671.19 5.88721 -2.00726 0
M  V30 37674 C 3670 7.92526 -2.10483 0
M  V30 37675 O 3669.61 8.02971 -3.47653 0
M  V30 37676 C 3669.12 6.89602 -1.41652 0
M  V30 37677 C 3669.83 5.59201 -1.75185 0
M  V30 37678 N 3669.78 4.58235 -0.662552 0
M  V30 37679 H 3672.62 8.65116 -0.777161 0
M  V30 37680 H 3672.89 6.90173 -0.474152 0
M  V30 37681 H 3672.02 7.66548 -2.79458 0
M  V30 37682 P 3668.06 8.03563 -3.84925 0
M  V30 37683 O 3667.84 8.85821 -5.0569 0
M  V30 37684 O 3667.27 8.41101 -2.65469 0
M  V30 37685 O 3667.81 6.4965 -4.18908 0
M  V30 37686 C 3668.75 5.81037 -5.05421 0
M  V30 37687 C 3668.02 4.78366 -5.89277 0
M  V30 37688 O 3667.81 3.58302 -5.08433 0
M  V30 37689 C 3666.62 5.17448 -6.36119 0
M  V30 37690 O 3666.23 4.45271 -7.53232 0
M  V30 37691 C 3665.74 4.74639 -5.19936 0
M  V30 37692 C 3666.45 3.49432 -4.70418 0
M  V30 37693 N 3666.4 3.32099 -3.22613 0
M  V30 37694 H 3669.24 6.54213 -5.71376 0
M  V30 37695 H 3669.51 5.30936 -4.43503 0
M  V30 37696 H 3668.64 4.55889 -6.76652 0
M  V30 37697 H 3665.99 2.61715 -5.17932 0
M  V30 37698 H 3665.71 5.52155 -4.41878 0
M  V30 37699 H 3664.72 4.51981 -5.53374 0
M  V30 37700 H 3666.55 6.25124 -6.55234 0
M  V30 37701 P 3664.68 4.23843 -7.83734 0
M  V30 37702 O 3664.46 4.19407 -9.29784 0
M  V30 37703 O 3663.89 5.24426 -7.09156 0
M  V30 37704 O 3664.43 2.7935 -7.20758 0
M  V30 37705 C 3665.37 1.7299 -7.50419 0
M  V30 37706 C 3664.64 0.406376 -7.57911 0
M  V30 37707 O 3664.43 -0.0897726 -6.21935 0
M  V30 37708 C 3663.24 0.447224 -8.1878 0
M  V30 37709 O 3662.85 -0.825065 -8.71101 0
M  V30 37710 C 3662.36 0.783801 -6.99623 0
M  V30 37711 C 3663.07 0.0619192 -5.85967 0
M  V30 37712 N 3663.02 0.790462 -4.56202 0
M  V30 37713 H 3665.86 1.93423 -8.4679 0
M  V30 37714 H 3666.13 1.68852 -6.70877 0
M  V30 37715 H 3665.26 -0.289041 -8.15388 0
M  V30 37716 H 3662.61 -0.927006 -5.72848 0
M  V30 37717 H 3662.33 1.86973 -6.82036 0
M  V30 37718 H 3661.34 0.403953 -7.13357 0
M  V30 37719 H 3663.17 1.20599 -8.97534 0
M  V30 37720 P 3661.3 -1.17771 -8.83182 0
M  V30 37721 O 3661.08 -2.07206 -9.98732 0
M  V30 37722 O 3660.51 0.0743816 -8.81969 0
M  V30 37723 O 3661.05 -1.97652 -7.47304 0
M  V30 37724 C 3661.99 -3.01133 -7.08783 0
M  V30 37725 C 3661.26 -4.12613 -6.37049 0
M  V30 37726 O 3661.05 -3.72827 -4.97879 0
M  V30 37727 C 3659.86 -4.45085 -6.88694 0
M  V30 37728 O 3659.47 -5.7877 -6.5624 0
M  V30 37729 C 3658.98 -3.47817 -6.12078 0
M  V30 37730 C 3659.69 -3.39414 -4.77697 0
M  V30 37731 N 3659.64 -2.04199 -4.15538 0
M  V30 37732 H 3662.48 -3.41248 -7.98759 0
M  V30 37733 H 3662.75 -2.57728 -6.42 0
M  V30 37734 H 3661.88 -5.02657 -6.42673 0
M  V30 37735 H 3659.23 -4.11708 -4.08956 0
M  V30 37736 H 3658.95 -2.49626 -6.61679 0
M  V30 37737 H 3657.96 -3.8662 -6.00862 0
M  V30 37738 H 3659.79 -4.29991 -7.97006 0
M  V30 37739 P 3657.92 -6.144 -6.45285 0
M  V30 37740 O 3657.7 -7.54673 -6.86199 0
M  V30 37741 O 3657.13 -5.12391 -7.179 0
M  V30 37742 O 3657.67 -5.99158 -4.88404 0
M  V30 37743 C 3658.61 -6.60234 -3.96415 0
M  V30 37744 C 3657.88 -7.08259 -2.72856 0
M  V30 37745 O 3657.67 -5.9427 -1.83651 0
M  V30 37746 C 3656.48 -7.64886 -2.9555 0
M  V30 37747 O 3656.09 -8.53963 -1.90717 0
M  V30 37748 C 3655.6 -6.4116 -2.90739 0
M  V30 37749 C 3656.31 -5.55375 -1.86963 0
M  V30 37750 N 3656.26 -4.09664 -2.15742 0
M  V30 37751 C 3656.34 -3.44381 -3.37233 0
M  V30 37752 N 3656.26 -2.14131 -3.28347 0
M  V30 37753 C 3656.12 -1.90247 -1.91588 0
M  V30 37754 C 3655.99 -0.683992 -1.20892 0
M  V30 37755 N 3655.87 -0.903396 0.173998 0
M  V30 37756 C 3655.87 -2.14171 0.784879 0
M  V30 37757 N 3655.74 -2.1435 2.11317 0
M  V30 37758 N 3656 -3.28784 0.119316 0
M  V30 37759 C 3656.12 -3.0977 -1.22194 0
M  V30 37760 H 3659.1 -7.45574 -4.45629 0
M  V30 37761 H 3659.37 -5.86232 -3.67314 0
M  V30 37762 H 3658.5 -7.84412 -2.24479 0
M  V30 37763 P 3654.54 -8.7635 -1.60911 0
M  V30 37764 O 3654.32 -10.1388 -1.11561 0
M  V30 37765 O 3653.75 -8.36503 -2.79617 0
M  V30 37766 O 3654.29 -7.71906 -0.429565 0
M  V30 37767 C 3655.23 -7.67148 0.673689 0
M  V30 37768 C 3654.5 -7.33666 1.94851 0
M  V30 37769 O 3654.29 -5.88816 2.00759 0
M  V30 37770 C 3653.1 -7.92526 2.10483 0
M  V30 37771 O 3652.71 -8.03063 3.47693 0
M  V30 37772 C 3652.22 -6.89602 1.41652 0
M  V30 37773 C 3652.93 -5.59201 1.75185 0
M  V30 37774 N 3652.88 -4.58235 0.662552 0
M  V30 37775 C 3652.73 -3.24451 1.01643 0
M  V30 37776 O 3652.64 -2.94958 2.21722 0
M  V30 37777 N 3652.68 -2.30408 -0.165238 0
M  V30 37778 C 3652.78 -2.66048 -1.25118 0
M  V30 37779 N 3652.73 -1.70787 -2.16813 0
M  V30 37780 C 3652.93 -4.02732 -1.64413 0
M  V30 37781 C 3652.98 -4.9488 -0.63991 0
M  V30 37782 H 3655.72 -8.65017 0.777072 0
M  V30 37783 H 3655.99 -6.90173 0.474152 0
M  V30 37784 H 3655.12 -7.66642 2.79492 0
M  V30 37785 H 3652.47 -5.16254 2.65229 0
M  V30 37786 H 3652.19 -7.06532 0.329431 0
M  V30 37787 H 3651.2 -6.91023 1.82047 0
M  V30 37788 H 3653.03 -8.90873 1.62657 0
M  V30 37789 H 3653.1 -6.00104 -0.892197 0
M  V30 37790 H 3653 -4.31733 -2.69229 0
M  V30 37791 H 3652.61 -0.724835 -1.8844 0
M  V30 37792 H 3652.81 -1.94716 -3.16734 0
M  V30 37793 P 3651.16 -8.03563 3.84925 0
M  V30 37794 O 3650.94 -8.85821 5.0569 0
M  V30 37795 O 3650.37 -8.41101 2.65469 0
M  V30 37796 O 3650.91 -6.4965 4.18908 0
M  V30 37797 C 3651.85 -5.80886 5.05289 0
M  V30 37798 C 3651.12 -4.78366 5.89277 0
M  V30 37799 O 3650.91 -3.58302 5.08433 0
M  V30 37800 C 3649.72 -5.16748 6.36559 0
M  V30 37801 O 3649.33 -4.45271 7.53232 0
M  V30 37802 C 3648.84 -4.74572 5.19863 0
M  V30 37803 C 3649.55 -3.49373 4.70338 0
M  V30 37804 N 3649.5 -3.31704 3.22876 0
M  V30 37805 C 3649.35 -2.03326 2.74871 0
M  V30 37806 O 3649.26 -1.06486 3.48076 0
M  V30 37807 N 3649.31 -1.91838 1.37456 0
M  V30 37808 C 3649.4 -2.94295 0.462035 0
M  V30 37809 C 3649.55 -4.25064 1.05249 0
M  V30 37810 C 3649.6 -4.40214 2.39192 0
M  V30 37811 H 3652.34 -6.54063 5.71245 0
M  V30 37812 H 3652.61 -5.30339 4.43905 0
M  V30 37813 H 3651.74 -4.55889 6.76652 0
M  V30 37814 H 3649.09 -2.6167 5.17842 0
M  V30 37815 H 3648.81 -5.52155 4.41878 0
M  V30 37816 H 3647.82 -4.51918 5.53297 0
M  V30 37817 H 3649.65 -6.25055 6.55162 0
M  V30 37818 H 3649.72 -5.39798 2.81523 0
M  V30 37819 P 3647.78 -4.23843 7.83734 0
M  V30 37820 O 3647.56 -4.19407 9.29784 0
M  V30 37821 O 3646.99 -5.24426 7.09156 0
M  V30 37822 O 3647.53 -2.7935 7.20758 0
M  V30 37823 C 3648.47 -1.7299 7.50419 0
M  V30 37824 C 3647.74 -0.406376 7.57911 0
M  V30 37825 O 3647.53 0.0897726 6.21935 0
M  V30 37826 C 3646.34 -0.447224 8.1878 0
M  V30 37827 O 3645.95 0.825065 8.71101 0
M  V30 37828 C 3645.46 -0.783801 6.99623 0
M  V30 37829 C 3646.17 -0.0619192 5.85967 0
M  V30 37830 N 3646.12 -0.7859 4.56281 0
M  V30 37831 H 3648.96 -1.93423 8.4679 0
M  V30 37832 H 3649.23 -1.68181 6.71046 0
M  V30 37833 H 3648.36 0.289041 8.15388 0
M  V30 37834 P 3644.4 1.17771 8.83182 0
M  V30 37835 O 3644.18 2.07206 9.98732 0
M  V30 37836 O 3643.61 -0.0743816 8.81969 0
M  V30 37837 O 3644.15 1.97652 7.47304 0
M  V30 37838 C 3645.09 3.01133 7.08783 0
M  V30 37839 C 3644.36 4.12613 6.37049 0
M  V30 37840 O 3644.15 3.72827 4.97879 0
M  V30 37841 C 3642.96 4.45085 6.88694 0
M  V30 37842 O 3642.57 5.7877 6.5624 0
M  V30 37843 C 3642.08 3.47817 6.12078 0
M  V30 37844 C 3642.79 3.39414 4.77697 0
M  V30 37845 N 3642.74 2.04615 4.15333 0
M  V30 37846 H 3645.58 3.41248 7.98759 0
M  V30 37847 H 3645.85 2.5837 6.41742 0
M  V30 37848 H 3644.98 5.02657 6.42673 0
M  V30 37849 P 3641.02 6.144 6.45285 0
M  V30 37850 O 3640.8 7.54673 6.86199 0
M  V30 37851 O 3640.23 5.12391 7.179 0
M  V30 37852 O 3640.77 5.99158 4.88404 0
M  V30 37853 C 3641.71 6.60234 3.96415 0
M  V30 37854 C 3640.98 7.08259 2.72856 0
M  V30 37855 O 3640.77 5.9427 1.83651 0
M  V30 37856 C 3639.58 7.64886 2.9555 0
M  V30 37857 O 3639.19 8.53963 1.90717 0
M  V30 37858 C 3638.7 6.4116 2.90739 0
M  V30 37859 C 3639.41 5.55375 1.86963 0
M  V30 37860 N 3639.36 4.09664 2.15742 0
M  V30 37861 H 3642.2 7.45574 4.45629 0
M  V30 37862 H 3642.47 5.86232 3.67314 0
M  V30 37863 H 3641.6 7.84412 2.24479 0
M  V30 37864 P 3637.64 8.7635 1.60911 0
M  V30 37865 O 3637.42 10.1388 1.11561 0
M  V30 37866 O 3636.85 8.36503 2.79617 0
M  V30 37867 O 3637.39 7.71806 0.42951 0
M  V30 37868 C 3638.33 7.67148 -0.673689 0
M  V30 37869 C 3637.6 7.33374 -1.95559 0
M  V30 37870 O 3637.39 5.88721 -2.00726 0
M  V30 37871 C 3636.2 7.92526 -2.10483 0
M  V30 37872 O 3635.81 8.02971 -3.47653 0
M  V30 37873 C 3635.32 6.89602 -1.41652 0
M  V30 37874 C 3636.03 5.59201 -1.75185 0
M  V30 37875 N 3635.98 4.58235 -0.662552 0
M  V30 37876 H 3638.82 8.65116 -0.777161 0
M  V30 37877 H 3639.09 6.90173 -0.474152 0
M  V30 37878 H 3638.22 7.66548 -2.79458 0
M  V30 37879 P 3634.26 8.03563 -3.84925 0
M  V30 37880 O 3634.04 8.85821 -5.0569 0
M  V30 37881 O 3633.47 8.41101 -2.65469 0
M  V30 37882 O 3634.01 6.4965 -4.18908 0
M  V30 37883 C 3634.95 5.81037 -5.05421 0
M  V30 37884 C 3634.22 4.78366 -5.89277 0
M  V30 37885 O 3634.01 3.58302 -5.08433 0
M  V30 37886 C 3632.82 5.17448 -6.36119 0
M  V30 37887 O 3632.43 4.45271 -7.53232 0
M  V30 37888 C 3631.94 4.74639 -5.19936 0
M  V30 37889 C 3632.65 3.49432 -4.70418 0
M  V30 37890 N 3632.6 3.32099 -3.22613 0
M  V30 37891 H 3635.44 6.54213 -5.71376 0
M  V30 37892 H 3635.71 5.30936 -4.43503 0
M  V30 37893 H 3634.84 4.55889 -6.76652 0
M  V30 37894 H 3632.19 2.61715 -5.17932 0
M  V30 37895 H 3631.91 5.52155 -4.41878 0
M  V30 37896 H 3630.92 4.51981 -5.53374 0
M  V30 37897 H 3632.75 6.25124 -6.55234 0
M  V30 37898 P 3630.88 4.23843 -7.83734 0
M  V30 37899 O 3630.66 4.19407 -9.29784 0
M  V30 37900 O 3630.09 5.24426 -7.09156 0
M  V30 37901 O 3630.63 2.7935 -7.20758 0
M  V30 37902 C 3631.57 1.7299 -7.50419 0
M  V30 37903 C 3630.84 0.406376 -7.57911 0
M  V30 37904 O 3630.63 -0.0897726 -6.21935 0
M  V30 37905 C 3629.44 0.447224 -8.1878 0
M  V30 37906 O 3629.05 -0.825065 -8.71101 0
M  V30 37907 C 3628.56 0.783801 -6.99623 0
M  V30 37908 C 3629.27 0.0619192 -5.85967 0
M  V30 37909 N 3629.22 0.7859 -4.56281 0
M  V30 37910 H 3632.06 1.93423 -8.4679 0
M  V30 37911 H 3632.33 1.68181 -6.71046 0
M  V30 37912 H 3631.46 -0.289041 -8.15388 0
M  V30 37913 P 3627.5 -1.17771 -8.83182 0
M  V30 37914 O 3627.28 -2.07206 -9.98732 0
M  V30 37915 O 3626.71 0.0743816 -8.81969 0
M  V30 37916 O 3627.25 -1.97652 -7.47304 0
M  V30 37917 C 3628.19 -3.01133 -7.08783 0
M  V30 37918 C 3627.46 -4.12613 -6.37049 0
M  V30 37919 O 3627.25 -3.72827 -4.97879 0
M  V30 37920 C 3626.06 -4.45085 -6.88694 0
M  V30 37921 O 3625.67 -5.7877 -6.5624 0
M  V30 37922 C 3625.18 -3.47817 -6.12078 0
M  V30 37923 C 3625.89 -3.39414 -4.77697 0
M  V30 37924 N 3625.84 -2.04615 -4.15333 0
M  V30 37925 H 3628.68 -3.41248 -7.98759 0
M  V30 37926 H 3628.95 -2.5837 -6.41742 0
M  V30 37927 H 3628.08 -5.02657 -6.42673 0
M  V30 37928 P 3624.12 -6.144 -6.45285 0
M  V30 37929 O 3623.9 -7.54673 -6.86199 0
M  V30 37930 O 3623.33 -5.12391 -7.179 0
M  V30 37931 O 3623.87 -5.99158 -4.88404 0
M  V30 37932 C 3624.81 -6.60234 -3.96415 0
M  V30 37933 C 3624.08 -7.08259 -2.72856 0
M  V30 37934 O 3623.87 -5.9427 -1.83651 0
M  V30 37935 C 3622.68 -7.64886 -2.9555 0
M  V30 37936 O 3622.29 -8.53963 -1.90717 0
M  V30 37937 C 3621.8 -6.4116 -2.90739 0
M  V30 37938 C 3622.51 -5.55375 -1.86963 0
M  V30 37939 N 3622.46 -4.09664 -2.15742 0
M  V30 37940 H 3625.3 -7.45574 -4.45629 0
M  V30 37941 H 3625.57 -5.86232 -3.67314 0
M  V30 37942 H 3624.7 -7.84412 -2.24479 0
M  V30 37943 P 3620.74 -8.7635 -1.60911 0
M  V30 37944 O 3620.52 -10.1388 -1.11561 0
M  V30 37945 O 3619.95 -8.36503 -2.79617 0
M  V30 37946 O 3620.49 -7.71806 -0.42951 0
M  V30 37947 C 3621.43 -7.67148 0.673689 0
M  V30 37948 C 3620.7 -7.33374 1.95559 0
M  V30 37949 O 3620.49 -5.88721 2.00726 0
M  V30 37950 C 3619.3 -7.92526 2.10483 0
M  V30 37951 O 3618.91 -8.02971 3.47653 0
M  V30 37952 C 3618.42 -6.89602 1.41652 0
M  V30 37953 C 3619.13 -5.59201 1.75185 0
M  V30 37954 N 3619.08 -4.58301 0.657969 0
M  V30 37955 H 3621.92 -8.65116 0.777161 0
M  V30 37956 H 3622.19 -6.9022 0.46725 0
M  V30 37957 H 3621.32 -7.66548 2.79458 0
M  V30 37958 H 3618.67 -5.16165 2.65183 0
M  V30 37959 H 3618.39 -7.06433 0.329384 0
M  V30 37960 H 3617.4 -6.90926 1.82021 0
M  V30 37961 H 3619.23 -8.90873 1.62657 0
M  V30 37962 P 3617.36 -8.03563 3.84925 0
M  V30 37963 O 3617.14 -8.85821 5.0569 0
M  V30 37964 O 3616.57 -8.41101 2.65469 0
M  V30 37965 O 3617.11 -6.4965 4.18908 0
M  V30 37966 C 3618.05 -5.81037 5.05421 0
M  V30 37967 C 3617.32 -4.78366 5.89277 0
M  V30 37968 O 3617.11 -3.58302 5.08433 0
M  V30 37969 C 3615.92 -5.17448 6.36119 0
M  V30 37970 O 3615.53 -4.45271 7.53232 0
M  V30 37971 C 3615.04 -4.74639 5.19936 0
M  V30 37972 C 3615.75 -3.49432 4.70418 0
M  V30 37973 N 3615.7 -3.32099 3.22613 0
M  V30 37974 H 3618.54 -6.54213 5.71376 0
M  V30 37975 H 3618.81 -5.30936 4.43503 0
M  V30 37976 H 3617.94 -4.55889 6.76652 0
M  V30 37977 H 3615.29 -2.61715 5.17932 0
M  V30 37978 H 3615.01 -5.52155 4.41878 0
M  V30 37979 H 3614.02 -4.51981 5.53374 0
M  V30 37980 H 3615.85 -6.25124 6.55234 0
M  V30 37981 P 3613.98 -4.23843 7.83734 0
M  V30 37982 O 3613.76 -4.19407 9.29784 0
M  V30 37983 O 3613.19 -5.24426 7.09156 0
M  V30 37984 O 3613.73 -2.7935 7.20758 0
M  V30 37985 C 3614.67 -1.7299 7.50419 0
M  V30 37986 C 3613.94 -0.406376 7.57911 0
M  V30 37987 O 3613.73 0.0897726 6.21935 0
M  V30 37988 C 3612.54 -0.447224 8.1878 0
M  V30 37989 O 3612.15 0.825065 8.71101 0
M  V30 37990 C 3611.66 -0.783801 6.99623 0
M  V30 37991 C 3612.37 -0.0619192 5.85967 0
M  V30 37992 N 3612.32 -0.7859 4.56281 0
M  V30 37993 H 3615.16 -1.93423 8.4679 0
M  V30 37994 H 3615.43 -1.68181 6.71046 0
M  V30 37995 H 3614.56 0.289041 8.15388 0
M  V30 37996 P 3610.6 1.17771 8.83182 0
M  V30 37997 O 3610.38 2.07206 9.98732 0
M  V30 37998 O 3609.81 -0.0743816 8.81969 0
M  V30 37999 O 3610.35 1.97652 7.47304 0
M  V30 38000 C 3611.29 3.01133 7.08783 0
M  V30 38001 C 3610.56 4.12613 6.37049 0
M  V30 38002 O 3610.35 3.72827 4.97879 0
M  V30 38003 C 3609.16 4.45085 6.88694 0
M  V30 38004 O 3608.77 5.7877 6.5624 0
M  V30 38005 C 3608.28 3.47817 6.12078 0
M  V30 38006 C 3608.99 3.39414 4.77697 0
M  V30 38007 N 3608.94 2.04199 4.15538 0
M  V30 38008 H 3611.78 3.41248 7.98759 0
M  V30 38009 H 3612.05 2.57728 6.42 0
M  V30 38010 H 3611.18 5.02657 6.42673 0
M  V30 38011 H 3608.53 4.11708 4.08956 0
M  V30 38012 H 3608.25 2.49626 6.61679 0
M  V30 38013 H 3607.26 3.8662 6.00862 0
M  V30 38014 H 3609.09 4.29991 7.97006 0
M  V30 38015 P 3607.22 6.144 6.45285 0
M  V30 38016 O 3607 7.54673 6.86199 0
M  V30 38017 O 3606.43 5.12391 7.179 0
M  V30 38018 O 3606.97 5.99158 4.88404 0
M  V30 38019 C 3607.91 6.60234 3.96415 0
M  V30 38020 C 3607.18 7.08259 2.72856 0
M  V30 38021 O 3606.97 5.9427 1.83651 0
M  V30 38022 C 3605.78 7.64886 2.9555 0
M  V30 38023 O 3605.39 8.53963 1.90717 0
M  V30 38024 C 3604.9 6.4116 2.90739 0
M  V30 38025 C 3605.61 5.55375 1.86963 0
M  V30 38026 N 3605.56 4.09664 2.15742 0
M  V30 38027 H 3608.4 7.45574 4.45629 0
M  V30 38028 H 3608.67 5.86232 3.67314 0
M  V30 38029 H 3607.8 7.84412 2.24479 0
M  V30 38030 P 3603.84 8.7635 1.60911 0
M  V30 38031 O 3603.62 10.1388 1.11561 0
M  V30 38032 O 3603.05 8.36503 2.79617 0
M  V30 38033 O 3603.59 7.71806 0.42951 0
M  V30 38034 C 3604.53 7.67148 -0.673689 0
M  V30 38035 C 3603.8 7.33374 -1.95559 0
M  V30 38036 O 3603.59 5.88721 -2.00726 0
M  V30 38037 C 3602.4 7.92526 -2.10483 0
M  V30 38038 O 3602.01 8.02971 -3.47653 0
M  V30 38039 C 3601.52 6.89602 -1.41652 0
M  V30 38040 C 3602.23 5.59201 -1.75185 0
M  V30 38041 N 3602.18 4.58235 -0.662552 0
M  V30 38042 H 3605.02 8.65116 -0.777161 0
M  V30 38043 H 3605.29 6.90173 -0.474152 0
M  V30 38044 H 3604.42 7.66548 -2.79458 0
M  V30 38045 P 3600.46 8.03563 -3.84925 0
M  V30 38046 O 3600.24 8.85821 -5.0569 0
M  V30 38047 O 3599.67 8.41101 -2.65469 0
M  V30 38048 O 3600.21 6.4965 -4.18908 0
M  V30 38049 C 3601.15 5.81037 -5.05421 0
M  V30 38050 C 3600.42 4.78366 -5.89277 0
M  V30 38051 O 3600.21 3.58302 -5.08433 0
M  V30 38052 C 3599.02 5.17448 -6.36119 0
M  V30 38053 O 3598.63 4.45271 -7.53232 0
M  V30 38054 C 3598.14 4.74639 -5.19936 0
M  V30 38055 C 3598.85 3.49432 -4.70418 0
M  V30 38056 N 3598.8 3.31776 -3.22945 0
M  V30 38057 H 3601.64 6.54213 -5.71376 0
M  V30 38058 H 3601.91 5.30492 -4.44033 0
M  V30 38059 H 3601.04 4.55889 -6.76652 0
M  V30 38060 P 3597.08 4.23843 -7.83734 0
M  V30 38061 O 3596.86 4.19407 -9.29784 0
M  V30 38062 O 3596.29 5.24426 -7.09156 0
M  V30 38063 O 3596.83 2.7935 -7.20758 0
M  V30 38064 C 3597.77 1.7299 -7.50419 0
M  V30 38065 C 3597.04 0.406376 -7.57911 0
M  V30 38066 O 3596.83 -0.0897726 -6.21935 0
M  V30 38067 C 3595.64 0.447224 -8.1878 0
M  V30 38068 O 3595.25 -0.825065 -8.71101 0
M  V30 38069 C 3594.76 0.783801 -6.99623 0
M  V30 38070 C 3595.47 0.0619192 -5.85967 0
M  V30 38071 N 3595.42 0.7859 -4.56281 0
M  V30 38072 H 3598.26 1.93423 -8.4679 0
M  V30 38073 H 3598.53 1.68181 -6.71046 0
M  V30 38074 H 3597.66 -0.289041 -8.15388 0
M  V30 38075 P 3593.7 -1.17771 -8.83182 0
M  V30 38076 O 3593.48 -2.07206 -9.98732 0
M  V30 38077 O 3592.91 0.0743816 -8.81969 0
M  V30 38078 O 3593.45 -1.97652 -7.47304 0
M  V30 38079 C 3594.39 -3.01133 -7.08783 0
M  V30 38080 C 3593.66 -4.12613 -6.37049 0
M  V30 38081 O 3593.45 -3.72827 -4.97879 0
M  V30 38082 C 3592.26 -4.45085 -6.88694 0
M  V30 38083 O 3591.87 -5.7877 -6.5624 0
M  V30 38084 C 3591.38 -3.47817 -6.12078 0
M  V30 38085 C 3592.09 -3.39414 -4.77697 0
M  V30 38086 N 3592.04 -2.04615 -4.15333 0
M  V30 38087 H 3594.88 -3.41248 -7.98759 0
M  V30 38088 H 3595.15 -2.5837 -6.41742 0
M  V30 38089 H 3594.28 -5.02657 -6.42673 0
M  V30 38090 P 3590.32 -6.144 -6.45285 0
M  V30 38091 O 3590.1 -7.54673 -6.86199 0
M  V30 38092 O 3589.53 -5.12391 -7.179 0
M  V30 38093 O 3590.07 -5.99158 -4.88404 0
M  V30 38094 C 3591.01 -6.60234 -3.96415 0
M  V30 38095 C 3590.28 -7.08259 -2.72856 0
M  V30 38096 O 3590.07 -5.9427 -1.83651 0
M  V30 38097 C 3588.88 -7.64886 -2.9555 0
M  V30 38098 O 3588.49 -8.53963 -1.90717 0
M  V30 38099 C 3588 -6.4116 -2.90739 0
M  V30 38100 C 3588.71 -5.55375 -1.86963 0
M  V30 38101 N 3588.66 -4.09448 -2.16152 0
M  V30 38102 H 3591.5 -7.45574 -4.45629 0
M  V30 38103 H 3591.77 -5.85864 -3.679 0
M  V30 38104 H 3590.9 -7.84412 -2.24479 0
M  V30 38105 H 3588.25 -5.73457 -0.888562 0
M  V30 38106 H 3587.97 -5.90877 -3.88583 0
M  V30 38107 H 3586.98 -6.6596 -2.58858 0
M  V30 38108 H 3588.81 -8.16339 -3.92049 0
M  V30 38109 P 3586.94 -8.7635 -1.60911 0
M  V30 38110 O 3586.72 -10.1388 -1.11561 0
M  V30 38111 O 3586.15 -8.36503 -2.79617 0
M  V30 38112 O 3586.69 -7.71906 -0.429565 0
M  V30 38113 C 3587.63 -7.67148 0.673689 0
M  V30 38114 C 3586.9 -7.33666 1.94851 0
M  V30 38115 O 3586.69 -5.88816 2.00759 0
M  V30 38116 C 3585.5 -7.92526 2.10483 0
M  V30 38117 O 3585.11 -8.03063 3.47693 0
M  V30 38118 C 3584.62 -6.89602 1.41652 0
M  V30 38119 C 3585.33 -5.59201 1.75185 0
M  V30 38120 N 3585.28 -4.58235 0.662552 0
M  V30 38121 C 3585.13 -3.24451 1.01643 0
M  V30 38122 O 3585.04 -2.94958 2.21722 0
M  V30 38123 N 3585.08 -2.30408 -0.165238 0
M  V30 38124 C 3585.18 -2.66048 -1.25118 0
M  V30 38125 N 3585.13 -1.70787 -2.16813 0
M  V30 38126 C 3585.33 -4.02732 -1.64413 0
M  V30 38127 C 3585.38 -4.9488 -0.63991 0
M  V30 38128 H 3588.12 -8.65017 0.777072 0
M  V30 38129 H 3588.39 -6.90173 0.474152 0
M  V30 38130 H 3587.52 -7.66642 2.79492 0
M  V30 38131 H 3584.87 -5.16254 2.65229 0
M  V30 38132 H 3584.59 -7.06532 0.329431 0
M  V30 38133 H 3583.6 -6.91023 1.82047 0
M  V30 38134 H 3585.43 -8.90873 1.62657 0
M  V30 38135 H 3585.5 -6.00104 -0.892197 0
M  V30 38136 H 3585.4 -4.31733 -2.69229 0
M  V30 38137 H 3585.01 -0.724835 -1.8844 0
M  V30 38138 H 3585.21 -1.94716 -3.16734 0
M  V30 38139 P 3583.56 -8.03563 3.84925 0
M  V30 38140 O 3583.34 -8.85821 5.0569 0
M  V30 38141 O 3582.77 -8.41101 2.65469 0
M  V30 38142 O 3583.31 -6.4965 4.18908 0
M  V30 38143 C 3584.25 -5.81037 5.05421 0
M  V30 38144 C 3583.52 -4.78366 5.89277 0
M  V30 38145 O 3583.31 -3.58302 5.08433 0
M  V30 38146 C 3582.12 -5.17448 6.36119 0
M  V30 38147 O 3581.73 -4.45271 7.53232 0
M  V30 38148 C 3581.24 -4.74639 5.19936 0
M  V30 38149 C 3581.95 -3.49432 4.70418 0
M  V30 38150 N 3581.9 -3.32099 3.22613 0
M  V30 38151 H 3584.74 -6.54213 5.71376 0
M  V30 38152 H 3585.01 -5.30936 4.43503 0
M  V30 38153 H 3584.14 -4.55889 6.76652 0
M  V30 38154 H 3581.49 -2.61715 5.17932 0
M  V30 38155 H 3581.21 -5.52155 4.41878 0
M  V30 38156 H 3580.22 -4.51981 5.53374 0
M  V30 38157 H 3582.05 -6.25124 6.55234 0
M  V30 38158 P 3580.18 -4.23843 7.83734 0
M  V30 38159 O 3579.96 -4.19407 9.29784 0
M  V30 38160 O 3579.39 -5.24426 7.09156 0
M  V30 38161 O 3579.93 -2.7935 7.20758 0
M  V30 38162 C 3580.87 -1.7299 7.50419 0
M  V30 38163 C 3580.14 -0.406376 7.57911 0
M  V30 38164 O 3579.93 0.0897726 6.21935 0
M  V30 38165 C 3578.74 -0.447224 8.1878 0
M  V30 38166 O 3578.35 0.825065 8.71101 0
M  V30 38167 C 3577.86 -0.783801 6.99623 0
M  V30 38168 C 3578.57 -0.0619192 5.85967 0
M  V30 38169 N 3578.52 -0.7859 4.56281 0
M  V30 38170 H 3581.36 -1.93423 8.4679 0
M  V30 38171 H 3581.63 -1.68181 6.71046 0
M  V30 38172 H 3580.76 0.289041 8.15388 0
M  V30 38173 P 3576.8 1.17771 8.83182 0
M  V30 38174 O 3576.58 2.07206 9.98732 0
M  V30 38175 O 3576.01 -0.0743816 8.81969 0
M  V30 38176 O 3576.55 1.97652 7.47304 0
M  V30 38177 C 3577.49 3.01133 7.08783 0
M  V30 38178 C 3576.76 4.12613 6.37049 0
M  V30 38179 O 3576.55 3.72827 4.97879 0
M  V30 38180 C 3575.36 4.45085 6.88694 0
M  V30 38181 O 3574.97 5.7877 6.5624 0
M  V30 38182 C 3574.48 3.47817 6.12078 0
M  V30 38183 C 3575.19 3.39414 4.77697 0
M  V30 38184 N 3575.14 2.04199 4.15538 0
M  V30 38185 H 3577.98 3.41248 7.98759 0
M  V30 38186 H 3578.25 2.57728 6.42 0
M  V30 38187 H 3577.38 5.02657 6.42673 0
M  V30 38188 H 3574.73 4.11708 4.08956 0
M  V30 38189 H 3574.45 2.49626 6.61679 0
M  V30 38190 H 3573.46 3.8662 6.00862 0
M  V30 38191 H 3575.29 4.29991 7.97006 0
M  V30 38192 P 3573.42 6.144 6.45285 0
M  V30 38193 O 3573.2 7.54673 6.86199 0
M  V30 38194 O 3572.63 5.12391 7.179 0
M  V30 38195 O 3573.17 5.99158 4.88404 0
M  V30 38196 C 3574.11 6.60234 3.96415 0
M  V30 38197 C 3573.38 7.08259 2.72856 0
M  V30 38198 O 3573.17 5.9427 1.83651 0
M  V30 38199 C 3571.98 7.64886 2.9555 0
M  V30 38200 O 3571.59 8.53963 1.90717 0
M  V30 38201 C 3571.1 6.4116 2.90739 0
M  V30 38202 C 3571.81 5.55375 1.86963 0
M  V30 38203 N 3571.76 4.09664 2.15742 0
M  V30 38204 H 3574.6 7.45574 4.45629 0
M  V30 38205 H 3574.87 5.86232 3.67314 0
M  V30 38206 H 3574 7.84412 2.24479 0
M  V30 38207 P 3570.04 8.7635 1.60911 0
M  V30 38208 O 3569.82 10.1388 1.11561 0
M  V30 38209 O 3569.25 8.36503 2.79617 0
M  V30 38210 O 3569.79 7.71806 0.42951 0
M  V30 38211 C 3570.73 7.67148 -0.673689 0
M  V30 38212 C 3570 7.33374 -1.95559 0
M  V30 38213 O 3569.79 5.88721 -2.00726 0
M  V30 38214 C 3568.6 7.92526 -2.10483 0
M  V30 38215 O 3568.21 8.02971 -3.47653 0
M  V30 38216 C 3567.72 6.89602 -1.41652 0
M  V30 38217 C 3568.43 5.59201 -1.75185 0
M  V30 38218 N 3568.38 4.58235 -0.662552 0
M  V30 38219 H 3571.22 8.65116 -0.777161 0
M  V30 38220 H 3571.49 6.90173 -0.474152 0
M  V30 38221 H 3570.62 7.66548 -2.79458 0
M  V30 38222 P 3566.66 8.03563 -3.84925 0
M  V30 38223 O 3566.44 8.85821 -5.0569 0
M  V30 38224 O 3565.87 8.41101 -2.65469 0
M  V30 38225 O 3566.41 6.4965 -4.18908 0
M  V30 38226 C 3567.35 5.81037 -5.05421 0
M  V30 38227 C 3566.62 4.78366 -5.89277 0
M  V30 38228 O 3566.41 3.58302 -5.08433 0
M  V30 38229 C 3565.22 5.17448 -6.36119 0
M  V30 38230 O 3564.83 4.45271 -7.53232 0
M  V30 38231 C 3564.34 4.74639 -5.19936 0
M  V30 38232 C 3565.05 3.49432 -4.70418 0
M  V30 38233 N 3565 3.31776 -3.22945 0
M  V30 38234 H 3567.84 6.54213 -5.71376 0
M  V30 38235 H 3568.11 5.30492 -4.44033 0
M  V30 38236 H 3567.24 4.55889 -6.76652 0
M  V30 38237 P 3563.28 4.23843 -7.83734 0
M  V30 38238 O 3563.06 4.19407 -9.29784 0
M  V30 38239 O 3562.49 5.24426 -7.09156 0
M  V30 38240 O 3563.03 2.7935 -7.20758 0
M  V30 38241 C 3563.97 1.7299 -7.50419 0
M  V30 38242 C 3563.24 0.406376 -7.57911 0
M  V30 38243 O 3563.03 -0.0897726 -6.21935 0
M  V30 38244 C 3561.84 0.447224 -8.1878 0
M  V30 38245 O 3561.45 -0.825065 -8.71101 0
M  V30 38246 C 3560.96 0.783801 -6.99623 0
M  V30 38247 C 3561.67 0.0619192 -5.85967 0
M  V30 38248 N 3561.62 0.7859 -4.56281 0
M  V30 38249 H 3564.46 1.93423 -8.4679 0
M  V30 38250 H 3564.73 1.68181 -6.71046 0
M  V30 38251 H 3563.86 -0.289041 -8.15388 0
M  V30 38252 P 3559.9 -1.17771 -8.83182 0
M  V30 38253 O 3559.68 -2.07206 -9.98732 0
M  V30 38254 O 3559.11 0.0743816 -8.81969 0
M  V30 38255 O 3559.65 -1.97652 -7.47304 0
M  V30 38256 C 3560.59 -3.01055 -7.08599 0
M  V30 38257 C 3559.86 -4.12613 -6.37049 0
M  V30 38258 O 3559.65 -3.72827 -4.97879 0
M  V30 38259 C 3558.46 -4.45719 -6.88164 0
M  V30 38260 O 3558.07 -5.7877 -6.5624 0
M  V30 38261 C 3557.58 -3.47768 -6.11991 0
M  V30 38262 C 3558.29 -3.39356 -4.77615 0
M  V30 38263 N 3558.24 -2.04571 -4.15244 0
M  V30 38264 C 3558.09 -1.98587 -2.78314 0
M  V30 38265 O 3558 -2.98134 -2.08835 0
M  V30 38266 N 3558.05 -0.714467 -2.24925 0
M  V30 38267 C 3558.14 0.470001 -2.94169 0
M  V30 38268 C 3558.29 0.312541 -4.36783 0
M  V30 38269 C 3558.34 -0.914512 -4.92583 0
M  V30 38270 H 3561.08 -3.41169 -7.98575 0
M  V30 38271 H 3561.35 -2.58295 -6.41556 0
M  V30 38272 H 3560.48 -5.02657 -6.42673 0
M  V30 38273 H 3557.83 -4.11637 -4.08885 0
M  V30 38274 H 3557.55 -2.49626 -6.61679 0
M  V30 38275 H 3556.56 -3.86566 -6.00778 0
M  V30 38276 H 3558.39 -4.29943 -7.96918 0
M  V30 38277 H 3558.46 -1.00937 -6.00374 0
M  V30 38278 P 3556.52 -6.144 -6.45285 0
M  V30 38279 O 3556.3 -7.54673 -6.86199 0
M  V30 38280 O 3555.73 -5.12391 -7.179 0
M  V30 38281 O 3556.27 -5.99158 -4.88404 0
M  V30 38282 C 3557.21 -6.60062 -3.96313 0
M  V30 38283 C 3556.48 -7.08259 -2.72856 0
M  V30 38284 O 3556.27 -5.9427 -1.83651 0
M  V30 38285 C 3555.08 -7.65087 -2.94749 0
M  V30 38286 O 3554.69 -8.53963 -1.90717 0
M  V30 38287 C 3554.2 -6.41069 -2.90698 0
M  V30 38288 C 3554.91 -5.5528 -1.86931 0
M  V30 38289 N 3554.86 -4.09575 -2.15696 0
M  V30 38290 C 3554.71 -3.24249 -1.08435 0
M  V30 38291 O 3554.62 -3.63946 0.0628747 0
M  V30 38292 N 3554.67 -1.90009 -1.39973 0
M  V30 38293 C 3554.76 -1.34884 -2.65614 0
M  V30 38294 O 3554.71 -0.123716 -2.81728 0
M  V30 38295 C 3554.91 -2.3145 -3.71736 0
M  V30 38296 C 3555.02 -1.75913 -5.10438 0
M  V30 38297 C 3554.96 -3.63518 -3.44754 0
M  V30 38298 H 3557.7 -7.45402 -4.45526 0
M  V30 38299 H 3557.97 -5.86062 -3.67208 0
M  V30 38300 H 3557.1 -7.84412 -2.24479 0
M  V30 38301 H 3554.45 -5.73358 -0.888409 0
M  V30 38302 H 3554.17 -5.90877 -3.88583 0
M  V30 38303 H 3553.18 -6.65867 -2.58821 0
M  V30 38304 H 3555.01 -8.16248 -3.92006 0
M  V30 38305 H 3555.08 -4.34551 -4.26383 0
M  V30 38306 H 3554.05 -1.85471 -5.61775 0
M  V30 38307 H 3555.79 -2.31364 -5.66257 0
M  V30 38308 H 3555.3 -0.695936 -5.05229 0
M  V30 38309 H 3554.56 -1.26277 -0.63625 0
M  V30 38310 P 3553.14 -8.7635 -1.60911 0
M  V30 38311 O 3552.92 -10.1388 -1.11561 0
M  V30 38312 O 3552.35 -8.36503 -2.79617 0
M  V30 38313 O 3552.89 -7.71806 -0.42951 0
M  V30 38314 C 3553.83 -7.67148 0.673689 0
M  V30 38315 C 3553.1 -7.33374 1.95559 0
M  V30 38316 O 3552.89 -5.88721 2.00726 0
M  V30 38317 C 3551.7 -7.92526 2.10483 0
M  V30 38318 O 3551.31 -8.02971 3.47653 0
M  V30 38319 C 3550.82 -6.89602 1.41652 0
M  V30 38320 C 3551.53 -5.59201 1.75185 0
M  V30 38321 N 3551.48 -4.58235 0.662552 0
M  V30 38322 H 3554.32 -8.65116 0.777161 0
M  V30 38323 H 3554.59 -6.90173 0.474152 0
M  V30 38324 H 3553.72 -7.66548 2.79458 0
M  V30 38325 P 3549.76 -8.03563 3.84925 0
M  V30 38326 O 3549.54 -8.85821 5.0569 0
M  V30 38327 O 3548.97 -8.41101 2.65469 0
M  V30 38328 O 3549.51 -6.4965 4.18908 0
M  V30 38329 C 3550.45 -5.81037 5.05421 0
M  V30 38330 C 3549.72 -4.78366 5.89277 0
M  V30 38331 O 3549.51 -3.58302 5.08433 0
M  V30 38332 C 3548.32 -5.17448 6.36119 0
M  V30 38333 O 3547.93 -4.45271 7.53232 0
M  V30 38334 C 3547.44 -4.74639 5.19936 0
M  V30 38335 C 3548.15 -3.49432 4.70418 0
M  V30 38336 N 3548.1 -3.31776 3.22945 0
M  V30 38337 H 3550.94 -6.54213 5.71376 0
M  V30 38338 H 3551.21 -5.30492 4.44033 0
M  V30 38339 H 3550.34 -4.55889 6.76652 0
M  V30 38340 P 3546.38 -4.23843 7.83734 0
M  V30 38341 O 3546.16 -4.19407 9.29784 0
M  V30 38342 O 3545.59 -5.24426 7.09156 0
M  V30 38343 O 3546.13 -2.7935 7.20758 0
M  V30 38344 C 3547.07 -1.7299 7.50419 0
M  V30 38345 C 3546.34 -0.406376 7.57911 0
M  V30 38346 O 3546.13 0.0897726 6.21935 0
M  V30 38347 C 3544.94 -0.447224 8.1878 0
M  V30 38348 O 3544.55 0.825065 8.71101 0
M  V30 38349 C 3544.06 -0.783801 6.99623 0
M  V30 38350 C 3544.77 -0.0619192 5.85967 0
M  V30 38351 N 3544.72 -0.7859 4.56281 0
M  V30 38352 H 3547.56 -1.93423 8.4679 0
M  V30 38353 H 3547.83 -1.68181 6.71046 0
M  V30 38354 H 3546.96 0.289041 8.15388 0
M  V30 38355 P 3543 1.17771 8.83182 0
M  V30 38356 O 3542.78 2.07206 9.98732 0
M  V30 38357 O 3542.21 -0.0743816 8.81969 0
M  V30 38358 O 3542.75 1.97652 7.47304 0
M  V30 38359 C 3543.69 3.01133 7.08783 0
M  V30 38360 C 3542.96 4.12613 6.37049 0
M  V30 38361 O 3542.75 3.72827 4.97879 0
M  V30 38362 C 3541.56 4.45085 6.88694 0
M  V30 38363 O 3541.17 5.7877 6.5624 0
M  V30 38364 C 3540.68 3.47817 6.12078 0
M  V30 38365 C 3541.39 3.39414 4.77697 0
M  V30 38366 N 3541.34 2.04615 4.15333 0
M  V30 38367 H 3544.18 3.41248 7.98759 0
M  V30 38368 H 3544.45 2.5837 6.41742 0
M  V30 38369 H 3543.58 5.02657 6.42673 0
M  V30 38370 P 3539.62 6.144 6.45285 0
M  V30 38371 O 3539.4 7.54673 6.86199 0
M  V30 38372 O 3538.83 5.12391 7.179 0
M  V30 38373 O 3539.37 5.99158 4.88404 0
M  V30 38374 C 3540.31 6.60234 3.96415 0
M  V30 38375 C 3539.58 7.08259 2.72856 0
M  V30 38376 O 3539.37 5.9427 1.83651 0
M  V30 38377 C 3538.18 7.64886 2.9555 0
M  V30 38378 O 3537.79 8.53963 1.90717 0
M  V30 38379 C 3537.3 6.4116 2.90739 0
M  V30 38380 C 3538.01 5.55375 1.86963 0
M  V30 38381 N 3537.96 4.09448 2.16152 0
M  V30 38382 H 3540.8 7.45574 4.45629 0
M  V30 38383 H 3541.07 5.85864 3.679 0
M  V30 38384 H 3540.2 7.84412 2.24479 0
M  V30 38385 H 3537.55 5.73457 0.888562 0
M  V30 38386 H 3537.27 5.90877 3.88583 0
M  V30 38387 H 3536.28 6.6596 2.58858 0
M  V30 38388 H 3538.11 8.16339 3.92049 0
M  V30 38389 P 3536.24 8.7635 1.60911 0
M  V30 38390 O 3536.02 10.1388 1.11561 0
M  V30 38391 O 3535.45 8.36503 2.79617 0
M  V30 38392 O 3535.99 7.71806 0.42951 0
M  V30 38393 C 3536.93 7.66948 -0.673514 0
M  V30 38394 C 3536.2 7.33374 -1.95559 0
M  V30 38395 O 3535.99 5.88721 -2.00726 0
M  V30 38396 C 3534.8 7.92218 -2.1125 0
M  V30 38397 O 3534.41 8.02971 -3.47653 0
M  V30 38398 C 3533.92 6.89504 -1.41631 0
M  V30 38399 C 3534.63 5.59106 -1.75155 0
M  V30 38400 N 3534.58 4.58136 -0.662409 0
M  V30 38401 C 3534.43 3.26059 -1.02863 0
M  V30 38402 O 3534.34 2.90743 -2.19009 0
M  V30 38403 N 3534.39 2.35995 0.0155585 0
M  V30 38404 C 3534.48 2.65248 1.35603 0
M  V30 38405 O 3534.43 1.75605 2.20651 0
M  V30 38406 C 3534.63 4.05747 1.64698 0
M  V30 38407 C 3534.74 4.42345 3.09553 0
M  V30 38408 C 3534.68 4.96734 0.652411 0
M  V30 38409 H 3537.42 8.64917 -0.776982 0
M  V30 38410 H 3537.69 6.89974 -0.474015 0
M  V30 38411 H 3536.82 7.66548 -2.79458 0
M  V30 38412 H 3534.17 5.16076 -2.65138 0
M  V30 38413 H 3533.89 7.06433 -0.329384 0
M  V30 38414 H 3532.9 6.90829 -1.81996 0
M  V30 38415 H 3534.73 8.90774 -1.62639 0
M  V30 38416 H 3534.8 6.02181 0.895285 0
M  V30 38417 H 3533.77 4.80252 3.45468 0
M  V30 38418 H 3535.51 5.20015 3.22119 0
M  V30 38419 H 3535.02 3.53269 3.67833 0
M  V30 38420 H 3534.28 1.39558 -0.227499 0
M  V30 38421 P 3532.86 8.03563 -3.84925 0
M  V30 38422 O 3532.64 8.85821 -5.0569 0
M  V30 38423 O 3532.07 8.41101 -2.65469 0
M  V30 38424 O 3532.61 6.4965 -4.18908 0
M  V30 38425 C 3533.55 5.81037 -5.05421 0
M  V30 38426 C 3532.82 4.78366 -5.89277 0
M  V30 38427 O 3532.61 3.58302 -5.08433 0
M  V30 38428 C 3531.42 5.17448 -6.36119 0
M  V30 38429 O 3531.03 4.45271 -7.53232 0
M  V30 38430 C 3530.54 4.74639 -5.19936 0
M  V30 38431 C 3531.25 3.49432 -4.70418 0
M  V30 38432 N 3531.2 3.32099 -3.22613 0
M  V30 38433 H 3534.04 6.54213 -5.71376 0
M  V30 38434 H 3534.31 5.30936 -4.43503 0
M  V30 38435 H 3533.44 4.55889 -6.76652 0
M  V30 38436 H 3530.79 2.61715 -5.17932 0
M  V30 38437 H 3530.51 5.52155 -4.41878 0
M  V30 38438 H 3529.52 4.51981 -5.53374 0
M  V30 38439 H 3531.35 6.25124 -6.55234 0
M  V30 38440 P 3529.48 4.23843 -7.83734 0
M  V30 38441 O 3529.26 4.19407 -9.29784 0
M  V30 38442 O 3528.69 5.24426 -7.09156 0
M  V30 38443 O 3529.23 2.7935 -7.20758 0
M  V30 38444 C 3530.17 1.7299 -7.50419 0
M  V30 38445 C 3529.44 0.406376 -7.57911 0
M  V30 38446 O 3529.23 -0.0897726 -6.21935 0
M  V30 38447 C 3528.04 0.447224 -8.1878 0
M  V30 38448 O 3527.65 -0.825065 -8.71101 0
M  V30 38449 C 3527.16 0.783801 -6.99623 0
M  V30 38450 C 3527.87 0.0619192 -5.85967 0
M  V30 38451 N 3527.82 0.7859 -4.56281 0
M  V30 38452 H 3530.66 1.93423 -8.4679 0
M  V30 38453 H 3530.93 1.68181 -6.71046 0
M  V30 38454 H 3530.06 -0.289041 -8.15388 0
M  V30 38455 P 3526.1 -1.17771 -8.83182 0
M  V30 38456 O 3525.88 -2.07206 -9.98732 0
M  V30 38457 O 3525.31 0.0743816 -8.81969 0
M  V30 38458 O 3525.85 -1.97652 -7.47304 0
M  V30 38459 C 3526.79 -3.01055 -7.08599 0
M  V30 38460 C 3526.06 -4.12613 -6.37049 0
M  V30 38461 O 3525.85 -3.72827 -4.97879 0
M  V30 38462 C 3524.66 -4.45719 -6.88164 0
M  V30 38463 O 3524.27 -5.7877 -6.5624 0
M  V30 38464 C 3523.78 -3.47768 -6.11991 0
M  V30 38465 C 3524.49 -3.39356 -4.77615 0
M  V30 38466 N 3524.44 -2.04571 -4.15244 0
M  V30 38467 C 3524.29 -1.98587 -2.78314 0
M  V30 38468 O 3524.2 -2.98134 -2.08835 0
M  V30 38469 N 3524.25 -0.714467 -2.24925 0
M  V30 38470 C 3524.34 0.470001 -2.94169 0
M  V30 38471 O 3524.29 1.55587 -2.35195 0
M  V30 38472 C 3524.49 0.312541 -4.36783 0
M  V30 38473 C 3524.6 1.57711 -5.16352 0
M  V30 38474 C 3524.54 -0.914512 -4.92583 0
M  V30 38475 H 3527.28 -3.41169 -7.98575 0
M  V30 38476 H 3527.55 -2.58295 -6.41556 0
M  V30 38477 H 3526.68 -5.02657 -6.42673 0
M  V30 38478 H 3524.03 -4.11637 -4.08885 0
M  V30 38479 H 3523.75 -2.49626 -6.61679 0
M  V30 38480 H 3522.76 -3.86566 -6.00778 0
M  V30 38481 H 3524.59 -4.29943 -7.96918 0
M  V30 38482 H 3524.66 -1.00937 -6.00374 0
M  V30 38483 H 3523.63 1.80153 -5.63503 0
M  V30 38484 H 3525.37 1.4566 -5.94104 0
M  V30 38485 H 3524.88 2.40664 -4.49645 0
M  V30 38486 H 3524.14 -0.647622 -1.25697 0
M  V30 38487 P 3522.72 -6.144 -6.45285 0
M  V30 38488 O 3522.5 -7.54673 -6.86199 0
M  V30 38489 O 3521.93 -5.12391 -7.179 0
M  V30 38490 O 3522.47 -5.99236 -4.88467 0
M  V30 38491 C 3523.41 -6.60234 -3.96415 0
M  V30 38492 C 3522.68 -7.08079 -2.736 0
M  V30 38493 O 3522.47 -5.94365 -1.8368 0
M  V30 38494 C 3521.28 -7.64886 -2.9555 0
M  V30 38495 O 3520.89 -8.5406 -1.90739 0
M  V30 38496 C 3520.4 -6.4116 -2.90739 0
M  V30 38497 C 3521.11 -5.55375 -1.86963 0
M  V30 38498 N 3521.06 -4.09664 -2.15742 0
M  V30 38499 C 3520.91 -3.22231 -1.08477 0
M  V30 38500 O 3520.82 -3.68951 0.0600489 0
M  V30 38501 N 3520.86 -1.76692 -1.48799 0
M  V30 38502 C 3520.96 -1.41695 -2.57602 0
M  V30 38503 N 3520.91 -0.107296 -2.75791 0
M  V30 38504 C 3521.11 -2.29178 -3.69733 0
M  V30 38505 C 3521.16 -3.62753 -3.42653 0
M  V30 38506 H 3523.9 -7.45488 -4.45578 0
M  V30 38507 H 3524.17 -5.86232 -3.67314 0
M  V30 38508 H 3523.3 -7.84508 -2.24507 0
M  V30 38509 H 3520.65 -5.73556 -0.888715 0
M  V30 38510 H 3520.37 -5.9096 -3.88638 0
M  V30 38511 H 3519.38 -6.66053 -2.58894 0
M  V30 38512 H 3521.21 -8.16339 -3.92049 0
M  V30 38513 H 3521.28 -4.33052 -4.24913 0
M  V30 38514 H 3521.18 -1.9103 -4.71577 0
M  V30 38515 H 3520.79 0.521221 -1.95056 0
M  V30 38516 H 3520.99 0.286429 -3.70695 0
M  V30 38517 P 3519.34 -8.7635 -1.60911 0
M  V30 38518 O 3519.12 -10.1388 -1.11561 0
M  V30 38519 O 3518.55 -8.36503 -2.79617 0
M  V30 38520 O 3519.09 -7.71806 -0.42951 0
M  V30 38521 C 3520.03 -7.67148 0.673689 0
M  V30 38522 C 3519.3 -7.33374 1.95559 0
M  V30 38523 O 3519.09 -5.88721 2.00726 0
M  V30 38524 C 3517.9 -7.92526 2.10483 0
M  V30 38525 O 3517.51 -8.02971 3.47653 0
M  V30 38526 C 3517.02 -6.89602 1.41652 0
M  V30 38527 C 3517.73 -5.59201 1.75185 0
M  V30 38528 N 3517.68 -4.58235 0.662552 0
M  V30 38529 H 3520.52 -8.65116 0.777161 0
M  V30 38530 H 3520.79 -6.90173 0.474152 0
M  V30 38531 H 3519.92 -7.66548 2.79458 0
M  V30 38532 P 3515.96 -8.03563 3.84925 0
M  V30 38533 O 3515.74 -8.85821 5.0569 0
M  V30 38534 O 3515.17 -8.41101 2.65469 0
M  V30 38535 O 3515.71 -6.4965 4.18908 0
M  V30 38536 C 3516.65 -5.81037 5.05421 0
M  V30 38537 C 3515.92 -4.78366 5.89277 0
M  V30 38538 O 3515.71 -3.58302 5.08433 0
M  V30 38539 C 3514.52 -5.17448 6.36119 0
M  V30 38540 O 3514.13 -4.45271 7.53232 0
M  V30 38541 C 3513.64 -4.74639 5.19936 0
M  V30 38542 C 3514.35 -3.49432 4.70418 0
M  V30 38543 N 3514.3 -3.31776 3.22945 0
M  V30 38544 H 3517.14 -6.54213 5.71376 0
M  V30 38545 H 3517.41 -5.30492 4.44033 0
M  V30 38546 H 3516.54 -4.55889 6.76652 0
M  V30 38547 P 3512.58 -4.23843 7.83734 0
M  V30 38548 O 3512.36 -4.19407 9.29784 0
M  V30 38549 O 3511.79 -5.24426 7.09156 0
M  V30 38550 O 3512.33 -2.79386 7.20852 0
M  V30 38551 C 3513.27 -1.7299 7.50419 0
M  V30 38552 C 3512.54 -0.41401 7.5797 0
M  V30 38553 O 3512.33 0.089787 6.22035 0
M  V30 38554 C 3511.14 -0.447224 8.1878 0
M  V30 38555 O 3510.75 0.825159 8.71201 0
M  V30 38556 C 3510.26 -0.783801 6.99623 0
M  V30 38557 C 3510.97 -0.0619192 5.85967 0
M  V30 38558 N 3510.92 -0.7859 4.56281 0
M  V30 38559 C 3510.77 -0.0359258 3.39981 0
M  V30 38560 O 3510.68 1.19723 3.49038 0
M  V30 38561 N 3510.72 -0.869151 2.14025 0
M  V30 38562 C 3510.82 -2.01207 2.14363 0
M  V30 38563 N 3510.77 -2.58978 0.954287 0
M  V30 38564 C 3510.97 -2.80817 3.32215 0
M  V30 38565 C 3511.02 -2.13785 4.50884 0
M  V30 38566 H 3513.76 -1.93401 8.46693 0
M  V30 38567 H 3514.03 -1.68181 6.71046 0
M  V30 38568 H 3513.16 0.289076 8.15488 0
M  V30 38569 H 3510.51 0.927166 5.72947 0
M  V30 38570 H 3510.23 -1.87 6.82132 0
M  V30 38571 H 3509.24 -0.404009 7.13457 0
M  V30 38572 H 3511.07 -1.20599 8.97534 0
M  V30 38573 H 3511.14 -2.70295 5.43162 0
M  V30 38574 H 3511.04 -3.89465 3.27406 0
M  V30 38575 H 3510.65 -2.01616 0.107046 0
M  V30 38576 H 3510.85 -3.61403 0.873101 0
M  V30 38577 P 3509.2 1.17771 8.83182 0
M  V30 38578 O 3508.98 2.07206 9.98732 0
M  V30 38579 O 3508.41 -0.0743816 8.81969 0
M  V30 38580 O 3508.95 1.97652 7.47304 0
M  V30 38581 C 3509.89 3.01133 7.08783 0
M  V30 38582 C 3509.16 4.12613 6.37049 0
M  V30 38583 O 3508.95 3.72827 4.97879 0
M  V30 38584 C 3507.76 4.45085 6.88694 0
M  V30 38585 O 3507.37 5.7877 6.5624 0
M  V30 38586 C 3506.88 3.47817 6.12078 0
M  V30 38587 C 3507.59 3.39414 4.77697 0
M  V30 38588 N 3507.54 2.04615 4.15333 0
M  V30 38589 H 3510.38 3.41248 7.98759 0
M  V30 38590 H 3510.65 2.5837 6.41742 0
M  V30 38591 H 3509.78 5.02657 6.42673 0
M  V30 38592 P 3505.82 6.144 6.45285 0
M  V30 38593 O 3505.6 7.54673 6.86199 0
M  V30 38594 O 3505.03 5.12391 7.179 0
M  V30 38595 O 3505.57 5.99158 4.88404 0
M  V30 38596 C 3506.51 6.60234 3.96415 0
M  V30 38597 C 3505.78 7.08259 2.72856 0
M  V30 38598 O 3505.57 5.9427 1.83651 0
M  V30 38599 C 3504.38 7.64886 2.9555 0
M  V30 38600 O 3503.99 8.53963 1.90717 0
M  V30 38601 C 3503.5 6.4116 2.90739 0
M  V30 38602 C 3504.21 5.55375 1.86963 0
M  V30 38603 N 3504.16 4.09664 2.15742 0
M  V30 38604 H 3507 7.45574 4.45629 0
M  V30 38605 H 3507.27 5.86232 3.67314 0
M  V30 38606 H 3506.4 7.84412 2.24479 0
M  V30 38607 P 3502.44 8.7635 1.60911 0
M  V30 38608 O 3502.22 10.1388 1.11561 0
M  V30 38609 O 3501.65 8.36503 2.79617 0
M  V30 38610 O 3502.19 7.71806 0.42951 0
M  V30 38611 C 3503.13 7.67148 -0.673689 0
M  V30 38612 C 3502.4 7.33374 -1.95559 0
M  V30 38613 O 3502.19 5.88721 -2.00726 0
M  V30 38614 C 3501 7.92526 -2.10483 0
M  V30 38615 O 3500.61 8.02971 -3.47653 0
M  V30 38616 C 3500.12 6.89602 -1.41652 0
M  V30 38617 C 3500.83 5.59201 -1.75185 0
M  V30 38618 N 3500.78 4.58235 -0.662552 0
M  V30 38619 H 3503.62 8.65116 -0.777161 0
M  V30 38620 H 3503.89 6.90173 -0.474152 0
M  V30 38621 H 3503.02 7.66548 -2.79458 0
M  V30 38622 P 3499.06 8.03563 -3.84925 0
M  V30 38623 O 3498.84 8.85821 -5.0569 0
M  V30 38624 O 3498.27 8.41101 -2.65469 0
M  V30 38625 O 3498.81 6.4965 -4.18908 0
M  V30 38626 C 3499.75 5.81037 -5.05421 0
M  V30 38627 C 3499.02 4.78366 -5.89277 0
M  V30 38628 O 3498.81 3.58302 -5.08433 0
M  V30 38629 C 3497.62 5.17448 -6.36119 0
M  V30 38630 O 3497.23 4.45271 -7.53232 0
M  V30 38631 C 3496.74 4.74639 -5.19936 0
M  V30 38632 C 3497.45 3.49432 -4.70418 0
M  V30 38633 N 3497.4 3.31776 -3.22945 0
M  V30 38634 H 3500.24 6.54213 -5.71376 0
M  V30 38635 H 3500.51 5.30492 -4.44033 0
M  V30 38636 H 3499.64 4.55889 -6.76652 0
M  V30 38637 P 3495.68 4.23843 -7.83734 0
M  V30 38638 O 3495.46 4.19407 -9.29784 0
M  V30 38639 O 3494.89 5.24426 -7.09156 0
M  V30 38640 O 3495.43 2.7935 -7.20758 0
M  V30 38641 C 3496.37 1.7299 -7.50419 0
M  V30 38642 C 3495.64 0.406376 -7.57911 0
M  V30 38643 O 3495.43 -0.0897726 -6.21935 0
M  V30 38644 C 3494.24 0.447224 -8.1878 0
M  V30 38645 O 3493.85 -0.825065 -8.71101 0
M  V30 38646 C 3493.36 0.783801 -6.99623 0
M  V30 38647 C 3494.07 0.0619192 -5.85967 0
M  V30 38648 N 3494.02 0.790462 -4.56202 0
M  V30 38649 H 3496.86 1.93423 -8.4679 0
M  V30 38650 H 3497.13 1.68852 -6.70877 0
M  V30 38651 H 3496.26 -0.289041 -8.15388 0
M  V30 38652 H 3493.61 -0.927006 -5.72848 0
M  V30 38653 H 3493.33 1.86973 -6.82036 0
M  V30 38654 H 3492.34 0.403953 -7.13357 0
M  V30 38655 H 3494.17 1.20599 -8.97534 0
M  V30 38656 P 3492.3 -1.17771 -8.83182 0
M  V30 38657 O 3492.08 -2.07206 -9.98732 0
M  V30 38658 O 3491.51 0.0743816 -8.81969 0
M  V30 38659 O 3492.05 -1.97652 -7.47304 0
M  V30 38660 C 3492.99 -3.01055 -7.08599 0
M  V30 38661 C 3492.26 -4.12613 -6.37049 0
M  V30 38662 O 3492.05 -3.72827 -4.97879 0
M  V30 38663 C 3490.86 -4.45719 -6.88164 0
M  V30 38664 O 3490.47 -5.7877 -6.5624 0
M  V30 38665 C 3489.98 -3.47768 -6.11991 0
M  V30 38666 C 3490.69 -3.39356 -4.77615 0
M  V30 38667 N 3490.64 -2.04571 -4.15244 0
M  V30 38668 C 3490.49 -1.98587 -2.78314 0
M  V30 38669 O 3490.4 -2.98134 -2.08835 0
M  V30 38670 N 3490.45 -0.714467 -2.24925 0
M  V30 38671 C 3490.54 0.470001 -2.94169 0
M  V30 38672 C 3490.69 0.312541 -4.36783 0
M  V30 38673 C 3490.74 -0.914512 -4.92583 0
M  V30 38674 H 3493.48 -3.41169 -7.98575 0
M  V30 38675 H 3493.75 -2.58295 -6.41556 0
M  V30 38676 H 3492.88 -5.02657 -6.42673 0
M  V30 38677 H 3490.23 -4.11637 -4.08885 0
M  V30 38678 H 3489.95 -2.49626 -6.61679 0
M  V30 38679 H 3488.96 -3.86566 -6.00778 0
M  V30 38680 H 3490.79 -4.29943 -7.96918 0
M  V30 38681 H 3490.86 -1.00937 -6.00374 0
M  V30 38682 P 3488.92 -6.144 -6.45285 0
M  V30 38683 O 3488.7 -7.54673 -6.86199 0
M  V30 38684 O 3488.13 -5.12391 -7.179 0
M  V30 38685 O 3488.67 -5.99158 -4.88404 0
M  V30 38686 C 3489.61 -6.60234 -3.96415 0
M  V30 38687 C 3488.88 -7.08259 -2.72856 0
M  V30 38688 O 3488.67 -5.9427 -1.83651 0
M  V30 38689 C 3487.48 -7.64886 -2.9555 0
M  V30 38690 O 3487.09 -8.53963 -1.90717 0
M  V30 38691 C 3486.6 -6.4116 -2.90739 0
M  V30 38692 C 3487.31 -5.55375 -1.86963 0
M  V30 38693 N 3487.26 -4.09664 -2.15742 0
M  V30 38694 H 3490.1 -7.45574 -4.45629 0
M  V30 38695 H 3490.37 -5.86232 -3.67314 0
M  V30 38696 H 3489.5 -7.84412 -2.24479 0
M  V30 38697 P 3485.54 -8.7635 -1.60911 0
M  V30 38698 O 3485.32 -10.1388 -1.11561 0
M  V30 38699 O 3484.75 -8.36503 -2.79617 0
M  V30 38700 O 3485.29 -7.71906 -0.429565 0
M  V30 38701 C 3486.23 -7.67148 0.673689 0
M  V30 38702 C 3485.5 -7.33666 1.94851 0
M  V30 38703 O 3485.29 -5.88816 2.00759 0
M  V30 38704 C 3484.1 -7.92526 2.10483 0
M  V30 38705 O 3483.71 -8.03063 3.47693 0
M  V30 38706 C 3483.22 -6.89602 1.41652 0
M  V30 38707 C 3483.93 -5.59201 1.75185 0
M  V30 38708 N 3483.88 -4.58235 0.662552 0
M  V30 38709 C 3483.73 -3.24451 1.01643 0
M  V30 38710 O 3483.64 -2.94958 2.21722 0
M  V30 38711 N 3483.68 -2.30408 -0.165238 0
M  V30 38712 C 3483.78 -2.66048 -1.25118 0
M  V30 38713 N 3483.73 -1.70787 -2.16813 0
M  V30 38714 C 3483.93 -4.02732 -1.64413 0
M  V30 38715 C 3483.98 -4.9488 -0.63991 0
M  V30 38716 H 3486.72 -8.65017 0.777072 0
M  V30 38717 H 3486.99 -6.90173 0.474152 0
M  V30 38718 H 3486.12 -7.66642 2.79492 0
M  V30 38719 H 3483.47 -5.16254 2.65229 0
M  V30 38720 H 3483.19 -7.06532 0.329431 0
M  V30 38721 H 3482.2 -6.91023 1.82047 0
M  V30 38722 H 3484.03 -8.90873 1.62657 0
M  V30 38723 H 3484.1 -6.00104 -0.892197 0
M  V30 38724 H 3484 -4.31733 -2.69229 0
M  V30 38725 H 3483.61 -0.724835 -1.8844 0
M  V30 38726 H 3483.81 -1.94716 -3.16734 0
M  V30 38727 P 3482.16 -8.03563 3.84925 0
M  V30 38728 O 3481.94 -8.85821 5.0569 0
M  V30 38729 O 3481.37 -8.41101 2.65469 0
M  V30 38730 O 3481.91 -6.4965 4.18908 0
M  V30 38731 C 3482.85 -5.81037 5.05421 0
M  V30 38732 C 3482.12 -4.78366 5.89277 0
M  V30 38733 O 3481.91 -3.58302 5.08433 0
M  V30 38734 C 3480.72 -5.17448 6.36119 0
M  V30 38735 O 3480.33 -4.45271 7.53232 0
M  V30 38736 C 3479.84 -4.74639 5.19936 0
M  V30 38737 C 3480.55 -3.49432 4.70418 0
M  V30 38738 N 3480.5 -3.31776 3.22945 0
M  V30 38739 C 3480.58 -4.27147 2.23315 0
M  V30 38740 N 3480.5 -3.78447 1.02186 0
M  V30 38741 C 3480.36 -2.41001 1.21732 0
M  V30 38742 C 3480.23 -1.36111 0.27694 0
M  V30 38743 N 3480.11 -0.113683 0.912949 0
M  V30 38744 C 3480.11 0.0846396 2.27943 0
M  V30 38745 N 3479.98 1.34737 2.6916 0
M  V30 38746 N 3480.24 -0.902521 3.16379 0
M  V30 38747 C 3480.36 -2.11937 2.56849 0
M  V30 38748 H 3483.34 -6.54213 5.71376 0
M  V30 38749 H 3483.61 -5.30492 4.44033 0
M  V30 38750 H 3482.74 -4.55889 6.76652 0
M  V30 38751 P 3478.78 -4.23843 7.83734 0
M  V30 38752 O 3478.56 -4.19407 9.29784 0
M  V30 38753 O 3477.99 -5.24426 7.09156 0
M  V30 38754 O 3478.53 -2.7935 7.20758 0
M  V30 38755 C 3479.47 -1.7299 7.50419 0
M  V30 38756 C 3478.74 -0.406376 7.57911 0
M  V30 38757 O 3478.53 0.0897726 6.21935 0
M  V30 38758 C 3477.34 -0.447224 8.1878 0
M  V30 38759 O 3476.95 0.825065 8.71101 0
M  V30 38760 C 3476.46 -0.783801 6.99623 0
M  V30 38761 C 3477.17 -0.0619192 5.85967 0
M  V30 38762 N 3477.12 -0.7859 4.56281 0
M  V30 38763 C 3477.2 -2.14308 4.31736 0
M  V30 38764 N 3477.12 -2.46106 3.05116 0
M  V30 38765 C 3476.98 -1.23422 2.4014 0
M  V30 38766 C 3476.85 -0.938381 1.02409 0
M  V30 38767 N 3476.73 0.444647 0.805413 0
M  V30 38768 C 3476.73 1.40829 1.79435 0
M  V30 38769 N 3476.6 2.67213 1.38558 0
M  V30 38770 N 3476.86 1.12947 3.09005 0
M  V30 38771 C 3476.98 -0.204887 3.32369 0
M  V30 38772 H 3479.96 -1.93423 8.4679 0
M  V30 38773 H 3480.23 -1.68181 6.71046 0
M  V30 38774 H 3479.36 0.289041 8.15388 0
M  V30 38775 P 3475.4 1.17771 8.83182 0
M  V30 38776 O 3475.18 2.07206 9.98732 0
M  V30 38777 O 3474.61 -0.0743816 8.81969 0
M  V30 38778 O 3475.15 1.97652 7.47304 0
M  V30 38779 C 3476.09 3.01133 7.08783 0
M  V30 38780 C 3475.36 4.12613 6.37049 0
M  V30 38781 O 3475.15 3.72827 4.97879 0
M  V30 38782 C 3473.96 4.45085 6.88694 0
M  V30 38783 O 3473.57 5.7877 6.5624 0
M  V30 38784 C 3473.08 3.47817 6.12078 0
M  V30 38785 C 3473.79 3.39414 4.77697 0
M  V30 38786 N 3473.74 2.04199 4.15538 0
M  V30 38787 H 3476.58 3.41248 7.98759 0
M  V30 38788 H 3476.85 2.57728 6.42 0
M  V30 38789 H 3475.98 5.02657 6.42673 0
M  V30 38790 H 3473.33 4.11708 4.08956 0
M  V30 38791 H 3473.05 2.49626 6.61679 0
M  V30 38792 H 3472.06 3.8662 6.00862 0
M  V30 38793 H 3473.89 4.29991 7.97006 0
M  V30 38794 P 3472.02 6.144 6.45285 0
M  V30 38795 O 3471.8 7.54673 6.86199 0
M  V30 38796 O 3471.23 5.12391 7.179 0
M  V30 38797 O 3471.77 5.99158 4.88404 0
M  V30 38798 C 3472.71 6.60234 3.96415 0
M  V30 38799 C 3471.98 7.08259 2.72856 0
M  V30 38800 O 3471.77 5.9427 1.83651 0
M  V30 38801 C 3470.58 7.64886 2.9555 0
M  V30 38802 O 3470.19 8.53963 1.90717 0
M  V30 38803 C 3469.7 6.4116 2.90739 0
M  V30 38804 C 3470.41 5.55375 1.86963 0
M  V30 38805 N 3470.36 4.09664 2.15742 0
M  V30 38806 H 3473.2 7.45574 4.45629 0
M  V30 38807 H 3473.47 5.86232 3.67314 0
M  V30 38808 H 3472.6 7.84412 2.24479 0
M  V30 38809 P 3468.64 8.7635 1.60911 0
M  V30 38810 O 3468.42 10.1388 1.11561 0
M  V30 38811 O 3467.85 8.36503 2.79617 0
M  V30 38812 O 3468.39 7.71806 0.42951 0
M  V30 38813 C 3469.33 7.66948 -0.673514 0
M  V30 38814 C 3468.6 7.33374 -1.95559 0
M  V30 38815 O 3468.39 5.88721 -2.00726 0
M  V30 38816 C 3467.2 7.92218 -2.1125 0
M  V30 38817 O 3466.81 8.02971 -3.47653 0
M  V30 38818 C 3466.32 6.89504 -1.41631 0
M  V30 38819 C 3467.03 5.59106 -1.75155 0
M  V30 38820 N 3466.98 4.58136 -0.662409 0
M  V30 38821 C 3466.83 3.26059 -1.02863 0
M  V30 38822 O 3466.74 2.90743 -2.19009 0
M  V30 38823 N 3466.79 2.35995 0.0155585 0
M  V30 38824 C 3466.88 2.65248 1.35603 0
M  V30 38825 C 3467.03 4.05747 1.64698 0
M  V30 38826 C 3467.08 4.96734 0.652411 0
M  V30 38827 H 3469.82 8.64917 -0.776982 0
M  V30 38828 H 3470.09 6.89974 -0.474015 0
M  V30 38829 H 3469.22 7.66548 -2.79458 0
M  V30 38830 H 3466.57 5.16076 -2.65138 0
M  V30 38831 H 3466.29 7.06433 -0.329384 0
M  V30 38832 H 3465.3 6.90829 -1.81996 0
M  V30 38833 H 3467.13 8.90774 -1.62639 0
M  V30 38834 H 3467.2 6.02181 0.895285 0
M  V30 38835 P 3465.26 8.03563 -3.84925 0
M  V30 38836 O 3465.04 8.85821 -5.0569 0
M  V30 38837 O 3464.47 8.41101 -2.65469 0
M  V30 38838 O 3465.01 6.4965 -4.18908 0
M  V30 38839 C 3465.95 5.81037 -5.05421 0
M  V30 38840 C 3465.22 4.78366 -5.89277 0
M  V30 38841 O 3465.01 3.58302 -5.08433 0
M  V30 38842 C 3463.82 5.17448 -6.36119 0
M  V30 38843 O 3463.43 4.45271 -7.53232 0
M  V30 38844 C 3462.94 4.74639 -5.19936 0
M  V30 38845 C 3463.65 3.49432 -4.70418 0
M  V30 38846 N 3463.6 3.31776 -3.22945 0
M  V30 38847 H 3466.44 6.54213 -5.71376 0
M  V30 38848 H 3466.71 5.30492 -4.44033 0
M  V30 38849 H 3465.84 4.55889 -6.76652 0
M  V30 38850 P 3461.88 4.23843 -7.83734 0
M  V30 38851 O 3461.66 4.19407 -9.29784 0
M  V30 38852 O 3461.09 5.24426 -7.09156 0
M  V30 38853 O 3461.63 2.7935 -7.20758 0
M  V30 38854 C 3462.57 1.7299 -7.50419 0
M  V30 38855 C 3461.84 0.406376 -7.57911 0
M  V30 38856 O 3461.63 -0.0897726 -6.21935 0
M  V30 38857 C 3460.44 0.447224 -8.1878 0
M  V30 38858 O 3460.05 -0.825065 -8.71101 0
M  V30 38859 C 3459.56 0.783801 -6.99623 0
M  V30 38860 C 3460.27 0.0619192 -5.85967 0
M  V30 38861 N 3460.22 0.7859 -4.56281 0
M  V30 38862 H 3463.06 1.93423 -8.4679 0
M  V30 38863 H 3463.33 1.68181 -6.71046 0
M  V30 38864 H 3462.46 -0.289041 -8.15388 0
M  V30 38865 P 3458.5 -1.17771 -8.83182 0
M  V30 38866 O 3458.28 -2.07206 -9.98732 0
M  V30 38867 O 3457.71 0.0743816 -8.81969 0
M  V30 38868 O 3458.25 -1.97652 -7.47304 0
M  V30 38869 C 3459.19 -3.01133 -7.08783 0
M  V30 38870 C 3458.46 -4.12613 -6.37049 0
M  V30 38871 O 3458.25 -3.72827 -4.97879 0
M  V30 38872 C 3457.06 -4.45085 -6.88694 0
M  V30 38873 O 3456.67 -5.7877 -6.5624 0
M  V30 38874 C 3456.18 -3.47817 -6.12078 0
M  V30 38875 C 3456.89 -3.39414 -4.77697 0
M  V30 38876 N 3456.84 -2.04615 -4.15333 0
M  V30 38877 H 3459.68 -3.41248 -7.98759 0
M  V30 38878 H 3459.95 -2.5837 -6.41742 0
M  V30 38879 H 3459.08 -5.02657 -6.42673 0
M  V30 38880 P 3455.12 -6.144 -6.45285 0
M  V30 38881 O 3454.9 -7.54673 -6.86199 0
M  V30 38882 O 3454.33 -5.12391 -7.179 0
M  V30 38883 O 3454.87 -5.99158 -4.88404 0
M  V30 38884 C 3455.81 -6.60234 -3.96415 0
M  V30 38885 C 3455.08 -7.08259 -2.72856 0
M  V30 38886 O 3454.87 -5.9427 -1.83651 0
M  V30 38887 C 3453.68 -7.64886 -2.9555 0
M  V30 38888 O 3453.29 -8.53963 -1.90717 0
M  V30 38889 C 3452.8 -6.4116 -2.90739 0
M  V30 38890 C 3453.51 -5.55375 -1.86963 0
M  V30 38891 N 3453.46 -4.09664 -2.15742 0
M  V30 38892 H 3456.3 -7.45574 -4.45629 0
M  V30 38893 H 3456.57 -5.86232 -3.67314 0
M  V30 38894 H 3455.7 -7.84412 -2.24479 0
M  V30 38895 P 3451.74 -8.7635 -1.60911 0
M  V30 38896 O 3451.52 -10.1388 -1.11561 0
M  V30 38897 O 3450.95 -8.36503 -2.79617 0
M  V30 38898 O 3451.49 -7.71806 -0.42951 0
M  V30 38899 C 3452.43 -7.67148 0.673689 0
M  V30 38900 C 3451.7 -7.33374 1.95559 0
M  V30 38901 O 3451.49 -5.88721 2.00726 0
M  V30 38902 C 3450.3 -7.92526 2.10483 0
M  V30 38903 O 3449.91 -8.02971 3.47653 0
M  V30 38904 C 3449.42 -6.89602 1.41652 0
M  V30 38905 C 3450.13 -5.59201 1.75185 0
M  V30 38906 N 3450.08 -4.58301 0.657969 0
M  V30 38907 H 3452.92 -8.65116 0.777161 0
M  V30 38908 H 3453.19 -6.9022 0.46725 0
M  V30 38909 H 3452.32 -7.66548 2.79458 0
M  V30 38910 H 3449.67 -5.16165 2.65183 0
M  V30 38911 H 3449.39 -7.06433 0.329384 0
M  V30 38912 H 3448.4 -6.90926 1.82021 0
M  V30 38913 H 3450.23 -8.90873 1.62657 0
M  V30 38914 P 3448.36 -8.03563 3.84925 0
M  V30 38915 O 3448.14 -8.85821 5.0569 0
M  V30 38916 O 3447.57 -8.41101 2.65469 0
M  V30 38917 O 3448.11 -6.4965 4.18908 0
M  V30 38918 C 3449.05 -5.80886 5.05289 0
M  V30 38919 C 3448.32 -4.78366 5.89277 0
M  V30 38920 O 3448.11 -3.58302 5.08433 0
M  V30 38921 C 3446.92 -5.16748 6.36559 0
M  V30 38922 O 3446.53 -4.45271 7.53232 0
M  V30 38923 C 3446.04 -4.74572 5.19863 0
M  V30 38924 C 3446.75 -3.49373 4.70338 0
M  V30 38925 N 3446.7 -3.31704 3.22876 0
M  V30 38926 C 3446.55 -2.03326 2.74871 0
M  V30 38927 O 3446.46 -1.06486 3.48076 0
M  V30 38928 N 3446.51 -1.91838 1.37456 0
M  V30 38929 C 3446.6 -2.94295 0.462035 0
M  V30 38930 C 3446.75 -4.25064 1.05249 0
M  V30 38931 C 3446.8 -4.40214 2.39192 0
M  V30 38932 H 3449.54 -6.54063 5.71245 0
M  V30 38933 H 3449.81 -5.30339 4.43905 0
M  V30 38934 H 3448.94 -4.55889 6.76652 0
M  V30 38935 H 3446.29 -2.6167 5.17842 0
M  V30 38936 H 3446.01 -5.52155 4.41878 0
M  V30 38937 H 3445.02 -4.51918 5.53297 0
M  V30 38938 H 3446.85 -6.25055 6.55162 0
M  V30 38939 H 3446.92 -5.39798 2.81523 0
M  V30 38940 P 3444.98 -4.23843 7.83734 0
M  V30 38941 O 3444.76 -4.19407 9.29784 0
M  V30 38942 O 3444.19 -5.24426 7.09156 0
M  V30 38943 O 3444.73 -2.7935 7.20758 0
M  V30 38944 C 3445.67 -1.7299 7.50419 0
M  V30 38945 C 3444.94 -0.406376 7.57911 0
M  V30 38946 O 3444.73 0.0897726 6.21935 0
M  V30 38947 C 3443.54 -0.447224 8.1878 0
M  V30 38948 O 3443.15 0.825065 8.71101 0
M  V30 38949 C 3442.66 -0.783801 6.99623 0
M  V30 38950 C 3443.37 -0.0619192 5.85967 0
M  V30 38951 N 3443.32 -0.7859 4.56281 0
M  V30 38952 H 3446.16 -1.93423 8.4679 0
M  V30 38953 H 3446.43 -1.68181 6.71046 0
M  V30 38954 H 3445.56 0.289041 8.15388 0
M  V30 38955 P 3441.6 1.17771 8.83182 0
M  V30 38956 O 3441.38 2.07206 9.98732 0
M  V30 38957 O 3440.81 -0.0743816 8.81969 0
M  V30 38958 O 3441.35 1.97652 7.47304 0
M  V30 38959 C 3442.29 3.01133 7.08783 0
M  V30 38960 C 3441.56 4.12613 6.37049 0
M  V30 38961 O 3441.35 3.72827 4.97879 0
M  V30 38962 C 3440.16 4.45085 6.88694 0
M  V30 38963 O 3439.77 5.7877 6.5624 0
M  V30 38964 C 3439.28 3.47817 6.12078 0
M  V30 38965 C 3439.99 3.39414 4.77697 0
M  V30 38966 N 3439.94 2.04615 4.15333 0
M  V30 38967 H 3442.78 3.41248 7.98759 0
M  V30 38968 H 3443.05 2.5837 6.41742 0
M  V30 38969 H 3442.18 5.02657 6.42673 0
M  V30 38970 P 3438.22 6.144 6.45285 0
M  V30 38971 O 3438 7.54673 6.86199 0
M  V30 38972 O 3437.43 5.12391 7.179 0
M  V30 38973 O 3437.97 5.99158 4.88404 0
M  V30 38974 C 3438.91 6.60234 3.96415 0
M  V30 38975 C 3438.18 7.08259 2.72856 0
M  V30 38976 O 3437.97 5.9427 1.83651 0
M  V30 38977 C 3436.78 7.64886 2.9555 0
M  V30 38978 O 3436.39 8.53963 1.90717 0
M  V30 38979 C 3435.9 6.4116 2.90739 0
M  V30 38980 C 3436.61 5.55375 1.86963 0
M  V30 38981 N 3436.56 4.09448 2.16152 0
M  V30 38982 H 3439.4 7.45574 4.45629 0
M  V30 38983 H 3439.67 5.85864 3.679 0
M  V30 38984 H 3438.8 7.84412 2.24479 0
M  V30 38985 H 3436.15 5.73457 0.888562 0
M  V30 38986 H 3435.87 5.90877 3.88583 0
M  V30 38987 H 3434.88 6.6596 2.58858 0
M  V30 38988 H 3436.71 8.16339 3.92049 0
M  V30 38989 P 3434.84 8.7635 1.60911 0
M  V30 38990 O 3434.62 10.1388 1.11561 0
M  V30 38991 O 3434.05 8.36503 2.79617 0
M  V30 38992 O 3434.59 7.71806 0.42951 0
M  V30 38993 C 3435.53 7.67148 -0.673689 0
M  V30 38994 C 3434.8 7.33374 -1.95559 0
M  V30 38995 O 3434.59 5.88721 -2.00726 0
M  V30 38996 C 3433.4 7.92526 -2.10483 0
M  V30 38997 O 3433.01 8.02971 -3.47653 0
M  V30 38998 C 3432.52 6.89602 -1.41652 0
M  V30 38999 C 3433.23 5.59201 -1.75185 0
M  V30 39000 N 3433.18 4.58235 -0.662552 0
M  V30 39001 H 3436.02 8.65116 -0.777161 0
M  V30 39002 H 3436.29 6.90173 -0.474152 0
M  V30 39003 H 3435.42 7.66548 -2.79458 0
M  V30 39004 P 3431.46 8.03563 -3.84925 0
M  V30 39005 O 3431.24 8.85821 -5.0569 0
M  V30 39006 O 3430.67 8.41101 -2.65469 0
M  V30 39007 O 3431.21 6.4965 -4.18908 0
M  V30 39008 C 3432.15 5.81037 -5.05421 0
M  V30 39009 C 3431.42 4.78366 -5.89277 0
M  V30 39010 O 3431.21 3.58302 -5.08433 0
M  V30 39011 C 3430.02 5.17448 -6.36119 0
M  V30 39012 O 3429.63 4.45271 -7.53232 0
M  V30 39013 C 3429.14 4.74639 -5.19936 0
M  V30 39014 C 3429.85 3.49432 -4.70418 0
M  V30 39015 N 3429.8 3.31776 -3.22945 0
M  V30 39016 H 3432.64 6.54213 -5.71376 0
M  V30 39017 H 3432.91 5.30492 -4.44033 0
M  V30 39018 H 3432.04 4.55889 -6.76652 0
M  V30 39019 P 3428.08 4.23843 -7.83734 0
M  V30 39020 O 3427.86 4.19407 -9.29784 0
M  V30 39021 O 3427.29 5.24426 -7.09156 0
M  V30 39022 O 3427.83 2.7935 -7.20758 0
M  V30 39023 C 3428.77 1.7299 -7.50419 0
M  V30 39024 C 3428.04 0.406376 -7.57911 0
M  V30 39025 O 3427.83 -0.0897726 -6.21935 0
M  V30 39026 C 3426.64 0.447224 -8.1878 0
M  V30 39027 O 3426.25 -0.825065 -8.71101 0
M  V30 39028 C 3425.76 0.783801 -6.99623 0
M  V30 39029 C 3426.47 0.0619192 -5.85967 0
M  V30 39030 N 3426.42 0.790462 -4.56202 0
M  V30 39031 C 3426.5 2.13895 -4.34171 0
M  V30 39032 N 3426.43 2.46449 -3.08687 0
M  V30 39033 C 3426.28 1.2525 -2.43697 0
M  V30 39034 C 3426.15 0.914535 -1.07318 0
M  V30 39035 N 3426.14 1.80782 -0.0887348 0
M  V30 39036 N 3426.03 -0.386745 -0.768133 0
M  V30 39037 C 3426.04 -1.28096 -1.75159 0
M  V30 39038 N 3426.16 -1.09708 -3.04861 0
M  V30 39039 C 3426.28 0.214857 -3.32306 0
M  V30 39040 H 3429.26 1.93423 -8.4679 0
M  V30 39041 H 3429.53 1.68852 -6.70877 0
M  V30 39042 H 3428.66 -0.289041 -8.15388 0
M  V30 39043 H 3426.01 -0.927006 -5.72848 0
M  V30 39044 H 3425.73 1.86973 -6.82036 0
M  V30 39045 H 3424.74 0.403953 -7.13357 0
M  V30 39046 H 3426.57 1.20599 -8.97534 0
M  V30 39047 H 3426.61 2.86846 -5.14318 0
M  V30 39048 H 3426.23 2.81082 -0.302037 0
M  V30 39049 H 3426.04 1.49688 0.889064 0
M  V30 39050 H 3425.93 -2.31317 -1.43855 0
M  V30 39051 P 3424.7 -1.17771 -8.83182 0
M  V30 39052 O 3424.48 -2.07206 -9.98732 0
M  V30 39053 O 3423.91 0.0743816 -8.81969 0
M  V30 39054 O 3424.45 -1.97652 -7.47304 0
M  V30 39055 C 3425.39 -3.01133 -7.08783 0
M  V30 39056 C 3424.66 -4.12613 -6.37049 0
M  V30 39057 O 3424.45 -3.72827 -4.97879 0
M  V30 39058 C 3423.26 -4.45085 -6.88694 0
M  V30 39059 O 3422.87 -5.7877 -6.5624 0
M  V30 39060 C 3422.38 -3.47817 -6.12078 0
M  V30 39061 C 3423.09 -3.39414 -4.77697 0
M  V30 39062 N 3423.04 -2.04199 -4.15538 0
M  V30 39063 H 3425.88 -3.41248 -7.98759 0
M  V30 39064 H 3426.15 -2.57728 -6.42 0
M  V30 39065 H 3425.28 -5.02657 -6.42673 0
M  V30 39066 H 3422.63 -4.11708 -4.08956 0
M  V30 39067 H 3422.35 -2.49626 -6.61679 0
M  V30 39068 H 3421.36 -3.8662 -6.00862 0
M  V30 39069 H 3423.19 -4.29991 -7.97006 0
M  V30 39070 P 3421.32 -6.144 -6.45285 0
M  V30 39071 O 3421.1 -7.54673 -6.86199 0
M  V30 39072 O 3420.53 -5.12391 -7.179 0
M  V30 39073 O 3421.07 -5.99158 -4.88404 0
M  V30 39074 C 3422.01 -6.60234 -3.96415 0
M  V30 39075 C 3421.28 -7.08259 -2.72856 0
M  V30 39076 O 3421.07 -5.9427 -1.83651 0
M  V30 39077 C 3419.88 -7.64886 -2.9555 0
M  V30 39078 O 3419.49 -8.53963 -1.90717 0
M  V30 39079 C 3419 -6.4116 -2.90739 0
M  V30 39080 C 3419.71 -5.55375 -1.86963 0
M  V30 39081 N 3419.66 -4.09664 -2.15742 0
M  V30 39082 C 3419.74 -3.44381 -3.37233 0
M  V30 39083 N 3419.66 -2.14131 -3.28347 0
M  V30 39084 C 3419.52 -1.90247 -1.91588 0
M  V30 39085 C 3419.39 -0.683992 -1.20892 0
M  V30 39086 N 3419.27 -0.903396 0.173998 0
M  V30 39087 C 3419.27 -2.14171 0.784879 0
M  V30 39088 N 3419.14 -2.1435 2.11317 0
M  V30 39089 N 3419.4 -3.28784 0.119316 0
M  V30 39090 C 3419.52 -3.0977 -1.22194 0
M  V30 39091 H 3422.5 -7.45574 -4.45629 0
M  V30 39092 H 3422.77 -5.86232 -3.67314 0
M  V30 39093 H 3421.9 -7.84412 -2.24479 0
M  V30 39094 P 3417.94 -8.7635 -1.60911 0
M  V30 39095 O 3417.72 -10.1388 -1.11561 0
M  V30 39096 O 3417.15 -8.36503 -2.79617 0
M  V30 39097 O 3417.69 -7.71806 -0.42951 0
M  V30 39098 C 3418.63 -7.67148 0.673689 0
M  V30 39099 C 3417.9 -7.33374 1.95559 0
M  V30 39100 O 3417.69 -5.88721 2.00726 0
M  V30 39101 C 3416.5 -7.92526 2.10483 0
M  V30 39102 O 3416.11 -8.02971 3.47653 0
M  V30 39103 C 3415.62 -6.89602 1.41652 0
M  V30 39104 C 3416.33 -5.59201 1.75185 0
M  V30 39105 N 3416.28 -4.58301 0.657969 0
M  V30 39106 H 3419.12 -8.65116 0.777161 0
M  V30 39107 H 3419.39 -6.9022 0.46725 0
M  V30 39108 H 3418.52 -7.66548 2.79458 0
M  V30 39109 H 3415.87 -5.16165 2.65183 0
M  V30 39110 H 3415.59 -7.06433 0.329384 0
M  V30 39111 H 3414.6 -6.90926 1.82021 0
M  V30 39112 H 3416.43 -8.90873 1.62657 0
M  V30 39113 P 3414.56 -8.03563 3.84925 0
M  V30 39114 O 3414.34 -8.85821 5.0569 0
M  V30 39115 O 3413.77 -8.41101 2.65469 0
M  V30 39116 O 3414.31 -6.4965 4.18908 0
M  V30 39117 C 3415.25 -5.81037 5.05421 0
M  V30 39118 C 3414.52 -4.78366 5.89277 0
M  V30 39119 O 3414.31 -3.58302 5.08433 0
M  V30 39120 C 3413.12 -5.17448 6.36119 0
M  V30 39121 O 3412.73 -4.45271 7.53232 0
M  V30 39122 C 3412.24 -4.74639 5.19936 0
M  V30 39123 C 3412.95 -3.49432 4.70418 0
M  V30 39124 N 3412.9 -3.32099 3.22613 0
M  V30 39125 H 3415.74 -6.54213 5.71376 0
M  V30 39126 H 3416.01 -5.30936 4.43503 0
M  V30 39127 H 3415.14 -4.55889 6.76652 0
M  V30 39128 H 3412.49 -2.61715 5.17932 0
M  V30 39129 H 3412.21 -5.52155 4.41878 0
M  V30 39130 H 3411.22 -4.51981 5.53374 0
M  V30 39131 H 3413.05 -6.25124 6.55234 0
M  V30 39132 P 3411.18 -4.23843 7.83734 0
M  V30 39133 O 3410.96 -4.19407 9.29784 0
M  V30 39134 O 3410.39 -5.24426 7.09156 0
M  V30 39135 O 3410.93 -2.7935 7.20758 0
M  V30 39136 C 3411.87 -1.7299 7.50419 0
M  V30 39137 C 3411.14 -0.406376 7.57911 0
M  V30 39138 O 3410.93 0.0897726 6.21935 0
M  V30 39139 C 3409.74 -0.447224 8.1878 0
M  V30 39140 O 3409.35 0.825065 8.71101 0
M  V30 39141 C 3408.86 -0.783801 6.99623 0
M  V30 39142 C 3409.57 -0.0619192 5.85967 0
M  V30 39143 N 3409.52 -0.7859 4.56281 0
M  V30 39144 H 3412.36 -1.93423 8.4679 0
M  V30 39145 H 3412.63 -1.68181 6.71046 0
M  V30 39146 H 3411.76 0.289041 8.15388 0
M  V30 39147 P 3407.8 1.17771 8.83182 0
M  V30 39148 O 3407.58 2.07206 9.98732 0
M  V30 39149 O 3407.01 -0.0743816 8.81969 0
M  V30 39150 O 3407.55 1.97652 7.47304 0
M  V30 39151 C 3408.49 3.01133 7.08783 0
M  V30 39152 C 3407.76 4.12613 6.37049 0
M  V30 39153 O 3407.55 3.72827 4.97879 0
M  V30 39154 C 3406.36 4.45085 6.88694 0
M  V30 39155 O 3405.97 5.7877 6.5624 0
M  V30 39156 C 3405.48 3.47817 6.12078 0
M  V30 39157 C 3406.19 3.39414 4.77697 0
M  V30 39158 N 3406.14 2.04615 4.15333 0
M  V30 39159 C 3406.22 0.803897 4.75249 0
M  V30 39160 N 3406.14 -0.197615 3.91502 0
M  V30 39161 C 3406 0.413002 2.66823 0
M  V30 39162 C 3405.87 -0.157221 1.38007 0
M  V30 39163 O 3405.85 -1.34419 1.057 0
M  V30 39164 N 3405.75 0.833136 0.390236 0
M  V30 39165 C 3405.75 2.19402 0.623885 0
M  V30 39166 N 3405.62 2.97622 -0.449677 0
M  V30 39167 N 3405.88 2.73005 1.83601 0
M  V30 39168 C 3406 1.78786 2.80935 0
M  V30 39169 H 3408.98 3.41248 7.98759 0
M  V30 39170 H 3409.25 2.5837 6.41742 0
M  V30 39171 H 3408.38 5.02657 6.42673 0
M  V30 39172 H 3405.73 4.11779 4.09026 0
M  V30 39173 H 3405.45 2.49661 6.61772 0
M  V30 39174 H 3404.46 3.86674 6.00946 0
M  V30 39175 H 3406.29 4.30038 7.97094 0
M  V30 39176 H 3406.34 0.670579 5.82754 0
M  V30 39177 H 3405.66 0.528446 -0.557287 0
M  V30 39178 H 3405.62 4.00117 -0.344773 0
M  V30 39179 H 3405.52 2.55448 -1.38544 0
M  V30 39180 P 3404.42 6.144 6.45285 0
M  V30 39181 O 3404.2 7.54673 6.86199 0
M  V30 39182 O 3403.63 5.12391 7.179 0
M  V30 39183 O 3404.17 5.99236 4.88467 0
M  V30 39184 C 3405.11 6.60234 3.96415 0
M  V30 39185 C 3404.38 7.08079 2.736 0
M  V30 39186 O 3404.17 5.94365 1.8368 0
M  V30 39187 C 3402.98 7.64886 2.9555 0
M  V30 39188 O 3402.59 8.5406 1.90739 0
M  V30 39189 C 3402.1 6.4116 2.90739 0
M  V30 39190 C 3402.81 5.55375 1.86963 0
M  V30 39191 N 3402.76 4.09664 2.15742 0
M  V30 39192 C 3402.61 3.22231 1.08477 0
M  V30 39193 O 3402.52 3.68951 -0.0600489 0
M  V30 39194 N 3402.56 1.76692 1.48799 0
M  V30 39195 C 3402.66 1.41695 2.57602 0
M  V30 39196 N 3402.61 0.107296 2.75791 0
M  V30 39197 C 3402.81 2.29178 3.69733 0
M  V30 39198 C 3402.86 3.62753 3.42653 0
M  V30 39199 H 3405.6 7.45488 4.45578 0
M  V30 39200 H 3405.87 5.86232 3.67314 0
M  V30 39201 H 3405 7.84508 2.24507 0
M  V30 39202 H 3402.35 5.73556 0.888715 0
M  V30 39203 H 3402.07 5.9096 3.88638 0
M  V30 39204 H 3401.08 6.66053 2.58894 0
M  V30 39205 H 3402.91 8.16339 3.92049 0
M  V30 39206 H 3402.98 4.33052 4.24913 0
M  V30 39207 H 3402.88 1.9103 4.71577 0
M  V30 39208 H 3402.49 -0.521221 1.95056 0
M  V30 39209 H 3402.69 -0.286429 3.70695 0
M  V30 39210 P 3401.04 8.7635 1.60911 0
M  V30 39211 O 3400.82 10.1388 1.11561 0
M  V30 39212 O 3400.25 8.36503 2.79617 0
M  V30 39213 O 3400.79 7.71806 0.42951 0
M  V30 39214 C 3401.73 7.67148 -0.673689 0
M  V30 39215 C 3401 7.33374 -1.95559 0
M  V30 39216 O 3400.79 5.88721 -2.00726 0
M  V30 39217 C 3399.6 7.92526 -2.10483 0
M  V30 39218 O 3399.21 8.02971 -3.47653 0
M  V30 39219 C 3398.72 6.89602 -1.41652 0
M  V30 39220 C 3399.43 5.59201 -1.75185 0
M  V30 39221 N 3399.38 4.58235 -0.662552 0
M  V30 39222 H 3402.22 8.65116 -0.777161 0
M  V30 39223 H 3402.49 6.90173 -0.474152 0
M  V30 39224 H 3401.62 7.66548 -2.79458 0
M  V30 39225 P 3397.66 8.03563 -3.84925 0
M  V30 39226 O 3397.44 8.85821 -5.0569 0
M  V30 39227 O 3396.87 8.41101 -2.65469 0
M  V30 39228 O 3397.41 6.4965 -4.18908 0
M  V30 39229 C 3398.35 5.81037 -5.05421 0
M  V30 39230 C 3397.62 4.78366 -5.89277 0
M  V30 39231 O 3397.41 3.58302 -5.08433 0
M  V30 39232 C 3396.22 5.17448 -6.36119 0
M  V30 39233 O 3395.83 4.45271 -7.53232 0
M  V30 39234 C 3395.34 4.74639 -5.19936 0
M  V30 39235 C 3396.05 3.49432 -4.70418 0
M  V30 39236 N 3396 3.31776 -3.22945 0
M  V30 39237 H 3398.84 6.54213 -5.71376 0
M  V30 39238 H 3399.11 5.30492 -4.44033 0
M  V30 39239 H 3398.24 4.55889 -6.76652 0
M  V30 39240 P 3394.28 4.23843 -7.83734 0
M  V30 39241 O 3394.06 4.19407 -9.29784 0
M  V30 39242 O 3393.49 5.24426 -7.09156 0
M  V30 39243 O 3394.03 2.7935 -7.20758 0
M  V30 39244 C 3394.97 1.7299 -7.50419 0
M  V30 39245 C 3394.24 0.406376 -7.57911 0
M  V30 39246 O 3394.03 -0.0897726 -6.21935 0
M  V30 39247 C 3392.84 0.447224 -8.1878 0
M  V30 39248 O 3392.45 -0.825065 -8.71101 0
M  V30 39249 C 3391.96 0.783801 -6.99623 0
M  V30 39250 C 3392.67 0.0619192 -5.85967 0
M  V30 39251 N 3392.62 0.790462 -4.56202 0
M  V30 39252 H 3395.46 1.93423 -8.4679 0
M  V30 39253 H 3395.73 1.68852 -6.70877 0
M  V30 39254 H 3394.86 -0.289041 -8.15388 0
M  V30 39255 H 3392.21 -0.927006 -5.72848 0
M  V30 39256 H 3391.93 1.86973 -6.82036 0
M  V30 39257 H 3390.94 0.403953 -7.13357 0
M  V30 39258 H 3392.77 1.20599 -8.97534 0
M  V30 39259 P 3390.9 -1.17771 -8.83182 0
M  V30 39260 O 3390.68 -2.07206 -9.98732 0
M  V30 39261 O 3390.11 0.0743816 -8.81969 0
M  V30 39262 O 3390.65 -1.97652 -7.47304 0
M  V30 39263 C 3391.59 -3.01133 -7.08783 0
M  V30 39264 C 3390.86 -4.12613 -6.37049 0
M  V30 39265 O 3390.65 -3.72827 -4.97879 0
M  V30 39266 C 3389.46 -4.45085 -6.88694 0
M  V30 39267 O 3389.07 -5.7877 -6.5624 0
M  V30 39268 C 3388.58 -3.47817 -6.12078 0
M  V30 39269 C 3389.29 -3.39414 -4.77697 0
M  V30 39270 N 3389.24 -2.04615 -4.15333 0
M  V30 39271 H 3392.08 -3.41248 -7.98759 0
M  V30 39272 H 3392.35 -2.5837 -6.41742 0
M  V30 39273 H 3391.48 -5.02657 -6.42673 0
M  V30 39274 P 3387.52 -6.144 -6.45285 0
M  V30 39275 O 3387.3 -7.54673 -6.86199 0
M  V30 39276 O 3386.73 -5.12391 -7.179 0
M  V30 39277 O 3387.27 -5.99158 -4.88404 0
M  V30 39278 C 3388.21 -6.60234 -3.96415 0
M  V30 39279 C 3387.48 -7.08259 -2.72856 0
M  V30 39280 O 3387.27 -5.9427 -1.83651 0
M  V30 39281 C 3386.08 -7.64886 -2.9555 0
M  V30 39282 O 3385.69 -8.53963 -1.90717 0
M  V30 39283 C 3385.2 -6.4116 -2.90739 0
M  V30 39284 C 3385.91 -5.55375 -1.86963 0
M  V30 39285 N 3385.86 -4.09664 -2.15742 0
M  V30 39286 H 3388.7 -7.45574 -4.45629 0
M  V30 39287 H 3388.97 -5.86232 -3.67314 0
M  V30 39288 H 3388.1 -7.84412 -2.24479 0
M  V30 39289 P 3384.14 -8.7635 -1.60911 0
M  V30 39290 O 3383.92 -10.1388 -1.11561 0
M  V30 39291 O 3383.35 -8.36503 -2.79617 0
M  V30 39292 O 3383.89 -7.71806 -0.42951 0
M  V30 39293 C 3384.83 -7.67148 0.673689 0
M  V30 39294 C 3384.1 -7.33374 1.95559 0
M  V30 39295 O 3383.89 -5.88721 2.00726 0
M  V30 39296 C 3382.7 -7.92526 2.10483 0
M  V30 39297 O 3382.31 -8.02971 3.47653 0
M  V30 39298 C 3381.82 -6.89602 1.41652 0
M  V30 39299 C 3382.53 -5.59201 1.75185 0
M  V30 39300 N 3382.48 -4.58235 0.662552 0
M  V30 39301 H 3385.32 -8.65116 0.777161 0
M  V30 39302 H 3385.59 -6.90173 0.474152 0
M  V30 39303 H 3384.72 -7.66548 2.79458 0
M  V30 39304 P 3380.76 -8.03563 3.84925 0
M  V30 39305 O 3380.54 -8.85821 5.0569 0
M  V30 39306 O 3379.97 -8.41101 2.65469 0
M  V30 39307 O 3380.51 -6.4965 4.18908 0
M  V30 39308 C 3381.45 -5.81037 5.05421 0
M  V30 39309 C 3380.72 -4.78366 5.89277 0
M  V30 39310 O 3380.51 -3.58302 5.08433 0
M  V30 39311 C 3379.32 -5.17448 6.36119 0
M  V30 39312 O 3378.93 -4.45271 7.53232 0
M  V30 39313 C 3378.44 -4.74639 5.19936 0
M  V30 39314 C 3379.15 -3.49432 4.70418 0
M  V30 39315 N 3379.1 -3.31776 3.22945 0
M  V30 39316 H 3381.94 -6.54213 5.71376 0
M  V30 39317 H 3382.21 -5.30492 4.44033 0
M  V30 39318 H 3381.34 -4.55889 6.76652 0
M  V30 39319 P 3377.38 -4.23843 7.83734 0
M  V30 39320 O 3377.16 -4.19407 9.29784 0
M  V30 39321 O 3376.59 -5.24426 7.09156 0
M  V30 39322 O 3377.13 -2.7935 7.20758 0
M  V30 39323 C 3378.07 -1.7299 7.50419 0
M  V30 39324 C 3377.34 -0.406376 7.57911 0
M  V30 39325 O 3377.13 0.0897726 6.21935 0
M  V30 39326 C 3375.94 -0.447224 8.1878 0
M  V30 39327 O 3375.55 0.825065 8.71101 0
M  V30 39328 C 3375.06 -0.783801 6.99623 0
M  V30 39329 C 3375.77 -0.0619192 5.85967 0
M  V30 39330 N 3375.72 -0.790462 4.56202 0
M  V30 39331 H 3378.56 -1.93423 8.4679 0
M  V30 39332 H 3378.83 -1.68852 6.70877 0
M  V30 39333 H 3377.96 0.289041 8.15388 0
M  V30 39334 H 3375.31 0.927006 5.72848 0
M  V30 39335 H 3375.03 -1.86973 6.82036 0
M  V30 39336 H 3374.04 -0.403953 7.13357 0
M  V30 39337 H 3375.87 -1.20599 8.97534 0
M  V30 39338 P 3374 1.17771 8.83182 0
M  V30 39339 O 3373.78 2.07206 9.98732 0
M  V30 39340 O 3373.21 -0.0743816 8.81969 0
M  V30 39341 O 3373.75 1.97652 7.47304 0
M  V30 39342 C 3374.69 3.01133 7.08783 0
M  V30 39343 C 3373.96 4.12613 6.37049 0
M  V30 39344 O 3373.75 3.72827 4.97879 0
M  V30 39345 C 3372.56 4.45085 6.88694 0
M  V30 39346 O 3372.17 5.7877 6.5624 0
M  V30 39347 C 3371.68 3.47817 6.12078 0
M  V30 39348 C 3372.39 3.39414 4.77697 0
M  V30 39349 N 3372.34 2.04615 4.15333 0
M  V30 39350 H 3375.18 3.41248 7.98759 0
M  V30 39351 H 3375.45 2.5837 6.41742 0
M  V30 39352 H 3374.58 5.02657 6.42673 0
M  V30 39353 P 3370.62 6.144 6.45285 0
M  V30 39354 O 3370.4 7.54673 6.86199 0
M  V30 39355 O 3369.83 5.12391 7.179 0
M  V30 39356 O 3370.37 5.99158 4.88404 0
M  V30 39357 C 3371.31 6.60234 3.96415 0
M  V30 39358 C 3370.58 7.08259 2.72856 0
M  V30 39359 O 3370.37 5.9427 1.83651 0
M  V30 39360 C 3369.18 7.64886 2.9555 0
M  V30 39361 O 3368.79 8.53963 1.90717 0
M  V30 39362 C 3368.3 6.4116 2.90739 0
M  V30 39363 C 3369.01 5.55375 1.86963 0
M  V30 39364 N 3368.96 4.09664 2.15742 0
M  V30 39365 C 3369.04 3.44381 3.37233 0
M  V30 39366 N 3368.96 2.14131 3.28347 0
M  V30 39367 C 3368.82 1.90247 1.91588 0
M  V30 39368 C 3368.69 0.683992 1.20892 0
M  V30 39369 O 3368.67 -0.46618 1.64523 0
M  V30 39370 N 3368.57 0.903396 -0.173998 0
M  V30 39371 C 3368.57 2.14171 -0.784879 0
M  V30 39372 N 3368.44 2.1435 -2.11317 0
M  V30 39373 N 3368.7 3.28784 -0.119316 0
M  V30 39374 C 3368.82 3.0977 1.22194 0
M  V30 39375 H 3371.8 7.45574 4.45629 0
M  V30 39376 H 3372.07 5.86232 3.67314 0
M  V30 39377 H 3371.2 7.84412 2.24479 0
M  V30 39378 H 3368.55 5.73556 0.888715 0
M  V30 39379 H 3368.27 5.9096 3.88638 0
M  V30 39380 H 3367.28 6.66053 2.58894 0
M  V30 39381 H 3369.11 8.16429 3.92093 0
M  V30 39382 H 3369.16 3.96785 4.32043 0
M  V30 39383 H 3368.48 0.0999567 -0.761467 0
M  V30 39384 H 3368.44 3.03436 -2.63076 0
M  V30 39385 H 3368.34 1.25228 -2.62233 0
M  V30 39386 P 3367.24 8.7635 1.60911 0
M  V30 39387 O 3367.02 10.1388 1.11561 0
M  V30 39388 O 3366.45 8.36503 2.79617 0
M  V30 39389 O 3366.99 7.71806 0.42951 0
M  V30 39390 C 3367.93 7.67148 -0.673689 0
M  V30 39391 C 3367.2 7.33374 -1.95559 0
M  V30 39392 O 3366.99 5.88721 -2.00726 0
M  V30 39393 C 3365.8 7.92526 -2.10483 0
M  V30 39394 O 3365.41 8.02971 -3.47653 0
M  V30 39395 C 3364.92 6.89602 -1.41652 0
M  V30 39396 C 3365.63 5.59201 -1.75185 0
M  V30 39397 N 3365.58 4.58301 -0.657969 0
M  V30 39398 C 3365.66 4.79019 0.692603 0
M  V30 39399 N 3365.59 3.69736 1.38998 0
M  V30 39400 C 3365.44 2.70474 0.438135 0
M  V30 39401 C 3365.31 1.30327 0.538142 0
M  V30 39402 N 3365.3 0.64304 1.69192 0
M  V30 39403 N 3365.19 0.611027 -0.605183 0
M  V30 39404 C 3365.2 1.27002 -1.75953 0
M  V30 39405 N 3365.32 2.56038 -1.98546 0
M  V30 39406 C 3365.44 3.22681 -0.822541 0
M  V30 39407 H 3368.42 8.65116 -0.777161 0
M  V30 39408 H 3368.69 6.9022 -0.46725 0
M  V30 39409 H 3367.82 7.66548 -2.79458 0
M  V30 39410 H 3365.17 5.16165 -2.65183 0
M  V30 39411 H 3364.89 7.06433 -0.329384 0
M  V30 39412 H 3363.9 6.90926 -1.82021 0
M  V30 39413 H 3365.73 8.90873 -1.62657 0
M  V30 39414 H 3365.77 5.77785 1.13874 0
M  V30 39415 H 3365.39 1.15585 2.57991 0
M  V30 39416 H 3365.2 -0.382989 1.69835 0
M  V30 39417 H 3365.09 0.653331 -2.64449 0
M  V30 39418 P 3363.86 8.03563 -3.84925 0
M  V30 39419 O 3363.64 8.85821 -5.0569 0
M  V30 39420 O 3363.07 8.41101 -2.65469 0
M  V30 39421 O 3363.61 6.4965 -4.18908 0
M  V30 39422 C 3364.55 5.81037 -5.05421 0
M  V30 39423 C 3363.82 4.78366 -5.89277 0
M  V30 39424 O 3363.61 3.58302 -5.08433 0
M  V30 39425 C 3362.42 5.17448 -6.36119 0
M  V30 39426 O 3362.03 4.45271 -7.53232 0
M  V30 39427 C 3361.54 4.74639 -5.19936 0
M  V30 39428 C 3362.25 3.49432 -4.70418 0
M  V30 39429 N 3362.2 3.31776 -3.22945 0
M  V30 39430 H 3365.04 6.54213 -5.71376 0
M  V30 39431 H 3365.31 5.30492 -4.44033 0
M  V30 39432 H 3364.44 4.55889 -6.76652 0
M  V30 39433 P 3360.48 4.23843 -7.83734 0
M  V30 39434 O 3360.26 4.19407 -9.29784 0
M  V30 39435 O 3359.69 5.24426 -7.09156 0
M  V30 39436 O 3360.23 2.7935 -7.20758 0
M  V30 39437 C 3361.17 1.7299 -7.50419 0
M  V30 39438 C 3360.44 0.406376 -7.57911 0
M  V30 39439 O 3360.23 -0.0897726 -6.21935 0
M  V30 39440 C 3359.04 0.447224 -8.1878 0
M  V30 39441 O 3358.65 -0.825065 -8.71101 0
M  V30 39442 C 3358.16 0.783801 -6.99623 0
M  V30 39443 C 3358.87 0.0619192 -5.85967 0
M  V30 39444 N 3358.82 0.790462 -4.56202 0
M  V30 39445 H 3361.66 1.93423 -8.4679 0
M  V30 39446 H 3361.93 1.68852 -6.70877 0
M  V30 39447 H 3361.06 -0.289041 -8.15388 0
M  V30 39448 H 3358.41 -0.927006 -5.72848 0
M  V30 39449 H 3358.13 1.86973 -6.82036 0
M  V30 39450 H 3357.14 0.403953 -7.13357 0
M  V30 39451 H 3358.97 1.20599 -8.97534 0
M  V30 39452 P 3357.1 -1.17771 -8.83182 0
M  V30 39453 O 3356.88 -2.07206 -9.98732 0
M  V30 39454 O 3356.31 0.0743816 -8.81969 0
M  V30 39455 O 3356.85 -1.97652 -7.47304 0
M  V30 39456 C 3357.79 -3.01133 -7.08783 0
M  V30 39457 C 3357.06 -4.12613 -6.37049 0
M  V30 39458 O 3356.85 -3.72827 -4.97879 0
M  V30 39459 C 3355.66 -4.45085 -6.88694 0
M  V30 39460 O 3355.27 -5.7877 -6.5624 0
M  V30 39461 C 3354.78 -3.47817 -6.12078 0
M  V30 39462 C 3355.49 -3.39414 -4.77697 0
M  V30 39463 N 3355.44 -2.04199 -4.15538 0
M  V30 39464 C 3355.52 -0.821545 -4.76977 0
M  V30 39465 N 3355.45 0.1794 -3.94592 0
M  V30 39466 C 3355.3 -0.419121 -2.70776 0
M  V30 39467 C 3355.17 0.109072 -1.40577 0
M  V30 39468 N 3355.16 1.4104 -1.1344 0
M  V30 39469 N 3355.05 -0.764381 -0.39411 0
M  V30 39470 C 3355.06 -2.06587 -0.664135 0
M  V30 39471 N 3355.18 -2.67948 -1.82153 0
M  V30 39472 C 3355.3 -1.77942 -2.8147 0
M  V30 39473 H 3358.28 -3.41248 -7.98759 0
M  V30 39474 H 3358.55 -2.57728 -6.42 0
M  V30 39475 H 3357.68 -5.02657 -6.42673 0
M  V30 39476 H 3355.03 -4.11708 -4.08956 0
M  V30 39477 H 3354.75 -2.49626 -6.61679 0
M  V30 39478 H 3353.76 -3.8662 -6.00862 0
M  V30 39479 H 3355.59 -4.29991 -7.97006 0
M  V30 39480 H 3355.63 -0.702451 -5.84696 0
M  V30 39481 H 3355.25 2.09647 -1.89651 0
M  V30 39482 H 3355.06 1.73358 -0.160575 0
M  V30 39483 H 3354.95 -2.71695 0.195838 0
M  V30 39484 P 3353.72 -6.144 -6.45285 0
M  V30 39485 O 3353.5 -7.54673 -6.86199 0
M  V30 39486 O 3352.93 -5.12391 -7.179 0
M  V30 39487 O 3353.47 -5.99158 -4.88404 0
M  V30 39488 C 3354.41 -6.60234 -3.96415 0
M  V30 39489 C 3353.68 -7.08259 -2.72856 0
M  V30 39490 O 3353.47 -5.9427 -1.83651 0
M  V30 39491 C 3352.28 -7.64886 -2.9555 0
M  V30 39492 O 3351.89 -8.53963 -1.90717 0
M  V30 39493 C 3351.4 -6.4116 -2.90739 0
M  V30 39494 C 3352.11 -5.55375 -1.86963 0
M  V30 39495 N 3352.06 -4.09664 -2.15742 0
M  V30 39496 H 3354.9 -7.45574 -4.45629 0
M  V30 39497 H 3355.17 -5.86232 -3.67314 0
M  V30 39498 H 3354.3 -7.84412 -2.24479 0
M  V30 39499 P 3350.34 -8.7635 -1.60911 0
M  V30 39500 O 3350.12 -10.1388 -1.11561 0
M  V30 39501 O 3349.55 -8.36503 -2.79617 0
M  V30 39502 O 3350.09 -7.71806 -0.42951 0
M  V30 39503 C 3351.03 -7.67148 0.673689 0
M  V30 39504 C 3350.3 -7.33374 1.95559 0
M  V30 39505 O 3350.09 -5.88721 2.00726 0
M  V30 39506 C 3348.9 -7.92526 2.10483 0
M  V30 39507 O 3348.51 -8.02971 3.47653 0
M  V30 39508 C 3348.02 -6.89602 1.41652 0
M  V30 39509 C 3348.73 -5.59201 1.75185 0
M  V30 39510 N 3348.68 -4.58235 0.662552 0
M  V30 39511 H 3351.52 -8.65116 0.777161 0
M  V30 39512 H 3351.79 -6.90173 0.474152 0
M  V30 39513 H 3350.92 -7.66548 2.79458 0
M  V30 39514 P 3346.96 -8.03563 3.84925 0
M  V30 39515 O 3346.74 -8.85821 5.0569 0
M  V30 39516 O 3346.17 -8.41101 2.65469 0
M  V30 39517 O 3346.71 -6.4965 4.18908 0
M  V30 39518 C 3347.65 -5.81037 5.05421 0
M  V30 39519 C 3346.92 -4.78366 5.89277 0
M  V30 39520 O 3346.71 -3.58302 5.08433 0
M  V30 39521 C 3345.52 -5.17448 6.36119 0
M  V30 39522 O 3345.13 -4.45271 7.53232 0
M  V30 39523 C 3344.64 -4.74639 5.19936 0
M  V30 39524 C 3345.35 -3.49432 4.70418 0
M  V30 39525 N 3345.3 -3.32099 3.22613 0
M  V30 39526 H 3348.14 -6.54213 5.71376 0
M  V30 39527 H 3348.41 -5.30936 4.43503 0
M  V30 39528 H 3347.54 -4.55889 6.76652 0
M  V30 39529 H 3344.89 -2.61715 5.17932 0
M  V30 39530 H 3344.61 -5.52155 4.41878 0
M  V30 39531 H 3343.62 -4.51981 5.53374 0
M  V30 39532 H 3345.45 -6.25124 6.55234 0
M  V30 39533 P 3343.58 -4.23843 7.83734 0
M  V30 39534 O 3343.36 -4.19407 9.29784 0
M  V30 39535 O 3342.79 -5.24426 7.09156 0
M  V30 39536 O 3343.33 -2.7935 7.20758 0
M  V30 39537 C 3344.27 -1.7299 7.50419 0
M  V30 39538 C 3343.54 -0.406376 7.57911 0
M  V30 39539 O 3343.33 0.0897726 6.21935 0
M  V30 39540 C 3342.14 -0.447224 8.1878 0
M  V30 39541 O 3341.75 0.825065 8.71101 0
M  V30 39542 C 3341.26 -0.783801 6.99623 0
M  V30 39543 C 3341.97 -0.0619192 5.85967 0
M  V30 39544 N 3341.92 -0.7859 4.56281 0
M  V30 39545 H 3344.76 -1.93423 8.4679 0
M  V30 39546 H 3345.03 -1.68181 6.71046 0
M  V30 39547 H 3344.16 0.289041 8.15388 0
M  V30 39548 P 3340.2 1.17771 8.83182 0
M  V30 39549 O 3339.98 2.07206 9.98732 0
M  V30 39550 O 3339.41 -0.0743816 8.81969 0
M  V30 39551 O 3339.95 1.97652 7.47304 0
M  V30 39552 C 3340.89 3.01133 7.08783 0
M  V30 39553 C 3340.16 4.12613 6.37049 0
M  V30 39554 O 3339.95 3.72827 4.97879 0
M  V30 39555 C 3338.76 4.45085 6.88694 0
M  V30 39556 O 3338.37 5.7877 6.5624 0
M  V30 39557 C 3337.88 3.47817 6.12078 0
M  V30 39558 C 3338.59 3.39414 4.77697 0
M  V30 39559 N 3338.54 2.04615 4.15333 0
M  V30 39560 H 3341.38 3.41248 7.98759 0
M  V30 39561 H 3341.65 2.5837 6.41742 0
M  V30 39562 H 3340.78 5.02657 6.42673 0
M  V30 39563 P 3336.82 6.144 6.45285 0
M  V30 39564 O 3336.6 7.54673 6.86199 0
M  V30 39565 O 3336.03 5.12391 7.179 0
M  V30 39566 O 3336.57 5.99158 4.88404 0
M  V30 39567 C 3337.51 6.60234 3.96415 0
M  V30 39568 C 3336.78 7.08259 2.72856 0
M  V30 39569 O 3336.57 5.9427 1.83651 0
M  V30 39570 C 3335.38 7.64886 2.9555 0
M  V30 39571 O 3334.99 8.53963 1.90717 0
M  V30 39572 C 3334.5 6.4116 2.90739 0
M  V30 39573 C 3335.21 5.55375 1.86963 0
M  V30 39574 N 3335.16 4.09448 2.16152 0
M  V30 39575 H 3338 7.45574 4.45629 0
M  V30 39576 H 3338.27 5.85864 3.679 0
M  V30 39577 H 3337.4 7.84412 2.24479 0
M  V30 39578 H 3334.75 5.73457 0.888562 0
M  V30 39579 H 3334.47 5.90877 3.88583 0
M  V30 39580 H 3333.48 6.6596 2.58858 0
M  V30 39581 H 3335.31 8.16339 3.92049 0
M  V30 39582 P 3333.44 8.7635 1.60911 0
M  V30 39583 O 3333.22 10.1388 1.11561 0
M  V30 39584 O 3332.65 8.36503 2.79617 0
M  V30 39585 O 3333.19 7.71806 0.42951 0
M  V30 39586 C 3334.13 7.67148 -0.673689 0
M  V30 39587 C 3333.4 7.33374 -1.95559 0
M  V30 39588 O 3333.19 5.88721 -2.00726 0
M  V30 39589 C 3332 7.92526 -2.10483 0
M  V30 39590 O 3331.61 8.02971 -3.47653 0
M  V30 39591 C 3331.12 6.89602 -1.41652 0
M  V30 39592 C 3331.83 5.59201 -1.75185 0
M  V30 39593 N 3331.78 4.58235 -0.662552 0
M  V30 39594 H 3334.62 8.65116 -0.777161 0
M  V30 39595 H 3334.89 6.90173 -0.474152 0
M  V30 39596 H 3334.02 7.66548 -2.79458 0
M  V30 39597 P 3330.06 8.03563 -3.84925 0
M  V30 39598 O 3329.84 8.85821 -5.0569 0
M  V30 39599 O 3329.27 8.41101 -2.65469 0
M  V30 39600 O 3329.81 6.4965 -4.18908 0
M  V30 39601 C 3330.75 5.81037 -5.05421 0
M  V30 39602 C 3330.02 4.78366 -5.89277 0
M  V30 39603 O 3329.81 3.58302 -5.08433 0
M  V30 39604 C 3328.62 5.17448 -6.36119 0
M  V30 39605 O 3328.23 4.45271 -7.53232 0
M  V30 39606 C 3327.74 4.74639 -5.19936 0
M  V30 39607 C 3328.45 3.49432 -4.70418 0
M  V30 39608 N 3328.4 3.31776 -3.22945 0
M  V30 39609 H 3331.24 6.54213 -5.71376 0
M  V30 39610 H 3331.51 5.30492 -4.44033 0
M  V30 39611 H 3330.64 4.55889 -6.76652 0
M  V30 39612 P 3326.68 4.23843 -7.83734 0
M  V30 39613 O 3326.46 4.19407 -9.29784 0
M  V30 39614 O 3325.89 5.24426 -7.09156 0
M  V30 39615 O 3326.43 2.79386 -7.20852 0
M  V30 39616 C 3327.37 1.7299 -7.50419 0
M  V30 39617 C 3326.64 0.41401 -7.5797 0
M  V30 39618 O 3326.43 -0.089787 -6.22035 0
M  V30 39619 C 3325.24 0.447224 -8.1878 0
M  V30 39620 O 3324.85 -0.825159 -8.71201 0
M  V30 39621 C 3324.36 0.783801 -6.99623 0
M  V30 39622 C 3325.07 0.0619192 -5.85967 0
M  V30 39623 N 3325.02 0.7859 -4.56281 0
M  V30 39624 C 3324.87 0.0359258 -3.39981 0
M  V30 39625 O 3324.78 -1.19723 -3.49038 0
M  V30 39626 N 3324.82 0.869151 -2.14025 0
M  V30 39627 C 3324.92 2.01207 -2.14363 0
M  V30 39628 N 3324.87 2.58978 -0.954287 0
M  V30 39629 C 3325.07 2.80817 -3.32215 0
M  V30 39630 C 3325.12 2.13785 -4.50884 0
M  V30 39631 H 3327.86 1.93401 -8.46693 0
M  V30 39632 H 3328.13 1.68181 -6.71046 0
M  V30 39633 H 3327.26 -0.289076 -8.15488 0
M  V30 39634 H 3324.61 -0.927166 -5.72947 0
M  V30 39635 H 3324.33 1.87 -6.82132 0
M  V30 39636 H 3323.34 0.404009 -7.13457 0
M  V30 39637 H 3325.17 1.20599 -8.97534 0
M  V30 39638 H 3325.24 2.70295 -5.43162 0
M  V30 39639 H 3325.14 3.89465 -3.27406 0
M  V30 39640 H 3324.75 2.01616 -0.107046 0
M  V30 39641 H 3324.95 3.61403 -0.873101 0
M  V30 39642 P 3323.3 -1.17771 -8.83182 0
M  V30 39643 O 3323.08 -2.07206 -9.98732 0
M  V30 39644 O 3322.51 0.0743816 -8.81969 0
M  V30 39645 O 3323.05 -1.97652 -7.47304 0
M  V30 39646 C 3323.99 -3.01133 -7.08783 0
M  V30 39647 C 3323.26 -4.12613 -6.37049 0
M  V30 39648 O 3323.05 -3.72827 -4.97879 0
M  V30 39649 C 3321.86 -4.45085 -6.88694 0
M  V30 39650 O 3321.47 -5.7877 -6.5624 0
M  V30 39651 C 3320.98 -3.47817 -6.12078 0
M  V30 39652 C 3321.69 -3.39414 -4.77697 0
M  V30 39653 N 3321.64 -2.04615 -4.15333 0
M  V30 39654 H 3324.48 -3.41248 -7.98759 0
M  V30 39655 H 3324.75 -2.5837 -6.41742 0
M  V30 39656 H 3323.88 -5.02657 -6.42673 0
M  V30 39657 P 3319.92 -6.144 -6.45285 0
M  V30 39658 O 3319.7 -7.54673 -6.86199 0
M  V30 39659 O 3319.13 -5.12391 -7.179 0
M  V30 39660 O 3319.67 -5.99158 -4.88404 0
M  V30 39661 C 3320.61 -6.60062 -3.96313 0
M  V30 39662 C 3319.88 -7.08259 -2.72856 0
M  V30 39663 O 3319.67 -5.9427 -1.83651 0
M  V30 39664 C 3318.48 -7.65087 -2.94749 0
M  V30 39665 O 3318.09 -8.53963 -1.90717 0
M  V30 39666 C 3317.6 -6.41069 -2.90698 0
M  V30 39667 C 3318.31 -5.5528 -1.86931 0
M  V30 39668 N 3318.26 -4.09575 -2.15696 0
M  V30 39669 C 3318.11 -3.24249 -1.08435 0
M  V30 39670 O 3318.02 -3.63946 0.0628747 0
M  V30 39671 N 3318.07 -1.90009 -1.39973 0
M  V30 39672 C 3318.16 -1.34884 -2.65614 0
M  V30 39673 C 3318.31 -2.3145 -3.71736 0
M  V30 39674 C 3318.36 -3.63518 -3.44754 0
M  V30 39675 H 3321.1 -7.45402 -4.45526 0
M  V30 39676 H 3321.37 -5.86062 -3.67208 0
M  V30 39677 H 3320.5 -7.84412 -2.24479 0
M  V30 39678 H 3317.85 -5.73358 -0.888409 0
M  V30 39679 H 3317.57 -5.90877 -3.88583 0
M  V30 39680 H 3316.58 -6.65867 -2.58821 0
M  V30 39681 H 3318.41 -8.16248 -3.92006 0
M  V30 39682 H 3318.48 -4.34551 -4.26383 0
M  V30 39683 P 3316.54 -8.7635 -1.60911 0
M  V30 39684 O 3316.32 -10.1388 -1.11561 0
M  V30 39685 O 3315.75 -8.36503 -2.79617 0
M  V30 39686 O 3316.29 -7.71806 -0.42951 0
M  V30 39687 C 3317.23 -7.67148 0.673689 0
M  V30 39688 C 3316.5 -7.33374 1.95559 0
M  V30 39689 O 3316.29 -5.88721 2.00726 0
M  V30 39690 C 3315.1 -7.92526 2.10483 0
M  V30 39691 O 3314.71 -8.02971 3.47653 0
M  V30 39692 C 3314.22 -6.89602 1.41652 0
M  V30 39693 C 3314.93 -5.59201 1.75185 0
M  V30 39694 N 3314.88 -4.58235 0.662552 0
M  V30 39695 H 3317.72 -8.65116 0.777161 0
M  V30 39696 H 3317.99 -6.90173 0.474152 0
M  V30 39697 H 3317.12 -7.66548 2.79458 0
M  V30 39698 P 3313.16 -8.03563 3.84925 0
M  V30 39699 O 3312.94 -8.85821 5.0569 0
M  V30 39700 O 3312.37 -8.41101 2.65469 0
M  V30 39701 O 3312.91 -6.4965 4.18908 0
M  V30 39702 C 3313.85 -5.80886 5.05289 0
M  V30 39703 C 3313.12 -4.78366 5.89277 0
M  V30 39704 O 3312.91 -3.58302 5.08433 0
M  V30 39705 C 3311.72 -5.16748 6.36559 0
M  V30 39706 O 3311.33 -4.45271 7.53232 0
M  V30 39707 C 3310.84 -4.74572 5.19863 0
M  V30 39708 C 3311.55 -3.49373 4.70338 0
M  V30 39709 N 3311.5 -3.31704 3.22876 0
M  V30 39710 C 3311.35 -2.03326 2.74871 0
M  V30 39711 O 3311.26 -1.06486 3.48076 0
M  V30 39712 N 3311.31 -1.91838 1.37456 0
M  V30 39713 C 3311.4 -2.94295 0.462035 0
M  V30 39714 O 3311.35 -2.71763 -0.752928 0
M  V30 39715 C 3311.55 -4.25064 1.05249 0
M  V30 39716 C 3311.66 -5.39815 0.095697 0
M  V30 39717 C 3311.6 -4.40214 2.39192 0
M  V30 39718 H 3314.34 -6.54063 5.71245 0
M  V30 39719 H 3314.61 -5.30339 4.43905 0
M  V30 39720 H 3313.74 -4.55889 6.76652 0
M  V30 39721 H 3311.09 -2.6167 5.17842 0
M  V30 39722 H 3310.81 -5.52155 4.41878 0
M  V30 39723 H 3309.82 -4.51918 5.53297 0
M  V30 39724 H 3311.65 -6.25055 6.55162 0
M  V30 39725 H 3311.72 -5.39798 2.81523 0
M  V30 39726 H 3310.69 -5.91593 0.0279582 0
M  V30 39727 H 3312.43 -6.10038 0.450573 0
M  V30 39728 H 3311.94 -5.02007 -0.89937 0
M  V30 39729 H 3311.21 -0.995326 1.00435 0
M  V30 39730 P 3309.78 -4.23843 7.83734 0
M  V30 39731 O 3309.56 -4.19407 9.29784 0
M  V30 39732 O 3308.99 -5.24426 7.09156 0
M  V30 39733 O 3309.53 -2.7935 7.20758 0
M  V30 39734 C 3310.47 -1.7299 7.50419 0
M  V30 39735 C 3309.74 -0.406376 7.57911 0
M  V30 39736 O 3309.53 0.0897726 6.21935 0
M  V30 39737 C 3308.34 -0.447224 8.1878 0
M  V30 39738 O 3307.95 0.825065 8.71101 0
M  V30 39739 C 3307.46 -0.783801 6.99623 0
M  V30 39740 C 3308.17 -0.0619192 5.85967 0
M  V30 39741 N 3308.12 -0.7859 4.56281 0
M  V30 39742 H 3310.96 -1.93423 8.4679 0
M  V30 39743 H 3311.23 -1.68181 6.71046 0
M  V30 39744 H 3310.36 0.289041 8.15388 0
M  V30 39745 P 3306.4 1.17771 8.83182 0
M  V30 39746 O 3306.18 2.07206 9.98732 0
M  V30 39747 O 3305.61 -0.0743816 8.81969 0
M  V30 39748 O 3306.15 1.97652 7.47304 0
M  V30 39749 C 3307.09 3.01055 7.08599 0
M  V30 39750 C 3306.36 4.12613 6.37049 0
M  V30 39751 O 3306.15 3.72827 4.97879 0
M  V30 39752 C 3304.96 4.45719 6.88164 0
M  V30 39753 O 3304.57 5.7877 6.5624 0
M  V30 39754 C 3304.08 3.47768 6.11991 0
M  V30 39755 C 3304.79 3.39356 4.77615 0
M  V30 39756 N 3304.74 2.04571 4.15244 0
M  V30 39757 C 3304.59 1.98587 2.78314 0
M  V30 39758 O 3304.5 2.98134 2.08835 0
M  V30 39759 N 3304.55 0.714467 2.24925 0
M  V30 39760 C 3304.64 -0.470001 2.94169 0
M  V30 39761 O 3304.59 -1.55587 2.35195 0
M  V30 39762 C 3304.79 -0.312541 4.36783 0
M  V30 39763 C 3304.9 -1.57711 5.16352 0
M  V30 39764 C 3304.84 0.914512 4.92583 0
M  V30 39765 H 3307.58 3.41169 7.98575 0
M  V30 39766 H 3307.85 2.58295 6.41556 0
M  V30 39767 H 3306.98 5.02657 6.42673 0
M  V30 39768 H 3304.33 4.11637 4.08885 0
M  V30 39769 H 3304.05 2.49626 6.61679 0
M  V30 39770 H 3303.06 3.86566 6.00778 0
M  V30 39771 H 3304.89 4.29943 7.96918 0
M  V30 39772 H 3304.96 1.00937 6.00374 0
M  V30 39773 H 3303.93 -1.80153 5.63503 0
M  V30 39774 H 3305.67 -1.4566 5.94104 0
M  V30 39775 H 3305.18 -2.40664 4.49645 0
M  V30 39776 H 3304.45 0.647622 1.25697 0
M  V30 39777 P 3303.02 6.144 6.45285 0
M  V30 39778 O 3302.8 7.54673 6.86199 0
M  V30 39779 O 3302.23 5.12391 7.179 0
M  V30 39780 O 3302.77 5.99158 4.88404 0
M  V30 39781 C 3303.71 6.60234 3.96415 0
M  V30 39782 C 3302.98 7.08259 2.72856 0
M  V30 39783 O 3302.77 5.9427 1.83651 0
M  V30 39784 C 3301.58 7.64886 2.9555 0
M  V30 39785 O 3301.19 8.53963 1.90717 0
M  V30 39786 C 3300.7 6.4116 2.90739 0
M  V30 39787 C 3301.41 5.55375 1.86963 0
M  V30 39788 N 3301.36 4.09664 2.15742 0
M  V30 39789 H 3304.2 7.45574 4.45629 0
M  V30 39790 H 3304.47 5.86232 3.67314 0
M  V30 39791 H 3303.6 7.84412 2.24479 0
M  V30 39792 P 3299.64 8.7635 1.60911 0
M  V30 39793 O 3299.42 10.1388 1.11561 0
M  V30 39794 O 3298.85 8.36503 2.79617 0
M  V30 39795 O 3299.39 7.71806 0.42951 0
M  V30 39796 C 3300.33 7.67148 -0.673689 0
M  V30 39797 C 3299.6 7.33374 -1.95559 0
M  V30 39798 O 3299.39 5.88721 -2.00726 0
M  V30 39799 C 3298.2 7.92526 -2.10483 0
M  V30 39800 O 3297.81 8.02971 -3.47653 0
M  V30 39801 C 3297.32 6.89602 -1.41652 0
M  V30 39802 C 3298.03 5.59201 -1.75185 0
M  V30 39803 N 3297.98 4.58301 -0.657969 0
M  V30 39804 H 3300.82 8.65116 -0.777161 0
M  V30 39805 H 3301.09 6.9022 -0.46725 0
M  V30 39806 H 3300.22 7.66548 -2.79458 0
M  V30 39807 H 3297.57 5.16165 -2.65183 0
M  V30 39808 H 3297.29 7.06433 -0.329384 0
M  V30 39809 H 3296.3 6.90926 -1.82021 0
M  V30 39810 H 3298.13 8.90873 -1.62657 0
M  V30 39811 P 3296.26 8.03563 -3.84925 0
M  V30 39812 O 3296.04 8.85821 -5.0569 0
M  V30 39813 O 3295.47 8.41101 -2.65469 0
M  V30 39814 O 3296.01 6.4965 -4.18908 0
M  V30 39815 C 3296.95 5.81037 -5.05421 0
M  V30 39816 C 3296.22 4.78366 -5.89277 0
M  V30 39817 O 3296.01 3.58302 -5.08433 0
M  V30 39818 C 3294.82 5.17448 -6.36119 0
M  V30 39819 O 3294.43 4.45271 -7.53232 0
M  V30 39820 C 3293.94 4.74639 -5.19936 0
M  V30 39821 C 3294.65 3.49432 -4.70418 0
M  V30 39822 N 3294.6 3.31776 -3.22945 0
M  V30 39823 H 3297.44 6.54213 -5.71376 0
M  V30 39824 H 3297.71 5.30492 -4.44033 0
M  V30 39825 H 3296.84 4.55889 -6.76652 0
M  V30 39826 P 3292.88 4.23843 -7.83734 0
M  V30 39827 O 3292.66 4.19407 -9.29784 0
M  V30 39828 O 3292.09 5.24426 -7.09156 0
M  V30 39829 O 3292.63 2.7935 -7.20758 0
M  V30 39830 C 3293.57 1.7299 -7.50419 0
M  V30 39831 C 3292.84 0.406376 -7.57911 0
M  V30 39832 O 3292.63 -0.0897726 -6.21935 0
M  V30 39833 C 3291.44 0.447224 -8.1878 0
M  V30 39834 O 3291.05 -0.825065 -8.71101 0
M  V30 39835 C 3290.56 0.783801 -6.99623 0
M  V30 39836 C 3291.27 0.0619192 -5.85967 0
M  V30 39837 N 3291.22 0.7859 -4.56281 0
M  V30 39838 H 3294.06 1.93423 -8.4679 0
M  V30 39839 H 3294.33 1.68181 -6.71046 0
M  V30 39840 H 3293.46 -0.289041 -8.15388 0
M  V30 39841 P 3289.5 -1.17771 -8.83182 0
M  V30 39842 O 3289.28 -2.07206 -9.98732 0
M  V30 39843 O 3288.71 0.0743816 -8.81969 0
M  V30 39844 O 3289.25 -1.97652 -7.47304 0
M  V30 39845 C 3290.19 -3.01133 -7.08783 0
M  V30 39846 C 3289.46 -4.12613 -6.37049 0
M  V30 39847 O 3289.25 -3.72827 -4.97879 0
M  V30 39848 C 3288.06 -4.45085 -6.88694 0
M  V30 39849 O 3287.67 -5.7877 -6.5624 0
M  V30 39850 C 3287.18 -3.47817 -6.12078 0
M  V30 39851 C 3287.89 -3.39414 -4.77697 0
M  V30 39852 N 3287.84 -2.04199 -4.15538 0
M  V30 39853 C 3287.92 -0.821545 -4.76977 0
M  V30 39854 N 3287.85 0.1794 -3.94592 0
M  V30 39855 C 3287.7 -0.419121 -2.70776 0
M  V30 39856 C 3287.57 0.109072 -1.40577 0
M  V30 39857 N 3287.56 1.4104 -1.1344 0
M  V30 39858 N 3287.45 -0.764381 -0.39411 0
M  V30 39859 C 3287.46 -2.06587 -0.664135 0
M  V30 39860 N 3287.58 -2.67948 -1.82153 0
M  V30 39861 C 3287.7 -1.77942 -2.8147 0
M  V30 39862 H 3290.68 -3.41248 -7.98759 0
M  V30 39863 H 3290.95 -2.57728 -6.42 0
M  V30 39864 H 3290.08 -5.02657 -6.42673 0
M  V30 39865 H 3287.43 -4.11708 -4.08956 0
M  V30 39866 H 3287.15 -2.49626 -6.61679 0
M  V30 39867 H 3286.16 -3.8662 -6.00862 0
M  V30 39868 H 3287.99 -4.29991 -7.97006 0
M  V30 39869 H 3288.03 -0.702451 -5.84696 0
M  V30 39870 H 3287.65 2.09647 -1.89651 0
M  V30 39871 H 3287.46 1.73358 -0.160575 0
M  V30 39872 H 3287.35 -2.71695 0.195838 0
M  V30 39873 P 3286.12 -6.144 -6.45285 0
M  V30 39874 O 3285.9 -7.54673 -6.86199 0
M  V30 39875 O 3285.33 -5.12391 -7.179 0
M  V30 39876 O 3285.87 -5.99158 -4.88404 0
M  V30 39877 C 3286.81 -6.60234 -3.96415 0
M  V30 39878 C 3286.08 -7.08259 -2.72856 0
M  V30 39879 O 3285.87 -5.9427 -1.83651 0
M  V30 39880 C 3284.68 -7.64886 -2.9555 0
M  V30 39881 O 3284.29 -8.53963 -1.90717 0
M  V30 39882 C 3283.8 -6.4116 -2.90739 0
M  V30 39883 C 3284.51 -5.55375 -1.86963 0
M  V30 39884 N 3284.46 -4.09664 -2.15742 0
M  V30 39885 H 3287.3 -7.45574 -4.45629 0
M  V30 39886 H 3287.57 -5.86232 -3.67314 0
M  V30 39887 H 3286.7 -7.84412 -2.24479 0
M  V30 39888 P 3282.74 -8.7635 -1.60911 0
M  V30 39889 O 3282.52 -10.1388 -1.11561 0
M  V30 39890 O 3281.95 -8.36503 -2.79617 0
M  V30 39891 O 3282.49 -7.71806 -0.42951 0
M  V30 39892 C 3283.43 -7.67148 0.673689 0
M  V30 39893 C 3282.7 -7.33374 1.95559 0
M  V30 39894 O 3282.49 -5.88721 2.00726 0
M  V30 39895 C 3281.3 -7.92526 2.10483 0
M  V30 39896 O 3280.91 -8.02971 3.47653 0
M  V30 39897 C 3280.42 -6.89602 1.41652 0
M  V30 39898 C 3281.13 -5.59201 1.75185 0
M  V30 39899 N 3281.08 -4.58301 0.657969 0
M  V30 39900 H 3283.92 -8.65116 0.777161 0
M  V30 39901 H 3284.19 -6.9022 0.46725 0
M  V30 39902 H 3283.32 -7.66548 2.79458 0
M  V30 39903 H 3280.67 -5.16165 2.65183 0
M  V30 39904 H 3280.39 -7.06433 0.329384 0
M  V30 39905 H 3279.4 -6.90926 1.82021 0
M  V30 39906 H 3281.23 -8.90873 1.62657 0
M  V30 39907 P 3279.36 -8.03563 3.84925 0
M  V30 39908 O 3279.14 -8.85821 5.0569 0
M  V30 39909 O 3278.57 -8.41101 2.65469 0
M  V30 39910 O 3279.11 -6.4965 4.18908 0
M  V30 39911 C 3280.05 -5.81037 5.05421 0
M  V30 39912 C 3279.32 -4.78366 5.89277 0
M  V30 39913 O 3279.11 -3.58302 5.08433 0
M  V30 39914 C 3277.92 -5.17448 6.36119 0
M  V30 39915 O 3277.53 -4.45271 7.53232 0
M  V30 39916 C 3277.04 -4.74639 5.19936 0
M  V30 39917 C 3277.75 -3.49432 4.70418 0
M  V30 39918 N 3277.7 -3.31776 3.22945 0
M  V30 39919 H 3280.54 -6.54213 5.71376 0
M  V30 39920 H 3280.81 -5.30492 4.44033 0
M  V30 39921 H 3279.94 -4.55889 6.76652 0
M  V30 39922 P 3275.98 -4.23843 7.83734 0
M  V30 39923 O 3275.76 -4.19407 9.29784 0
M  V30 39924 O 3275.19 -5.24426 7.09156 0
M  V30 39925 O 3275.73 -2.7935 7.20758 0
M  V30 39926 C 3276.67 -1.7299 7.50419 0
M  V30 39927 C 3275.94 -0.406376 7.57911 0
M  V30 39928 O 3275.73 0.0897726 6.21935 0
M  V30 39929 C 3274.54 -0.447224 8.1878 0
M  V30 39930 O 3274.15 0.825065 8.71101 0
M  V30 39931 C 3273.66 -0.783801 6.99623 0
M  V30 39932 C 3274.37 -0.0619192 5.85967 0
M  V30 39933 N 3274.32 -0.7859 4.56281 0
M  V30 39934 H 3277.16 -1.93423 8.4679 0
M  V30 39935 H 3277.43 -1.68181 6.71046 0
M  V30 39936 H 3276.56 0.289041 8.15388 0
M  V30 39937 P 3272.6 1.17771 8.83182 0
M  V30 39938 O 3272.38 2.07206 9.98732 0
M  V30 39939 O 3271.81 -0.0743816 8.81969 0
M  V30 39940 O 3272.35 1.97652 7.47304 0
M  V30 39941 C 3273.29 3.01133 7.08783 0
M  V30 39942 C 3272.56 4.12613 6.37049 0
M  V30 39943 O 3272.35 3.72827 4.97879 0
M  V30 39944 C 3271.16 4.45085 6.88694 0
M  V30 39945 O 3270.77 5.7877 6.5624 0
M  V30 39946 C 3270.28 3.47817 6.12078 0
M  V30 39947 C 3270.99 3.39414 4.77697 0
M  V30 39948 N 3270.94 2.04615 4.15333 0
M  V30 39949 H 3273.78 3.41248 7.98759 0
M  V30 39950 H 3274.05 2.5837 6.41742 0
M  V30 39951 H 3273.18 5.02657 6.42673 0
M  V30 39952 P 3269.22 6.144 6.45285 0
M  V30 39953 O 3269 7.54673 6.86199 0
M  V30 39954 O 3268.43 5.12391 7.179 0
M  V30 39955 O 3268.97 5.99158 4.88404 0
M  V30 39956 C 3269.91 6.60234 3.96415 0
M  V30 39957 C 3269.18 7.08259 2.72856 0
M  V30 39958 O 3268.97 5.9427 1.83651 0
M  V30 39959 C 3267.78 7.64886 2.9555 0
M  V30 39960 O 3267.39 8.53963 1.90717 0
M  V30 39961 C 3266.9 6.4116 2.90739 0
M  V30 39962 C 3267.61 5.55375 1.86963 0
M  V30 39963 N 3267.56 4.09448 2.16152 0
M  V30 39964 H 3270.4 7.45574 4.45629 0
M  V30 39965 H 3270.67 5.85864 3.679 0
M  V30 39966 H 3269.8 7.84412 2.24479 0
M  V30 39967 H 3267.15 5.73457 0.888562 0
M  V30 39968 H 3266.87 5.90877 3.88583 0
M  V30 39969 H 3265.88 6.6596 2.58858 0
M  V30 39970 H 3267.71 8.16339 3.92049 0
M  V30 39971 P 3265.84 8.7635 1.60911 0
M  V30 39972 O 3265.62 10.1388 1.11561 0
M  V30 39973 O 3265.05 8.36503 2.79617 0
M  V30 39974 O 3265.59 7.71806 0.42951 0
M  V30 39975 C 3266.53 7.67148 -0.673689 0
M  V30 39976 C 3265.8 7.33374 -1.95559 0
M  V30 39977 O 3265.59 5.88721 -2.00726 0
M  V30 39978 C 3264.4 7.92526 -2.10483 0
M  V30 39979 O 3264.01 8.02971 -3.47653 0
M  V30 39980 C 3263.52 6.89602 -1.41652 0
M  V30 39981 C 3264.23 5.59201 -1.75185 0
M  V30 39982 N 3264.18 4.58235 -0.662552 0
M  V30 39983 H 3267.02 8.65116 -0.777161 0
M  V30 39984 H 3267.29 6.90173 -0.474152 0
M  V30 39985 H 3266.42 7.66548 -2.79458 0
M  V30 39986 P 3262.46 8.03563 -3.84925 0
M  V30 39987 O 3262.24 8.85821 -5.0569 0
M  V30 39988 O 3261.67 8.41101 -2.65469 0
M  V30 39989 O 3262.21 6.4965 -4.18908 0
M  V30 39990 C 3263.15 5.81037 -5.05421 0
M  V30 39991 C 3262.42 4.78366 -5.89277 0
M  V30 39992 O 3262.21 3.58302 -5.08433 0
M  V30 39993 C 3261.02 5.17448 -6.36119 0
M  V30 39994 O 3260.63 4.45271 -7.53232 0
M  V30 39995 C 3260.14 4.74639 -5.19936 0
M  V30 39996 C 3260.85 3.49432 -4.70418 0
M  V30 39997 N 3260.8 3.32099 -3.22613 0
M  V30 39998 C 3260.88 4.28245 -2.25527 0
M  V30 39999 N 3260.81 3.80823 -1.04874 0
M  V30 40000 C 3260.66 2.44571 -1.23535 0
M  V30 40001 C 3260.53 1.37068 -0.330675 0
M  V30 40002 N 3260.52 1.51472 0.990824 0
M  V30 40003 N 3260.41 0.138614 -0.848756 0
M  V30 40004 C 3260.42 -0.00675923 -2.16999 0
M  V30 40005 N 3260.54 0.904372 -3.11122 0
M  V30 40006 C 3260.66 2.12707 -2.56212 0
M  V30 40007 H 3263.64 6.54213 -5.71376 0
M  V30 40008 H 3263.91 5.30936 -4.43503 0
M  V30 40009 H 3263.04 4.55889 -6.76652 0
M  V30 40010 H 3260.39 2.61715 -5.17932 0
M  V30 40011 H 3260.11 5.52155 -4.41878 0
M  V30 40012 H 3259.12 4.51981 -5.53374 0
M  V30 40013 H 3260.95 6.25124 -6.55234 0
M  V30 40014 H 3260.99 5.34372 -2.47488 0
M  V30 40015 H 3260.61 2.45153 1.4078 0
M  V30 40016 H 3260.42 0.688422 1.59911 0
M  V30 40017 H 3260.31 -1.02584 -2.52346 0
M  V30 40018 P 3259.08 4.23843 -7.83734 0
M  V30 40019 O 3258.86 4.19407 -9.29784 0
M  V30 40020 O 3258.29 5.24426 -7.09156 0
M  V30 40021 O 3258.83 2.7935 -7.20758 0
M  V30 40022 C 3259.77 1.7299 -7.50419 0
M  V30 40023 C 3259.04 0.406376 -7.57911 0
M  V30 40024 O 3258.83 -0.0897726 -6.21935 0
M  V30 40025 C 3257.64 0.447224 -8.1878 0
M  V30 40026 O 3257.25 -0.825065 -8.71101 0
M  V30 40027 C 3256.76 0.783801 -6.99623 0
M  V30 40028 C 3257.47 0.0619192 -5.85967 0
M  V30 40029 N 3257.42 0.790462 -4.56202 0
M  V30 40030 C 3257.5 2.13895 -4.34171 0
M  V30 40031 N 3257.43 2.46449 -3.08687 0
M  V30 40032 C 3257.28 1.2525 -2.43697 0
M  V30 40033 C 3257.15 0.914535 -1.07318 0
M  V30 40034 N 3257.14 1.80782 -0.0887348 0
M  V30 40035 N 3257.03 -0.386745 -0.768133 0
M  V30 40036 C 3257.04 -1.28096 -1.75159 0
M  V30 40037 N 3257.16 -1.09708 -3.04861 0
M  V30 40038 C 3257.28 0.214857 -3.32306 0
M  V30 40039 H 3260.26 1.93423 -8.4679 0
M  V30 40040 H 3260.53 1.68852 -6.70877 0
M  V30 40041 H 3259.66 -0.289041 -8.15388 0
M  V30 40042 H 3257.01 -0.927006 -5.72848 0
M  V30 40043 H 3256.73 1.86973 -6.82036 0
M  V30 40044 H 3255.74 0.403953 -7.13357 0
M  V30 40045 H 3257.57 1.20599 -8.97534 0
M  V30 40046 H 3257.61 2.86846 -5.14318 0
M  V30 40047 H 3257.23 2.81082 -0.302037 0
M  V30 40048 H 3257.04 1.49688 0.889064 0
M  V30 40049 H 3256.93 -2.31317 -1.43855 0
M  V30 40050 P 3255.7 -1.17771 -8.83182 0
M  V30 40051 O 3255.48 -2.07206 -9.98732 0
M  V30 40052 O 3254.91 0.0743816 -8.81969 0
M  V30 40053 O 3255.45 -1.97652 -7.47304 0
M  V30 40054 C 3256.39 -3.01133 -7.08783 0
M  V30 40055 C 3255.66 -4.12613 -6.37049 0
M  V30 40056 O 3255.45 -3.72827 -4.97879 0
M  V30 40057 C 3254.26 -4.45085 -6.88694 0
M  V30 40058 O 3253.87 -5.7877 -6.5624 0
M  V30 40059 C 3253.38 -3.47817 -6.12078 0
M  V30 40060 C 3254.09 -3.39414 -4.77697 0
M  V30 40061 N 3254.04 -2.04199 -4.15538 0
M  V30 40062 H 3256.88 -3.41248 -7.98759 0
M  V30 40063 H 3257.15 -2.57728 -6.42 0
M  V30 40064 H 3256.28 -5.02657 -6.42673 0
M  V30 40065 H 3253.63 -4.11708 -4.08956 0
M  V30 40066 H 3253.35 -2.49626 -6.61679 0
M  V30 40067 H 3252.36 -3.8662 -6.00862 0
M  V30 40068 H 3254.19 -4.29991 -7.97006 0
M  V30 40069 P 3252.32 -6.144 -6.45285 0
M  V30 40070 O 3252.1 -7.54673 -6.86199 0
M  V30 40071 O 3251.53 -5.12391 -7.179 0
M  V30 40072 O 3252.07 -5.99158 -4.88404 0
M  V30 40073 C 3253.01 -6.60234 -3.96415 0
M  V30 40074 C 3252.28 -7.08259 -2.72856 0
M  V30 40075 O 3252.07 -5.9427 -1.83651 0
M  V30 40076 C 3250.88 -7.64886 -2.9555 0
M  V30 40077 O 3250.49 -8.53963 -1.90717 0
M  V30 40078 C 3250 -6.4116 -2.90739 0
M  V30 40079 C 3250.71 -5.55375 -1.86963 0
M  V30 40080 N 3250.66 -4.09448 -2.16152 0
M  V30 40081 C 3250.74 -3.46824 -3.37593 0
M  V30 40082 N 3250.67 -2.17422 -3.29777 0
M  V30 40083 C 3250.52 -1.93065 -1.94427 0
M  V30 40084 C 3250.39 -0.738053 -1.20141 0
M  V30 40085 N 3250.38 0.474256 -1.74676 0
M  V30 40086 N 3250.27 -0.850049 0.13045 0
M  V30 40087 C 3250.28 -2.06169 0.676992 0
M  V30 40088 N 3250.4 -3.23842 0.101312 0
M  V30 40089 C 3250.52 -3.09402 -1.23122 0
M  V30 40090 H 3253.5 -7.45574 -4.45629 0
M  V30 40091 H 3253.77 -5.85864 -3.679 0
M  V30 40092 H 3252.9 -7.84412 -2.24479 0
M  V30 40093 H 3250.25 -5.73457 -0.888562 0
M  V30 40094 H 3249.97 -5.90877 -3.88583 0
M  V30 40095 H 3248.98 -6.6596 -2.58858 0
M  V30 40096 H 3250.81 -8.16339 -3.92049 0
M  V30 40097 H 3250.85 -4.00505 -4.3174 0
M  V30 40098 H 3250.47 0.581337 -2.76658 0
M  V30 40099 H 3250.28 1.30811 -1.14888 0
M  V30 40100 H 3250.17 -2.08295 1.75542 0
M  V30 40101 P 3248.94 -8.7635 -1.60911 0
M  V30 40102 O 3248.72 -10.1388 -1.11561 0
M  V30 40103 O 3248.15 -8.36503 -2.79617 0
M  V30 40104 O 3248.69 -7.71806 -0.42951 0
M  V30 40105 C 3249.63 -7.67148 0.673689 0
M  V30 40106 C 3248.9 -7.33374 1.95559 0
M  V30 40107 O 3248.69 -5.88721 2.00726 0
M  V30 40108 C 3247.5 -7.92526 2.10483 0
M  V30 40109 O 3247.11 -8.02971 3.47653 0
M  V30 40110 C 3246.62 -6.89602 1.41652 0
M  V30 40111 C 3247.33 -5.59201 1.75185 0
M  V30 40112 N 3247.28 -4.58235 0.662552 0
M  V30 40113 H 3250.12 -8.65116 0.777161 0
M  V30 40114 H 3250.39 -6.90173 0.474152 0
M  V30 40115 H 3249.52 -7.66548 2.79458 0
M  V30 40116 P 3245.56 -8.03563 3.84925 0
M  V30 40117 O 3245.34 -8.85821 5.0569 0
M  V30 40118 O 3244.77 -8.41101 2.65469 0
M  V30 40119 O 3245.31 -6.4965 4.18908 0
M  V30 40120 C 3246.25 -5.81037 5.05421 0
M  V30 40121 C 3245.52 -4.78366 5.89277 0
M  V30 40122 O 3245.31 -3.58302 5.08433 0
M  V30 40123 C 3244.12 -5.17448 6.36119 0
M  V30 40124 O 3243.73 -4.45271 7.53232 0
M  V30 40125 C 3243.24 -4.74639 5.19936 0
M  V30 40126 C 3243.95 -3.49432 4.70418 0
M  V30 40127 N 3243.9 -3.31776 3.22945 0
M  V30 40128 C 3243.98 -4.27147 2.23315 0
M  V30 40129 N 3243.9 -3.78447 1.02186 0
M  V30 40130 C 3243.76 -2.41001 1.21732 0
M  V30 40131 C 3243.63 -1.36111 0.27694 0
M  V30 40132 N 3243.51 -0.113683 0.912949 0
M  V30 40133 C 3243.51 0.0846396 2.27943 0
M  V30 40134 N 3243.38 1.34737 2.6916 0
M  V30 40135 N 3243.64 -0.902521 3.16379 0
M  V30 40136 C 3243.76 -2.11937 2.56849 0
M  V30 40137 H 3246.74 -6.54213 5.71376 0
M  V30 40138 H 3247.01 -5.30492 4.44033 0
M  V30 40139 H 3246.14 -4.55889 6.76652 0
M  V30 40140 P 3242.18 -4.23843 7.83734 0
M  V30 40141 O 3241.96 -4.19407 9.29784 0
M  V30 40142 O 3241.39 -5.24426 7.09156 0
M  V30 40143 O 3241.93 -2.7935 7.20758 0
M  V30 40144 C 3242.87 -1.7299 7.50419 0
M  V30 40145 C 3242.14 -0.406376 7.57911 0
M  V30 40146 O 3241.93 0.0897726 6.21935 0
M  V30 40147 C 3240.74 -0.447224 8.1878 0
M  V30 40148 O 3240.35 0.825065 8.71101 0
M  V30 40149 C 3239.86 -0.783801 6.99623 0
M  V30 40150 C 3240.57 -0.0619192 5.85967 0
M  V30 40151 N 3240.52 -0.7859 4.56281 0
M  V30 40152 H 3243.36 -1.93423 8.4679 0
M  V30 40153 H 3243.63 -1.68181 6.71046 0
M  V30 40154 H 3242.76 0.289041 8.15388 0
M  V30 40155 P 3238.8 1.17771 8.83182 0
M  V30 40156 O 3238.58 2.07206 9.98732 0
M  V30 40157 O 3238.01 -0.0743816 8.81969 0
M  V30 40158 O 3238.55 1.97652 7.47304 0
M  V30 40159 C 3239.49 3.01055 7.08599 0
M  V30 40160 C 3238.76 4.12613 6.37049 0
M  V30 40161 O 3238.55 3.72827 4.97879 0
M  V30 40162 C 3237.36 4.45719 6.88164 0
M  V30 40163 O 3236.97 5.7877 6.5624 0
M  V30 40164 C 3236.48 3.47768 6.11991 0
M  V30 40165 C 3237.19 3.39356 4.77615 0
M  V30 40166 N 3237.14 2.04571 4.15244 0
M  V30 40167 C 3236.99 1.98587 2.78314 0
M  V30 40168 O 3236.9 2.98134 2.08835 0
M  V30 40169 N 3236.95 0.714467 2.24925 0
M  V30 40170 C 3237.04 -0.470001 2.94169 0
M  V30 40171 C 3237.19 -0.312541 4.36783 0
M  V30 40172 C 3237.24 0.914512 4.92583 0
M  V30 40173 H 3239.98 3.41169 7.98575 0
M  V30 40174 H 3240.25 2.58295 6.41556 0
M  V30 40175 H 3239.38 5.02657 6.42673 0
M  V30 40176 H 3236.73 4.11637 4.08885 0
M  V30 40177 H 3236.45 2.49626 6.61679 0
M  V30 40178 H 3235.46 3.86566 6.00778 0
M  V30 40179 H 3237.29 4.29943 7.96918 0
M  V30 40180 H 3237.36 1.00937 6.00374 0
M  V30 40181 P 3235.42 6.144 6.45285 0
M  V30 40182 O 3235.2 7.54673 6.86199 0
M  V30 40183 O 3234.63 5.12391 7.179 0
M  V30 40184 O 3235.17 5.99158 4.88404 0
M  V30 40185 C 3236.11 6.60234 3.96415 0
M  V30 40186 C 3235.38 7.08259 2.72856 0
M  V30 40187 O 3235.17 5.9427 1.83651 0
M  V30 40188 C 3233.98 7.64886 2.9555 0
M  V30 40189 O 3233.59 8.53963 1.90717 0
M  V30 40190 C 3233.1 6.4116 2.90739 0
M  V30 40191 C 3233.81 5.55375 1.86963 0
M  V30 40192 N 3233.76 4.09664 2.15742 0
M  V30 40193 C 3233.84 3.44381 3.37233 0
M  V30 40194 N 3233.76 2.14131 3.28347 0
M  V30 40195 C 3233.62 1.90247 1.91588 0
M  V30 40196 C 3233.49 0.683992 1.20892 0
M  V30 40197 N 3233.37 0.903396 -0.173998 0
M  V30 40198 C 3233.37 2.14171 -0.784879 0
M  V30 40199 N 3233.24 2.1435 -2.11317 0
M  V30 40200 N 3233.5 3.28784 -0.119316 0
M  V30 40201 C 3233.62 3.0977 1.22194 0
M  V30 40202 H 3236.6 7.45574 4.45629 0
M  V30 40203 H 3236.87 5.86232 3.67314 0
M  V30 40204 H 3236 7.84412 2.24479 0
M  V30 40205 P 3232.04 8.7635 1.60911 0
M  V30 40206 O 3231.82 10.1388 1.11561 0
M  V30 40207 O 3231.25 8.36503 2.79617 0
M  V30 40208 O 3231.79 7.71806 0.42951 0
M  V30 40209 C 3232.73 7.67148 -0.673689 0
M  V30 40210 C 3232 7.33374 -1.95559 0
M  V30 40211 O 3231.79 5.88721 -2.00726 0
M  V30 40212 C 3230.6 7.92526 -2.10483 0
M  V30 40213 O 3230.21 8.02971 -3.47653 0
M  V30 40214 C 3229.72 6.89602 -1.41652 0
M  V30 40215 C 3230.43 5.59201 -1.75185 0
M  V30 40216 N 3230.38 4.58301 -0.657969 0
M  V30 40217 H 3233.22 8.65116 -0.777161 0
M  V30 40218 H 3233.49 6.9022 -0.46725 0
M  V30 40219 H 3232.62 7.66548 -2.79458 0
M  V30 40220 H 3229.97 5.16165 -2.65183 0
M  V30 40221 H 3229.69 7.06433 -0.329384 0
M  V30 40222 H 3228.7 6.90926 -1.82021 0
M  V30 40223 H 3230.53 8.90873 -1.62657 0
M  V30 40224 P 3228.66 8.03563 -3.84925 0
M  V30 40225 O 3228.44 8.85821 -5.0569 0
M  V30 40226 O 3227.87 8.41101 -2.65469 0
M  V30 40227 O 3228.41 6.4965 -4.18908 0
M  V30 40228 C 3229.35 5.81037 -5.05421 0
M  V30 40229 C 3228.62 4.78366 -5.89277 0
M  V30 40230 O 3228.41 3.58302 -5.08433 0
M  V30 40231 C 3227.22 5.17448 -6.36119 0
M  V30 40232 O 3226.83 4.45271 -7.53232 0
M  V30 40233 C 3226.34 4.74639 -5.19936 0
M  V30 40234 C 3227.05 3.49432 -4.70418 0
M  V30 40235 N 3227 3.32099 -3.22613 0
M  V30 40236 C 3227.08 4.28245 -2.25527 0
M  V30 40237 N 3227.01 3.80823 -1.04874 0
M  V30 40238 C 3226.86 2.44571 -1.23535 0
M  V30 40239 C 3226.73 1.37068 -0.330675 0
M  V30 40240 N 3226.72 1.51472 0.990824 0
M  V30 40241 N 3226.61 0.138614 -0.848756 0
M  V30 40242 C 3226.62 -0.00675923 -2.16999 0
M  V30 40243 N 3226.74 0.904372 -3.11122 0
M  V30 40244 C 3226.86 2.12707 -2.56212 0
M  V30 40245 H 3229.84 6.54213 -5.71376 0
M  V30 40246 H 3230.11 5.30936 -4.43503 0
M  V30 40247 H 3229.24 4.55889 -6.76652 0
M  V30 40248 H 3226.59 2.61715 -5.17932 0
M  V30 40249 H 3226.31 5.52155 -4.41878 0
M  V30 40250 H 3225.32 4.51981 -5.53374 0
M  V30 40251 H 3227.15 6.25124 -6.55234 0
M  V30 40252 H 3227.19 5.34372 -2.47488 0
M  V30 40253 H 3226.81 2.45153 1.4078 0
M  V30 40254 H 3226.62 0.688422 1.59911 0
M  V30 40255 H 3226.51 -1.02584 -2.52346 0
M  V30 40256 P 3225.28 4.23843 -7.83734 0
M  V30 40257 O 3225.06 4.19407 -9.29784 0
M  V30 40258 O 3224.49 5.24426 -7.09156 0
M  V30 40259 O 3225.03 2.7935 -7.20758 0
M  V30 40260 C 3225.97 1.7299 -7.50419 0
M  V30 40261 C 3225.24 0.406376 -7.57911 0
M  V30 40262 O 3225.03 -0.0897726 -6.21935 0
M  V30 40263 C 3223.84 0.447224 -8.1878 0
M  V30 40264 O 3223.45 -0.825065 -8.71101 0
M  V30 40265 C 3222.96 0.783801 -6.99623 0
M  V30 40266 C 3223.67 0.0619192 -5.85967 0
M  V30 40267 N 3223.62 0.7859 -4.56281 0
M  V30 40268 H 3226.46 1.93423 -8.4679 0
M  V30 40269 H 3226.73 1.68181 -6.71046 0
M  V30 40270 H 3225.86 -0.289041 -8.15388 0
M  V30 40271 P 3221.9 -1.17771 -8.83182 0
M  V30 40272 O 3221.68 -2.07206 -9.98732 0
M  V30 40273 O 3221.11 0.0743816 -8.81969 0
M  V30 40274 O 3221.65 -1.97652 -7.47304 0
M  V30 40275 C 3222.59 -3.01133 -7.08783 0
M  V30 40276 C 3221.86 -4.12613 -6.37049 0
M  V30 40277 O 3221.65 -3.72827 -4.97879 0
M  V30 40278 C 3220.46 -4.45085 -6.88694 0
M  V30 40279 O 3220.07 -5.7877 -6.5624 0
M  V30 40280 C 3219.58 -3.47817 -6.12078 0
M  V30 40281 C 3220.29 -3.39414 -4.77697 0
M  V30 40282 N 3220.24 -2.04615 -4.15333 0
M  V30 40283 H 3223.08 -3.41248 -7.98759 0
M  V30 40284 H 3223.35 -2.5837 -6.41742 0
M  V30 40285 H 3222.48 -5.02657 -6.42673 0
M  V30 40286 P 3218.52 -6.144 -6.45285 0
M  V30 40287 O 3218.3 -7.54673 -6.86199 0
M  V30 40288 O 3217.73 -5.12391 -7.179 0
M  V30 40289 O 3218.27 -5.99158 -4.88404 0
M  V30 40290 C 3219.21 -6.60234 -3.96415 0
M  V30 40291 C 3218.48 -7.08259 -2.72856 0
M  V30 40292 O 3218.27 -5.9427 -1.83651 0
M  V30 40293 C 3217.08 -7.64886 -2.9555 0
M  V30 40294 O 3216.69 -8.53963 -1.90717 0
M  V30 40295 C 3216.2 -6.4116 -2.90739 0
M  V30 40296 C 3216.91 -5.55375 -1.86963 0
M  V30 40297 N 3216.86 -4.09664 -2.15742 0
M  V30 40298 H 3219.7 -7.45574 -4.45629 0
M  V30 40299 H 3219.97 -5.86232 -3.67314 0
M  V30 40300 H 3219.1 -7.84412 -2.24479 0
M  V30 40301 P 3215.14 -8.7635 -1.60911 0
M  V30 40302 O 3214.92 -10.1388 -1.11561 0
M  V30 40303 O 3214.35 -8.36503 -2.79617 0
M  V30 40304 O 3214.89 -7.71806 -0.42951 0
M  V30 40305 C 3215.83 -7.67148 0.673689 0
M  V30 40306 C 3215.1 -7.33374 1.95559 0
M  V30 40307 O 3214.89 -5.88721 2.00726 0
M  V30 40308 C 3213.7 -7.92526 2.10483 0
M  V30 40309 O 3213.31 -8.02971 3.47653 0
M  V30 40310 C 3212.82 -6.89602 1.41652 0
M  V30 40311 C 3213.53 -5.59201 1.75185 0
M  V30 40312 N 3213.48 -4.58235 0.662552 0
M  V30 40313 H 3216.32 -8.65116 0.777161 0
M  V30 40314 H 3216.59 -6.90173 0.474152 0
M  V30 40315 H 3215.72 -7.66548 2.79458 0
M  V30 40316 P 3211.76 -8.03563 3.84925 0
M  V30 40317 O 3211.54 -8.85821 5.0569 0
M  V30 40318 O 3210.97 -8.41101 2.65469 0
M  V30 40319 O 3211.51 -6.4965 4.18908 0
M  V30 40320 C 3212.45 -5.81037 5.05421 0
M  V30 40321 C 3211.72 -4.78366 5.89277 0
M  V30 40322 O 3211.51 -3.58302 5.08433 0
M  V30 40323 C 3210.32 -5.17448 6.36119 0
M  V30 40324 O 3209.93 -4.45271 7.53232 0
M  V30 40325 C 3209.44 -4.74639 5.19936 0
M  V30 40326 C 3210.15 -3.49432 4.70418 0
M  V30 40327 N 3210.1 -3.32099 3.22613 0
M  V30 40328 C 3210.18 -4.28245 2.25527 0
M  V30 40329 N 3210.11 -3.80823 1.04874 0
M  V30 40330 C 3209.96 -2.44571 1.23535 0
M  V30 40331 C 3209.83 -1.37068 0.330675 0
M  V30 40332 N 3209.82 -1.51472 -0.990824 0
M  V30 40333 N 3209.71 -0.138614 0.848756 0
M  V30 40334 C 3209.72 0.00675923 2.16999 0
M  V30 40335 N 3209.84 -0.904372 3.11122 0
M  V30 40336 C 3209.96 -2.12707 2.56212 0
M  V30 40337 H 3212.94 -6.54213 5.71376 0
M  V30 40338 H 3213.21 -5.30936 4.43503 0
M  V30 40339 H 3212.34 -4.55889 6.76652 0
M  V30 40340 H 3209.69 -2.61715 5.17932 0
M  V30 40341 H 3209.41 -5.52155 4.41878 0
M  V30 40342 H 3208.42 -4.51981 5.53374 0
M  V30 40343 H 3210.25 -6.25124 6.55234 0
M  V30 40344 H 3210.29 -5.34372 2.47488 0
M  V30 40345 H 3209.91 -2.45153 -1.4078 0
M  V30 40346 H 3209.72 -0.688422 -1.59911 0
M  V30 40347 H 3209.62 1.02584 2.52346 0
M  V30 40348 P 3208.38 -4.23843 7.83734 0
M  V30 40349 O 3208.16 -4.19407 9.29784 0
M  V30 40350 O 3207.59 -5.24426 7.09156 0
M  V30 40351 O 3208.13 -2.7935 7.20758 0
M  V30 40352 C 3209.07 -1.7299 7.50419 0
M  V30 40353 C 3208.34 -0.406376 7.57911 0
M  V30 40354 O 3208.13 0.0897726 6.21935 0
M  V30 40355 C 3206.94 -0.447224 8.1878 0
M  V30 40356 O 3206.55 0.825065 8.71101 0
M  V30 40357 C 3206.06 -0.783801 6.99623 0
M  V30 40358 C 3206.77 -0.0619192 5.85967 0
M  V30 40359 N 3206.72 -0.790462 4.56202 0
M  V30 40360 H 3209.56 -1.93423 8.4679 0
M  V30 40361 H 3209.83 -1.68852 6.70877 0
M  V30 40362 H 3208.96 0.289041 8.15388 0
M  V30 40363 H 3206.31 0.927006 5.72848 0
M  V30 40364 H 3206.03 -1.86973 6.82036 0
M  V30 40365 H 3205.04 -0.403953 7.13357 0
M  V30 40366 H 3206.87 -1.20599 8.97534 0
M  V30 40367 P 3205 1.17771 8.83182 0
M  V30 40368 O 3204.78 2.07206 9.98732 0
M  V30 40369 O 3204.21 -0.0743816 8.81969 0
M  V30 40370 O 3204.75 1.97652 7.47304 0
M  V30 40371 C 3205.69 3.01133 7.08783 0
M  V30 40372 C 3204.96 4.12613 6.37049 0
M  V30 40373 O 3204.75 3.72827 4.97879 0
M  V30 40374 C 3203.56 4.45085 6.88694 0
M  V30 40375 O 3203.17 5.7877 6.5624 0
M  V30 40376 C 3202.68 3.47817 6.12078 0
M  V30 40377 C 3203.39 3.39414 4.77697 0
M  V30 40378 N 3203.34 2.04615 4.15333 0
M  V30 40379 H 3206.18 3.41248 7.98759 0
M  V30 40380 H 3206.45 2.5837 6.41742 0
M  V30 40381 H 3205.58 5.02657 6.42673 0
M  V30 40382 P 3201.62 6.144 6.45285 0
M  V30 40383 O 3201.4 7.54673 6.86199 0
M  V30 40384 O 3200.83 5.12391 7.179 0
M  V30 40385 O 3201.37 5.99158 4.88404 0
M  V30 40386 C 3202.31 6.60234 3.96415 0
M  V30 40387 C 3201.58 7.08259 2.72856 0
M  V30 40388 O 3201.37 5.9427 1.83651 0
M  V30 40389 C 3200.18 7.64886 2.9555 0
M  V30 40390 O 3199.79 8.53963 1.90717 0
M  V30 40391 C 3199.3 6.4116 2.90739 0
M  V30 40392 C 3200.01 5.55375 1.86963 0
M  V30 40393 N 3199.96 4.09448 2.16152 0
M  V30 40394 C 3200.04 3.46824 3.37593 0
M  V30 40395 N 3199.97 2.17422 3.29777 0
M  V30 40396 C 3199.82 1.93065 1.94427 0
M  V30 40397 C 3199.69 0.738053 1.20141 0
M  V30 40398 N 3199.68 -0.474256 1.74676 0
M  V30 40399 N 3199.57 0.850049 -0.13045 0
M  V30 40400 C 3199.58 2.06169 -0.676992 0
M  V30 40401 N 3199.7 3.23842 -0.101312 0
M  V30 40402 C 3199.82 3.09402 1.23122 0
M  V30 40403 H 3202.8 7.45574 4.45629 0
M  V30 40404 H 3203.07 5.85864 3.679 0
M  V30 40405 H 3202.2 7.84412 2.24479 0
M  V30 40406 H 3199.55 5.73457 0.888562 0
M  V30 40407 H 3199.27 5.90877 3.88583 0
M  V30 40408 H 3198.28 6.6596 2.58858 0
M  V30 40409 H 3200.11 8.16339 3.92049 0
M  V30 40410 H 3200.15 4.00505 4.3174 0
M  V30 40411 H 3199.77 -0.581337 2.76658 0
M  V30 40412 H 3199.58 -1.30811 1.14888 0
M  V30 40413 H 3199.48 2.08295 -1.75542 0
M  V30 40414 P 3198.24 8.7635 1.60911 0
M  V30 40415 O 3198.02 10.1388 1.11561 0
M  V30 40416 O 3197.45 8.36503 2.79617 0
M  V30 40417 O 3197.99 7.71906 0.429565 0
M  V30 40418 C 3198.93 7.67148 -0.673689 0
M  V30 40419 C 3198.2 7.33666 -1.94851 0
M  V30 40420 O 3197.99 5.88816 -2.00759 0
M  V30 40421 C 3196.8 7.92526 -2.10483 0
M  V30 40422 O 3196.41 8.03063 -3.47693 0
M  V30 40423 C 3195.92 6.89602 -1.41652 0
M  V30 40424 C 3196.63 5.59201 -1.75185 0
M  V30 40425 N 3196.58 4.58235 -0.662552 0
M  V30 40426 C 3196.43 3.24451 -1.01643 0
M  V30 40427 O 3196.34 2.94958 -2.21722 0
M  V30 40428 N 3196.38 2.30408 0.165238 0
M  V30 40429 C 3196.48 2.66048 1.25118 0
M  V30 40430 N 3196.43 1.70787 2.16813 0
M  V30 40431 C 3196.63 4.02732 1.64413 0
M  V30 40432 C 3196.68 4.9488 0.63991 0
M  V30 40433 H 3199.42 8.65017 -0.777072 0
M  V30 40434 H 3199.69 6.90173 -0.474152 0
M  V30 40435 H 3198.82 7.66642 -2.79492 0
M  V30 40436 H 3196.17 5.16254 -2.65229 0
M  V30 40437 H 3195.89 7.06532 -0.329431 0
M  V30 40438 H 3194.9 6.91023 -1.82047 0
M  V30 40439 H 3196.73 8.90873 -1.62657 0
M  V30 40440 H 3196.8 6.00104 0.892197 0
M  V30 40441 H 3196.7 4.31733 2.69229 0
M  V30 40442 H 3196.31 0.724835 1.8844 0
M  V30 40443 H 3196.51 1.94716 3.16734 0
M  V30 40444 P 3194.86 8.03563 -3.84925 0
M  V30 40445 O 3194.64 8.85821 -5.0569 0
M  V30 40446 O 3194.07 8.41101 -2.65469 0
M  V30 40447 O 3194.61 6.4965 -4.18908 0
M  V30 40448 C 3195.55 5.81037 -5.05421 0
M  V30 40449 C 3194.82 4.78366 -5.89277 0
M  V30 40450 O 3194.61 3.58302 -5.08433 0
M  V30 40451 C 3193.42 5.17448 -6.36119 0
M  V30 40452 O 3193.03 4.45271 -7.53232 0
M  V30 40453 C 3192.54 4.74639 -5.19936 0
M  V30 40454 C 3193.25 3.49432 -4.70418 0
M  V30 40455 N 3193.2 3.31776 -3.22945 0
M  V30 40456 H 3196.04 6.54213 -5.71376 0
M  V30 40457 H 3196.31 5.30492 -4.44033 0
M  V30 40458 H 3195.44 4.55889 -6.76652 0
M  V30 40459 P 3191.48 4.23843 -7.83734 0
M  V30 40460 O 3191.26 4.19407 -9.29784 0
M  V30 40461 O 3190.69 5.24426 -7.09156 0
M  V30 40462 O 3191.23 2.7935 -7.20758 0
M  V30 40463 C 3192.17 1.7299 -7.50419 0
M  V30 40464 C 3191.44 0.406376 -7.57911 0
M  V30 40465 O 3191.23 -0.0897726 -6.21935 0
M  V30 40466 C 3190.04 0.447224 -8.1878 0
M  V30 40467 O 3189.65 -0.825065 -8.71101 0
M  V30 40468 C 3189.16 0.783801 -6.99623 0
M  V30 40469 C 3189.87 0.0619192 -5.85967 0
M  V30 40470 N 3189.82 0.7859 -4.56281 0
M  V30 40471 H 3192.66 1.93423 -8.4679 0
M  V30 40472 H 3192.93 1.68181 -6.71046 0
M  V30 40473 H 3192.06 -0.289041 -8.15388 0
M  V30 40474 P 3188.1 -1.17771 -8.83182 0
M  V30 40475 O 3187.88 -2.07206 -9.98732 0
M  V30 40476 O 3187.31 0.0743816 -8.81969 0
M  V30 40477 O 3187.85 -1.97652 -7.47304 0
M  V30 40478 C 3188.79 -3.01133 -7.08783 0
M  V30 40479 C 3188.06 -4.12613 -6.37049 0
M  V30 40480 O 3187.85 -3.72827 -4.97879 0
M  V30 40481 C 3186.66 -4.45085 -6.88694 0
M  V30 40482 O 3186.27 -5.7877 -6.5624 0
M  V30 40483 C 3185.78 -3.47817 -6.12078 0
M  V30 40484 C 3186.49 -3.39414 -4.77697 0
M  V30 40485 N 3186.44 -2.04615 -4.15333 0
M  V30 40486 H 3189.28 -3.41248 -7.98759 0
M  V30 40487 H 3189.55 -2.5837 -6.41742 0
M  V30 40488 H 3188.68 -5.02657 -6.42673 0
M  V30 40489 P 3184.72 -6.144 -6.45285 0
M  V30 40490 O 3184.5 -7.54673 -6.86199 0
M  V30 40491 O 3183.93 -5.12391 -7.179 0
M  V30 40492 O 3184.47 -5.99158 -4.88404 0
M  V30 40493 C 3185.41 -6.60234 -3.96415 0
M  V30 40494 C 3184.68 -7.08259 -2.72856 0
M  V30 40495 O 3184.47 -5.9427 -1.83651 0
M  V30 40496 C 3183.28 -7.64886 -2.9555 0
M  V30 40497 O 3182.89 -8.53963 -1.90717 0
M  V30 40498 C 3182.4 -6.4116 -2.90739 0
M  V30 40499 C 3183.11 -5.55375 -1.86963 0
M  V30 40500 N 3183.06 -4.09664 -2.15742 0
M  V30 40501 H 3185.9 -7.45574 -4.45629 0
M  V30 40502 H 3186.17 -5.86232 -3.67314 0
M  V30 40503 H 3185.3 -7.84412 -2.24479 0
M  V30 40504 P 3181.34 -8.7635 -1.60911 0
M  V30 40505 O 3181.12 -10.1388 -1.11561 0
M  V30 40506 O 3180.55 -8.36503 -2.79617 0
M  V30 40507 O 3181.09 -7.71806 -0.42951 0
M  V30 40508 C 3182.03 -7.67148 0.673689 0
M  V30 40509 C 3181.3 -7.33374 1.95559 0
M  V30 40510 O 3181.09 -5.88721 2.00726 0
M  V30 40511 C 3179.9 -7.92526 2.10483 0
M  V30 40512 O 3179.51 -8.02971 3.47653 0
M  V30 40513 C 3179.02 -6.89602 1.41652 0
M  V30 40514 C 3179.73 -5.59201 1.75185 0
M  V30 40515 N 3179.68 -4.58235 0.662552 0
M  V30 40516 H 3182.52 -8.65116 0.777161 0
M  V30 40517 H 3182.79 -6.90173 0.474152 0
M  V30 40518 H 3181.92 -7.66548 2.79458 0
M  V30 40519 P 3177.96 -8.03563 3.84925 0
M  V30 40520 O 3177.74 -8.85821 5.0569 0
M  V30 40521 O 3177.17 -8.41101 2.65469 0
M  V30 40522 O 3177.71 -6.4965 4.18908 0
M  V30 40523 C 3178.65 -5.81037 5.05421 0
M  V30 40524 C 3177.92 -4.78366 5.89277 0
M  V30 40525 O 3177.71 -3.58302 5.08433 0
M  V30 40526 C 3176.52 -5.17448 6.36119 0
M  V30 40527 O 3176.13 -4.45271 7.53232 0
M  V30 40528 C 3175.64 -4.74639 5.19936 0
M  V30 40529 C 3176.35 -3.49432 4.70418 0
M  V30 40530 N 3176.3 -3.31776 3.22945 0
M  V30 40531 H 3179.14 -6.54213 5.71376 0
M  V30 40532 H 3179.41 -5.30492 4.44033 0
M  V30 40533 H 3178.54 -4.55889 6.76652 0
M  V30 40534 P 3174.58 -4.23843 7.83734 0
M  V30 40535 O 3174.36 -4.19407 9.29784 0
M  V30 40536 O 3173.79 -5.24426 7.09156 0
M  V30 40537 O 3174.33 -2.7935 7.20758 0
M  V30 40538 C 3175.27 -1.7299 7.50419 0
M  V30 40539 C 3174.54 -0.406376 7.57911 0
M  V30 40540 O 3174.33 0.0897726 6.21935 0
M  V30 40541 C 3173.14 -0.447224 8.1878 0
M  V30 40542 O 3172.75 0.825065 8.71101 0
M  V30 40543 C 3172.26 -0.783801 6.99623 0
M  V30 40544 C 3172.97 -0.0619192 5.85967 0
M  V30 40545 N 3172.92 -0.7859 4.56281 0
M  V30 40546 H 3175.76 -1.93423 8.4679 0
M  V30 40547 H 3176.03 -1.68181 6.71046 0
M  V30 40548 H 3175.16 0.289041 8.15388 0
M  V30 40549 P 3171.2 1.17771 8.83182 0
M  V30 40550 O 3170.98 2.07206 9.98732 0
M  V30 40551 O 3170.41 -0.0743816 8.81969 0
M  V30 40552 O 3170.95 1.97652 7.47304 0
M  V30 40553 C 3171.89 3.01133 7.08783 0
M  V30 40554 C 3171.16 4.12613 6.37049 0
M  V30 40555 O 3170.95 3.72827 4.97879 0
M  V30 40556 C 3169.76 4.45085 6.88694 0
M  V30 40557 O 3169.37 5.7877 6.5624 0
M  V30 40558 C 3168.88 3.47817 6.12078 0
M  V30 40559 C 3169.59 3.39414 4.77697 0
M  V30 40560 N 3169.54 2.04615 4.15333 0
M  V30 40561 H 3172.38 3.41248 7.98759 0
M  V30 40562 H 3172.65 2.5837 6.41742 0
M  V30 40563 H 3171.78 5.02657 6.42673 0
M  V30 40564 P 3167.82 6.144 6.45285 0
M  V30 40565 O 3167.6 7.54673 6.86199 0
M  V30 40566 O 3167.03 5.12391 7.179 0
M  V30 40567 O 3167.57 5.99158 4.88404 0
M  V30 40568 C 3168.51 6.60234 3.96415 0
M  V30 40569 C 3167.78 7.08259 2.72856 0
M  V30 40570 O 3167.57 5.9427 1.83651 0
M  V30 40571 C 3166.38 7.64886 2.9555 0
M  V30 40572 O 3165.99 8.53963 1.90717 0
M  V30 40573 C 3165.5 6.4116 2.90739 0
M  V30 40574 C 3166.21 5.55375 1.86963 0
M  V30 40575 N 3166.16 4.09664 2.15742 0
M  V30 40576 H 3169 7.45574 4.45629 0
M  V30 40577 H 3169.27 5.86232 3.67314 0
M  V30 40578 H 3168.4 7.84412 2.24479 0
M  V30 40579 P 3164.44 8.7635 1.60911 0
M  V30 40580 O 3164.22 10.1388 1.11561 0
M  V30 40581 O 3163.65 8.36503 2.79617 0
M  V30 40582 O 3164.19 7.71806 0.42951 0
M  V30 40583 C 3165.13 7.67148 -0.673689 0
M  V30 40584 C 3164.4 7.33374 -1.95559 0
M  V30 40585 O 3164.19 5.88721 -2.00726 0
M  V30 40586 C 3163 7.92526 -2.10483 0
M  V30 40587 O 3162.61 8.02971 -3.47653 0
M  V30 40588 C 3162.12 6.89602 -1.41652 0
M  V30 40589 C 3162.83 5.59201 -1.75185 0
M  V30 40590 N 3162.78 4.58301 -0.657969 0
M  V30 40591 H 3165.62 8.65116 -0.777161 0
M  V30 40592 H 3165.89 6.9022 -0.46725 0
M  V30 40593 H 3165.02 7.66548 -2.79458 0
M  V30 40594 H 3162.37 5.16165 -2.65183 0
M  V30 40595 H 3162.09 7.06433 -0.329384 0
M  V30 40596 H 3161.1 6.90926 -1.82021 0
M  V30 40597 H 3162.93 8.90873 -1.62657 0
M  V30 40598 P 3161.06 8.03563 -3.84925 0
M  V30 40599 O 3160.84 8.85821 -5.0569 0
M  V30 40600 O 3160.27 8.41101 -2.65469 0
M  V30 40601 O 3160.81 6.4965 -4.18908 0
M  V30 40602 C 3161.75 5.81037 -5.05421 0
M  V30 40603 C 3161.02 4.78366 -5.89277 0
M  V30 40604 O 3160.81 3.58302 -5.08433 0
M  V30 40605 C 3159.62 5.17448 -6.36119 0
M  V30 40606 O 3159.23 4.45271 -7.53232 0
M  V30 40607 C 3158.74 4.74639 -5.19936 0
M  V30 40608 C 3159.45 3.49432 -4.70418 0
M  V30 40609 N 3159.4 3.31776 -3.22945 0
M  V30 40610 C 3159.48 4.27147 -2.23315 0
M  V30 40611 N 3159.4 3.78447 -1.02186 0
M  V30 40612 C 3159.26 2.41001 -1.21732 0
M  V30 40613 C 3159.13 1.36111 -0.27694 0
M  V30 40614 N 3159.01 0.113683 -0.912949 0
M  V30 40615 C 3159.01 -0.0846396 -2.27943 0
M  V30 40616 N 3158.88 -1.34737 -2.6916 0
M  V30 40617 N 3159.14 0.902521 -3.16379 0
M  V30 40618 C 3159.26 2.11937 -2.56849 0
M  V30 40619 H 3162.24 6.54213 -5.71376 0
M  V30 40620 H 3162.51 5.30492 -4.44033 0
M  V30 40621 H 3161.64 4.55889 -6.76652 0
M  V30 40622 P 3157.68 4.23843 -7.83734 0
M  V30 40623 O 3157.46 4.19407 -9.29784 0
M  V30 40624 O 3156.89 5.24426 -7.09156 0
M  V30 40625 O 3157.43 2.7935 -7.20758 0
M  V30 40626 C 3158.37 1.7299 -7.50419 0
M  V30 40627 C 3157.64 0.406376 -7.57911 0
M  V30 40628 O 3157.43 -0.0897726 -6.21935 0
M  V30 40629 C 3156.24 0.447224 -8.1878 0
M  V30 40630 O 3155.85 -0.825065 -8.71101 0
M  V30 40631 C 3155.36 0.783801 -6.99623 0
M  V30 40632 C 3156.07 0.0619192 -5.85967 0
M  V30 40633 N 3156.02 0.790462 -4.56202 0
M  V30 40634 C 3156.1 2.13895 -4.34171 0
M  V30 40635 N 3156.03 2.46449 -3.08687 0
M  V30 40636 C 3155.88 1.2525 -2.43697 0
M  V30 40637 C 3155.75 0.914535 -1.07318 0
M  V30 40638 N 3155.74 1.80782 -0.0887348 0
M  V30 40639 N 3155.63 -0.386745 -0.768133 0
M  V30 40640 C 3155.64 -1.28096 -1.75159 0
M  V30 40641 N 3155.76 -1.09708 -3.04861 0
M  V30 40642 C 3155.88 0.214857 -3.32306 0
M  V30 40643 H 3158.86 1.93423 -8.4679 0
M  V30 40644 H 3159.13 1.68852 -6.70877 0
M  V30 40645 H 3158.26 -0.289041 -8.15388 0
M  V30 40646 H 3155.61 -0.927006 -5.72848 0
M  V30 40647 H 3155.33 1.86973 -6.82036 0
M  V30 40648 H 3154.34 0.403953 -7.13357 0
M  V30 40649 H 3156.17 1.20599 -8.97534 0
M  V30 40650 H 3156.21 2.86846 -5.14318 0
M  V30 40651 H 3155.83 2.81082 -0.302037 0
M  V30 40652 H 3155.64 1.49688 0.889064 0
M  V30 40653 H 3155.54 -2.31317 -1.43855 0
M  V30 40654 P 3154.3 -1.17771 -8.83182 0
M  V30 40655 O 3154.08 -2.07206 -9.98732 0
M  V30 40656 O 3153.51 0.0743816 -8.81969 0
M  V30 40657 O 3154.05 -1.97652 -7.47304 0
M  V30 40658 C 3154.99 -3.01133 -7.08783 0
M  V30 40659 C 3154.26 -4.12613 -6.37049 0
M  V30 40660 O 3154.05 -3.72827 -4.97879 0
M  V30 40661 C 3152.86 -4.45085 -6.88694 0
M  V30 40662 O 3152.47 -5.7877 -6.5624 0
M  V30 40663 C 3151.98 -3.47817 -6.12078 0
M  V30 40664 C 3152.69 -3.39414 -4.77697 0
M  V30 40665 N 3152.64 -2.04615 -4.15333 0
M  V30 40666 H 3155.48 -3.41248 -7.98759 0
M  V30 40667 H 3155.75 -2.5837 -6.41742 0
M  V30 40668 H 3154.88 -5.02657 -6.42673 0
M  V30 40669 P 3150.92 -6.144 -6.45285 0
M  V30 40670 O 3150.7 -7.54673 -6.86199 0
M  V30 40671 O 3150.13 -5.12391 -7.179 0
M  V30 40672 O 3150.67 -5.99158 -4.88404 0
M  V30 40673 C 3151.61 -6.60234 -3.96415 0
M  V30 40674 C 3150.88 -7.08259 -2.72856 0
M  V30 40675 O 3150.67 -5.9427 -1.83651 0
M  V30 40676 C 3149.48 -7.64886 -2.9555 0
M  V30 40677 O 3149.09 -8.53963 -1.90717 0
M  V30 40678 C 3148.6 -6.4116 -2.90739 0
M  V30 40679 C 3149.31 -5.55375 -1.86963 0
M  V30 40680 N 3149.26 -4.09448 -2.16152 0
M  V30 40681 C 3149.34 -3.46824 -3.37593 0
M  V30 40682 N 3149.27 -2.17422 -3.29777 0
M  V30 40683 C 3149.12 -1.93065 -1.94427 0
M  V30 40684 C 3148.99 -0.738053 -1.20141 0
M  V30 40685 N 3148.98 0.474256 -1.74676 0
M  V30 40686 N 3148.87 -0.850049 0.13045 0
M  V30 40687 C 3148.88 -2.06169 0.676992 0
M  V30 40688 N 3149 -3.23842 0.101312 0
M  V30 40689 C 3149.12 -3.09402 -1.23122 0
M  V30 40690 H 3152.1 -7.45574 -4.45629 0
M  V30 40691 H 3152.37 -5.85864 -3.679 0
M  V30 40692 H 3151.5 -7.84412 -2.24479 0
M  V30 40693 H 3148.85 -5.73457 -0.888562 0
M  V30 40694 H 3148.57 -5.90877 -3.88583 0
M  V30 40695 H 3147.58 -6.6596 -2.58858 0
M  V30 40696 H 3149.41 -8.16339 -3.92049 0
M  V30 40697 H 3149.45 -4.00505 -4.3174 0
M  V30 40698 H 3149.07 0.581337 -2.76658 0
M  V30 40699 H 3148.88 1.30811 -1.14888 0
M  V30 40700 H 3148.78 -2.08295 1.75542 0
M  V30 40701 P 3147.54 -8.7635 -1.60911 0
M  V30 40702 O 3147.32 -10.1388 -1.11561 0
M  V30 40703 O 3146.75 -8.36503 -2.79617 0
M  V30 40704 O 3147.29 -7.71806 -0.42951 0
M  V30 40705 C 3148.23 -7.67148 0.673689 0
M  V30 40706 C 3147.5 -7.33374 1.95559 0
M  V30 40707 O 3147.29 -5.88721 2.00726 0
M  V30 40708 C 3146.1 -7.92526 2.10483 0
M  V30 40709 O 3145.71 -8.02971 3.47653 0
M  V30 40710 C 3145.22 -6.89602 1.41652 0
M  V30 40711 C 3145.93 -5.59201 1.75185 0
M  V30 40712 N 3145.88 -4.58235 0.662552 0
M  V30 40713 H 3148.72 -8.65116 0.777161 0
M  V30 40714 H 3148.99 -6.90173 0.474152 0
M  V30 40715 H 3148.12 -7.66548 2.79458 0
M  V30 40716 P 3144.16 -8.03563 3.84925 0
M  V30 40717 O 3143.94 -8.85821 5.0569 0
M  V30 40718 O 3143.37 -8.41101 2.65469 0
M  V30 40719 O 3143.91 -6.4965 4.18908 0
M  V30 40720 C 3144.85 -5.81037 5.05421 0
M  V30 40721 C 3144.12 -4.78366 5.89277 0
M  V30 40722 O 3143.91 -3.58302 5.08433 0
M  V30 40723 C 3142.72 -5.17448 6.36119 0
M  V30 40724 O 3142.33 -4.45271 7.53232 0
M  V30 40725 C 3141.84 -4.74639 5.19936 0
M  V30 40726 C 3142.55 -3.49432 4.70418 0
M  V30 40727 N 3142.5 -3.32099 3.22613 0
M  V30 40728 C 3142.58 -4.28245 2.25527 0
M  V30 40729 N 3142.51 -3.80823 1.04874 0
M  V30 40730 C 3142.36 -2.44571 1.23535 0
M  V30 40731 C 3142.23 -1.37068 0.330675 0
M  V30 40732 N 3142.22 -1.51472 -0.990824 0
M  V30 40733 N 3142.11 -0.138614 0.848756 0
M  V30 40734 C 3142.12 0.00675923 2.16999 0
M  V30 40735 N 3142.24 -0.904372 3.11122 0
M  V30 40736 C 3142.36 -2.12707 2.56212 0
M  V30 40737 H 3145.34 -6.54213 5.71376 0
M  V30 40738 H 3145.61 -5.30936 4.43503 0
M  V30 40739 H 3144.74 -4.55889 6.76652 0
M  V30 40740 H 3142.09 -2.61715 5.17932 0
M  V30 40741 H 3141.81 -5.52155 4.41878 0
M  V30 40742 H 3140.82 -4.51981 5.53374 0
M  V30 40743 H 3142.65 -6.25124 6.55234 0
M  V30 40744 H 3142.69 -5.34372 2.47488 0
M  V30 40745 H 3142.31 -2.45153 -1.4078 0
M  V30 40746 H 3142.12 -0.688422 -1.59911 0
M  V30 40747 H 3142.02 1.02584 2.52346 0
M  V30 40748 P 3140.78 -4.23843 7.83734 0
M  V30 40749 O 3140.56 -4.19407 9.29784 0
M  V30 40750 O 3139.99 -5.24426 7.09156 0
M  V30 40751 O 3140.53 -2.7935 7.20758 0
M  V30 40752 C 3141.47 -1.72945 7.50224 0
M  V30 40753 C 3140.74 -0.406376 7.57911 0
M  V30 40754 O 3140.53 0.0897726 6.21935 0
M  V30 40755 C 3139.34 -0.438983 8.18724 0
M  V30 40756 O 3138.95 0.825065 8.71101 0
M  V30 40757 C 3138.46 -0.783689 6.99524 0
M  V30 40758 C 3139.17 -0.0619086 5.85867 0
M  V30 40759 N 3139.12 -0.78573 4.56183 0
M  V30 40760 C 3138.97 -0.0292889 3.41887 0
M  V30 40761 O 3138.88 1.18445 3.4419 0
M  V30 40762 N 3138.93 -0.744061 2.23964 0
M  V30 40763 C 3139.02 -2.10932 2.10362 0
M  V30 40764 C 3139.17 -2.8202 3.34994 0
M  V30 40765 C 3139.22 -2.15547 4.52261 0
M  V30 40766 H 3141.96 -1.93379 8.46595 0
M  V30 40767 H 3142.23 -1.68132 6.70852 0
M  V30 40768 H 3141.36 0.289041 8.15388 0
M  V30 40769 H 3138.71 0.926847 5.72749 0
M  V30 40770 H 3138.43 -1.86973 6.82036 0
M  V30 40771 H 3137.44 -0.403896 7.13257 0
M  V30 40772 H 3139.27 -1.20585 8.97435 0
M  V30 40773 H 3139.34 -2.71231 5.45042 0
M  V30 40774 P 3137.4 1.17771 8.83182 0
M  V30 40775 O 3137.18 2.07206 9.98732 0
M  V30 40776 O 3136.61 -0.0743816 8.81969 0
M  V30 40777 O 3137.15 1.97652 7.47304 0
M  V30 40778 C 3138.09 3.01133 7.08783 0
M  V30 40779 C 3137.36 4.12613 6.37049 0
M  V30 40780 O 3137.15 3.72827 4.97879 0
M  V30 40781 C 3135.96 4.45085 6.88694 0
M  V30 40782 O 3135.57 5.7877 6.5624 0
M  V30 40783 C 3135.08 3.47817 6.12078 0
M  V30 40784 C 3135.79 3.39414 4.77697 0
M  V30 40785 N 3135.74 2.04615 4.15333 0
M  V30 40786 H 3138.58 3.41248 7.98759 0
M  V30 40787 H 3138.85 2.5837 6.41742 0
M  V30 40788 H 3137.98 5.02657 6.42673 0
M  V30 40789 P 3134.02 6.144 6.45285 0
M  V30 40790 O 3133.8 7.54673 6.86199 0
M  V30 40791 O 3133.23 5.12391 7.179 0
M  V30 40792 O 3133.77 5.99158 4.88404 0
M  V30 40793 C 3134.71 6.60234 3.96415 0
M  V30 40794 C 3133.98 7.08259 2.72856 0
M  V30 40795 O 3133.77 5.9427 1.83651 0
M  V30 40796 C 3132.58 7.64886 2.9555 0
M  V30 40797 O 3132.19 8.53963 1.90717 0
M  V30 40798 C 3131.7 6.4116 2.90739 0
M  V30 40799 C 3132.41 5.55375 1.86963 0
M  V30 40800 N 3132.36 4.09664 2.15742 0
M  V30 40801 H 3135.2 7.45574 4.45629 0
M  V30 40802 H 3135.47 5.86232 3.67314 0
M  V30 40803 H 3134.6 7.84412 2.24479 0
M  V30 40804 P 3130.64 8.7635 1.60911 0
M  V30 40805 O 3130.42 10.1388 1.11561 0
M  V30 40806 O 3129.85 8.36503 2.79617 0
M  V30 40807 O 3130.39 7.71806 0.42951 0
M  V30 40808 C 3131.33 7.67148 -0.673689 0
M  V30 40809 C 3130.6 7.33374 -1.95559 0
M  V30 40810 O 3130.39 5.88721 -2.00726 0
M  V30 40811 C 3129.2 7.92526 -2.10483 0
M  V30 40812 O 3128.81 8.02971 -3.47653 0
M  V30 40813 C 3128.32 6.89602 -1.41652 0
M  V30 40814 C 3129.03 5.59201 -1.75185 0
M  V30 40815 N 3128.98 4.58235 -0.662552 0
M  V30 40816 H 3131.82 8.65116 -0.777161 0
M  V30 40817 H 3132.09 6.90173 -0.474152 0
M  V30 40818 H 3131.22 7.66548 -2.79458 0
M  V30 40819 P 3127.26 8.03563 -3.84925 0
M  V30 40820 O 3127.04 8.85821 -5.0569 0
M  V30 40821 O 3126.47 8.41101 -2.65469 0
M  V30 40822 O 3127.01 6.4965 -4.18908 0
M  V30 40823 C 3127.95 5.81037 -5.05421 0
M  V30 40824 C 3127.22 4.78366 -5.89277 0
M  V30 40825 O 3127.01 3.58302 -5.08433 0
M  V30 40826 C 3125.82 5.17448 -6.36119 0
M  V30 40827 O 3125.43 4.45271 -7.53232 0
M  V30 40828 C 3124.94 4.74639 -5.19936 0
M  V30 40829 C 3125.65 3.49432 -4.70418 0
M  V30 40830 N 3125.6 3.31776 -3.22945 0
M  V30 40831 H 3128.44 6.54213 -5.71376 0
M  V30 40832 H 3128.71 5.30492 -4.44033 0
M  V30 40833 H 3127.84 4.55889 -6.76652 0
M  V30 40834 P 3123.88 4.23843 -7.83734 0
M  V30 40835 O 3123.66 4.19407 -9.29784 0
M  V30 40836 O 3123.09 5.24426 -7.09156 0
M  V30 40837 O 3123.63 2.7935 -7.20758 0
M  V30 40838 C 3124.57 1.7299 -7.50419 0
M  V30 40839 C 3123.84 0.406376 -7.57911 0
M  V30 40840 O 3123.63 -0.0897726 -6.21935 0
M  V30 40841 C 3122.44 0.447224 -8.1878 0
M  V30 40842 O 3122.05 -0.825065 -8.71101 0
M  V30 40843 C 3121.56 0.783801 -6.99623 0
M  V30 40844 C 3122.27 0.0619192 -5.85967 0
M  V30 40845 N 3122.22 0.790462 -4.56202 0
M  V30 40846 H 3125.06 1.93423 -8.4679 0
M  V30 40847 H 3125.33 1.68852 -6.70877 0
M  V30 40848 H 3124.46 -0.289041 -8.15388 0
M  V30 40849 H 3121.81 -0.927006 -5.72848 0
M  V30 40850 H 3121.53 1.86973 -6.82036 0
M  V30 40851 H 3120.54 0.403953 -7.13357 0
M  V30 40852 H 3122.37 1.20599 -8.97534 0
M  V30 40853 P 3120.5 -1.17771 -8.83182 0
M  V30 40854 O 3120.28 -2.07206 -9.98732 0
M  V30 40855 O 3119.71 0.0743816 -8.81969 0
M  V30 40856 O 3120.25 -1.97652 -7.47304 0
M  V30 40857 C 3121.19 -3.01133 -7.08783 0
M  V30 40858 C 3120.46 -4.12613 -6.37049 0
M  V30 40859 O 3120.25 -3.72827 -4.97879 0
M  V30 40860 C 3119.06 -4.45085 -6.88694 0
M  V30 40861 O 3118.67 -5.7877 -6.5624 0
M  V30 40862 C 3118.18 -3.47817 -6.12078 0
M  V30 40863 C 3118.89 -3.39414 -4.77697 0
M  V30 40864 N 3118.84 -2.04615 -4.15333 0
M  V30 40865 H 3121.68 -3.41248 -7.98759 0
M  V30 40866 H 3121.95 -2.5837 -6.41742 0
M  V30 40867 H 3121.08 -5.02657 -6.42673 0
M  V30 40868 P 3117.12 -6.144 -6.45285 0
M  V30 40869 O 3116.9 -7.54673 -6.86199 0
M  V30 40870 O 3116.33 -5.12391 -7.179 0
M  V30 40871 O 3116.87 -5.99158 -4.88404 0
M  V30 40872 C 3117.81 -6.60234 -3.96415 0
M  V30 40873 C 3117.08 -7.08259 -2.72856 0
M  V30 40874 O 3116.87 -5.9427 -1.83651 0
M  V30 40875 C 3115.68 -7.64886 -2.9555 0
M  V30 40876 O 3115.29 -8.53963 -1.90717 0
M  V30 40877 C 3114.8 -6.4116 -2.90739 0
M  V30 40878 C 3115.51 -5.55375 -1.86963 0
M  V30 40879 N 3115.46 -4.09664 -2.15742 0
M  V30 40880 H 3118.3 -7.45574 -4.45629 0
M  V30 40881 H 3118.57 -5.86232 -3.67314 0
M  V30 40882 H 3117.7 -7.84412 -2.24479 0
M  V30 40883 P 3113.74 -8.7635 -1.60911 0
M  V30 40884 O 3113.52 -10.1388 -1.11561 0
M  V30 40885 O 3112.95 -8.36503 -2.79617 0
M  V30 40886 O 3113.49 -7.71806 -0.42951 0
M  V30 40887 C 3114.43 -7.67148 0.673689 0
M  V30 40888 C 3113.7 -7.33374 1.95559 0
M  V30 40889 O 3113.49 -5.88721 2.00726 0
M  V30 40890 C 3112.3 -7.92526 2.10483 0
M  V30 40891 O 3111.91 -8.02971 3.47653 0
M  V30 40892 C 3111.42 -6.89602 1.41652 0
M  V30 40893 C 3112.13 -5.59201 1.75185 0
M  V30 40894 N 3112.08 -4.58235 0.662552 0
M  V30 40895 H 3114.92 -8.65116 0.777161 0
M  V30 40896 H 3115.19 -6.90173 0.474152 0
M  V30 40897 H 3114.32 -7.66548 2.79458 0
M  V30 40898 P 3110.36 -8.03563 3.84925 0
M  V30 40899 O 3110.14 -8.85821 5.0569 0
M  V30 40900 O 3109.57 -8.41101 2.65469 0
M  V30 40901 O 3110.11 -6.4965 4.18908 0
M  V30 40902 C 3111.05 -5.81037 5.05421 0
M  V30 40903 C 3110.32 -4.78366 5.89277 0
M  V30 40904 O 3110.11 -3.58302 5.08433 0
M  V30 40905 C 3108.92 -5.17448 6.36119 0
M  V30 40906 O 3108.53 -4.45271 7.53232 0
M  V30 40907 C 3108.04 -4.74639 5.19936 0
M  V30 40908 C 3108.75 -3.49432 4.70418 0
M  V30 40909 N 3108.7 -3.32099 3.22613 0
M  V30 40910 C 3108.78 -4.28245 2.25527 0
M  V30 40911 N 3108.71 -3.80823 1.04874 0
M  V30 40912 C 3108.56 -2.44571 1.23535 0
M  V30 40913 C 3108.43 -1.37068 0.330675 0
M  V30 40914 N 3108.42 -1.51472 -0.990824 0
M  V30 40915 N 3108.31 -0.138614 0.848756 0
M  V30 40916 C 3108.32 0.00675923 2.16999 0
M  V30 40917 N 3108.44 -0.904372 3.11122 0
M  V30 40918 C 3108.56 -2.12707 2.56212 0
M  V30 40919 H 3111.54 -6.54213 5.71376 0
M  V30 40920 H 3111.81 -5.30936 4.43503 0
M  V30 40921 H 3110.94 -4.55889 6.76652 0
M  V30 40922 H 3108.29 -2.61715 5.17932 0
M  V30 40923 H 3108.01 -5.52155 4.41878 0
M  V30 40924 H 3107.02 -4.51981 5.53374 0
M  V30 40925 H 3108.85 -6.25124 6.55234 0
M  V30 40926 H 3108.89 -5.34372 2.47488 0
M  V30 40927 H 3108.51 -2.45153 -1.4078 0
M  V30 40928 H 3108.32 -0.688422 -1.59911 0
M  V30 40929 H 3108.22 1.02584 2.52346 0
M  V30 40930 P 3106.98 -4.23843 7.83734 0
M  V30 40931 O 3106.76 -4.19407 9.29784 0
M  V30 40932 O 3106.19 -5.24426 7.09156 0
M  V30 40933 O 3106.73 -2.7935 7.20758 0
M  V30 40934 C 3107.67 -1.7299 7.50419 0
M  V30 40935 C 3106.94 -0.406376 7.57911 0
M  V30 40936 O 3106.73 0.0897726 6.21935 0
M  V30 40937 C 3105.54 -0.447224 8.1878 0
M  V30 40938 O 3105.15 0.825065 8.71101 0
M  V30 40939 C 3104.66 -0.783801 6.99623 0
M  V30 40940 C 3105.37 -0.0619192 5.85967 0
M  V30 40941 N 3105.32 -0.790462 4.56202 0
M  V30 40942 C 3105.4 -2.13895 4.34171 0
M  V30 40943 N 3105.33 -2.46449 3.08687 0
M  V30 40944 C 3105.18 -1.2525 2.43697 0
M  V30 40945 C 3105.05 -0.914535 1.07318 0
M  V30 40946 N 3105.04 -1.80782 0.0887348 0
M  V30 40947 N 3104.93 0.386745 0.768133 0
M  V30 40948 C 3104.94 1.28096 1.75159 0
M  V30 40949 N 3105.06 1.09708 3.04861 0
M  V30 40950 C 3105.18 -0.214857 3.32306 0
M  V30 40951 H 3108.16 -1.93423 8.4679 0
M  V30 40952 H 3108.43 -1.68852 6.70877 0
M  V30 40953 H 3107.56 0.289041 8.15388 0
M  V30 40954 H 3104.91 0.927006 5.72848 0
M  V30 40955 H 3104.63 -1.86973 6.82036 0
M  V30 40956 H 3103.64 -0.403953 7.13357 0
M  V30 40957 H 3105.47 -1.20599 8.97534 0
M  V30 40958 H 3105.51 -2.86846 5.14318 0
M  V30 40959 H 3105.13 -2.81082 0.302037 0
M  V30 40960 H 3104.94 -1.49688 -0.889064 0
M  V30 40961 H 3104.84 2.31317 1.43855 0
M  V30 40962 P 3103.6 1.17771 8.83182 0
M  V30 40963 O 3103.38 2.07206 9.98732 0
M  V30 40964 O 3102.81 -0.0743816 8.81969 0
M  V30 40965 O 3103.35 1.97652 7.47304 0
M  V30 40966 C 3104.29 3.01133 7.08783 0
M  V30 40967 C 3103.56 4.12613 6.37049 0
M  V30 40968 O 3103.35 3.72827 4.97879 0
M  V30 40969 C 3102.16 4.45085 6.88694 0
M  V30 40970 O 3101.77 5.7877 6.5624 0
M  V30 40971 C 3101.28 3.47817 6.12078 0
M  V30 40972 C 3101.99 3.39414 4.77697 0
M  V30 40973 N 3101.94 2.04199 4.15538 0
M  V30 40974 H 3104.78 3.41248 7.98759 0
M  V30 40975 H 3105.05 2.57728 6.42 0
M  V30 40976 H 3104.18 5.02657 6.42673 0
M  V30 40977 H 3101.53 4.11708 4.08956 0
M  V30 40978 H 3101.25 2.49626 6.61679 0
M  V30 40979 H 3100.26 3.8662 6.00862 0
M  V30 40980 H 3102.09 4.29991 7.97006 0
M  V30 40981 P 3100.22 6.144 6.45285 0
M  V30 40982 O 3100 7.54673 6.86199 0
M  V30 40983 O 3099.43 5.12391 7.179 0
M  V30 40984 O 3099.97 5.99158 4.88404 0
M  V30 40985 C 3100.91 6.60234 3.96415 0
M  V30 40986 C 3100.18 7.08259 2.72856 0
M  V30 40987 O 3099.97 5.9427 1.83651 0
M  V30 40988 C 3098.78 7.64886 2.9555 0
M  V30 40989 O 3098.39 8.53963 1.90717 0
M  V30 40990 C 3097.9 6.4116 2.90739 0
M  V30 40991 C 3098.61 5.55375 1.86963 0
M  V30 40992 N 3098.56 4.09664 2.15742 0
M  V30 40993 H 3101.4 7.45574 4.45629 0
M  V30 40994 H 3101.67 5.86232 3.67314 0
M  V30 40995 H 3100.8 7.84412 2.24479 0
M  V30 40996 P 3096.84 8.7635 1.60911 0
M  V30 40997 O 3096.62 10.1388 1.11561 0
M  V30 40998 O 3096.05 8.36503 2.79617 0
M  V30 40999 O 3096.59 7.71806 0.42951 0
M  V30 41000 C 3097.53 7.67148 -0.673689 0
M  V30 41001 C 3096.8 7.33374 -1.95559 0
M  V30 41002 O 3096.59 5.88721 -2.00726 0
M  V30 41003 C 3095.4 7.92526 -2.10483 0
M  V30 41004 O 3095.01 8.02971 -3.47653 0
M  V30 41005 C 3094.52 6.89602 -1.41652 0
M  V30 41006 C 3095.23 5.59201 -1.75185 0
M  V30 41007 N 3095.18 4.58235 -0.662552 0
M  V30 41008 H 3098.02 8.65116 -0.777161 0
M  V30 41009 H 3098.29 6.90173 -0.474152 0
M  V30 41010 H 3097.42 7.66548 -2.79458 0
M  V30 41011 P 3093.46 8.03563 -3.84925 0
M  V30 41012 O 3093.24 8.85821 -5.0569 0
M  V30 41013 O 3092.67 8.41101 -2.65469 0
M  V30 41014 O 3093.21 6.4965 -4.18908 0
M  V30 41015 C 3094.15 5.81037 -5.05421 0
M  V30 41016 C 3093.42 4.78366 -5.89277 0
M  V30 41017 O 3093.21 3.58302 -5.08433 0
M  V30 41018 C 3092.02 5.17448 -6.36119 0
M  V30 41019 O 3091.63 4.45271 -7.53232 0
M  V30 41020 C 3091.14 4.74639 -5.19936 0
M  V30 41021 C 3091.85 3.49432 -4.70418 0
M  V30 41022 N 3091.8 3.31776 -3.22945 0
M  V30 41023 H 3094.64 6.54213 -5.71376 0
M  V30 41024 H 3094.91 5.30492 -4.44033 0
M  V30 41025 H 3094.04 4.55889 -6.76652 0
M  V30 41026 P 3090.08 4.23843 -7.83734 0
M  V30 41027 O 3089.86 4.19407 -9.29784 0
M  V30 41028 O 3089.29 5.24426 -7.09156 0
M  V30 41029 O 3089.83 2.7935 -7.20758 0
M  V30 41030 C 3090.77 1.72945 -7.50224 0
M  V30 41031 C 3090.04 0.406376 -7.57911 0
M  V30 41032 O 3089.83 -0.0897726 -6.21935 0
M  V30 41033 C 3088.64 0.438983 -8.18724 0
M  V30 41034 O 3088.25 -0.825065 -8.71101 0
M  V30 41035 C 3087.76 0.783689 -6.99524 0
M  V30 41036 C 3088.47 0.0619086 -5.85867 0
M  V30 41037 N 3088.42 0.78573 -4.56183 0
M  V30 41038 C 3088.27 0.0292889 -3.41887 0
M  V30 41039 O 3088.18 -1.18445 -3.4419 0
M  V30 41040 N 3088.23 0.744061 -2.23964 0
M  V30 41041 C 3088.32 2.10932 -2.10362 0
M  V30 41042 O 3088.27 2.64117 -0.98825 0
M  V30 41043 C 3088.47 2.8202 -3.34994 0
M  V30 41044 C 3088.58 4.31095 -3.25037 0
M  V30 41045 C 3088.52 2.15547 -4.52261 0
M  V30 41046 H 3091.26 1.93379 -8.46595 0
M  V30 41047 H 3091.53 1.68132 -6.70852 0
M  V30 41048 H 3090.66 -0.289041 -8.15388 0
M  V30 41049 H 3088.01 -0.926847 -5.72749 0
M  V30 41050 H 3087.73 1.86973 -6.82036 0
M  V30 41051 H 3086.74 0.403896 -7.13257 0
M  V30 41052 H 3088.57 1.20585 -8.97435 0
M  V30 41053 H 3088.64 2.71231 -5.45042 0
M  V30 41054 H 3087.61 4.76966 -3.49992 0
M  V30 41055 H 3089.35 4.67047 -3.95024 0
M  V30 41056 H 3088.86 4.58996 -2.22312 0
M  V30 41057 H 3088.13 0.214893 -1.39758 0
M  V30 41058 P 3086.7 -1.17771 -8.83182 0
M  V30 41059 O 3086.48 -2.07206 -9.98732 0
M  V30 41060 O 3085.91 0.0743816 -8.81969 0
M  V30 41061 O 3086.45 -1.97652 -7.47304 0
M  V30 41062 C 3087.39 -3.01133 -7.08783 0
M  V30 41063 C 3086.66 -4.12613 -6.37049 0
M  V30 41064 O 3086.45 -3.72827 -4.97879 0
M  V30 41065 C 3085.26 -4.45085 -6.88694 0
M  V30 41066 O 3084.87 -5.7877 -6.5624 0
M  V30 41067 C 3084.38 -3.47817 -6.12078 0
M  V30 41068 C 3085.09 -3.39414 -4.77697 0
M  V30 41069 N 3085.04 -2.04615 -4.15333 0
M  V30 41070 H 3087.88 -3.41248 -7.98759 0
M  V30 41071 H 3088.15 -2.5837 -6.41742 0
M  V30 41072 H 3087.28 -5.02657 -6.42673 0
M  V30 41073 P 3083.32 -6.144 -6.45285 0
M  V30 41074 O 3083.1 -7.54673 -6.86199 0
M  V30 41075 O 3082.53 -5.12391 -7.179 0
M  V30 41076 O 3083.07 -5.99158 -4.88404 0
M  V30 41077 C 3084.01 -6.60234 -3.96415 0
M  V30 41078 C 3083.28 -7.08259 -2.72856 0
M  V30 41079 O 3083.07 -5.9427 -1.83651 0
M  V30 41080 C 3081.88 -7.64886 -2.9555 0
M  V30 41081 O 3081.49 -8.53963 -1.90717 0
M  V30 41082 C 3081 -6.4116 -2.90739 0
M  V30 41083 C 3081.71 -5.55375 -1.86963 0
M  V30 41084 N 3081.66 -4.09664 -2.15742 0
M  V30 41085 H 3084.5 -7.45574 -4.45629 0
M  V30 41086 H 3084.77 -5.86232 -3.67314 0
M  V30 41087 H 3083.9 -7.84412 -2.24479 0
M  V30 41088 P 3079.94 -8.7635 -1.60911 0
M  V30 41089 O 3079.72 -10.1388 -1.11561 0
M  V30 41090 O 3079.15 -8.36503 -2.79617 0
M  V30 41091 O 3079.69 -7.71906 -0.429565 0
M  V30 41092 C 3080.63 -7.67148 0.673689 0
M  V30 41093 C 3079.9 -7.33666 1.94851 0
M  V30 41094 O 3079.69 -5.88816 2.00759 0
M  V30 41095 C 3078.5 -7.92526 2.10483 0
M  V30 41096 O 3078.11 -8.03063 3.47693 0
M  V30 41097 C 3077.62 -6.89602 1.41652 0
M  V30 41098 C 3078.33 -5.59201 1.75185 0
M  V30 41099 N 3078.28 -4.58235 0.662552 0
M  V30 41100 C 3078.13 -3.24451 1.01643 0
M  V30 41101 O 3078.04 -2.94958 2.21722 0
M  V30 41102 N 3078.08 -2.30408 -0.165238 0
M  V30 41103 C 3078.18 -2.66048 -1.25118 0
M  V30 41104 N 3078.13 -1.70787 -2.16813 0
M  V30 41105 C 3078.33 -4.02732 -1.64413 0
M  V30 41106 C 3078.38 -4.9488 -0.63991 0
M  V30 41107 H 3081.12 -8.65017 0.777072 0
M  V30 41108 H 3081.39 -6.90173 0.474152 0
M  V30 41109 H 3080.52 -7.66642 2.79492 0
M  V30 41110 H 3077.87 -5.16254 2.65229 0
M  V30 41111 H 3077.59 -7.06532 0.329431 0
M  V30 41112 H 3076.6 -6.91023 1.82047 0
M  V30 41113 H 3078.43 -8.90873 1.62657 0
M  V30 41114 H 3078.5 -6.00104 -0.892197 0
M  V30 41115 H 3078.4 -4.31733 -2.69229 0
M  V30 41116 H 3078.01 -0.724835 -1.8844 0
M  V30 41117 H 3078.21 -1.94716 -3.16734 0
M  V30 41118 P 3076.56 -8.03563 3.84925 0
M  V30 41119 O 3076.34 -8.85821 5.0569 0
M  V30 41120 O 3075.77 -8.41101 2.65469 0
M  V30 41121 O 3076.31 -6.4965 4.18908 0
M  V30 41122 C 3077.25 -5.81037 5.05421 0
M  V30 41123 C 3076.52 -4.78366 5.89277 0
M  V30 41124 O 3076.31 -3.58302 5.08433 0
M  V30 41125 C 3075.12 -5.17448 6.36119 0
M  V30 41126 O 3074.73 -4.45271 7.53232 0
M  V30 41127 C 3074.24 -4.74639 5.19936 0
M  V30 41128 C 3074.95 -3.49432 4.70418 0
M  V30 41129 N 3074.9 -3.32099 3.22613 0
M  V30 41130 H 3077.74 -6.54213 5.71376 0
M  V30 41131 H 3078.01 -5.30936 4.43503 0
M  V30 41132 H 3077.14 -4.55889 6.76652 0
M  V30 41133 H 3074.49 -2.61715 5.17932 0
M  V30 41134 H 3074.21 -5.52155 4.41878 0
M  V30 41135 H 3073.22 -4.51981 5.53374 0
M  V30 41136 H 3075.05 -6.25124 6.55234 0
M  V30 41137 P 3073.18 -4.23843 7.83734 0
M  V30 41138 O 3072.96 -4.19407 9.29784 0
M  V30 41139 O 3072.39 -5.24426 7.09156 0
M  V30 41140 O 3072.93 -2.7935 7.20758 0
M  V30 41141 C 3073.87 -1.7299 7.50419 0
M  V30 41142 C 3073.14 -0.406376 7.57911 0
M  V30 41143 O 3072.93 0.0897726 6.21935 0
M  V30 41144 C 3071.74 -0.447224 8.1878 0
M  V30 41145 O 3071.35 0.825065 8.71101 0
M  V30 41146 C 3070.86 -0.783801 6.99623 0
M  V30 41147 C 3071.57 -0.0619192 5.85967 0
M  V30 41148 N 3071.52 -0.7859 4.56281 0
M  V30 41149 H 3074.36 -1.93423 8.4679 0
M  V30 41150 H 3074.63 -1.68181 6.71046 0
M  V30 41151 H 3073.76 0.289041 8.15388 0
M  V30 41152 P 3069.8 1.17771 8.83182 0
M  V30 41153 O 3069.58 2.07206 9.98732 0
M  V30 41154 O 3069.01 -0.0743816 8.81969 0
M  V30 41155 O 3069.55 1.97652 7.47304 0
M  V30 41156 C 3070.49 3.01133 7.08783 0
M  V30 41157 C 3069.76 4.12613 6.37049 0
M  V30 41158 O 3069.55 3.72827 4.97879 0
M  V30 41159 C 3068.36 4.45085 6.88694 0
M  V30 41160 O 3067.97 5.7877 6.5624 0
M  V30 41161 C 3067.48 3.47817 6.12078 0
M  V30 41162 C 3068.19 3.39414 4.77697 0
M  V30 41163 N 3068.14 2.04615 4.15333 0
M  V30 41164 H 3070.98 3.41248 7.98759 0
M  V30 41165 H 3071.25 2.5837 6.41742 0
M  V30 41166 H 3070.38 5.02657 6.42673 0
M  V30 41167 P 3066.42 6.144 6.45285 0
M  V30 41168 O 3066.2 7.54673 6.86199 0
M  V30 41169 O 3065.63 5.12391 7.179 0
M  V30 41170 O 3066.17 5.99158 4.88404 0
M  V30 41171 C 3067.11 6.60234 3.96415 0
M  V30 41172 C 3066.38 7.08259 2.72856 0
M  V30 41173 O 3066.17 5.9427 1.83651 0
M  V30 41174 C 3064.98 7.64886 2.9555 0
M  V30 41175 O 3064.59 8.53963 1.90717 0
M  V30 41176 C 3064.1 6.4116 2.90739 0
M  V30 41177 C 3064.81 5.55375 1.86963 0
M  V30 41178 N 3064.76 4.09664 2.15742 0
M  V30 41179 C 3064.84 3.44381 3.37233 0
M  V30 41180 N 3064.76 2.14131 3.28347 0
M  V30 41181 C 3064.62 1.90247 1.91588 0
M  V30 41182 C 3064.49 0.683992 1.20892 0
M  V30 41183 N 3064.37 0.903396 -0.173998 0
M  V30 41184 C 3064.37 2.14171 -0.784879 0
M  V30 41185 N 3064.24 2.1435 -2.11317 0
M  V30 41186 N 3064.5 3.28784 -0.119316 0
M  V30 41187 C 3064.62 3.0977 1.22194 0
M  V30 41188 H 3067.6 7.45574 4.45629 0
M  V30 41189 H 3067.87 5.86232 3.67314 0
M  V30 41190 H 3067 7.84412 2.24479 0
M  V30 41191 P 3063.04 8.7635 1.60911 0
M  V30 41192 O 3062.82 10.1388 1.11561 0
M  V30 41193 O 3062.25 8.36503 2.79617 0
M  V30 41194 O 3062.79 7.71806 0.42951 0
M  V30 41195 C 3063.73 7.67148 -0.673689 0
M  V30 41196 C 3063 7.33374 -1.95559 0
M  V30 41197 O 3062.79 5.88721 -2.00726 0
M  V30 41198 C 3061.6 7.92526 -2.10483 0
M  V30 41199 O 3061.21 8.02971 -3.47653 0
M  V30 41200 C 3060.72 6.89602 -1.41652 0
M  V30 41201 C 3061.43 5.59201 -1.75185 0
M  V30 41202 N 3061.38 4.58235 -0.662552 0
M  V30 41203 H 3064.22 8.65116 -0.777161 0
M  V30 41204 H 3064.49 6.90173 -0.474152 0
M  V30 41205 H 3063.62 7.66548 -2.79458 0
M  V30 41206 P 3059.66 8.03563 -3.84925 0
M  V30 41207 O 3059.44 8.85821 -5.0569 0
M  V30 41208 O 3058.87 8.41101 -2.65469 0
M  V30 41209 O 3059.41 6.4965 -4.18908 0
M  V30 41210 C 3060.35 5.81037 -5.05421 0
M  V30 41211 C 3059.62 4.78366 -5.89277 0
M  V30 41212 O 3059.41 3.58302 -5.08433 0
M  V30 41213 C 3058.22 5.17448 -6.36119 0
M  V30 41214 O 3057.83 4.45271 -7.53232 0
M  V30 41215 C 3057.34 4.74639 -5.19936 0
M  V30 41216 C 3058.05 3.49432 -4.70418 0
M  V30 41217 N 3058 3.31776 -3.22945 0
M  V30 41218 H 3060.84 6.54213 -5.71376 0
M  V30 41219 H 3061.11 5.30492 -4.44033 0
M  V30 41220 H 3060.24 4.55889 -6.76652 0
M  V30 41221 P 3056.28 4.23843 -7.83734 0
M  V30 41222 O 3056.06 4.19407 -9.29784 0
M  V30 41223 O 3055.49 5.24426 -7.09156 0
M  V30 41224 O 3056.03 2.7935 -7.20758 0
M  V30 41225 C 3056.97 1.7299 -7.50419 0
M  V30 41226 C 3056.24 0.406376 -7.57911 0
M  V30 41227 O 3056.03 -0.0897726 -6.21935 0
M  V30 41228 C 3054.84 0.447224 -8.1878 0
M  V30 41229 O 3054.45 -0.825065 -8.71101 0
M  V30 41230 C 3053.96 0.783801 -6.99623 0
M  V30 41231 C 3054.67 0.0619192 -5.85967 0
M  V30 41232 N 3054.62 0.7859 -4.56281 0
M  V30 41233 H 3057.46 1.93423 -8.4679 0
M  V30 41234 H 3057.73 1.68181 -6.71046 0
M  V30 41235 H 3056.86 -0.289041 -8.15388 0
M  V30 41236 P 3052.9 -1.17771 -8.83182 0
M  V30 41237 O 3052.68 -2.07206 -9.98732 0
M  V30 41238 O 3052.11 0.0743816 -8.81969 0
M  V30 41239 O 3052.65 -1.97652 -7.47304 0
M  V30 41240 C 3053.59 -3.01055 -7.08599 0
M  V30 41241 C 3052.86 -4.12613 -6.37049 0
M  V30 41242 O 3052.65 -3.72827 -4.97879 0
M  V30 41243 C 3051.46 -4.45719 -6.88164 0
M  V30 41244 O 3051.07 -5.7877 -6.5624 0
M  V30 41245 C 3050.58 -3.47768 -6.11991 0
M  V30 41246 C 3051.29 -3.39356 -4.77615 0
M  V30 41247 N 3051.24 -2.04571 -4.15244 0
M  V30 41248 C 3051.09 -1.98587 -2.78314 0
M  V30 41249 O 3051 -2.98134 -2.08835 0
M  V30 41250 N 3051.05 -0.714467 -2.24925 0
M  V30 41251 C 3051.14 0.470001 -2.94169 0
M  V30 41252 O 3051.09 1.55587 -2.35195 0
M  V30 41253 C 3051.29 0.312541 -4.36783 0
M  V30 41254 C 3051.4 1.57711 -5.16352 0
M  V30 41255 C 3051.34 -0.914512 -4.92583 0
M  V30 41256 H 3054.08 -3.41169 -7.98575 0
M  V30 41257 H 3054.35 -2.58295 -6.41556 0
M  V30 41258 H 3053.48 -5.02657 -6.42673 0
M  V30 41259 H 3050.83 -4.11637 -4.08885 0
M  V30 41260 H 3050.55 -2.49626 -6.61679 0
M  V30 41261 H 3049.56 -3.86566 -6.00778 0
M  V30 41262 H 3051.39 -4.29943 -7.96918 0
M  V30 41263 H 3051.46 -1.00937 -6.00374 0
M  V30 41264 H 3050.43 1.80153 -5.63503 0
M  V30 41265 H 3052.17 1.4566 -5.94104 0
M  V30 41266 H 3051.68 2.40664 -4.49645 0
M  V30 41267 H 3050.95 -0.647622 -1.25697 0
M  V30 41268 P 3049.52 -6.144 -6.45285 0
M  V30 41269 O 3049.3 -7.54673 -6.86199 0
M  V30 41270 O 3048.73 -5.12391 -7.179 0
M  V30 41271 O 3049.27 -5.99158 -4.88404 0
M  V30 41272 C 3050.21 -6.60234 -3.96415 0
M  V30 41273 C 3049.48 -7.08259 -2.72856 0
M  V30 41274 O 3049.27 -5.9427 -1.83651 0
M  V30 41275 C 3048.08 -7.64886 -2.9555 0
M  V30 41276 O 3047.69 -8.53963 -1.90717 0
M  V30 41277 C 3047.2 -6.4116 -2.90739 0
M  V30 41278 C 3047.91 -5.55375 -1.86963 0
M  V30 41279 N 3047.86 -4.09664 -2.15742 0
M  V30 41280 H 3050.7 -7.45574 -4.45629 0
M  V30 41281 H 3050.97 -5.86232 -3.67314 0
M  V30 41282 H 3050.1 -7.84412 -2.24479 0
M  V30 41283 P 3046.14 -8.7635 -1.60911 0
M  V30 41284 O 3045.92 -10.1388 -1.11561 0
M  V30 41285 O 3045.35 -8.36503 -2.79617 0
M  V30 41286 O 3045.89 -7.71806 -0.42951 0
M  V30 41287 C 3046.83 -7.67148 0.673689 0
M  V30 41288 C 3046.1 -7.33374 1.95559 0
M  V30 41289 O 3045.89 -5.88721 2.00726 0
M  V30 41290 C 3044.7 -7.92526 2.10483 0
M  V30 41291 O 3044.31 -8.02971 3.47653 0
M  V30 41292 C 3043.82 -6.89602 1.41652 0
M  V30 41293 C 3044.53 -5.59201 1.75185 0
M  V30 41294 N 3044.48 -4.58235 0.662552 0
M  V30 41295 H 3047.32 -8.65116 0.777161 0
M  V30 41296 H 3047.59 -6.90173 0.474152 0
M  V30 41297 H 3046.73 -7.66548 2.79458 0
M  V30 41298 P 3042.76 -8.03563 3.84925 0
M  V30 41299 O 3042.54 -8.85821 5.0569 0
M  V30 41300 O 3041.97 -8.41101 2.65469 0
M  V30 41301 O 3042.51 -6.4965 4.18908 0
M  V30 41302 C 3043.45 -5.81037 5.05421 0
M  V30 41303 C 3042.72 -4.78366 5.89277 0
M  V30 41304 O 3042.51 -3.58302 5.08433 0
M  V30 41305 C 3041.32 -5.17448 6.36119 0
M  V30 41306 O 3040.93 -4.45271 7.53232 0
M  V30 41307 C 3040.44 -4.74639 5.19936 0
M  V30 41308 C 3041.15 -3.49432 4.70418 0
M  V30 41309 N 3041.1 -3.31776 3.22945 0
M  V30 41310 H 3043.94 -6.54213 5.71376 0
M  V30 41311 H 3044.21 -5.30492 4.44033 0
M  V30 41312 H 3043.35 -4.55889 6.76652 0
M  V30 41313 P 3039.38 -4.23843 7.83734 0
M  V30 41314 O 3039.16 -4.19407 9.29784 0
M  V30 41315 O 3038.59 -5.24426 7.09156 0
M  V30 41316 O 3039.13 -2.7935 7.20758 0
M  V30 41317 C 3040.07 -1.7299 7.50419 0
M  V30 41318 C 3039.34 -0.406376 7.57911 0
M  V30 41319 O 3039.13 0.0897726 6.21935 0
M  V30 41320 C 3037.94 -0.447224 8.1878 0
M  V30 41321 O 3037.55 0.825065 8.71101 0
M  V30 41322 C 3037.06 -0.783801 6.99623 0
M  V30 41323 C 3037.77 -0.0619192 5.85967 0
M  V30 41324 N 3037.72 -0.7859 4.56281 0
M  V30 41325 H 3040.56 -1.93423 8.4679 0
M  V30 41326 H 3040.83 -1.68181 6.71046 0
M  V30 41327 H 3039.97 0.289041 8.15388 0
M  V30 41328 P 3036 1.17771 8.83182 0
M  V30 41329 O 3035.78 2.07206 9.98732 0
M  V30 41330 O 3035.21 -0.0743816 8.81969 0
M  V30 41331 O 3035.75 1.97652 7.47304 0
M  V30 41332 C 3036.69 3.01133 7.08783 0
M  V30 41333 C 3035.96 4.12613 6.37049 0
M  V30 41334 O 3035.75 3.72827 4.97879 0
M  V30 41335 C 3034.56 4.45085 6.88694 0
M  V30 41336 O 3034.17 5.7877 6.5624 0
M  V30 41337 C 3033.68 3.47817 6.12078 0
M  V30 41338 C 3034.39 3.39414 4.77697 0
M  V30 41339 N 3034.34 2.04199 4.15538 0
M  V30 41340 C 3034.42 0.821545 4.76977 0
M  V30 41341 N 3034.35 -0.1794 3.94592 0
M  V30 41342 C 3034.2 0.419121 2.70776 0
M  V30 41343 C 3034.07 -0.109072 1.40577 0
M  V30 41344 N 3034.06 -1.4104 1.1344 0
M  V30 41345 N 3033.95 0.764381 0.39411 0
M  V30 41346 C 3033.96 2.06587 0.664135 0
M  V30 41347 N 3034.08 2.67948 1.82153 0
M  V30 41348 C 3034.2 1.77942 2.8147 0
M  V30 41349 H 3037.18 3.41248 7.98759 0
M  V30 41350 H 3037.45 2.57728 6.42 0
M  V30 41351 H 3036.59 5.02657 6.42673 0
M  V30 41352 H 3033.93 4.11708 4.08956 0
M  V30 41353 H 3033.65 2.49626 6.61679 0
M  V30 41354 H 3032.66 3.8662 6.00862 0
M  V30 41355 H 3034.49 4.29991 7.97006 0
M  V30 41356 H 3034.53 0.702451 5.84696 0
M  V30 41357 H 3034.15 -2.09647 1.89651 0
M  V30 41358 H 3033.96 -1.73358 0.160575 0
M  V30 41359 H 3033.86 2.71695 -0.195838 0
M  V30 41360 P 3032.62 6.144 6.45285 0
M  V30 41361 O 3032.4 7.54673 6.86199 0
M  V30 41362 O 3031.83 5.12391 7.179 0
M  V30 41363 O 3032.37 5.99236 4.88467 0
M  V30 41364 C 3033.31 6.60234 3.96415 0
M  V30 41365 C 3032.58 7.08079 2.736 0
M  V30 41366 O 3032.37 5.94365 1.8368 0
M  V30 41367 C 3031.18 7.64886 2.9555 0
M  V30 41368 O 3030.79 8.5406 1.90739 0
M  V30 41369 C 3030.3 6.4116 2.90739 0
M  V30 41370 C 3031.01 5.55375 1.86963 0
M  V30 41371 N 3030.96 4.09664 2.15742 0
M  V30 41372 C 3030.81 3.22231 1.08477 0
M  V30 41373 O 3030.72 3.68951 -0.0600489 0
M  V30 41374 N 3030.76 1.76692 1.48799 0
M  V30 41375 C 3030.86 1.41695 2.57602 0
M  V30 41376 N 3030.81 0.107296 2.75791 0
M  V30 41377 C 3031.01 2.29178 3.69733 0
M  V30 41378 C 3031.06 3.62753 3.42653 0
M  V30 41379 H 3033.8 7.45488 4.45578 0
M  V30 41380 H 3034.07 5.86232 3.67314 0
M  V30 41381 H 3033.21 7.84508 2.24507 0
M  V30 41382 H 3030.55 5.73556 0.888715 0
M  V30 41383 H 3030.27 5.9096 3.88638 0
M  V30 41384 H 3029.28 6.66053 2.58894 0
M  V30 41385 H 3031.11 8.16339 3.92049 0
M  V30 41386 H 3031.19 4.33052 4.24913 0
M  V30 41387 H 3031.08 1.9103 4.71577 0
M  V30 41388 H 3030.7 -0.521221 1.95056 0
M  V30 41389 H 3030.89 -0.286429 3.70695 0
M  V30 41390 P 3029.24 8.7635 1.60911 0
M  V30 41391 O 3029.02 10.1388 1.11561 0
M  V30 41392 O 3028.45 8.36503 2.79617 0
M  V30 41393 O 3028.99 7.71806 0.42951 0
M  V30 41394 C 3029.93 7.67148 -0.673689 0
M  V30 41395 C 3029.2 7.33374 -1.95559 0
M  V30 41396 O 3028.99 5.88721 -2.00726 0
M  V30 41397 C 3027.8 7.92526 -2.10483 0
M  V30 41398 O 3027.41 8.02971 -3.47653 0
M  V30 41399 C 3026.92 6.89602 -1.41652 0
M  V30 41400 C 3027.63 5.59201 -1.75185 0
M  V30 41401 N 3027.58 4.58301 -0.657969 0
M  V30 41402 H 3030.42 8.65116 -0.777161 0
M  V30 41403 H 3030.69 6.9022 -0.46725 0
M  V30 41404 H 3029.83 7.66548 -2.79458 0
M  V30 41405 H 3027.17 5.16165 -2.65183 0
M  V30 41406 H 3026.89 7.06433 -0.329384 0
M  V30 41407 H 3025.9 6.90926 -1.82021 0
M  V30 41408 H 3027.73 8.90873 -1.62657 0
M  V30 41409 P 3025.86 8.03563 -3.84925 0
M  V30 41410 O 3025.64 8.85821 -5.0569 0
M  V30 41411 O 3025.07 8.41101 -2.65469 0
M  V30 41412 O 3025.61 6.4965 -4.18908 0
M  V30 41413 C 3026.55 5.81037 -5.05421 0
M  V30 41414 C 3025.82 4.78366 -5.89277 0
M  V30 41415 O 3025.61 3.58302 -5.08433 0
M  V30 41416 C 3024.42 5.17448 -6.36119 0
M  V30 41417 O 3024.03 4.45271 -7.53232 0
M  V30 41418 C 3023.54 4.74639 -5.19936 0
M  V30 41419 C 3024.25 3.49432 -4.70418 0
M  V30 41420 N 3024.2 3.31776 -3.22945 0
M  V30 41421 H 3027.04 6.54213 -5.71376 0
M  V30 41422 H 3027.31 5.30492 -4.44033 0
M  V30 41423 H 3026.45 4.55889 -6.76652 0
M  V30 41424 P 3022.48 4.23843 -7.83734 0
M  V30 41425 O 3022.26 4.19407 -9.29784 0
M  V30 41426 O 3021.69 5.24426 -7.09156 0
M  V30 41427 O 3022.23 2.7935 -7.20758 0
M  V30 41428 C 3023.17 1.7299 -7.50419 0
M  V30 41429 C 3022.44 0.406376 -7.57911 0
M  V30 41430 O 3022.23 -0.0897726 -6.21935 0
M  V30 41431 C 3021.04 0.447224 -8.1878 0
M  V30 41432 O 3020.65 -0.825065 -8.71101 0
M  V30 41433 C 3020.16 0.783801 -6.99623 0
M  V30 41434 C 3020.87 0.0619192 -5.85967 0
M  V30 41435 N 3020.82 0.7859 -4.56281 0
M  V30 41436 H 3023.66 1.93423 -8.4679 0
M  V30 41437 H 3023.93 1.68181 -6.71046 0
M  V30 41438 H 3023.07 -0.289041 -8.15388 0
M  V30 41439 P 3019.1 -1.17771 -8.83182 0
M  V30 41440 O 3018.88 -2.07206 -9.98732 0
M  V30 41441 O 3018.31 0.0743816 -8.81969 0
M  V30 41442 O 3018.85 -1.97652 -7.47304 0
M  V30 41443 C 3019.79 -3.01133 -7.08783 0
M  V30 41444 C 3019.06 -4.12613 -6.37049 0
M  V30 41445 O 3018.85 -3.72827 -4.97879 0
M  V30 41446 C 3017.66 -4.45085 -6.88694 0
M  V30 41447 O 3017.27 -5.7877 -6.5624 0
M  V30 41448 C 3016.78 -3.47817 -6.12078 0
M  V30 41449 C 3017.49 -3.39414 -4.77697 0
M  V30 41450 N 3017.44 -2.04199 -4.15538 0
M  V30 41451 H 3020.28 -3.41248 -7.98759 0
M  V30 41452 H 3020.55 -2.57728 -6.42 0
M  V30 41453 H 3019.69 -5.02657 -6.42673 0
M  V30 41454 H 3017.03 -4.11708 -4.08956 0
M  V30 41455 H 3016.75 -2.49626 -6.61679 0
M  V30 41456 H 3015.76 -3.8662 -6.00862 0
M  V30 41457 H 3017.59 -4.29991 -7.97006 0
M  V30 41458 P 3015.72 -6.144 -6.45285 0
M  V30 41459 O 3015.5 -7.54673 -6.86199 0
M  V30 41460 O 3014.93 -5.12391 -7.179 0
M  V30 41461 O 3015.47 -5.99158 -4.88404 0
M  V30 41462 C 3016.41 -6.60234 -3.96415 0
M  V30 41463 C 3015.68 -7.08259 -2.72856 0
M  V30 41464 O 3015.47 -5.9427 -1.83651 0
M  V30 41465 C 3014.28 -7.64886 -2.9555 0
M  V30 41466 O 3013.89 -8.53963 -1.90717 0
M  V30 41467 C 3013.4 -6.4116 -2.90739 0
M  V30 41468 C 3014.11 -5.55375 -1.86963 0
M  V30 41469 N 3014.06 -4.09664 -2.15742 0
M  V30 41470 C 3014.14 -3.44381 -3.37233 0
M  V30 41471 N 3014.06 -2.14131 -3.28347 0
M  V30 41472 C 3013.92 -1.90247 -1.91588 0
M  V30 41473 C 3013.79 -0.683992 -1.20892 0
M  V30 41474 N 3013.67 -0.903396 0.173998 0
M  V30 41475 C 3013.67 -2.14171 0.784879 0
M  V30 41476 N 3013.54 -2.1435 2.11317 0
M  V30 41477 N 3013.8 -3.28784 0.119316 0
M  V30 41478 C 3013.92 -3.0977 -1.22194 0
M  V30 41479 H 3016.9 -7.45574 -4.45629 0
M  V30 41480 H 3017.17 -5.86232 -3.67314 0
M  V30 41481 H 3016.31 -7.84412 -2.24479 0
M  V30 41482 P 3012.34 -8.7635 -1.60911 0
M  V30 41483 O 3012.12 -10.1388 -1.11561 0
M  V30 41484 O 3011.55 -8.36503 -2.79617 0
M  V30 41485 O 3012.09 -7.71806 -0.42951 0
M  V30 41486 C 3013.03 -7.67148 0.673689 0
M  V30 41487 C 3012.3 -7.33374 1.95559 0
M  V30 41488 O 3012.09 -5.88721 2.00726 0
M  V30 41489 C 3010.9 -7.92526 2.10483 0
M  V30 41490 O 3010.51 -8.02971 3.47653 0
M  V30 41491 C 3010.02 -6.89602 1.41652 0
M  V30 41492 C 3010.73 -5.59201 1.75185 0
M  V30 41493 N 3010.68 -4.58301 0.657969 0
M  V30 41494 H 3013.52 -8.65116 0.777161 0
M  V30 41495 H 3013.79 -6.9022 0.46725 0
M  V30 41496 H 3012.93 -7.66548 2.79458 0
M  V30 41497 H 3010.27 -5.16165 2.65183 0
M  V30 41498 H 3009.99 -7.06433 0.329384 0
M  V30 41499 H 3009 -6.90926 1.82021 0
M  V30 41500 H 3010.83 -8.90873 1.62657 0
M  V30 41501 P 3008.96 -8.03563 3.84925 0
M  V30 41502 O 3008.74 -8.85821 5.0569 0
M  V30 41503 O 3008.17 -8.41101 2.65469 0
M  V30 41504 O 3008.71 -6.4965 4.18908 0
M  V30 41505 C 3009.65 -5.81037 5.05421 0
M  V30 41506 C 3008.92 -4.78366 5.89277 0
M  V30 41507 O 3008.71 -3.58302 5.08433 0
M  V30 41508 C 3007.52 -5.17448 6.36119 0
M  V30 41509 O 3007.13 -4.45271 7.53232 0
M  V30 41510 C 3006.64 -4.74639 5.19936 0
M  V30 41511 C 3007.35 -3.49432 4.70418 0
M  V30 41512 N 3007.3 -3.31776 3.22945 0
M  V30 41513 H 3010.14 -6.54213 5.71376 0
M  V30 41514 H 3010.41 -5.30492 4.44033 0
M  V30 41515 H 3009.55 -4.55889 6.76652 0
M  V30 41516 P 3005.58 -4.23843 7.83734 0
M  V30 41517 O 3005.36 -4.19407 9.29784 0
M  V30 41518 O 3004.79 -5.24426 7.09156 0
M  V30 41519 O 3005.33 -2.7935 7.20758 0
M  V30 41520 C 3006.27 -1.7299 7.50419 0
M  V30 41521 C 3005.54 -0.406376 7.57911 0
M  V30 41522 O 3005.33 0.0897726 6.21935 0
M  V30 41523 C 3004.14 -0.447224 8.1878 0
M  V30 41524 O 3003.75 0.825065 8.71101 0
M  V30 41525 C 3003.26 -0.783801 6.99623 0
M  V30 41526 C 3003.97 -0.0619192 5.85967 0
M  V30 41527 N 3003.92 -0.7859 4.56281 0
M  V30 41528 H 3006.76 -1.93423 8.4679 0
M  V30 41529 H 3007.03 -1.68181 6.71046 0
M  V30 41530 H 3006.17 0.289041 8.15388 0
M  V30 41531 P 3002.2 1.17771 8.83182 0
M  V30 41532 O 3001.98 2.07206 9.98732 0
M  V30 41533 O 3001.41 -0.0743816 8.81969 0
M  V30 41534 O 3001.95 1.97652 7.47304 0
M  V30 41535 C 3002.89 3.01133 7.08783 0
M  V30 41536 C 3002.16 4.12613 6.37049 0
M  V30 41537 O 3001.95 3.72827 4.97879 0
M  V30 41538 C 3000.76 4.45085 6.88694 0
M  V30 41539 O 3000.37 5.7877 6.5624 0
M  V30 41540 C 2999.88 3.47817 6.12078 0
M  V30 41541 C 3000.59 3.39414 4.77697 0
M  V30 41542 N 3000.54 2.04615 4.15333 0
M  V30 41543 H 3003.38 3.41248 7.98759 0
M  V30 41544 H 3003.65 2.5837 6.41742 0
M  V30 41545 H 3002.79 5.02657 6.42673 0
M  V30 41546 P 2998.82 6.144 6.45285 0
M  V30 41547 O 2998.6 7.54673 6.86199 0
M  V30 41548 O 2998.03 5.12391 7.179 0
M  V30 41549 O 2998.57 5.99158 4.88404 0
M  V30 41550 C 2999.51 6.60234 3.96415 0
M  V30 41551 C 2998.78 7.08259 2.72856 0
M  V30 41552 O 2998.57 5.9427 1.83651 0
M  V30 41553 C 2997.38 7.64886 2.9555 0
M  V30 41554 O 2996.99 8.53963 1.90717 0
M  V30 41555 C 2996.5 6.4116 2.90739 0
M  V30 41556 C 2997.21 5.55375 1.86963 0
M  V30 41557 N 2997.16 4.09664 2.15742 0
M  V30 41558 H 3000 7.45574 4.45629 0
M  V30 41559 H 3000.27 5.86232 3.67314 0
M  V30 41560 H 2999.41 7.84412 2.24479 0
M  V30 41561 P 2995.44 8.7635 1.60911 0
M  V30 41562 O 2995.22 10.1388 1.11561 0
M  V30 41563 O 2994.65 8.36503 2.79617 0
M  V30 41564 O 2995.19 7.71806 0.42951 0
M  V30 41565 C 2996.13 7.67148 -0.673689 0
M  V30 41566 C 2995.4 7.33374 -1.95559 0
M  V30 41567 O 2995.19 5.88721 -2.00726 0
M  V30 41568 C 2994 7.92526 -2.10483 0
M  V30 41569 O 2993.61 8.02971 -3.47653 0
M  V30 41570 C 2993.12 6.89602 -1.41652 0
M  V30 41571 C 2993.83 5.59201 -1.75185 0
M  V30 41572 N 2993.78 4.58235 -0.662552 0
M  V30 41573 H 2996.62 8.65116 -0.777161 0
M  V30 41574 H 2996.89 6.90173 -0.474152 0
M  V30 41575 H 2996.03 7.66548 -2.79458 0
M  V30 41576 P 2992.06 8.03563 -3.84925 0
M  V30 41577 O 2991.84 8.85821 -5.0569 0
M  V30 41578 O 2991.27 8.41101 -2.65469 0
M  V30 41579 O 2991.81 6.4965 -4.18908 0
M  V30 41580 C 2992.75 5.81037 -5.05421 0
M  V30 41581 C 2992.02 4.78366 -5.89277 0
M  V30 41582 O 2991.81 3.58302 -5.08433 0
M  V30 41583 C 2990.62 5.17448 -6.36119 0
M  V30 41584 O 2990.23 4.45271 -7.53232 0
M  V30 41585 C 2989.74 4.74639 -5.19936 0
M  V30 41586 C 2990.45 3.49432 -4.70418 0
M  V30 41587 N 2990.4 3.31776 -3.22945 0
M  V30 41588 H 2993.24 6.54213 -5.71376 0
M  V30 41589 H 2993.51 5.30492 -4.44033 0
M  V30 41590 H 2992.65 4.55889 -6.76652 0
M  V30 41591 P 2988.68 4.23843 -7.83734 0
M  V30 41592 O 2988.46 4.19407 -9.29784 0
M  V30 41593 O 2987.89 5.24426 -7.09156 0
M  V30 41594 O 2988.43 2.7935 -7.20758 0
M  V30 41595 C 2989.37 1.7299 -7.50419 0
M  V30 41596 C 2988.64 0.406376 -7.57911 0
M  V30 41597 O 2988.43 -0.0897726 -6.21935 0
M  V30 41598 C 2987.24 0.447224 -8.1878 0
M  V30 41599 O 2986.85 -0.825065 -8.71101 0
M  V30 41600 C 2986.36 0.783801 -6.99623 0
M  V30 41601 C 2987.07 0.0619192 -5.85967 0
M  V30 41602 N 2987.02 0.7859 -4.56281 0
M  V30 41603 H 2989.86 1.93423 -8.4679 0
M  V30 41604 H 2990.13 1.68181 -6.71046 0
M  V30 41605 H 2989.27 -0.289041 -8.15388 0
M  V30 41606 P 2985.3 -1.17771 -8.83182 0
M  V30 41607 O 2985.08 -2.07206 -9.98732 0
M  V30 41608 O 2984.51 0.0743816 -8.81969 0
M  V30 41609 O 2985.05 -1.97652 -7.47304 0
M  V30 41610 C 2985.99 -3.01133 -7.08783 0
M  V30 41611 C 2985.26 -4.12613 -6.37049 0
M  V30 41612 O 2985.05 -3.72827 -4.97879 0
M  V30 41613 C 2983.86 -4.45085 -6.88694 0
M  V30 41614 O 2983.47 -5.7877 -6.5624 0
M  V30 41615 C 2982.98 -3.47817 -6.12078 0
M  V30 41616 C 2983.69 -3.39414 -4.77697 0
M  V30 41617 N 2983.64 -2.04615 -4.15333 0
M  V30 41618 H 2986.48 -3.41248 -7.98759 0
M  V30 41619 H 2986.75 -2.5837 -6.41742 0
M  V30 41620 H 2985.89 -5.02657 -6.42673 0
M  V30 41621 P 2981.92 -6.144 -6.45285 0
M  V30 41622 O 2981.7 -7.54673 -6.86199 0
M  V30 41623 O 2981.13 -5.12391 -7.179 0
M  V30 41624 O 2981.67 -5.99236 -4.88467 0
M  V30 41625 C 2982.61 -6.60234 -3.96415 0
M  V30 41626 C 2981.88 -7.08079 -2.736 0
M  V30 41627 O 2981.67 -5.94365 -1.8368 0
M  V30 41628 C 2980.48 -7.64886 -2.9555 0
M  V30 41629 O 2980.09 -8.5406 -1.90739 0
M  V30 41630 C 2979.6 -6.4116 -2.90739 0
M  V30 41631 C 2980.31 -5.55375 -1.86963 0
M  V30 41632 N 2980.26 -4.09664 -2.15742 0
M  V30 41633 C 2980.11 -3.22231 -1.08477 0
M  V30 41634 O 2980.02 -3.68951 0.0600489 0
M  V30 41635 N 2980.06 -1.76692 -1.48799 0
M  V30 41636 C 2980.16 -1.41695 -2.57602 0
M  V30 41637 N 2980.11 -0.107296 -2.75791 0
M  V30 41638 C 2980.31 -2.29178 -3.69733 0
M  V30 41639 C 2980.36 -3.62753 -3.42653 0
M  V30 41640 H 2983.1 -7.45488 -4.45578 0
M  V30 41641 H 2983.37 -5.86232 -3.67314 0
M  V30 41642 H 2982.51 -7.84508 -2.24507 0
M  V30 41643 H 2979.85 -5.73556 -0.888715 0
M  V30 41644 H 2979.57 -5.9096 -3.88638 0
M  V30 41645 H 2978.58 -6.66053 -2.58894 0
M  V30 41646 H 2980.41 -8.16339 -3.92049 0
M  V30 41647 H 2980.49 -4.33052 -4.24913 0
M  V30 41648 H 2980.38 -1.9103 -4.71577 0
M  V30 41649 H 2980 0.521221 -1.95056 0
M  V30 41650 H 2980.19 0.286429 -3.70695 0
M  V30 41651 P 2978.54 -8.7635 -1.60911 0
M  V30 41652 O 2978.32 -10.1388 -1.11561 0
M  V30 41653 O 2977.75 -8.36503 -2.79617 0
M  V30 41654 O 2978.29 -7.71806 -0.42951 0
M  V30 41655 C 2979.23 -7.67148 0.673689 0
M  V30 41656 C 2978.5 -7.33374 1.95559 0
M  V30 41657 O 2978.29 -5.88721 2.00726 0
M  V30 41658 C 2977.1 -7.92526 2.10483 0
M  V30 41659 O 2976.71 -8.02971 3.47653 0
M  V30 41660 C 2976.22 -6.89602 1.41652 0
M  V30 41661 C 2976.93 -5.59201 1.75185 0
M  V30 41662 N 2976.88 -4.58301 0.657969 0
M  V30 41663 H 2979.72 -8.65116 0.777161 0
M  V30 41664 H 2979.99 -6.9022 0.46725 0
M  V30 41665 H 2979.13 -7.66548 2.79458 0
M  V30 41666 H 2976.47 -5.16165 2.65183 0
M  V30 41667 H 2976.19 -7.06433 0.329384 0
M  V30 41668 H 2975.2 -6.90926 1.82021 0
M  V30 41669 H 2977.03 -8.90873 1.62657 0
M  V30 41670 P 2975.16 -8.03563 3.84925 0
M  V30 41671 O 2974.94 -8.85821 5.0569 0
M  V30 41672 O 2974.37 -8.41101 2.65469 0
M  V30 41673 O 2974.91 -6.4965 4.18908 0
M  V30 41674 C 2975.85 -5.81037 5.05421 0
M  V30 41675 C 2975.12 -4.78366 5.89277 0
M  V30 41676 O 2974.91 -3.58302 5.08433 0
M  V30 41677 C 2973.72 -5.17448 6.36119 0
M  V30 41678 O 2973.33 -4.45271 7.53232 0
M  V30 41679 C 2972.84 -4.74639 5.19936 0
M  V30 41680 C 2973.55 -3.49432 4.70418 0
M  V30 41681 N 2973.5 -3.31776 3.22945 0
M  V30 41682 H 2976.34 -6.54213 5.71376 0
M  V30 41683 H 2976.61 -5.30492 4.44033 0
M  V30 41684 H 2975.75 -4.55889 6.76652 0
M  V30 41685 P 2971.78 -4.23843 7.83734 0
M  V30 41686 O 2971.56 -4.19407 9.29784 0
M  V30 41687 O 2970.99 -5.24426 7.09156 0
M  V30 41688 O 2971.53 -2.7935 7.20758 0
M  V30 41689 C 2972.47 -1.7299 7.50419 0
M  V30 41690 C 2971.74 -0.406376 7.57911 0
M  V30 41691 O 2971.53 0.0897726 6.21935 0
M  V30 41692 C 2970.34 -0.447224 8.1878 0
M  V30 41693 O 2969.95 0.825065 8.71101 0
M  V30 41694 C 2969.46 -0.783801 6.99623 0
M  V30 41695 C 2970.17 -0.0619192 5.85967 0
M  V30 41696 N 2970.12 -0.7859 4.56281 0
M  V30 41697 H 2972.96 -1.93423 8.4679 0
M  V30 41698 H 2973.23 -1.68181 6.71046 0
M  V30 41699 H 2972.37 0.289041 8.15388 0
M  V30 41700 P 2968.4 1.17771 8.83182 0
M  V30 41701 O 2968.18 2.07206 9.98732 0
M  V30 41702 O 2967.61 -0.0743816 8.81969 0
M  V30 41703 O 2968.15 1.97652 7.47304 0
M  V30 41704 C 2969.09 3.01055 7.08599 0
M  V30 41705 C 2968.36 4.12613 6.37049 0
M  V30 41706 O 2968.15 3.72827 4.97879 0
M  V30 41707 C 2966.96 4.45719 6.88164 0
M  V30 41708 O 2966.57 5.7877 6.5624 0
M  V30 41709 C 2966.08 3.47768 6.11991 0
M  V30 41710 C 2966.79 3.39356 4.77615 0
M  V30 41711 N 2966.74 2.04571 4.15244 0
M  V30 41712 C 2966.59 1.98587 2.78314 0
M  V30 41713 O 2966.5 2.98134 2.08835 0
M  V30 41714 N 2966.55 0.714467 2.24925 0
M  V30 41715 C 2966.64 -0.470001 2.94169 0
M  V30 41716 C 2966.79 -0.312541 4.36783 0
M  V30 41717 C 2966.84 0.914512 4.92583 0
M  V30 41718 H 2969.58 3.41169 7.98575 0
M  V30 41719 H 2969.85 2.58295 6.41556 0
M  V30 41720 H 2968.99 5.02657 6.42673 0
M  V30 41721 H 2966.33 4.11637 4.08885 0
M  V30 41722 H 2966.05 2.49626 6.61679 0
M  V30 41723 H 2965.06 3.86566 6.00778 0
M  V30 41724 H 2966.89 4.29943 7.96918 0
M  V30 41725 H 2966.96 1.00937 6.00374 0
M  V30 41726 P 2965.02 6.144 6.45285 0
M  V30 41727 O 2964.8 7.54673 6.86199 0
M  V30 41728 O 2964.23 5.12391 7.179 0
M  V30 41729 O 2964.77 5.99158 4.88404 0
M  V30 41730 C 2965.71 6.60062 3.96313 0
M  V30 41731 C 2964.98 7.08259 2.72856 0
M  V30 41732 O 2964.77 5.9427 1.83651 0
M  V30 41733 C 2963.58 7.65087 2.94749 0
M  V30 41734 O 2963.19 8.53963 1.90717 0
M  V30 41735 C 2962.7 6.41069 2.90698 0
M  V30 41736 C 2963.41 5.5528 1.86931 0
M  V30 41737 N 2963.36 4.09575 2.15696 0
M  V30 41738 C 2963.21 3.24249 1.08435 0
M  V30 41739 O 2963.12 3.63946 -0.0628747 0
M  V30 41740 N 2963.17 1.90009 1.39973 0
M  V30 41741 C 2963.26 1.34884 2.65614 0
M  V30 41742 C 2963.41 2.3145 3.71736 0
M  V30 41743 C 2963.46 3.63518 3.44754 0
M  V30 41744 H 2966.2 7.45402 4.45526 0
M  V30 41745 H 2966.47 5.86062 3.67208 0
M  V30 41746 H 2965.61 7.84412 2.24479 0
M  V30 41747 H 2962.95 5.73358 0.888409 0
M  V30 41748 H 2962.67 5.90877 3.88583 0
M  V30 41749 H 2961.68 6.65867 2.58821 0
M  V30 41750 H 2963.51 8.16248 3.92006 0
M  V30 41751 H 2963.58 4.34551 4.26383 0
M  V30 41752 P 2961.64 8.7635 1.60911 0
M  V30 41753 O 2961.42 10.1388 1.11561 0
M  V30 41754 O 2960.85 8.36503 2.79617 0
M  V30 41755 O 2961.39 7.71806 0.42951 0
M  V30 41756 C 2962.33 7.67148 -0.673689 0
M  V30 41757 C 2961.6 7.33374 -1.95559 0
M  V30 41758 O 2961.39 5.88721 -2.00726 0
M  V30 41759 C 2960.2 7.92526 -2.10483 0
M  V30 41760 O 2959.81 8.02971 -3.47653 0
M  V30 41761 C 2959.32 6.89602 -1.41652 0
M  V30 41762 C 2960.03 5.59201 -1.75185 0
M  V30 41763 N 2959.98 4.58235 -0.662552 0
M  V30 41764 H 2962.82 8.65116 -0.777161 0
M  V30 41765 H 2963.09 6.90173 -0.474152 0
M  V30 41766 H 2962.23 7.66548 -2.79458 0
M  V30 41767 P 2958.26 8.03563 -3.84925 0
M  V30 41768 O 2958.04 8.85821 -5.0569 0
M  V30 41769 O 2957.47 8.41101 -2.65469 0
M  V30 41770 O 2958.01 6.4965 -4.18908 0
M  V30 41771 C 2958.95 5.81037 -5.05421 0
M  V30 41772 C 2958.22 4.78366 -5.89277 0
M  V30 41773 O 2958.01 3.58302 -5.08433 0
M  V30 41774 C 2956.82 5.17448 -6.36119 0
M  V30 41775 O 2956.43 4.45271 -7.53232 0
M  V30 41776 C 2955.94 4.74639 -5.19936 0
M  V30 41777 C 2956.65 3.49432 -4.70418 0
M  V30 41778 N 2956.6 3.31776 -3.22945 0
M  V30 41779 H 2959.44 6.54213 -5.71376 0
M  V30 41780 H 2959.71 5.30492 -4.44033 0
M  V30 41781 H 2958.85 4.55889 -6.76652 0
M  V30 41782 P 2954.88 4.23843 -7.83734 0
M  V30 41783 O 2954.66 4.19407 -9.29784 0
M  V30 41784 O 2954.09 5.24426 -7.09156 0
M  V30 41785 O 2954.63 2.7935 -7.20758 0
M  V30 41786 C 2955.57 1.7299 -7.50419 0
M  V30 41787 C 2954.84 0.406376 -7.57911 0
M  V30 41788 O 2954.63 -0.0897726 -6.21935 0
M  V30 41789 C 2953.44 0.447224 -8.1878 0
M  V30 41790 O 2953.05 -0.825065 -8.71101 0
M  V30 41791 C 2952.56 0.783801 -6.99623 0
M  V30 41792 C 2953.27 0.0619192 -5.85967 0
M  V30 41793 N 2953.22 0.7859 -4.56281 0
M  V30 41794 H 2956.06 1.93423 -8.4679 0
M  V30 41795 H 2956.33 1.68181 -6.71046 0
M  V30 41796 H 2955.47 -0.289041 -8.15388 0
M  V30 41797 P 2951.5 -1.17771 -8.83182 0
M  V30 41798 O 2951.28 -2.07206 -9.98732 0
M  V30 41799 O 2950.71 0.0743816 -8.81969 0
M  V30 41800 O 2951.25 -1.97652 -7.47304 0
M  V30 41801 C 2952.19 -3.01133 -7.08783 0
M  V30 41802 C 2951.46 -4.12613 -6.37049 0
M  V30 41803 O 2951.25 -3.72827 -4.97879 0
M  V30 41804 C 2950.06 -4.45085 -6.88694 0
M  V30 41805 O 2949.67 -5.7877 -6.5624 0
M  V30 41806 C 2949.18 -3.47817 -6.12078 0
M  V30 41807 C 2949.89 -3.39414 -4.77697 0
M  V30 41808 N 2949.84 -2.04615 -4.15333 0
M  V30 41809 H 2952.68 -3.41248 -7.98759 0
M  V30 41810 H 2952.95 -2.5837 -6.41742 0
M  V30 41811 H 2952.09 -5.02657 -6.42673 0
M  V30 41812 P 2948.12 -6.144 -6.45285 0
M  V30 41813 O 2947.9 -7.54673 -6.86199 0
M  V30 41814 O 2947.33 -5.12391 -7.179 0
M  V30 41815 O 2947.87 -5.99158 -4.88404 0
M  V30 41816 C 2948.81 -6.60234 -3.96415 0
M  V30 41817 C 2948.08 -7.08259 -2.72856 0
M  V30 41818 O 2947.87 -5.9427 -1.83651 0
M  V30 41819 C 2946.68 -7.64886 -2.9555 0
M  V30 41820 O 2946.29 -8.53963 -1.90717 0
M  V30 41821 C 2945.8 -6.4116 -2.90739 0
M  V30 41822 C 2946.51 -5.55375 -1.86963 0
M  V30 41823 N 2946.46 -4.09664 -2.15742 0
M  V30 41824 H 2949.3 -7.45574 -4.45629 0
M  V30 41825 H 2949.57 -5.86232 -3.67314 0
M  V30 41826 H 2948.71 -7.84412 -2.24479 0
M  V30 41827 P 2944.74 -8.7635 -1.60911 0
M  V30 41828 O 2944.52 -10.1388 -1.11561 0
M  V30 41829 O 2943.95 -8.36503 -2.79617 0
M  V30 41830 O 2944.49 -7.71806 -0.42951 0
M  V30 41831 C 2945.43 -7.67148 0.673689 0
M  V30 41832 C 2944.7 -7.33374 1.95559 0
M  V30 41833 O 2944.49 -5.88721 2.00726 0
M  V30 41834 C 2943.3 -7.92526 2.10483 0
M  V30 41835 O 2942.91 -8.02971 3.47653 0
M  V30 41836 C 2942.42 -6.89602 1.41652 0
M  V30 41837 C 2943.13 -5.59201 1.75185 0
M  V30 41838 N 2943.08 -4.58235 0.662552 0
M  V30 41839 H 2945.92 -8.65116 0.777161 0
M  V30 41840 H 2946.19 -6.90173 0.474152 0
M  V30 41841 H 2945.33 -7.66548 2.79458 0
M  V30 41842 P 2941.36 -8.03563 3.84925 0
M  V30 41843 O 2941.14 -8.85821 5.0569 0
M  V30 41844 O 2940.57 -8.41101 2.65469 0
M  V30 41845 O 2941.11 -6.4965 4.18908 0
M  V30 41846 C 2942.05 -5.80886 5.05289 0
M  V30 41847 C 2941.32 -4.78366 5.89277 0
M  V30 41848 O 2941.11 -3.58302 5.08433 0
M  V30 41849 C 2939.92 -5.16748 6.36559 0
M  V30 41850 O 2939.53 -4.45271 7.53232 0
M  V30 41851 C 2939.04 -4.74572 5.19863 0
M  V30 41852 C 2939.75 -3.49373 4.70338 0
M  V30 41853 N 2939.7 -3.31704 3.22876 0
M  V30 41854 C 2939.55 -2.03326 2.74871 0
M  V30 41855 O 2939.46 -1.06486 3.48076 0
M  V30 41856 N 2939.51 -1.91838 1.37456 0
M  V30 41857 C 2939.6 -2.94295 0.462035 0
M  V30 41858 C 2939.75 -4.25064 1.05249 0
M  V30 41859 C 2939.8 -4.40214 2.39192 0
M  V30 41860 H 2942.54 -6.54063 5.71245 0
M  V30 41861 H 2942.81 -5.30339 4.43905 0
M  V30 41862 H 2941.95 -4.55889 6.76652 0
M  V30 41863 H 2939.29 -2.6167 5.17842 0
M  V30 41864 H 2939.01 -5.52155 4.41878 0
M  V30 41865 H 2938.02 -4.51918 5.53297 0
M  V30 41866 H 2939.85 -6.25055 6.55162 0
M  V30 41867 H 2939.92 -5.39798 2.81523 0
M  V30 41868 P 2937.98 -4.23843 7.83734 0
M  V30 41869 O 2937.76 -4.19407 9.29784 0
M  V30 41870 O 2937.19 -5.24426 7.09156 0
M  V30 41871 O 2937.73 -2.7935 7.20758 0
M  V30 41872 C 2938.67 -1.7299 7.50419 0
M  V30 41873 C 2937.94 -0.406376 7.57911 0
M  V30 41874 O 2937.73 0.0897726 6.21935 0
M  V30 41875 C 2936.54 -0.447224 8.1878 0
M  V30 41876 O 2936.15 0.825065 8.71101 0
M  V30 41877 C 2935.66 -0.783801 6.99623 0
M  V30 41878 C 2936.37 -0.0619192 5.85967 0
M  V30 41879 N 2936.32 -0.7859 4.56281 0
M  V30 41880 H 2939.16 -1.93423 8.4679 0
M  V30 41881 H 2939.43 -1.68181 6.71046 0
M  V30 41882 H 2938.57 0.289041 8.15388 0
M  V30 41883 P 2934.6 1.17771 8.83182 0
M  V30 41884 O 2934.38 2.07206 9.98732 0
M  V30 41885 O 2933.81 -0.0743816 8.81969 0
M  V30 41886 O 2934.35 1.97652 7.47304 0
M  V30 41887 C 2935.29 3.01133 7.08783 0
M  V30 41888 C 2934.56 4.12613 6.37049 0
M  V30 41889 O 2934.35 3.72827 4.97879 0
M  V30 41890 C 2933.16 4.45085 6.88694 0
M  V30 41891 O 2932.77 5.7877 6.5624 0
M  V30 41892 C 2932.28 3.47817 6.12078 0
M  V30 41893 C 2932.99 3.39414 4.77697 0
M  V30 41894 N 2932.94 2.04199 4.15538 0
M  V30 41895 H 2935.78 3.41248 7.98759 0
M  V30 41896 H 2936.05 2.57728 6.42 0
M  V30 41897 H 2935.19 5.02657 6.42673 0
M  V30 41898 H 2932.53 4.11708 4.08956 0
M  V30 41899 H 2932.25 2.49626 6.61679 0
M  V30 41900 H 2931.26 3.8662 6.00862 0
M  V30 41901 H 2933.09 4.29991 7.97006 0
M  V30 41902 P 2931.22 6.144 6.45285 0
M  V30 41903 O 2931 7.54673 6.86199 0
M  V30 41904 O 2930.43 5.12391 7.179 0
M  V30 41905 O 2930.97 5.99158 4.88404 0
M  V30 41906 C 2931.91 6.60234 3.96415 0
M  V30 41907 C 2931.18 7.08259 2.72856 0
M  V30 41908 O 2930.97 5.9427 1.83651 0
M  V30 41909 C 2929.78 7.64886 2.9555 0
M  V30 41910 O 2929.39 8.53963 1.90717 0
M  V30 41911 C 2928.9 6.4116 2.90739 0
M  V30 41912 C 2929.61 5.55375 1.86963 0
M  V30 41913 N 2929.56 4.09664 2.15742 0
M  V30 41914 H 2932.4 7.45574 4.45629 0
M  V30 41915 H 2932.67 5.86232 3.67314 0
M  V30 41916 H 2931.81 7.84412 2.24479 0
M  V30 41917 P 2927.84 8.7635 1.60911 0
M  V30 41918 O 2927.62 10.1388 1.11561 0
M  V30 41919 O 2927.05 8.36503 2.79617 0
M  V30 41920 O 2927.59 7.71806 0.42951 0
M  V30 41921 C 2928.53 7.67148 -0.673689 0
M  V30 41922 C 2927.8 7.33374 -1.95559 0
M  V30 41923 O 2927.59 5.88721 -2.00726 0
M  V30 41924 C 2926.4 7.92526 -2.10483 0
M  V30 41925 O 2926.01 8.02971 -3.47653 0
M  V30 41926 C 2925.52 6.89602 -1.41652 0
M  V30 41927 C 2926.23 5.59201 -1.75185 0
M  V30 41928 N 2926.18 4.58235 -0.662552 0
M  V30 41929 H 2929.02 8.65116 -0.777161 0
M  V30 41930 H 2929.29 6.90173 -0.474152 0
M  V30 41931 H 2928.43 7.66548 -2.79458 0
M  V30 41932 P 2924.46 8.03563 -3.84925 0
M  V30 41933 O 2924.24 8.85821 -5.0569 0
M  V30 41934 O 2923.67 8.41101 -2.65469 0
M  V30 41935 O 2924.21 6.4965 -4.18908 0
M  V30 41936 C 2925.15 5.81037 -5.05421 0
M  V30 41937 C 2924.42 4.78366 -5.89277 0
M  V30 41938 O 2924.21 3.58302 -5.08433 0
M  V30 41939 C 2923.02 5.17448 -6.36119 0
M  V30 41940 O 2922.63 4.45271 -7.53232 0
M  V30 41941 C 2922.14 4.74639 -5.19936 0
M  V30 41942 C 2922.85 3.49432 -4.70418 0
M  V30 41943 N 2922.8 3.31776 -3.22945 0
M  V30 41944 H 2925.64 6.54213 -5.71376 0
M  V30 41945 H 2925.91 5.30492 -4.44033 0
M  V30 41946 H 2925.05 4.55889 -6.76652 0
M  V30 41947 P 2921.08 4.23843 -7.83734 0
M  V30 41948 O 2920.86 4.19407 -9.29784 0
M  V30 41949 O 2920.29 5.24426 -7.09156 0
M  V30 41950 O 2920.83 2.7935 -7.20758 0
M  V30 41951 C 2921.77 1.7299 -7.50419 0
M  V30 41952 C 2921.04 0.406376 -7.57911 0
M  V30 41953 O 2920.83 -0.0897726 -6.21935 0
M  V30 41954 C 2919.64 0.447224 -8.1878 0
M  V30 41955 O 2919.25 -0.825065 -8.71101 0
M  V30 41956 C 2918.76 0.783801 -6.99623 0
M  V30 41957 C 2919.47 0.0619192 -5.85967 0
M  V30 41958 N 2919.42 0.7859 -4.56281 0
M  V30 41959 H 2922.26 1.93423 -8.4679 0
M  V30 41960 H 2922.53 1.68181 -6.71046 0
M  V30 41961 H 2921.67 -0.289041 -8.15388 0
M  V30 41962 P 2917.7 -1.17771 -8.83182 0
M  V30 41963 O 2917.48 -2.07206 -9.98732 0
M  V30 41964 O 2916.91 0.0743816 -8.81969 0
M  V30 41965 O 2917.45 -1.97652 -7.47304 0
M  V30 41966 C 2918.39 -3.01133 -7.08783 0
M  V30 41967 C 2917.66 -4.12613 -6.37049 0
M  V30 41968 O 2917.45 -3.72827 -4.97879 0
M  V30 41969 C 2916.26 -4.45085 -6.88694 0
M  V30 41970 O 2915.87 -5.7877 -6.5624 0
M  V30 41971 C 2915.38 -3.47817 -6.12078 0
M  V30 41972 C 2916.09 -3.39414 -4.77697 0
M  V30 41973 N 2916.04 -2.04199 -4.15538 0
M  V30 41974 H 2918.88 -3.41248 -7.98759 0
M  V30 41975 H 2919.15 -2.57728 -6.42 0
M  V30 41976 H 2918.29 -5.02657 -6.42673 0
M  V30 41977 H 2915.63 -4.11708 -4.08956 0
M  V30 41978 H 2915.35 -2.49626 -6.61679 0
M  V30 41979 H 2914.36 -3.8662 -6.00862 0
M  V30 41980 H 2916.19 -4.29991 -7.97006 0
M  V30 41981 P 2914.32 -6.144 -6.45285 0
M  V30 41982 O 2914.1 -7.54673 -6.86199 0
M  V30 41983 O 2913.53 -5.12391 -7.179 0
M  V30 41984 O 2914.07 -5.99158 -4.88404 0
M  V30 41985 C 2915.01 -6.60234 -3.96415 0
M  V30 41986 C 2914.28 -7.08259 -2.72856 0
M  V30 41987 O 2914.07 -5.9427 -1.83651 0
M  V30 41988 C 2912.88 -7.64886 -2.9555 0
M  V30 41989 O 2912.49 -8.53963 -1.90717 0
M  V30 41990 C 2912 -6.4116 -2.90739 0
M  V30 41991 C 2912.71 -5.55375 -1.86963 0
M  V30 41992 N 2912.66 -4.09664 -2.15742 0
M  V30 41993 C 2912.74 -3.44381 -3.37233 0
M  V30 41994 N 2912.66 -2.14131 -3.28347 0
M  V30 41995 C 2912.52 -1.90247 -1.91588 0
M  V30 41996 C 2912.39 -0.683992 -1.20892 0
M  V30 41997 O 2912.37 0.46618 -1.64523 0
M  V30 41998 N 2912.27 -0.903396 0.173998 0
M  V30 41999 C 2912.27 -2.14171 0.784879 0
M  V30 42000 N 2912.14 -2.1435 2.11317 0
M  V30 42001 N 2912.4 -3.28784 0.119316 0
M  V30 42002 C 2912.52 -3.0977 -1.22194 0
M  V30 42003 H 2915.5 -7.45574 -4.45629 0
M  V30 42004 H 2915.77 -5.86232 -3.67314 0
M  V30 42005 H 2914.91 -7.84412 -2.24479 0
M  V30 42006 H 2912.25 -5.73556 -0.888715 0
M  V30 42007 H 2911.97 -5.9096 -3.88638 0
M  V30 42008 H 2910.98 -6.66053 -2.58894 0
M  V30 42009 H 2912.81 -8.16429 -3.92093 0
M  V30 42010 H 2912.86 -3.96785 -4.32043 0
M  V30 42011 H 2912.18 -0.0999567 0.761467 0
M  V30 42012 H 2912.14 -3.03436 2.63076 0
M  V30 42013 H 2912.04 -1.25228 2.62233 0
M  V30 42014 P 2910.94 -8.7635 -1.60911 0
M  V30 42015 O 2910.72 -10.1388 -1.11561 0
M  V30 42016 O 2910.15 -8.36503 -2.79617 0
M  V30 42017 O 2910.69 -7.71806 -0.42951 0
M  V30 42018 C 2911.63 -7.67148 0.673689 0
M  V30 42019 C 2910.9 -7.33374 1.95559 0
M  V30 42020 O 2910.69 -5.88721 2.00726 0
M  V30 42021 C 2909.5 -7.92526 2.10483 0
M  V30 42022 O 2909.11 -8.02971 3.47653 0
M  V30 42023 C 2908.62 -6.89602 1.41652 0
M  V30 42024 C 2909.33 -5.59201 1.75185 0
M  V30 42025 N 2909.28 -4.58301 0.657969 0
M  V30 42026 H 2912.12 -8.65116 0.777161 0
M  V30 42027 H 2912.39 -6.9022 0.46725 0
M  V30 42028 H 2911.53 -7.66548 2.79458 0
M  V30 42029 H 2908.87 -5.16165 2.65183 0
M  V30 42030 H 2908.59 -7.06433 0.329384 0
M  V30 42031 H 2907.6 -6.90926 1.82021 0
M  V30 42032 H 2909.43 -8.90873 1.62657 0
M  V30 42033 P 2907.56 -8.03563 3.84925 0
M  V30 42034 O 2907.34 -8.85821 5.0569 0
M  V30 42035 O 2906.77 -8.41101 2.65469 0
M  V30 42036 O 2907.31 -6.4965 4.18908 0
M  V30 42037 C 2908.25 -5.81037 5.05421 0
M  V30 42038 C 2907.52 -4.78366 5.89277 0
M  V30 42039 O 2907.31 -3.58302 5.08433 0
M  V30 42040 C 2906.12 -5.17448 6.36119 0
M  V30 42041 O 2905.73 -4.45271 7.53232 0
M  V30 42042 C 2905.24 -4.74639 5.19936 0
M  V30 42043 C 2905.95 -3.49432 4.70418 0
M  V30 42044 N 2905.9 -3.31776 3.22945 0
M  V30 42045 H 2908.74 -6.54213 5.71376 0
M  V30 42046 H 2909.01 -5.30492 4.44033 0
M  V30 42047 H 2908.15 -4.55889 6.76652 0
M  V30 42048 P 2904.18 -4.23843 7.83734 0
M  V30 42049 O 2903.96 -4.19407 9.29784 0
M  V30 42050 O 2903.39 -5.24426 7.09156 0
M  V30 42051 O 2903.93 -2.79386 7.20852 0
M  V30 42052 C 2904.87 -1.7299 7.50419 0
M  V30 42053 C 2904.14 -0.41401 7.5797 0
M  V30 42054 O 2903.93 0.089787 6.22035 0
M  V30 42055 C 2902.74 -0.447224 8.1878 0
M  V30 42056 O 2902.35 0.825159 8.71201 0
M  V30 42057 C 2901.86 -0.783801 6.99623 0
M  V30 42058 C 2902.57 -0.0619192 5.85967 0
M  V30 42059 N 2902.52 -0.7859 4.56281 0
M  V30 42060 C 2902.37 -0.0359258 3.39981 0
M  V30 42061 O 2902.28 1.19723 3.49038 0
M  V30 42062 N 2902.32 -0.869151 2.14025 0
M  V30 42063 C 2902.42 -2.01207 2.14363 0
M  V30 42064 N 2902.37 -2.58978 0.954287 0
M  V30 42065 C 2902.57 -2.80817 3.32215 0
M  V30 42066 C 2902.62 -2.13785 4.50884 0
M  V30 42067 H 2905.36 -1.93401 8.46693 0
M  V30 42068 H 2905.63 -1.68181 6.71046 0
M  V30 42069 H 2904.77 0.289076 8.15488 0
M  V30 42070 H 2902.11 0.927166 5.72947 0
M  V30 42071 H 2901.83 -1.87 6.82132 0
M  V30 42072 H 2900.84 -0.404009 7.13457 0
M  V30 42073 H 2902.67 -1.20599 8.97534 0
M  V30 42074 H 2902.75 -2.70295 5.43162 0
M  V30 42075 H 2902.64 -3.89465 3.27406 0
M  V30 42076 H 2902.26 -2.01616 0.107046 0
M  V30 42077 H 2902.45 -3.61403 0.873101 0
M  V30 42078 P 2900.8 1.17771 8.83182 0
M  V30 42079 O 2900.58 2.07206 9.98732 0
M  V30 42080 O 2900.01 -0.0743816 8.81969 0
M  V30 42081 O 2900.55 1.97652 7.47304 0
M  V30 42082 C 2901.49 3.01133 7.08783 0
M  V30 42083 C 2900.76 4.12613 6.37049 0
M  V30 42084 O 2900.55 3.72827 4.97879 0
M  V30 42085 C 2899.36 4.45085 6.88694 0
M  V30 42086 O 2898.97 5.7877 6.5624 0
M  V30 42087 C 2898.48 3.47817 6.12078 0
M  V30 42088 C 2899.19 3.39414 4.77697 0
M  V30 42089 N 2899.14 2.04199 4.15538 0
M  V30 42090 C 2899.22 0.821545 4.76977 0
M  V30 42091 N 2899.15 -0.1794 3.94592 0
M  V30 42092 C 2899 0.419121 2.70776 0
M  V30 42093 C 2898.87 -0.109072 1.40577 0
M  V30 42094 N 2898.86 -1.4104 1.1344 0
M  V30 42095 N 2898.75 0.764381 0.39411 0
M  V30 42096 C 2898.76 2.06587 0.664135 0
M  V30 42097 N 2898.88 2.67948 1.82153 0
M  V30 42098 C 2899 1.77942 2.8147 0
M  V30 42099 H 2901.98 3.41248 7.98759 0
M  V30 42100 H 2902.25 2.57728 6.42 0
M  V30 42101 H 2901.39 5.02657 6.42673 0
M  V30 42102 H 2898.73 4.11708 4.08956 0
M  V30 42103 H 2898.45 2.49626 6.61679 0
M  V30 42104 H 2897.46 3.8662 6.00862 0
M  V30 42105 H 2899.29 4.29991 7.97006 0
M  V30 42106 H 2899.33 0.702451 5.84696 0
M  V30 42107 H 2898.95 -2.09647 1.89651 0
M  V30 42108 H 2898.76 -1.73358 0.160575 0
M  V30 42109 H 2898.66 2.71695 -0.195838 0
M  V30 42110 P 2897.42 6.144 6.45285 0
M  V30 42111 O 2897.2 7.54673 6.86199 0
M  V30 42112 O 2896.63 5.12391 7.179 0
M  V30 42113 O 2897.17 5.99236 4.88467 0
M  V30 42114 C 2898.11 6.60234 3.96415 0
M  V30 42115 C 2897.38 7.08079 2.736 0
M  V30 42116 O 2897.17 5.94365 1.8368 0
M  V30 42117 C 2895.98 7.64886 2.9555 0
M  V30 42118 O 2895.59 8.5406 1.90739 0
M  V30 42119 C 2895.1 6.4116 2.90739 0
M  V30 42120 C 2895.81 5.55375 1.86963 0
M  V30 42121 N 2895.76 4.09664 2.15742 0
M  V30 42122 C 2895.61 3.22231 1.08477 0
M  V30 42123 O 2895.52 3.68951 -0.0600489 0
M  V30 42124 N 2895.56 1.76692 1.48799 0
M  V30 42125 C 2895.66 1.41695 2.57602 0
M  V30 42126 N 2895.61 0.107296 2.75791 0
M  V30 42127 C 2895.81 2.29178 3.69733 0
M  V30 42128 C 2895.86 3.62753 3.42653 0
M  V30 42129 H 2898.6 7.45488 4.45578 0
M  V30 42130 H 2898.87 5.86232 3.67314 0
M  V30 42131 H 2898.01 7.84508 2.24507 0
M  V30 42132 H 2895.35 5.73556 0.888715 0
M  V30 42133 H 2895.07 5.9096 3.88638 0
M  V30 42134 H 2894.08 6.66053 2.58894 0
M  V30 42135 H 2895.91 8.16339 3.92049 0
M  V30 42136 H 2895.99 4.33052 4.24913 0
M  V30 42137 H 2895.88 1.9103 4.71577 0
M  V30 42138 H 2895.5 -0.521221 1.95056 0
M  V30 42139 H 2895.69 -0.286429 3.70695 0
M  V30 42140 P 2894.04 8.7635 1.60911 0
M  V30 42141 O 2893.82 10.1388 1.11561 0
M  V30 42142 O 2893.25 8.36503 2.79617 0
M  V30 42143 O 2893.79 7.71806 0.42951 0
M  V30 42144 C 2894.73 7.67148 -0.673689 0
M  V30 42145 C 2894 7.33374 -1.95559 0
M  V30 42146 O 2893.79 5.88721 -2.00726 0
M  V30 42147 C 2892.6 7.92526 -2.10483 0
M  V30 42148 O 2892.21 8.02971 -3.47653 0
M  V30 42149 C 2891.72 6.89602 -1.41652 0
M  V30 42150 C 2892.43 5.59201 -1.75185 0
M  V30 42151 N 2892.38 4.58235 -0.662552 0
M  V30 42152 H 2895.22 8.65116 -0.777161 0
M  V30 42153 H 2895.49 6.90173 -0.474152 0
M  V30 42154 H 2894.63 7.66548 -2.79458 0
M  V30 42155 P 2890.66 8.03563 -3.84925 0
M  V30 42156 O 2890.44 8.85821 -5.0569 0
M  V30 42157 O 2889.87 8.41101 -2.65469 0
M  V30 42158 O 2890.41 6.49734 -4.18962 0
M  V30 42159 C 2891.35 5.81037 -5.05421 0
M  V30 42160 C 2890.62 4.79018 -5.88876 0
M  V30 42161 O 2890.41 3.58359 -5.08515 0
M  V30 42162 C 2889.22 5.17448 -6.36119 0
M  V30 42163 O 2888.83 4.45322 -7.53318 0
M  V30 42164 C 2888.34 4.74639 -5.19936 0
M  V30 42165 C 2889.05 3.49432 -4.70418 0
M  V30 42166 N 2889 3.31776 -3.22945 0
M  V30 42167 C 2888.85 2.02742 -2.72939 0
M  V30 42168 O 2888.76 1.08301 -3.52749 0
M  V30 42169 N 2888.8 1.96117 -1.22063 0
M  V30 42170 C 2888.9 2.8878 -0.551566 0
M  V30 42171 N 2888.85 2.65609 0.750198 0
M  V30 42172 C 2889.05 4.22457 -1.03707 0
M  V30 42173 C 2889.1 4.37979 -2.39113 0
M  V30 42174 H 2891.84 6.54138 -5.7131 0
M  V30 42175 H 2892.11 5.30492 -4.44033 0
M  V30 42176 H 2891.25 4.55945 -6.76735 0
M  V30 42177 H 2888.59 2.6176 -5.18021 0
M  V30 42178 H 2888.31 5.52233 -4.41941 0
M  V30 42179 H 2887.32 4.52045 -5.53452 0
M  V30 42180 H 2889.15 6.25124 -6.55234 0
M  V30 42181 H 2889.23 5.37936 -2.80552 0
M  V30 42182 H 2889.12 5.07528 -0.359553 0
M  V30 42183 H 2888.74 1.69403 1.09847 0
M  V30 42184 H 2888.93 3.43701 1.41792 0
M  V30 42185 P 2887.28 4.23843 -7.83734 0
M  V30 42186 O 2887.06 4.19407 -9.29784 0
M  V30 42187 O 2886.49 5.24426 -7.09156 0
M  V30 42188 O 2887.03 2.7935 -7.20758 0
M  V30 42189 C 2887.97 1.7299 -7.50419 0
M  V30 42190 C 2887.24 0.406376 -7.57911 0
M  V30 42191 O 2887.03 -0.0897726 -6.21935 0
M  V30 42192 C 2885.84 0.447224 -8.1878 0
M  V30 42193 O 2885.45 -0.825065 -8.71101 0
M  V30 42194 C 2884.96 0.783801 -6.99623 0
M  V30 42195 C 2885.67 0.0619192 -5.85967 0
M  V30 42196 N 2885.62 0.7859 -4.56281 0
M  V30 42197 H 2888.46 1.93423 -8.4679 0
M  V30 42198 H 2888.73 1.68181 -6.71046 0
M  V30 42199 H 2887.87 -0.289041 -8.15388 0
M  V30 42200 P 2883.9 -1.17771 -8.83182 0
M  V30 42201 O 2883.68 -2.07206 -9.98732 0
M  V30 42202 O 2883.11 0.0743816 -8.81969 0
M  V30 42203 O 2883.65 -1.97652 -7.47304 0
M  V30 42204 C 2884.59 -3.01055 -7.08599 0
M  V30 42205 C 2883.86 -4.12613 -6.37049 0
M  V30 42206 O 2883.65 -3.72827 -4.97879 0
M  V30 42207 C 2882.46 -4.45719 -6.88164 0
M  V30 42208 O 2882.07 -5.7877 -6.5624 0
M  V30 42209 C 2881.58 -3.47768 -6.11991 0
M  V30 42210 C 2882.29 -3.39356 -4.77615 0
M  V30 42211 N 2882.24 -2.04571 -4.15244 0
M  V30 42212 C 2882.09 -1.98587 -2.78314 0
M  V30 42213 O 2882 -2.98134 -2.08835 0
M  V30 42214 N 2882.05 -0.714467 -2.24925 0
M  V30 42215 C 2882.14 0.470001 -2.94169 0
M  V30 42216 O 2882.09 1.55587 -2.35195 0
M  V30 42217 C 2882.29 0.312541 -4.36783 0
M  V30 42218 C 2882.4 1.57711 -5.16352 0
M  V30 42219 C 2882.34 -0.914512 -4.92583 0
M  V30 42220 H 2885.08 -3.41169 -7.98575 0
M  V30 42221 H 2885.35 -2.58295 -6.41556 0
M  V30 42222 H 2884.49 -5.02657 -6.42673 0
M  V30 42223 H 2881.83 -4.11637 -4.08885 0
M  V30 42224 H 2881.55 -2.49626 -6.61679 0
M  V30 42225 H 2880.56 -3.86566 -6.00778 0
M  V30 42226 H 2882.39 -4.29943 -7.96918 0
M  V30 42227 H 2882.46 -1.00937 -6.00374 0
M  V30 42228 H 2881.43 1.80153 -5.63503 0
M  V30 42229 H 2883.17 1.4566 -5.94104 0
M  V30 42230 H 2882.68 2.40664 -4.49645 0
M  V30 42231 H 2881.95 -0.647622 -1.25697 0
M  V30 42232 P 2880.52 -6.144 -6.45285 0
M  V30 42233 O 2880.3 -7.54673 -6.86199 0
M  V30 42234 O 2879.73 -5.12391 -7.179 0
M  V30 42235 O 2880.27 -5.99236 -4.88467 0
M  V30 42236 C 2881.21 -6.60234 -3.96415 0
M  V30 42237 C 2880.48 -7.08079 -2.736 0
M  V30 42238 O 2880.27 -5.94365 -1.8368 0
M  V30 42239 C 2879.08 -7.64886 -2.9555 0
M  V30 42240 O 2878.69 -8.5406 -1.90739 0
M  V30 42241 C 2878.2 -6.4116 -2.90739 0
M  V30 42242 C 2878.91 -5.55375 -1.86963 0
M  V30 42243 N 2878.86 -4.09664 -2.15742 0
M  V30 42244 C 2878.71 -3.22231 -1.08477 0
M  V30 42245 O 2878.62 -3.68951 0.0600489 0
M  V30 42246 N 2878.66 -1.76692 -1.48799 0
M  V30 42247 C 2878.76 -1.41695 -2.57602 0
M  V30 42248 N 2878.71 -0.107296 -2.75791 0
M  V30 42249 C 2878.91 -2.29178 -3.69733 0
M  V30 42250 C 2878.96 -3.62753 -3.42653 0
M  V30 42251 H 2881.7 -7.45488 -4.45578 0
M  V30 42252 H 2881.97 -5.86232 -3.67314 0
M  V30 42253 H 2881.11 -7.84508 -2.24507 0
M  V30 42254 H 2878.45 -5.73556 -0.888715 0
M  V30 42255 H 2878.17 -5.9096 -3.88638 0
M  V30 42256 H 2877.18 -6.66053 -2.58894 0
M  V30 42257 H 2879.01 -8.16339 -3.92049 0
M  V30 42258 H 2879.09 -4.33052 -4.24913 0
M  V30 42259 H 2878.98 -1.9103 -4.71577 0
M  V30 42260 H 2878.6 0.521221 -1.95056 0
M  V30 42261 H 2878.79 0.286429 -3.70695 0
M  V30 42262 P 2877.14 -8.7635 -1.60911 0
M  V30 42263 O 2876.92 -10.1388 -1.11561 0
M  V30 42264 O 2876.35 -8.36503 -2.79617 0
M  V30 42265 O 2876.89 -7.71806 -0.42951 0
M  V30 42266 C 2877.83 -7.67148 0.673689 0
M  V30 42267 C 2877.1 -7.33374 1.95559 0
M  V30 42268 O 2876.89 -5.88721 2.00726 0
M  V30 42269 C 2875.7 -7.92526 2.10483 0
M  V30 42270 O 2875.31 -8.02971 3.47653 0
M  V30 42271 C 2874.82 -6.89602 1.41652 0
M  V30 42272 C 2875.53 -5.59201 1.75185 0
M  V30 42273 N 2875.48 -4.58235 0.662552 0
M  V30 42274 H 2878.32 -8.65116 0.777161 0
M  V30 42275 H 2878.59 -6.90173 0.474152 0
M  V30 42276 H 2877.73 -7.66548 2.79458 0
M  V30 42277 P 2873.76 -8.03563 3.84925 0
M  V30 42278 O 2873.54 -8.85821 5.0569 0
M  V30 42279 O 2872.97 -8.41101 2.65469 0
M  V30 42280 O 2873.51 -6.4965 4.18908 0
M  V30 42281 C 2874.45 -5.81037 5.05421 0
M  V30 42282 C 2873.72 -4.78366 5.89277 0
M  V30 42283 O 2873.51 -3.58302 5.08433 0
M  V30 42284 C 2872.32 -5.17448 6.36119 0
M  V30 42285 O 2871.93 -4.45271 7.53232 0
M  V30 42286 C 2871.44 -4.74639 5.19936 0
M  V30 42287 C 2872.15 -3.49432 4.70418 0
M  V30 42288 N 2872.1 -3.31776 3.22945 0
M  V30 42289 H 2874.94 -6.54213 5.71376 0
M  V30 42290 H 2875.21 -5.30492 4.44033 0
M  V30 42291 H 2874.35 -4.55889 6.76652 0
M  V30 42292 P 2870.38 -4.23843 7.83734 0
M  V30 42293 O 2870.16 -4.19407 9.29784 0
M  V30 42294 O 2869.59 -5.24426 7.09156 0
M  V30 42295 O 2870.13 -2.7935 7.20758 0
M  V30 42296 C 2871.07 -1.7299 7.50419 0
M  V30 42297 C 2870.34 -0.406376 7.57911 0
M  V30 42298 O 2870.13 0.0897726 6.21935 0
M  V30 42299 C 2868.94 -0.447224 8.1878 0
M  V30 42300 O 2868.55 0.825065 8.71101 0
M  V30 42301 C 2868.06 -0.783801 6.99623 0
M  V30 42302 C 2868.77 -0.0619192 5.85967 0
M  V30 42303 N 2868.72 -0.7859 4.56281 0
M  V30 42304 H 2871.56 -1.93423 8.4679 0
M  V30 42305 H 2871.83 -1.68181 6.71046 0
M  V30 42306 H 2870.97 0.289041 8.15388 0
M  V30 42307 P 2867 1.17771 8.83182 0
M  V30 42308 O 2866.78 2.07206 9.98732 0
M  V30 42309 O 2866.21 -0.0743816 8.81969 0
M  V30 42310 O 2866.75 1.97652 7.47304 0
M  V30 42311 C 2867.69 3.01133 7.08783 0
M  V30 42312 C 2866.96 4.12613 6.37049 0
M  V30 42313 O 2866.75 3.72827 4.97879 0
M  V30 42314 C 2865.56 4.45085 6.88694 0
M  V30 42315 O 2865.17 5.7877 6.5624 0
M  V30 42316 C 2864.68 3.47817 6.12078 0
M  V30 42317 C 2865.39 3.39414 4.77697 0
M  V30 42318 N 2865.34 2.04615 4.15333 0
M  V30 42319 H 2868.18 3.41248 7.98759 0
M  V30 42320 H 2868.45 2.5837 6.41742 0
M  V30 42321 H 2867.59 5.02657 6.42673 0
M  V30 42322 P 2863.62 6.144 6.45285 0
M  V30 42323 O 2863.4 7.54673 6.86199 0
M  V30 42324 O 2862.83 5.12391 7.179 0
M  V30 42325 O 2863.37 5.99158 4.88404 0
M  V30 42326 C 2864.31 6.60234 3.96415 0
M  V30 42327 C 2863.58 7.08259 2.72856 0
M  V30 42328 O 2863.37 5.9427 1.83651 0
M  V30 42329 C 2862.18 7.64886 2.9555 0
M  V30 42330 O 2861.79 8.53963 1.90717 0
M  V30 42331 C 2861.3 6.4116 2.90739 0
M  V30 42332 C 2862.01 5.55375 1.86963 0
M  V30 42333 N 2861.96 4.09664 2.15742 0
M  V30 42334 H 2864.8 7.45574 4.45629 0
M  V30 42335 H 2865.07 5.86232 3.67314 0
M  V30 42336 H 2864.21 7.84412 2.24479 0
M  V30 42337 P 2860.24 8.7635 1.60911 0
M  V30 42338 O 2860.02 10.1388 1.11561 0
M  V30 42339 O 2859.45 8.36503 2.79617 0
M  V30 42340 O 2859.99 7.71806 0.42951 0
M  V30 42341 C 2860.93 7.67148 -0.673689 0
M  V30 42342 C 2860.2 7.33374 -1.95559 0
M  V30 42343 O 2859.99 5.88721 -2.00726 0
M  V30 42344 C 2858.8 7.92526 -2.10483 0
M  V30 42345 O 2858.41 8.02971 -3.47653 0
M  V30 42346 C 2857.92 6.89602 -1.41652 0
M  V30 42347 C 2858.63 5.59201 -1.75185 0
M  V30 42348 N 2858.58 4.58235 -0.662552 0
M  V30 42349 H 2861.42 8.65116 -0.777161 0
M  V30 42350 H 2861.69 6.90173 -0.474152 0
M  V30 42351 H 2860.83 7.66548 -2.79458 0
M  V30 42352 P 2856.86 8.03563 -3.84925 0
M  V30 42353 O 2856.64 8.85821 -5.0569 0
M  V30 42354 O 2856.07 8.41101 -2.65469 0
M  V30 42355 O 2856.61 6.4965 -4.18908 0
M  V30 42356 C 2857.55 5.81037 -5.05421 0
M  V30 42357 C 2856.82 4.78366 -5.89277 0
M  V30 42358 O 2856.61 3.58302 -5.08433 0
M  V30 42359 C 2855.42 5.17448 -6.36119 0
M  V30 42360 O 2855.03 4.45271 -7.53232 0
M  V30 42361 C 2854.54 4.74639 -5.19936 0
M  V30 42362 C 2855.25 3.49432 -4.70418 0
M  V30 42363 N 2855.2 3.31776 -3.22945 0
M  V30 42364 H 2858.04 6.54213 -5.71376 0
M  V30 42365 H 2858.31 5.30492 -4.44033 0
M  V30 42366 H 2857.45 4.55889 -6.76652 0
M  V30 42367 P 2853.48 4.23843 -7.83734 0
M  V30 42368 O 2853.26 4.19407 -9.29784 0
M  V30 42369 O 2852.69 5.24426 -7.09156 0
M  V30 42370 O 2853.23 2.7935 -7.20758 0
M  V30 42371 C 2854.17 1.7299 -7.50419 0
M  V30 42372 C 2853.44 0.406376 -7.57911 0
M  V30 42373 O 2853.23 -0.0897726 -6.21935 0
M  V30 42374 C 2852.04 0.447224 -8.1878 0
M  V30 42375 O 2851.65 -0.825065 -8.71101 0
M  V30 42376 C 2851.16 0.783801 -6.99623 0
M  V30 42377 C 2851.87 0.0619192 -5.85967 0
M  V30 42378 N 2851.82 0.7859 -4.56281 0
M  V30 42379 H 2854.66 1.93423 -8.4679 0
M  V30 42380 H 2854.93 1.68181 -6.71046 0
M  V30 42381 H 2854.07 -0.289041 -8.15388 0
M  V30 42382 P 2850.1 -1.17771 -8.83182 0
M  V30 42383 O 2849.88 -2.07206 -9.98732 0
M  V30 42384 O 2849.31 0.0743816 -8.81969 0
M  V30 42385 O 2849.85 -1.97652 -7.47304 0
M  V30 42386 C 2850.79 -3.01133 -7.08783 0
M  V30 42387 C 2850.06 -4.12613 -6.37049 0
M  V30 42388 O 2849.85 -3.72827 -4.97879 0
M  V30 42389 C 2848.66 -4.45085 -6.88694 0
M  V30 42390 O 2848.27 -5.7877 -6.5624 0
M  V30 42391 C 2847.78 -3.47817 -6.12078 0
M  V30 42392 C 2848.49 -3.39414 -4.77697 0
M  V30 42393 N 2848.44 -2.04615 -4.15333 0
M  V30 42394 H 2851.28 -3.41248 -7.98759 0
M  V30 42395 H 2851.55 -2.5837 -6.41742 0
M  V30 42396 H 2850.69 -5.02657 -6.42673 0
M  V30 42397 P 2846.72 -6.144 -6.45285 0
M  V30 42398 O 2846.5 -7.54673 -6.86199 0
M  V30 42399 O 2845.93 -5.12391 -7.179 0
M  V30 42400 O 2846.47 -5.99158 -4.88404 0
M  V30 42401 C 2847.41 -6.60234 -3.96415 0
M  V30 42402 C 2846.68 -7.08259 -2.72856 0
M  V30 42403 O 2846.47 -5.9427 -1.83651 0
M  V30 42404 C 2845.28 -7.64886 -2.9555 0
M  V30 42405 O 2844.89 -8.53963 -1.90717 0
M  V30 42406 C 2844.4 -6.4116 -2.90739 0
M  V30 42407 C 2845.11 -5.55375 -1.86963 0
M  V30 42408 N 2845.06 -4.09664 -2.15742 0
M  V30 42409 H 2847.9 -7.45574 -4.45629 0
M  V30 42410 H 2848.17 -5.86232 -3.67314 0
M  V30 42411 H 2847.31 -7.84412 -2.24479 0
M  V30 42412 P 2843.34 -8.7635 -1.60911 0
M  V30 42413 O 2843.12 -10.1388 -1.11561 0
M  V30 42414 O 2842.55 -8.36503 -2.79617 0
M  V30 42415 O 2843.09 -7.71806 -0.42951 0
M  V30 42416 C 2844.03 -7.67148 0.673689 0
M  V30 42417 C 2843.3 -7.33374 1.95559 0
M  V30 42418 O 2843.09 -5.88721 2.00726 0
M  V30 42419 C 2841.9 -7.92526 2.10483 0
M  V30 42420 O 2841.51 -8.02971 3.47653 0
M  V30 42421 C 2841.02 -6.89602 1.41652 0
M  V30 42422 C 2841.73 -5.59201 1.75185 0
M  V30 42423 N 2841.68 -4.58235 0.662552 0
M  V30 42424 C 2841.76 -4.7683 -0.704049 0
M  V30 42425 N 2841.68 -3.66233 -1.39775 0
M  V30 42426 C 2841.54 -2.66526 -0.431739 0
M  V30 42427 C 2841.41 -1.26394 -0.575992 0
M  V30 42428 N 2841.29 -0.62859 0.67177 0
M  V30 42429 C 2841.29 -1.27134 1.89385 0
M  V30 42430 N 2841.16 -0.492035 2.96951 0
M  V30 42431 N 2841.42 -2.58978 2.02907 0
M  V30 42432 C 2841.54 -3.22433 0.832218 0
M  V30 42433 H 2844.52 -8.65116 0.777161 0
M  V30 42434 H 2844.79 -6.90173 0.474152 0
M  V30 42435 H 2843.93 -7.66548 2.79458 0
M  V30 42436 P 2839.96 -8.03563 3.84925 0
M  V30 42437 O 2839.74 -8.85821 5.0569 0
M  V30 42438 O 2839.17 -8.41101 2.65469 0
M  V30 42439 O 2839.71 -6.4965 4.18908 0
M  V30 42440 C 2840.65 -5.81037 5.05421 0
M  V30 42441 C 2839.92 -4.78366 5.89277 0
M  V30 42442 O 2839.71 -3.58302 5.08433 0
M  V30 42443 C 2838.52 -5.17448 6.36119 0
M  V30 42444 O 2838.13 -4.45271 7.53232 0
M  V30 42445 C 2837.64 -4.74639 5.19936 0
M  V30 42446 C 2838.35 -3.49432 4.70418 0
M  V30 42447 N 2838.3 -3.31776 3.22945 0
M  V30 42448 H 2841.14 -6.54213 5.71376 0
M  V30 42449 H 2841.41 -5.30492 4.44033 0
M  V30 42450 H 2840.55 -4.55889 6.76652 0
M  V30 42451 P 2836.58 -4.23843 7.83734 0
M  V30 42452 O 2836.36 -4.19407 9.29784 0
M  V30 42453 O 2835.79 -5.24426 7.09156 0
M  V30 42454 O 2836.33 -2.7935 7.20758 0
M  V30 42455 C 2837.27 -1.7299 7.50419 0
M  V30 42456 C 2836.54 -0.406376 7.57911 0
M  V30 42457 O 2836.33 0.0897726 6.21935 0
M  V30 42458 C 2835.14 -0.447224 8.1878 0
M  V30 42459 O 2834.75 0.825065 8.71101 0
M  V30 42460 C 2834.26 -0.783801 6.99623 0
M  V30 42461 C 2834.97 -0.0619192 5.85967 0
M  V30 42462 N 2834.92 -0.7859 4.56281 0
M  V30 42463 H 2837.76 -1.93423 8.4679 0
M  V30 42464 H 2838.03 -1.68181 6.71046 0
M  V30 42465 H 2837.17 0.289041 8.15388 0
M  V30 42466 P 2833.2 1.17771 8.83182 0
M  V30 42467 O 2832.98 2.07206 9.98732 0
M  V30 42468 O 2832.41 -0.0743816 8.81969 0
M  V30 42469 O 2832.95 1.97652 7.47304 0
M  V30 42470 C 2833.89 3.01133 7.08783 0
M  V30 42471 C 2833.16 4.12613 6.37049 0
M  V30 42472 O 2832.95 3.72827 4.97879 0
M  V30 42473 C 2831.76 4.45085 6.88694 0
M  V30 42474 O 2831.37 5.7877 6.5624 0
M  V30 42475 C 2830.88 3.47817 6.12078 0
M  V30 42476 C 2831.59 3.39414 4.77697 0
M  V30 42477 N 2831.54 2.04615 4.15333 0
M  V30 42478 H 2834.38 3.41248 7.98759 0
M  V30 42479 H 2834.65 2.5837 6.41742 0
M  V30 42480 H 2833.79 5.02657 6.42673 0
M  V30 42481 P 2829.82 6.144 6.45285 0
M  V30 42482 O 2829.6 7.54673 6.86199 0
M  V30 42483 O 2829.03 5.12391 7.179 0
M  V30 42484 O 2829.57 5.99158 4.88404 0
M  V30 42485 C 2830.51 6.60234 3.96415 0
M  V30 42486 C 2829.78 7.08259 2.72856 0
M  V30 42487 O 2829.57 5.9427 1.83651 0
M  V30 42488 C 2828.38 7.64886 2.9555 0
M  V30 42489 O 2827.99 8.53963 1.90717 0
M  V30 42490 C 2827.5 6.4116 2.90739 0
M  V30 42491 C 2828.21 5.55375 1.86963 0
M  V30 42492 N 2828.16 4.09664 2.15742 0
M  V30 42493 H 2831 7.45574 4.45629 0
M  V30 42494 H 2831.27 5.86232 3.67314 0
M  V30 42495 H 2830.41 7.84412 2.24479 0
M  V30 42496 P 2826.44 8.7635 1.60911 0
M  V30 42497 O 2826.22 10.1388 1.11561 0
M  V30 42498 O 2825.65 8.36503 2.79617 0
M  V30 42499 O 2826.19 7.71806 0.42951 0
M  V30 42500 C 2827.13 7.67148 -0.673689 0
M  V30 42501 C 2826.4 7.33374 -1.95559 0
M  V30 42502 O 2826.19 5.88721 -2.00726 0
M  V30 42503 C 2825 7.92526 -2.10483 0
M  V30 42504 O 2824.61 8.02971 -3.47653 0
M  V30 42505 C 2824.12 6.89602 -1.41652 0
M  V30 42506 C 2824.83 5.59201 -1.75185 0
M  V30 42507 N 2824.78 4.58235 -0.662552 0
M  V30 42508 H 2827.62 8.65116 -0.777161 0
M  V30 42509 H 2827.89 6.90173 -0.474152 0
M  V30 42510 H 2827.03 7.66548 -2.79458 0
M  V30 42511 P 2823.06 8.03563 -3.84925 0
M  V30 42512 O 2822.84 8.85821 -5.0569 0
M  V30 42513 O 2822.27 8.41101 -2.65469 0
M  V30 42514 O 2822.81 6.4965 -4.18908 0
M  V30 42515 C 2823.75 5.80886 -5.05289 0
M  V30 42516 C 2823.02 4.78366 -5.89277 0
M  V30 42517 O 2822.81 3.58302 -5.08433 0
M  V30 42518 C 2821.62 5.16748 -6.36559 0
M  V30 42519 O 2821.23 4.45271 -7.53232 0
M  V30 42520 C 2820.74 4.74572 -5.19863 0
M  V30 42521 C 2821.45 3.49373 -4.70338 0
M  V30 42522 N 2821.4 3.31704 -3.22876 0
M  V30 42523 C 2821.25 2.03326 -2.74871 0
M  V30 42524 O 2821.16 1.06486 -3.48076 0
M  V30 42525 N 2821.21 1.91838 -1.37456 0
M  V30 42526 C 2821.3 2.94295 -0.462035 0
M  V30 42527 C 2821.45 4.25064 -1.05249 0
M  V30 42528 C 2821.5 4.40214 -2.39192 0
M  V30 42529 H 2824.24 6.54063 -5.71245 0
M  V30 42530 H 2824.51 5.30339 -4.43905 0
M  V30 42531 H 2823.65 4.55889 -6.76652 0
M  V30 42532 H 2820.99 2.6167 -5.17842 0
M  V30 42533 H 2820.71 5.52155 -4.41878 0
M  V30 42534 H 2819.72 4.51918 -5.53297 0
M  V30 42535 H 2821.55 6.25055 -6.55162 0
M  V30 42536 H 2821.63 5.39798 -2.81523 0
M  V30 42537 P 2819.68 4.23843 -7.83734 0
M  V30 42538 O 2819.46 4.19407 -9.29784 0
M  V30 42539 O 2818.89 5.24426 -7.09156 0
M  V30 42540 O 2819.43 2.7935 -7.20758 0
M  V30 42541 C 2820.37 1.7299 -7.50419 0
M  V30 42542 C 2819.64 0.406376 -7.57911 0
M  V30 42543 O 2819.43 -0.0897726 -6.21935 0
M  V30 42544 C 2818.24 0.447224 -8.1878 0
M  V30 42545 O 2817.85 -0.825065 -8.71101 0
M  V30 42546 C 2817.36 0.783801 -6.99623 0
M  V30 42547 C 2818.07 0.0619192 -5.85967 0
M  V30 42548 N 2818.02 0.7859 -4.56281 0
M  V30 42549 H 2820.86 1.93423 -8.4679 0
M  V30 42550 H 2821.13 1.68181 -6.71046 0
M  V30 42551 H 2820.27 -0.289041 -8.15388 0
M  V30 42552 P 2816.3 -1.17771 -8.83182 0
M  V30 42553 O 2816.08 -2.07206 -9.98732 0
M  V30 42554 O 2815.51 0.0743816 -8.81969 0
M  V30 42555 O 2816.05 -1.97652 -7.47304 0
M  V30 42556 C 2816.99 -3.01133 -7.08783 0
M  V30 42557 C 2816.26 -4.12613 -6.37049 0
M  V30 42558 O 2816.05 -3.72827 -4.97879 0
M  V30 42559 C 2814.86 -4.45085 -6.88694 0
M  V30 42560 O 2814.47 -5.7877 -6.5624 0
M  V30 42561 C 2813.98 -3.47817 -6.12078 0
M  V30 42562 C 2814.69 -3.39414 -4.77697 0
M  V30 42563 N 2814.64 -2.04615 -4.15333 0
M  V30 42564 H 2817.48 -3.41248 -7.98759 0
M  V30 42565 H 2817.75 -2.5837 -6.41742 0
M  V30 42566 H 2816.89 -5.02657 -6.42673 0
M  V30 42567 P 2812.92 -6.144 -6.45285 0
M  V30 42568 O 2812.7 -7.54673 -6.86199 0
M  V30 42569 O 2812.13 -5.12391 -7.179 0
M  V30 42570 O 2812.67 -5.99158 -4.88404 0
M  V30 42571 C 2813.61 -6.60234 -3.96415 0
M  V30 42572 C 2812.88 -7.08259 -2.72856 0
M  V30 42573 O 2812.67 -5.9427 -1.83651 0
M  V30 42574 C 2811.48 -7.64886 -2.9555 0
M  V30 42575 O 2811.09 -8.53963 -1.90717 0
M  V30 42576 C 2810.6 -6.4116 -2.90739 0
M  V30 42577 C 2811.31 -5.55375 -1.86963 0
M  V30 42578 N 2811.26 -4.09448 -2.16152 0
M  V30 42579 H 2814.1 -7.45574 -4.45629 0
M  V30 42580 H 2814.37 -5.85864 -3.679 0
M  V30 42581 H 2813.51 -7.84412 -2.24479 0
M  V30 42582 H 2810.85 -5.73457 -0.888562 0
M  V30 42583 H 2810.57 -5.90877 -3.88583 0
M  V30 42584 H 2809.58 -6.6596 -2.58858 0
M  V30 42585 H 2811.41 -8.16339 -3.92049 0
M  V30 42586 P 2809.54 -8.7635 -1.60911 0
M  V30 42587 O 2809.32 -10.1388 -1.11561 0
M  V30 42588 O 2808.75 -8.36503 -2.79617 0
M  V30 42589 O 2809.29 -7.71806 -0.42951 0
M  V30 42590 C 2810.23 -7.67148 0.673689 0
M  V30 42591 C 2809.5 -7.33374 1.95559 0
M  V30 42592 O 2809.29 -5.88721 2.00726 0
M  V30 42593 C 2808.1 -7.92526 2.10483 0
M  V30 42594 O 2807.71 -8.02971 3.47653 0
M  V30 42595 C 2807.22 -6.89602 1.41652 0
M  V30 42596 C 2807.93 -5.59201 1.75185 0
M  V30 42597 N 2807.88 -4.58301 0.657969 0
M  V30 42598 H 2810.72 -8.65116 0.777161 0
M  V30 42599 H 2810.99 -6.9022 0.46725 0
M  V30 42600 H 2810.13 -7.66548 2.79458 0
M  V30 42601 H 2807.47 -5.16165 2.65183 0
M  V30 42602 H 2807.19 -7.06433 0.329384 0
M  V30 42603 H 2806.2 -6.90926 1.82021 0
M  V30 42604 H 2808.03 -8.90873 1.62657 0
M  V30 42605 P 2806.16 -8.03563 3.84925 0
M  V30 42606 O 2805.94 -8.85821 5.0569 0
M  V30 42607 O 2805.37 -8.41101 2.65469 0
M  V30 42608 O 2805.91 -6.4965 4.18908 0
M  V30 42609 C 2806.85 -5.81037 5.05421 0
M  V30 42610 C 2806.12 -4.78366 5.89277 0
M  V30 42611 O 2805.91 -3.58302 5.08433 0
M  V30 42612 C 2804.72 -5.17448 6.36119 0
M  V30 42613 O 2804.33 -4.45271 7.53232 0
M  V30 42614 C 2803.84 -4.74639 5.19936 0
M  V30 42615 C 2804.55 -3.49432 4.70418 0
M  V30 42616 N 2804.5 -3.31776 3.22945 0
M  V30 42617 C 2804.58 -4.27147 2.23315 0
M  V30 42618 N 2804.5 -3.78447 1.02186 0
M  V30 42619 C 2804.36 -2.41001 1.21732 0
M  V30 42620 C 2804.23 -1.36111 0.27694 0
M  V30 42621 N 2804.11 -0.113683 0.912949 0
M  V30 42622 C 2804.11 0.0846396 2.27943 0
M  V30 42623 N 2803.98 1.34737 2.6916 0
M  V30 42624 N 2804.24 -0.902521 3.16379 0
M  V30 42625 C 2804.36 -2.11937 2.56849 0
M  V30 42626 H 2807.34 -6.54213 5.71376 0
M  V30 42627 H 2807.61 -5.30492 4.44033 0
M  V30 42628 H 2806.75 -4.55889 6.76652 0
M  V30 42629 P 2802.78 -4.23843 7.83734 0
M  V30 42630 O 2802.56 -4.19407 9.29784 0
M  V30 42631 O 2801.99 -5.24426 7.09156 0
M  V30 42632 O 2802.53 -2.7935 7.20758 0
M  V30 42633 C 2803.47 -1.7299 7.50419 0
M  V30 42634 C 2802.74 -0.406376 7.57911 0
M  V30 42635 O 2802.53 0.0897726 6.21935 0
M  V30 42636 C 2801.34 -0.447224 8.1878 0
M  V30 42637 O 2800.95 0.825065 8.71101 0
M  V30 42638 C 2800.46 -0.783801 6.99623 0
M  V30 42639 C 2801.17 -0.0619192 5.85967 0
M  V30 42640 N 2801.12 -0.7859 4.56281 0
M  V30 42641 H 2803.96 -1.93423 8.4679 0
M  V30 42642 H 2804.23 -1.68181 6.71046 0
M  V30 42643 H 2803.37 0.289041 8.15388 0
M  V30 42644 P 2799.4 1.17771 8.83182 0
M  V30 42645 O 2799.18 2.07206 9.98732 0
M  V30 42646 O 2798.61 -0.0743816 8.81969 0
M  V30 42647 O 2799.15 1.97652 7.47304 0
M  V30 42648 C 2800.09 3.01133 7.08783 0
M  V30 42649 C 2799.36 4.12613 6.37049 0
M  V30 42650 O 2799.15 3.72827 4.97879 0
M  V30 42651 C 2797.96 4.45085 6.88694 0
M  V30 42652 O 2797.57 5.7877 6.5624 0
M  V30 42653 C 2797.08 3.47817 6.12078 0
M  V30 42654 C 2797.79 3.39414 4.77697 0
M  V30 42655 N 2797.74 2.04615 4.15333 0
M  V30 42656 H 2800.58 3.41248 7.98759 0
M  V30 42657 H 2800.85 2.5837 6.41742 0
M  V30 42658 H 2799.99 5.02657 6.42673 0
M  V30 42659 P 2796.02 6.144 6.45285 0
M  V30 42660 O 2795.8 7.54673 6.86199 0
M  V30 42661 O 2795.23 5.12391 7.179 0
M  V30 42662 O 2795.77 5.99158 4.88404 0
M  V30 42663 C 2796.71 6.60234 3.96415 0
M  V30 42664 C 2795.98 7.08259 2.72856 0
M  V30 42665 O 2795.77 5.9427 1.83651 0
M  V30 42666 C 2794.58 7.64886 2.9555 0
M  V30 42667 O 2794.19 8.53963 1.90717 0
M  V30 42668 C 2793.7 6.4116 2.90739 0
M  V30 42669 C 2794.41 5.55375 1.86963 0
M  V30 42670 N 2794.36 4.09448 2.16152 0
M  V30 42671 H 2797.2 7.45574 4.45629 0
M  V30 42672 H 2797.47 5.85864 3.679 0
M  V30 42673 H 2796.61 7.84412 2.24479 0
M  V30 42674 H 2793.95 5.73457 0.888562 0
M  V30 42675 H 2793.67 5.90877 3.88583 0
M  V30 42676 H 2792.68 6.6596 2.58858 0
M  V30 42677 H 2794.51 8.16339 3.92049 0
M  V30 42678 P 2792.64 8.7635 1.60911 0
M  V30 42679 O 2792.42 10.1388 1.11561 0
M  V30 42680 O 2791.85 8.36503 2.79617 0
M  V30 42681 O 2792.39 7.71806 0.42951 0
M  V30 42682 C 2793.33 7.67148 -0.673689 0
M  V30 42683 C 2792.6 7.33374 -1.95559 0
M  V30 42684 O 2792.39 5.88721 -2.00726 0
M  V30 42685 C 2791.2 7.92526 -2.10483 0
M  V30 42686 O 2790.81 8.02971 -3.47653 0
M  V30 42687 C 2790.32 6.89602 -1.41652 0
M  V30 42688 C 2791.03 5.59201 -1.75185 0
M  V30 42689 N 2790.98 4.58235 -0.662552 0
M  V30 42690 H 2793.82 8.65116 -0.777161 0
M  V30 42691 H 2794.09 6.90173 -0.474152 0
M  V30 42692 H 2793.23 7.66548 -2.79458 0
M  V30 42693 P 2789.26 8.03563 -3.84925 0
M  V30 42694 O 2789.04 8.85821 -5.0569 0
M  V30 42695 O 2788.47 8.41101 -2.65469 0
M  V30 42696 O 2789.01 6.4965 -4.18908 0
M  V30 42697 C 2789.95 5.81037 -5.05421 0
M  V30 42698 C 2789.22 4.78366 -5.89277 0
M  V30 42699 O 2789.01 3.58302 -5.08433 0
M  V30 42700 C 2787.82 5.17448 -6.36119 0
M  V30 42701 O 2787.43 4.45271 -7.53232 0
M  V30 42702 C 2786.94 4.74639 -5.19936 0
M  V30 42703 C 2787.65 3.49432 -4.70418 0
M  V30 42704 N 2787.6 3.32099 -3.22613 0
M  V30 42705 C 2787.68 4.28245 -2.25527 0
M  V30 42706 N 2787.61 3.80823 -1.04874 0
M  V30 42707 C 2787.46 2.44571 -1.23535 0
M  V30 42708 C 2787.33 1.37068 -0.330675 0
M  V30 42709 N 2787.32 1.51472 0.990824 0
M  V30 42710 N 2787.21 0.138614 -0.848756 0
M  V30 42711 C 2787.22 -0.00675923 -2.16999 0
M  V30 42712 N 2787.34 0.904372 -3.11122 0
M  V30 42713 C 2787.46 2.12707 -2.56212 0
M  V30 42714 H 2790.44 6.54213 -5.71376 0
M  V30 42715 H 2790.71 5.30936 -4.43503 0
M  V30 42716 H 2789.85 4.55889 -6.76652 0
M  V30 42717 H 2787.19 2.61715 -5.17932 0
M  V30 42718 H 2786.91 5.52155 -4.41878 0
M  V30 42719 H 2785.92 4.51981 -5.53374 0
M  V30 42720 H 2787.75 6.25124 -6.55234 0
M  V30 42721 H 2787.8 5.34372 -2.47488 0
M  V30 42722 H 2787.41 2.45153 1.4078 0
M  V30 42723 H 2787.23 0.688422 1.59911 0
M  V30 42724 H 2787.12 -1.02584 -2.52346 0
M  V30 42725 P 2785.88 4.23843 -7.83734 0
M  V30 42726 O 2785.66 4.19407 -9.29784 0
M  V30 42727 O 2785.09 5.24426 -7.09156 0
M  V30 42728 O 2785.63 2.7935 -7.20758 0
M  V30 42729 C 2786.57 1.7299 -7.50419 0
M  V30 42730 C 2785.84 0.406376 -7.57911 0
M  V30 42731 O 2785.63 -0.0897726 -6.21935 0
M  V30 42732 C 2784.44 0.447224 -8.1878 0
M  V30 42733 O 2784.05 -0.825065 -8.71101 0
M  V30 42734 C 2783.56 0.783801 -6.99623 0
M  V30 42735 C 2784.27 0.0619192 -5.85967 0
M  V30 42736 N 2784.22 0.7859 -4.56281 0
M  V30 42737 H 2787.06 1.93423 -8.4679 0
M  V30 42738 H 2787.33 1.68181 -6.71046 0
M  V30 42739 H 2786.47 -0.289041 -8.15388 0
M  V30 42740 P 2782.5 -1.17771 -8.83182 0
M  V30 42741 O 2782.28 -2.07206 -9.98732 0
M  V30 42742 O 2781.71 0.0743816 -8.81969 0
M  V30 42743 O 2782.25 -1.97652 -7.47304 0
M  V30 42744 C 2783.19 -3.01133 -7.08783 0
M  V30 42745 C 2782.46 -4.12613 -6.37049 0
M  V30 42746 O 2782.25 -3.72827 -4.97879 0
M  V30 42747 C 2781.06 -4.45085 -6.88694 0
M  V30 42748 O 2780.67 -5.7877 -6.5624 0
M  V30 42749 C 2780.18 -3.47817 -6.12078 0
M  V30 42750 C 2780.89 -3.39414 -4.77697 0
M  V30 42751 N 2780.84 -2.04199 -4.15538 0
M  V30 42752 H 2783.68 -3.41248 -7.98759 0
M  V30 42753 H 2783.95 -2.57728 -6.42 0
M  V30 42754 H 2783.09 -5.02657 -6.42673 0
M  V30 42755 H 2780.43 -4.11708 -4.08956 0
M  V30 42756 H 2780.15 -2.49626 -6.61679 0
M  V30 42757 H 2779.16 -3.8662 -6.00862 0
M  V30 42758 H 2780.99 -4.29991 -7.97006 0
M  V30 42759 P 2779.12 -6.144 -6.45285 0
M  V30 42760 O 2778.9 -7.54673 -6.86199 0
M  V30 42761 O 2778.33 -5.12391 -7.179 0
M  V30 42762 O 2778.87 -5.99158 -4.88404 0
M  V30 42763 C 2779.81 -6.60234 -3.96415 0
M  V30 42764 C 2779.08 -7.08259 -2.72856 0
M  V30 42765 O 2778.87 -5.9427 -1.83651 0
M  V30 42766 C 2777.68 -7.64886 -2.9555 0
M  V30 42767 O 2777.29 -8.53963 -1.90717 0
M  V30 42768 C 2776.8 -6.4116 -2.90739 0
M  V30 42769 C 2777.51 -5.55375 -1.86963 0
M  V30 42770 N 2777.46 -4.09448 -2.16152 0
M  V30 42771 H 2780.3 -7.45574 -4.45629 0
M  V30 42772 H 2780.57 -5.85864 -3.679 0
M  V30 42773 H 2779.71 -7.84412 -2.24479 0
M  V30 42774 H 2777.05 -5.73457 -0.888562 0
M  V30 42775 H 2776.77 -5.90877 -3.88583 0
M  V30 42776 H 2775.78 -6.6596 -2.58858 0
M  V30 42777 H 2777.61 -8.16339 -3.92049 0
M  V30 42778 P 2775.74 -8.7635 -1.60911 0
M  V30 42779 O 2775.52 -10.1388 -1.11561 0
M  V30 42780 O 2774.95 -8.36503 -2.79617 0
M  V30 42781 O 2775.49 -7.71806 -0.42951 0
M  V30 42782 C 2776.43 -7.67148 0.673689 0
M  V30 42783 C 2775.7 -7.33374 1.95559 0
M  V30 42784 O 2775.49 -5.88721 2.00726 0
M  V30 42785 C 2774.3 -7.92526 2.10483 0
M  V30 42786 O 2773.91 -8.02971 3.47653 0
M  V30 42787 C 2773.42 -6.89602 1.41652 0
M  V30 42788 C 2774.13 -5.59201 1.75185 0
M  V30 42789 N 2774.08 -4.58301 0.657969 0
M  V30 42790 H 2776.92 -8.65116 0.777161 0
M  V30 42791 H 2777.19 -6.9022 0.46725 0
M  V30 42792 H 2776.33 -7.66548 2.79458 0
M  V30 42793 H 2773.67 -5.16165 2.65183 0
M  V30 42794 H 2773.39 -7.06433 0.329384 0
M  V30 42795 H 2772.4 -6.90926 1.82021 0
M  V30 42796 H 2774.23 -8.90873 1.62657 0
M  V30 42797 P 2772.36 -8.03563 3.84925 0
M  V30 42798 O 2772.14 -8.85821 5.0569 0
M  V30 42799 O 2771.57 -8.41101 2.65469 0
M  V30 42800 O 2772.11 -6.4965 4.18908 0
M  V30 42801 C 2773.05 -5.81037 5.05421 0
M  V30 42802 C 2772.32 -4.78366 5.89277 0
M  V30 42803 O 2772.11 -3.58302 5.08433 0
M  V30 42804 C 2770.92 -5.17448 6.36119 0
M  V30 42805 O 2770.53 -4.45271 7.53232 0
M  V30 42806 C 2770.04 -4.74639 5.19936 0
M  V30 42807 C 2770.75 -3.49432 4.70418 0
M  V30 42808 N 2770.7 -3.31776 3.22945 0
M  V30 42809 H 2773.54 -6.54213 5.71376 0
M  V30 42810 H 2773.81 -5.30492 4.44033 0
M  V30 42811 H 2772.95 -4.55889 6.76652 0
M  V30 42812 P 2768.98 -4.23843 7.83734 0
M  V30 42813 O 2768.76 -4.19407 9.29784 0
M  V30 42814 O 2768.19 -5.24426 7.09156 0
M  V30 42815 O 2768.73 -2.7935 7.20758 0
M  V30 42816 C 2769.67 -1.7299 7.50419 0
M  V30 42817 C 2768.94 -0.406376 7.57911 0
M  V30 42818 O 2768.73 0.0897726 6.21935 0
M  V30 42819 C 2767.54 -0.447224 8.1878 0
M  V30 42820 O 2767.15 0.825065 8.71101 0
M  V30 42821 C 2766.66 -0.783801 6.99623 0
M  V30 42822 C 2767.37 -0.0619192 5.85967 0
M  V30 42823 N 2767.32 -0.7859 4.56281 0
M  V30 42824 H 2770.16 -1.93423 8.4679 0
M  V30 42825 H 2770.43 -1.68181 6.71046 0
M  V30 42826 H 2769.57 0.289041 8.15388 0
M  V30 42827 P 2765.6 1.17771 8.83182 0
M  V30 42828 O 2765.38 2.07206 9.98732 0
M  V30 42829 O 2764.81 -0.0743816 8.81969 0
M  V30 42830 O 2765.35 1.97652 7.47304 0
M  V30 42831 C 2766.29 3.01133 7.08783 0
M  V30 42832 C 2765.56 4.12613 6.37049 0
M  V30 42833 O 2765.35 3.72827 4.97879 0
M  V30 42834 C 2764.16 4.45085 6.88694 0
M  V30 42835 O 2763.77 5.7877 6.5624 0
M  V30 42836 C 2763.28 3.47817 6.12078 0
M  V30 42837 C 2763.99 3.39414 4.77697 0
M  V30 42838 N 2763.94 2.04615 4.15333 0
M  V30 42839 H 2766.78 3.41248 7.98759 0
M  V30 42840 H 2767.05 2.5837 6.41742 0
M  V30 42841 H 2766.19 5.02657 6.42673 0
M  V30 42842 P 2762.22 6.144 6.45285 0
M  V30 42843 O 2762 7.54673 6.86199 0
M  V30 42844 O 2761.43 5.12391 7.179 0
M  V30 42845 O 2761.97 5.99158 4.88404 0
M  V30 42846 C 2762.91 6.60234 3.96415 0
M  V30 42847 C 2762.18 7.08259 2.72856 0
M  V30 42848 O 2761.97 5.9427 1.83651 0
M  V30 42849 C 2760.78 7.64886 2.9555 0
M  V30 42850 O 2760.39 8.53963 1.90717 0
M  V30 42851 C 2759.9 6.4116 2.90739 0
M  V30 42852 C 2760.61 5.55375 1.86963 0
M  V30 42853 N 2760.56 4.09664 2.15742 0
M  V30 42854 H 2763.4 7.45574 4.45629 0
M  V30 42855 H 2763.67 5.86232 3.67314 0
M  V30 42856 H 2762.81 7.84412 2.24479 0
M  V30 42857 P 2758.84 8.7635 1.60911 0
M  V30 42858 O 2758.62 10.1388 1.11561 0
M  V30 42859 O 2758.05 8.36503 2.79617 0
M  V30 42860 O 2758.59 7.71806 0.42951 0
M  V30 42861 C 2759.53 7.67148 -0.673689 0
M  V30 42862 C 2758.8 7.33374 -1.95559 0
M  V30 42863 O 2758.59 5.88721 -2.00726 0
M  V30 42864 C 2757.4 7.92526 -2.10483 0
M  V30 42865 O 2757.01 8.02971 -3.47653 0
M  V30 42866 C 2756.52 6.89602 -1.41652 0
M  V30 42867 C 2757.23 5.59201 -1.75185 0
M  V30 42868 N 2757.18 4.58235 -0.662552 0
M  V30 42869 H 2760.02 8.65116 -0.777161 0
M  V30 42870 H 2760.29 6.90173 -0.474152 0
M  V30 42871 H 2759.43 7.66548 -2.79458 0
M  V30 42872 P 2755.46 8.03563 -3.84925 0
M  V30 42873 O 2755.24 8.85821 -5.0569 0
M  V30 42874 O 2754.67 8.41101 -2.65469 0
M  V30 42875 O 2755.21 6.4965 -4.18908 0
M  V30 42876 C 2756.15 5.80886 -5.05289 0
M  V30 42877 C 2755.42 4.78366 -5.89277 0
M  V30 42878 O 2755.21 3.58302 -5.08433 0
M  V30 42879 C 2754.02 5.16748 -6.36559 0
M  V30 42880 O 2753.63 4.45271 -7.53232 0
M  V30 42881 C 2753.14 4.74572 -5.19863 0
M  V30 42882 C 2753.85 3.49373 -4.70338 0
M  V30 42883 N 2753.8 3.31704 -3.22876 0
M  V30 42884 C 2753.65 2.03326 -2.74871 0
M  V30 42885 O 2753.56 1.06486 -3.48076 0
M  V30 42886 N 2753.61 1.91838 -1.37456 0
M  V30 42887 C 2753.7 2.94295 -0.462035 0
M  V30 42888 C 2753.85 4.25064 -1.05249 0
M  V30 42889 C 2753.9 4.40214 -2.39192 0
M  V30 42890 H 2756.64 6.54063 -5.71245 0
M  V30 42891 H 2756.91 5.30339 -4.43905 0
M  V30 42892 H 2756.05 4.55889 -6.76652 0
M  V30 42893 H 2753.39 2.6167 -5.17842 0
M  V30 42894 H 2753.11 5.52155 -4.41878 0
M  V30 42895 H 2752.12 4.51918 -5.53297 0
M  V30 42896 H 2753.95 6.25055 -6.55162 0
M  V30 42897 H 2754.03 5.39798 -2.81523 0
M  V30 42898 P 2752.08 4.23843 -7.83734 0
M  V30 42899 O 2751.86 4.19407 -9.29784 0
M  V30 42900 O 2751.29 5.24426 -7.09156 0
M  V30 42901 O 2751.83 2.7935 -7.20758 0
M  V30 42902 C 2752.77 1.72945 -7.50224 0
M  V30 42903 C 2752.04 0.406376 -7.57911 0
M  V30 42904 O 2751.83 -0.0897726 -6.21935 0
M  V30 42905 C 2750.64 0.438983 -8.18724 0
M  V30 42906 O 2750.25 -0.825065 -8.71101 0
M  V30 42907 C 2749.76 0.783689 -6.99524 0
M  V30 42908 C 2750.47 0.0619086 -5.85867 0
M  V30 42909 N 2750.42 0.78573 -4.56183 0
M  V30 42910 C 2750.27 0.0292889 -3.41887 0
M  V30 42911 O 2750.18 -1.18445 -3.4419 0
M  V30 42912 N 2750.23 0.744061 -2.23964 0
M  V30 42913 C 2750.32 2.10932 -2.10362 0
M  V30 42914 O 2750.27 2.64117 -0.98825 0
M  V30 42915 C 2750.47 2.8202 -3.34994 0
M  V30 42916 C 2750.58 4.31095 -3.25037 0
M  V30 42917 C 2750.52 2.15547 -4.52261 0
M  V30 42918 H 2753.26 1.93379 -8.46595 0
M  V30 42919 H 2753.53 1.68132 -6.70852 0
M  V30 42920 H 2752.67 -0.289041 -8.15388 0
M  V30 42921 H 2750.01 -0.926847 -5.72749 0
M  V30 42922 H 2749.73 1.86973 -6.82036 0
M  V30 42923 H 2748.74 0.403896 -7.13257 0
M  V30 42924 H 2750.57 1.20585 -8.97435 0
M  V30 42925 H 2750.65 2.71231 -5.45042 0
M  V30 42926 H 2749.62 4.76966 -3.49992 0
M  V30 42927 H 2751.35 4.67047 -3.95024 0
M  V30 42928 H 2750.86 4.58996 -2.22312 0
M  V30 42929 H 2750.13 0.214893 -1.39758 0
M  V30 42930 P 2748.7 -1.17771 -8.83182 0
M  V30 42931 O 2748.48 -2.07206 -9.98732 0
M  V30 42932 O 2747.91 0.0743816 -8.81969 0
M  V30 42933 O 2748.45 -1.97652 -7.47304 0
M  V30 42934 C 2749.39 -3.01133 -7.08783 0
M  V30 42935 C 2748.66 -4.12613 -6.37049 0
M  V30 42936 O 2748.45 -3.72827 -4.97879 0
M  V30 42937 C 2747.26 -4.45085 -6.88694 0
M  V30 42938 O 2746.87 -5.7877 -6.5624 0
M  V30 42939 C 2746.38 -3.47817 -6.12078 0
M  V30 42940 C 2747.09 -3.39414 -4.77697 0
M  V30 42941 N 2747.04 -2.04615 -4.15333 0
M  V30 42942 H 2749.88 -3.41248 -7.98759 0
M  V30 42943 H 2750.15 -2.5837 -6.41742 0
M  V30 42944 H 2749.29 -5.02657 -6.42673 0
M  V30 42945 P 2745.32 -6.144 -6.45285 0
M  V30 42946 O 2745.1 -7.54673 -6.86199 0
M  V30 42947 O 2744.53 -5.12391 -7.179 0
M  V30 42948 O 2745.07 -5.99158 -4.88404 0
M  V30 42949 C 2746.01 -6.60234 -3.96415 0
M  V30 42950 C 2745.28 -7.08259 -2.72856 0
M  V30 42951 O 2745.07 -5.9427 -1.83651 0
M  V30 42952 C 2743.88 -7.64886 -2.9555 0
M  V30 42953 O 2743.49 -8.53963 -1.90717 0
M  V30 42954 C 2743 -6.4116 -2.90739 0
M  V30 42955 C 2743.71 -5.55375 -1.86963 0
M  V30 42956 N 2743.66 -4.09448 -2.16152 0
M  V30 42957 H 2746.5 -7.45574 -4.45629 0
M  V30 42958 H 2746.77 -5.85864 -3.679 0
M  V30 42959 H 2745.91 -7.84412 -2.24479 0
M  V30 42960 H 2743.25 -5.73457 -0.888562 0
M  V30 42961 H 2742.97 -5.90877 -3.88583 0
M  V30 42962 H 2741.98 -6.6596 -2.58858 0
M  V30 42963 H 2743.81 -8.16339 -3.92049 0
M  V30 42964 P 2741.94 -8.7635 -1.60911 0
M  V30 42965 O 2741.72 -10.1388 -1.11561 0
M  V30 42966 O 2741.15 -8.36503 -2.79617 0
M  V30 42967 O 2741.69 -7.71806 -0.42951 0
M  V30 42968 C 2742.63 -7.67148 0.673689 0
M  V30 42969 C 2741.9 -7.33374 1.95559 0
M  V30 42970 O 2741.69 -5.88721 2.00726 0
M  V30 42971 C 2740.5 -7.92526 2.10483 0
M  V30 42972 O 2740.11 -8.02971 3.47653 0
M  V30 42973 C 2739.62 -6.89602 1.41652 0
M  V30 42974 C 2740.33 -5.59201 1.75185 0
M  V30 42975 N 2740.28 -4.58301 0.657969 0
M  V30 42976 H 2743.12 -8.65116 0.777161 0
M  V30 42977 H 2743.39 -6.9022 0.46725 0
M  V30 42978 H 2742.53 -7.66548 2.79458 0
M  V30 42979 H 2739.87 -5.16165 2.65183 0
M  V30 42980 H 2739.59 -7.06433 0.329384 0
M  V30 42981 H 2738.6 -6.90926 1.82021 0
M  V30 42982 H 2740.43 -8.90873 1.62657 0
M  V30 42983 P 2738.56 -8.03563 3.84925 0
M  V30 42984 O 2738.34 -8.85821 5.0569 0
M  V30 42985 O 2737.77 -8.41101 2.65469 0
M  V30 42986 O 2738.31 -6.4965 4.18908 0
M  V30 42987 C 2739.25 -5.81037 5.05421 0
M  V30 42988 C 2738.52 -4.78366 5.89277 0
M  V30 42989 O 2738.31 -3.58302 5.08433 0
M  V30 42990 C 2737.12 -5.17448 6.36119 0
M  V30 42991 O 2736.73 -4.45271 7.53232 0
M  V30 42992 C 2736.24 -4.74639 5.19936 0
M  V30 42993 C 2736.95 -3.49432 4.70418 0
M  V30 42994 N 2736.9 -3.31776 3.22945 0
M  V30 42995 H 2739.74 -6.54213 5.71376 0
M  V30 42996 H 2740.01 -5.30492 4.44033 0
M  V30 42997 H 2739.15 -4.55889 6.76652 0
M  V30 42998 P 2735.18 -4.23843 7.83734 0
M  V30 42999 O 2734.96 -4.19407 9.29784 0
M  V30 43000 O 2734.39 -5.24426 7.09156 0
M  V30 43001 O 2734.93 -2.7935 7.20758 0
M  V30 43002 C 2735.87 -1.7299 7.50419 0
M  V30 43003 C 2735.14 -0.406376 7.57911 0
M  V30 43004 O 2734.93 0.0897726 6.21935 0
M  V30 43005 C 2733.74 -0.447224 8.1878 0
M  V30 43006 O 2733.35 0.825065 8.71101 0
M  V30 43007 C 2732.86 -0.783801 6.99623 0
M  V30 43008 C 2733.57 -0.0619192 5.85967 0
M  V30 43009 N 2733.52 -0.7859 4.56281 0
M  V30 43010 H 2736.36 -1.93423 8.4679 0
M  V30 43011 H 2736.63 -1.68181 6.71046 0
M  V30 43012 H 2735.77 0.289041 8.15388 0
M  V30 43013 P 2731.8 1.17771 8.83182 0
M  V30 43014 O 2731.58 2.07206 9.98732 0
M  V30 43015 O 2731.01 -0.0743816 8.81969 0
M  V30 43016 O 2731.55 1.97652 7.47304 0
M  V30 43017 C 2732.49 3.01133 7.08783 0
M  V30 43018 C 2731.76 4.12613 6.37049 0
M  V30 43019 O 2731.55 3.72827 4.97879 0
M  V30 43020 C 2730.36 4.45085 6.88694 0
M  V30 43021 O 2729.97 5.7877 6.5624 0
M  V30 43022 C 2729.48 3.47817 6.12078 0
M  V30 43023 C 2730.19 3.39414 4.77697 0
M  V30 43024 N 2730.14 2.04199 4.15538 0
M  V30 43025 C 2730.22 0.821545 4.76977 0
M  V30 43026 N 2730.15 -0.1794 3.94592 0
M  V30 43027 C 2730 0.419121 2.70776 0
M  V30 43028 C 2729.87 -0.109072 1.40577 0
M  V30 43029 N 2729.86 -1.4104 1.1344 0
M  V30 43030 N 2729.75 0.764381 0.39411 0
M  V30 43031 C 2729.76 2.06587 0.664135 0
M  V30 43032 N 2729.88 2.67948 1.82153 0
M  V30 43033 C 2730 1.77942 2.8147 0
M  V30 43034 H 2732.98 3.41248 7.98759 0
M  V30 43035 H 2733.25 2.57728 6.42 0
M  V30 43036 H 2732.39 5.02657 6.42673 0
M  V30 43037 H 2729.73 4.11708 4.08956 0
M  V30 43038 H 2729.45 2.49626 6.61679 0
M  V30 43039 H 2728.46 3.8662 6.00862 0
M  V30 43040 H 2730.29 4.29991 7.97006 0
M  V30 43041 H 2730.34 0.702451 5.84696 0
M  V30 43042 H 2729.95 -2.09647 1.89651 0
M  V30 43043 H 2729.77 -1.73358 0.160575 0
M  V30 43044 H 2729.66 2.71695 -0.195838 0
M  V30 43045 P 2728.42 6.144 6.45285 0
M  V30 43046 O 2728.2 7.54673 6.86199 0
M  V30 43047 O 2727.63 5.12391 7.179 0
M  V30 43048 O 2728.17 5.99158 4.88404 0
M  V30 43049 C 2729.11 6.60234 3.96415 0
M  V30 43050 C 2728.38 7.08259 2.72856 0
M  V30 43051 O 2728.17 5.9427 1.83651 0
M  V30 43052 C 2726.98 7.64886 2.9555 0
M  V30 43053 O 2726.59 8.53963 1.90717 0
M  V30 43054 C 2726.1 6.4116 2.90739 0
M  V30 43055 C 2726.81 5.55375 1.86963 0
M  V30 43056 N 2726.76 4.09664 2.15742 0
M  V30 43057 H 2729.6 7.45574 4.45629 0
M  V30 43058 H 2729.87 5.86232 3.67314 0
M  V30 43059 H 2729.01 7.84412 2.24479 0
M  V30 43060 P 2725.04 8.7635 1.60911 0
M  V30 43061 O 2724.82 10.1388 1.11561 0
M  V30 43062 O 2724.25 8.36503 2.79617 0
M  V30 43063 O 2724.79 7.71806 0.42951 0
M  V30 43064 C 2725.73 7.67148 -0.673689 0
M  V30 43065 C 2725 7.33374 -1.95559 0
M  V30 43066 O 2724.79 5.88721 -2.00726 0
M  V30 43067 C 2723.6 7.92526 -2.10483 0
M  V30 43068 O 2723.21 8.02971 -3.47653 0
M  V30 43069 C 2722.72 6.89602 -1.41652 0
M  V30 43070 C 2723.43 5.59201 -1.75185 0
M  V30 43071 N 2723.38 4.58235 -0.662552 0
M  V30 43072 H 2726.22 8.65116 -0.777161 0
M  V30 43073 H 2726.49 6.90173 -0.474152 0
M  V30 43074 H 2725.63 7.66548 -2.79458 0
M  V30 43075 P 2721.66 8.03563 -3.84925 0
M  V30 43076 O 2721.44 8.85821 -5.0569 0
M  V30 43077 O 2720.87 8.41101 -2.65469 0
M  V30 43078 O 2721.41 6.4965 -4.18908 0
M  V30 43079 C 2722.35 5.81037 -5.05421 0
M  V30 43080 C 2721.62 4.78366 -5.89277 0
M  V30 43081 O 2721.41 3.58302 -5.08433 0
M  V30 43082 C 2720.22 5.17448 -6.36119 0
M  V30 43083 O 2719.83 4.45271 -7.53232 0
M  V30 43084 C 2719.34 4.74639 -5.19936 0
M  V30 43085 C 2720.05 3.49432 -4.70418 0
M  V30 43086 N 2720 3.31776 -3.22945 0
M  V30 43087 C 2720.08 4.27147 -2.23315 0
M  V30 43088 N 2720 3.78447 -1.02186 0
M  V30 43089 C 2719.86 2.41001 -1.21732 0
M  V30 43090 C 2719.73 1.36111 -0.27694 0
M  V30 43091 N 2719.61 0.113683 -0.912949 0
M  V30 43092 C 2719.61 -0.0846396 -2.27943 0
M  V30 43093 N 2719.48 -1.34737 -2.6916 0
M  V30 43094 N 2719.74 0.902521 -3.16379 0
M  V30 43095 C 2719.86 2.11937 -2.56849 0
M  V30 43096 H 2722.84 6.54213 -5.71376 0
M  V30 43097 H 2723.11 5.30492 -4.44033 0
M  V30 43098 H 2722.25 4.55889 -6.76652 0
M  V30 43099 P 2718.28 4.23843 -7.83734 0
M  V30 43100 O 2718.06 4.19407 -9.29784 0
M  V30 43101 O 2717.49 5.24426 -7.09156 0
M  V30 43102 O 2718.03 2.7935 -7.20758 0
M  V30 43103 C 2718.97 1.72945 -7.50224 0
M  V30 43104 C 2718.24 0.406376 -7.57911 0
M  V30 43105 O 2718.03 -0.0897726 -6.21935 0
M  V30 43106 C 2716.84 0.438983 -8.18724 0
M  V30 43107 O 2716.45 -0.825065 -8.71101 0
M  V30 43108 C 2715.96 0.783689 -6.99524 0
M  V30 43109 C 2716.67 0.0619086 -5.85867 0
M  V30 43110 N 2716.62 0.78573 -4.56183 0
M  V30 43111 C 2716.47 0.0292889 -3.41887 0
M  V30 43112 O 2716.38 -1.18445 -3.4419 0
M  V30 43113 N 2716.43 0.744061 -2.23964 0
M  V30 43114 C 2716.52 2.10932 -2.10362 0
M  V30 43115 C 2716.67 2.8202 -3.34994 0
M  V30 43116 C 2716.72 2.15547 -4.52261 0
M  V30 43117 H 2719.46 1.93379 -8.46595 0
M  V30 43118 H 2719.73 1.68132 -6.70852 0
M  V30 43119 H 2718.87 -0.289041 -8.15388 0
M  V30 43120 H 2716.21 -0.926847 -5.72749 0
M  V30 43121 H 2715.93 1.86973 -6.82036 0
M  V30 43122 H 2714.94 0.403896 -7.13257 0
M  V30 43123 H 2716.77 1.20585 -8.97435 0
M  V30 43124 H 2716.85 2.71231 -5.45042 0
M  V30 43125 P 2714.9 -1.17771 -8.83182 0
M  V30 43126 O 2714.68 -2.07206 -9.98732 0
M  V30 43127 O 2714.11 0.0743816 -8.81969 0
M  V30 43128 O 2714.65 -1.97652 -7.47304 0
M  V30 43129 C 2715.59 -3.01133 -7.08783 0
M  V30 43130 C 2714.86 -4.12613 -6.37049 0
M  V30 43131 O 2714.65 -3.72827 -4.97879 0
M  V30 43132 C 2713.46 -4.45085 -6.88694 0
M  V30 43133 O 2713.07 -5.7877 -6.5624 0
M  V30 43134 C 2712.58 -3.47817 -6.12078 0
M  V30 43135 C 2713.29 -3.39414 -4.77697 0
M  V30 43136 N 2713.24 -2.04615 -4.15333 0
M  V30 43137 H 2716.08 -3.41248 -7.98759 0
M  V30 43138 H 2716.35 -2.5837 -6.41742 0
M  V30 43139 H 2715.49 -5.02657 -6.42673 0
M  V30 43140 P 2711.52 -6.144 -6.45285 0
M  V30 43141 O 2711.3 -7.54673 -6.86199 0
M  V30 43142 O 2710.73 -5.12391 -7.179 0
M  V30 43143 O 2711.27 -5.99158 -4.88404 0
M  V30 43144 C 2712.21 -6.60234 -3.96415 0
M  V30 43145 C 2711.48 -7.08259 -2.72856 0
M  V30 43146 O 2711.27 -5.9427 -1.83651 0
M  V30 43147 C 2710.08 -7.64886 -2.9555 0
M  V30 43148 O 2709.69 -8.53963 -1.90717 0
M  V30 43149 C 2709.2 -6.4116 -2.90739 0
M  V30 43150 C 2709.91 -5.55375 -1.86963 0
M  V30 43151 N 2709.86 -4.09448 -2.16152 0
M  V30 43152 H 2712.7 -7.45574 -4.45629 0
M  V30 43153 H 2712.97 -5.85864 -3.679 0
M  V30 43154 H 2712.11 -7.84412 -2.24479 0
M  V30 43155 H 2709.45 -5.73457 -0.888562 0
M  V30 43156 H 2709.17 -5.90877 -3.88583 0
M  V30 43157 H 2708.18 -6.6596 -2.58858 0
M  V30 43158 H 2710.01 -8.16339 -3.92049 0
M  V30 43159 P 2708.14 -8.7635 -1.60911 0
M  V30 43160 O 2707.92 -10.1388 -1.11561 0
M  V30 43161 O 2707.35 -8.36503 -2.79617 0
M  V30 43162 O 2707.89 -7.71806 -0.42951 0
M  V30 43163 C 2708.83 -7.66948 0.673514 0
M  V30 43164 C 2708.1 -7.33374 1.95559 0
M  V30 43165 O 2707.89 -5.88721 2.00726 0
M  V30 43166 C 2706.7 -7.92218 2.1125 0
M  V30 43167 O 2706.31 -8.02971 3.47653 0
M  V30 43168 C 2705.82 -6.89504 1.41631 0
M  V30 43169 C 2706.53 -5.59106 1.75155 0
M  V30 43170 N 2706.48 -4.58136 0.662409 0
M  V30 43171 C 2706.33 -3.26059 1.02863 0
M  V30 43172 O 2706.24 -2.90743 2.19009 0
M  V30 43173 N 2706.29 -2.35995 -0.0155585 0
M  V30 43174 C 2706.38 -2.65248 -1.35603 0
M  V30 43175 O 2706.33 -1.75605 -2.20651 0
M  V30 43176 C 2706.53 -4.05747 -1.64698 0
M  V30 43177 C 2706.64 -4.42345 -3.09553 0
M  V30 43178 C 2706.58 -4.96734 -0.652411 0
M  V30 43179 H 2709.33 -8.64917 0.776982 0
M  V30 43180 H 2709.59 -6.89974 0.474015 0
M  V30 43181 H 2708.73 -7.66548 2.79458 0
M  V30 43182 H 2706.07 -5.16076 2.65138 0
M  V30 43183 H 2705.79 -7.06433 0.329384 0
M  V30 43184 H 2704.8 -6.90829 1.81996 0
M  V30 43185 H 2706.64 -8.90774 1.62639 0
M  V30 43186 H 2706.71 -6.02181 -0.895285 0
M  V30 43187 H 2705.68 -4.80252 -3.45468 0
M  V30 43188 H 2707.41 -5.20015 -3.22119 0
M  V30 43189 H 2706.93 -3.53269 -3.67833 0
M  V30 43190 H 2706.19 -1.39558 0.227499 0
M  V30 43191 P 2704.76 -8.03563 3.84925 0
M  V30 43192 O 2704.54 -8.85821 5.0569 0
M  V30 43193 O 2703.97 -8.41101 2.65469 0
M  V30 43194 O 2704.51 -6.4965 4.18908 0
M  V30 43195 C 2705.45 -5.81037 5.05421 0
M  V30 43196 C 2704.72 -4.78366 5.89277 0
M  V30 43197 O 2704.51 -3.58302 5.08433 0
M  V30 43198 C 2703.32 -5.17448 6.36119 0
M  V30 43199 O 2702.93 -4.45271 7.53232 0
M  V30 43200 C 2702.44 -4.74639 5.19936 0
M  V30 43201 C 2703.15 -3.49432 4.70418 0
M  V30 43202 N 2703.1 -3.32099 3.22613 0
M  V30 43203 H 2705.94 -6.54213 5.71376 0
M  V30 43204 H 2706.22 -5.30936 4.43503 0
M  V30 43205 H 2705.35 -4.55889 6.76652 0
M  V30 43206 H 2702.69 -2.61715 5.17932 0
M  V30 43207 H 2702.41 -5.52155 4.41878 0
M  V30 43208 H 2701.42 -4.51981 5.53374 0
M  V30 43209 H 2703.26 -6.25124 6.55234 0
M  V30 43210 P 2701.38 -4.23843 7.83734 0
M  V30 43211 O 2701.16 -4.19407 9.29784 0
M  V30 43212 O 2700.59 -5.24426 7.09156 0
M  V30 43213 O 2701.13 -2.7935 7.20758 0
M  V30 43214 C 2702.07 -1.7299 7.50419 0
M  V30 43215 C 2701.34 -0.406376 7.57911 0
M  V30 43216 O 2701.13 0.0897726 6.21935 0
M  V30 43217 C 2699.94 -0.447224 8.1878 0
M  V30 43218 O 2699.55 0.825065 8.71101 0
M  V30 43219 C 2699.06 -0.783801 6.99623 0
M  V30 43220 C 2699.77 -0.0619192 5.85967 0
M  V30 43221 N 2699.72 -0.790462 4.56202 0
M  V30 43222 H 2702.56 -1.93423 8.4679 0
M  V30 43223 H 2702.84 -1.68852 6.70877 0
M  V30 43224 H 2701.97 0.289041 8.15388 0
M  V30 43225 H 2699.31 0.927006 5.72848 0
M  V30 43226 H 2699.03 -1.86973 6.82036 0
M  V30 43227 H 2698.04 -0.403953 7.13357 0
M  V30 43228 H 2699.88 -1.20599 8.97534 0
M  V30 43229 P 2698 1.17771 8.83182 0
M  V30 43230 O 2697.78 2.07206 9.98732 0
M  V30 43231 O 2697.21 -0.0743816 8.81969 0
M  V30 43232 O 2697.75 1.97652 7.47304 0
M  V30 43233 C 2698.69 3.01133 7.08783 0
M  V30 43234 C 2697.96 4.12613 6.37049 0
M  V30 43235 O 2697.75 3.72827 4.97879 0
M  V30 43236 C 2696.56 4.45085 6.88694 0
M  V30 43237 O 2696.17 5.7877 6.5624 0
M  V30 43238 C 2695.68 3.47817 6.12078 0
M  V30 43239 C 2696.39 3.39414 4.77697 0
M  V30 43240 N 2696.34 2.04199 4.15538 0
M  V30 43241 H 2699.18 3.41248 7.98759 0
M  V30 43242 H 2699.46 2.57728 6.42 0
M  V30 43243 H 2698.59 5.02657 6.42673 0
M  V30 43244 H 2695.93 4.11708 4.08956 0
M  V30 43245 H 2695.65 2.49626 6.61679 0
M  V30 43246 H 2694.66 3.8662 6.00862 0
M  V30 43247 H 2696.5 4.29991 7.97006 0
M  V30 43248 P 2694.62 6.144 6.45285 0
M  V30 43249 O 2694.4 7.54673 6.86199 0
M  V30 43250 O 2693.83 5.12391 7.179 0
M  V30 43251 O 2694.37 5.99236 4.88467 0
M  V30 43252 C 2695.31 6.60234 3.96415 0
M  V30 43253 C 2694.58 7.08079 2.736 0
M  V30 43254 O 2694.37 5.94365 1.8368 0
M  V30 43255 C 2693.18 7.64886 2.9555 0
M  V30 43256 O 2692.79 8.5406 1.90739 0
M  V30 43257 C 2692.3 6.4116 2.90739 0
M  V30 43258 C 2693.01 5.55375 1.86963 0
M  V30 43259 N 2692.96 4.09664 2.15742 0
M  V30 43260 C 2692.81 3.22231 1.08477 0
M  V30 43261 O 2692.72 3.68951 -0.0600489 0
M  V30 43262 N 2692.76 1.76692 1.48799 0
M  V30 43263 C 2692.86 1.41695 2.57602 0
M  V30 43264 N 2692.81 0.107296 2.75791 0
M  V30 43265 C 2693.01 2.29178 3.69733 0
M  V30 43266 C 2693.06 3.62753 3.42653 0
M  V30 43267 H 2695.8 7.45488 4.45578 0
M  V30 43268 H 2696.07 5.86232 3.67314 0
M  V30 43269 H 2695.21 7.84508 2.24507 0
M  V30 43270 H 2692.55 5.73556 0.888715 0
M  V30 43271 H 2692.27 5.9096 3.88638 0
M  V30 43272 H 2691.28 6.66053 2.58894 0
M  V30 43273 H 2693.12 8.16339 3.92049 0
M  V30 43274 H 2693.19 4.33052 4.24913 0
M  V30 43275 H 2693.09 1.9103 4.71577 0
M  V30 43276 H 2692.7 -0.521221 1.95056 0
M  V30 43277 H 2692.89 -0.286429 3.70695 0
M  V30 43278 P 2691.24 8.7635 1.60911 0
M  V30 43279 O 2691.02 10.1388 1.11561 0
M  V30 43280 O 2690.45 8.36503 2.79617 0
M  V30 43281 O 2690.99 7.71906 0.429565 0
M  V30 43282 C 2691.93 7.67148 -0.673689 0
M  V30 43283 C 2691.2 7.33666 -1.94851 0
M  V30 43284 O 2690.99 5.88816 -2.00759 0
M  V30 43285 C 2689.8 7.92526 -2.10483 0
M  V30 43286 O 2689.41 8.03063 -3.47693 0
M  V30 43287 C 2688.92 6.89602 -1.41652 0
M  V30 43288 C 2689.63 5.59201 -1.75185 0
M  V30 43289 N 2689.58 4.58235 -0.662552 0
M  V30 43290 C 2689.43 3.24451 -1.01643 0
M  V30 43291 O 2689.34 2.94958 -2.21722 0
M  V30 43292 N 2689.38 2.30408 0.165238 0
M  V30 43293 C 2689.48 2.66048 1.25118 0
M  V30 43294 N 2689.43 1.70787 2.16813 0
M  V30 43295 C 2689.63 4.02732 1.64413 0
M  V30 43296 C 2689.68 4.9488 0.63991 0
M  V30 43297 H 2692.42 8.65017 -0.777072 0
M  V30 43298 H 2692.69 6.90173 -0.474152 0
M  V30 43299 H 2691.83 7.66642 -2.79492 0
M  V30 43300 H 2689.17 5.16254 -2.65229 0
M  V30 43301 H 2688.89 7.06532 -0.329431 0
M  V30 43302 H 2687.9 6.91023 -1.82047 0
M  V30 43303 H 2689.74 8.90873 -1.62657 0
M  V30 43304 H 2689.81 6.00104 0.892197 0
M  V30 43305 H 2689.71 4.31733 2.69229 0
M  V30 43306 H 2689.32 0.724835 1.8844 0
M  V30 43307 H 2689.51 1.94716 3.16734 0
M  V30 43308 P 2687.86 8.03563 -3.84925 0
M  V30 43309 O 2687.64 8.85821 -5.0569 0
M  V30 43310 O 2687.07 8.41101 -2.65469 0
M  V30 43311 O 2687.61 6.4965 -4.18908 0
M  V30 43312 C 2688.55 5.81037 -5.05421 0
M  V30 43313 C 2687.82 4.78366 -5.89277 0
M  V30 43314 O 2687.61 3.58302 -5.08433 0
M  V30 43315 C 2686.42 5.17448 -6.36119 0
M  V30 43316 O 2686.03 4.45271 -7.53232 0
M  V30 43317 C 2685.54 4.74639 -5.19936 0
M  V30 43318 C 2686.25 3.49432 -4.70418 0
M  V30 43319 N 2686.2 3.31776 -3.22945 0
M  V30 43320 H 2689.04 6.54213 -5.71376 0
M  V30 43321 H 2689.32 5.30492 -4.44033 0
M  V30 43322 H 2688.45 4.55889 -6.76652 0
M  V30 43323 P 2684.48 4.23843 -7.83734 0
M  V30 43324 O 2684.26 4.19407 -9.29784 0
M  V30 43325 O 2683.69 5.24426 -7.09156 0
M  V30 43326 O 2684.23 2.7935 -7.20758 0
M  V30 43327 C 2685.17 1.7299 -7.50419 0
M  V30 43328 C 2684.44 0.406376 -7.57911 0
M  V30 43329 O 2684.23 -0.0897726 -6.21935 0
M  V30 43330 C 2683.04 0.447224 -8.1878 0
M  V30 43331 O 2682.65 -0.825065 -8.71101 0
M  V30 43332 C 2682.16 0.783801 -6.99623 0
M  V30 43333 C 2682.87 0.0619192 -5.85967 0
M  V30 43334 N 2682.82 0.7859 -4.56281 0
M  V30 43335 H 2685.66 1.93423 -8.4679 0
M  V30 43336 H 2685.94 1.68181 -6.71046 0
M  V30 43337 H 2685.07 -0.289041 -8.15388 0
M  V30 43338 P 2681.1 -1.17771 -8.83182 0
M  V30 43339 O 2680.88 -2.07206 -9.98732 0
M  V30 43340 O 2680.31 0.0743816 -8.81969 0
M  V30 43341 O 2680.85 -1.97652 -7.47304 0
M  V30 43342 C 2681.79 -3.01055 -7.08599 0
M  V30 43343 C 2681.06 -4.12613 -6.37049 0
M  V30 43344 O 2680.85 -3.72827 -4.97879 0
M  V30 43345 C 2679.66 -4.45719 -6.88164 0
M  V30 43346 O 2679.27 -5.7877 -6.5624 0
M  V30 43347 C 2678.78 -3.47768 -6.11991 0
M  V30 43348 C 2679.49 -3.39356 -4.77615 0
M  V30 43349 N 2679.44 -2.04571 -4.15244 0
M  V30 43350 C 2679.29 -1.98587 -2.78314 0
M  V30 43351 O 2679.2 -2.98134 -2.08835 0
M  V30 43352 N 2679.25 -0.714467 -2.24925 0
M  V30 43353 C 2679.34 0.470001 -2.94169 0
M  V30 43354 C 2679.49 0.312541 -4.36783 0
M  V30 43355 C 2679.54 -0.914512 -4.92583 0
M  V30 43356 H 2682.29 -3.41169 -7.98575 0
M  V30 43357 H 2682.55 -2.58295 -6.41556 0
M  V30 43358 H 2681.69 -5.02657 -6.42673 0
M  V30 43359 H 2679.03 -4.11637 -4.08885 0
M  V30 43360 H 2678.75 -2.49626 -6.61679 0
M  V30 43361 H 2677.76 -3.86566 -6.00778 0
M  V30 43362 H 2679.6 -4.29943 -7.96918 0
M  V30 43363 H 2679.67 -1.00937 -6.00374 0
M  V30 43364 P 2677.72 -6.144 -6.45285 0
M  V30 43365 O 2677.5 -7.54673 -6.86199 0
M  V30 43366 O 2676.93 -5.12391 -7.179 0
M  V30 43367 O 2677.47 -5.99158 -4.88404 0
M  V30 43368 C 2678.41 -6.60234 -3.96415 0
M  V30 43369 C 2677.68 -7.08259 -2.72856 0
M  V30 43370 O 2677.47 -5.9427 -1.83651 0
M  V30 43371 C 2676.28 -7.64886 -2.9555 0
M  V30 43372 O 2675.89 -8.53963 -1.90717 0
M  V30 43373 C 2675.4 -6.4116 -2.90739 0
M  V30 43374 C 2676.11 -5.55375 -1.86963 0
M  V30 43375 N 2676.06 -4.09448 -2.16152 0
M  V30 43376 C 2676.14 -3.46824 -3.37593 0
M  V30 43377 N 2676.07 -2.17422 -3.29777 0
M  V30 43378 C 2675.92 -1.93065 -1.94427 0
M  V30 43379 C 2675.79 -0.738053 -1.20141 0
M  V30 43380 N 2675.78 0.474256 -1.74676 0
M  V30 43381 N 2675.67 -0.850049 0.13045 0
M  V30 43382 C 2675.68 -2.06169 0.676992 0
M  V30 43383 N 2675.8 -3.23842 0.101312 0
M  V30 43384 C 2675.92 -3.09402 -1.23122 0
M  V30 43385 H 2678.9 -7.45574 -4.45629 0
M  V30 43386 H 2679.18 -5.85864 -3.679 0
M  V30 43387 H 2678.31 -7.84412 -2.24479 0
M  V30 43388 H 2675.65 -5.73457 -0.888562 0
M  V30 43389 H 2675.37 -5.90877 -3.88583 0
M  V30 43390 H 2674.38 -6.6596 -2.58858 0
M  V30 43391 H 2676.22 -8.16339 -3.92049 0
M  V30 43392 H 2676.26 -4.00505 -4.3174 0
M  V30 43393 H 2675.88 0.581337 -2.76658 0
M  V30 43394 H 2675.69 1.30811 -1.14888 0
M  V30 43395 H 2675.58 -2.08295 1.75542 0
M  V30 43396 P 2674.34 -8.7635 -1.60911 0
M  V30 43397 O 2674.12 -10.1388 -1.11561 0
M  V30 43398 O 2673.55 -8.36503 -2.79617 0
M  V30 43399 O 2674.09 -7.71906 -0.429565 0
M  V30 43400 C 2675.03 -7.67148 0.673689 0
M  V30 43401 C 2674.3 -7.33666 1.94851 0
M  V30 43402 O 2674.09 -5.88816 2.00759 0
M  V30 43403 C 2672.9 -7.92526 2.10483 0
M  V30 43404 O 2672.51 -8.03063 3.47693 0
M  V30 43405 C 2672.02 -6.89602 1.41652 0
M  V30 43406 C 2672.73 -5.59201 1.75185 0
M  V30 43407 N 2672.68 -4.58235 0.662552 0
M  V30 43408 C 2672.53 -3.24451 1.01643 0
M  V30 43409 O 2672.44 -2.94958 2.21722 0
M  V30 43410 N 2672.48 -2.30408 -0.165238 0
M  V30 43411 C 2672.58 -2.66048 -1.25118 0
M  V30 43412 N 2672.53 -1.70787 -2.16813 0
M  V30 43413 C 2672.73 -4.02732 -1.64413 0
M  V30 43414 C 2672.78 -4.9488 -0.63991 0
M  V30 43415 H 2675.52 -8.65017 0.777072 0
M  V30 43416 H 2675.79 -6.90173 0.474152 0
M  V30 43417 H 2674.93 -7.66642 2.79492 0
M  V30 43418 H 2672.27 -5.16254 2.65229 0
M  V30 43419 H 2671.99 -7.06532 0.329431 0
M  V30 43420 H 2671 -6.91023 1.82047 0
M  V30 43421 H 2672.84 -8.90873 1.62657 0
M  V30 43422 H 2672.91 -6.00104 -0.892197 0
M  V30 43423 H 2672.81 -4.31733 -2.69229 0
M  V30 43424 H 2672.42 -0.724835 -1.8844 0
M  V30 43425 H 2672.61 -1.94716 -3.16734 0
M  V30 43426 P 2670.96 -8.03563 3.84925 0
M  V30 43427 O 2670.74 -8.85821 5.0569 0
M  V30 43428 O 2670.17 -8.41101 2.65469 0
M  V30 43429 O 2670.71 -6.4965 4.18908 0
M  V30 43430 C 2671.65 -5.81037 5.05421 0
M  V30 43431 C 2670.92 -4.78366 5.89277 0
M  V30 43432 O 2670.71 -3.58302 5.08433 0
M  V30 43433 C 2669.52 -5.17448 6.36119 0
M  V30 43434 O 2669.13 -4.45271 7.53232 0
M  V30 43435 C 2668.64 -4.74639 5.19936 0
M  V30 43436 C 2669.35 -3.49432 4.70418 0
M  V30 43437 N 2669.3 -3.31776 3.22945 0
M  V30 43438 H 2672.14 -6.54213 5.71376 0
M  V30 43439 H 2672.42 -5.30492 4.44033 0
M  V30 43440 H 2671.55 -4.55889 6.76652 0
M  V30 43441 P 2667.58 -4.23843 7.83734 0
M  V30 43442 O 2667.36 -4.19407 9.29784 0
M  V30 43443 O 2666.79 -5.24426 7.09156 0
M  V30 43444 O 2667.33 -2.7935 7.20758 0
M  V30 43445 C 2668.27 -1.7299 7.50419 0
M  V30 43446 C 2667.54 -0.406376 7.57911 0
M  V30 43447 O 2667.33 0.0897726 6.21935 0
M  V30 43448 C 2666.14 -0.447224 8.1878 0
M  V30 43449 O 2665.75 0.825065 8.71101 0
M  V30 43450 C 2665.26 -0.783801 6.99623 0
M  V30 43451 C 2665.97 -0.0619192 5.85967 0
M  V30 43452 N 2665.92 -0.7859 4.56281 0
M  V30 43453 H 2668.76 -1.93423 8.4679 0
M  V30 43454 H 2669.04 -1.68181 6.71046 0
M  V30 43455 H 2668.17 0.289041 8.15388 0
M  V30 43456 P 2664.2 1.17771 8.83182 0
M  V30 43457 O 2663.98 2.07206 9.98732 0
M  V30 43458 O 2663.41 -0.0743816 8.81969 0
M  V30 43459 O 2663.95 1.97678 7.474 0
M  V30 43460 C 2664.89 3.01133 7.08783 0
M  V30 43461 C 2664.16 4.1203 6.37546 0
M  V30 43462 O 2663.95 3.72887 4.9796 0
M  V30 43463 C 2662.76 4.45085 6.88694 0
M  V30 43464 O 2662.37 5.78836 6.56315 0
M  V30 43465 C 2661.88 3.47817 6.12078 0
M  V30 43466 C 2662.59 3.39414 4.77697 0
M  V30 43467 N 2662.54 2.04615 4.15333 0
M  V30 43468 C 2662.39 1.96929 2.77162 0
M  V30 43469 O 2662.3 3.02017 2.12006 0
M  V30 43470 N 2662.34 0.55485 2.24237 0
M  V30 43471 C 2662.44 -0.367808 2.9169 0
M  V30 43472 N 2662.39 -1.53426 2.29427 0
M  V30 43473 C 2662.59 -0.319148 4.33828 0
M  V30 43474 C 2662.64 0.920672 4.90433 0
M  V30 43475 H 2665.38 3.41209 7.98667 0
M  V30 43476 H 2665.65 2.5837 6.41742 0
M  V30 43477 H 2664.79 5.02718 6.42752 0
M  V30 43478 H 2662.13 4.11779 4.09026 0
M  V30 43479 H 2661.85 2.49661 6.61772 0
M  V30 43480 H 2660.86 3.86674 6.00946 0
M  V30 43481 H 2662.7 4.29991 7.97006 0
M  V30 43482 H 2662.77 1.00589 5.98303 0
M  V30 43483 H 2662.67 -1.22639 4.93799 0
M  V30 43484 H 2662.28 -1.56819 1.27167 0
M  V30 43485 H 2662.47 -2.41062 2.83063 0
M  V30 43486 P 2660.82 6.144 6.45285 0
M  V30 43487 O 2660.6 7.54673 6.86199 0
M  V30 43488 O 2660.03 5.12391 7.179 0
M  V30 43489 O 2660.57 5.99158 4.88404 0
M  V30 43490 C 2661.51 6.60234 3.96415 0
M  V30 43491 C 2660.78 7.08259 2.72856 0
M  V30 43492 O 2660.57 5.9427 1.83651 0
M  V30 43493 C 2659.38 7.64886 2.9555 0
M  V30 43494 O 2658.99 8.53963 1.90717 0
M  V30 43495 C 2658.5 6.4116 2.90739 0
M  V30 43496 C 2659.21 5.55375 1.86963 0
M  V30 43497 N 2659.16 4.09664 2.15742 0
M  V30 43498 H 2662 7.45574 4.45629 0
M  V30 43499 H 2662.28 5.86232 3.67314 0
M  V30 43500 H 2661.41 7.84412 2.24479 0
M  V30 43501 P 2657.44 8.7635 1.60911 0
M  V30 43502 O 2657.22 10.1388 1.11561 0
M  V30 43503 O 2656.65 8.36503 2.79617 0
M  V30 43504 O 2657.19 7.71806 0.42951 0
M  V30 43505 C 2658.13 7.67148 -0.673689 0
M  V30 43506 C 2657.4 7.33374 -1.95559 0
M  V30 43507 O 2657.19 5.88721 -2.00726 0
M  V30 43508 C 2656 7.92526 -2.10483 0
M  V30 43509 O 2655.61 8.02971 -3.47653 0
M  V30 43510 C 2655.12 6.89602 -1.41652 0
M  V30 43511 C 2655.83 5.59201 -1.75185 0
M  V30 43512 N 2655.78 4.58235 -0.662552 0
M  V30 43513 H 2658.62 8.65116 -0.777161 0
M  V30 43514 H 2658.9 6.90173 -0.474152 0
M  V30 43515 H 2658.03 7.66548 -2.79458 0
M  V30 43516 P 2654.06 8.03563 -3.84925 0
M  V30 43517 O 2653.84 8.85821 -5.0569 0
M  V30 43518 O 2653.27 8.41101 -2.65469 0
M  V30 43519 O 2653.81 6.4965 -4.18908 0
M  V30 43520 C 2654.75 5.81037 -5.05421 0
M  V30 43521 C 2654.02 4.78366 -5.89277 0
M  V30 43522 O 2653.81 3.58302 -5.08433 0
M  V30 43523 C 2652.62 5.17448 -6.36119 0
M  V30 43524 O 2652.23 4.45271 -7.53232 0
M  V30 43525 C 2651.74 4.74639 -5.19936 0
M  V30 43526 C 2652.45 3.49432 -4.70418 0
M  V30 43527 N 2652.4 3.31776 -3.22945 0
M  V30 43528 H 2655.24 6.54213 -5.71376 0
M  V30 43529 H 2655.52 5.30492 -4.44033 0
M  V30 43530 H 2654.65 4.55889 -6.76652 0
M  V30 43531 P 2650.68 4.23843 -7.83734 0
M  V30 43532 O 2650.46 4.19407 -9.29784 0
M  V30 43533 O 2649.89 5.24426 -7.09156 0
M  V30 43534 O 2650.43 2.7935 -7.20758 0
M  V30 43535 C 2651.37 1.7299 -7.50419 0
M  V30 43536 C 2650.64 0.406376 -7.57911 0
M  V30 43537 O 2650.43 -0.0897726 -6.21935 0
M  V30 43538 C 2649.24 0.447224 -8.1878 0
M  V30 43539 O 2648.85 -0.825065 -8.71101 0
M  V30 43540 C 2648.36 0.783801 -6.99623 0
M  V30 43541 C 2649.07 0.0619192 -5.85967 0
M  V30 43542 N 2649.02 0.7859 -4.56281 0
M  V30 43543 H 2651.86 1.93423 -8.4679 0
M  V30 43544 H 2652.14 1.68181 -6.71046 0
M  V30 43545 H 2651.27 -0.289041 -8.15388 0
M  V30 43546 P 2647.3 -1.17771 -8.83182 0
M  V30 43547 O 2647.08 -2.07206 -9.98732 0
M  V30 43548 O 2646.51 0.0743816 -8.81969 0
M  V30 43549 O 2647.05 -1.97652 -7.47304 0
M  V30 43550 C 2647.99 -3.01133 -7.08783 0
M  V30 43551 C 2647.26 -4.12613 -6.37049 0
M  V30 43552 O 2647.05 -3.72827 -4.97879 0
M  V30 43553 C 2645.86 -4.45085 -6.88694 0
M  V30 43554 O 2645.47 -5.7877 -6.5624 0
M  V30 43555 C 2644.98 -3.47817 -6.12078 0
M  V30 43556 C 2645.69 -3.39414 -4.77697 0
M  V30 43557 N 2645.64 -2.04615 -4.15333 0
M  V30 43558 H 2648.48 -3.41248 -7.98759 0
M  V30 43559 H 2648.76 -2.5837 -6.41742 0
M  V30 43560 H 2647.89 -5.02657 -6.42673 0
M  V30 43561 P 2643.92 -6.144 -6.45285 0
M  V30 43562 O 2643.7 -7.54673 -6.86199 0
M  V30 43563 O 2643.13 -5.12391 -7.179 0
M  V30 43564 O 2643.67 -5.99158 -4.88404 0
M  V30 43565 C 2644.61 -6.60234 -3.96415 0
M  V30 43566 C 2643.88 -7.08259 -2.72856 0
M  V30 43567 O 2643.67 -5.9427 -1.83651 0
M  V30 43568 C 2642.48 -7.64886 -2.9555 0
M  V30 43569 O 2642.09 -8.53963 -1.90717 0
M  V30 43570 C 2641.6 -6.4116 -2.90739 0
M  V30 43571 C 2642.31 -5.55375 -1.86963 0
M  V30 43572 N 2642.26 -4.09664 -2.15742 0
M  V30 43573 H 2645.1 -7.45574 -4.45629 0
M  V30 43574 H 2645.38 -5.86232 -3.67314 0
M  V30 43575 H 2644.51 -7.84412 -2.24479 0
M  V30 43576 P 2640.54 -8.7635 -1.60911 0
M  V30 43577 O 2640.32 -10.1388 -1.11561 0
M  V30 43578 O 2639.75 -8.36503 -2.79617 0
M  V30 43579 O 2640.29 -7.71806 -0.42951 0
M  V30 43580 C 2641.23 -7.67148 0.673689 0
M  V30 43581 C 2640.5 -7.33374 1.95559 0
M  V30 43582 O 2640.29 -5.88721 2.00726 0
M  V30 43583 C 2639.1 -7.92526 2.10483 0
M  V30 43584 O 2638.71 -8.02971 3.47653 0
M  V30 43585 C 2638.22 -6.89602 1.41652 0
M  V30 43586 C 2638.93 -5.59201 1.75185 0
M  V30 43587 N 2638.88 -4.58235 0.662552 0
M  V30 43588 H 2641.72 -8.65116 0.777161 0
M  V30 43589 H 2642 -6.90173 0.474152 0
M  V30 43590 H 2641.13 -7.66548 2.79458 0
M  V30 43591 P 2637.16 -8.03563 3.84925 0
M  V30 43592 O 2636.94 -8.85821 5.0569 0
M  V30 43593 O 2636.37 -8.41101 2.65469 0
M  V30 43594 O 2636.91 -6.4965 4.18908 0
M  V30 43595 C 2637.85 -5.81037 5.05421 0
M  V30 43596 C 2637.12 -4.78366 5.89277 0
M  V30 43597 O 2636.91 -3.58302 5.08433 0
M  V30 43598 C 2635.72 -5.17448 6.36119 0
M  V30 43599 O 2635.33 -4.45271 7.53232 0
M  V30 43600 C 2634.84 -4.74639 5.19936 0
M  V30 43601 C 2635.55 -3.49432 4.70418 0
M  V30 43602 N 2635.5 -3.31776 3.22945 0
M  V30 43603 H 2638.34 -6.54213 5.71376 0
M  V30 43604 H 2638.62 -5.30492 4.44033 0
M  V30 43605 H 2637.75 -4.55889 6.76652 0
M  V30 43606 P 2633.78 -4.23843 7.83734 0
M  V30 43607 O 2633.56 -4.19407 9.29784 0
M  V30 43608 O 2632.99 -5.24426 7.09156 0
M  V30 43609 O 2633.53 -2.7935 7.20758 0
M  V30 43610 C 2634.47 -1.7299 7.50419 0
M  V30 43611 C 2633.74 -0.406376 7.57911 0
M  V30 43612 O 2633.53 0.0897726 6.21935 0
M  V30 43613 C 2632.34 -0.447224 8.1878 0
M  V30 43614 O 2631.95 0.825065 8.71101 0
M  V30 43615 C 2631.46 -0.783801 6.99623 0
M  V30 43616 C 2632.17 -0.0619192 5.85967 0
M  V30 43617 N 2632.12 -0.7859 4.56281 0
M  V30 43618 H 2634.96 -1.93423 8.4679 0
M  V30 43619 H 2635.24 -1.68181 6.71046 0
M  V30 43620 H 2634.37 0.289041 8.15388 0
M  V30 43621 P 2630.4 1.17771 8.83182 0
M  V30 43622 O 2630.18 2.07206 9.98732 0
M  V30 43623 O 2629.61 -0.0743816 8.81969 0
M  V30 43624 O 2630.15 1.97652 7.47304 0
M  V30 43625 C 2631.09 3.01133 7.08783 0
M  V30 43626 C 2630.36 4.12613 6.37049 0
M  V30 43627 O 2630.15 3.72827 4.97879 0
M  V30 43628 C 2628.96 4.45085 6.88694 0
M  V30 43629 O 2628.57 5.7877 6.5624 0
M  V30 43630 C 2628.08 3.47817 6.12078 0
M  V30 43631 C 2628.79 3.39414 4.77697 0
M  V30 43632 N 2628.74 2.04199 4.15538 0
M  V30 43633 H 2631.58 3.41248 7.98759 0
M  V30 43634 H 2631.86 2.57728 6.42 0
M  V30 43635 H 2630.99 5.02657 6.42673 0
M  V30 43636 H 2628.33 4.11708 4.08956 0
M  V30 43637 H 2628.05 2.49626 6.61679 0
M  V30 43638 H 2627.06 3.8662 6.00862 0
M  V30 43639 H 2628.9 4.29991 7.97006 0
M  V30 43640 P 2627.02 6.144 6.45285 0
M  V30 43641 O 2626.8 7.54673 6.86199 0
M  V30 43642 O 2626.23 5.12391 7.179 0
M  V30 43643 O 2626.77 5.99236 4.88467 0
M  V30 43644 C 2627.71 6.60234 3.96415 0
M  V30 43645 C 2626.98 7.08079 2.736 0
M  V30 43646 O 2626.77 5.94365 1.8368 0
M  V30 43647 C 2625.58 7.64886 2.9555 0
M  V30 43648 O 2625.19 8.5406 1.90739 0
M  V30 43649 C 2624.7 6.4116 2.90739 0
M  V30 43650 C 2625.41 5.55375 1.86963 0
M  V30 43651 N 2625.36 4.09664 2.15742 0
M  V30 43652 C 2625.21 3.22231 1.08477 0
M  V30 43653 O 2625.12 3.68951 -0.0600489 0
M  V30 43654 N 2625.16 1.76692 1.48799 0
M  V30 43655 C 2625.26 1.41695 2.57602 0
M  V30 43656 N 2625.21 0.107296 2.75791 0
M  V30 43657 C 2625.41 2.29178 3.69733 0
M  V30 43658 C 2625.46 3.62753 3.42653 0
M  V30 43659 H 2628.2 7.45488 4.45578 0
M  V30 43660 H 2628.47 5.86232 3.67314 0
M  V30 43661 H 2627.61 7.84508 2.24507 0
M  V30 43662 H 2624.95 5.73556 0.888715 0
M  V30 43663 H 2624.67 5.9096 3.88638 0
M  V30 43664 H 2623.68 6.66053 2.58894 0
M  V30 43665 H 2625.52 8.16339 3.92049 0
M  V30 43666 H 2625.59 4.33052 4.24913 0
M  V30 43667 H 2625.49 1.9103 4.71577 0
M  V30 43668 H 2625.1 -0.521221 1.95056 0
M  V30 43669 H 2625.29 -0.286429 3.70695 0
M  V30 43670 P 2623.64 8.7635 1.60911 0
M  V30 43671 O 2623.42 10.1388 1.11561 0
M  V30 43672 O 2622.85 8.36503 2.79617 0
M  V30 43673 O 2623.39 7.71806 0.42951 0
M  V30 43674 C 2624.33 7.67148 -0.673689 0
M  V30 43675 C 2623.6 7.33374 -1.95559 0
M  V30 43676 O 2623.39 5.88721 -2.00726 0
M  V30 43677 C 2622.2 7.92526 -2.10483 0
M  V30 43678 O 2621.81 8.02971 -3.47653 0
M  V30 43679 C 2621.32 6.89602 -1.41652 0
M  V30 43680 C 2622.03 5.59201 -1.75185 0
M  V30 43681 N 2621.98 4.58235 -0.662552 0
M  V30 43682 H 2624.82 8.65116 -0.777161 0
M  V30 43683 H 2625.1 6.90173 -0.474152 0
M  V30 43684 H 2624.23 7.66548 -2.79458 0
M  V30 43685 P 2620.26 8.03563 -3.84925 0
M  V30 43686 O 2620.04 8.85821 -5.0569 0
M  V30 43687 O 2619.47 8.41101 -2.65469 0
M  V30 43688 O 2620.01 6.4965 -4.18908 0
M  V30 43689 C 2620.95 5.81037 -5.05421 0
M  V30 43690 C 2620.22 4.78366 -5.89277 0
M  V30 43691 O 2620.01 3.58302 -5.08433 0
M  V30 43692 C 2618.82 5.17448 -6.36119 0
M  V30 43693 O 2618.43 4.45271 -7.53232 0
M  V30 43694 C 2617.94 4.74639 -5.19936 0
M  V30 43695 C 2618.65 3.49432 -4.70418 0
M  V30 43696 N 2618.6 3.31776 -3.22945 0
M  V30 43697 H 2621.44 6.54213 -5.71376 0
M  V30 43698 H 2621.72 5.30492 -4.44033 0
M  V30 43699 H 2620.85 4.55889 -6.76652 0
M  V30 43700 P 2616.88 4.23843 -7.83734 0
M  V30 43701 O 2616.66 4.19407 -9.29784 0
M  V30 43702 O 2616.09 5.24426 -7.09156 0
M  V30 43703 O 2616.63 2.7935 -7.20758 0
M  V30 43704 C 2617.57 1.7299 -7.50419 0
M  V30 43705 C 2616.84 0.406376 -7.57911 0
M  V30 43706 O 2616.63 -0.0897726 -6.21935 0
M  V30 43707 C 2615.44 0.447224 -8.1878 0
M  V30 43708 O 2615.05 -0.825065 -8.71101 0
M  V30 43709 C 2614.56 0.783801 -6.99623 0
M  V30 43710 C 2615.27 0.0619192 -5.85967 0
M  V30 43711 N 2615.22 0.7859 -4.56281 0
M  V30 43712 H 2618.06 1.93423 -8.4679 0
M  V30 43713 H 2618.34 1.68181 -6.71046 0
M  V30 43714 H 2617.47 -0.289041 -8.15388 0
M  V30 43715 P 2613.5 -1.17771 -8.83182 0
M  V30 43716 O 2613.28 -2.07206 -9.98732 0
M  V30 43717 O 2612.71 0.0743816 -8.81969 0
M  V30 43718 O 2613.25 -1.97652 -7.47304 0
M  V30 43719 C 2614.19 -3.01133 -7.08783 0
M  V30 43720 C 2613.46 -4.12613 -6.37049 0
M  V30 43721 O 2613.25 -3.72827 -4.97879 0
M  V30 43722 C 2612.06 -4.45085 -6.88694 0
M  V30 43723 O 2611.67 -5.7877 -6.5624 0
M  V30 43724 C 2611.18 -3.47817 -6.12078 0
M  V30 43725 C 2611.89 -3.39414 -4.77697 0
M  V30 43726 N 2611.84 -2.04615 -4.15333 0
M  V30 43727 H 2614.68 -3.41248 -7.98759 0
M  V30 43728 H 2614.96 -2.5837 -6.41742 0
M  V30 43729 H 2614.09 -5.02657 -6.42673 0
M  V30 43730 P 2610.12 -6.144 -6.45285 0
M  V30 43731 O 2609.9 -7.54673 -6.86199 0
M  V30 43732 O 2609.33 -5.12391 -7.179 0
M  V30 43733 O 2609.87 -5.99158 -4.88404 0
M  V30 43734 C 2610.81 -6.60062 -3.96313 0
M  V30 43735 C 2610.08 -7.08259 -2.72856 0
M  V30 43736 O 2609.87 -5.9427 -1.83651 0
M  V30 43737 C 2608.68 -7.65087 -2.94749 0
M  V30 43738 O 2608.29 -8.53963 -1.90717 0
M  V30 43739 C 2607.8 -6.41069 -2.90698 0
M  V30 43740 C 2608.51 -5.5528 -1.86931 0
M  V30 43741 N 2608.46 -4.09575 -2.15696 0
M  V30 43742 C 2608.31 -3.24249 -1.08435 0
M  V30 43743 O 2608.22 -3.63946 0.0628747 0
M  V30 43744 N 2608.27 -1.90009 -1.39973 0
M  V30 43745 C 2608.36 -1.34884 -2.65614 0
M  V30 43746 O 2608.31 -0.123716 -2.81728 0
M  V30 43747 C 2608.51 -2.3145 -3.71736 0
M  V30 43748 C 2608.62 -1.75913 -5.10438 0
M  V30 43749 C 2608.56 -3.63518 -3.44754 0
M  V30 43750 H 2611.31 -7.45402 -4.45526 0
M  V30 43751 H 2611.57 -5.86062 -3.67208 0
M  V30 43752 H 2610.71 -7.84412 -2.24479 0
M  V30 43753 H 2608.05 -5.73358 -0.888409 0
M  V30 43754 H 2607.77 -5.90877 -3.88583 0
M  V30 43755 H 2606.78 -6.65867 -2.58821 0
M  V30 43756 H 2608.62 -8.16248 -3.92006 0
M  V30 43757 H 2608.69 -4.34551 -4.26383 0
M  V30 43758 H 2607.66 -1.85471 -5.61775 0
M  V30 43759 H 2609.39 -2.31364 -5.66257 0
M  V30 43760 H 2608.91 -0.695936 -5.05229 0
M  V30 43761 H 2608.17 -1.26277 -0.63625 0
M  V30 43762 P 2606.74 -8.7635 -1.60911 0
M  V30 43763 O 2606.52 -10.1388 -1.11561 0
M  V30 43764 O 2605.95 -8.36503 -2.79617 0
M  V30 43765 O 2606.49 -7.71806 -0.42951 0
M  V30 43766 C 2607.43 -7.67148 0.673689 0
M  V30 43767 C 2606.7 -7.33374 1.95559 0
M  V30 43768 O 2606.49 -5.88721 2.00726 0
M  V30 43769 C 2605.3 -7.92526 2.10483 0
M  V30 43770 O 2604.91 -8.02971 3.47653 0
M  V30 43771 C 2604.42 -6.89602 1.41652 0
M  V30 43772 C 2605.13 -5.59201 1.75185 0
M  V30 43773 N 2605.08 -4.58235 0.662552 0
M  V30 43774 H 2607.92 -8.65116 0.777161 0
M  V30 43775 H 2608.2 -6.90173 0.474152 0
M  V30 43776 H 2607.33 -7.66548 2.79458 0
M  V30 43777 P 2603.36 -8.03563 3.84925 0
M  V30 43778 O 2603.14 -8.85821 5.0569 0
M  V30 43779 O 2602.57 -8.41101 2.65469 0
M  V30 43780 O 2603.11 -6.4965 4.18908 0
M  V30 43781 C 2604.05 -5.81037 5.05421 0
M  V30 43782 C 2603.32 -4.78366 5.89277 0
M  V30 43783 O 2603.11 -3.58302 5.08433 0
M  V30 43784 C 2601.92 -5.17448 6.36119 0
M  V30 43785 O 2601.53 -4.45271 7.53232 0
M  V30 43786 C 2601.04 -4.74639 5.19936 0
M  V30 43787 C 2601.75 -3.49432 4.70418 0
M  V30 43788 N 2601.7 -3.31776 3.22945 0
M  V30 43789 H 2604.54 -6.54213 5.71376 0
M  V30 43790 H 2604.82 -5.30492 4.44033 0
M  V30 43791 H 2603.95 -4.55889 6.76652 0
M  V30 43792 P 2599.98 -4.23843 7.83734 0
M  V30 43793 O 2599.76 -4.19407 9.29784 0
M  V30 43794 O 2599.19 -5.24426 7.09156 0
M  V30 43795 O 2599.73 -2.7935 7.20758 0
M  V30 43796 C 2600.67 -1.7299 7.50419 0
M  V30 43797 C 2599.94 -0.406376 7.57911 0
M  V30 43798 O 2599.73 0.0897726 6.21935 0
M  V30 43799 C 2598.54 -0.447224 8.1878 0
M  V30 43800 O 2598.15 0.825065 8.71101 0
M  V30 43801 C 2597.66 -0.783801 6.99623 0
M  V30 43802 C 2598.37 -0.0619192 5.85967 0
M  V30 43803 N 2598.32 -0.7859 4.56281 0
M  V30 43804 H 2601.16 -1.93423 8.4679 0
M  V30 43805 H 2601.44 -1.68181 6.71046 0
M  V30 43806 H 2600.57 0.289041 8.15388 0
M  V30 43807 P 2596.6 1.17771 8.83182 0
M  V30 43808 O 2596.38 2.07206 9.98732 0
M  V30 43809 O 2595.81 -0.0743816 8.81969 0
M  V30 43810 O 2596.35 1.97652 7.47304 0
M  V30 43811 C 2597.29 3.01133 7.08783 0
M  V30 43812 C 2596.56 4.12613 6.37049 0
M  V30 43813 O 2596.35 3.72827 4.97879 0
M  V30 43814 C 2595.16 4.45085 6.88694 0
M  V30 43815 O 2594.77 5.7877 6.5624 0
M  V30 43816 C 2594.28 3.47817 6.12078 0
M  V30 43817 C 2594.99 3.39414 4.77697 0
M  V30 43818 N 2594.94 2.04615 4.15333 0
M  V30 43819 H 2597.78 3.41248 7.98759 0
M  V30 43820 H 2598.06 2.5837 6.41742 0
M  V30 43821 H 2597.19 5.02657 6.42673 0
M  V30 43822 P 2593.22 6.144 6.45285 0
M  V30 43823 O 2593 7.54673 6.86199 0
M  V30 43824 O 2592.43 5.12391 7.179 0
M  V30 43825 O 2592.97 5.99158 4.88404 0
M  V30 43826 C 2593.91 6.60234 3.96415 0
M  V30 43827 C 2593.18 7.08259 2.72856 0
M  V30 43828 O 2592.97 5.9427 1.83651 0
M  V30 43829 C 2591.78 7.64886 2.9555 0
M  V30 43830 O 2591.39 8.53963 1.90717 0
M  V30 43831 C 2590.9 6.4116 2.90739 0
M  V30 43832 C 2591.61 5.55375 1.86963 0
M  V30 43833 N 2591.56 4.09448 2.16152 0
M  V30 43834 C 2591.64 3.46824 3.37593 0
M  V30 43835 N 2591.57 2.17422 3.29777 0
M  V30 43836 C 2591.42 1.93065 1.94427 0
M  V30 43837 C 2591.29 0.738053 1.20141 0
M  V30 43838 N 2591.28 -0.474256 1.74676 0
M  V30 43839 N 2591.17 0.850049 -0.13045 0
M  V30 43840 C 2591.18 2.06169 -0.676992 0
M  V30 43841 N 2591.3 3.23842 -0.101312 0
M  V30 43842 C 2591.42 3.09402 1.23122 0
M  V30 43843 H 2594.4 7.45574 4.45629 0
M  V30 43844 H 2594.68 5.85864 3.679 0
M  V30 43845 H 2593.81 7.84412 2.24479 0
M  V30 43846 H 2591.15 5.73457 0.888562 0
M  V30 43847 H 2590.87 5.90877 3.88583 0
M  V30 43848 H 2589.88 6.6596 2.58858 0
M  V30 43849 H 2591.72 8.16339 3.92049 0
M  V30 43850 H 2591.76 4.00505 4.3174 0
M  V30 43851 H 2591.38 -0.581337 2.76658 0
M  V30 43852 H 2591.19 -1.30811 1.14888 0
M  V30 43853 H 2591.08 2.08295 -1.75542 0
M  V30 43854 P 2589.84 8.7635 1.60911 0
M  V30 43855 O 2589.62 10.1388 1.11561 0
M  V30 43856 O 2589.05 8.36503 2.79617 0
M  V30 43857 O 2589.59 7.71806 0.42951 0
M  V30 43858 C 2590.53 7.67148 -0.673689 0
M  V30 43859 C 2589.8 7.33374 -1.95559 0
M  V30 43860 O 2589.59 5.88721 -2.00726 0
M  V30 43861 C 2588.4 7.92526 -2.10483 0
M  V30 43862 O 2588.01 8.02971 -3.47653 0
M  V30 43863 C 2587.52 6.89602 -1.41652 0
M  V30 43864 C 2588.23 5.59201 -1.75185 0
M  V30 43865 N 2588.18 4.58235 -0.662552 0
M  V30 43866 H 2591.02 8.65116 -0.777161 0
M  V30 43867 H 2591.3 6.90173 -0.474152 0
M  V30 43868 H 2590.43 7.66548 -2.79458 0
M  V30 43869 P 2586.46 8.03563 -3.84925 0
M  V30 43870 O 2586.24 8.85821 -5.0569 0
M  V30 43871 O 2585.67 8.41101 -2.65469 0
M  V30 43872 O 2586.21 6.4965 -4.18908 0
M  V30 43873 C 2587.15 5.81037 -5.05421 0
M  V30 43874 C 2586.42 4.78366 -5.89277 0
M  V30 43875 O 2586.21 3.58302 -5.08433 0
M  V30 43876 C 2585.02 5.17448 -6.36119 0
M  V30 43877 O 2584.63 4.45271 -7.53232 0
M  V30 43878 C 2584.14 4.74639 -5.19936 0
M  V30 43879 C 2584.85 3.49432 -4.70418 0
M  V30 43880 N 2584.8 3.31776 -3.22945 0
M  V30 43881 H 2587.64 6.54213 -5.71376 0
M  V30 43882 H 2587.92 5.30492 -4.44033 0
M  V30 43883 H 2587.05 4.55889 -6.76652 0
M  V30 43884 P 2583.08 4.23843 -7.83734 0
M  V30 43885 O 2582.86 4.19407 -9.29784 0
M  V30 43886 O 2582.29 5.24426 -7.09156 0
M  V30 43887 O 2582.83 2.7935 -7.20758 0
M  V30 43888 C 2583.77 1.7299 -7.50419 0
M  V30 43889 C 2583.04 0.406376 -7.57911 0
M  V30 43890 O 2582.83 -0.0897726 -6.21935 0
M  V30 43891 C 2581.64 0.447224 -8.1878 0
M  V30 43892 O 2581.25 -0.825065 -8.71101 0
M  V30 43893 C 2580.76 0.783801 -6.99623 0
M  V30 43894 C 2581.47 0.0619192 -5.85967 0
M  V30 43895 N 2581.42 0.7859 -4.56281 0
M  V30 43896 H 2584.26 1.93423 -8.4679 0
M  V30 43897 H 2584.54 1.68181 -6.71046 0
M  V30 43898 H 2583.67 -0.289041 -8.15388 0
M  V30 43899 P 2579.7 -1.17771 -8.83182 0
M  V30 43900 O 2579.48 -2.07206 -9.98732 0
M  V30 43901 O 2578.91 0.0743816 -8.81969 0
M  V30 43902 O 2579.45 -1.97652 -7.47304 0
M  V30 43903 C 2580.39 -3.01133 -7.08783 0
M  V30 43904 C 2579.66 -4.12613 -6.37049 0
M  V30 43905 O 2579.45 -3.72827 -4.97879 0
M  V30 43906 C 2578.26 -4.45085 -6.88694 0
M  V30 43907 O 2577.87 -5.7877 -6.5624 0
M  V30 43908 C 2577.38 -3.47817 -6.12078 0
M  V30 43909 C 2578.09 -3.39414 -4.77697 0
M  V30 43910 N 2578.04 -2.04199 -4.15538 0
M  V30 43911 H 2580.88 -3.41248 -7.98759 0
M  V30 43912 H 2581.16 -2.57728 -6.42 0
M  V30 43913 H 2580.29 -5.02657 -6.42673 0
M  V30 43914 H 2577.63 -4.11708 -4.08956 0
M  V30 43915 H 2577.35 -2.49626 -6.61679 0
M  V30 43916 H 2576.36 -3.8662 -6.00862 0
M  V30 43917 H 2578.2 -4.29991 -7.97006 0
M  V30 43918 P 2576.32 -6.144 -6.45285 0
M  V30 43919 O 2576.1 -7.54673 -6.86199 0
M  V30 43920 O 2575.53 -5.12391 -7.179 0
M  V30 43921 O 2576.07 -5.99158 -4.88404 0
M  V30 43922 C 2577.01 -6.60234 -3.96415 0
M  V30 43923 C 2576.28 -7.08259 -2.72856 0
M  V30 43924 O 2576.07 -5.9427 -1.83651 0
M  V30 43925 C 2574.88 -7.64886 -2.9555 0
M  V30 43926 O 2574.49 -8.53963 -1.90717 0
M  V30 43927 C 2574 -6.4116 -2.90739 0
M  V30 43928 C 2574.71 -5.55375 -1.86963 0
M  V30 43929 N 2574.66 -4.09664 -2.15742 0
M  V30 43930 H 2577.5 -7.45574 -4.45629 0
M  V30 43931 H 2577.78 -5.86232 -3.67314 0
M  V30 43932 H 2576.91 -7.84412 -2.24479 0
M  V30 43933 P 2572.94 -8.7635 -1.60911 0
M  V30 43934 O 2572.72 -10.1388 -1.11561 0
M  V30 43935 O 2572.15 -8.36503 -2.79617 0
M  V30 43936 O 2572.69 -7.71806 -0.42951 0
M  V30 43937 C 2573.63 -7.67148 0.673689 0
M  V30 43938 C 2572.9 -7.33374 1.95559 0
M  V30 43939 O 2572.69 -5.88721 2.00726 0
M  V30 43940 C 2571.5 -7.92526 2.10483 0
M  V30 43941 O 2571.11 -8.02971 3.47653 0
M  V30 43942 C 2570.62 -6.89602 1.41652 0
M  V30 43943 C 2571.33 -5.59201 1.75185 0
M  V30 43944 N 2571.28 -4.58235 0.662552 0
M  V30 43945 H 2574.12 -8.65116 0.777161 0
M  V30 43946 H 2574.4 -6.90173 0.474152 0
M  V30 43947 H 2573.53 -7.66548 2.79458 0
M  V30 43948 P 2569.56 -8.03563 3.84925 0
M  V30 43949 O 2569.34 -8.85821 5.0569 0
M  V30 43950 O 2568.77 -8.41101 2.65469 0
M  V30 43951 O 2569.31 -6.49734 4.18962 0
M  V30 43952 C 2570.25 -5.81037 5.05421 0
M  V30 43953 C 2569.52 -4.79018 5.88876 0
M  V30 43954 O 2569.31 -3.58359 5.08515 0
M  V30 43955 C 2568.12 -5.17448 6.36119 0
M  V30 43956 O 2567.73 -4.45322 7.53318 0
M  V30 43957 C 2567.24 -4.74639 5.19936 0
M  V30 43958 C 2567.95 -3.49432 4.70418 0
M  V30 43959 N 2567.9 -3.31776 3.22945 0
M  V30 43960 C 2567.75 -2.02742 2.72939 0
M  V30 43961 O 2567.66 -1.08301 3.52749 0
M  V30 43962 N 2567.7 -1.96117 1.22063 0
M  V30 43963 C 2567.8 -2.8878 0.551566 0
M  V30 43964 N 2567.75 -2.65609 -0.750198 0
M  V30 43965 C 2567.95 -4.22457 1.03707 0
M  V30 43966 C 2568 -4.37979 2.39113 0
M  V30 43967 H 2570.74 -6.54138 5.7131 0
M  V30 43968 H 2571.01 -5.30492 4.44033 0
M  V30 43969 H 2570.15 -4.55945 6.76735 0
M  V30 43970 H 2567.49 -2.6176 5.18021 0
M  V30 43971 H 2567.21 -5.52233 4.41941 0
M  V30 43972 H 2566.22 -4.52045 5.53452 0
M  V30 43973 H 2568.06 -6.25124 6.55234 0
M  V30 43974 H 2568.13 -5.37936 2.80552 0
M  V30 43975 H 2568.03 -5.07528 0.359553 0
M  V30 43976 H 2567.64 -1.69403 -1.09847 0
M  V30 43977 H 2567.83 -3.43701 -1.41792 0
M  V30 43978 P 2566.18 -4.23843 7.83734 0
M  V30 43979 O 2565.96 -4.19407 9.29784 0
M  V30 43980 O 2565.39 -5.24426 7.09156 0
M  V30 43981 O 2565.93 -2.7935 7.20758 0
M  V30 43982 C 2566.87 -1.7299 7.50419 0
M  V30 43983 C 2566.14 -0.406376 7.57911 0
M  V30 43984 O 2565.93 0.0897726 6.21935 0
M  V30 43985 C 2564.74 -0.447224 8.1878 0
M  V30 43986 O 2564.35 0.825065 8.71101 0
M  V30 43987 C 2563.86 -0.783801 6.99623 0
M  V30 43988 C 2564.57 -0.0619192 5.85967 0
M  V30 43989 N 2564.52 -0.7859 4.56281 0
M  V30 43990 H 2567.36 -1.93423 8.4679 0
M  V30 43991 H 2567.64 -1.68181 6.71046 0
M  V30 43992 H 2566.77 0.289041 8.15388 0
M  V30 43993 P 2562.8 1.17771 8.83182 0
M  V30 43994 O 2562.58 2.07206 9.98732 0
M  V30 43995 O 2562.01 -0.0743816 8.81969 0
M  V30 43996 O 2562.55 1.97652 7.47304 0
M  V30 43997 C 2563.49 3.01133 7.08783 0
M  V30 43998 C 2562.76 4.12613 6.37049 0
M  V30 43999 O 2562.55 3.72827 4.97879 0
M  V30 44000 C 2561.36 4.45085 6.88694 0
M  V30 44001 O 2560.97 5.7877 6.5624 0
M  V30 44002 C 2560.48 3.47817 6.12078 0
M  V30 44003 C 2561.19 3.39414 4.77697 0
M  V30 44004 N 2561.14 2.04615 4.15333 0
M  V30 44005 H 2563.98 3.41248 7.98759 0
M  V30 44006 H 2564.26 2.5837 6.41742 0
M  V30 44007 H 2563.39 5.02657 6.42673 0
M  V30 44008 P 2559.42 6.144 6.45285 0
M  V30 44009 O 2559.2 7.54673 6.86199 0
M  V30 44010 O 2558.63 5.12391 7.179 0
M  V30 44011 O 2559.17 5.99158 4.88404 0
M  V30 44012 C 2560.11 6.60234 3.96415 0
M  V30 44013 C 2559.38 7.08259 2.72856 0
M  V30 44014 O 2559.17 5.9427 1.83651 0
M  V30 44015 C 2557.98 7.64886 2.9555 0
M  V30 44016 O 2557.59 8.53963 1.90717 0
M  V30 44017 C 2557.1 6.4116 2.90739 0
M  V30 44018 C 2557.81 5.55375 1.86963 0
M  V30 44019 N 2557.76 4.09664 2.15742 0
M  V30 44020 C 2557.84 3.44381 3.37233 0
M  V30 44021 N 2557.76 2.14131 3.28347 0
M  V30 44022 C 2557.62 1.90247 1.91588 0
M  V30 44023 C 2557.49 0.683992 1.20892 0
M  V30 44024 N 2557.37 0.903396 -0.173998 0
M  V30 44025 C 2557.37 2.14171 -0.784879 0
M  V30 44026 N 2557.24 2.1435 -2.11317 0
M  V30 44027 N 2557.5 3.28784 -0.119316 0
M  V30 44028 C 2557.62 3.0977 1.22194 0
M  V30 44029 H 2560.6 7.45574 4.45629 0
M  V30 44030 H 2560.88 5.86232 3.67314 0
M  V30 44031 H 2560.01 7.84412 2.24479 0
M  V30 44032 P 2556.04 8.7635 1.60911 0
M  V30 44033 O 2555.82 10.1388 1.11561 0
M  V30 44034 O 2555.25 8.36503 2.79617 0
M  V30 44035 O 2555.79 7.71806 0.42951 0
M  V30 44036 C 2556.73 7.67148 -0.673689 0
M  V30 44037 C 2556 7.33374 -1.95559 0
M  V30 44038 O 2555.79 5.88721 -2.00726 0
M  V30 44039 C 2554.6 7.92526 -2.10483 0
M  V30 44040 O 2554.21 8.02971 -3.47653 0
M  V30 44041 C 2553.72 6.89602 -1.41652 0
M  V30 44042 C 2554.43 5.59201 -1.75185 0
M  V30 44043 N 2554.38 4.58301 -0.657969 0
M  V30 44044 H 2557.22 8.65116 -0.777161 0
M  V30 44045 H 2557.5 6.9022 -0.46725 0
M  V30 44046 H 2556.63 7.66548 -2.79458 0
M  V30 44047 H 2553.97 5.16165 -2.65183 0
M  V30 44048 H 2553.69 7.06433 -0.329384 0
M  V30 44049 H 2552.7 6.90926 -1.82021 0
M  V30 44050 H 2554.54 8.90873 -1.62657 0
M  V30 44051 P 2552.66 8.03563 -3.84925 0
M  V30 44052 O 2552.44 8.85821 -5.0569 0
M  V30 44053 O 2551.87 8.41101 -2.65469 0
M  V30 44054 O 2552.41 6.4965 -4.18908 0
M  V30 44055 C 2553.35 5.81037 -5.05421 0
M  V30 44056 C 2552.62 4.78366 -5.89277 0
M  V30 44057 O 2552.41 3.58302 -5.08433 0
M  V30 44058 C 2551.22 5.17448 -6.36119 0
M  V30 44059 O 2550.83 4.45271 -7.53232 0
M  V30 44060 C 2550.34 4.74639 -5.19936 0
M  V30 44061 C 2551.05 3.49432 -4.70418 0
M  V30 44062 N 2551 3.32099 -3.22613 0
M  V30 44063 H 2553.84 6.54213 -5.71376 0
M  V30 44064 H 2554.12 5.30936 -4.43503 0
M  V30 44065 H 2553.25 4.55889 -6.76652 0
M  V30 44066 H 2550.59 2.61715 -5.17932 0
M  V30 44067 H 2550.31 5.52155 -4.41878 0
M  V30 44068 H 2549.32 4.51981 -5.53374 0
M  V30 44069 H 2551.16 6.25124 -6.55234 0
M  V30 44070 P 2549.28 4.23843 -7.83734 0
M  V30 44071 O 2549.06 4.19407 -9.29784 0
M  V30 44072 O 2548.49 5.24426 -7.09156 0
M  V30 44073 O 2549.03 2.7935 -7.20758 0
M  V30 44074 C 2549.97 1.7299 -7.50419 0
M  V30 44075 C 2549.24 0.406376 -7.57911 0
M  V30 44076 O 2549.03 -0.0897726 -6.21935 0
M  V30 44077 C 2547.84 0.447224 -8.1878 0
M  V30 44078 O 2547.45 -0.825065 -8.71101 0
M  V30 44079 C 2546.96 0.783801 -6.99623 0
M  V30 44080 C 2547.67 0.0619192 -5.85967 0
M  V30 44081 N 2547.62 0.7859 -4.56281 0
M  V30 44082 H 2550.46 1.93423 -8.4679 0
M  V30 44083 H 2550.74 1.68181 -6.71046 0
M  V30 44084 H 2549.87 -0.289041 -8.15388 0
M  V30 44085 P 2545.9 -1.17771 -8.83182 0
M  V30 44086 O 2545.68 -2.07206 -9.98732 0
M  V30 44087 O 2545.11 0.0743816 -8.81969 0
M  V30 44088 O 2545.65 -1.97652 -7.47304 0
M  V30 44089 C 2546.59 -3.01133 -7.08783 0
M  V30 44090 C 2545.86 -4.12613 -6.37049 0
M  V30 44091 O 2545.65 -3.72827 -4.97879 0
M  V30 44092 C 2544.46 -4.45085 -6.88694 0
M  V30 44093 O 2544.07 -5.7877 -6.5624 0
M  V30 44094 C 2543.58 -3.47817 -6.12078 0
M  V30 44095 C 2544.29 -3.39414 -4.77697 0
M  V30 44096 N 2544.24 -2.04615 -4.15333 0
M  V30 44097 H 2547.08 -3.41248 -7.98759 0
M  V30 44098 H 2547.36 -2.5837 -6.41742 0
M  V30 44099 H 2546.49 -5.02657 -6.42673 0
M  V30 44100 P 2542.52 -6.144 -6.45285 0
M  V30 44101 O 2542.3 -7.54673 -6.86199 0
M  V30 44102 O 2541.73 -5.12391 -7.179 0
M  V30 44103 O 2542.27 -5.99158 -4.88404 0
M  V30 44104 C 2543.21 -6.60062 -3.96313 0
M  V30 44105 C 2542.48 -7.08259 -2.72856 0
M  V30 44106 O 2542.27 -5.9427 -1.83651 0
M  V30 44107 C 2541.08 -7.65087 -2.94749 0
M  V30 44108 O 2540.69 -8.53963 -1.90717 0
M  V30 44109 C 2540.2 -6.41069 -2.90698 0
M  V30 44110 C 2540.91 -5.5528 -1.86931 0
M  V30 44111 N 2540.86 -4.09575 -2.15696 0
M  V30 44112 C 2540.71 -3.24249 -1.08435 0
M  V30 44113 O 2540.62 -3.63946 0.0628747 0
M  V30 44114 N 2540.67 -1.90009 -1.39973 0
M  V30 44115 C 2540.76 -1.34884 -2.65614 0
M  V30 44116 O 2540.71 -0.123716 -2.81728 0
M  V30 44117 C 2540.91 -2.3145 -3.71736 0
M  V30 44118 C 2541.02 -1.75913 -5.10438 0
M  V30 44119 C 2540.96 -3.63518 -3.44754 0
M  V30 44120 H 2543.71 -7.45402 -4.45526 0
M  V30 44121 H 2543.97 -5.86062 -3.67208 0
M  V30 44122 H 2543.11 -7.84412 -2.24479 0
M  V30 44123 H 2540.45 -5.73358 -0.888409 0
M  V30 44124 H 2540.17 -5.90877 -3.88583 0
M  V30 44125 H 2539.18 -6.65867 -2.58821 0
M  V30 44126 H 2541.02 -8.16248 -3.92006 0
M  V30 44127 H 2541.09 -4.34551 -4.26383 0
M  V30 44128 H 2540.06 -1.85471 -5.61775 0
M  V30 44129 H 2541.79 -2.31364 -5.66257 0
M  V30 44130 H 2541.31 -0.695936 -5.05229 0
M  V30 44131 H 2540.57 -1.26277 -0.63625 0
M  V30 44132 P 2539.15 -8.7635 -1.60911 0
M  V30 44133 O 2538.93 -10.1388 -1.11561 0
M  V30 44134 O 2538.36 -8.36503 -2.79617 0
M  V30 44135 O 2538.9 -7.71806 -0.42951 0
M  V30 44136 C 2539.84 -7.67148 0.673689 0
M  V30 44137 C 2539.11 -7.33374 1.95559 0
M  V30 44138 O 2538.9 -5.88721 2.00726 0
M  V30 44139 C 2537.71 -7.92526 2.10483 0
M  V30 44140 O 2537.32 -8.02971 3.47653 0
M  V30 44141 C 2536.83 -6.89602 1.41652 0
M  V30 44142 C 2537.54 -5.59201 1.75185 0
M  V30 44143 N 2537.49 -4.58235 0.662552 0
M  V30 44144 H 2540.32 -8.65116 0.777161 0
M  V30 44145 H 2540.6 -6.90173 0.474152 0
M  V30 44146 H 2539.73 -7.66548 2.79458 0
M  V30 44147 P 2535.77 -8.03563 3.84925 0
M  V30 44148 O 2535.55 -8.85821 5.0569 0
M  V30 44149 O 2534.98 -8.41101 2.65469 0
M  V30 44150 O 2535.52 -6.4965 4.18908 0
M  V30 44151 C 2536.46 -5.81037 5.05421 0
M  V30 44152 C 2535.73 -4.78366 5.89277 0
M  V30 44153 O 2535.52 -3.58302 5.08433 0
M  V30 44154 C 2534.33 -5.17448 6.36119 0
M  V30 44155 O 2533.94 -4.45271 7.53232 0
M  V30 44156 C 2533.45 -4.74639 5.19936 0
M  V30 44157 C 2534.16 -3.49432 4.70418 0
M  V30 44158 N 2534.11 -3.32099 3.22613 0
M  V30 44159 H 2536.94 -6.54213 5.71376 0
M  V30 44160 H 2537.22 -5.30936 4.43503 0
M  V30 44161 H 2536.35 -4.55889 6.76652 0
M  V30 44162 H 2533.69 -2.61715 5.17932 0
M  V30 44163 H 2533.41 -5.52155 4.41878 0
M  V30 44164 H 2532.42 -4.51981 5.53374 0
M  V30 44165 H 2534.26 -6.25124 6.55234 0
M  V30 44166 P 2532.39 -4.23843 7.83734 0
M  V30 44167 O 2532.17 -4.19407 9.29784 0
M  V30 44168 O 2531.6 -5.24426 7.09156 0
M  V30 44169 O 2532.14 -2.79386 7.20852 0
M  V30 44170 C 2533.08 -1.7299 7.50419 0
M  V30 44171 C 2532.35 -0.41401 7.5797 0
M  V30 44172 O 2532.14 0.089787 6.22035 0
M  V30 44173 C 2530.95 -0.447224 8.1878 0
M  V30 44174 O 2530.56 0.825159 8.71201 0
M  V30 44175 C 2530.07 -0.783801 6.99623 0
M  V30 44176 C 2530.78 -0.0619192 5.85967 0
M  V30 44177 N 2530.73 -0.7859 4.56281 0
M  V30 44178 C 2530.58 -0.0359258 3.39981 0
M  V30 44179 O 2530.49 1.19723 3.49038 0
M  V30 44180 N 2530.53 -0.869151 2.14025 0
M  V30 44181 C 2530.63 -2.01207 2.14363 0
M  V30 44182 N 2530.58 -2.58978 0.954287 0
M  V30 44183 C 2530.78 -2.80817 3.32215 0
M  V30 44184 C 2530.83 -2.13785 4.50884 0
M  V30 44185 H 2533.57 -1.93401 8.46693 0
M  V30 44186 H 2533.84 -1.68181 6.71046 0
M  V30 44187 H 2532.97 0.289076 8.15488 0
M  V30 44188 H 2530.31 0.927166 5.72947 0
M  V30 44189 H 2530.03 -1.87 6.82132 0
M  V30 44190 H 2529.04 -0.404009 7.13457 0
M  V30 44191 H 2530.88 -1.20599 8.97534 0
M  V30 44192 H 2530.95 -2.70295 5.43162 0
M  V30 44193 H 2530.85 -3.89465 3.27406 0
M  V30 44194 H 2530.46 -2.01616 0.107046 0
M  V30 44195 H 2530.65 -3.61403 0.873101 0
M  V30 44196 P 2529.01 1.17771 8.83182 0
M  V30 44197 O 2528.79 2.07206 9.98732 0
M  V30 44198 O 2528.22 -0.0743816 8.81969 0
M  V30 44199 O 2528.76 1.97652 7.47304 0
M  V30 44200 C 2529.7 3.01055 7.08599 0
M  V30 44201 C 2528.97 4.12613 6.37049 0
M  V30 44202 O 2528.76 3.72827 4.97879 0
M  V30 44203 C 2527.57 4.45719 6.88164 0
M  V30 44204 O 2527.18 5.7877 6.5624 0
M  V30 44205 C 2526.69 3.47768 6.11991 0
M  V30 44206 C 2527.4 3.39356 4.77615 0
M  V30 44207 N 2527.35 2.04571 4.15244 0
M  V30 44208 C 2527.2 1.98587 2.78314 0
M  V30 44209 O 2527.11 2.98134 2.08835 0
M  V30 44210 N 2527.16 0.714467 2.24925 0
M  V30 44211 C 2527.25 -0.470001 2.94169 0
M  V30 44212 O 2527.2 -1.55587 2.35195 0
M  V30 44213 C 2527.4 -0.312541 4.36783 0
M  V30 44214 C 2527.51 -1.57711 5.16352 0
M  V30 44215 C 2527.45 0.914512 4.92583 0
M  V30 44216 H 2530.19 3.41169 7.98575 0
M  V30 44217 H 2530.46 2.58295 6.41556 0
M  V30 44218 H 2529.59 5.02657 6.42673 0
M  V30 44219 H 2526.93 4.11637 4.08885 0
M  V30 44220 H 2526.65 2.49626 6.61679 0
M  V30 44221 H 2525.66 3.86566 6.00778 0
M  V30 44222 H 2527.5 4.29943 7.96918 0
M  V30 44223 H 2527.57 1.00937 6.00374 0
M  V30 44224 H 2526.54 -1.80153 5.63503 0
M  V30 44225 H 2528.27 -1.4566 5.94104 0
M  V30 44226 H 2527.79 -2.40664 4.49645 0
M  V30 44227 H 2527.05 0.647622 1.25697 0
M  V30 44228 P 2525.63 6.144 6.45285 0
M  V30 44229 O 2525.41 7.54673 6.86199 0
M  V30 44230 O 2524.84 5.12391 7.179 0
M  V30 44231 O 2525.38 5.99158 4.88404 0
M  V30 44232 C 2526.32 6.60234 3.96415 0
M  V30 44233 C 2525.59 7.08259 2.72856 0
M  V30 44234 O 2525.38 5.9427 1.83651 0
M  V30 44235 C 2524.19 7.64886 2.9555 0
M  V30 44236 O 2523.8 8.53963 1.90717 0
M  V30 44237 C 2523.31 6.4116 2.90739 0
M  V30 44238 C 2524.02 5.55375 1.86963 0
M  V30 44239 N 2523.97 4.09664 2.15742 0
M  V30 44240 H 2526.8 7.45574 4.45629 0
M  V30 44241 H 2527.08 5.86232 3.67314 0
M  V30 44242 H 2526.21 7.84412 2.24479 0
M  V30 44243 P 2522.25 8.7635 1.60911 0
M  V30 44244 O 2522.03 10.1388 1.11561 0
M  V30 44245 O 2521.46 8.36503 2.79617 0
M  V30 44246 O 2522 7.71806 0.42951 0
M  V30 44247 C 2522.94 7.67148 -0.673689 0
M  V30 44248 C 2522.21 7.33374 -1.95559 0
M  V30 44249 O 2522 5.88721 -2.00726 0
M  V30 44250 C 2520.81 7.92526 -2.10483 0
M  V30 44251 O 2520.42 8.02971 -3.47653 0
M  V30 44252 C 2519.93 6.89602 -1.41652 0
M  V30 44253 C 2520.64 5.59201 -1.75185 0
M  V30 44254 N 2520.59 4.58235 -0.662552 0
M  V30 44255 H 2523.42 8.65116 -0.777161 0
M  V30 44256 H 2523.7 6.90173 -0.474152 0
M  V30 44257 H 2522.83 7.66548 -2.79458 0
M  V30 44258 P 2518.87 8.03563 -3.84925 0
M  V30 44259 O 2518.65 8.85821 -5.0569 0
M  V30 44260 O 2518.08 8.41101 -2.65469 0
M  V30 44261 O 2518.62 6.4965 -4.18908 0
M  V30 44262 C 2519.56 5.80886 -5.05289 0
M  V30 44263 C 2518.83 4.78366 -5.89277 0
M  V30 44264 O 2518.62 3.58302 -5.08433 0
M  V30 44265 C 2517.43 5.16748 -6.36559 0
M  V30 44266 O 2517.04 4.45271 -7.53232 0
M  V30 44267 C 2516.55 4.74572 -5.19863 0
M  V30 44268 C 2517.26 3.49373 -4.70338 0
M  V30 44269 N 2517.21 3.31704 -3.22876 0
M  V30 44270 C 2517.06 2.03326 -2.74871 0
M  V30 44271 O 2516.97 1.06486 -3.48076 0
M  V30 44272 N 2517.02 1.91838 -1.37456 0
M  V30 44273 C 2517.11 2.94295 -0.462035 0
M  V30 44274 O 2517.06 2.71763 0.752928 0
M  V30 44275 C 2517.26 4.25064 -1.05249 0
M  V30 44276 C 2517.37 5.39815 -0.095697 0
M  V30 44277 C 2517.31 4.40214 -2.39192 0
M  V30 44278 H 2520.05 6.54063 -5.71245 0
M  V30 44279 H 2520.32 5.30339 -4.43905 0
M  V30 44280 H 2519.45 4.55889 -6.76652 0
M  V30 44281 H 2516.79 2.6167 -5.17842 0
M  V30 44282 H 2516.51 5.52155 -4.41878 0
M  V30 44283 H 2515.52 4.51918 -5.53297 0
M  V30 44284 H 2517.36 6.25055 -6.55162 0
M  V30 44285 H 2517.43 5.39798 -2.81523 0
M  V30 44286 H 2516.4 5.91593 -0.0279582 0
M  V30 44287 H 2518.13 6.10038 -0.450573 0
M  V30 44288 H 2517.65 5.02007 0.89937 0
M  V30 44289 H 2516.91 0.995326 -1.00435 0
M  V30 44290 P 2515.49 4.23843 -7.83734 0
M  V30 44291 O 2515.27 4.19407 -9.29784 0
M  V30 44292 O 2514.7 5.24426 -7.09156 0
M  V30 44293 O 2515.24 2.7935 -7.20758 0
M  V30 44294 C 2516.18 1.7299 -7.50419 0
M  V30 44295 C 2515.45 0.406376 -7.57911 0
M  V30 44296 O 2515.24 -0.0897726 -6.21935 0
M  V30 44297 C 2514.05 0.447224 -8.1878 0
M  V30 44298 O 2513.66 -0.825065 -8.71101 0
M  V30 44299 C 2513.17 0.783801 -6.99623 0
M  V30 44300 C 2513.88 0.0619192 -5.85967 0
M  V30 44301 N 2513.83 0.7859 -4.56281 0
M  V30 44302 H 2516.66 1.93423 -8.4679 0
M  V30 44303 H 2516.94 1.68181 -6.71046 0
M  V30 44304 H 2516.07 -0.289041 -8.15388 0
M  V30 44305 P 2512.11 -1.17771 -8.83182 0
M  V30 44306 O 2511.89 -2.07206 -9.98732 0
M  V30 44307 O 2511.32 0.0743816 -8.81969 0
M  V30 44308 O 2511.86 -1.97652 -7.47304 0
M  V30 44309 C 2512.8 -3.01133 -7.08783 0
M  V30 44310 C 2512.07 -4.12613 -6.37049 0
M  V30 44311 O 2511.86 -3.72827 -4.97879 0
M  V30 44312 C 2510.67 -4.45085 -6.88694 0
M  V30 44313 O 2510.28 -5.7877 -6.5624 0
M  V30 44314 C 2509.79 -3.47817 -6.12078 0
M  V30 44315 C 2510.5 -3.39414 -4.77697 0
M  V30 44316 N 2510.45 -2.04199 -4.15538 0
M  V30 44317 H 2513.28 -3.41248 -7.98759 0
M  V30 44318 H 2513.56 -2.57728 -6.42 0
M  V30 44319 H 2512.69 -5.02657 -6.42673 0
M  V30 44320 H 2510.03 -4.11708 -4.08956 0
M  V30 44321 H 2509.75 -2.49626 -6.61679 0
M  V30 44322 H 2508.76 -3.8662 -6.00862 0
M  V30 44323 H 2510.6 -4.29991 -7.97006 0
M  V30 44324 P 2508.73 -6.144 -6.45285 0
M  V30 44325 O 2508.51 -7.54673 -6.86199 0
M  V30 44326 O 2507.94 -5.12391 -7.179 0
M  V30 44327 O 2508.48 -5.99158 -4.88404 0
M  V30 44328 C 2509.42 -6.60234 -3.96415 0
M  V30 44329 C 2508.69 -7.08259 -2.72856 0
M  V30 44330 O 2508.48 -5.9427 -1.83651 0
M  V30 44331 C 2507.29 -7.64886 -2.9555 0
M  V30 44332 O 2506.9 -8.53963 -1.90717 0
M  V30 44333 C 2506.41 -6.4116 -2.90739 0
M  V30 44334 C 2507.12 -5.55375 -1.86963 0
M  V30 44335 N 2507.07 -4.09664 -2.15742 0
M  V30 44336 H 2509.9 -7.45574 -4.45629 0
M  V30 44337 H 2510.18 -5.86232 -3.67314 0
M  V30 44338 H 2509.31 -7.84412 -2.24479 0
M  V30 44339 P 2505.35 -8.7635 -1.60911 0
M  V30 44340 O 2505.13 -10.1388 -1.11561 0
M  V30 44341 O 2504.56 -8.36503 -2.79617 0
M  V30 44342 O 2505.1 -7.71806 -0.42951 0
M  V30 44343 C 2506.04 -7.67148 0.673689 0
M  V30 44344 C 2505.31 -7.33374 1.95559 0
M  V30 44345 O 2505.1 -5.88721 2.00726 0
M  V30 44346 C 2503.91 -7.92526 2.10483 0
M  V30 44347 O 2503.52 -8.02971 3.47653 0
M  V30 44348 C 2503.03 -6.89602 1.41652 0
M  V30 44349 C 2503.74 -5.59201 1.75185 0
M  V30 44350 N 2503.69 -4.58235 0.662552 0
M  V30 44351 H 2506.52 -8.65116 0.777161 0
M  V30 44352 H 2506.8 -6.90173 0.474152 0
M  V30 44353 H 2505.93 -7.66548 2.79458 0
M  V30 44354 P 2501.97 -8.03563 3.84925 0
M  V30 44355 O 2501.75 -8.85821 5.0569 0
M  V30 44356 O 2501.18 -8.41101 2.65469 0
M  V30 44357 O 2501.72 -6.4965 4.18908 0
M  V30 44358 C 2502.66 -5.80886 5.05289 0
M  V30 44359 C 2501.93 -4.78366 5.89277 0
M  V30 44360 O 2501.72 -3.58302 5.08433 0
M  V30 44361 C 2500.53 -5.16748 6.36559 0
M  V30 44362 O 2500.14 -4.45271 7.53232 0
M  V30 44363 C 2499.65 -4.74572 5.19863 0
M  V30 44364 C 2500.36 -3.49373 4.70338 0
M  V30 44365 N 2500.31 -3.31704 3.22876 0
M  V30 44366 C 2500.16 -2.03326 2.74871 0
M  V30 44367 O 2500.07 -1.06486 3.48076 0
M  V30 44368 N 2500.12 -1.91838 1.37456 0
M  V30 44369 C 2500.21 -2.94295 0.462035 0
M  V30 44370 C 2500.36 -4.25064 1.05249 0
M  V30 44371 C 2500.41 -4.40214 2.39192 0
M  V30 44372 H 2503.15 -6.54063 5.71245 0
M  V30 44373 H 2503.42 -5.30339 4.43905 0
M  V30 44374 H 2502.55 -4.55889 6.76652 0
M  V30 44375 H 2499.89 -2.6167 5.17842 0
M  V30 44376 H 2499.61 -5.52155 4.41878 0
M  V30 44377 H 2498.62 -4.51918 5.53297 0
M  V30 44378 H 2500.46 -6.25055 6.55162 0
M  V30 44379 H 2500.53 -5.39798 2.81523 0
M  V30 44380 P 2498.59 -4.23843 7.83734 0
M  V30 44381 O 2498.37 -4.19407 9.29784 0
M  V30 44382 O 2497.8 -5.24426 7.09156 0
M  V30 44383 O 2498.34 -2.7935 7.20758 0
M  V30 44384 C 2499.28 -1.7299 7.50419 0
M  V30 44385 C 2498.55 -0.406376 7.57911 0
M  V30 44386 O 2498.34 0.0897726 6.21935 0
M  V30 44387 C 2497.15 -0.447224 8.1878 0
M  V30 44388 O 2496.76 0.825065 8.71101 0
M  V30 44389 C 2496.27 -0.783801 6.99623 0
M  V30 44390 C 2496.98 -0.0619192 5.85967 0
M  V30 44391 N 2496.93 -0.790462 4.56202 0
M  V30 44392 H 2499.76 -1.93423 8.4679 0
M  V30 44393 H 2500.04 -1.68852 6.70877 0
M  V30 44394 H 2499.17 0.289041 8.15388 0
M  V30 44395 H 2496.51 0.927006 5.72848 0
M  V30 44396 H 2496.23 -1.86973 6.82036 0
M  V30 44397 H 2495.24 -0.403953 7.13357 0
M  V30 44398 H 2497.08 -1.20599 8.97534 0
M  V30 44399 P 2495.21 1.17771 8.83182 0
M  V30 44400 O 2494.99 2.07206 9.98732 0
M  V30 44401 O 2494.42 -0.0743816 8.81969 0
M  V30 44402 O 2494.96 1.97652 7.47304 0
M  V30 44403 C 2495.9 3.01133 7.08783 0
M  V30 44404 C 2495.17 4.12613 6.37049 0
M  V30 44405 O 2494.96 3.72827 4.97879 0
M  V30 44406 C 2493.77 4.45085 6.88694 0
M  V30 44407 O 2493.38 5.7877 6.5624 0
M  V30 44408 C 2492.89 3.47817 6.12078 0
M  V30 44409 C 2493.6 3.39414 4.77697 0
M  V30 44410 N 2493.55 2.04199 4.15538 0
M  V30 44411 H 2496.38 3.41248 7.98759 0
M  V30 44412 H 2496.66 2.57728 6.42 0
M  V30 44413 H 2495.79 5.02657 6.42673 0
M  V30 44414 H 2493.13 4.11708 4.08956 0
M  V30 44415 H 2492.85 2.49626 6.61679 0
M  V30 44416 H 2491.86 3.8662 6.00862 0
M  V30 44417 H 2493.7 4.29991 7.97006 0
M  V30 44418 P 2491.83 6.144 6.45285 0
M  V30 44419 O 2491.61 7.54673 6.86199 0
M  V30 44420 O 2491.04 5.12391 7.179 0
M  V30 44421 O 2491.58 5.99158 4.88404 0
M  V30 44422 C 2492.52 6.60234 3.96415 0
M  V30 44423 C 2491.79 7.08259 2.72856 0
M  V30 44424 O 2491.58 5.9427 1.83651 0
M  V30 44425 C 2490.39 7.64886 2.9555 0
M  V30 44426 O 2490 8.53963 1.90717 0
M  V30 44427 C 2489.51 6.4116 2.90739 0
M  V30 44428 C 2490.22 5.55375 1.86963 0
M  V30 44429 N 2490.17 4.09664 2.15742 0
M  V30 44430 H 2493 7.45574 4.45629 0
M  V30 44431 H 2493.28 5.86232 3.67314 0
M  V30 44432 H 2492.41 7.84412 2.24479 0
M  V30 44433 P 2488.45 8.7635 1.60911 0
M  V30 44434 O 2488.23 10.1388 1.11561 0
M  V30 44435 O 2487.66 8.36503 2.79617 0
M  V30 44436 O 2488.2 7.71806 0.42951 0
M  V30 44437 C 2489.14 7.66948 -0.673514 0
M  V30 44438 C 2488.41 7.33374 -1.95559 0
M  V30 44439 O 2488.2 5.88721 -2.00726 0
M  V30 44440 C 2487.01 7.92218 -2.1125 0
M  V30 44441 O 2486.62 8.02971 -3.47653 0
M  V30 44442 C 2486.13 6.89504 -1.41631 0
M  V30 44443 C 2486.84 5.59106 -1.75155 0
M  V30 44444 N 2486.79 4.58136 -0.662409 0
M  V30 44445 C 2486.64 3.26059 -1.02863 0
M  V30 44446 O 2486.55 2.90743 -2.19009 0
M  V30 44447 N 2486.6 2.35995 0.0155585 0
M  V30 44448 C 2486.69 2.65248 1.35603 0
M  V30 44449 C 2486.84 4.05747 1.64698 0
M  V30 44450 C 2486.89 4.96734 0.652411 0
M  V30 44451 H 2489.63 8.64917 -0.776982 0
M  V30 44452 H 2489.9 6.89974 -0.474015 0
M  V30 44453 H 2489.03 7.66548 -2.79458 0
M  V30 44454 H 2486.37 5.16076 -2.65138 0
M  V30 44455 H 2486.09 7.06433 -0.329384 0
M  V30 44456 H 2485.1 6.90829 -1.81996 0
M  V30 44457 H 2486.94 8.90774 -1.62639 0
M  V30 44458 H 2487.01 6.02181 0.895285 0
M  V30 44459 P 2485.07 8.03563 -3.84925 0
M  V30 44460 O 2484.85 8.85821 -5.0569 0
M  V30 44461 O 2484.28 8.41101 -2.65469 0
M  V30 44462 O 2484.82 6.4965 -4.18908 0
M  V30 44463 C 2485.76 5.81037 -5.05421 0
M  V30 44464 C 2485.03 4.78366 -5.89277 0
M  V30 44465 O 2484.82 3.58302 -5.08433 0
M  V30 44466 C 2483.63 5.17448 -6.36119 0
M  V30 44467 O 2483.24 4.45271 -7.53232 0
M  V30 44468 C 2482.75 4.74639 -5.19936 0
M  V30 44469 C 2483.46 3.49432 -4.70418 0
M  V30 44470 N 2483.41 3.32099 -3.22613 0
M  V30 44471 H 2486.24 6.54213 -5.71376 0
M  V30 44472 H 2486.52 5.30936 -4.43503 0
M  V30 44473 H 2485.65 4.55889 -6.76652 0
M  V30 44474 H 2482.99 2.61715 -5.17932 0
M  V30 44475 H 2482.71 5.52155 -4.41878 0
M  V30 44476 H 2481.72 4.51981 -5.53374 0
M  V30 44477 H 2483.56 6.25124 -6.55234 0
M  V30 44478 P 2481.69 4.23843 -7.83734 0
M  V30 44479 O 2481.47 4.19407 -9.29784 0
M  V30 44480 O 2480.9 5.24426 -7.09156 0
M  V30 44481 O 2481.44 2.7935 -7.20758 0
M  V30 44482 C 2482.38 1.7299 -7.50419 0
M  V30 44483 C 2481.65 0.406376 -7.57911 0
M  V30 44484 O 2481.44 -0.0897726 -6.21935 0
M  V30 44485 C 2480.25 0.447224 -8.1878 0
M  V30 44486 O 2479.86 -0.825065 -8.71101 0
M  V30 44487 C 2479.37 0.783801 -6.99623 0
M  V30 44488 C 2480.08 0.0619192 -5.85967 0
M  V30 44489 N 2480.03 0.7859 -4.56281 0
M  V30 44490 H 2482.86 1.93423 -8.4679 0
M  V30 44491 H 2483.14 1.68181 -6.71046 0
M  V30 44492 H 2482.27 -0.289041 -8.15388 0
M  V30 44493 P 2478.31 -1.17771 -8.83182 0
M  V30 44494 O 2478.09 -2.07206 -9.98732 0
M  V30 44495 O 2477.52 0.0743816 -8.81969 0
M  V30 44496 O 2478.06 -1.97652 -7.47304 0
M  V30 44497 C 2479 -3.01133 -7.08783 0
M  V30 44498 C 2478.27 -4.12613 -6.37049 0
M  V30 44499 O 2478.06 -3.72827 -4.97879 0
M  V30 44500 C 2476.87 -4.45085 -6.88694 0
M  V30 44501 O 2476.48 -5.7877 -6.5624 0
M  V30 44502 C 2475.99 -3.47817 -6.12078 0
M  V30 44503 C 2476.7 -3.39414 -4.77697 0
M  V30 44504 N 2476.65 -2.04615 -4.15333 0
M  V30 44505 C 2476.73 -0.803897 -4.75249 0
M  V30 44506 N 2476.65 0.197615 -3.91502 0
M  V30 44507 C 2476.51 -0.413002 -2.66823 0
M  V30 44508 C 2476.38 0.157221 -1.38007 0
M  V30 44509 O 2476.36 1.34419 -1.057 0
M  V30 44510 N 2476.26 -0.833136 -0.390236 0
M  V30 44511 C 2476.26 -2.19402 -0.623885 0
M  V30 44512 N 2476.13 -2.97622 0.449677 0
M  V30 44513 N 2476.39 -2.73005 -1.83601 0
M  V30 44514 C 2476.51 -1.78786 -2.80935 0
M  V30 44515 H 2479.48 -3.41248 -7.98759 0
M  V30 44516 H 2479.76 -2.5837 -6.41742 0
M  V30 44517 H 2478.89 -5.02657 -6.42673 0
M  V30 44518 H 2476.23 -4.11779 -4.09026 0
M  V30 44519 H 2475.95 -2.49661 -6.61772 0
M  V30 44520 H 2474.96 -3.86674 -6.00946 0
M  V30 44521 H 2476.8 -4.30038 -7.97094 0
M  V30 44522 H 2476.85 -0.670579 -5.82754 0
M  V30 44523 H 2476.16 -0.528446 0.557287 0
M  V30 44524 H 2476.13 -4.00117 0.344773 0
M  V30 44525 H 2476.03 -2.55448 1.38544 0
M  V30 44526 P 2474.93 -6.144 -6.45285 0
M  V30 44527 O 2474.71 -7.54673 -6.86199 0
M  V30 44528 O 2474.14 -5.12391 -7.179 0
M  V30 44529 O 2474.68 -5.99158 -4.88404 0
M  V30 44530 C 2475.62 -6.60234 -3.96415 0
M  V30 44531 C 2474.89 -7.08259 -2.72856 0
M  V30 44532 O 2474.68 -5.9427 -1.83651 0
M  V30 44533 C 2473.49 -7.64886 -2.9555 0
M  V30 44534 O 2473.1 -8.53963 -1.90717 0
M  V30 44535 C 2472.61 -6.4116 -2.90739 0
M  V30 44536 C 2473.32 -5.55375 -1.86963 0
M  V30 44537 N 2473.27 -4.09448 -2.16152 0
M  V30 44538 C 2473.35 -3.46824 -3.37593 0
M  V30 44539 N 2473.28 -2.17422 -3.29777 0
M  V30 44540 C 2473.13 -1.93065 -1.94427 0
M  V30 44541 C 2473 -0.738053 -1.20141 0
M  V30 44542 N 2472.99 0.474256 -1.74676 0
M  V30 44543 N 2472.88 -0.850049 0.13045 0
M  V30 44544 C 2472.89 -2.06169 0.676992 0
M  V30 44545 N 2473.01 -3.23842 0.101312 0
M  V30 44546 C 2473.13 -3.09402 -1.23122 0
M  V30 44547 H 2476.1 -7.45574 -4.45629 0
M  V30 44548 H 2476.38 -5.85864 -3.679 0
M  V30 44549 H 2475.51 -7.84412 -2.24479 0
M  V30 44550 H 2472.85 -5.73457 -0.888562 0
M  V30 44551 H 2472.57 -5.90877 -3.88583 0
M  V30 44552 H 2471.58 -6.6596 -2.58858 0
M  V30 44553 H 2473.42 -8.16339 -3.92049 0
M  V30 44554 H 2473.46 -4.00505 -4.3174 0
M  V30 44555 H 2473.08 0.581337 -2.76658 0
M  V30 44556 H 2472.89 1.30811 -1.14888 0
M  V30 44557 H 2472.78 -2.08295 1.75542 0
M  V30 44558 P 2471.55 -8.7635 -1.60911 0
M  V30 44559 O 2471.33 -10.1388 -1.11561 0
M  V30 44560 O 2470.76 -8.36503 -2.79617 0
M  V30 44561 O 2471.3 -7.71806 -0.42951 0
M  V30 44562 C 2472.24 -7.67148 0.673689 0
M  V30 44563 C 2471.51 -7.33374 1.95559 0
M  V30 44564 O 2471.3 -5.88721 2.00726 0
M  V30 44565 C 2470.11 -7.92526 2.10483 0
M  V30 44566 O 2469.72 -8.02971 3.47653 0
M  V30 44567 C 2469.23 -6.89602 1.41652 0
M  V30 44568 C 2469.94 -5.59201 1.75185 0
M  V30 44569 N 2469.89 -4.58235 0.662552 0
M  V30 44570 H 2472.72 -8.65116 0.777161 0
M  V30 44571 H 2473 -6.90173 0.474152 0
M  V30 44572 H 2472.13 -7.66548 2.79458 0
M  V30 44573 P 2468.17 -8.03563 3.84925 0
M  V30 44574 O 2467.95 -8.85821 5.0569 0
M  V30 44575 O 2467.38 -8.41101 2.65469 0
M  V30 44576 O 2467.92 -6.4965 4.18908 0
M  V30 44577 C 2468.86 -5.81037 5.05421 0
M  V30 44578 C 2468.13 -4.78366 5.89277 0
M  V30 44579 O 2467.92 -3.58302 5.08433 0
M  V30 44580 C 2466.73 -5.17448 6.36119 0
M  V30 44581 O 2466.34 -4.45271 7.53232 0
M  V30 44582 C 2465.85 -4.74639 5.19936 0
M  V30 44583 C 2466.56 -3.49432 4.70418 0
M  V30 44584 N 2466.51 -3.31776 3.22945 0
M  V30 44585 H 2469.34 -6.54213 5.71376 0
M  V30 44586 H 2469.62 -5.30492 4.44033 0
M  V30 44587 H 2468.75 -4.55889 6.76652 0
M  V30 44588 P 2464.79 -4.23843 7.83734 0
M  V30 44589 O 2464.57 -4.19407 9.29784 0
M  V30 44590 O 2464 -5.24426 7.09156 0
M  V30 44591 O 2464.54 -2.7935 7.20758 0
M  V30 44592 C 2465.48 -1.7299 7.50419 0
M  V30 44593 C 2464.75 -0.406376 7.57911 0
M  V30 44594 O 2464.54 0.0897726 6.21935 0
M  V30 44595 C 2463.35 -0.447224 8.1878 0
M  V30 44596 O 2462.96 0.825065 8.71101 0
M  V30 44597 C 2462.47 -0.783801 6.99623 0
M  V30 44598 C 2463.18 -0.0619192 5.85967 0
M  V30 44599 N 2463.13 -0.7859 4.56281 0
M  V30 44600 H 2465.96 -1.93423 8.4679 0
M  V30 44601 H 2466.24 -1.68181 6.71046 0
M  V30 44602 H 2465.37 0.289041 8.15388 0
M  V30 44603 P 2461.41 1.17771 8.83182 0
M  V30 44604 O 2461.19 2.07206 9.98732 0
M  V30 44605 O 2460.62 -0.0743816 8.81969 0
M  V30 44606 O 2461.16 1.97652 7.47304 0
M  V30 44607 C 2462.1 3.01133 7.08783 0
M  V30 44608 C 2461.37 4.12613 6.37049 0
M  V30 44609 O 2461.16 3.72827 4.97879 0
M  V30 44610 C 2459.97 4.45085 6.88694 0
M  V30 44611 O 2459.58 5.7877 6.5624 0
M  V30 44612 C 2459.09 3.47817 6.12078 0
M  V30 44613 C 2459.8 3.39414 4.77697 0
M  V30 44614 N 2459.75 2.04199 4.15538 0
M  V30 44615 H 2462.58 3.41248 7.98759 0
M  V30 44616 H 2462.86 2.57728 6.42 0
M  V30 44617 H 2461.99 5.02657 6.42673 0
M  V30 44618 H 2459.33 4.11708 4.08956 0
M  V30 44619 H 2459.05 2.49626 6.61679 0
M  V30 44620 H 2458.06 3.8662 6.00862 0
M  V30 44621 H 2459.9 4.29991 7.97006 0
M  V30 44622 P 2458.03 6.144 6.45285 0
M  V30 44623 O 2457.81 7.54673 6.86199 0
M  V30 44624 O 2457.24 5.12391 7.179 0
M  V30 44625 O 2457.78 5.99158 4.88404 0
M  V30 44626 C 2458.72 6.60062 3.96313 0
M  V30 44627 C 2457.99 7.08259 2.72856 0
M  V30 44628 O 2457.78 5.9427 1.83651 0
M  V30 44629 C 2456.59 7.65087 2.94749 0
M  V30 44630 O 2456.2 8.53963 1.90717 0
M  V30 44631 C 2455.71 6.41069 2.90698 0
M  V30 44632 C 2456.42 5.5528 1.86931 0
M  V30 44633 N 2456.37 4.09575 2.15696 0
M  V30 44634 C 2456.22 3.24249 1.08435 0
M  V30 44635 O 2456.13 3.63946 -0.0628747 0
M  V30 44636 N 2456.18 1.90009 1.39973 0
M  V30 44637 C 2456.27 1.34884 2.65614 0
M  V30 44638 C 2456.42 2.3145 3.71736 0
M  V30 44639 C 2456.47 3.63518 3.44754 0
M  V30 44640 H 2459.21 7.45402 4.45526 0
M  V30 44641 H 2459.48 5.86062 3.67208 0
M  V30 44642 H 2458.61 7.84412 2.24479 0
M  V30 44643 H 2455.95 5.73358 0.888409 0
M  V30 44644 H 2455.67 5.90877 3.88583 0
M  V30 44645 H 2454.68 6.65867 2.58821 0
M  V30 44646 H 2456.52 8.16248 3.92006 0
M  V30 44647 H 2456.59 4.34551 4.26383 0
M  V30 44648 P 2454.65 8.7635 1.60911 0
M  V30 44649 O 2454.43 10.1388 1.11561 0
M  V30 44650 O 2453.86 8.36503 2.79617 0
M  V30 44651 O 2454.4 7.71806 0.42951 0
M  V30 44652 C 2455.34 7.67148 -0.673689 0
M  V30 44653 C 2454.61 7.33374 -1.95559 0
M  V30 44654 O 2454.4 5.88721 -2.00726 0
M  V30 44655 C 2453.21 7.92526 -2.10483 0
M  V30 44656 O 2452.82 8.02971 -3.47653 0
M  V30 44657 C 2452.33 6.89602 -1.41652 0
M  V30 44658 C 2453.04 5.59201 -1.75185 0
M  V30 44659 N 2452.99 4.58235 -0.662552 0
M  V30 44660 H 2455.82 8.65116 -0.777161 0
M  V30 44661 H 2456.1 6.90173 -0.474152 0
M  V30 44662 H 2455.23 7.66548 -2.79458 0
M  V30 44663 P 2451.27 8.03563 -3.84925 0
M  V30 44664 O 2451.05 8.85821 -5.0569 0
M  V30 44665 O 2450.48 8.41101 -2.65469 0
M  V30 44666 O 2451.02 6.49734 -4.18962 0
M  V30 44667 C 2451.96 5.81037 -5.05421 0
M  V30 44668 C 2451.23 4.79018 -5.88876 0
M  V30 44669 O 2451.02 3.58359 -5.08515 0
M  V30 44670 C 2449.83 5.17448 -6.36119 0
M  V30 44671 O 2449.44 4.45322 -7.53318 0
M  V30 44672 C 2448.95 4.74639 -5.19936 0
M  V30 44673 C 2449.66 3.49432 -4.70418 0
M  V30 44674 N 2449.61 3.31776 -3.22945 0
M  V30 44675 C 2449.46 2.02742 -2.72939 0
M  V30 44676 O 2449.37 1.08301 -3.52749 0
M  V30 44677 N 2449.41 1.96117 -1.22063 0
M  V30 44678 C 2449.51 2.8878 -0.551566 0
M  V30 44679 N 2449.46 2.65609 0.750198 0
M  V30 44680 C 2449.66 4.22457 -1.03707 0
M  V30 44681 C 2449.71 4.37979 -2.39113 0
M  V30 44682 H 2452.45 6.54138 -5.7131 0
M  V30 44683 H 2452.72 5.30492 -4.44033 0
M  V30 44684 H 2451.85 4.55945 -6.76735 0
M  V30 44685 H 2449.19 2.6176 -5.18021 0
M  V30 44686 H 2448.91 5.52233 -4.41941 0
M  V30 44687 H 2447.92 4.52045 -5.53452 0
M  V30 44688 H 2449.76 6.25124 -6.55234 0
M  V30 44689 H 2449.83 5.37936 -2.80552 0
M  V30 44690 H 2449.73 5.07528 -0.359553 0
M  V30 44691 H 2449.34 1.69403 1.09847 0
M  V30 44692 H 2449.53 3.43701 1.41792 0
M  V30 44693 P 2447.89 4.23843 -7.83734 0
M  V30 44694 O 2447.67 4.19407 -9.29784 0
M  V30 44695 O 2447.1 5.24426 -7.09156 0
M  V30 44696 O 2447.64 2.7935 -7.20758 0
M  V30 44697 C 2448.58 1.7299 -7.50419 0
M  V30 44698 C 2447.85 0.406376 -7.57911 0
M  V30 44699 O 2447.64 -0.0897726 -6.21935 0
M  V30 44700 C 2446.45 0.447224 -8.1878 0
M  V30 44701 O 2446.06 -0.825065 -8.71101 0
M  V30 44702 C 2445.57 0.783801 -6.99623 0
M  V30 44703 C 2446.28 0.0619192 -5.85967 0
M  V30 44704 N 2446.23 0.7859 -4.56281 0
M  V30 44705 H 2449.06 1.93423 -8.4679 0
M  V30 44706 H 2449.34 1.68181 -6.71046 0
M  V30 44707 H 2448.47 -0.289041 -8.15388 0
M  V30 44708 P 2444.51 -1.17771 -8.83182 0
M  V30 44709 O 2444.29 -2.07206 -9.98732 0
M  V30 44710 O 2443.72 0.0743816 -8.81969 0
M  V30 44711 O 2444.26 -1.97652 -7.47304 0
M  V30 44712 C 2445.2 -3.01133 -7.08783 0
M  V30 44713 C 2444.47 -4.12613 -6.37049 0
M  V30 44714 O 2444.26 -3.72827 -4.97879 0
M  V30 44715 C 2443.07 -4.45085 -6.88694 0
M  V30 44716 O 2442.68 -5.7877 -6.5624 0
M  V30 44717 C 2442.19 -3.47817 -6.12078 0
M  V30 44718 C 2442.9 -3.39414 -4.77697 0
M  V30 44719 N 2442.85 -2.04199 -4.15538 0
M  V30 44720 H 2445.68 -3.41248 -7.98759 0
M  V30 44721 H 2445.96 -2.57728 -6.42 0
M  V30 44722 H 2445.09 -5.02657 -6.42673 0
M  V30 44723 H 2442.43 -4.11708 -4.08956 0
M  V30 44724 H 2442.15 -2.49626 -6.61679 0
M  V30 44725 H 2441.16 -3.8662 -6.00862 0
M  V30 44726 H 2443 -4.29991 -7.97006 0
M  V30 44727 P 2441.13 -6.144 -6.45285 0
M  V30 44728 O 2440.91 -7.54673 -6.86199 0
M  V30 44729 O 2440.34 -5.12391 -7.179 0
M  V30 44730 O 2440.88 -5.99158 -4.88404 0
M  V30 44731 C 2441.82 -6.60234 -3.96415 0
M  V30 44732 C 2441.09 -7.08259 -2.72856 0
M  V30 44733 O 2440.88 -5.9427 -1.83651 0
M  V30 44734 C 2439.69 -7.64886 -2.9555 0
M  V30 44735 O 2439.3 -8.53963 -1.90717 0
M  V30 44736 C 2438.81 -6.4116 -2.90739 0
M  V30 44737 C 2439.52 -5.55375 -1.86963 0
M  V30 44738 N 2439.47 -4.09664 -2.15742 0
M  V30 44739 H 2442.3 -7.45574 -4.45629 0
M  V30 44740 H 2442.58 -5.86232 -3.67314 0
M  V30 44741 H 2441.71 -7.84412 -2.24479 0
M  V30 44742 P 2437.75 -8.7635 -1.60911 0
M  V30 44743 O 2437.53 -10.1388 -1.11561 0
M  V30 44744 O 2436.96 -8.36503 -2.79617 0
M  V30 44745 O 2437.5 -7.71906 -0.429565 0
M  V30 44746 C 2438.44 -7.67148 0.673689 0
M  V30 44747 C 2437.71 -7.33666 1.94851 0
M  V30 44748 O 2437.5 -5.88816 2.00759 0
M  V30 44749 C 2436.31 -7.92526 2.10483 0
M  V30 44750 O 2435.92 -8.03063 3.47693 0
M  V30 44751 C 2435.43 -6.89602 1.41652 0
M  V30 44752 C 2436.14 -5.59201 1.75185 0
M  V30 44753 N 2436.09 -4.58235 0.662552 0
M  V30 44754 C 2435.94 -3.24451 1.01643 0
M  V30 44755 O 2435.85 -2.94958 2.21722 0
M  V30 44756 N 2435.89 -2.30408 -0.165238 0
M  V30 44757 C 2435.99 -2.66048 -1.25118 0
M  V30 44758 N 2435.94 -1.70787 -2.16813 0
M  V30 44759 C 2436.14 -4.02732 -1.64413 0
M  V30 44760 C 2436.19 -4.9488 -0.63991 0
M  V30 44761 H 2438.93 -8.65017 0.777072 0
M  V30 44762 H 2439.2 -6.90173 0.474152 0
M  V30 44763 H 2438.33 -7.66642 2.79492 0
M  V30 44764 H 2435.67 -5.16254 2.65229 0
M  V30 44765 H 2435.39 -7.06532 0.329431 0
M  V30 44766 H 2434.4 -6.91023 1.82047 0
M  V30 44767 H 2436.24 -8.90873 1.62657 0
M  V30 44768 H 2436.31 -6.00104 -0.892197 0
M  V30 44769 H 2436.21 -4.31733 -2.69229 0
M  V30 44770 H 2435.82 -0.724835 -1.8844 0
M  V30 44771 H 2436.01 -1.94716 -3.16734 0
M  V30 44772 P 2434.37 -8.03563 3.84925 0
M  V30 44773 O 2434.15 -8.85821 5.0569 0
M  V30 44774 O 2433.58 -8.41101 2.65469 0
M  V30 44775 O 2434.12 -6.4965 4.18908 0
M  V30 44776 C 2435.06 -5.81037 5.05421 0
M  V30 44777 C 2434.33 -4.78366 5.89277 0
M  V30 44778 O 2434.12 -3.58302 5.08433 0
M  V30 44779 C 2432.93 -5.17448 6.36119 0
M  V30 44780 O 2432.54 -4.45271 7.53232 0
M  V30 44781 C 2432.05 -4.74639 5.19936 0
M  V30 44782 C 2432.76 -3.49432 4.70418 0
M  V30 44783 N 2432.71 -3.32099 3.22613 0
M  V30 44784 H 2435.54 -6.54213 5.71376 0
M  V30 44785 H 2435.82 -5.30936 4.43503 0
M  V30 44786 H 2434.95 -4.55889 6.76652 0
M  V30 44787 H 2432.29 -2.61715 5.17932 0
M  V30 44788 H 2432.01 -5.52155 4.41878 0
M  V30 44789 H 2431.02 -4.51981 5.53374 0
M  V30 44790 H 2432.86 -6.25124 6.55234 0
M  V30 44791 P 2430.99 -4.23843 7.83734 0
M  V30 44792 O 2430.77 -4.19407 9.29784 0
M  V30 44793 O 2430.2 -5.24426 7.09156 0
M  V30 44794 O 2430.74 -2.7935 7.20758 0
M  V30 44795 C 2431.68 -1.7299 7.50419 0
M  V30 44796 C 2430.95 -0.406376 7.57911 0
M  V30 44797 O 2430.74 0.0897726 6.21935 0
M  V30 44798 C 2429.55 -0.447224 8.1878 0
M  V30 44799 O 2429.16 0.825065 8.71101 0
M  V30 44800 C 2428.67 -0.783801 6.99623 0
M  V30 44801 C 2429.38 -0.0619192 5.85967 0
M  V30 44802 N 2429.33 -0.7859 4.56281 0
M  V30 44803 H 2432.16 -1.93423 8.4679 0
M  V30 44804 H 2432.44 -1.68181 6.71046 0
M  V30 44805 H 2431.57 0.289041 8.15388 0
M  V30 44806 P 2427.61 1.17771 8.83182 0
M  V30 44807 O 2427.39 2.07206 9.98732 0
M  V30 44808 O 2426.82 -0.0743816 8.81969 0
M  V30 44809 O 2427.36 1.97652 7.47304 0
M  V30 44810 C 2428.3 3.01133 7.08783 0
M  V30 44811 C 2427.57 4.12613 6.37049 0
M  V30 44812 O 2427.36 3.72827 4.97879 0
M  V30 44813 C 2426.17 4.45085 6.88694 0
M  V30 44814 O 2425.78 5.7877 6.5624 0
M  V30 44815 C 2425.29 3.47817 6.12078 0
M  V30 44816 C 2426 3.39414 4.77697 0
M  V30 44817 N 2425.95 2.04615 4.15333 0
M  V30 44818 H 2428.78 3.41248 7.98759 0
M  V30 44819 H 2429.06 2.5837 6.41742 0
M  V30 44820 H 2428.19 5.02657 6.42673 0
M  V30 44821 P 2424.23 6.144 6.45285 0
M  V30 44822 O 2424.01 7.54673 6.86199 0
M  V30 44823 O 2423.44 5.12391 7.179 0
M  V30 44824 O 2423.98 5.99158 4.88404 0
M  V30 44825 C 2424.92 6.60234 3.96415 0
M  V30 44826 C 2424.19 7.08259 2.72856 0
M  V30 44827 O 2423.98 5.9427 1.83651 0
M  V30 44828 C 2422.79 7.64886 2.9555 0
M  V30 44829 O 2422.4 8.53963 1.90717 0
M  V30 44830 C 2421.91 6.4116 2.90739 0
M  V30 44831 C 2422.62 5.55375 1.86963 0
M  V30 44832 N 2422.57 4.09448 2.16152 0
M  V30 44833 H 2425.4 7.45574 4.45629 0
M  V30 44834 H 2425.68 5.85864 3.679 0
M  V30 44835 H 2424.81 7.84412 2.24479 0
M  V30 44836 H 2422.15 5.73457 0.888562 0
M  V30 44837 H 2421.87 5.90877 3.88583 0
M  V30 44838 H 2420.88 6.6596 2.58858 0
M  V30 44839 H 2422.72 8.16339 3.92049 0
M  V30 44840 P 2420.85 8.7635 1.60911 0
M  V30 44841 O 2420.63 10.1388 1.11561 0
M  V30 44842 O 2420.06 8.36503 2.79617 0
M  V30 44843 O 2420.6 7.71806 0.42951 0
M  V30 44844 C 2421.54 7.67148 -0.673689 0
M  V30 44845 C 2420.81 7.33374 -1.95559 0
M  V30 44846 O 2420.6 5.88721 -2.00726 0
M  V30 44847 C 2419.41 7.92526 -2.10483 0
M  V30 44848 O 2419.02 8.02971 -3.47653 0
M  V30 44849 C 2418.53 6.89602 -1.41652 0
M  V30 44850 C 2419.24 5.59201 -1.75185 0
M  V30 44851 N 2419.19 4.58235 -0.662552 0
M  V30 44852 H 2422.02 8.65116 -0.777161 0
M  V30 44853 H 2422.3 6.90173 -0.474152 0
M  V30 44854 H 2421.43 7.66548 -2.79458 0
M  V30 44855 P 2417.47 8.03563 -3.84925 0
M  V30 44856 O 2417.25 8.85821 -5.0569 0
M  V30 44857 O 2416.68 8.41101 -2.65469 0
M  V30 44858 O 2417.22 6.4965 -4.18908 0
M  V30 44859 C 2418.16 5.81037 -5.05421 0
M  V30 44860 C 2417.43 4.78366 -5.89277 0
M  V30 44861 O 2417.22 3.58302 -5.08433 0
M  V30 44862 C 2416.03 5.17448 -6.36119 0
M  V30 44863 O 2415.64 4.45271 -7.53232 0
M  V30 44864 C 2415.15 4.74639 -5.19936 0
M  V30 44865 C 2415.86 3.49432 -4.70418 0
M  V30 44866 N 2415.81 3.31776 -3.22945 0
M  V30 44867 H 2418.64 6.54213 -5.71376 0
M  V30 44868 H 2418.92 5.30492 -4.44033 0
M  V30 44869 H 2418.05 4.55889 -6.76652 0
M  V30 44870 P 2414.09 4.23843 -7.83734 0
M  V30 44871 O 2413.87 4.19407 -9.29784 0
M  V30 44872 O 2413.3 5.24426 -7.09156 0
M  V30 44873 O 2413.84 2.7935 -7.20758 0
M  V30 44874 C 2414.78 1.7299 -7.50419 0
M  V30 44875 C 2414.05 0.406376 -7.57911 0
M  V30 44876 O 2413.84 -0.0897726 -6.21935 0
M  V30 44877 C 2412.65 0.447224 -8.1878 0
M  V30 44878 O 2412.26 -0.825065 -8.71101 0
M  V30 44879 C 2411.77 0.783801 -6.99623 0
M  V30 44880 C 2412.48 0.0619192 -5.85967 0
M  V30 44881 N 2412.43 0.790462 -4.56202 0
M  V30 44882 H 2415.26 1.93423 -8.4679 0
M  V30 44883 H 2415.54 1.68852 -6.70877 0
M  V30 44884 H 2414.67 -0.289041 -8.15388 0
M  V30 44885 H 2412.01 -0.927006 -5.72848 0
M  V30 44886 H 2411.73 1.86973 -6.82036 0
M  V30 44887 H 2410.74 0.403953 -7.13357 0
M  V30 44888 H 2412.58 1.20599 -8.97534 0
M  V30 44889 P 2410.71 -1.17771 -8.83182 0
M  V30 44890 O 2410.49 -2.07206 -9.98732 0
M  V30 44891 O 2409.92 0.0743816 -8.81969 0
M  V30 44892 O 2410.46 -1.97652 -7.47304 0
M  V30 44893 C 2411.4 -3.01055 -7.08599 0
M  V30 44894 C 2410.67 -4.12613 -6.37049 0
M  V30 44895 O 2410.46 -3.72827 -4.97879 0
M  V30 44896 C 2409.27 -4.45719 -6.88164 0
M  V30 44897 O 2408.88 -5.7877 -6.5624 0
M  V30 44898 C 2408.39 -3.47768 -6.11991 0
M  V30 44899 C 2409.1 -3.39356 -4.77615 0
M  V30 44900 N 2409.05 -2.04571 -4.15244 0
M  V30 44901 C 2408.9 -1.98587 -2.78314 0
M  V30 44902 O 2408.81 -2.98134 -2.08835 0
M  V30 44903 N 2408.86 -0.714467 -2.24925 0
M  V30 44904 C 2408.95 0.470001 -2.94169 0
M  V30 44905 C 2409.1 0.312541 -4.36783 0
M  V30 44906 C 2409.15 -0.914512 -4.92583 0
M  V30 44907 H 2411.89 -3.41169 -7.98575 0
M  V30 44908 H 2412.16 -2.58295 -6.41556 0
M  V30 44909 H 2411.29 -5.02657 -6.42673 0
M  V30 44910 H 2408.63 -4.11637 -4.08885 0
M  V30 44911 H 2408.35 -2.49626 -6.61679 0
M  V30 44912 H 2407.36 -3.86566 -6.00778 0
M  V30 44913 H 2409.2 -4.29943 -7.96918 0
M  V30 44914 H 2409.27 -1.00937 -6.00374 0
M  V30 44915 P 2407.33 -6.144 -6.45285 0
M  V30 44916 O 2407.11 -7.54673 -6.86199 0
M  V30 44917 O 2406.54 -5.12391 -7.179 0
M  V30 44918 O 2407.08 -5.99158 -4.88404 0
M  V30 44919 C 2408.02 -6.60234 -3.96415 0
M  V30 44920 C 2407.29 -7.08259 -2.72856 0
M  V30 44921 O 2407.08 -5.9427 -1.83651 0
M  V30 44922 C 2405.89 -7.64886 -2.9555 0
M  V30 44923 O 2405.5 -8.53963 -1.90717 0
M  V30 44924 C 2405.01 -6.4116 -2.90739 0
M  V30 44925 C 2405.72 -5.55375 -1.86963 0
M  V30 44926 N 2405.67 -4.09664 -2.15742 0
M  V30 44927 H 2408.5 -7.45574 -4.45629 0
M  V30 44928 H 2408.78 -5.86232 -3.67314 0
M  V30 44929 H 2407.91 -7.84412 -2.24479 0
M  V30 44930 P 2403.95 -8.7635 -1.60911 0
M  V30 44931 O 2403.73 -10.1388 -1.11561 0
M  V30 44932 O 2403.16 -8.36503 -2.79617 0
M  V30 44933 O 2403.7 -7.71806 -0.42951 0
M  V30 44934 C 2404.64 -7.67148 0.673689 0
M  V30 44935 C 2403.91 -7.33374 1.95559 0
M  V30 44936 O 2403.7 -5.88721 2.00726 0
M  V30 44937 C 2402.51 -7.92526 2.10483 0
M  V30 44938 O 2402.12 -8.02971 3.47653 0
M  V30 44939 C 2401.63 -6.89602 1.41652 0
M  V30 44940 C 2402.34 -5.59201 1.75185 0
M  V30 44941 N 2402.29 -4.58235 0.662552 0
M  V30 44942 H 2405.12 -8.65116 0.777161 0
M  V30 44943 H 2405.4 -6.90173 0.474152 0
M  V30 44944 H 2404.53 -7.66548 2.79458 0
M  V30 44945 P 2400.57 -8.03563 3.84925 0
M  V30 44946 O 2400.35 -8.85821 5.0569 0
M  V30 44947 O 2399.78 -8.41101 2.65469 0
M  V30 44948 O 2400.32 -6.4965 4.18908 0
M  V30 44949 C 2401.26 -5.81037 5.05421 0
M  V30 44950 C 2400.53 -4.78366 5.89277 0
M  V30 44951 O 2400.32 -3.58302 5.08433 0
M  V30 44952 C 2399.13 -5.17448 6.36119 0
M  V30 44953 O 2398.74 -4.45271 7.53232 0
M  V30 44954 C 2398.25 -4.74639 5.19936 0
M  V30 44955 C 2398.96 -3.49432 4.70418 0
M  V30 44956 N 2398.91 -3.32099 3.22613 0
M  V30 44957 H 2401.74 -6.54213 5.71376 0
M  V30 44958 H 2402.02 -5.30936 4.43503 0
M  V30 44959 H 2401.15 -4.55889 6.76652 0
M  V30 44960 H 2398.49 -2.61715 5.17932 0
M  V30 44961 H 2398.21 -5.52155 4.41878 0
M  V30 44962 H 2397.22 -4.51981 5.53374 0
M  V30 44963 H 2399.06 -6.25124 6.55234 0
M  V30 44964 P 2397.19 -4.23843 7.83734 0
M  V30 44965 O 2396.97 -4.19407 9.29784 0
M  V30 44966 O 2396.4 -5.24426 7.09156 0
M  V30 44967 O 2396.94 -2.7935 7.20758 0
M  V30 44968 C 2397.88 -1.7299 7.50419 0
M  V30 44969 C 2397.15 -0.406376 7.57911 0
M  V30 44970 O 2396.94 0.0897726 6.21935 0
M  V30 44971 C 2395.75 -0.447224 8.1878 0
M  V30 44972 O 2395.36 0.825065 8.71101 0
M  V30 44973 C 2394.87 -0.783801 6.99623 0
M  V30 44974 C 2395.58 -0.0619192 5.85967 0
M  V30 44975 N 2395.53 -0.790462 4.56202 0
M  V30 44976 H 2398.36 -1.93423 8.4679 0
M  V30 44977 H 2398.64 -1.68852 6.70877 0
M  V30 44978 H 2397.77 0.289041 8.15388 0
M  V30 44979 H 2395.11 0.927006 5.72848 0
M  V30 44980 H 2394.83 -1.86973 6.82036 0
M  V30 44981 H 2393.84 -0.403953 7.13357 0
M  V30 44982 H 2395.68 -1.20599 8.97534 0
M  V30 44983 P 2393.81 1.17771 8.83182 0
M  V30 44984 O 2393.59 2.07206 9.98732 0
M  V30 44985 O 2393.02 -0.0743816 8.81969 0
M  V30 44986 O 2393.56 1.97652 7.47304 0
M  V30 44987 C 2394.5 3.01133 7.08783 0
M  V30 44988 C 2393.77 4.12613 6.37049 0
M  V30 44989 O 2393.56 3.72827 4.97879 0
M  V30 44990 C 2392.37 4.45085 6.88694 0
M  V30 44991 O 2391.98 5.7877 6.5624 0
M  V30 44992 C 2391.49 3.47817 6.12078 0
M  V30 44993 C 2392.2 3.39414 4.77697 0
M  V30 44994 N 2392.15 2.04615 4.15333 0
M  V30 44995 H 2394.98 3.41248 7.98759 0
M  V30 44996 H 2395.26 2.5837 6.41742 0
M  V30 44997 H 2394.39 5.02657 6.42673 0
M  V30 44998 P 2390.43 6.144 6.45285 0
M  V30 44999 O 2390.21 7.54673 6.86199 0
M  V30 45000 O 2389.64 5.12391 7.179 0
M  V30 45001 O 2390.18 5.99158 4.88404 0
M  V30 45002 C 2391.12 6.60234 3.96415 0
M  V30 45003 C 2390.39 7.08259 2.72856 0
M  V30 45004 O 2390.18 5.9427 1.83651 0
M  V30 45005 C 2388.99 7.64886 2.9555 0
M  V30 45006 O 2388.6 8.53963 1.90717 0
M  V30 45007 C 2388.11 6.4116 2.90739 0
M  V30 45008 C 2388.82 5.55375 1.86963 0
M  V30 45009 N 2388.77 4.09448 2.16152 0
M  V30 45010 H 2391.6 7.45574 4.45629 0
M  V30 45011 H 2391.88 5.85864 3.679 0
M  V30 45012 H 2391.01 7.84412 2.24479 0
M  V30 45013 H 2388.35 5.73457 0.888562 0
M  V30 45014 H 2388.07 5.90877 3.88583 0
M  V30 45015 H 2387.08 6.6596 2.58858 0
M  V30 45016 H 2388.92 8.16339 3.92049 0
M  V30 45017 P 2387.05 8.7635 1.60911 0
M  V30 45018 O 2386.83 10.1388 1.11561 0
M  V30 45019 O 2386.26 8.36503 2.79617 0
M  V30 45020 O 2386.8 7.71806 0.42951 0
M  V30 45021 C 2387.74 7.67148 -0.673689 0
M  V30 45022 C 2387.01 7.33374 -1.95559 0
M  V30 45023 O 2386.8 5.88721 -2.00726 0
M  V30 45024 C 2385.61 7.92526 -2.10483 0
M  V30 45025 O 2385.22 8.02971 -3.47653 0
M  V30 45026 C 2384.73 6.89602 -1.41652 0
M  V30 45027 C 2385.44 5.59201 -1.75185 0
M  V30 45028 N 2385.39 4.58235 -0.662552 0
M  V30 45029 H 2388.22 8.65116 -0.777161 0
M  V30 45030 H 2388.5 6.90173 -0.474152 0
M  V30 45031 H 2387.63 7.66548 -2.79458 0
M  V30 45032 P 2383.67 8.03563 -3.84925 0
M  V30 45033 O 2383.45 8.85821 -5.0569 0
M  V30 45034 O 2382.88 8.41101 -2.65469 0
M  V30 45035 O 2383.42 6.4965 -4.18908 0
M  V30 45036 C 2384.36 5.81037 -5.05421 0
M  V30 45037 C 2383.63 4.78366 -5.89277 0
M  V30 45038 O 2383.42 3.58302 -5.08433 0
M  V30 45039 C 2382.23 5.17448 -6.36119 0
M  V30 45040 O 2381.84 4.45271 -7.53232 0
M  V30 45041 C 2381.35 4.74639 -5.19936 0
M  V30 45042 C 2382.06 3.49432 -4.70418 0
M  V30 45043 N 2382.01 3.31776 -3.22945 0
M  V30 45044 H 2384.84 6.54213 -5.71376 0
M  V30 45045 H 2385.12 5.30492 -4.44033 0
M  V30 45046 H 2384.25 4.55889 -6.76652 0
M  V30 45047 P 2380.29 4.23843 -7.83734 0
M  V30 45048 O 2380.07 4.19407 -9.29784 0
M  V30 45049 O 2379.5 5.24426 -7.09156 0
M  V30 45050 O 2380.04 2.7935 -7.20758 0
M  V30 45051 C 2380.98 1.7299 -7.50419 0
M  V30 45052 C 2380.25 0.406376 -7.57911 0
M  V30 45053 O 2380.04 -0.0897726 -6.21935 0
M  V30 45054 C 2378.85 0.447224 -8.1878 0
M  V30 45055 O 2378.46 -0.825065 -8.71101 0
M  V30 45056 C 2377.97 0.783801 -6.99623 0
M  V30 45057 C 2378.68 0.0619192 -5.85967 0
M  V30 45058 N 2378.63 0.7859 -4.56281 0
M  V30 45059 H 2381.46 1.93423 -8.4679 0
M  V30 45060 H 2381.74 1.68181 -6.71046 0
M  V30 45061 H 2380.87 -0.289041 -8.15388 0
M  V30 45062 P 2376.91 -1.17771 -8.83182 0
M  V30 45063 O 2376.69 -2.07206 -9.98732 0
M  V30 45064 O 2376.12 0.0743816 -8.81969 0
M  V30 45065 O 2376.66 -1.97652 -7.47304 0
M  V30 45066 C 2377.6 -3.01133 -7.08783 0
M  V30 45067 C 2376.87 -4.12613 -6.37049 0
M  V30 45068 O 2376.66 -3.72827 -4.97879 0
M  V30 45069 C 2375.47 -4.45085 -6.88694 0
M  V30 45070 O 2375.08 -5.7877 -6.5624 0
M  V30 45071 C 2374.59 -3.47817 -6.12078 0
M  V30 45072 C 2375.3 -3.39414 -4.77697 0
M  V30 45073 N 2375.25 -2.04615 -4.15333 0
M  V30 45074 H 2378.08 -3.41248 -7.98759 0
M  V30 45075 H 2378.36 -2.5837 -6.41742 0
M  V30 45076 H 2377.49 -5.02657 -6.42673 0
M  V30 45077 P 2373.53 -6.144 -6.45285 0
M  V30 45078 O 2373.31 -7.54673 -6.86199 0
M  V30 45079 O 2372.74 -5.12391 -7.179 0
M  V30 45080 O 2373.28 -5.99158 -4.88404 0
M  V30 45081 C 2374.22 -6.60234 -3.96415 0
M  V30 45082 C 2373.49 -7.08259 -2.72856 0
M  V30 45083 O 2373.28 -5.9427 -1.83651 0
M  V30 45084 C 2372.09 -7.64886 -2.9555 0
M  V30 45085 O 2371.7 -8.53963 -1.90717 0
M  V30 45086 C 2371.21 -6.4116 -2.90739 0
M  V30 45087 C 2371.92 -5.55375 -1.86963 0
M  V30 45088 N 2371.87 -4.09664 -2.15742 0
M  V30 45089 H 2374.7 -7.45574 -4.45629 0
M  V30 45090 H 2374.98 -5.86232 -3.67314 0
M  V30 45091 H 2374.11 -7.84412 -2.24479 0
M  V30 45092 P 2370.15 -8.7635 -1.60911 0
M  V30 45093 O 2369.93 -10.1388 -1.11561 0
M  V30 45094 O 2369.36 -8.36503 -2.79617 0
M  V30 45095 O 2369.9 -7.71806 -0.42951 0
M  V30 45096 C 2370.84 -7.67148 0.673689 0
M  V30 45097 C 2370.11 -7.33374 1.95559 0
M  V30 45098 O 2369.9 -5.88721 2.00726 0
M  V30 45099 C 2368.71 -7.92526 2.10483 0
M  V30 45100 O 2368.32 -8.02971 3.47653 0
M  V30 45101 C 2367.83 -6.89602 1.41652 0
M  V30 45102 C 2368.54 -5.59201 1.75185 0
M  V30 45103 N 2368.49 -4.58301 0.657969 0
M  V30 45104 H 2371.32 -8.65116 0.777161 0
M  V30 45105 H 2371.6 -6.9022 0.46725 0
M  V30 45106 H 2370.73 -7.66548 2.79458 0
M  V30 45107 H 2368.07 -5.16165 2.65183 0
M  V30 45108 H 2367.79 -7.06433 0.329384 0
M  V30 45109 H 2366.8 -6.90926 1.82021 0
M  V30 45110 H 2368.64 -8.90873 1.62657 0
M  V30 45111 P 2366.77 -8.03563 3.84925 0
M  V30 45112 O 2366.55 -8.85821 5.0569 0
M  V30 45113 O 2365.98 -8.41101 2.65469 0
M  V30 45114 O 2366.52 -6.4965 4.18908 0
M  V30 45115 C 2367.46 -5.81037 5.05421 0
M  V30 45116 C 2366.73 -4.78366 5.89277 0
M  V30 45117 O 2366.52 -3.58302 5.08433 0
M  V30 45118 C 2365.33 -5.17448 6.36119 0
M  V30 45119 O 2364.94 -4.45271 7.53232 0
M  V30 45120 C 2364.45 -4.74639 5.19936 0
M  V30 45121 C 2365.16 -3.49432 4.70418 0
M  V30 45122 N 2365.11 -3.31776 3.22945 0
M  V30 45123 H 2367.95 -6.54213 5.71376 0
M  V30 45124 H 2368.22 -5.30492 4.44033 0
M  V30 45125 H 2367.35 -4.55889 6.76652 0
M  V30 45126 P 2363.39 -4.23843 7.83734 0
M  V30 45127 O 2363.17 -4.19407 9.29784 0
M  V30 45128 O 2362.6 -5.24426 7.09156 0
M  V30 45129 O 2363.14 -2.7935 7.20758 0
M  V30 45130 C 2364.08 -1.7299 7.50419 0
M  V30 45131 C 2363.35 -0.406376 7.57911 0
M  V30 45132 O 2363.14 0.0897726 6.21935 0
M  V30 45133 C 2361.95 -0.447224 8.1878 0
M  V30 45134 O 2361.56 0.825065 8.71101 0
M  V30 45135 C 2361.07 -0.783801 6.99623 0
M  V30 45136 C 2361.78 -0.0619192 5.85967 0
M  V30 45137 N 2361.73 -0.7859 4.56281 0
M  V30 45138 H 2364.57 -1.93423 8.4679 0
M  V30 45139 H 2364.84 -1.68181 6.71046 0
M  V30 45140 H 2363.97 0.289041 8.15388 0
M  V30 45141 P 2360.01 1.17771 8.83182 0
M  V30 45142 O 2359.79 2.07206 9.98732 0
M  V30 45143 O 2359.22 -0.0743816 8.81969 0
M  V30 45144 O 2359.76 1.97652 7.47304 0
M  V30 45145 C 2360.7 3.01133 7.08783 0
M  V30 45146 C 2359.97 4.12613 6.37049 0
M  V30 45147 O 2359.76 3.72827 4.97879 0
M  V30 45148 C 2358.57 4.45085 6.88694 0
M  V30 45149 O 2358.18 5.7877 6.5624 0
M  V30 45150 C 2357.69 3.47817 6.12078 0
M  V30 45151 C 2358.4 3.39414 4.77697 0
M  V30 45152 N 2358.35 2.04615 4.15333 0
M  V30 45153 H 2361.19 3.41248 7.98759 0
M  V30 45154 H 2361.46 2.5837 6.41742 0
M  V30 45155 H 2360.59 5.02657 6.42673 0
M  V30 45156 P 2356.63 6.144 6.45285 0
M  V30 45157 O 2356.41 7.54673 6.86199 0
M  V30 45158 O 2355.84 5.12391 7.179 0
M  V30 45159 O 2356.38 5.99158 4.88404 0
M  V30 45160 C 2357.32 6.60234 3.96415 0
M  V30 45161 C 2356.59 7.08259 2.72856 0
M  V30 45162 O 2356.38 5.9427 1.83651 0
M  V30 45163 C 2355.19 7.64886 2.9555 0
M  V30 45164 O 2354.8 8.53963 1.90717 0
M  V30 45165 C 2354.31 6.4116 2.90739 0
M  V30 45166 C 2355.02 5.55375 1.86963 0
M  V30 45167 N 2354.97 4.09448 2.16152 0
M  V30 45168 H 2357.81 7.45574 4.45629 0
M  V30 45169 H 2358.08 5.85864 3.679 0
M  V30 45170 H 2357.21 7.84412 2.24479 0
M  V30 45171 H 2354.55 5.73457 0.888562 0
M  V30 45172 H 2354.27 5.90877 3.88583 0
M  V30 45173 H 2353.28 6.6596 2.58858 0
M  V30 45174 H 2355.12 8.16339 3.92049 0
M  V30 45175 P 2353.25 8.7635 1.60911 0
M  V30 45176 O 2353.03 10.1388 1.11561 0
M  V30 45177 O 2352.46 8.36503 2.79617 0
M  V30 45178 O 2353 7.71806 0.42951 0
M  V30 45179 C 2353.94 7.67148 -0.673689 0
M  V30 45180 C 2353.21 7.33374 -1.95559 0
M  V30 45181 O 2353 5.88721 -2.00726 0
M  V30 45182 C 2351.81 7.92526 -2.10483 0
M  V30 45183 O 2351.42 8.02971 -3.47653 0
M  V30 45184 C 2350.93 6.89602 -1.41652 0
M  V30 45185 C 2351.64 5.59201 -1.75185 0
M  V30 45186 N 2351.59 4.58235 -0.662552 0
M  V30 45187 H 2354.43 8.65116 -0.777161 0
M  V30 45188 H 2354.7 6.90173 -0.474152 0
M  V30 45189 H 2353.83 7.66548 -2.79458 0
M  V30 45190 P 2349.87 8.03563 -3.84925 0
M  V30 45191 O 2349.65 8.85821 -5.0569 0
M  V30 45192 O 2349.08 8.41101 -2.65469 0
M  V30 45193 O 2349.62 6.4965 -4.18908 0
M  V30 45194 C 2350.56 5.81037 -5.05421 0
M  V30 45195 C 2349.83 4.78366 -5.89277 0
M  V30 45196 O 2349.62 3.58302 -5.08433 0
M  V30 45197 C 2348.43 5.17448 -6.36119 0
M  V30 45198 O 2348.04 4.45271 -7.53232 0
M  V30 45199 C 2347.55 4.74639 -5.19936 0
M  V30 45200 C 2348.26 3.49432 -4.70418 0
M  V30 45201 N 2348.21 3.31776 -3.22945 0
M  V30 45202 C 2348.29 4.27147 -2.23315 0
M  V30 45203 N 2348.21 3.78447 -1.02186 0
M  V30 45204 C 2348.07 2.41001 -1.21732 0
M  V30 45205 C 2347.94 1.36111 -0.27694 0
M  V30 45206 N 2347.82 0.113683 -0.912949 0
M  V30 45207 C 2347.82 -0.0846396 -2.27943 0
M  V30 45208 N 2347.69 -1.34737 -2.6916 0
M  V30 45209 N 2347.95 0.902521 -3.16379 0
M  V30 45210 C 2348.07 2.11937 -2.56849 0
M  V30 45211 H 2351.05 6.54213 -5.71376 0
M  V30 45212 H 2351.32 5.30492 -4.44033 0
M  V30 45213 H 2350.45 4.55889 -6.76652 0
M  V30 45214 P 2346.49 4.23843 -7.83734 0
M  V30 45215 O 2346.27 4.19407 -9.29784 0
M  V30 45216 O 2345.7 5.24426 -7.09156 0
M  V30 45217 O 2346.24 2.7935 -7.20758 0
M  V30 45218 C 2347.18 1.7299 -7.50419 0
M  V30 45219 C 2346.45 0.406376 -7.57911 0
M  V30 45220 O 2346.24 -0.0897726 -6.21935 0
M  V30 45221 C 2345.05 0.447224 -8.1878 0
M  V30 45222 O 2344.66 -0.825065 -8.71101 0
M  V30 45223 C 2344.17 0.783801 -6.99623 0
M  V30 45224 C 2344.88 0.0619192 -5.85967 0
M  V30 45225 N 2344.83 0.790462 -4.56202 0
M  V30 45226 C 2344.91 2.13895 -4.34171 0
M  V30 45227 N 2344.84 2.46449 -3.08687 0
M  V30 45228 C 2344.69 1.2525 -2.43697 0
M  V30 45229 C 2344.56 0.914535 -1.07318 0
M  V30 45230 N 2344.55 1.80782 -0.0887348 0
M  V30 45231 N 2344.44 -0.386745 -0.768133 0
M  V30 45232 C 2344.45 -1.28096 -1.75159 0
M  V30 45233 N 2344.57 -1.09708 -3.04861 0
M  V30 45234 C 2344.69 0.214857 -3.32306 0
M  V30 45235 H 2347.67 1.93423 -8.4679 0
M  V30 45236 H 2347.94 1.68852 -6.70877 0
M  V30 45237 H 2347.07 -0.289041 -8.15388 0
M  V30 45238 H 2344.41 -0.927006 -5.72848 0
M  V30 45239 H 2344.13 1.86973 -6.82036 0
M  V30 45240 H 2343.14 0.403953 -7.13357 0
M  V30 45241 H 2344.98 1.20599 -8.97534 0
M  V30 45242 H 2345.02 2.86846 -5.14318 0
M  V30 45243 H 2344.64 2.81082 -0.302037 0
M  V30 45244 H 2344.45 1.49688 0.889064 0
M  V30 45245 H 2344.34 -2.31317 -1.43855 0
M  V30 45246 P 2343.11 -1.17771 -8.83182 0
M  V30 45247 O 2342.89 -2.07206 -9.98732 0
M  V30 45248 O 2342.32 0.0743816 -8.81969 0
M  V30 45249 O 2342.86 -1.97652 -7.47304 0
M  V30 45250 C 2343.8 -3.01133 -7.08783 0
M  V30 45251 C 2343.07 -4.12613 -6.37049 0
M  V30 45252 O 2342.86 -3.72827 -4.97879 0
M  V30 45253 C 2341.67 -4.45085 -6.88694 0
M  V30 45254 O 2341.28 -5.7877 -6.5624 0
M  V30 45255 C 2340.79 -3.47817 -6.12078 0
M  V30 45256 C 2341.5 -3.39414 -4.77697 0
M  V30 45257 N 2341.45 -2.04615 -4.15333 0
M  V30 45258 H 2344.29 -3.41248 -7.98759 0
M  V30 45259 H 2344.56 -2.5837 -6.41742 0
M  V30 45260 H 2343.69 -5.02657 -6.42673 0
M  V30 45261 P 2339.73 -6.144 -6.45285 0
M  V30 45262 O 2339.51 -7.54673 -6.86199 0
M  V30 45263 O 2338.94 -5.12391 -7.179 0
M  V30 45264 O 2339.48 -5.99158 -4.88404 0
M  V30 45265 C 2340.42 -6.60234 -3.96415 0
M  V30 45266 C 2339.69 -7.08259 -2.72856 0
M  V30 45267 O 2339.48 -5.9427 -1.83651 0
M  V30 45268 C 2338.29 -7.64886 -2.9555 0
M  V30 45269 O 2337.9 -8.53963 -1.90717 0
M  V30 45270 C 2337.41 -6.4116 -2.90739 0
M  V30 45271 C 2338.12 -5.55375 -1.86963 0
M  V30 45272 N 2338.07 -4.09664 -2.15742 0
M  V30 45273 C 2338.15 -3.44381 -3.37233 0
M  V30 45274 N 2338.07 -2.14131 -3.28347 0
M  V30 45275 C 2337.93 -1.90247 -1.91588 0
M  V30 45276 C 2337.8 -0.683992 -1.20892 0
M  V30 45277 N 2337.68 -0.903396 0.173998 0
M  V30 45278 C 2337.68 -2.14171 0.784879 0
M  V30 45279 N 2337.55 -2.1435 2.11317 0
M  V30 45280 N 2337.81 -3.28784 0.119316 0
M  V30 45281 C 2337.93 -3.0977 -1.22194 0
M  V30 45282 H 2340.91 -7.45574 -4.45629 0
M  V30 45283 H 2341.18 -5.86232 -3.67314 0
M  V30 45284 H 2340.31 -7.84412 -2.24479 0
M  V30 45285 P 2336.35 -8.7635 -1.60911 0
M  V30 45286 O 2336.13 -10.1388 -1.11561 0
M  V30 45287 O 2335.56 -8.36503 -2.79617 0
M  V30 45288 O 2336.1 -7.71806 -0.42951 0
M  V30 45289 C 2337.04 -7.67148 0.673689 0
M  V30 45290 C 2336.31 -7.33374 1.95559 0
M  V30 45291 O 2336.1 -5.88721 2.00726 0
M  V30 45292 C 2334.91 -7.92526 2.10483 0
M  V30 45293 O 2334.52 -8.02971 3.47653 0
M  V30 45294 C 2334.03 -6.89602 1.41652 0
M  V30 45295 C 2334.74 -5.59201 1.75185 0
M  V30 45296 N 2334.69 -4.58301 0.657969 0
M  V30 45297 C 2334.77 -4.79019 -0.692603 0
M  V30 45298 N 2334.7 -3.69736 -1.38998 0
M  V30 45299 C 2334.55 -2.70474 -0.438135 0
M  V30 45300 C 2334.42 -1.30327 -0.538142 0
M  V30 45301 N 2334.41 -0.64304 -1.69192 0
M  V30 45302 N 2334.3 -0.611027 0.605183 0
M  V30 45303 C 2334.31 -1.27002 1.75953 0
M  V30 45304 N 2334.43 -2.56038 1.98546 0
M  V30 45305 C 2334.55 -3.22681 0.822541 0
M  V30 45306 H 2337.53 -8.65116 0.777161 0
M  V30 45307 H 2337.8 -6.9022 0.46725 0
M  V30 45308 H 2336.93 -7.66548 2.79458 0
M  V30 45309 H 2334.27 -5.16165 2.65183 0
M  V30 45310 H 2333.99 -7.06433 0.329384 0
M  V30 45311 H 2333 -6.90926 1.82021 0
M  V30 45312 H 2334.84 -8.90873 1.62657 0
M  V30 45313 H 2334.88 -5.77785 -1.13874 0
M  V30 45314 H 2334.5 -1.15585 -2.57991 0
M  V30 45315 H 2334.31 0.382989 -1.69835 0
M  V30 45316 H 2334.2 -0.653331 2.64449 0
M  V30 45317 P 2332.97 -8.03563 3.84925 0
M  V30 45318 O 2332.75 -8.85821 5.0569 0
M  V30 45319 O 2332.18 -8.41101 2.65469 0
M  V30 45320 O 2332.72 -6.4965 4.18908 0
M  V30 45321 C 2333.66 -5.81037 5.05421 0
M  V30 45322 C 2332.93 -4.78366 5.89277 0
M  V30 45323 O 2332.72 -3.58302 5.08433 0
M  V30 45324 C 2331.53 -5.17448 6.36119 0
M  V30 45325 O 2331.14 -4.45271 7.53232 0
M  V30 45326 C 2330.65 -4.74639 5.19936 0
M  V30 45327 C 2331.36 -3.49432 4.70418 0
M  V30 45328 N 2331.31 -3.32099 3.22613 0
M  V30 45329 C 2331.39 -4.28245 2.25527 0
M  V30 45330 N 2331.32 -3.80823 1.04874 0
M  V30 45331 C 2331.17 -2.44571 1.23535 0
M  V30 45332 C 2331.04 -1.37068 0.330675 0
M  V30 45333 N 2331.03 -1.51472 -0.990824 0
M  V30 45334 N 2330.92 -0.138614 0.848756 0
M  V30 45335 C 2330.93 0.00675923 2.16999 0
M  V30 45336 N 2331.05 -0.904372 3.11122 0
M  V30 45337 C 2331.17 -2.12707 2.56212 0
M  V30 45338 H 2334.15 -6.54213 5.71376 0
M  V30 45339 H 2334.42 -5.30936 4.43503 0
M  V30 45340 H 2333.55 -4.55889 6.76652 0
M  V30 45341 H 2330.89 -2.61715 5.17932 0
M  V30 45342 H 2330.61 -5.52155 4.41878 0
M  V30 45343 H 2329.62 -4.51981 5.53374 0
M  V30 45344 H 2331.46 -6.25124 6.55234 0
M  V30 45345 H 2331.5 -5.34372 2.47488 0
M  V30 45346 H 2331.12 -2.45153 -1.4078 0
M  V30 45347 H 2330.93 -0.688422 -1.59911 0
M  V30 45348 H 2330.82 1.02584 2.52346 0
M  V30 45349 P 2329.59 -4.23843 7.83734 0
M  V30 45350 O 2329.37 -4.19407 9.29784 0
M  V30 45351 O 2328.8 -5.24426 7.09156 0
M  V30 45352 O 2329.34 -2.7935 7.20758 0
M  V30 45353 C 2330.28 -1.7299 7.50419 0
M  V30 45354 C 2329.55 -0.406376 7.57911 0
M  V30 45355 O 2329.34 0.0897726 6.21935 0
M  V30 45356 C 2328.15 -0.447224 8.1878 0
M  V30 45357 O 2327.76 0.825065 8.71101 0
M  V30 45358 C 2327.27 -0.783801 6.99623 0
M  V30 45359 C 2327.98 -0.0619192 5.85967 0
M  V30 45360 N 2327.93 -0.790462 4.56202 0
M  V30 45361 C 2328.01 -2.13895 4.34171 0
M  V30 45362 N 2327.94 -2.46449 3.08687 0
M  V30 45363 C 2327.79 -1.2525 2.43697 0
M  V30 45364 C 2327.66 -0.914535 1.07318 0
M  V30 45365 N 2327.65 -1.80782 0.0887348 0
M  V30 45366 N 2327.54 0.386745 0.768133 0
M  V30 45367 C 2327.55 1.28096 1.75159 0
M  V30 45368 N 2327.67 1.09708 3.04861 0
M  V30 45369 C 2327.79 -0.214857 3.32306 0
M  V30 45370 H 2330.77 -1.93423 8.4679 0
M  V30 45371 H 2331.04 -1.68852 6.70877 0
M  V30 45372 H 2330.17 0.289041 8.15388 0
M  V30 45373 H 2327.51 0.927006 5.72848 0
M  V30 45374 H 2327.23 -1.86973 6.82036 0
M  V30 45375 H 2326.24 -0.403953 7.13357 0
M  V30 45376 H 2328.08 -1.20599 8.97534 0
M  V30 45377 H 2328.12 -2.86846 5.14318 0
M  V30 45378 H 2327.74 -2.81082 0.302037 0
M  V30 45379 H 2327.55 -1.49688 -0.889064 0
M  V30 45380 H 2327.44 2.31317 1.43855 0
M  V30 45381 P 2326.21 1.17771 8.83182 0
M  V30 45382 O 2325.99 2.07206 9.98732 0
M  V30 45383 O 2325.42 -0.0743816 8.81969 0
M  V30 45384 O 2325.96 1.97652 7.47304 0
M  V30 45385 C 2326.9 3.01133 7.08783 0
M  V30 45386 C 2326.17 4.12613 6.37049 0
M  V30 45387 O 2325.96 3.72827 4.97879 0
M  V30 45388 C 2324.77 4.45085 6.88694 0
M  V30 45389 O 2324.38 5.7877 6.5624 0
M  V30 45390 C 2323.89 3.47817 6.12078 0
M  V30 45391 C 2324.6 3.39414 4.77697 0
M  V30 45392 N 2324.55 2.04615 4.15333 0
M  V30 45393 H 2327.39 3.41248 7.98759 0
M  V30 45394 H 2327.66 2.5837 6.41742 0
M  V30 45395 H 2326.79 5.02657 6.42673 0
M  V30 45396 P 2322.83 6.144 6.45285 0
M  V30 45397 O 2322.61 7.54673 6.86199 0
M  V30 45398 O 2322.04 5.12391 7.179 0
M  V30 45399 O 2322.58 5.99236 4.88467 0
M  V30 45400 C 2323.52 6.60234 3.96415 0
M  V30 45401 C 2322.79 7.08079 2.736 0
M  V30 45402 O 2322.58 5.94365 1.8368 0
M  V30 45403 C 2321.39 7.64886 2.9555 0
M  V30 45404 O 2321 8.5406 1.90739 0
M  V30 45405 C 2320.51 6.4116 2.90739 0
M  V30 45406 C 2321.22 5.55375 1.86963 0
M  V30 45407 N 2321.17 4.09664 2.15742 0
M  V30 45408 C 2321.02 3.22231 1.08477 0
M  V30 45409 O 2320.93 3.68951 -0.0600489 0
M  V30 45410 N 2320.97 1.76692 1.48799 0
M  V30 45411 C 2321.07 1.41695 2.57602 0
M  V30 45412 N 2321.02 0.107296 2.75791 0
M  V30 45413 C 2321.22 2.29178 3.69733 0
M  V30 45414 C 2321.27 3.62753 3.42653 0
M  V30 45415 H 2324.01 7.45488 4.45578 0
M  V30 45416 H 2324.28 5.86232 3.67314 0
M  V30 45417 H 2323.41 7.84508 2.24507 0
M  V30 45418 H 2320.75 5.73556 0.888715 0
M  V30 45419 H 2320.47 5.9096 3.88638 0
M  V30 45420 H 2319.48 6.66053 2.58894 0
M  V30 45421 H 2321.32 8.16339 3.92049 0
M  V30 45422 H 2321.39 4.33052 4.24913 0
M  V30 45423 H 2321.29 1.9103 4.71577 0
M  V30 45424 H 2320.9 -0.521221 1.95056 0
M  V30 45425 H 2321.1 -0.286429 3.70695 0
M  V30 45426 P 2319.45 8.7635 1.60911 0
M  V30 45427 O 2319.23 10.1388 1.11561 0
M  V30 45428 O 2318.66 8.36503 2.79617 0
M  V30 45429 O 2319.2 7.71806 0.42951 0
M  V30 45430 C 2320.14 7.67148 -0.673689 0
M  V30 45431 C 2319.41 7.33374 -1.95559 0
M  V30 45432 O 2319.2 5.88721 -2.00726 0
M  V30 45433 C 2318.01 7.92526 -2.10483 0
M  V30 45434 O 2317.62 8.02971 -3.47653 0
M  V30 45435 C 2317.13 6.89602 -1.41652 0
M  V30 45436 C 2317.84 5.59201 -1.75185 0
M  V30 45437 N 2317.79 4.58235 -0.662552 0
M  V30 45438 C 2317.87 4.7683 0.704049 0
M  V30 45439 N 2317.79 3.66233 1.39775 0
M  V30 45440 C 2317.65 2.66526 0.431739 0
M  V30 45441 C 2317.52 1.26394 0.575992 0
M  V30 45442 N 2317.4 0.62859 -0.67177 0
M  V30 45443 C 2317.4 1.27134 -1.89385 0
M  V30 45444 N 2317.27 0.492035 -2.96951 0
M  V30 45445 N 2317.53 2.58978 -2.02907 0
M  V30 45446 C 2317.65 3.22433 -0.832218 0
M  V30 45447 H 2320.63 8.65116 -0.777161 0
M  V30 45448 H 2320.9 6.90173 -0.474152 0
M  V30 45449 H 2320.03 7.66548 -2.79458 0
M  V30 45450 P 2316.07 8.03563 -3.84925 0
M  V30 45451 O 2315.85 8.85821 -5.0569 0
M  V30 45452 O 2315.28 8.41101 -2.65469 0
M  V30 45453 O 2315.82 6.4965 -4.18908 0
M  V30 45454 C 2316.76 5.81037 -5.05421 0
M  V30 45455 C 2316.03 4.78366 -5.89277 0
M  V30 45456 O 2315.82 3.58302 -5.08433 0
M  V30 45457 C 2314.63 5.17448 -6.36119 0
M  V30 45458 O 2314.24 4.45271 -7.53232 0
M  V30 45459 C 2313.75 4.74639 -5.19936 0
M  V30 45460 C 2314.46 3.49432 -4.70418 0
M  V30 45461 N 2314.41 3.31776 -3.22945 0
M  V30 45462 H 2317.25 6.54213 -5.71376 0
M  V30 45463 H 2317.52 5.30492 -4.44033 0
M  V30 45464 H 2316.65 4.55889 -6.76652 0
M  V30 45465 P 2312.69 4.23843 -7.83734 0
M  V30 45466 O 2312.47 4.19407 -9.29784 0
M  V30 45467 O 2311.9 5.24426 -7.09156 0
M  V30 45468 O 2312.44 2.7935 -7.20758 0
M  V30 45469 C 2313.38 1.7299 -7.50419 0
M  V30 45470 C 2312.65 0.406376 -7.57911 0
M  V30 45471 O 2312.44 -0.0897726 -6.21935 0
M  V30 45472 C 2311.25 0.447224 -8.1878 0
M  V30 45473 O 2310.86 -0.825065 -8.71101 0
M  V30 45474 C 2310.37 0.783801 -6.99623 0
M  V30 45475 C 2311.08 0.0619192 -5.85967 0
M  V30 45476 N 2311.03 0.7859 -4.56281 0
M  V30 45477 C 2311.11 2.14308 -4.31736 0
M  V30 45478 N 2311.03 2.46106 -3.05116 0
M  V30 45479 C 2310.89 1.23422 -2.4014 0
M  V30 45480 C 2310.76 0.938381 -1.02409 0
M  V30 45481 N 2310.64 -0.444647 -0.805413 0
M  V30 45482 C 2310.64 -1.40829 -1.79435 0
M  V30 45483 N 2310.51 -2.67213 -1.38558 0
M  V30 45484 N 2310.77 -1.12947 -3.09005 0
M  V30 45485 C 2310.89 0.204887 -3.32369 0
M  V30 45486 H 2313.87 1.93423 -8.4679 0
M  V30 45487 H 2314.14 1.68181 -6.71046 0
M  V30 45488 H 2313.27 -0.289041 -8.15388 0
M  V30 45489 P 2309.31 -1.17771 -8.83182 0
M  V30 45490 O 2309.09 -2.07206 -9.98732 0
M  V30 45491 O 2308.52 0.0743816 -8.81969 0
M  V30 45492 O 2309.06 -1.97652 -7.47304 0
M  V30 45493 C 2310 -3.01133 -7.08783 0
M  V30 45494 C 2309.27 -4.12613 -6.37049 0
M  V30 45495 O 2309.06 -3.72827 -4.97879 0
M  V30 45496 C 2307.87 -4.45085 -6.88694 0
M  V30 45497 O 2307.48 -5.7877 -6.5624 0
M  V30 45498 C 2306.99 -3.47817 -6.12078 0
M  V30 45499 C 2307.7 -3.39414 -4.77697 0
M  V30 45500 N 2307.65 -2.04199 -4.15538 0
M  V30 45501 H 2310.49 -3.41248 -7.98759 0
M  V30 45502 H 2310.76 -2.57728 -6.42 0
M  V30 45503 H 2309.89 -5.02657 -6.42673 0
M  V30 45504 H 2307.23 -4.11708 -4.08956 0
M  V30 45505 H 2306.95 -2.49626 -6.61679 0
M  V30 45506 H 2305.96 -3.8662 -6.00862 0
M  V30 45507 H 2307.8 -4.29991 -7.97006 0
M  V30 45508 P 2305.93 -6.144 -6.45285 0
M  V30 45509 O 2305.71 -7.54673 -6.86199 0
M  V30 45510 O 2305.14 -5.12391 -7.179 0
M  V30 45511 O 2305.68 -5.99158 -4.88404 0
M  V30 45512 C 2306.62 -6.60234 -3.96415 0
M  V30 45513 C 2305.89 -7.08259 -2.72856 0
M  V30 45514 O 2305.68 -5.9427 -1.83651 0
M  V30 45515 C 2304.49 -7.64886 -2.9555 0
M  V30 45516 O 2304.1 -8.53963 -1.90717 0
M  V30 45517 C 2303.61 -6.4116 -2.90739 0
M  V30 45518 C 2304.32 -5.55375 -1.86963 0
M  V30 45519 N 2304.27 -4.09664 -2.15742 0
M  V30 45520 H 2307.11 -7.45574 -4.45629 0
M  V30 45521 H 2307.38 -5.86232 -3.67314 0
M  V30 45522 H 2306.51 -7.84412 -2.24479 0
M  V30 45523 P 2302.55 -8.7635 -1.60911 0
M  V30 45524 O 2302.33 -10.1388 -1.11561 0
M  V30 45525 O 2301.76 -8.36503 -2.79617 0
M  V30 45526 O 2302.3 -7.71806 -0.42951 0
M  V30 45527 C 2303.24 -7.67148 0.673689 0
M  V30 45528 C 2302.51 -7.33374 1.95559 0
M  V30 45529 O 2302.3 -5.88721 2.00726 0
M  V30 45530 C 2301.11 -7.92526 2.10483 0
M  V30 45531 O 2300.72 -8.02971 3.47653 0
M  V30 45532 C 2300.23 -6.89602 1.41652 0
M  V30 45533 C 2300.94 -5.59201 1.75185 0
M  V30 45534 N 2300.89 -4.58235 0.662552 0
M  V30 45535 H 2303.73 -8.65116 0.777161 0
M  V30 45536 H 2304 -6.90173 0.474152 0
M  V30 45537 H 2303.13 -7.66548 2.79458 0
M  V30 45538 P 2299.17 -8.03563 3.84925 0
M  V30 45539 O 2298.95 -8.85821 5.0569 0
M  V30 45540 O 2298.38 -8.41101 2.65469 0
M  V30 45541 O 2298.92 -6.4965 4.18908 0
M  V30 45542 C 2299.86 -5.81037 5.05421 0
M  V30 45543 C 2299.13 -4.78366 5.89277 0
M  V30 45544 O 2298.92 -3.58302 5.08433 0
M  V30 45545 C 2297.73 -5.17448 6.36119 0
M  V30 45546 O 2297.34 -4.45271 7.53232 0
M  V30 45547 C 2296.85 -4.74639 5.19936 0
M  V30 45548 C 2297.56 -3.49432 4.70418 0
M  V30 45549 N 2297.51 -3.31776 3.22945 0
M  V30 45550 H 2300.35 -6.54213 5.71376 0
M  V30 45551 H 2300.62 -5.30492 4.44033 0
M  V30 45552 H 2299.75 -4.55889 6.76652 0
M  V30 45553 P 2295.79 -4.23843 7.83734 0
M  V30 45554 O 2295.57 -4.19407 9.29784 0
M  V30 45555 O 2295 -5.24426 7.09156 0
M  V30 45556 O 2295.54 -2.79386 7.20852 0
M  V30 45557 C 2296.48 -1.7299 7.50419 0
M  V30 45558 C 2295.75 -0.41401 7.5797 0
M  V30 45559 O 2295.54 0.089787 6.22035 0
M  V30 45560 C 2294.35 -0.447224 8.1878 0
M  V30 45561 O 2293.96 0.825159 8.71201 0
M  V30 45562 C 2293.47 -0.783801 6.99623 0
M  V30 45563 C 2294.18 -0.0619192 5.85967 0
M  V30 45564 N 2294.13 -0.7859 4.56281 0
M  V30 45565 C 2293.98 -0.0359258 3.39981 0
M  V30 45566 O 2293.89 1.19723 3.49038 0
M  V30 45567 N 2293.93 -0.869151 2.14025 0
M  V30 45568 C 2294.03 -2.01207 2.14363 0
M  V30 45569 N 2293.98 -2.58978 0.954287 0
M  V30 45570 C 2294.18 -2.80817 3.32215 0
M  V30 45571 C 2294.23 -2.13785 4.50884 0
M  V30 45572 H 2296.97 -1.93401 8.46693 0
M  V30 45573 H 2297.24 -1.68181 6.71046 0
M  V30 45574 H 2296.37 0.289076 8.15488 0
M  V30 45575 H 2293.71 0.927166 5.72947 0
M  V30 45576 H 2293.43 -1.87 6.82132 0
M  V30 45577 H 2292.44 -0.404009 7.13457 0
M  V30 45578 H 2294.28 -1.20599 8.97534 0
M  V30 45579 H 2294.35 -2.70295 5.43162 0
M  V30 45580 H 2294.25 -3.89465 3.27406 0
M  V30 45581 H 2293.86 -2.01616 0.107046 0
M  V30 45582 H 2294.06 -3.61403 0.873101 0
M  V30 45583 P 2292.41 1.17771 8.83182 0
M  V30 45584 O 2292.19 2.07206 9.98732 0
M  V30 45585 O 2291.62 -0.0743816 8.81969 0
M  V30 45586 O 2292.16 1.97652 7.47304 0
M  V30 45587 C 2293.1 3.01133 7.08783 0
M  V30 45588 C 2292.37 4.12613 6.37049 0
M  V30 45589 O 2292.16 3.72827 4.97879 0
M  V30 45590 C 2290.97 4.45085 6.88694 0
M  V30 45591 O 2290.58 5.7877 6.5624 0
M  V30 45592 C 2290.09 3.47817 6.12078 0
M  V30 45593 C 2290.8 3.39414 4.77697 0
M  V30 45594 N 2290.75 2.04615 4.15333 0
M  V30 45595 H 2293.59 3.41248 7.98759 0
M  V30 45596 H 2293.86 2.5837 6.41742 0
M  V30 45597 H 2292.99 5.02657 6.42673 0
M  V30 45598 P 2289.03 6.144 6.45285 0
M  V30 45599 O 2288.81 7.54673 6.86199 0
M  V30 45600 O 2288.24 5.12391 7.179 0
M  V30 45601 O 2288.78 5.99158 4.88404 0
M  V30 45602 C 2289.72 6.60234 3.96415 0
M  V30 45603 C 2288.99 7.08259 2.72856 0
M  V30 45604 O 2288.78 5.9427 1.83651 0
M  V30 45605 C 2287.59 7.64886 2.9555 0
M  V30 45606 O 2287.2 8.53963 1.90717 0
M  V30 45607 C 2286.71 6.4116 2.90739 0
M  V30 45608 C 2287.42 5.55375 1.86963 0
M  V30 45609 N 2287.37 4.09664 2.15742 0
M  V30 45610 H 2290.21 7.45574 4.45629 0
M  V30 45611 H 2290.48 5.86232 3.67314 0
M  V30 45612 H 2289.61 7.84412 2.24479 0
M  V30 45613 P 2285.65 8.7635 1.60911 0
M  V30 45614 O 2285.43 10.1388 1.11561 0
M  V30 45615 O 2284.86 8.36503 2.79617 0
M  V30 45616 O 2285.4 7.71806 0.42951 0
M  V30 45617 C 2286.34 7.67148 -0.673689 0
M  V30 45618 C 2285.61 7.33374 -1.95559 0
M  V30 45619 O 2285.4 5.88721 -2.00726 0
M  V30 45620 C 2284.21 7.92526 -2.10483 0
M  V30 45621 O 2283.82 8.02971 -3.47653 0
M  V30 45622 C 2283.33 6.89602 -1.41652 0
M  V30 45623 C 2284.04 5.59201 -1.75185 0
M  V30 45624 N 2283.99 4.58301 -0.657969 0
M  V30 45625 H 2286.83 8.65116 -0.777161 0
M  V30 45626 H 2287.1 6.9022 -0.46725 0
M  V30 45627 H 2286.23 7.66548 -2.79458 0
M  V30 45628 H 2283.57 5.16165 -2.65183 0
M  V30 45629 H 2283.29 7.06433 -0.329384 0
M  V30 45630 H 2282.3 6.90926 -1.82021 0
M  V30 45631 H 2284.14 8.90873 -1.62657 0
M  V30 45632 P 2282.27 8.03563 -3.84925 0
M  V30 45633 O 2282.05 8.85821 -5.0569 0
M  V30 45634 O 2281.48 8.41101 -2.65469 0
M  V30 45635 O 2282.02 6.4965 -4.18908 0
M  V30 45636 C 2282.96 5.80886 -5.05289 0
M  V30 45637 C 2282.23 4.78366 -5.89277 0
M  V30 45638 O 2282.02 3.58302 -5.08433 0
M  V30 45639 C 2280.83 5.16748 -6.36559 0
M  V30 45640 O 2280.44 4.45271 -7.53232 0
M  V30 45641 C 2279.95 4.74572 -5.19863 0
M  V30 45642 C 2280.66 3.49373 -4.70338 0
M  V30 45643 N 2280.61 3.31704 -3.22876 0
M  V30 45644 C 2280.46 2.03326 -2.74871 0
M  V30 45645 O 2280.37 1.06486 -3.48076 0
M  V30 45646 N 2280.42 1.91838 -1.37456 0
M  V30 45647 C 2280.51 2.94295 -0.462035 0
M  V30 45648 C 2280.66 4.25064 -1.05249 0
M  V30 45649 C 2280.71 4.40214 -2.39192 0
M  V30 45650 H 2283.45 6.54063 -5.71245 0
M  V30 45651 H 2283.72 5.30339 -4.43905 0
M  V30 45652 H 2282.85 4.55889 -6.76652 0
M  V30 45653 H 2280.19 2.6167 -5.17842 0
M  V30 45654 H 2279.92 5.52155 -4.41878 0
M  V30 45655 H 2278.92 4.51918 -5.53297 0
M  V30 45656 H 2280.76 6.25055 -6.55162 0
M  V30 45657 H 2280.83 5.39798 -2.81523 0
M  V30 45658 P 2278.89 4.23843 -7.83734 0
M  V30 45659 O 2278.67 4.19407 -9.29784 0
M  V30 45660 O 2278.1 5.24426 -7.09156 0
M  V30 45661 O 2278.64 2.7935 -7.20758 0
M  V30 45662 C 2279.58 1.7299 -7.50419 0
M  V30 45663 C 2278.85 0.406376 -7.57911 0
M  V30 45664 O 2278.64 -0.0897726 -6.21935 0
M  V30 45665 C 2277.45 0.447224 -8.1878 0
M  V30 45666 O 2277.06 -0.825065 -8.71101 0
M  V30 45667 C 2276.57 0.783801 -6.99623 0
M  V30 45668 C 2277.28 0.0619192 -5.85967 0
M  V30 45669 N 2277.23 0.7859 -4.56281 0
M  V30 45670 H 2280.07 1.93423 -8.4679 0
M  V30 45671 H 2280.34 1.68181 -6.71046 0
M  V30 45672 H 2279.47 -0.289041 -8.15388 0
M  V30 45673 P 2275.51 -1.17771 -8.83182 0
M  V30 45674 O 2275.29 -2.07206 -9.98732 0
M  V30 45675 O 2274.72 0.0743816 -8.81969 0
M  V30 45676 O 2275.26 -1.97652 -7.47304 0
M  V30 45677 C 2276.2 -3.01055 -7.08599 0
M  V30 45678 C 2275.47 -4.12613 -6.37049 0
M  V30 45679 O 2275.26 -3.72827 -4.97879 0
M  V30 45680 C 2274.07 -4.45719 -6.88164 0
M  V30 45681 O 2273.68 -5.7877 -6.5624 0
M  V30 45682 C 2273.19 -3.47768 -6.11991 0
M  V30 45683 C 2273.9 -3.39356 -4.77615 0
M  V30 45684 N 2273.85 -2.04571 -4.15244 0
M  V30 45685 C 2273.7 -1.98587 -2.78314 0
M  V30 45686 O 2273.61 -2.98134 -2.08835 0
M  V30 45687 N 2273.66 -0.714467 -2.24925 0
M  V30 45688 C 2273.75 0.470001 -2.94169 0
M  V30 45689 C 2273.9 0.312541 -4.36783 0
M  V30 45690 C 2273.95 -0.914512 -4.92583 0
M  V30 45691 H 2276.69 -3.41169 -7.98575 0
M  V30 45692 H 2276.96 -2.58295 -6.41556 0
M  V30 45693 H 2276.09 -5.02657 -6.42673 0
M  V30 45694 H 2273.43 -4.11637 -4.08885 0
M  V30 45695 H 2273.16 -2.49626 -6.61679 0
M  V30 45696 H 2272.16 -3.86566 -6.00778 0
M  V30 45697 H 2274 -4.29943 -7.96918 0
M  V30 45698 H 2274.07 -1.00937 -6.00374 0
M  V30 45699 P 2272.13 -6.144 -6.45285 0
M  V30 45700 O 2271.91 -7.54673 -6.86199 0
M  V30 45701 O 2271.34 -5.12391 -7.179 0
M  V30 45702 O 2271.88 -5.99158 -4.88404 0
M  V30 45703 C 2272.82 -6.60062 -3.96313 0
M  V30 45704 C 2272.09 -7.08259 -2.72856 0
M  V30 45705 O 2271.88 -5.9427 -1.83651 0
M  V30 45706 C 2270.69 -7.65087 -2.94749 0
M  V30 45707 O 2270.3 -8.53963 -1.90717 0
M  V30 45708 C 2269.81 -6.41069 -2.90698 0
M  V30 45709 C 2270.52 -5.5528 -1.86931 0
M  V30 45710 N 2270.47 -4.09575 -2.15696 0
M  V30 45711 C 2270.32 -3.24249 -1.08435 0
M  V30 45712 O 2270.23 -3.63946 0.0628747 0
M  V30 45713 N 2270.28 -1.90009 -1.39973 0
M  V30 45714 C 2270.37 -1.34884 -2.65614 0
M  V30 45715 C 2270.52 -2.3145 -3.71736 0
M  V30 45716 C 2270.57 -3.63518 -3.44754 0
M  V30 45717 H 2273.31 -7.45402 -4.45526 0
M  V30 45718 H 2273.58 -5.86062 -3.67208 0
M  V30 45719 H 2272.71 -7.84412 -2.24479 0
M  V30 45720 H 2270.05 -5.73358 -0.888409 0
M  V30 45721 H 2269.78 -5.90877 -3.88583 0
M  V30 45722 H 2268.78 -6.65867 -2.58821 0
M  V30 45723 H 2270.62 -8.16248 -3.92006 0
M  V30 45724 H 2270.69 -4.34551 -4.26383 0
M  V30 45725 P 2268.75 -8.7635 -1.60911 0
M  V30 45726 O 2268.53 -10.1388 -1.11561 0
M  V30 45727 O 2267.96 -8.36503 -2.79617 0
M  V30 45728 O 2268.5 -7.71806 -0.42951 0
M  V30 45729 C 2269.44 -7.67148 0.673689 0
M  V30 45730 C 2268.71 -7.33374 1.95559 0
M  V30 45731 O 2268.5 -5.88721 2.00726 0
M  V30 45732 C 2267.31 -7.92526 2.10483 0
M  V30 45733 O 2266.92 -8.02971 3.47653 0
M  V30 45734 C 2266.43 -6.89602 1.41652 0
M  V30 45735 C 2267.14 -5.59201 1.75185 0
M  V30 45736 N 2267.09 -4.58301 0.657969 0
M  V30 45737 H 2269.93 -8.65116 0.777161 0
M  V30 45738 H 2270.2 -6.9022 0.46725 0
M  V30 45739 H 2269.33 -7.66548 2.79458 0
M  V30 45740 H 2266.67 -5.16165 2.65183 0
M  V30 45741 H 2266.39 -7.06433 0.329384 0
M  V30 45742 H 2265.4 -6.90926 1.82021 0
M  V30 45743 H 2267.24 -8.90873 1.62657 0
M  V30 45744 P 2265.37 -8.03563 3.84925 0
M  V30 45745 O 2265.15 -8.85821 5.0569 0
M  V30 45746 O 2264.58 -8.41101 2.65469 0
M  V30 45747 O 2265.12 -6.4965 4.18908 0
M  V30 45748 C 2266.06 -5.81037 5.05421 0
M  V30 45749 C 2265.33 -4.78366 5.89277 0
M  V30 45750 O 2265.12 -3.58302 5.08433 0
M  V30 45751 C 2263.93 -5.17448 6.36119 0
M  V30 45752 O 2263.54 -4.45271 7.53232 0
M  V30 45753 C 2263.05 -4.74639 5.19936 0
M  V30 45754 C 2263.76 -3.49432 4.70418 0
M  V30 45755 N 2263.71 -3.31776 3.22945 0
M  V30 45756 H 2266.55 -6.54213 5.71376 0
M  V30 45757 H 2266.82 -5.30492 4.44033 0
M  V30 45758 H 2265.95 -4.55889 6.76652 0
M  V30 45759 P 2261.99 -4.23843 7.83734 0
M  V30 45760 O 2261.77 -4.19407 9.29784 0
M  V30 45761 O 2261.2 -5.24426 7.09156 0
M  V30 45762 O 2261.74 -2.7935 7.20758 0
M  V30 45763 C 2262.68 -1.7299 7.50419 0
M  V30 45764 C 2261.95 -0.406376 7.57911 0
M  V30 45765 O 2261.74 0.0897726 6.21935 0
M  V30 45766 C 2260.55 -0.447224 8.1878 0
M  V30 45767 O 2260.16 0.825065 8.71101 0
M  V30 45768 C 2259.67 -0.783801 6.99623 0
M  V30 45769 C 2260.38 -0.0619192 5.85967 0
M  V30 45770 N 2260.33 -0.7859 4.56281 0
M  V30 45771 H 2263.17 -1.93423 8.4679 0
M  V30 45772 H 2263.44 -1.68181 6.71046 0
M  V30 45773 H 2262.57 0.289041 8.15388 0
M  V30 45774 P 2258.61 1.17771 8.83182 0
M  V30 45775 O 2258.39 2.07206 9.98732 0
M  V30 45776 O 2257.82 -0.0743816 8.81969 0
M  V30 45777 O 2258.36 1.97652 7.47304 0
M  V30 45778 C 2259.3 3.01133 7.08783 0
M  V30 45779 C 2258.57 4.12613 6.37049 0
M  V30 45780 O 2258.36 3.72827 4.97879 0
M  V30 45781 C 2257.17 4.45085 6.88694 0
M  V30 45782 O 2256.78 5.7877 6.5624 0
M  V30 45783 C 2256.29 3.47817 6.12078 0
M  V30 45784 C 2257 3.39414 4.77697 0
M  V30 45785 N 2256.95 2.04615 4.15333 0
M  V30 45786 H 2259.79 3.41248 7.98759 0
M  V30 45787 H 2260.06 2.5837 6.41742 0
M  V30 45788 H 2259.19 5.02657 6.42673 0
M  V30 45789 P 2255.23 6.144 6.45285 0
M  V30 45790 O 2255.01 7.54673 6.86199 0
M  V30 45791 O 2254.44 5.12391 7.179 0
M  V30 45792 O 2254.98 5.99158 4.88404 0
M  V30 45793 C 2255.92 6.60234 3.96415 0
M  V30 45794 C 2255.19 7.08259 2.72856 0
M  V30 45795 O 2254.98 5.9427 1.83651 0
M  V30 45796 C 2253.79 7.64886 2.9555 0
M  V30 45797 O 2253.4 8.53963 1.90717 0
M  V30 45798 C 2252.91 6.4116 2.90739 0
M  V30 45799 C 2253.62 5.55375 1.86963 0
M  V30 45800 N 2253.57 4.09664 2.15742 0
M  V30 45801 H 2256.41 7.45574 4.45629 0
M  V30 45802 H 2256.68 5.86232 3.67314 0
M  V30 45803 H 2255.81 7.84412 2.24479 0
M  V30 45804 P 2251.85 8.7635 1.60911 0
M  V30 45805 O 2251.63 10.1388 1.11561 0
M  V30 45806 O 2251.06 8.36503 2.79617 0
M  V30 45807 O 2251.6 7.71806 0.42951 0
M  V30 45808 C 2252.54 7.67148 -0.673689 0
M  V30 45809 C 2251.81 7.33374 -1.95559 0
M  V30 45810 O 2251.6 5.88721 -2.00726 0
M  V30 45811 C 2250.41 7.92526 -2.10483 0
M  V30 45812 O 2250.02 8.02971 -3.47653 0
M  V30 45813 C 2249.53 6.89602 -1.41652 0
M  V30 45814 C 2250.24 5.59201 -1.75185 0
M  V30 45815 N 2250.19 4.58301 -0.657969 0
M  V30 45816 C 2250.27 4.79019 0.692603 0
M  V30 45817 N 2250.2 3.69736 1.38998 0
M  V30 45818 C 2250.05 2.70474 0.438135 0
M  V30 45819 C 2249.92 1.30327 0.538142 0
M  V30 45820 N 2249.91 0.64304 1.69192 0
M  V30 45821 N 2249.8 0.611027 -0.605183 0
M  V30 45822 C 2249.81 1.27002 -1.75953 0
M  V30 45823 N 2249.93 2.56038 -1.98546 0
M  V30 45824 C 2250.05 3.22681 -0.822541 0
M  V30 45825 H 2253.03 8.65116 -0.777161 0
M  V30 45826 H 2253.3 6.9022 -0.46725 0
M  V30 45827 H 2252.43 7.66548 -2.79458 0
M  V30 45828 H 2249.77 5.16165 -2.65183 0
M  V30 45829 H 2249.49 7.06433 -0.329384 0
M  V30 45830 H 2248.5 6.90926 -1.82021 0
M  V30 45831 H 2250.34 8.90873 -1.62657 0
M  V30 45832 H 2250.38 5.77785 1.13874 0
M  V30 45833 H 2250 1.15585 2.57991 0
M  V30 45834 H 2249.81 -0.382989 1.69835 0
M  V30 45835 H 2249.7 0.653331 -2.64449 0
M  V30 45836 P 2248.47 8.03563 -3.84925 0
M  V30 45837 O 2248.25 8.85821 -5.0569 0
M  V30 45838 O 2247.68 8.41101 -2.65469 0
M  V30 45839 O 2248.22 6.4965 -4.18908 0
M  V30 45840 C 2249.16 5.81037 -5.05421 0
M  V30 45841 C 2248.43 4.78366 -5.89277 0
M  V30 45842 O 2248.22 3.58302 -5.08433 0
M  V30 45843 C 2247.03 5.17448 -6.36119 0
M  V30 45844 O 2246.64 4.45271 -7.53232 0
M  V30 45845 C 2246.15 4.74639 -5.19936 0
M  V30 45846 C 2246.86 3.49432 -4.70418 0
M  V30 45847 N 2246.81 3.31776 -3.22945 0
M  V30 45848 H 2249.65 6.54213 -5.71376 0
M  V30 45849 H 2249.92 5.30492 -4.44033 0
M  V30 45850 H 2249.05 4.55889 -6.76652 0
M  V30 45851 P 2245.09 4.23843 -7.83734 0
M  V30 45852 O 2244.87 4.19407 -9.29784 0
M  V30 45853 O 2244.3 5.24426 -7.09156 0
M  V30 45854 O 2244.84 2.7935 -7.20758 0
M  V30 45855 C 2245.78 1.7299 -7.50419 0
M  V30 45856 C 2245.05 0.406376 -7.57911 0
M  V30 45857 O 2244.84 -0.0897726 -6.21935 0
M  V30 45858 C 2243.65 0.447224 -8.1878 0
M  V30 45859 O 2243.26 -0.825065 -8.71101 0
M  V30 45860 C 2242.77 0.783801 -6.99623 0
M  V30 45861 C 2243.48 0.0619192 -5.85967 0
M  V30 45862 N 2243.43 0.7859 -4.56281 0
M  V30 45863 H 2246.27 1.93423 -8.4679 0
M  V30 45864 H 2246.54 1.68181 -6.71046 0
M  V30 45865 H 2245.67 -0.289041 -8.15388 0
M  V30 45866 P 2241.71 -1.17771 -8.83182 0
M  V30 45867 O 2241.49 -2.07206 -9.98732 0
M  V30 45868 O 2240.92 0.0743816 -8.81969 0
M  V30 45869 O 2241.46 -1.97652 -7.47304 0
M  V30 45870 C 2242.4 -3.01133 -7.08783 0
M  V30 45871 C 2241.67 -4.12613 -6.37049 0
M  V30 45872 O 2241.46 -3.72827 -4.97879 0
M  V30 45873 C 2240.27 -4.45085 -6.88694 0
M  V30 45874 O 2239.88 -5.7877 -6.5624 0
M  V30 45875 C 2239.39 -3.47817 -6.12078 0
M  V30 45876 C 2240.1 -3.39414 -4.77697 0
M  V30 45877 N 2240.05 -2.04615 -4.15333 0
M  V30 45878 H 2242.89 -3.41248 -7.98759 0
M  V30 45879 H 2243.16 -2.5837 -6.41742 0
M  V30 45880 H 2242.29 -5.02657 -6.42673 0
M  V30 45881 P 2238.33 -6.144 -6.45285 0
M  V30 45882 O 2238.11 -7.54673 -6.86199 0
M  V30 45883 O 2237.54 -5.12391 -7.179 0
M  V30 45884 O 2238.08 -5.99158 -4.88404 0
M  V30 45885 C 2239.02 -6.60234 -3.96415 0
M  V30 45886 C 2238.29 -7.08259 -2.72856 0
M  V30 45887 O 2238.08 -5.9427 -1.83651 0
M  V30 45888 C 2236.89 -7.64886 -2.9555 0
M  V30 45889 O 2236.5 -8.53963 -1.90717 0
M  V30 45890 C 2236.01 -6.4116 -2.90739 0
M  V30 45891 C 2236.72 -5.55375 -1.86963 0
M  V30 45892 N 2236.67 -4.09448 -2.16152 0
M  V30 45893 H 2239.51 -7.45574 -4.45629 0
M  V30 45894 H 2239.78 -5.85864 -3.679 0
M  V30 45895 H 2238.91 -7.84412 -2.24479 0
M  V30 45896 H 2236.25 -5.73457 -0.888562 0
M  V30 45897 H 2235.97 -5.90877 -3.88583 0
M  V30 45898 H 2234.98 -6.6596 -2.58858 0
M  V30 45899 H 2236.82 -8.16339 -3.92049 0
M  V30 45900 P 2234.95 -8.7635 -1.60911 0
M  V30 45901 O 2234.73 -10.1388 -1.11561 0
M  V30 45902 O 2234.16 -8.36503 -2.79617 0
M  V30 45903 O 2234.7 -7.71806 -0.42951 0
M  V30 45904 C 2235.64 -7.66948 0.673514 0
M  V30 45905 C 2234.91 -7.33374 1.95559 0
M  V30 45906 O 2234.7 -5.88721 2.00726 0
M  V30 45907 C 2233.51 -7.92218 2.1125 0
M  V30 45908 O 2233.12 -8.02971 3.47653 0
M  V30 45909 C 2232.63 -6.89504 1.41631 0
M  V30 45910 C 2233.34 -5.59106 1.75155 0
M  V30 45911 N 2233.29 -4.58136 0.662409 0
M  V30 45912 C 2233.14 -3.26059 1.02863 0
M  V30 45913 O 2233.05 -2.90743 2.19009 0
M  V30 45914 N 2233.1 -2.35995 -0.0155585 0
M  V30 45915 C 2233.19 -2.65248 -1.35603 0
M  V30 45916 C 2233.34 -4.05747 -1.64698 0
M  V30 45917 C 2233.39 -4.96734 -0.652411 0
M  V30 45918 H 2236.13 -8.64917 0.776982 0
M  V30 45919 H 2236.4 -6.89974 0.474015 0
M  V30 45920 H 2235.53 -7.66548 2.79458 0
M  V30 45921 H 2232.87 -5.16076 2.65138 0
M  V30 45922 H 2232.6 -7.06433 0.329384 0
M  V30 45923 H 2231.6 -6.90829 1.81996 0
M  V30 45924 H 2233.44 -8.90774 1.62639 0
M  V30 45925 H 2233.51 -6.02181 -0.895285 0
M  V30 45926 P 2231.57 -8.03563 3.84925 0
M  V30 45927 O 2231.35 -8.85821 5.0569 0
M  V30 45928 O 2230.78 -8.41101 2.65469 0
M  V30 45929 O 2231.32 -6.4965 4.18908 0
M  V30 45930 C 2232.26 -5.81037 5.05421 0
M  V30 45931 C 2231.53 -4.78366 5.89277 0
M  V30 45932 O 2231.32 -3.58302 5.08433 0
M  V30 45933 C 2230.13 -5.17448 6.36119 0
M  V30 45934 O 2229.74 -4.45271 7.53232 0
M  V30 45935 C 2229.25 -4.74639 5.19936 0
M  V30 45936 C 2229.96 -3.49432 4.70418 0
M  V30 45937 N 2229.91 -3.32099 3.22613 0
M  V30 45938 H 2232.75 -6.54213 5.71376 0
M  V30 45939 H 2233.02 -5.30936 4.43503 0
M  V30 45940 H 2232.15 -4.55889 6.76652 0
M  V30 45941 H 2229.49 -2.61715 5.17932 0
M  V30 45942 H 2229.21 -5.52155 4.41878 0
M  V30 45943 H 2228.22 -4.51981 5.53374 0
M  V30 45944 H 2230.06 -6.25124 6.55234 0
M  V30 45945 P 2228.19 -4.23843 7.83734 0
M  V30 45946 O 2227.97 -4.19407 9.29784 0
M  V30 45947 O 2227.4 -5.24426 7.09156 0
M  V30 45948 O 2227.94 -2.7935 7.20758 0
M  V30 45949 C 2228.88 -1.7299 7.50419 0
M  V30 45950 C 2228.15 -0.406376 7.57911 0
M  V30 45951 O 2227.94 0.0897726 6.21935 0
M  V30 45952 C 2226.75 -0.447224 8.1878 0
M  V30 45953 O 2226.36 0.825065 8.71101 0
M  V30 45954 C 2225.87 -0.783801 6.99623 0
M  V30 45955 C 2226.58 -0.0619192 5.85967 0
M  V30 45956 N 2226.53 -0.790462 4.56202 0
M  V30 45957 H 2229.37 -1.93423 8.4679 0
M  V30 45958 H 2229.64 -1.68852 6.70877 0
M  V30 45959 H 2228.77 0.289041 8.15388 0
M  V30 45960 H 2226.11 0.927006 5.72848 0
M  V30 45961 H 2225.83 -1.86973 6.82036 0
M  V30 45962 H 2224.84 -0.403953 7.13357 0
M  V30 45963 H 2226.68 -1.20599 8.97534 0
M  V30 45964 P 2224.81 1.17771 8.83182 0
M  V30 45965 O 2224.59 2.07206 9.98732 0
M  V30 45966 O 2224.02 -0.0743816 8.81969 0
M  V30 45967 O 2224.56 1.97652 7.47304 0
M  V30 45968 C 2225.5 3.01133 7.08783 0
M  V30 45969 C 2224.77 4.12613 6.37049 0
M  V30 45970 O 2224.56 3.72827 4.97879 0
M  V30 45971 C 2223.37 4.45085 6.88694 0
M  V30 45972 O 2222.98 5.7877 6.5624 0
M  V30 45973 C 2222.49 3.47817 6.12078 0
M  V30 45974 C 2223.2 3.39414 4.77697 0
M  V30 45975 N 2223.15 2.04615 4.15333 0
M  V30 45976 H 2225.99 3.41248 7.98759 0
M  V30 45977 H 2226.26 2.5837 6.41742 0
M  V30 45978 H 2225.39 5.02657 6.42673 0
M  V30 45979 P 2221.43 6.144 6.45285 0
M  V30 45980 O 2221.21 7.54673 6.86199 0
M  V30 45981 O 2220.64 5.12391 7.179 0
M  V30 45982 O 2221.18 5.99158 4.88404 0
M  V30 45983 C 2222.12 6.60234 3.96415 0
M  V30 45984 C 2221.39 7.08259 2.72856 0
M  V30 45985 O 2221.18 5.9427 1.83651 0
M  V30 45986 C 2219.99 7.64886 2.9555 0
M  V30 45987 O 2219.6 8.53963 1.90717 0
M  V30 45988 C 2219.11 6.4116 2.90739 0
M  V30 45989 C 2219.82 5.55375 1.86963 0
M  V30 45990 N 2219.77 4.09664 2.15742 0
M  V30 45991 H 2222.61 7.45574 4.45629 0
M  V30 45992 H 2222.88 5.86232 3.67314 0
M  V30 45993 H 2222.01 7.84412 2.24479 0
M  V30 45994 P 2218.05 8.7635 1.60911 0
M  V30 45995 O 2217.83 10.1388 1.11561 0
M  V30 45996 O 2217.26 8.36503 2.79617 0
M  V30 45997 O 2217.8 7.71806 0.42951 0
M  V30 45998 C 2218.74 7.67148 -0.673689 0
M  V30 45999 C 2218.01 7.33374 -1.95559 0
M  V30 46000 O 2217.8 5.88721 -2.00726 0
M  V30 46001 C 2216.61 7.92526 -2.10483 0
M  V30 46002 O 2216.22 8.02971 -3.47653 0
M  V30 46003 C 2215.73 6.89602 -1.41652 0
M  V30 46004 C 2216.44 5.59201 -1.75185 0
M  V30 46005 N 2216.39 4.58301 -0.657969 0
M  V30 46006 H 2219.23 8.65116 -0.777161 0
M  V30 46007 H 2219.5 6.9022 -0.46725 0
M  V30 46008 H 2218.63 7.66548 -2.79458 0
M  V30 46009 H 2215.97 5.16165 -2.65183 0
M  V30 46010 H 2215.69 7.06433 -0.329384 0
M  V30 46011 H 2214.7 6.90926 -1.82021 0
M  V30 46012 H 2216.54 8.90873 -1.62657 0
M  V30 46013 P 2214.67 8.03563 -3.84925 0
M  V30 46014 O 2214.45 8.85821 -5.0569 0
M  V30 46015 O 2213.88 8.41101 -2.65469 0
M  V30 46016 O 2214.42 6.4965 -4.18908 0
M  V30 46017 C 2215.36 5.81037 -5.05421 0
M  V30 46018 C 2214.63 4.78366 -5.89277 0
M  V30 46019 O 2214.42 3.58302 -5.08433 0
M  V30 46020 C 2213.23 5.17448 -6.36119 0
M  V30 46021 O 2212.84 4.45271 -7.53232 0
M  V30 46022 C 2212.35 4.74639 -5.19936 0
M  V30 46023 C 2213.06 3.49432 -4.70418 0
M  V30 46024 N 2213.01 3.32099 -3.22613 0
M  V30 46025 H 2215.85 6.54213 -5.71376 0
M  V30 46026 H 2216.12 5.30936 -4.43503 0
M  V30 46027 H 2215.25 4.55889 -6.76652 0
M  V30 46028 H 2212.59 2.61715 -5.17932 0
M  V30 46029 H 2212.31 5.52155 -4.41878 0
M  V30 46030 H 2211.32 4.51981 -5.53374 0
M  V30 46031 H 2213.16 6.25124 -6.55234 0
M  V30 46032 P 2211.29 4.23843 -7.83734 0
M  V30 46033 O 2211.07 4.19407 -9.29784 0
M  V30 46034 O 2210.5 5.24426 -7.09156 0
M  V30 46035 O 2211.04 2.7935 -7.20758 0
M  V30 46036 C 2211.98 1.7299 -7.50419 0
M  V30 46037 C 2211.25 0.406376 -7.57911 0
M  V30 46038 O 2211.04 -0.0897726 -6.21935 0
M  V30 46039 C 2209.85 0.447224 -8.1878 0
M  V30 46040 O 2209.46 -0.825065 -8.71101 0
M  V30 46041 C 2208.97 0.783801 -6.99623 0
M  V30 46042 C 2209.68 0.0619192 -5.85967 0
M  V30 46043 N 2209.63 0.790462 -4.56202 0
M  V30 46044 H 2212.47 1.93423 -8.4679 0
M  V30 46045 H 2212.74 1.68852 -6.70877 0
M  V30 46046 H 2211.87 -0.289041 -8.15388 0
M  V30 46047 H 2209.21 -0.927006 -5.72848 0
M  V30 46048 H 2208.93 1.86973 -6.82036 0
M  V30 46049 H 2207.94 0.403953 -7.13357 0
M  V30 46050 H 2209.78 1.20599 -8.97534 0
M  V30 46051 P 2207.91 -1.17771 -8.83182 0
M  V30 46052 O 2207.69 -2.07206 -9.98732 0
M  V30 46053 O 2207.12 0.0743816 -8.81969 0
M  V30 46054 O 2207.66 -1.97652 -7.47304 0
M  V30 46055 C 2208.6 -3.01133 -7.08783 0
M  V30 46056 C 2207.87 -4.12613 -6.37049 0
M  V30 46057 O 2207.66 -3.72827 -4.97879 0
M  V30 46058 C 2206.47 -4.45085 -6.88694 0
M  V30 46059 O 2206.08 -5.7877 -6.5624 0
M  V30 46060 C 2205.59 -3.47817 -6.12078 0
M  V30 46061 C 2206.3 -3.39414 -4.77697 0
M  V30 46062 N 2206.25 -2.04615 -4.15333 0
M  V30 46063 H 2209.09 -3.41248 -7.98759 0
M  V30 46064 H 2209.36 -2.5837 -6.41742 0
M  V30 46065 H 2208.49 -5.02657 -6.42673 0
M  V30 46066 P 2204.53 -6.144 -6.45285 0
M  V30 46067 O 2204.31 -7.54673 -6.86199 0
M  V30 46068 O 2203.74 -5.12391 -7.179 0
M  V30 46069 O 2204.28 -5.99158 -4.88404 0
M  V30 46070 C 2205.22 -6.60062 -3.96313 0
M  V30 46071 C 2204.49 -7.08259 -2.72856 0
M  V30 46072 O 2204.28 -5.9427 -1.83651 0
M  V30 46073 C 2203.09 -7.65087 -2.94749 0
M  V30 46074 O 2202.7 -8.53963 -1.90717 0
M  V30 46075 C 2202.21 -6.41069 -2.90698 0
M  V30 46076 C 2202.92 -5.5528 -1.86931 0
M  V30 46077 N 2202.87 -4.09575 -2.15696 0
M  V30 46078 C 2202.72 -3.24249 -1.08435 0
M  V30 46079 O 2202.63 -3.63946 0.0628747 0
M  V30 46080 N 2202.68 -1.90009 -1.39973 0
M  V30 46081 C 2202.77 -1.34884 -2.65614 0
M  V30 46082 O 2202.72 -0.123716 -2.81728 0
M  V30 46083 C 2202.92 -2.3145 -3.71736 0
M  V30 46084 C 2203.03 -1.75913 -5.10438 0
M  V30 46085 C 2202.97 -3.63518 -3.44754 0
M  V30 46086 H 2205.71 -7.45402 -4.45526 0
M  V30 46087 H 2205.98 -5.86062 -3.67208 0
M  V30 46088 H 2205.11 -7.84412 -2.24479 0
M  V30 46089 H 2202.45 -5.73358 -0.888409 0
M  V30 46090 H 2202.18 -5.90877 -3.88583 0
M  V30 46091 H 2201.18 -6.65867 -2.58821 0
M  V30 46092 H 2203.02 -8.16248 -3.92006 0
M  V30 46093 H 2203.09 -4.34551 -4.26383 0
M  V30 46094 H 2202.06 -1.85471 -5.61775 0
M  V30 46095 H 2203.8 -2.31364 -5.66257 0
M  V30 46096 H 2203.31 -0.695936 -5.05229 0
M  V30 46097 H 2202.57 -1.26277 -0.63625 0
M  V30 46098 P 2201.15 -8.7635 -1.60911 0
M  V30 46099 O 2200.93 -10.1388 -1.11561 0
M  V30 46100 O 2200.36 -8.36503 -2.79617 0
M  V30 46101 O 2200.9 -7.71806 -0.42951 0
M  V30 46102 C 2201.84 -7.67148 0.673689 0
M  V30 46103 C 2201.11 -7.33374 1.95559 0
M  V30 46104 O 2200.9 -5.88721 2.00726 0
M  V30 46105 C 2199.71 -7.92526 2.10483 0
M  V30 46106 O 2199.32 -8.02971 3.47653 0
M  V30 46107 C 2198.83 -6.89602 1.41652 0
M  V30 46108 C 2199.54 -5.59201 1.75185 0
M  V30 46109 N 2199.49 -4.58235 0.662552 0
M  V30 46110 H 2202.33 -8.65116 0.777161 0
M  V30 46111 H 2202.6 -6.90173 0.474152 0
M  V30 46112 H 2201.73 -7.66548 2.79458 0
M  V30 46113 P 2197.77 -8.03563 3.84925 0
M  V30 46114 O 2197.55 -8.85821 5.0569 0
M  V30 46115 O 2196.98 -8.41101 2.65469 0
M  V30 46116 O 2197.52 -6.4965 4.18908 0
M  V30 46117 C 2198.46 -5.81037 5.05421 0
M  V30 46118 C 2197.73 -4.78366 5.89277 0
M  V30 46119 O 2197.52 -3.58302 5.08433 0
M  V30 46120 C 2196.33 -5.17448 6.36119 0
M  V30 46121 O 2195.94 -4.45271 7.53232 0
M  V30 46122 C 2195.45 -4.74639 5.19936 0
M  V30 46123 C 2196.16 -3.49432 4.70418 0
M  V30 46124 N 2196.11 -3.32099 3.22613 0
M  V30 46125 H 2198.95 -6.54213 5.71376 0
M  V30 46126 H 2199.22 -5.30936 4.43503 0
M  V30 46127 H 2198.35 -4.55889 6.76652 0
M  V30 46128 H 2195.7 -2.61715 5.17932 0
M  V30 46129 H 2195.42 -5.52155 4.41878 0
M  V30 46130 H 2194.42 -4.51981 5.53374 0
M  V30 46131 H 2196.26 -6.25124 6.55234 0
M  V30 46132 P 2194.39 -4.23843 7.83734 0
M  V30 46133 O 2194.17 -4.19407 9.29784 0
M  V30 46134 O 2193.6 -5.24426 7.09156 0
M  V30 46135 O 2194.14 -2.7935 7.20758 0
M  V30 46136 C 2195.08 -1.7299 7.50419 0
M  V30 46137 C 2194.35 -0.406376 7.57911 0
M  V30 46138 O 2194.14 0.0897726 6.21935 0
M  V30 46139 C 2192.95 -0.447224 8.1878 0
M  V30 46140 O 2192.56 0.825065 8.71101 0
M  V30 46141 C 2192.07 -0.783801 6.99623 0
M  V30 46142 C 2192.78 -0.0619192 5.85967 0
M  V30 46143 N 2192.73 -0.7859 4.56281 0
M  V30 46144 H 2195.57 -1.93423 8.4679 0
M  V30 46145 H 2195.84 -1.68181 6.71046 0
M  V30 46146 H 2194.97 0.289041 8.15388 0
M  V30 46147 P 2191.01 1.17771 8.83182 0
M  V30 46148 O 2190.79 2.07206 9.98732 0
M  V30 46149 O 2190.22 -0.0743816 8.81969 0
M  V30 46150 O 2190.76 1.97652 7.47304 0
M  V30 46151 C 2191.7 3.01055 7.08599 0
M  V30 46152 C 2190.97 4.12613 6.37049 0
M  V30 46153 O 2190.76 3.72827 4.97879 0
M  V30 46154 C 2189.57 4.45719 6.88164 0
M  V30 46155 O 2189.18 5.7877 6.5624 0
M  V30 46156 C 2188.69 3.47768 6.11991 0
M  V30 46157 C 2189.4 3.39356 4.77615 0
M  V30 46158 N 2189.35 2.04571 4.15244 0
M  V30 46159 C 2189.2 1.98587 2.78314 0
M  V30 46160 O 2189.11 2.98134 2.08835 0
M  V30 46161 N 2189.16 0.714467 2.24925 0
M  V30 46162 C 2189.25 -0.470001 2.94169 0
M  V30 46163 O 2189.2 -1.55587 2.35195 0
M  V30 46164 C 2189.4 -0.312541 4.36783 0
M  V30 46165 C 2189.51 -1.57711 5.16352 0
M  V30 46166 C 2189.45 0.914512 4.92583 0
M  V30 46167 H 2192.19 3.41169 7.98575 0
M  V30 46168 H 2192.46 2.58295 6.41556 0
M  V30 46169 H 2191.59 5.02657 6.42673 0
M  V30 46170 H 2188.94 4.11637 4.08885 0
M  V30 46171 H 2188.66 2.49626 6.61679 0
M  V30 46172 H 2187.66 3.86566 6.00778 0
M  V30 46173 H 2189.5 4.29943 7.96918 0
M  V30 46174 H 2189.57 1.00937 6.00374 0
M  V30 46175 H 2188.54 -1.80153 5.63503 0
M  V30 46176 H 2190.28 -1.4566 5.94104 0
M  V30 46177 H 2189.79 -2.40664 4.49645 0
M  V30 46178 H 2189.05 0.647622 1.25697 0
M  V30 46179 P 2187.63 6.144 6.45285 0
M  V30 46180 O 2187.41 7.54673 6.86199 0
M  V30 46181 O 2186.84 5.12391 7.179 0
M  V30 46182 O 2187.38 5.99158 4.88404 0
M  V30 46183 C 2188.32 6.60062 3.96313 0
M  V30 46184 C 2187.59 7.08259 2.72856 0
M  V30 46185 O 2187.38 5.9427 1.83651 0
M  V30 46186 C 2186.19 7.65087 2.94749 0
M  V30 46187 O 2185.8 8.53963 1.90717 0
M  V30 46188 C 2185.31 6.41069 2.90698 0
M  V30 46189 C 2186.02 5.5528 1.86931 0
M  V30 46190 N 2185.97 4.09575 2.15696 0
M  V30 46191 C 2185.82 3.24249 1.08435 0
M  V30 46192 O 2185.73 3.63946 -0.0628747 0
M  V30 46193 N 2185.78 1.90009 1.39973 0
M  V30 46194 C 2185.87 1.34884 2.65614 0
M  V30 46195 O 2185.82 0.123716 2.81728 0
M  V30 46196 C 2186.02 2.3145 3.71736 0
M  V30 46197 C 2186.13 1.75913 5.10438 0
M  V30 46198 C 2186.07 3.63518 3.44754 0
M  V30 46199 H 2188.81 7.45402 4.45526 0
M  V30 46200 H 2189.08 5.86062 3.67208 0
M  V30 46201 H 2188.21 7.84412 2.24479 0
M  V30 46202 H 2185.56 5.73358 0.888409 0
M  V30 46203 H 2185.28 5.90877 3.88583 0
M  V30 46204 H 2184.28 6.65867 2.58821 0
M  V30 46205 H 2186.12 8.16248 3.92006 0
M  V30 46206 H 2186.19 4.34551 4.26383 0
M  V30 46207 H 2185.16 1.85471 5.61775 0
M  V30 46208 H 2186.9 2.31364 5.66257 0
M  V30 46209 H 2186.41 0.695936 5.05229 0
M  V30 46210 H 2185.67 1.26277 0.63625 0
M  V30 46211 P 2184.25 8.7635 1.60911 0
M  V30 46212 O 2184.03 10.1388 1.11561 0
M  V30 46213 O 2183.46 8.36503 2.79617 0
M  V30 46214 O 2184 7.71806 0.42951 0
M  V30 46215 C 2184.94 7.67148 -0.673689 0
M  V30 46216 C 2184.21 7.33374 -1.95559 0
M  V30 46217 O 2184 5.88721 -2.00726 0
M  V30 46218 C 2182.81 7.92526 -2.10483 0
M  V30 46219 O 2182.42 8.02971 -3.47653 0
M  V30 46220 C 2181.93 6.89602 -1.41652 0
M  V30 46221 C 2182.64 5.59201 -1.75185 0
M  V30 46222 N 2182.59 4.58301 -0.657969 0
M  V30 46223 H 2185.43 8.65116 -0.777161 0
M  V30 46224 H 2185.7 6.9022 -0.46725 0
M  V30 46225 H 2184.83 7.66548 -2.79458 0
M  V30 46226 H 2182.18 5.16165 -2.65183 0
M  V30 46227 H 2181.9 7.06433 -0.329384 0
M  V30 46228 H 2180.9 6.90926 -1.82021 0
M  V30 46229 H 2182.74 8.90873 -1.62657 0
M  V30 46230 P 2180.87 8.03563 -3.84925 0
M  V30 46231 O 2180.65 8.85821 -5.0569 0
M  V30 46232 O 2180.08 8.41101 -2.65469 0
M  V30 46233 O 2180.62 6.4965 -4.18908 0
M  V30 46234 C 2181.56 5.81037 -5.05421 0
M  V30 46235 C 2180.83 4.78366 -5.89277 0
M  V30 46236 O 2180.62 3.58302 -5.08433 0
M  V30 46237 C 2179.43 5.17448 -6.36119 0
M  V30 46238 O 2179.04 4.45271 -7.53232 0
M  V30 46239 C 2178.55 4.74639 -5.19936 0
M  V30 46240 C 2179.26 3.49432 -4.70418 0
M  V30 46241 N 2179.21 3.32099 -3.22613 0
M  V30 46242 H 2182.05 6.54213 -5.71376 0
M  V30 46243 H 2182.32 5.30936 -4.43503 0
M  V30 46244 H 2181.45 4.55889 -6.76652 0
M  V30 46245 H 2178.8 2.61715 -5.17932 0
M  V30 46246 H 2178.52 5.52155 -4.41878 0
M  V30 46247 H 2177.52 4.51981 -5.53374 0
M  V30 46248 H 2179.36 6.25124 -6.55234 0
M  V30 46249 P 2177.49 4.23843 -7.83734 0
M  V30 46250 O 2177.27 4.19407 -9.29784 0
M  V30 46251 O 2176.7 5.24426 -7.09156 0
M  V30 46252 O 2177.24 2.7935 -7.20758 0
M  V30 46253 C 2178.18 1.7299 -7.50419 0
M  V30 46254 C 2177.45 0.406376 -7.57911 0
M  V30 46255 O 2177.24 -0.0897726 -6.21935 0
M  V30 46256 C 2176.05 0.447224 -8.1878 0
M  V30 46257 O 2175.66 -0.825065 -8.71101 0
M  V30 46258 C 2175.17 0.783801 -6.99623 0
M  V30 46259 C 2175.88 0.0619192 -5.85967 0
M  V30 46260 N 2175.83 0.7859 -4.56281 0
M  V30 46261 H 2178.67 1.93423 -8.4679 0
M  V30 46262 H 2178.94 1.68181 -6.71046 0
M  V30 46263 H 2178.07 -0.289041 -8.15388 0
M  V30 46264 P 2174.11 -1.17771 -8.83182 0
M  V30 46265 O 2173.89 -2.07206 -9.98732 0
M  V30 46266 O 2173.32 0.0743816 -8.81969 0
M  V30 46267 O 2173.86 -1.97652 -7.47304 0
M  V30 46268 C 2174.8 -3.01133 -7.08783 0
M  V30 46269 C 2174.07 -4.12613 -6.37049 0
M  V30 46270 O 2173.86 -3.72827 -4.97879 0
M  V30 46271 C 2172.67 -4.45085 -6.88694 0
M  V30 46272 O 2172.28 -5.7877 -6.5624 0
M  V30 46273 C 2171.79 -3.47817 -6.12078 0
M  V30 46274 C 2172.5 -3.39414 -4.77697 0
M  V30 46275 N 2172.45 -2.04615 -4.15333 0
M  V30 46276 H 2175.29 -3.41248 -7.98759 0
M  V30 46277 H 2175.56 -2.5837 -6.41742 0
M  V30 46278 H 2174.69 -5.02657 -6.42673 0
M  V30 46279 P 2170.73 -6.144 -6.45285 0
M  V30 46280 O 2170.51 -7.54673 -6.86199 0
M  V30 46281 O 2169.94 -5.12391 -7.179 0
M  V30 46282 O 2170.48 -5.99236 -4.88467 0
M  V30 46283 C 2171.42 -6.60234 -3.96415 0
M  V30 46284 C 2170.69 -7.08079 -2.736 0
M  V30 46285 O 2170.48 -5.94365 -1.8368 0
M  V30 46286 C 2169.29 -7.64886 -2.9555 0
M  V30 46287 O 2168.9 -8.5406 -1.90739 0
M  V30 46288 C 2168.41 -6.4116 -2.90739 0
M  V30 46289 C 2169.12 -5.55375 -1.86963 0
M  V30 46290 N 2169.07 -4.09664 -2.15742 0
M  V30 46291 C 2168.92 -3.22231 -1.08477 0
M  V30 46292 O 2168.83 -3.68951 0.0600489 0
M  V30 46293 N 2168.87 -1.76692 -1.48799 0
M  V30 46294 C 2168.97 -1.41695 -2.57602 0
M  V30 46295 N 2168.92 -0.107296 -2.75791 0
M  V30 46296 C 2169.12 -2.29178 -3.69733 0
M  V30 46297 C 2169.17 -3.62753 -3.42653 0
M  V30 46298 H 2171.91 -7.45488 -4.45578 0
M  V30 46299 H 2172.18 -5.86232 -3.67314 0
M  V30 46300 H 2171.31 -7.84508 -2.24507 0
M  V30 46301 H 2168.66 -5.73556 -0.888715 0
M  V30 46302 H 2168.38 -5.9096 -3.88638 0
M  V30 46303 H 2167.38 -6.66053 -2.58894 0
M  V30 46304 H 2169.22 -8.16339 -3.92049 0
M  V30 46305 H 2169.29 -4.33052 -4.24913 0
M  V30 46306 H 2169.19 -1.9103 -4.71577 0
M  V30 46307 H 2168.8 0.521221 -1.95056 0
M  V30 46308 H 2169 0.286429 -3.70695 0
M  V30 46309 P 2167.35 -8.7635 -1.60911 0
M  V30 46310 O 2167.13 -10.1388 -1.11561 0
M  V30 46311 O 2166.56 -8.36503 -2.79617 0
M  V30 46312 O 2167.1 -7.71806 -0.42951 0
M  V30 46313 C 2168.04 -7.67148 0.673689 0
M  V30 46314 C 2167.31 -7.33374 1.95559 0
M  V30 46315 O 2167.1 -5.88721 2.00726 0
M  V30 46316 C 2165.91 -7.92526 2.10483 0
M  V30 46317 O 2165.52 -8.02971 3.47653 0
M  V30 46318 C 2165.03 -6.89602 1.41652 0
M  V30 46319 C 2165.74 -5.59201 1.75185 0
M  V30 46320 N 2165.69 -4.58301 0.657969 0
M  V30 46321 H 2168.53 -8.65116 0.777161 0
M  V30 46322 H 2168.8 -6.9022 0.46725 0
M  V30 46323 H 2167.93 -7.66548 2.79458 0
M  V30 46324 H 2165.28 -5.16165 2.65183 0
M  V30 46325 H 2165 -7.06433 0.329384 0
M  V30 46326 H 2164 -6.90926 1.82021 0
M  V30 46327 H 2165.84 -8.90873 1.62657 0
M  V30 46328 P 2163.97 -8.03563 3.84925 0
M  V30 46329 O 2163.75 -8.85821 5.0569 0
M  V30 46330 O 2163.18 -8.41101 2.65469 0
M  V30 46331 O 2163.72 -6.4965 4.18908 0
M  V30 46332 C 2164.66 -5.81037 5.05421 0
M  V30 46333 C 2163.93 -4.78366 5.89277 0
M  V30 46334 O 2163.72 -3.58302 5.08433 0
M  V30 46335 C 2162.53 -5.17448 6.36119 0
M  V30 46336 O 2162.14 -4.45271 7.53232 0
M  V30 46337 C 2161.65 -4.74639 5.19936 0
M  V30 46338 C 2162.36 -3.49432 4.70418 0
M  V30 46339 N 2162.31 -3.31776 3.22945 0
M  V30 46340 C 2162.39 -4.27147 2.23315 0
M  V30 46341 N 2162.31 -3.78447 1.02186 0
M  V30 46342 C 2162.17 -2.41001 1.21732 0
M  V30 46343 C 2162.04 -1.36111 0.27694 0
M  V30 46344 N 2161.92 -0.113683 0.912949 0
M  V30 46345 C 2161.92 0.0846396 2.27943 0
M  V30 46346 N 2161.79 1.34737 2.6916 0
M  V30 46347 N 2162.05 -0.902521 3.16379 0
M  V30 46348 C 2162.17 -2.11937 2.56849 0
M  V30 46349 H 2165.15 -6.54213 5.71376 0
M  V30 46350 H 2165.42 -5.30492 4.44033 0
M  V30 46351 H 2164.55 -4.55889 6.76652 0
M  V30 46352 P 2160.59 -4.23843 7.83734 0
M  V30 46353 O 2160.37 -4.19407 9.29784 0
M  V30 46354 O 2159.8 -5.24426 7.09156 0
M  V30 46355 O 2160.34 -2.7935 7.20758 0
M  V30 46356 C 2161.28 -1.7299 7.50419 0
M  V30 46357 C 2160.55 -0.406376 7.57911 0
M  V30 46358 O 2160.34 0.0897726 6.21935 0
M  V30 46359 C 2159.15 -0.447224 8.1878 0
M  V30 46360 O 2158.76 0.825065 8.71101 0
M  V30 46361 C 2158.27 -0.783801 6.99623 0
M  V30 46362 C 2158.98 -0.0619192 5.85967 0
M  V30 46363 N 2158.93 -0.790462 4.56202 0
M  V30 46364 H 2161.77 -1.93423 8.4679 0
M  V30 46365 H 2162.04 -1.68852 6.70877 0
M  V30 46366 H 2161.17 0.289041 8.15388 0
M  V30 46367 H 2158.52 0.927006 5.72848 0
M  V30 46368 H 2158.24 -1.86973 6.82036 0
M  V30 46369 H 2157.24 -0.403953 7.13357 0
M  V30 46370 H 2159.08 -1.20599 8.97534 0
M  V30 46371 P 2157.21 1.17771 8.83182 0
M  V30 46372 O 2156.99 2.07206 9.98732 0
M  V30 46373 O 2156.42 -0.0743816 8.81969 0
M  V30 46374 O 2156.96 1.97652 7.47304 0
M  V30 46375 C 2157.9 3.01133 7.08783 0
M  V30 46376 C 2157.17 4.12613 6.37049 0
M  V30 46377 O 2156.96 3.72827 4.97879 0
M  V30 46378 C 2155.77 4.45085 6.88694 0
M  V30 46379 O 2155.38 5.7877 6.5624 0
M  V30 46380 C 2154.89 3.47817 6.12078 0
M  V30 46381 C 2155.6 3.39414 4.77697 0
M  V30 46382 N 2155.55 2.04615 4.15333 0
M  V30 46383 H 2158.39 3.41248 7.98759 0
M  V30 46384 H 2158.66 2.5837 6.41742 0
M  V30 46385 H 2157.79 5.02657 6.42673 0
M  V30 46386 P 2153.83 6.144 6.45285 0
M  V30 46387 O 2153.61 7.54673 6.86199 0
M  V30 46388 O 2153.04 5.12391 7.179 0
M  V30 46389 O 2153.58 5.99158 4.88404 0
M  V30 46390 C 2154.52 6.60234 3.96415 0
M  V30 46391 C 2153.79 7.08259 2.72856 0
M  V30 46392 O 2153.58 5.9427 1.83651 0
M  V30 46393 C 2152.39 7.64886 2.9555 0
M  V30 46394 O 2152 8.53963 1.90717 0
M  V30 46395 C 2151.51 6.4116 2.90739 0
M  V30 46396 C 2152.22 5.55375 1.86963 0
M  V30 46397 N 2152.17 4.09664 2.15742 0
M  V30 46398 H 2155.01 7.45574 4.45629 0
M  V30 46399 H 2155.28 5.86232 3.67314 0
M  V30 46400 H 2154.41 7.84412 2.24479 0
M  V30 46401 P 2150.45 8.7635 1.60911 0
M  V30 46402 O 2150.23 10.1388 1.11561 0
M  V30 46403 O 2149.66 8.36503 2.79617 0
M  V30 46404 O 2150.2 7.71806 0.42951 0
M  V30 46405 C 2151.14 7.67148 -0.673689 0
M  V30 46406 C 2150.41 7.33374 -1.95559 0
M  V30 46407 O 2150.2 5.88721 -2.00726 0
M  V30 46408 C 2149.01 7.92526 -2.10483 0
M  V30 46409 O 2148.62 8.02971 -3.47653 0
M  V30 46410 C 2148.13 6.89602 -1.41652 0
M  V30 46411 C 2148.84 5.59201 -1.75185 0
M  V30 46412 N 2148.79 4.58235 -0.662552 0
M  V30 46413 H 2151.63 8.65116 -0.777161 0
M  V30 46414 H 2151.9 6.90173 -0.474152 0
M  V30 46415 H 2151.03 7.66548 -2.79458 0
M  V30 46416 P 2147.07 8.03563 -3.84925 0
M  V30 46417 O 2146.85 8.85821 -5.0569 0
M  V30 46418 O 2146.28 8.41101 -2.65469 0
M  V30 46419 O 2146.82 6.4965 -4.18908 0
M  V30 46420 C 2147.76 5.80886 -5.05289 0
M  V30 46421 C 2147.03 4.78366 -5.89277 0
M  V30 46422 O 2146.82 3.58302 -5.08433 0
M  V30 46423 C 2145.63 5.16748 -6.36559 0
M  V30 46424 O 2145.24 4.45271 -7.53232 0
M  V30 46425 C 2144.75 4.74572 -5.19863 0
M  V30 46426 C 2145.46 3.49373 -4.70338 0
M  V30 46427 N 2145.41 3.31704 -3.22876 0
M  V30 46428 C 2145.26 2.03326 -2.74871 0
M  V30 46429 O 2145.17 1.06486 -3.48076 0
M  V30 46430 N 2145.22 1.91838 -1.37456 0
M  V30 46431 C 2145.31 2.94295 -0.462035 0
M  V30 46432 C 2145.46 4.25064 -1.05249 0
M  V30 46433 C 2145.51 4.40214 -2.39192 0
M  V30 46434 H 2148.25 6.54063 -5.71245 0
M  V30 46435 H 2148.52 5.30339 -4.43905 0
M  V30 46436 H 2147.65 4.55889 -6.76652 0
M  V30 46437 H 2145 2.6167 -5.17842 0
M  V30 46438 H 2144.72 5.52155 -4.41878 0
M  V30 46439 H 2143.72 4.51918 -5.53297 0
M  V30 46440 H 2145.56 6.25055 -6.55162 0
M  V30 46441 H 2145.63 5.39798 -2.81523 0
M  V30 46442 P 2143.69 4.23843 -7.83734 0
M  V30 46443 O 2143.47 4.19407 -9.29784 0
M  V30 46444 O 2142.9 5.24426 -7.09156 0
M  V30 46445 O 2143.44 2.7935 -7.20758 0
M  V30 46446 C 2144.38 1.7299 -7.50419 0
M  V30 46447 C 2143.65 0.406376 -7.57911 0
M  V30 46448 O 2143.44 -0.0897726 -6.21935 0
M  V30 46449 C 2142.25 0.447224 -8.1878 0
M  V30 46450 O 2141.86 -0.825065 -8.71101 0
M  V30 46451 C 2141.37 0.783801 -6.99623 0
M  V30 46452 C 2142.08 0.0619192 -5.85967 0
M  V30 46453 N 2142.03 0.7859 -4.56281 0
M  V30 46454 H 2144.87 1.93423 -8.4679 0
M  V30 46455 H 2145.14 1.68181 -6.71046 0
M  V30 46456 H 2144.27 -0.289041 -8.15388 0
M  V30 46457 P 2140.31 -1.17771 -8.83182 0
M  V30 46458 O 2140.09 -2.07206 -9.98732 0
M  V30 46459 O 2139.52 0.0743816 -8.81969 0
M  V30 46460 O 2140.06 -1.97652 -7.47304 0
M  V30 46461 C 2141 -3.01055 -7.08599 0
M  V30 46462 C 2140.27 -4.12613 -6.37049 0
M  V30 46463 O 2140.06 -3.72827 -4.97879 0
M  V30 46464 C 2138.87 -4.45719 -6.88164 0
M  V30 46465 O 2138.48 -5.7877 -6.5624 0
M  V30 46466 C 2137.99 -3.47768 -6.11991 0
M  V30 46467 C 2138.7 -3.39356 -4.77615 0
M  V30 46468 N 2138.65 -2.04571 -4.15244 0
M  V30 46469 C 2138.5 -1.98587 -2.78314 0
M  V30 46470 O 2138.41 -2.98134 -2.08835 0
M  V30 46471 N 2138.46 -0.714467 -2.24925 0
M  V30 46472 C 2138.55 0.470001 -2.94169 0
M  V30 46473 C 2138.7 0.312541 -4.36783 0
M  V30 46474 C 2138.75 -0.914512 -4.92583 0
M  V30 46475 H 2141.49 -3.41169 -7.98575 0
M  V30 46476 H 2141.76 -2.58295 -6.41556 0
M  V30 46477 H 2140.89 -5.02657 -6.42673 0
M  V30 46478 H 2138.24 -4.11637 -4.08885 0
M  V30 46479 H 2137.96 -2.49626 -6.61679 0
M  V30 46480 H 2136.96 -3.86566 -6.00778 0
M  V30 46481 H 2138.8 -4.29943 -7.96918 0
M  V30 46482 H 2138.87 -1.00937 -6.00374 0
M  V30 46483 P 2136.93 -6.144 -6.45285 0
M  V30 46484 O 2136.71 -7.54673 -6.86199 0
M  V30 46485 O 2136.14 -5.12391 -7.179 0
M  V30 46486 O 2136.68 -5.99158 -4.88404 0
M  V30 46487 C 2137.62 -6.60234 -3.96415 0
M  V30 46488 C 2136.89 -7.08259 -2.72856 0
M  V30 46489 O 2136.68 -5.9427 -1.83651 0
M  V30 46490 C 2135.49 -7.64886 -2.9555 0
M  V30 46491 O 2135.1 -8.53963 -1.90717 0
M  V30 46492 C 2134.61 -6.4116 -2.90739 0
M  V30 46493 C 2135.32 -5.55375 -1.86963 0
M  V30 46494 N 2135.27 -4.09448 -2.16152 0
M  V30 46495 H 2138.11 -7.45574 -4.45629 0
M  V30 46496 H 2138.38 -5.85864 -3.679 0
M  V30 46497 H 2137.51 -7.84412 -2.24479 0
M  V30 46498 H 2134.86 -5.73457 -0.888562 0
M  V30 46499 H 2134.58 -5.90877 -3.88583 0
M  V30 46500 H 2133.58 -6.6596 -2.58858 0
M  V30 46501 H 2135.42 -8.16339 -3.92049 0
M  V30 46502 P 2133.55 -8.7635 -1.60911 0
M  V30 46503 O 2133.33 -10.1388 -1.11561 0
M  V30 46504 O 2132.76 -8.36503 -2.79617 0
M  V30 46505 O 2133.3 -7.71806 -0.42951 0
M  V30 46506 C 2134.24 -7.67148 0.673689 0
M  V30 46507 C 2133.51 -7.33374 1.95559 0
M  V30 46508 O 2133.3 -5.88721 2.00726 0
M  V30 46509 C 2132.11 -7.92526 2.10483 0
M  V30 46510 O 2131.72 -8.02971 3.47653 0
M  V30 46511 C 2131.23 -6.89602 1.41652 0
M  V30 46512 C 2131.94 -5.59201 1.75185 0
M  V30 46513 N 2131.89 -4.58235 0.662552 0
M  V30 46514 H 2134.73 -8.65116 0.777161 0
M  V30 46515 H 2135 -6.90173 0.474152 0
M  V30 46516 H 2134.13 -7.66548 2.79458 0
M  V30 46517 P 2130.17 -8.03563 3.84925 0
M  V30 46518 O 2129.95 -8.85821 5.0569 0
M  V30 46519 O 2129.38 -8.41101 2.65469 0
M  V30 46520 O 2129.92 -6.4965 4.18908 0
M  V30 46521 C 2130.86 -5.81037 5.05421 0
M  V30 46522 C 2130.13 -4.78366 5.89277 0
M  V30 46523 O 2129.92 -3.58302 5.08433 0
M  V30 46524 C 2128.73 -5.17448 6.36119 0
M  V30 46525 O 2128.34 -4.45271 7.53232 0
M  V30 46526 C 2127.85 -4.74639 5.19936 0
M  V30 46527 C 2128.56 -3.49432 4.70418 0
M  V30 46528 N 2128.51 -3.32099 3.22613 0
M  V30 46529 H 2131.35 -6.54213 5.71376 0
M  V30 46530 H 2131.62 -5.30936 4.43503 0
M  V30 46531 H 2130.75 -4.55889 6.76652 0
M  V30 46532 H 2128.1 -2.61715 5.17932 0
M  V30 46533 H 2127.82 -5.52155 4.41878 0
M  V30 46534 H 2126.82 -4.51981 5.53374 0
M  V30 46535 H 2128.66 -6.25124 6.55234 0
M  V30 46536 P 2126.79 -4.23843 7.83734 0
M  V30 46537 O 2126.57 -4.19407 9.29784 0
M  V30 46538 O 2126 -5.24426 7.09156 0
M  V30 46539 O 2126.54 -2.7935 7.20758 0
M  V30 46540 C 2127.48 -1.72945 7.50224 0
M  V30 46541 C 2126.75 -0.406376 7.57911 0
M  V30 46542 O 2126.54 0.0897726 6.21935 0
M  V30 46543 C 2125.35 -0.438983 8.18724 0
M  V30 46544 O 2124.96 0.825065 8.71101 0
M  V30 46545 C 2124.47 -0.783689 6.99524 0
M  V30 46546 C 2125.18 -0.0619086 5.85867 0
M  V30 46547 N 2125.13 -0.78573 4.56183 0
M  V30 46548 C 2124.98 -0.0292889 3.41887 0
M  V30 46549 O 2124.89 1.18445 3.4419 0
M  V30 46550 N 2124.94 -0.744061 2.23964 0
M  V30 46551 C 2125.03 -2.10932 2.10362 0
M  V30 46552 O 2124.98 -2.64117 0.98825 0
M  V30 46553 C 2125.18 -2.8202 3.34994 0
M  V30 46554 C 2125.29 -4.31095 3.25037 0
M  V30 46555 C 2125.23 -2.15547 4.52261 0
M  V30 46556 H 2127.97 -1.93379 8.46595 0
M  V30 46557 H 2128.24 -1.68132 6.70852 0
M  V30 46558 H 2127.37 0.289041 8.15388 0
M  V30 46559 H 2124.72 0.926847 5.72749 0
M  V30 46560 H 2124.44 -1.86973 6.82036 0
M  V30 46561 H 2123.44 -0.403896 7.13257 0
M  V30 46562 H 2125.28 -1.20585 8.97435 0
M  V30 46563 H 2125.35 -2.71231 5.45042 0
M  V30 46564 H 2124.32 -4.76966 3.49992 0
M  V30 46565 H 2126.06 -4.67047 3.95024 0
M  V30 46566 H 2125.57 -4.58996 2.22312 0
M  V30 46567 H 2124.83 -0.214893 1.39758 0
M  V30 46568 P 2123.41 1.17771 8.83182 0
M  V30 46569 O 2123.19 2.07206 9.98732 0
M  V30 46570 O 2122.62 -0.0743816 8.81969 0
M  V30 46571 O 2123.16 1.97652 7.47304 0
M  V30 46572 C 2124.1 3.01133 7.08783 0
M  V30 46573 C 2123.37 4.12613 6.37049 0
M  V30 46574 O 2123.16 3.72827 4.97879 0
M  V30 46575 C 2121.97 4.45085 6.88694 0
M  V30 46576 O 2121.58 5.7877 6.5624 0
M  V30 46577 C 2121.09 3.47817 6.12078 0
M  V30 46578 C 2121.8 3.39414 4.77697 0
M  V30 46579 N 2121.75 2.04615 4.15333 0
M  V30 46580 H 2124.59 3.41248 7.98759 0
M  V30 46581 H 2124.86 2.5837 6.41742 0
M  V30 46582 H 2123.99 5.02657 6.42673 0
M  V30 46583 P 2120.03 6.144 6.45285 0
M  V30 46584 O 2119.81 7.54673 6.86199 0
M  V30 46585 O 2119.24 5.12391 7.179 0
M  V30 46586 O 2119.78 5.99158 4.88404 0
M  V30 46587 C 2120.72 6.60234 3.96415 0
M  V30 46588 C 2119.99 7.08259 2.72856 0
M  V30 46589 O 2119.78 5.9427 1.83651 0
M  V30 46590 C 2118.59 7.64886 2.9555 0
M  V30 46591 O 2118.2 8.53963 1.90717 0
M  V30 46592 C 2117.71 6.4116 2.90739 0
M  V30 46593 C 2118.42 5.55375 1.86963 0
M  V30 46594 N 2118.37 4.09664 2.15742 0
M  V30 46595 C 2118.45 3.44381 3.37233 0
M  V30 46596 N 2118.37 2.14131 3.28347 0
M  V30 46597 C 2118.23 1.90247 1.91588 0
M  V30 46598 C 2118.1 0.683992 1.20892 0
M  V30 46599 N 2117.98 0.903396 -0.173998 0
M  V30 46600 C 2117.98 2.14171 -0.784879 0
M  V30 46601 N 2117.85 2.1435 -2.11317 0
M  V30 46602 N 2118.11 3.28784 -0.119316 0
M  V30 46603 C 2118.23 3.0977 1.22194 0
M  V30 46604 H 2121.21 7.45574 4.45629 0
M  V30 46605 H 2121.48 5.86232 3.67314 0
M  V30 46606 H 2120.61 7.84412 2.24479 0
M  V30 46607 P 2116.65 8.7635 1.60911 0
M  V30 46608 O 2116.43 10.1388 1.11561 0
M  V30 46609 O 2115.86 8.36503 2.79617 0
M  V30 46610 O 2116.4 7.71806 0.42951 0
M  V30 46611 C 2117.34 7.67148 -0.673689 0
M  V30 46612 C 2116.61 7.33374 -1.95559 0
M  V30 46613 O 2116.4 5.88721 -2.00726 0
M  V30 46614 C 2115.21 7.92526 -2.10483 0
M  V30 46615 O 2114.82 8.02971 -3.47653 0
M  V30 46616 C 2114.33 6.89602 -1.41652 0
M  V30 46617 C 2115.04 5.59201 -1.75185 0
M  V30 46618 N 2114.99 4.58235 -0.662552 0
M  V30 46619 H 2117.83 8.65116 -0.777161 0
M  V30 46620 H 2118.1 6.90173 -0.474152 0
M  V30 46621 H 2117.23 7.66548 -2.79458 0
M  V30 46622 P 2113.27 8.03563 -3.84925 0
M  V30 46623 O 2113.05 8.85821 -5.0569 0
M  V30 46624 O 2112.48 8.41101 -2.65469 0
M  V30 46625 O 2113.02 6.4965 -4.18908 0
M  V30 46626 C 2113.96 5.81037 -5.05421 0
M  V30 46627 C 2113.23 4.78366 -5.89277 0
M  V30 46628 O 2113.02 3.58302 -5.08433 0
M  V30 46629 C 2111.83 5.17448 -6.36119 0
M  V30 46630 O 2111.44 4.45271 -7.53232 0
M  V30 46631 C 2110.95 4.74639 -5.19936 0
M  V30 46632 C 2111.66 3.49432 -4.70418 0
M  V30 46633 N 2111.61 3.32099 -3.22613 0
M  V30 46634 H 2114.45 6.54213 -5.71376 0
M  V30 46635 H 2114.72 5.30936 -4.43503 0
M  V30 46636 H 2113.85 4.55889 -6.76652 0
M  V30 46637 H 2111.2 2.61715 -5.17932 0
M  V30 46638 H 2110.92 5.52155 -4.41878 0
M  V30 46639 H 2109.92 4.51981 -5.53374 0
M  V30 46640 H 2111.76 6.25124 -6.55234 0
M  V30 46641 P 2109.89 4.23843 -7.83734 0
M  V30 46642 O 2109.67 4.19407 -9.29784 0
M  V30 46643 O 2109.1 5.24426 -7.09156 0
M  V30 46644 O 2109.64 2.7935 -7.20758 0
M  V30 46645 C 2110.58 1.72945 -7.50224 0
M  V30 46646 C 2109.85 0.406376 -7.57911 0
M  V30 46647 O 2109.64 -0.0897726 -6.21935 0
M  V30 46648 C 2108.45 0.438983 -8.18724 0
M  V30 46649 O 2108.06 -0.825065 -8.71101 0
M  V30 46650 C 2107.57 0.783689 -6.99524 0
M  V30 46651 C 2108.28 0.0619086 -5.85867 0
M  V30 46652 N 2108.23 0.78573 -4.56183 0
M  V30 46653 C 2108.08 0.0292889 -3.41887 0
M  V30 46654 O 2107.99 -1.18445 -3.4419 0
M  V30 46655 N 2108.04 0.744061 -2.23964 0
M  V30 46656 C 2108.13 2.10932 -2.10362 0
M  V30 46657 O 2108.08 2.64117 -0.98825 0
M  V30 46658 C 2108.28 2.8202 -3.34994 0
M  V30 46659 C 2108.39 4.31095 -3.25037 0
M  V30 46660 C 2108.33 2.15547 -4.52261 0
M  V30 46661 H 2111.07 1.93379 -8.46595 0
M  V30 46662 H 2111.34 1.68132 -6.70852 0
M  V30 46663 H 2110.47 -0.289041 -8.15388 0
M  V30 46664 H 2107.82 -0.926847 -5.72749 0
M  V30 46665 H 2107.54 1.86973 -6.82036 0
M  V30 46666 H 2106.54 0.403896 -7.13257 0
M  V30 46667 H 2108.38 1.20585 -8.97435 0
M  V30 46668 H 2108.45 2.71231 -5.45042 0
M  V30 46669 H 2107.42 4.76966 -3.49992 0
M  V30 46670 H 2109.16 4.67047 -3.95024 0
M  V30 46671 H 2108.67 4.58996 -2.22312 0
M  V30 46672 H 2107.93 0.214893 -1.39758 0
M  V30 46673 P 2106.51 -1.17771 -8.83182 0
M  V30 46674 O 2106.29 -2.07206 -9.98732 0
M  V30 46675 O 2105.72 0.0743816 -8.81969 0
M  V30 46676 O 2106.26 -1.97652 -7.47304 0
M  V30 46677 C 2107.2 -3.01133 -7.08783 0
M  V30 46678 C 2106.47 -4.12613 -6.37049 0
M  V30 46679 O 2106.26 -3.72827 -4.97879 0
M  V30 46680 C 2105.07 -4.45085 -6.88694 0
M  V30 46681 O 2104.68 -5.7877 -6.5624 0
M  V30 46682 C 2104.19 -3.47817 -6.12078 0
M  V30 46683 C 2104.9 -3.39414 -4.77697 0
M  V30 46684 N 2104.85 -2.04615 -4.15333 0
M  V30 46685 H 2107.69 -3.41248 -7.98759 0
M  V30 46686 H 2107.96 -2.5837 -6.41742 0
M  V30 46687 H 2107.09 -5.02657 -6.42673 0
M  V30 46688 P 2103.13 -6.144 -6.45285 0
M  V30 46689 O 2102.91 -7.54673 -6.86199 0
M  V30 46690 O 2102.34 -5.12391 -7.179 0
M  V30 46691 O 2102.88 -5.99158 -4.88404 0
M  V30 46692 C 2103.82 -6.60234 -3.96415 0
M  V30 46693 C 2103.09 -7.08259 -2.72856 0
M  V30 46694 O 2102.88 -5.9427 -1.83651 0
M  V30 46695 C 2101.69 -7.64886 -2.9555 0
M  V30 46696 O 2101.3 -8.53963 -1.90717 0
M  V30 46697 C 2100.81 -6.4116 -2.90739 0
M  V30 46698 C 2101.52 -5.55375 -1.86963 0
M  V30 46699 N 2101.47 -4.09448 -2.16152 0
M  V30 46700 H 2104.31 -7.45574 -4.45629 0
M  V30 46701 H 2104.58 -5.85864 -3.679 0
M  V30 46702 H 2103.71 -7.84412 -2.24479 0
M  V30 46703 H 2101.06 -5.73457 -0.888562 0
M  V30 46704 H 2100.78 -5.90877 -3.88583 0
M  V30 46705 H 2099.78 -6.6596 -2.58858 0
M  V30 46706 H 2101.62 -8.16339 -3.92049 0
M  V30 46707 P 2099.75 -8.7635 -1.60911 0
M  V30 46708 O 2099.53 -10.1388 -1.11561 0
M  V30 46709 O 2098.96 -8.36503 -2.79617 0
M  V30 46710 O 2099.5 -7.71806 -0.42951 0
M  V30 46711 C 2100.44 -7.67148 0.673689 0
M  V30 46712 C 2099.71 -7.33374 1.95559 0
M  V30 46713 O 2099.5 -5.88721 2.00726 0
M  V30 46714 C 2098.31 -7.92526 2.10483 0
M  V30 46715 O 2097.92 -8.02971 3.47653 0
M  V30 46716 C 2097.43 -6.89602 1.41652 0
M  V30 46717 C 2098.14 -5.59201 1.75185 0
M  V30 46718 N 2098.09 -4.58301 0.657969 0
M  V30 46719 H 2100.93 -8.65116 0.777161 0
M  V30 46720 H 2101.2 -6.9022 0.46725 0
M  V30 46721 H 2100.33 -7.66548 2.79458 0
M  V30 46722 H 2097.68 -5.16165 2.65183 0
M  V30 46723 H 2097.4 -7.06433 0.329384 0
M  V30 46724 H 2096.4 -6.90926 1.82021 0
M  V30 46725 H 2098.24 -8.90873 1.62657 0
M  V30 46726 P 2096.37 -8.03563 3.84925 0
M  V30 46727 O 2096.15 -8.85821 5.0569 0
M  V30 46728 O 2095.58 -8.41101 2.65469 0
M  V30 46729 O 2096.12 -6.4965 4.18908 0
M  V30 46730 C 2097.06 -5.81037 5.05421 0
M  V30 46731 C 2096.33 -4.78366 5.89277 0
M  V30 46732 O 2096.12 -3.58302 5.08433 0
M  V30 46733 C 2094.93 -5.17448 6.36119 0
M  V30 46734 O 2094.54 -4.45271 7.53232 0
M  V30 46735 C 2094.05 -4.74639 5.19936 0
M  V30 46736 C 2094.76 -3.49432 4.70418 0
M  V30 46737 N 2094.71 -3.32099 3.22613 0
M  V30 46738 C 2094.79 -4.28245 2.25527 0
M  V30 46739 N 2094.72 -3.80823 1.04874 0
M  V30 46740 C 2094.57 -2.44571 1.23535 0
M  V30 46741 C 2094.44 -1.37068 0.330675 0
M  V30 46742 N 2094.43 -1.51472 -0.990824 0
M  V30 46743 N 2094.32 -0.138614 0.848756 0
M  V30 46744 C 2094.33 0.00675923 2.16999 0
M  V30 46745 N 2094.45 -0.904372 3.11122 0
M  V30 46746 C 2094.57 -2.12707 2.56212 0
M  V30 46747 H 2097.55 -6.54213 5.71376 0
M  V30 46748 H 2097.82 -5.30936 4.43503 0
M  V30 46749 H 2096.95 -4.55889 6.76652 0
M  V30 46750 H 2094.3 -2.61715 5.17932 0
M  V30 46751 H 2094.02 -5.52155 4.41878 0
M  V30 46752 H 2093.02 -4.51981 5.53374 0
M  V30 46753 H 2094.86 -6.25124 6.55234 0
M  V30 46754 H 2094.9 -5.34372 2.47488 0
M  V30 46755 H 2094.52 -2.45153 -1.4078 0
M  V30 46756 H 2094.33 -0.688422 -1.59911 0
M  V30 46757 H 2094.22 1.02584 2.52346 0
M  V30 46758 P 2092.99 -4.23843 7.83734 0
M  V30 46759 O 2092.77 -4.19407 9.29784 0
M  V30 46760 O 2092.2 -5.24426 7.09156 0
M  V30 46761 O 2092.74 -2.7935 7.20758 0
M  V30 46762 C 2093.68 -1.7299 7.50419 0
M  V30 46763 C 2092.95 -0.406376 7.57911 0
M  V30 46764 O 2092.74 0.0897726 6.21935 0
M  V30 46765 C 2091.55 -0.447224 8.1878 0
M  V30 46766 O 2091.16 0.825065 8.71101 0
M  V30 46767 C 2090.67 -0.783801 6.99623 0
M  V30 46768 C 2091.38 -0.0619192 5.85967 0
M  V30 46769 N 2091.33 -0.790462 4.56202 0
M  V30 46770 H 2094.17 -1.93423 8.4679 0
M  V30 46771 H 2094.44 -1.68852 6.70877 0
M  V30 46772 H 2093.57 0.289041 8.15388 0
M  V30 46773 H 2090.92 0.927006 5.72848 0
M  V30 46774 H 2090.64 -1.86973 6.82036 0
M  V30 46775 H 2089.64 -0.403953 7.13357 0
M  V30 46776 H 2091.48 -1.20599 8.97534 0
M  V30 46777 P 2089.61 1.17771 8.83182 0
M  V30 46778 O 2089.39 2.07206 9.98732 0
M  V30 46779 O 2088.82 -0.0743816 8.81969 0
M  V30 46780 O 2089.36 1.97652 7.47304 0
M  V30 46781 C 2090.3 3.01133 7.08783 0
M  V30 46782 C 2089.57 4.12613 6.37049 0
M  V30 46783 O 2089.36 3.72827 4.97879 0
M  V30 46784 C 2088.17 4.45085 6.88694 0
M  V30 46785 O 2087.78 5.7877 6.5624 0
M  V30 46786 C 2087.29 3.47817 6.12078 0
M  V30 46787 C 2088 3.39414 4.77697 0
M  V30 46788 N 2087.95 2.04199 4.15538 0
M  V30 46789 C 2088.03 0.821545 4.76977 0
M  V30 46790 N 2087.96 -0.1794 3.94592 0
M  V30 46791 C 2087.81 0.419121 2.70776 0
M  V30 46792 C 2087.68 -0.109072 1.40577 0
M  V30 46793 N 2087.67 -1.4104 1.1344 0
M  V30 46794 N 2087.56 0.764381 0.39411 0
M  V30 46795 C 2087.57 2.06587 0.664135 0
M  V30 46796 N 2087.69 2.67948 1.82153 0
M  V30 46797 C 2087.81 1.77942 2.8147 0
M  V30 46798 H 2090.79 3.41248 7.98759 0
M  V30 46799 H 2091.06 2.57728 6.42 0
M  V30 46800 H 2090.19 5.02657 6.42673 0
M  V30 46801 H 2087.54 4.11708 4.08956 0
M  V30 46802 H 2087.26 2.49626 6.61679 0
M  V30 46803 H 2086.26 3.8662 6.00862 0
M  V30 46804 H 2088.1 4.29991 7.97006 0
M  V30 46805 H 2088.14 0.702451 5.84696 0
M  V30 46806 H 2087.76 -2.09647 1.89651 0
M  V30 46807 H 2087.57 -1.73358 0.160575 0
M  V30 46808 H 2087.46 2.71695 -0.195838 0
M  V30 46809 P 2086.23 6.144 6.45285 0
M  V30 46810 O 2086.01 7.54673 6.86199 0
M  V30 46811 O 2085.44 5.12391 7.179 0
M  V30 46812 O 2085.98 5.99236 4.88467 0
M  V30 46813 C 2086.92 6.60234 3.96415 0
M  V30 46814 C 2086.19 7.08079 2.736 0
M  V30 46815 O 2085.98 5.94365 1.8368 0
M  V30 46816 C 2084.79 7.64886 2.9555 0
M  V30 46817 O 2084.4 8.5406 1.90739 0
M  V30 46818 C 2083.91 6.4116 2.90739 0
M  V30 46819 C 2084.62 5.55375 1.86963 0
M  V30 46820 N 2084.57 4.09664 2.15742 0
M  V30 46821 C 2084.42 3.22231 1.08477 0
M  V30 46822 O 2084.33 3.68951 -0.0600489 0
M  V30 46823 N 2084.37 1.76692 1.48799 0
M  V30 46824 C 2084.47 1.41695 2.57602 0
M  V30 46825 N 2084.42 0.107296 2.75791 0
M  V30 46826 C 2084.62 2.29178 3.69733 0
M  V30 46827 C 2084.67 3.62753 3.42653 0
M  V30 46828 H 2087.41 7.45488 4.45578 0
M  V30 46829 H 2087.68 5.86232 3.67314 0
M  V30 46830 H 2086.81 7.84508 2.24507 0
M  V30 46831 H 2084.16 5.73556 0.888715 0
M  V30 46832 H 2083.88 5.9096 3.88638 0
M  V30 46833 H 2082.88 6.66053 2.58894 0
M  V30 46834 H 2084.72 8.16339 3.92049 0
M  V30 46835 H 2084.79 4.33052 4.24913 0
M  V30 46836 H 2084.69 1.9103 4.71577 0
M  V30 46837 H 2084.3 -0.521221 1.95056 0
M  V30 46838 H 2084.5 -0.286429 3.70695 0
M  V30 46839 P 2082.85 8.7635 1.60911 0
M  V30 46840 O 2082.63 10.1388 1.11561 0
M  V30 46841 O 2082.06 8.36503 2.79617 0
M  V30 46842 O 2082.6 7.71806 0.42951 0
M  V30 46843 C 2083.54 7.67148 -0.673689 0
M  V30 46844 C 2082.81 7.33374 -1.95559 0
M  V30 46845 O 2082.6 5.88721 -2.00726 0
M  V30 46846 C 2081.41 7.92526 -2.10483 0
M  V30 46847 O 2081.02 8.02971 -3.47653 0
M  V30 46848 C 2080.53 6.89602 -1.41652 0
M  V30 46849 C 2081.24 5.59201 -1.75185 0
M  V30 46850 N 2081.19 4.58235 -0.662552 0
M  V30 46851 H 2084.03 8.65116 -0.777161 0
M  V30 46852 H 2084.3 6.90173 -0.474152 0
M  V30 46853 H 2083.43 7.66548 -2.79458 0
M  V30 46854 P 2079.47 8.03563 -3.84925 0
M  V30 46855 O 2079.25 8.85821 -5.0569 0
M  V30 46856 O 2078.68 8.41101 -2.65469 0
M  V30 46857 O 2079.22 6.49734 -4.18962 0
M  V30 46858 C 2080.16 5.81037 -5.05421 0
M  V30 46859 C 2079.43 4.79018 -5.88876 0
M  V30 46860 O 2079.22 3.58359 -5.08515 0
M  V30 46861 C 2078.03 5.17448 -6.36119 0
M  V30 46862 O 2077.64 4.45322 -7.53318 0
M  V30 46863 C 2077.15 4.74639 -5.19936 0
M  V30 46864 C 2077.86 3.49432 -4.70418 0
M  V30 46865 N 2077.81 3.31776 -3.22945 0
M  V30 46866 C 2077.66 2.02742 -2.72939 0
M  V30 46867 O 2077.57 1.08301 -3.52749 0
M  V30 46868 N 2077.61 1.96117 -1.22063 0
M  V30 46869 C 2077.71 2.8878 -0.551566 0
M  V30 46870 N 2077.66 2.65609 0.750198 0
M  V30 46871 C 2077.86 4.22457 -1.03707 0
M  V30 46872 C 2077.91 4.37979 -2.39113 0
M  V30 46873 H 2080.65 6.54138 -5.7131 0
M  V30 46874 H 2080.92 5.30492 -4.44033 0
M  V30 46875 H 2080.05 4.55945 -6.76735 0
M  V30 46876 H 2077.4 2.6176 -5.18021 0
M  V30 46877 H 2077.12 5.52233 -4.41941 0
M  V30 46878 H 2076.12 4.52045 -5.53452 0
M  V30 46879 H 2077.96 6.25124 -6.55234 0
M  V30 46880 H 2078.03 5.37936 -2.80552 0
M  V30 46881 H 2077.93 5.07528 -0.359553 0
M  V30 46882 H 2077.54 1.69403 1.09847 0
M  V30 46883 H 2077.74 3.43701 1.41792 0
M  V30 46884 P 2076.09 4.23843 -7.83734 0
M  V30 46885 O 2075.87 4.19407 -9.29784 0
M  V30 46886 O 2075.3 5.24426 -7.09156 0
M  V30 46887 O 2075.84 2.7935 -7.20758 0
M  V30 46888 C 2076.78 1.7299 -7.50419 0
M  V30 46889 C 2076.05 0.406376 -7.57911 0
M  V30 46890 O 2075.84 -0.0897726 -6.21935 0
M  V30 46891 C 2074.65 0.447224 -8.1878 0
M  V30 46892 O 2074.26 -0.825065 -8.71101 0
M  V30 46893 C 2073.77 0.783801 -6.99623 0
M  V30 46894 C 2074.48 0.0619192 -5.85967 0
M  V30 46895 N 2074.43 0.790462 -4.56202 0
M  V30 46896 H 2077.27 1.93423 -8.4679 0
M  V30 46897 H 2077.54 1.68852 -6.70877 0
M  V30 46898 H 2076.67 -0.289041 -8.15388 0
M  V30 46899 H 2074.02 -0.927006 -5.72848 0
M  V30 46900 H 2073.74 1.86973 -6.82036 0
M  V30 46901 H 2072.74 0.403953 -7.13357 0
M  V30 46902 H 2074.58 1.20599 -8.97534 0
M  V30 46903 P 2072.71 -1.17771 -8.83182 0
M  V30 46904 O 2072.49 -2.07206 -9.98732 0
M  V30 46905 O 2071.92 0.0743816 -8.81969 0
M  V30 46906 O 2072.46 -1.97652 -7.47304 0
M  V30 46907 C 2073.4 -3.01133 -7.08783 0
M  V30 46908 C 2072.67 -4.12613 -6.37049 0
M  V30 46909 O 2072.46 -3.72827 -4.97879 0
M  V30 46910 C 2071.27 -4.45085 -6.88694 0
M  V30 46911 O 2070.88 -5.7877 -6.5624 0
M  V30 46912 C 2070.39 -3.47817 -6.12078 0
M  V30 46913 C 2071.1 -3.39414 -4.77697 0
M  V30 46914 N 2071.05 -2.04615 -4.15333 0
M  V30 46915 C 2071.13 -0.803897 -4.75249 0
M  V30 46916 N 2071.05 0.197615 -3.91502 0
M  V30 46917 C 2070.91 -0.413002 -2.66823 0
M  V30 46918 C 2070.78 0.157221 -1.38007 0
M  V30 46919 N 2070.66 -0.833136 -0.390236 0
M  V30 46920 C 2070.66 -2.19402 -0.623885 0
M  V30 46921 N 2070.53 -2.97622 0.449677 0
M  V30 46922 N 2070.79 -2.73005 -1.83601 0
M  V30 46923 C 2070.91 -1.78786 -2.80935 0
M  V30 46924 H 2073.89 -3.41248 -7.98759 0
M  V30 46925 H 2074.16 -2.5837 -6.41742 0
M  V30 46926 H 2073.29 -5.02657 -6.42673 0
M  V30 46927 P 2069.33 -6.144 -6.45285 0
M  V30 46928 O 2069.11 -7.54673 -6.86199 0
M  V30 46929 O 2068.54 -5.12391 -7.179 0
M  V30 46930 O 2069.08 -5.99158 -4.88404 0
M  V30 46931 C 2070.02 -6.60234 -3.96415 0
M  V30 46932 C 2069.29 -7.08259 -2.72856 0
M  V30 46933 O 2069.08 -5.9427 -1.83651 0
M  V30 46934 C 2067.89 -7.64886 -2.9555 0
M  V30 46935 O 2067.5 -8.53963 -1.90717 0
M  V30 46936 C 2067.01 -6.4116 -2.90739 0
M  V30 46937 C 2067.72 -5.55375 -1.86963 0
M  V30 46938 N 2067.67 -4.09664 -2.15742 0
M  V30 46939 C 2067.75 -3.44381 -3.37233 0
M  V30 46940 N 2067.67 -2.14131 -3.28347 0
M  V30 46941 C 2067.53 -1.90247 -1.91588 0
M  V30 46942 C 2067.4 -0.683992 -1.20892 0
M  V30 46943 N 2067.28 -0.903396 0.173998 0
M  V30 46944 C 2067.28 -2.14171 0.784879 0
M  V30 46945 N 2067.15 -2.1435 2.11317 0
M  V30 46946 N 2067.41 -3.28784 0.119316 0
M  V30 46947 C 2067.53 -3.0977 -1.22194 0
M  V30 46948 H 2070.51 -7.45574 -4.45629 0
M  V30 46949 H 2070.78 -5.86232 -3.67314 0
M  V30 46950 H 2069.91 -7.84412 -2.24479 0
M  V30 46951 P 2065.95 -8.7635 -1.60911 0
M  V30 46952 O 2065.73 -10.1388 -1.11561 0
M  V30 46953 O 2065.16 -8.36503 -2.79617 0
M  V30 46954 O 2065.7 -7.71806 -0.42951 0
M  V30 46955 C 2066.64 -7.67148 0.673689 0
M  V30 46956 C 2065.91 -7.33374 1.95559 0
M  V30 46957 O 2065.7 -5.88721 2.00726 0
M  V30 46958 C 2064.51 -7.92526 2.10483 0
M  V30 46959 O 2064.12 -8.02971 3.47653 0
M  V30 46960 C 2063.63 -6.89602 1.41652 0
M  V30 46961 C 2064.34 -5.59201 1.75185 0
M  V30 46962 N 2064.29 -4.58301 0.657969 0
M  V30 46963 H 2067.13 -8.65116 0.777161 0
M  V30 46964 H 2067.4 -6.9022 0.46725 0
M  V30 46965 H 2066.53 -7.66548 2.79458 0
M  V30 46966 H 2063.88 -5.16165 2.65183 0
M  V30 46967 H 2063.6 -7.06433 0.329384 0
M  V30 46968 H 2062.6 -6.90926 1.82021 0
M  V30 46969 H 2064.44 -8.90873 1.62657 0
M  V30 46970 P 2062.57 -8.03563 3.84925 0
M  V30 46971 O 2062.35 -8.85821 5.0569 0
M  V30 46972 O 2061.78 -8.41101 2.65469 0
M  V30 46973 O 2062.32 -6.4965 4.18908 0
M  V30 46974 C 2063.26 -5.81037 5.05421 0
M  V30 46975 C 2062.53 -4.78366 5.89277 0
M  V30 46976 O 2062.32 -3.58302 5.08433 0
M  V30 46977 C 2061.13 -5.17448 6.36119 0
M  V30 46978 O 2060.74 -4.45271 7.53232 0
M  V30 46979 C 2060.25 -4.74639 5.19936 0
M  V30 46980 C 2060.96 -3.49432 4.70418 0
M  V30 46981 N 2060.91 -3.31776 3.22945 0
M  V30 46982 H 2063.75 -6.54213 5.71376 0
M  V30 46983 H 2064.02 -5.30492 4.44033 0
M  V30 46984 H 2063.15 -4.55889 6.76652 0
M  V30 46985 P 2059.19 -4.23843 7.83734 0
M  V30 46986 O 2058.97 -4.19407 9.29784 0
M  V30 46987 O 2058.4 -5.24426 7.09156 0
M  V30 46988 O 2058.94 -2.7935 7.20758 0
M  V30 46989 C 2059.88 -1.7299 7.50419 0
M  V30 46990 C 2059.15 -0.406376 7.57911 0
M  V30 46991 O 2058.94 0.0897726 6.21935 0
M  V30 46992 C 2057.75 -0.447224 8.1878 0
M  V30 46993 O 2057.36 0.825065 8.71101 0
M  V30 46994 C 2056.87 -0.783801 6.99623 0
M  V30 46995 C 2057.58 -0.0619192 5.85967 0
M  V30 46996 N 2057.53 -0.790462 4.56202 0
M  V30 46997 H 2060.37 -1.93423 8.4679 0
M  V30 46998 H 2060.64 -1.68852 6.70877 0
M  V30 46999 H 2059.77 0.289041 8.15388 0
M  V30 47000 H 2057.12 0.927006 5.72848 0
M  V30 47001 H 2056.84 -1.86973 6.82036 0
M  V30 47002 H 2055.84 -0.403953 7.13357 0
M  V30 47003 H 2057.68 -1.20599 8.97534 0
M  V30 47004 P 2055.81 1.17771 8.83182 0
M  V30 47005 O 2055.59 2.07206 9.98732 0
M  V30 47006 O 2055.02 -0.0743816 8.81969 0
M  V30 47007 O 2055.56 1.97652 7.47304 0
M  V30 47008 C 2056.5 3.01133 7.08783 0
M  V30 47009 C 2055.77 4.12613 6.37049 0
M  V30 47010 O 2055.56 3.72827 4.97879 0
M  V30 47011 C 2054.37 4.45085 6.88694 0
M  V30 47012 O 2053.98 5.7877 6.5624 0
M  V30 47013 C 2053.49 3.47817 6.12078 0
M  V30 47014 C 2054.2 3.39414 4.77697 0
M  V30 47015 N 2054.15 2.04615 4.15333 0
M  V30 47016 H 2056.99 3.41248 7.98759 0
M  V30 47017 H 2057.26 2.5837 6.41742 0
M  V30 47018 H 2056.39 5.02657 6.42673 0
M  V30 47019 P 2052.43 6.144 6.45285 0
M  V30 47020 O 2052.21 7.54673 6.86199 0
M  V30 47021 O 2051.64 5.12391 7.179 0
M  V30 47022 O 2052.18 5.99158 4.88404 0
M  V30 47023 C 2053.12 6.60234 3.96415 0
M  V30 47024 C 2052.39 7.08259 2.72856 0
M  V30 47025 O 2052.18 5.9427 1.83651 0
M  V30 47026 C 2050.99 7.64886 2.9555 0
M  V30 47027 O 2050.6 8.53963 1.90717 0
M  V30 47028 C 2050.11 6.4116 2.90739 0
M  V30 47029 C 2050.82 5.55375 1.86963 0
M  V30 47030 N 2050.77 4.09448 2.16152 0
M  V30 47031 H 2053.61 7.45574 4.45629 0
M  V30 47032 H 2053.88 5.85864 3.679 0
M  V30 47033 H 2053.01 7.84412 2.24479 0
M  V30 47034 H 2050.36 5.73457 0.888562 0
M  V30 47035 H 2050.08 5.90877 3.88583 0
M  V30 47036 H 2049.08 6.6596 2.58858 0
M  V30 47037 H 2050.92 8.16339 3.92049 0
M  V30 47038 P 2049.05 8.7635 1.60911 0
M  V30 47039 O 2048.83 10.1388 1.11561 0
M  V30 47040 O 2048.26 8.36503 2.79617 0
M  V30 47041 O 2048.8 7.71806 0.42951 0
M  V30 47042 C 2049.74 7.67148 -0.673689 0
M  V30 47043 C 2049.01 7.33374 -1.95559 0
M  V30 47044 O 2048.8 5.88721 -2.00726 0
M  V30 47045 C 2047.61 7.92526 -2.10483 0
M  V30 47046 O 2047.22 8.02971 -3.47653 0
M  V30 47047 C 2046.73 6.89602 -1.41652 0
M  V30 47048 C 2047.44 5.59201 -1.75185 0
M  V30 47049 N 2047.39 4.58301 -0.657969 0
M  V30 47050 H 2050.23 8.65116 -0.777161 0
M  V30 47051 H 2050.5 6.9022 -0.46725 0
M  V30 47052 H 2049.63 7.66548 -2.79458 0
M  V30 47053 H 2046.98 5.16165 -2.65183 0
M  V30 47054 H 2046.7 7.06433 -0.329384 0
M  V30 47055 H 2045.7 6.90926 -1.82021 0
M  V30 47056 H 2047.54 8.90873 -1.62657 0
M  V30 47057 P 2045.67 8.03563 -3.84925 0
M  V30 47058 O 2045.45 8.85821 -5.0569 0
M  V30 47059 O 2044.88 8.41101 -2.65469 0
M  V30 47060 O 2045.42 6.4965 -4.18908 0
M  V30 47061 C 2046.36 5.81037 -5.05421 0
M  V30 47062 C 2045.63 4.78366 -5.89277 0
M  V30 47063 O 2045.42 3.58302 -5.08433 0
M  V30 47064 C 2044.23 5.17448 -6.36119 0
M  V30 47065 O 2043.84 4.45271 -7.53232 0
M  V30 47066 C 2043.35 4.74639 -5.19936 0
M  V30 47067 C 2044.06 3.49432 -4.70418 0
M  V30 47068 N 2044.01 3.31776 -3.22945 0
M  V30 47069 H 2046.85 6.54213 -5.71376 0
M  V30 47070 H 2047.12 5.30492 -4.44033 0
M  V30 47071 H 2046.25 4.55889 -6.76652 0
M  V30 47072 P 2042.29 4.23843 -7.83734 0
M  V30 47073 O 2042.07 4.19407 -9.29784 0
M  V30 47074 O 2041.5 5.24426 -7.09156 0
M  V30 47075 O 2042.04 2.7935 -7.20758 0
M  V30 47076 C 2042.98 1.7299 -7.50419 0
M  V30 47077 C 2042.25 0.406376 -7.57911 0
M  V30 47078 O 2042.04 -0.0897726 -6.21935 0
M  V30 47079 C 2040.85 0.447224 -8.1878 0
M  V30 47080 O 2040.46 -0.825065 -8.71101 0
M  V30 47081 C 2039.97 0.783801 -6.99623 0
M  V30 47082 C 2040.68 0.0619192 -5.85967 0
M  V30 47083 N 2040.63 0.7859 -4.56281 0
M  V30 47084 H 2043.47 1.93423 -8.4679 0
M  V30 47085 H 2043.74 1.68181 -6.71046 0
M  V30 47086 H 2042.87 -0.289041 -8.15388 0
M  V30 47087 P 2038.91 -1.17771 -8.83182 0
M  V30 47088 O 2038.69 -2.07206 -9.98732 0
M  V30 47089 O 2038.12 0.0743816 -8.81969 0
M  V30 47090 O 2038.66 -1.97652 -7.47304 0
M  V30 47091 C 2039.6 -3.01133 -7.08783 0
M  V30 47092 C 2038.87 -4.12613 -6.37049 0
M  V30 47093 O 2038.66 -3.72827 -4.97879 0
M  V30 47094 C 2037.47 -4.45085 -6.88694 0
M  V30 47095 O 2037.08 -5.7877 -6.5624 0
M  V30 47096 C 2036.59 -3.47817 -6.12078 0
M  V30 47097 C 2037.3 -3.39414 -4.77697 0
M  V30 47098 N 2037.25 -2.04615 -4.15333 0
M  V30 47099 H 2040.09 -3.41248 -7.98759 0
M  V30 47100 H 2040.36 -2.5837 -6.41742 0
M  V30 47101 H 2039.49 -5.02657 -6.42673 0
M  V30 47102 P 2035.53 -6.144 -6.45285 0
M  V30 47103 O 2035.31 -7.54673 -6.86199 0
M  V30 47104 O 2034.74 -5.12391 -7.179 0
M  V30 47105 O 2035.28 -5.99158 -4.88404 0
M  V30 47106 C 2036.22 -6.60234 -3.96415 0
M  V30 47107 C 2035.49 -7.08259 -2.72856 0
M  V30 47108 O 2035.28 -5.9427 -1.83651 0
M  V30 47109 C 2034.09 -7.64886 -2.9555 0
M  V30 47110 O 2033.7 -8.53963 -1.90717 0
M  V30 47111 C 2033.21 -6.4116 -2.90739 0
M  V30 47112 C 2033.92 -5.55375 -1.86963 0
M  V30 47113 N 2033.87 -4.09448 -2.16152 0
M  V30 47114 C 2033.95 -3.46824 -3.37593 0
M  V30 47115 N 2033.88 -2.17422 -3.29777 0
M  V30 47116 C 2033.73 -1.93065 -1.94427 0
M  V30 47117 C 2033.6 -0.738053 -1.20141 0
M  V30 47118 N 2033.59 0.474256 -1.74676 0
M  V30 47119 N 2033.48 -0.850049 0.13045 0
M  V30 47120 C 2033.49 -2.06169 0.676992 0
M  V30 47121 N 2033.61 -3.23842 0.101312 0
M  V30 47122 C 2033.73 -3.09402 -1.23122 0
M  V30 47123 H 2036.71 -7.45574 -4.45629 0
M  V30 47124 H 2036.98 -5.85864 -3.679 0
M  V30 47125 H 2036.11 -7.84412 -2.24479 0
M  V30 47126 H 2033.46 -5.73457 -0.888562 0
M  V30 47127 H 2033.18 -5.90877 -3.88583 0
M  V30 47128 H 2032.18 -6.6596 -2.58858 0
M  V30 47129 H 2034.02 -8.16339 -3.92049 0
M  V30 47130 H 2034.06 -4.00505 -4.3174 0
M  V30 47131 H 2033.68 0.581337 -2.76658 0
M  V30 47132 H 2033.49 1.30811 -1.14888 0
M  V30 47133 H 2033.38 -2.08295 1.75542 0
M  V30 47134 P 2032.15 -8.7635 -1.60911 0
M  V30 47135 O 2031.93 -10.1388 -1.11561 0
M  V30 47136 O 2031.36 -8.36503 -2.79617 0
M  V30 47137 O 2031.9 -7.71806 -0.42951 0
M  V30 47138 C 2032.84 -7.67148 0.673689 0
M  V30 47139 C 2032.11 -7.33374 1.95559 0
M  V30 47140 O 2031.9 -5.88721 2.00726 0
M  V30 47141 C 2030.71 -7.92526 2.10483 0
M  V30 47142 O 2030.32 -8.02971 3.47653 0
M  V30 47143 C 2029.83 -6.89602 1.41652 0
M  V30 47144 C 2030.54 -5.59201 1.75185 0
M  V30 47145 N 2030.49 -4.58301 0.657969 0
M  V30 47146 H 2033.33 -8.65116 0.777161 0
M  V30 47147 H 2033.6 -6.9022 0.46725 0
M  V30 47148 H 2032.73 -7.66548 2.79458 0
M  V30 47149 H 2030.08 -5.16165 2.65183 0
M  V30 47150 H 2029.8 -7.06433 0.329384 0
M  V30 47151 H 2028.8 -6.90926 1.82021 0
M  V30 47152 H 2030.64 -8.90873 1.62657 0
M  V30 47153 P 2028.77 -8.03563 3.84925 0
M  V30 47154 O 2028.55 -8.85821 5.0569 0
M  V30 47155 O 2027.98 -8.41101 2.65469 0
M  V30 47156 O 2028.52 -6.4965 4.18908 0
M  V30 47157 C 2029.46 -5.81037 5.05421 0
M  V30 47158 C 2028.73 -4.78366 5.89277 0
M  V30 47159 O 2028.52 -3.58302 5.08433 0
M  V30 47160 C 2027.33 -5.17448 6.36119 0
M  V30 47161 O 2026.94 -4.45271 7.53232 0
M  V30 47162 C 2026.45 -4.74639 5.19936 0
M  V30 47163 C 2027.16 -3.49432 4.70418 0
M  V30 47164 N 2027.11 -3.32099 3.22613 0
M  V30 47165 H 2029.95 -6.54213 5.71376 0
M  V30 47166 H 2030.22 -5.30936 4.43503 0
M  V30 47167 H 2029.35 -4.55889 6.76652 0
M  V30 47168 H 2026.7 -2.61715 5.17932 0
M  V30 47169 H 2026.42 -5.52155 4.41878 0
M  V30 47170 H 2025.43 -4.51981 5.53374 0
M  V30 47171 H 2027.26 -6.25124 6.55234 0
M  V30 47172 P 2025.39 -4.23843 7.83734 0
M  V30 47173 O 2025.17 -4.19407 9.29784 0
M  V30 47174 O 2024.6 -5.24426 7.09156 0
M  V30 47175 O 2025.14 -2.7935 7.20758 0
M  V30 47176 C 2026.08 -1.7299 7.50419 0
M  V30 47177 C 2025.35 -0.406376 7.57911 0
M  V30 47178 O 2025.14 0.0897726 6.21935 0
M  V30 47179 C 2023.95 -0.447224 8.1878 0
M  V30 47180 O 2023.56 0.825065 8.71101 0
M  V30 47181 C 2023.07 -0.783801 6.99623 0
M  V30 47182 C 2023.78 -0.0619192 5.85967 0
M  V30 47183 N 2023.73 -0.790462 4.56202 0
M  V30 47184 H 2026.57 -1.93423 8.4679 0
M  V30 47185 H 2026.84 -1.68852 6.70877 0
M  V30 47186 H 2025.97 0.289041 8.15388 0
M  V30 47187 H 2023.32 0.927006 5.72848 0
M  V30 47188 H 2023.04 -1.86973 6.82036 0
M  V30 47189 H 2022.05 -0.403953 7.13357 0
M  V30 47190 H 2023.88 -1.20599 8.97534 0
M  V30 47191 P 2022.01 1.17771 8.83182 0
M  V30 47192 O 2021.79 2.07206 9.98732 0
M  V30 47193 O 2021.22 -0.0743816 8.81969 0
M  V30 47194 O 2021.76 1.97652 7.47304 0
M  V30 47195 C 2022.7 3.01133 7.08783 0
M  V30 47196 C 2021.97 4.12613 6.37049 0
M  V30 47197 O 2021.76 3.72827 4.97879 0
M  V30 47198 C 2020.57 4.45085 6.88694 0
M  V30 47199 O 2020.18 5.7877 6.5624 0
M  V30 47200 C 2019.69 3.47817 6.12078 0
M  V30 47201 C 2020.4 3.39414 4.77697 0
M  V30 47202 N 2020.35 2.04615 4.15333 0
M  V30 47203 H 2023.19 3.41248 7.98759 0
M  V30 47204 H 2023.46 2.5837 6.41742 0
M  V30 47205 H 2022.59 5.02657 6.42673 0
M  V30 47206 P 2018.63 6.144 6.45285 0
M  V30 47207 O 2018.41 7.54673 6.86199 0
M  V30 47208 O 2017.84 5.12391 7.179 0
M  V30 47209 O 2018.38 5.99158 4.88404 0
M  V30 47210 C 2019.32 6.60234 3.96415 0
M  V30 47211 C 2018.59 7.08259 2.72856 0
M  V30 47212 O 2018.38 5.9427 1.83651 0
M  V30 47213 C 2017.19 7.64886 2.9555 0
M  V30 47214 O 2016.8 8.53963 1.90717 0
M  V30 47215 C 2016.31 6.4116 2.90739 0
M  V30 47216 C 2017.02 5.55375 1.86963 0
M  V30 47217 N 2016.97 4.09664 2.15742 0
M  V30 47218 H 2019.81 7.45574 4.45629 0
M  V30 47219 H 2020.08 5.86232 3.67314 0
M  V30 47220 H 2019.21 7.84412 2.24479 0
M  V30 47221 P 2015.25 8.7635 1.60911 0
M  V30 47222 O 2015.03 10.1388 1.11561 0
M  V30 47223 O 2014.46 8.36503 2.79617 0
M  V30 47224 O 2015 7.71806 0.42951 0
M  V30 47225 C 2015.94 7.67148 -0.673689 0
M  V30 47226 C 2015.21 7.33374 -1.95559 0
M  V30 47227 O 2015 5.88721 -2.00726 0
M  V30 47228 C 2013.81 7.92526 -2.10483 0
M  V30 47229 O 2013.42 8.02971 -3.47653 0
M  V30 47230 C 2012.93 6.89602 -1.41652 0
M  V30 47231 C 2013.64 5.59201 -1.75185 0
M  V30 47232 N 2013.59 4.58235 -0.662552 0
M  V30 47233 H 2016.43 8.65116 -0.777161 0
M  V30 47234 H 2016.7 6.90173 -0.474152 0
M  V30 47235 H 2015.83 7.66548 -2.79458 0
M  V30 47236 P 2011.87 8.03563 -3.84925 0
M  V30 47237 O 2011.65 8.85821 -5.0569 0
M  V30 47238 O 2011.08 8.41101 -2.65469 0
M  V30 47239 O 2011.62 6.4965 -4.18908 0
M  V30 47240 C 2012.56 5.81037 -5.05421 0
M  V30 47241 C 2011.83 4.78366 -5.89277 0
M  V30 47242 O 2011.62 3.58302 -5.08433 0
M  V30 47243 C 2010.43 5.17448 -6.36119 0
M  V30 47244 O 2010.04 4.45271 -7.53232 0
M  V30 47245 C 2009.55 4.74639 -5.19936 0
M  V30 47246 C 2010.26 3.49432 -4.70418 0
M  V30 47247 N 2010.21 3.31776 -3.22945 0
M  V30 47248 H 2013.05 6.54213 -5.71376 0
M  V30 47249 H 2013.32 5.30492 -4.44033 0
M  V30 47250 H 2012.45 4.55889 -6.76652 0
M  V30 47251 P 2008.49 4.23843 -7.83734 0
M  V30 47252 O 2008.27 4.19407 -9.29784 0
M  V30 47253 O 2007.7 5.24426 -7.09156 0
M  V30 47254 O 2008.24 2.7935 -7.20758 0
M  V30 47255 C 2009.18 1.7299 -7.50419 0
M  V30 47256 C 2008.45 0.406376 -7.57911 0
M  V30 47257 O 2008.24 -0.0897726 -6.21935 0
M  V30 47258 C 2007.05 0.447224 -8.1878 0
M  V30 47259 O 2006.66 -0.825065 -8.71101 0
M  V30 47260 C 2006.17 0.783801 -6.99623 0
M  V30 47261 C 2006.88 0.0619192 -5.85967 0
M  V30 47262 N 2006.83 0.7859 -4.56281 0
M  V30 47263 H 2009.67 1.93423 -8.4679 0
M  V30 47264 H 2009.94 1.68181 -6.71046 0
M  V30 47265 H 2009.07 -0.289041 -8.15388 0
M  V30 47266 P 2005.11 -1.17771 -8.83182 0
M  V30 47267 O 2004.89 -2.07206 -9.98732 0
M  V30 47268 O 2004.32 0.0743816 -8.81969 0
M  V30 47269 O 2004.86 -1.97652 -7.47304 0
M  V30 47270 C 2005.8 -3.01133 -7.08783 0
M  V30 47271 C 2005.07 -4.12613 -6.37049 0
M  V30 47272 O 2004.86 -3.72827 -4.97879 0
M  V30 47273 C 2003.67 -4.45085 -6.88694 0
M  V30 47274 O 2003.28 -5.7877 -6.5624 0
M  V30 47275 C 2002.79 -3.47817 -6.12078 0
M  V30 47276 C 2003.5 -3.39414 -4.77697 0
M  V30 47277 N 2003.45 -2.04615 -4.15333 0
M  V30 47278 H 2006.29 -3.41248 -7.98759 0
M  V30 47279 H 2006.56 -2.5837 -6.41742 0
M  V30 47280 H 2005.69 -5.02657 -6.42673 0
M  V30 47281 P 2001.73 -6.144 -6.45285 0
M  V30 47282 O 2001.51 -7.54673 -6.86199 0
M  V30 47283 O 2000.94 -5.12391 -7.179 0
M  V30 47284 O 2001.48 -5.99158 -4.88404 0
M  V30 47285 C 2002.42 -6.60234 -3.96415 0
M  V30 47286 C 2001.69 -7.08259 -2.72856 0
M  V30 47287 O 2001.48 -5.9427 -1.83651 0
M  V30 47288 C 2000.29 -7.64886 -2.9555 0
M  V30 47289 O 1999.9 -8.53963 -1.90717 0
M  V30 47290 C 1999.41 -6.4116 -2.90739 0
M  V30 47291 C 2000.12 -5.55375 -1.86963 0
M  V30 47292 N 2000.07 -4.09664 -2.15742 0
M  V30 47293 H 2002.91 -7.45574 -4.45629 0
M  V30 47294 H 2003.18 -5.86232 -3.67314 0
M  V30 47295 H 2002.31 -7.84412 -2.24479 0
M  V30 47296 P 1998.35 -8.7635 -1.60911 0
M  V30 47297 O 1998.13 -10.1388 -1.11561 0
M  V30 47298 O 1997.56 -8.36503 -2.79617 0
M  V30 47299 O 1998.1 -7.71806 -0.42951 0
M  V30 47300 C 1999.04 -7.67148 0.673689 0
M  V30 47301 C 1998.31 -7.33374 1.95559 0
M  V30 47302 O 1998.1 -5.88721 2.00726 0
M  V30 47303 C 1996.91 -7.92526 2.10483 0
M  V30 47304 O 1996.52 -8.02971 3.47653 0
M  V30 47305 C 1996.03 -6.89602 1.41652 0
M  V30 47306 C 1996.74 -5.59201 1.75185 0
M  V30 47307 N 1996.69 -4.58301 0.657969 0
M  V30 47308 H 1999.53 -8.65116 0.777161 0
M  V30 47309 H 1999.8 -6.9022 0.46725 0
M  V30 47310 H 1998.93 -7.66548 2.79458 0
M  V30 47311 H 1996.28 -5.16165 2.65183 0
M  V30 47312 H 1996 -7.06433 0.329384 0
M  V30 47313 H 1995.01 -6.90926 1.82021 0
M  V30 47314 H 1996.84 -8.90873 1.62657 0
M  V30 47315 P 1994.97 -8.03563 3.84925 0
M  V30 47316 O 1994.75 -8.85821 5.0569 0
M  V30 47317 O 1994.18 -8.41101 2.65469 0
M  V30 47318 O 1994.72 -6.4965 4.18908 0
M  V30 47319 C 1995.66 -5.81037 5.05421 0
M  V30 47320 C 1994.93 -4.78366 5.89277 0
M  V30 47321 O 1994.72 -3.58302 5.08433 0
M  V30 47322 C 1993.53 -5.17448 6.36119 0
M  V30 47323 O 1993.14 -4.45271 7.53232 0
M  V30 47324 C 1992.65 -4.74639 5.19936 0
M  V30 47325 C 1993.36 -3.49432 4.70418 0
M  V30 47326 N 1993.31 -3.31776 3.22945 0
M  V30 47327 C 1993.39 -4.27147 2.23315 0
M  V30 47328 N 1993.31 -3.78447 1.02186 0
M  V30 47329 C 1993.17 -2.41001 1.21732 0
M  V30 47330 C 1993.04 -1.36111 0.27694 0
M  V30 47331 N 1992.92 -0.113683 0.912949 0
M  V30 47332 C 1992.92 0.0846396 2.27943 0
M  V30 47333 N 1992.79 1.34737 2.6916 0
M  V30 47334 N 1993.05 -0.902521 3.16379 0
M  V30 47335 C 1993.17 -2.11937 2.56849 0
M  V30 47336 H 1996.15 -6.54213 5.71376 0
M  V30 47337 H 1996.42 -5.30492 4.44033 0
M  V30 47338 H 1995.55 -4.55889 6.76652 0
M  V30 47339 P 1991.59 -4.23843 7.83734 0
M  V30 47340 O 1991.37 -4.19407 9.29784 0
M  V30 47341 O 1990.8 -5.24426 7.09156 0
M  V30 47342 O 1991.34 -2.7935 7.20758 0
M  V30 47343 C 1992.28 -1.7299 7.50419 0
M  V30 47344 C 1991.55 -0.406376 7.57911 0
M  V30 47345 O 1991.34 0.0897726 6.21935 0
M  V30 47346 C 1990.15 -0.447224 8.1878 0
M  V30 47347 O 1989.76 0.825065 8.71101 0
M  V30 47348 C 1989.27 -0.783801 6.99623 0
M  V30 47349 C 1989.98 -0.0619192 5.85967 0
M  V30 47350 N 1989.93 -0.7859 4.56281 0
M  V30 47351 H 1992.77 -1.93423 8.4679 0
M  V30 47352 H 1993.04 -1.68181 6.71046 0
M  V30 47353 H 1992.17 0.289041 8.15388 0
M  V30 47354 P 1988.21 1.17771 8.83182 0
M  V30 47355 O 1987.99 2.07206 9.98732 0
M  V30 47356 O 1987.42 -0.0743816 8.81969 0
M  V30 47357 O 1987.96 1.97652 7.47304 0
M  V30 47358 C 1988.9 3.01055 7.08599 0
M  V30 47359 C 1988.17 4.12613 6.37049 0
M  V30 47360 O 1987.96 3.72827 4.97879 0
M  V30 47361 C 1986.77 4.45719 6.88164 0
M  V30 47362 O 1986.38 5.7877 6.5624 0
M  V30 47363 C 1985.89 3.47768 6.11991 0
M  V30 47364 C 1986.6 3.39356 4.77615 0
M  V30 47365 N 1986.55 2.04571 4.15244 0
M  V30 47366 C 1986.4 1.98587 2.78314 0
M  V30 47367 O 1986.31 2.98134 2.08835 0
M  V30 47368 N 1986.36 0.714467 2.24925 0
M  V30 47369 C 1986.45 -0.470001 2.94169 0
M  V30 47370 O 1986.4 -1.55587 2.35195 0
M  V30 47371 C 1986.6 -0.312541 4.36783 0
M  V30 47372 C 1986.71 -1.57711 5.16352 0
M  V30 47373 C 1986.65 0.914512 4.92583 0
M  V30 47374 H 1989.39 3.41169 7.98575 0
M  V30 47375 H 1989.66 2.58295 6.41556 0
M  V30 47376 H 1988.79 5.02657 6.42673 0
M  V30 47377 H 1986.14 4.11637 4.08885 0
M  V30 47378 H 1985.86 2.49626 6.61679 0
M  V30 47379 H 1984.87 3.86566 6.00778 0
M  V30 47380 H 1986.7 4.29943 7.96918 0
M  V30 47381 H 1986.77 1.00937 6.00374 0
M  V30 47382 H 1985.74 -1.80153 5.63503 0
M  V30 47383 H 1987.48 -1.4566 5.94104 0
M  V30 47384 H 1986.99 -2.40664 4.49645 0
M  V30 47385 H 1986.25 0.647622 1.25697 0
M  V30 47386 P 1984.83 6.144 6.45285 0
M  V30 47387 O 1984.61 7.54673 6.86199 0
M  V30 47388 O 1984.04 5.12391 7.179 0
M  V30 47389 O 1984.58 5.99158 4.88404 0
M  V30 47390 C 1985.52 6.60234 3.96415 0
M  V30 47391 C 1984.79 7.08259 2.72856 0
M  V30 47392 O 1984.58 5.9427 1.83651 0
M  V30 47393 C 1983.39 7.64886 2.9555 0
M  V30 47394 O 1983 8.53963 1.90717 0
M  V30 47395 C 1982.51 6.4116 2.90739 0
M  V30 47396 C 1983.22 5.55375 1.86963 0
M  V30 47397 N 1983.17 4.09664 2.15742 0
M  V30 47398 H 1986.01 7.45574 4.45629 0
M  V30 47399 H 1986.28 5.86232 3.67314 0
M  V30 47400 H 1985.41 7.84412 2.24479 0
M  V30 47401 P 1981.45 8.7635 1.60911 0
M  V30 47402 O 1981.23 10.1388 1.11561 0
M  V30 47403 O 1980.66 8.36503 2.79617 0
M  V30 47404 O 1981.2 7.71806 0.42951 0
M  V30 47405 C 1982.14 7.67148 -0.673689 0
M  V30 47406 C 1981.41 7.33374 -1.95559 0
M  V30 47407 O 1981.2 5.88721 -2.00726 0
M  V30 47408 C 1980.01 7.92526 -2.10483 0
M  V30 47409 O 1979.62 8.02971 -3.47653 0
M  V30 47410 C 1979.13 6.89602 -1.41652 0
M  V30 47411 C 1979.84 5.59201 -1.75185 0
M  V30 47412 N 1979.79 4.58235 -0.662552 0
M  V30 47413 H 1982.63 8.65116 -0.777161 0
M  V30 47414 H 1982.9 6.90173 -0.474152 0
M  V30 47415 H 1982.03 7.66548 -2.79458 0
M  V30 47416 P 1978.07 8.03563 -3.84925 0
M  V30 47417 O 1977.85 8.85821 -5.0569 0
M  V30 47418 O 1977.28 8.41101 -2.65469 0
M  V30 47419 O 1977.82 6.4965 -4.18908 0
M  V30 47420 C 1978.76 5.81037 -5.05421 0
M  V30 47421 C 1978.03 4.78366 -5.89277 0
M  V30 47422 O 1977.82 3.58302 -5.08433 0
M  V30 47423 C 1976.63 5.17448 -6.36119 0
M  V30 47424 O 1976.24 4.45271 -7.53232 0
M  V30 47425 C 1975.75 4.74639 -5.19936 0
M  V30 47426 C 1976.46 3.49432 -4.70418 0
M  V30 47427 N 1976.41 3.31776 -3.22945 0
M  V30 47428 H 1979.25 6.54213 -5.71376 0
M  V30 47429 H 1979.52 5.30492 -4.44033 0
M  V30 47430 H 1978.65 4.55889 -6.76652 0
M  V30 47431 P 1974.69 4.23843 -7.83734 0
M  V30 47432 O 1974.47 4.19407 -9.29784 0
M  V30 47433 O 1973.9 5.24426 -7.09156 0
M  V30 47434 O 1974.44 2.7935 -7.20758 0
M  V30 47435 C 1975.38 1.7299 -7.50419 0
M  V30 47436 C 1974.65 0.406376 -7.57911 0
M  V30 47437 O 1974.44 -0.0897726 -6.21935 0
M  V30 47438 C 1973.25 0.447224 -8.1878 0
M  V30 47439 O 1972.86 -0.825065 -8.71101 0
M  V30 47440 C 1972.37 0.783801 -6.99623 0
M  V30 47441 C 1973.08 0.0619192 -5.85967 0
M  V30 47442 N 1973.03 0.790462 -4.56202 0
M  V30 47443 H 1975.87 1.93423 -8.4679 0
M  V30 47444 H 1976.14 1.68852 -6.70877 0
M  V30 47445 H 1975.27 -0.289041 -8.15388 0
M  V30 47446 H 1972.62 -0.927006 -5.72848 0
M  V30 47447 H 1972.34 1.86973 -6.82036 0
M  V30 47448 H 1971.35 0.403953 -7.13357 0
M  V30 47449 H 1973.18 1.20599 -8.97534 0
M  V30 47450 P 1971.31 -1.17771 -8.83182 0
M  V30 47451 O 1971.09 -2.07206 -9.98732 0
M  V30 47452 O 1970.52 0.0743816 -8.81969 0
M  V30 47453 O 1971.06 -1.97652 -7.47304 0
M  V30 47454 C 1972 -3.01133 -7.08783 0
M  V30 47455 C 1971.27 -4.12613 -6.37049 0
M  V30 47456 O 1971.06 -3.72827 -4.97879 0
M  V30 47457 C 1969.87 -4.45085 -6.88694 0
M  V30 47458 O 1969.48 -5.7877 -6.5624 0
M  V30 47459 C 1968.99 -3.47817 -6.12078 0
M  V30 47460 C 1969.7 -3.39414 -4.77697 0
M  V30 47461 N 1969.65 -2.04615 -4.15333 0
M  V30 47462 H 1972.49 -3.41248 -7.98759 0
M  V30 47463 H 1972.76 -2.5837 -6.41742 0
M  V30 47464 H 1971.89 -5.02657 -6.42673 0
M  V30 47465 P 1967.93 -6.144 -6.45285 0
M  V30 47466 O 1967.71 -7.54673 -6.86199 0
M  V30 47467 O 1967.14 -5.12391 -7.179 0
M  V30 47468 O 1967.68 -5.99158 -4.88404 0
M  V30 47469 C 1968.62 -6.60234 -3.96415 0
M  V30 47470 C 1967.89 -7.08259 -2.72856 0
M  V30 47471 O 1967.68 -5.9427 -1.83651 0
M  V30 47472 C 1966.49 -7.64886 -2.9555 0
M  V30 47473 O 1966.1 -8.53963 -1.90717 0
M  V30 47474 C 1965.61 -6.4116 -2.90739 0
M  V30 47475 C 1966.32 -5.55375 -1.86963 0
M  V30 47476 N 1966.27 -4.09448 -2.16152 0
M  V30 47477 H 1969.11 -7.45574 -4.45629 0
M  V30 47478 H 1969.38 -5.85864 -3.679 0
M  V30 47479 H 1968.51 -7.84412 -2.24479 0
M  V30 47480 H 1965.86 -5.73457 -0.888562 0
M  V30 47481 H 1965.58 -5.90877 -3.88583 0
M  V30 47482 H 1964.59 -6.6596 -2.58858 0
M  V30 47483 H 1966.42 -8.16339 -3.92049 0
M  V30 47484 P 1964.55 -8.7635 -1.60911 0
M  V30 47485 O 1964.33 -10.1388 -1.11561 0
M  V30 47486 O 1963.76 -8.36503 -2.79617 0
M  V30 47487 O 1964.3 -7.71806 -0.42951 0
M  V30 47488 C 1965.24 -7.67148 0.673689 0
M  V30 47489 C 1964.51 -7.33374 1.95559 0
M  V30 47490 O 1964.3 -5.88721 2.00726 0
M  V30 47491 C 1963.11 -7.92526 2.10483 0
M  V30 47492 O 1962.72 -8.02971 3.47653 0
M  V30 47493 C 1962.23 -6.89602 1.41652 0
M  V30 47494 C 1962.94 -5.59201 1.75185 0
M  V30 47495 N 1962.89 -4.58301 0.657969 0
M  V30 47496 H 1965.73 -8.65116 0.777161 0
M  V30 47497 H 1966 -6.9022 0.46725 0
M  V30 47498 H 1965.13 -7.66548 2.79458 0
M  V30 47499 H 1962.48 -5.16165 2.65183 0
M  V30 47500 H 1962.2 -7.06433 0.329384 0
M  V30 47501 H 1961.21 -6.90926 1.82021 0
M  V30 47502 H 1963.04 -8.90873 1.62657 0
M  V30 47503 P 1961.17 -8.03563 3.84925 0
M  V30 47504 O 1960.95 -8.85821 5.0569 0
M  V30 47505 O 1960.38 -8.41101 2.65469 0
M  V30 47506 O 1960.92 -6.4965 4.18908 0
M  V30 47507 C 1961.86 -5.81037 5.05421 0
M  V30 47508 C 1961.13 -4.78366 5.89277 0
M  V30 47509 O 1960.92 -3.58302 5.08433 0
M  V30 47510 C 1959.73 -5.17448 6.36119 0
M  V30 47511 O 1959.34 -4.45271 7.53232 0
M  V30 47512 C 1958.85 -4.74639 5.19936 0
M  V30 47513 C 1959.56 -3.49432 4.70418 0
M  V30 47514 N 1959.51 -3.31776 3.22945 0
M  V30 47515 H 1962.35 -6.54213 5.71376 0
M  V30 47516 H 1962.62 -5.30492 4.44033 0
M  V30 47517 H 1961.75 -4.55889 6.76652 0
M  V30 47518 P 1957.79 -4.23843 7.83734 0
M  V30 47519 O 1957.57 -4.19407 9.29784 0
M  V30 47520 O 1957 -5.24426 7.09156 0
M  V30 47521 O 1957.54 -2.7935 7.20758 0
M  V30 47522 C 1958.48 -1.7299 7.50419 0
M  V30 47523 C 1957.75 -0.406376 7.57911 0
M  V30 47524 O 1957.54 0.0897726 6.21935 0
M  V30 47525 C 1956.35 -0.447224 8.1878 0
M  V30 47526 O 1955.96 0.825065 8.71101 0
M  V30 47527 C 1955.47 -0.783801 6.99623 0
M  V30 47528 C 1956.18 -0.0619192 5.85967 0
M  V30 47529 N 1956.13 -0.790462 4.56202 0
M  V30 47530 H 1958.97 -1.93423 8.4679 0
M  V30 47531 H 1959.24 -1.68852 6.70877 0
M  V30 47532 H 1958.37 0.289041 8.15388 0
M  V30 47533 H 1955.72 0.927006 5.72848 0
M  V30 47534 H 1955.44 -1.86973 6.82036 0
M  V30 47535 H 1954.45 -0.403953 7.13357 0
M  V30 47536 H 1956.28 -1.20599 8.97534 0
M  V30 47537 P 1954.41 1.17771 8.83182 0
M  V30 47538 O 1954.19 2.07206 9.98732 0
M  V30 47539 O 1953.62 -0.0743816 8.81969 0
M  V30 47540 O 1954.16 1.97652 7.47304 0
M  V30 47541 C 1955.1 3.01133 7.08783 0
M  V30 47542 C 1954.37 4.12613 6.37049 0
M  V30 47543 O 1954.16 3.72827 4.97879 0
M  V30 47544 C 1952.97 4.45085 6.88694 0
M  V30 47545 O 1952.58 5.7877 6.5624 0
M  V30 47546 C 1952.09 3.47817 6.12078 0
M  V30 47547 C 1952.8 3.39414 4.77697 0
M  V30 47548 N 1952.75 2.04615 4.15333 0
M  V30 47549 H 1955.59 3.41248 7.98759 0
M  V30 47550 H 1955.86 2.5837 6.41742 0
M  V30 47551 H 1954.99 5.02657 6.42673 0
M  V30 47552 P 1951.03 6.144 6.45285 0
M  V30 47553 O 1950.81 7.54673 6.86199 0
M  V30 47554 O 1950.24 5.12391 7.179 0
M  V30 47555 O 1950.78 5.99158 4.88404 0
M  V30 47556 C 1951.72 6.60234 3.96415 0
M  V30 47557 C 1950.99 7.08259 2.72856 0
M  V30 47558 O 1950.78 5.9427 1.83651 0
M  V30 47559 C 1949.59 7.64886 2.9555 0
M  V30 47560 O 1949.2 8.53963 1.90717 0
M  V30 47561 C 1948.71 6.4116 2.90739 0
M  V30 47562 C 1949.42 5.55375 1.86963 0
M  V30 47563 N 1949.37 4.09664 2.15742 0
M  V30 47564 H 1952.21 7.45574 4.45629 0
M  V30 47565 H 1952.48 5.86232 3.67314 0
M  V30 47566 H 1951.61 7.84412 2.24479 0
M  V30 47567 P 1947.65 8.7635 1.60911 0
M  V30 47568 O 1947.43 10.1388 1.11561 0
M  V30 47569 O 1946.86 8.36503 2.79617 0
M  V30 47570 O 1947.4 7.71806 0.42951 0
M  V30 47571 C 1948.34 7.67148 -0.673689 0
M  V30 47572 C 1947.61 7.33374 -1.95559 0
M  V30 47573 O 1947.4 5.88721 -2.00726 0
M  V30 47574 C 1946.21 7.92526 -2.10483 0
M  V30 47575 O 1945.82 8.02971 -3.47653 0
M  V30 47576 C 1945.33 6.89602 -1.41652 0
M  V30 47577 C 1946.04 5.59201 -1.75185 0
M  V30 47578 N 1945.99 4.58235 -0.662552 0
M  V30 47579 H 1948.83 8.65116 -0.777161 0
M  V30 47580 H 1949.1 6.90173 -0.474152 0
M  V30 47581 H 1948.23 7.66548 -2.79458 0
M  V30 47582 P 1944.27 8.03563 -3.84925 0
M  V30 47583 O 1944.05 8.85821 -5.0569 0
M  V30 47584 O 1943.48 8.41101 -2.65469 0
M  V30 47585 O 1944.02 6.4965 -4.18908 0
M  V30 47586 C 1944.96 5.81037 -5.05421 0
M  V30 47587 C 1944.23 4.78366 -5.89277 0
M  V30 47588 O 1944.02 3.58302 -5.08433 0
M  V30 47589 C 1942.83 5.17448 -6.36119 0
M  V30 47590 O 1942.44 4.45271 -7.53232 0
M  V30 47591 C 1941.95 4.74639 -5.19936 0
M  V30 47592 C 1942.66 3.49432 -4.70418 0
M  V30 47593 N 1942.61 3.32099 -3.22613 0
M  V30 47594 C 1942.69 4.28245 -2.25527 0
M  V30 47595 N 1942.62 3.80823 -1.04874 0
M  V30 47596 C 1942.47 2.44571 -1.23535 0
M  V30 47597 C 1942.34 1.37068 -0.330675 0
M  V30 47598 N 1942.33 1.51472 0.990824 0
M  V30 47599 N 1942.22 0.138614 -0.848756 0
M  V30 47600 C 1942.23 -0.00675923 -2.16999 0
M  V30 47601 N 1942.35 0.904372 -3.11122 0
M  V30 47602 C 1942.47 2.12707 -2.56212 0
M  V30 47603 H 1945.45 6.54213 -5.71376 0
M  V30 47604 H 1945.72 5.30936 -4.43503 0
M  V30 47605 H 1944.85 4.55889 -6.76652 0
M  V30 47606 H 1942.2 2.61715 -5.17932 0
M  V30 47607 H 1941.92 5.52155 -4.41878 0
M  V30 47608 H 1940.93 4.51981 -5.53374 0
M  V30 47609 H 1942.76 6.25124 -6.55234 0
M  V30 47610 H 1942.8 5.34372 -2.47488 0
M  V30 47611 H 1942.42 2.45153 1.4078 0
M  V30 47612 H 1942.23 0.688422 1.59911 0
M  V30 47613 H 1942.12 -1.02584 -2.52346 0
M  V30 47614 P 1940.89 4.23843 -7.83734 0
M  V30 47615 O 1940.67 4.19407 -9.29784 0
M  V30 47616 O 1940.1 5.24426 -7.09156 0
M  V30 47617 O 1940.64 2.7935 -7.20758 0
M  V30 47618 C 1941.58 1.7299 -7.50419 0
M  V30 47619 C 1940.85 0.406376 -7.57911 0
M  V30 47620 O 1940.64 -0.0897726 -6.21935 0
M  V30 47621 C 1939.45 0.447224 -8.1878 0
M  V30 47622 O 1939.06 -0.825065 -8.71101 0
M  V30 47623 C 1938.57 0.783801 -6.99623 0
M  V30 47624 C 1939.28 0.0619192 -5.85967 0
M  V30 47625 N 1939.23 0.7859 -4.56281 0
M  V30 47626 H 1942.07 1.93423 -8.4679 0
M  V30 47627 H 1942.34 1.68181 -6.71046 0
M  V30 47628 H 1941.47 -0.289041 -8.15388 0
M  V30 47629 P 1937.51 -1.17771 -8.83182 0
M  V30 47630 O 1937.29 -2.07206 -9.98732 0
M  V30 47631 O 1936.72 0.0743816 -8.81969 0
M  V30 47632 O 1937.26 -1.97652 -7.47304 0
M  V30 47633 C 1938.2 -3.01133 -7.08783 0
M  V30 47634 C 1937.47 -4.12613 -6.37049 0
M  V30 47635 O 1937.26 -3.72827 -4.97879 0
M  V30 47636 C 1936.07 -4.45085 -6.88694 0
M  V30 47637 O 1935.68 -5.7877 -6.5624 0
M  V30 47638 C 1935.19 -3.47817 -6.12078 0
M  V30 47639 C 1935.9 -3.39414 -4.77697 0
M  V30 47640 N 1935.85 -2.04615 -4.15333 0
M  V30 47641 H 1938.69 -3.41248 -7.98759 0
M  V30 47642 H 1938.96 -2.5837 -6.41742 0
M  V30 47643 H 1938.09 -5.02657 -6.42673 0
M  V30 47644 P 1934.13 -6.144 -6.45285 0
M  V30 47645 O 1933.91 -7.54673 -6.86199 0
M  V30 47646 O 1933.34 -5.12391 -7.179 0
M  V30 47647 O 1933.88 -5.99158 -4.88404 0
M  V30 47648 C 1934.82 -6.60234 -3.96415 0
M  V30 47649 C 1934.09 -7.08259 -2.72856 0
M  V30 47650 O 1933.88 -5.9427 -1.83651 0
M  V30 47651 C 1932.69 -7.64886 -2.9555 0
M  V30 47652 O 1932.3 -8.53963 -1.90717 0
M  V30 47653 C 1931.81 -6.4116 -2.90739 0
M  V30 47654 C 1932.52 -5.55375 -1.86963 0
M  V30 47655 N 1932.47 -4.09664 -2.15742 0
M  V30 47656 H 1935.31 -7.45574 -4.45629 0
M  V30 47657 H 1935.58 -5.86232 -3.67314 0
M  V30 47658 H 1934.71 -7.84412 -2.24479 0
M  V30 47659 P 1930.75 -8.7635 -1.60911 0
M  V30 47660 O 1930.53 -10.1388 -1.11561 0
M  V30 47661 O 1929.96 -8.36503 -2.79617 0
M  V30 47662 O 1930.5 -7.71806 -0.42951 0
M  V30 47663 C 1931.44 -7.67148 0.673689 0
M  V30 47664 C 1930.71 -7.33374 1.95559 0
M  V30 47665 O 1930.5 -5.88721 2.00726 0
M  V30 47666 C 1929.31 -7.92526 2.10483 0
M  V30 47667 O 1928.92 -8.02971 3.47653 0
M  V30 47668 C 1928.43 -6.89602 1.41652 0
M  V30 47669 C 1929.14 -5.59201 1.75185 0
M  V30 47670 N 1929.09 -4.58235 0.662552 0
M  V30 47671 H 1931.93 -8.65116 0.777161 0
M  V30 47672 H 1932.2 -6.90173 0.474152 0
M  V30 47673 H 1931.33 -7.66548 2.79458 0
M  V30 47674 P 1927.37 -8.03563 3.84925 0
M  V30 47675 O 1927.15 -8.85821 5.0569 0
M  V30 47676 O 1926.58 -8.41101 2.65469 0
M  V30 47677 O 1927.12 -6.4965 4.18908 0
M  V30 47678 C 1928.06 -5.81037 5.05421 0
M  V30 47679 C 1927.33 -4.78366 5.89277 0
M  V30 47680 O 1927.12 -3.58302 5.08433 0
M  V30 47681 C 1925.93 -5.17448 6.36119 0
M  V30 47682 O 1925.54 -4.45271 7.53232 0
M  V30 47683 C 1925.05 -4.74639 5.19936 0
M  V30 47684 C 1925.76 -3.49432 4.70418 0
M  V30 47685 N 1925.71 -3.31776 3.22945 0
M  V30 47686 H 1928.55 -6.54213 5.71376 0
M  V30 47687 H 1928.82 -5.30492 4.44033 0
M  V30 47688 H 1927.95 -4.55889 6.76652 0
M  V30 47689 P 1923.99 -4.23843 7.83734 0
M  V30 47690 O 1923.77 -4.19407 9.29784 0
M  V30 47691 O 1923.2 -5.24426 7.09156 0
M  V30 47692 O 1923.74 -2.7935 7.20758 0
M  V30 47693 C 1924.68 -1.7299 7.50419 0
M  V30 47694 C 1923.95 -0.406376 7.57911 0
M  V30 47695 O 1923.74 0.0897726 6.21935 0
M  V30 47696 C 1922.55 -0.447224 8.1878 0
M  V30 47697 O 1922.16 0.825065 8.71101 0
M  V30 47698 C 1921.67 -0.783801 6.99623 0
M  V30 47699 C 1922.38 -0.0619192 5.85967 0
M  V30 47700 N 1922.33 -0.7859 4.56281 0
M  V30 47701 H 1925.17 -1.93423 8.4679 0
M  V30 47702 H 1925.44 -1.68181 6.71046 0
M  V30 47703 H 1924.57 0.289041 8.15388 0
M  V30 47704 P 1920.61 1.17771 8.83182 0
M  V30 47705 O 1920.39 2.07206 9.98732 0
M  V30 47706 O 1919.82 -0.0743816 8.81969 0
M  V30 47707 O 1920.36 1.97652 7.47304 0
M  V30 47708 C 1921.3 3.01055 7.08599 0
M  V30 47709 C 1920.57 4.12613 6.37049 0
M  V30 47710 O 1920.36 3.72827 4.97879 0
M  V30 47711 C 1919.17 4.45719 6.88164 0
M  V30 47712 O 1918.78 5.7877 6.5624 0
M  V30 47713 C 1918.29 3.47768 6.11991 0
M  V30 47714 C 1919 3.39356 4.77615 0
M  V30 47715 N 1918.95 2.04571 4.15244 0
M  V30 47716 C 1918.8 1.98587 2.78314 0
M  V30 47717 O 1918.71 2.98134 2.08835 0
M  V30 47718 N 1918.76 0.714467 2.24925 0
M  V30 47719 C 1918.85 -0.470001 2.94169 0
M  V30 47720 C 1919 -0.312541 4.36783 0
M  V30 47721 C 1919.05 0.914512 4.92583 0
M  V30 47722 H 1921.79 3.41169 7.98575 0
M  V30 47723 H 1922.06 2.58295 6.41556 0
M  V30 47724 H 1921.19 5.02657 6.42673 0
M  V30 47725 H 1918.54 4.11637 4.08885 0
M  V30 47726 H 1918.26 2.49626 6.61679 0
M  V30 47727 H 1917.27 3.86566 6.00778 0
M  V30 47728 H 1919.1 4.29943 7.96918 0
M  V30 47729 H 1919.17 1.00937 6.00374 0
M  V30 47730 P 1917.23 6.144 6.45285 0
M  V30 47731 O 1917.01 7.54673 6.86199 0
M  V30 47732 O 1916.44 5.12391 7.179 0
M  V30 47733 O 1916.98 5.99158 4.88404 0
M  V30 47734 C 1917.92 6.60234 3.96415 0
M  V30 47735 C 1917.19 7.08259 2.72856 0
M  V30 47736 O 1916.98 5.9427 1.83651 0
M  V30 47737 C 1915.79 7.64886 2.9555 0
M  V30 47738 O 1915.4 8.53963 1.90717 0
M  V30 47739 C 1914.91 6.4116 2.90739 0
M  V30 47740 C 1915.62 5.55375 1.86963 0
M  V30 47741 N 1915.57 4.09664 2.15742 0
M  V30 47742 H 1918.41 7.45574 4.45629 0
M  V30 47743 H 1918.68 5.86232 3.67314 0
M  V30 47744 H 1917.81 7.84412 2.24479 0
M  V30 47745 P 1913.85 8.7635 1.60911 0
M  V30 47746 O 1913.63 10.1388 1.11561 0
M  V30 47747 O 1913.06 8.36503 2.79617 0
M  V30 47748 O 1913.6 7.71806 0.42951 0
M  V30 47749 C 1914.54 7.66948 -0.673514 0
M  V30 47750 C 1913.81 7.33374 -1.95559 0
M  V30 47751 O 1913.6 5.88721 -2.00726 0
M  V30 47752 C 1912.41 7.92218 -2.1125 0
M  V30 47753 O 1912.02 8.02971 -3.47653 0
M  V30 47754 C 1911.53 6.89504 -1.41631 0
M  V30 47755 C 1912.24 5.59106 -1.75155 0
M  V30 47756 N 1912.19 4.58136 -0.662409 0
M  V30 47757 C 1912.04 3.26059 -1.02863 0
M  V30 47758 O 1911.95 2.90743 -2.19009 0
M  V30 47759 N 1912 2.35995 0.0155585 0
M  V30 47760 C 1912.09 2.65248 1.35603 0
M  V30 47761 C 1912.24 4.05747 1.64698 0
M  V30 47762 C 1912.29 4.96734 0.652411 0
M  V30 47763 H 1915.03 8.64917 -0.776982 0
M  V30 47764 H 1915.3 6.89974 -0.474015 0
M  V30 47765 H 1914.43 7.66548 -2.79458 0
M  V30 47766 H 1911.78 5.16076 -2.65138 0
M  V30 47767 H 1911.5 7.06433 -0.329384 0
M  V30 47768 H 1910.51 6.90829 -1.81996 0
M  V30 47769 H 1912.34 8.90774 -1.62639 0
M  V30 47770 H 1912.41 6.02181 0.895285 0
M  V30 47771 P 1910.47 8.03563 -3.84925 0
M  V30 47772 O 1910.25 8.85821 -5.0569 0
M  V30 47773 O 1909.68 8.41101 -2.65469 0
M  V30 47774 O 1910.22 6.4965 -4.18908 0
M  V30 47775 C 1911.16 5.81037 -5.05421 0
M  V30 47776 C 1910.43 4.78366 -5.89277 0
M  V30 47777 O 1910.22 3.58302 -5.08433 0
M  V30 47778 C 1909.03 5.17448 -6.36119 0
M  V30 47779 O 1908.64 4.45271 -7.53232 0
M  V30 47780 C 1908.15 4.74639 -5.19936 0
M  V30 47781 C 1908.86 3.49432 -4.70418 0
M  V30 47782 N 1908.81 3.31776 -3.22945 0
M  V30 47783 H 1911.65 6.54213 -5.71376 0
M  V30 47784 H 1911.92 5.30492 -4.44033 0
M  V30 47785 H 1911.05 4.55889 -6.76652 0
M  V30 47786 P 1907.09 4.23843 -7.83734 0
M  V30 47787 O 1906.87 4.19407 -9.29784 0
M  V30 47788 O 1906.3 5.24426 -7.09156 0
M  V30 47789 O 1906.84 2.7935 -7.20758 0
M  V30 47790 C 1907.78 1.7299 -7.50419 0
M  V30 47791 C 1907.05 0.406376 -7.57911 0
M  V30 47792 O 1906.84 -0.0897726 -6.21935 0
M  V30 47793 C 1905.65 0.447224 -8.1878 0
M  V30 47794 O 1905.26 -0.825065 -8.71101 0
M  V30 47795 C 1904.77 0.783801 -6.99623 0
M  V30 47796 C 1905.48 0.0619192 -5.85967 0
M  V30 47797 N 1905.43 0.7859 -4.56281 0
M  V30 47798 H 1908.27 1.93423 -8.4679 0
M  V30 47799 H 1908.54 1.68181 -6.71046 0
M  V30 47800 H 1907.67 -0.289041 -8.15388 0
M  V30 47801 P 1903.71 -1.17771 -8.83182 0
M  V30 47802 O 1903.49 -2.07206 -9.98732 0
M  V30 47803 O 1902.92 0.0743816 -8.81969 0
M  V30 47804 O 1903.46 -1.97652 -7.47304 0
M  V30 47805 C 1904.4 -3.01133 -7.08783 0
M  V30 47806 C 1903.67 -4.12613 -6.37049 0
M  V30 47807 O 1903.46 -3.72827 -4.97879 0
M  V30 47808 C 1902.27 -4.45085 -6.88694 0
M  V30 47809 O 1901.88 -5.7877 -6.5624 0
M  V30 47810 C 1901.39 -3.47817 -6.12078 0
M  V30 47811 C 1902.1 -3.39414 -4.77697 0
M  V30 47812 N 1902.05 -2.04199 -4.15538 0
M  V30 47813 H 1904.89 -3.41248 -7.98759 0
M  V30 47814 H 1905.16 -2.57728 -6.42 0
M  V30 47815 H 1904.29 -5.02657 -6.42673 0
M  V30 47816 H 1901.64 -4.11708 -4.08956 0
M  V30 47817 H 1901.36 -2.49626 -6.61679 0
M  V30 47818 H 1900.37 -3.8662 -6.00862 0
M  V30 47819 H 1902.2 -4.29991 -7.97006 0
M  V30 47820 P 1900.33 -6.144 -6.45285 0
M  V30 47821 O 1900.11 -7.54673 -6.86199 0
M  V30 47822 O 1899.54 -5.12391 -7.179 0
M  V30 47823 O 1900.08 -5.99158 -4.88404 0
M  V30 47824 C 1901.02 -6.60234 -3.96415 0
M  V30 47825 C 1900.29 -7.08259 -2.72856 0
M  V30 47826 O 1900.08 -5.9427 -1.83651 0
M  V30 47827 C 1898.89 -7.64886 -2.9555 0
M  V30 47828 O 1898.5 -8.53963 -1.90717 0
M  V30 47829 C 1898.01 -6.4116 -2.90739 0
M  V30 47830 C 1898.72 -5.55375 -1.86963 0
M  V30 47831 N 1898.67 -4.09664 -2.15742 0
M  V30 47832 H 1901.51 -7.45574 -4.45629 0
M  V30 47833 H 1901.78 -5.86232 -3.67314 0
M  V30 47834 H 1900.91 -7.84412 -2.24479 0
M  V30 47835 P 1896.95 -8.7635 -1.60911 0
M  V30 47836 O 1896.73 -10.1388 -1.11561 0
M  V30 47837 O 1896.16 -8.36503 -2.79617 0
M  V30 47838 O 1896.7 -7.71806 -0.42951 0
M  V30 47839 C 1897.64 -7.67148 0.673689 0
M  V30 47840 C 1896.91 -7.33374 1.95559 0
M  V30 47841 O 1896.7 -5.88721 2.00726 0
M  V30 47842 C 1895.51 -7.92526 2.10483 0
M  V30 47843 O 1895.12 -8.02971 3.47653 0
M  V30 47844 C 1894.63 -6.89602 1.41652 0
M  V30 47845 C 1895.34 -5.59201 1.75185 0
M  V30 47846 N 1895.29 -4.58235 0.662552 0
M  V30 47847 H 1898.13 -8.65116 0.777161 0
M  V30 47848 H 1898.4 -6.90173 0.474152 0
M  V30 47849 H 1897.53 -7.66548 2.79458 0
M  V30 47850 P 1893.57 -8.03563 3.84925 0
M  V30 47851 O 1893.35 -8.85821 5.0569 0
M  V30 47852 O 1892.78 -8.41101 2.65469 0
M  V30 47853 O 1893.32 -6.4965 4.18908 0
M  V30 47854 C 1894.26 -5.81037 5.05421 0
M  V30 47855 C 1893.53 -4.78366 5.89277 0
M  V30 47856 O 1893.32 -3.58302 5.08433 0
M  V30 47857 C 1892.13 -5.17448 6.36119 0
M  V30 47858 O 1891.74 -4.45271 7.53232 0
M  V30 47859 C 1891.25 -4.74639 5.19936 0
M  V30 47860 C 1891.96 -3.49432 4.70418 0
M  V30 47861 N 1891.91 -3.31776 3.22945 0
M  V30 47862 H 1894.75 -6.54213 5.71376 0
M  V30 47863 H 1895.02 -5.30492 4.44033 0
M  V30 47864 H 1894.15 -4.55889 6.76652 0
M  V30 47865 P 1890.19 -4.23843 7.83734 0
M  V30 47866 O 1889.97 -4.19407 9.29784 0
M  V30 47867 O 1889.4 -5.24426 7.09156 0
M  V30 47868 O 1889.94 -2.7935 7.20758 0
M  V30 47869 C 1890.88 -1.7299 7.50419 0
M  V30 47870 C 1890.15 -0.406376 7.57911 0
M  V30 47871 O 1889.94 0.0897726 6.21935 0
M  V30 47872 C 1888.75 -0.447224 8.1878 0
M  V30 47873 O 1888.36 0.825065 8.71101 0
M  V30 47874 C 1887.87 -0.783801 6.99623 0
M  V30 47875 C 1888.58 -0.0619192 5.85967 0
M  V30 47876 N 1888.53 -0.7859 4.56281 0
M  V30 47877 H 1891.37 -1.93423 8.4679 0
M  V30 47878 H 1891.64 -1.68181 6.71046 0
M  V30 47879 H 1890.77 0.289041 8.15388 0
M  V30 47880 P 1886.81 1.17771 8.83182 0
M  V30 47881 O 1886.59 2.07206 9.98732 0
M  V30 47882 O 1886.02 -0.0743816 8.81969 0
M  V30 47883 O 1886.56 1.97652 7.47304 0
M  V30 47884 C 1887.5 3.01133 7.08783 0
M  V30 47885 C 1886.77 4.12613 6.37049 0
M  V30 47886 O 1886.56 3.72827 4.97879 0
M  V30 47887 C 1885.37 4.45085 6.88694 0
M  V30 47888 O 1884.98 5.7877 6.5624 0
M  V30 47889 C 1884.49 3.47817 6.12078 0
M  V30 47890 C 1885.2 3.39414 4.77697 0
M  V30 47891 N 1885.15 2.04615 4.15333 0
M  V30 47892 H 1887.99 3.41248 7.98759 0
M  V30 47893 H 1888.26 2.5837 6.41742 0
M  V30 47894 H 1887.39 5.02657 6.42673 0
M  V30 47895 P 1883.43 6.144 6.45285 0
M  V30 47896 O 1883.21 7.54673 6.86199 0
M  V30 47897 O 1882.64 5.12391 7.179 0
M  V30 47898 O 1883.18 5.99158 4.88404 0
M  V30 47899 C 1884.12 6.60234 3.96415 0
M  V30 47900 C 1883.39 7.08259 2.72856 0
M  V30 47901 O 1883.18 5.9427 1.83651 0
M  V30 47902 C 1881.99 7.64886 2.9555 0
M  V30 47903 O 1881.6 8.53963 1.90717 0
M  V30 47904 C 1881.11 6.4116 2.90739 0
M  V30 47905 C 1881.82 5.55375 1.86963 0
M  V30 47906 N 1881.77 4.09664 2.15742 0
M  V30 47907 H 1884.61 7.45574 4.45629 0
M  V30 47908 H 1884.88 5.86232 3.67314 0
M  V30 47909 H 1884.01 7.84412 2.24479 0
M  V30 47910 P 1880.05 8.7635 1.60911 0
M  V30 47911 O 1879.83 10.1388 1.11561 0
M  V30 47912 O 1879.26 8.36503 2.79617 0
M  V30 47913 O 1879.8 7.71806 0.42951 0
M  V30 47914 C 1880.74 7.67148 -0.673689 0
M  V30 47915 C 1880.01 7.33374 -1.95559 0
M  V30 47916 O 1879.8 5.88721 -2.00726 0
M  V30 47917 C 1878.61 7.92526 -2.10483 0
M  V30 47918 O 1878.22 8.02971 -3.47653 0
M  V30 47919 C 1877.73 6.89602 -1.41652 0
M  V30 47920 C 1878.44 5.59201 -1.75185 0
M  V30 47921 N 1878.39 4.58235 -0.662552 0
M  V30 47922 H 1881.23 8.65116 -0.777161 0
M  V30 47923 H 1881.5 6.90173 -0.474152 0
M  V30 47924 H 1880.63 7.66548 -2.79458 0
M  V30 47925 P 1876.67 8.03563 -3.84925 0
M  V30 47926 O 1876.45 8.85821 -5.0569 0
M  V30 47927 O 1875.88 8.41101 -2.65469 0
M  V30 47928 O 1876.42 6.4965 -4.18908 0
M  V30 47929 C 1877.36 5.81037 -5.05421 0
M  V30 47930 C 1876.63 4.78366 -5.89277 0
M  V30 47931 O 1876.42 3.58302 -5.08433 0
M  V30 47932 C 1875.23 5.17448 -6.36119 0
M  V30 47933 O 1874.84 4.45271 -7.53232 0
M  V30 47934 C 1874.35 4.74639 -5.19936 0
M  V30 47935 C 1875.06 3.49432 -4.70418 0
M  V30 47936 N 1875.01 3.31776 -3.22945 0
M  V30 47937 H 1877.85 6.54213 -5.71376 0
M  V30 47938 H 1878.12 5.30492 -4.44033 0
M  V30 47939 H 1877.25 4.55889 -6.76652 0
M  V30 47940 P 1873.29 4.23843 -7.83734 0
M  V30 47941 O 1873.07 4.19407 -9.29784 0
M  V30 47942 O 1872.5 5.24426 -7.09156 0
M  V30 47943 O 1873.04 2.7935 -7.20758 0
M  V30 47944 C 1873.98 1.7299 -7.50419 0
M  V30 47945 C 1873.25 0.406376 -7.57911 0
M  V30 47946 O 1873.04 -0.0897726 -6.21935 0
M  V30 47947 C 1871.85 0.447224 -8.1878 0
M  V30 47948 O 1871.46 -0.825065 -8.71101 0
M  V30 47949 C 1870.97 0.783801 -6.99623 0
M  V30 47950 C 1871.68 0.0619192 -5.85967 0
M  V30 47951 N 1871.63 0.7859 -4.56281 0
M  V30 47952 H 1874.47 1.93423 -8.4679 0
M  V30 47953 H 1874.74 1.68181 -6.71046 0
M  V30 47954 H 1873.87 -0.289041 -8.15388 0
M  V30 47955 P 1869.91 -1.17771 -8.83182 0
M  V30 47956 O 1869.69 -2.07206 -9.98732 0
M  V30 47957 O 1869.12 0.0743816 -8.81969 0
M  V30 47958 O 1869.66 -1.97652 -7.47304 0
M  V30 47959 C 1870.6 -3.01133 -7.08783 0
M  V30 47960 C 1869.87 -4.12613 -6.37049 0
M  V30 47961 O 1869.66 -3.72827 -4.97879 0
M  V30 47962 C 1868.47 -4.45085 -6.88694 0
M  V30 47963 O 1868.08 -5.7877 -6.5624 0
M  V30 47964 C 1867.59 -3.47817 -6.12078 0
M  V30 47965 C 1868.3 -3.39414 -4.77697 0
M  V30 47966 N 1868.25 -2.04615 -4.15333 0
M  V30 47967 H 1871.09 -3.41248 -7.98759 0
M  V30 47968 H 1871.36 -2.5837 -6.41742 0
M  V30 47969 H 1870.49 -5.02657 -6.42673 0
M  V30 47970 P 1866.53 -6.144 -6.45285 0
M  V30 47971 O 1866.31 -7.54673 -6.86199 0
M  V30 47972 O 1865.74 -5.12391 -7.179 0
M  V30 47973 O 1866.28 -5.99158 -4.88404 0
M  V30 47974 C 1867.22 -6.60234 -3.96415 0
M  V30 47975 C 1866.49 -7.08259 -2.72856 0
M  V30 47976 O 1866.28 -5.9427 -1.83651 0
M  V30 47977 C 1865.09 -7.64886 -2.9555 0
M  V30 47978 O 1864.7 -8.53963 -1.90717 0
M  V30 47979 C 1864.21 -6.4116 -2.90739 0
M  V30 47980 C 1864.92 -5.55375 -1.86963 0
M  V30 47981 N 1864.87 -4.09664 -2.15742 0
M  V30 47982 H 1867.71 -7.45574 -4.45629 0
M  V30 47983 H 1867.98 -5.86232 -3.67314 0
M  V30 47984 H 1867.11 -7.84412 -2.24479 0
M  V30 47985 P 1863.15 -8.7635 -1.60911 0
M  V30 47986 O 1862.93 -10.1388 -1.11561 0
M  V30 47987 O 1862.36 -8.36503 -2.79617 0
M  V30 47988 O 1862.9 -7.71906 -0.429565 0
M  V30 47989 C 1863.84 -7.67148 0.673689 0
M  V30 47990 C 1863.11 -7.33666 1.94851 0
M  V30 47991 O 1862.9 -5.88816 2.00759 0
M  V30 47992 C 1861.71 -7.92526 2.10483 0
M  V30 47993 O 1861.32 -8.03063 3.47693 0
M  V30 47994 C 1860.83 -6.89602 1.41652 0
M  V30 47995 C 1861.54 -5.59201 1.75185 0
M  V30 47996 N 1861.49 -4.58235 0.662552 0
M  V30 47997 C 1861.34 -3.24451 1.01643 0
M  V30 47998 O 1861.25 -2.94958 2.21722 0
M  V30 47999 N 1861.29 -2.30408 -0.165238 0
M  V30 48000 C 1861.39 -2.66048 -1.25118 0
M  V30 48001 N 1861.34 -1.70787 -2.16813 0
M  V30 48002 C 1861.54 -4.02732 -1.64413 0
M  V30 48003 C 1861.59 -4.9488 -0.63991 0
M  V30 48004 H 1864.33 -8.65017 0.777072 0
M  V30 48005 H 1864.6 -6.90173 0.474152 0
M  V30 48006 H 1863.73 -7.66642 2.79492 0
M  V30 48007 H 1861.08 -5.16254 2.65229 0
M  V30 48008 H 1860.8 -7.06532 0.329431 0
M  V30 48009 H 1859.81 -6.91023 1.82047 0
M  V30 48010 H 1861.64 -8.90873 1.62657 0
M  V30 48011 H 1861.71 -6.00104 -0.892197 0
M  V30 48012 H 1861.61 -4.31733 -2.69229 0
M  V30 48013 H 1861.22 -0.724835 -1.8844 0
M  V30 48014 H 1861.42 -1.94716 -3.16734 0
M  V30 48015 P 1859.77 -8.03563 3.84925 0
M  V30 48016 O 1859.55 -8.85821 5.0569 0
M  V30 48017 O 1858.98 -8.41101 2.65469 0
M  V30 48018 O 1859.52 -6.4965 4.18908 0
M  V30 48019 C 1860.46 -5.81037 5.05421 0
M  V30 48020 C 1859.73 -4.78366 5.89277 0
M  V30 48021 O 1859.52 -3.58302 5.08433 0
M  V30 48022 C 1858.33 -5.17448 6.36119 0
M  V30 48023 O 1857.94 -4.45271 7.53232 0
M  V30 48024 C 1857.45 -4.74639 5.19936 0
M  V30 48025 C 1858.16 -3.49432 4.70418 0
M  V30 48026 N 1858.11 -3.32099 3.22613 0
M  V30 48027 H 1860.95 -6.54213 5.71376 0
M  V30 48028 H 1861.22 -5.30936 4.43503 0
M  V30 48029 H 1860.35 -4.55889 6.76652 0
M  V30 48030 H 1857.7 -2.61715 5.17932 0
M  V30 48031 H 1857.42 -5.52155 4.41878 0
M  V30 48032 H 1856.43 -4.51981 5.53374 0
M  V30 48033 H 1858.26 -6.25124 6.55234 0
M  V30 48034 P 1856.39 -4.23843 7.83734 0
M  V30 48035 O 1856.17 -4.19407 9.29784 0
M  V30 48036 O 1855.6 -5.24426 7.09156 0
M  V30 48037 O 1856.14 -2.7935 7.20758 0
M  V30 48038 C 1857.08 -1.7299 7.50419 0
M  V30 48039 C 1856.35 -0.406376 7.57911 0
M  V30 48040 O 1856.14 0.0897726 6.21935 0
M  V30 48041 C 1854.95 -0.447224 8.1878 0
M  V30 48042 O 1854.56 0.825065 8.71101 0
M  V30 48043 C 1854.07 -0.783801 6.99623 0
M  V30 48044 C 1854.78 -0.0619192 5.85967 0
M  V30 48045 N 1854.73 -0.7859 4.56281 0
M  V30 48046 H 1857.57 -1.93423 8.4679 0
M  V30 48047 H 1857.84 -1.68181 6.71046 0
M  V30 48048 H 1856.97 0.289041 8.15388 0
M  V30 48049 P 1853.01 1.17771 8.83182 0
M  V30 48050 O 1852.79 2.07206 9.98732 0
M  V30 48051 O 1852.22 -0.0743816 8.81969 0
M  V30 48052 O 1852.76 1.97652 7.47304 0
M  V30 48053 C 1853.7 3.01133 7.08783 0
M  V30 48054 C 1852.97 4.12613 6.37049 0
M  V30 48055 O 1852.76 3.72827 4.97879 0
M  V30 48056 C 1851.57 4.45085 6.88694 0
M  V30 48057 O 1851.18 5.7877 6.5624 0
M  V30 48058 C 1850.69 3.47817 6.12078 0
M  V30 48059 C 1851.4 3.39414 4.77697 0
M  V30 48060 N 1851.35 2.04615 4.15333 0
M  V30 48061 H 1854.19 3.41248 7.98759 0
M  V30 48062 H 1854.46 2.5837 6.41742 0
M  V30 48063 H 1853.59 5.02657 6.42673 0
M  V30 48064 P 1849.63 6.144 6.45285 0
M  V30 48065 O 1849.41 7.54673 6.86199 0
M  V30 48066 O 1848.84 5.12391 7.179 0
M  V30 48067 O 1849.38 5.99158 4.88404 0
M  V30 48068 C 1850.32 6.60234 3.96415 0
M  V30 48069 C 1849.59 7.08259 2.72856 0
M  V30 48070 O 1849.38 5.9427 1.83651 0
M  V30 48071 C 1848.19 7.64886 2.9555 0
M  V30 48072 O 1847.8 8.53963 1.90717 0
M  V30 48073 C 1847.31 6.4116 2.90739 0
M  V30 48074 C 1848.02 5.55375 1.86963 0
M  V30 48075 N 1847.97 4.09448 2.16152 0
M  V30 48076 H 1850.81 7.45574 4.45629 0
M  V30 48077 H 1851.08 5.85864 3.679 0
M  V30 48078 H 1850.21 7.84412 2.24479 0
M  V30 48079 H 1847.56 5.73457 0.888562 0
M  V30 48080 H 1847.28 5.90877 3.88583 0
M  V30 48081 H 1846.29 6.6596 2.58858 0
M  V30 48082 H 1848.12 8.16339 3.92049 0
M  V30 48083 P 1846.25 8.7635 1.60911 0
M  V30 48084 O 1846.03 10.1388 1.11561 0
M  V30 48085 O 1845.46 8.36503 2.79617 0
M  V30 48086 O 1846 7.71906 0.429565 0
M  V30 48087 C 1846.94 7.67148 -0.673689 0
M  V30 48088 C 1846.21 7.33666 -1.94851 0
M  V30 48089 O 1846 5.88816 -2.00759 0
M  V30 48090 C 1844.81 7.92526 -2.10483 0
M  V30 48091 O 1844.42 8.03063 -3.47693 0
M  V30 48092 C 1843.93 6.89602 -1.41652 0
M  V30 48093 C 1844.64 5.59201 -1.75185 0
M  V30 48094 N 1844.59 4.58235 -0.662552 0
M  V30 48095 C 1844.44 3.24451 -1.01643 0
M  V30 48096 O 1844.35 2.94958 -2.21722 0
M  V30 48097 N 1844.39 2.30408 0.165238 0
M  V30 48098 C 1844.49 2.66048 1.25118 0
M  V30 48099 N 1844.44 1.70787 2.16813 0
M  V30 48100 C 1844.64 4.02732 1.64413 0
M  V30 48101 C 1844.69 4.9488 0.63991 0
M  V30 48102 H 1847.43 8.65017 -0.777072 0
M  V30 48103 H 1847.7 6.90173 -0.474152 0
M  V30 48104 H 1846.83 7.66642 -2.79492 0
M  V30 48105 H 1844.18 5.16254 -2.65229 0
M  V30 48106 H 1843.9 7.06532 -0.329431 0
M  V30 48107 H 1842.91 6.91023 -1.82047 0
M  V30 48108 H 1844.74 8.90873 -1.62657 0
M  V30 48109 H 1844.81 6.00104 0.892197 0
M  V30 48110 H 1844.71 4.31733 2.69229 0
M  V30 48111 H 1844.32 0.724835 1.8844 0
M  V30 48112 H 1844.52 1.94716 3.16734 0
M  V30 48113 P 1842.87 8.03563 -3.84925 0
M  V30 48114 O 1842.65 8.85821 -5.0569 0
M  V30 48115 O 1842.08 8.41101 -2.65469 0
M  V30 48116 O 1842.62 6.4965 -4.18908 0
M  V30 48117 C 1843.56 5.81037 -5.05421 0
M  V30 48118 C 1842.83 4.78366 -5.89277 0
M  V30 48119 O 1842.62 3.58302 -5.08433 0
M  V30 48120 C 1841.43 5.17448 -6.36119 0
M  V30 48121 O 1841.04 4.45271 -7.53232 0
M  V30 48122 C 1840.55 4.74639 -5.19936 0
M  V30 48123 C 1841.26 3.49432 -4.70418 0
M  V30 48124 N 1841.21 3.32099 -3.22613 0
M  V30 48125 H 1844.05 6.54213 -5.71376 0
M  V30 48126 H 1844.32 5.30936 -4.43503 0
M  V30 48127 H 1843.45 4.55889 -6.76652 0
M  V30 48128 H 1840.8 2.61715 -5.17932 0
M  V30 48129 H 1840.52 5.52155 -4.41878 0
M  V30 48130 H 1839.53 4.51981 -5.53374 0
M  V30 48131 H 1841.36 6.25124 -6.55234 0
M  V30 48132 P 1839.49 4.23843 -7.83734 0
M  V30 48133 O 1839.27 4.19407 -9.29784 0
M  V30 48134 O 1838.7 5.24426 -7.09156 0
M  V30 48135 O 1839.24 2.7935 -7.20758 0
M  V30 48136 C 1840.18 1.7299 -7.50419 0
M  V30 48137 C 1839.45 0.406376 -7.57911 0
M  V30 48138 O 1839.24 -0.0897726 -6.21935 0
M  V30 48139 C 1838.05 0.447224 -8.1878 0
M  V30 48140 O 1837.66 -0.825065 -8.71101 0
M  V30 48141 C 1837.17 0.783801 -6.99623 0
M  V30 48142 C 1837.88 0.0619192 -5.85967 0
M  V30 48143 N 1837.83 0.7859 -4.56281 0
M  V30 48144 H 1840.67 1.93423 -8.4679 0
M  V30 48145 H 1840.94 1.68181 -6.71046 0
M  V30 48146 H 1840.07 -0.289041 -8.15388 0
M  V30 48147 P 1836.11 -1.17771 -8.83182 0
M  V30 48148 O 1835.89 -2.07206 -9.98732 0
M  V30 48149 O 1835.32 0.0743816 -8.81969 0
M  V30 48150 O 1835.86 -1.97652 -7.47304 0
M  V30 48151 C 1836.8 -3.01133 -7.08783 0
M  V30 48152 C 1836.07 -4.12613 -6.37049 0
M  V30 48153 O 1835.86 -3.72827 -4.97879 0
M  V30 48154 C 1834.67 -4.45085 -6.88694 0
M  V30 48155 O 1834.28 -5.7877 -6.5624 0
M  V30 48156 C 1833.79 -3.47817 -6.12078 0
M  V30 48157 C 1834.5 -3.39414 -4.77697 0
M  V30 48158 N 1834.45 -2.04199 -4.15538 0
M  V30 48159 H 1837.29 -3.41248 -7.98759 0
M  V30 48160 H 1837.56 -2.57728 -6.42 0
M  V30 48161 H 1836.69 -5.02657 -6.42673 0
M  V30 48162 H 1834.04 -4.11708 -4.08956 0
M  V30 48163 H 1833.76 -2.49626 -6.61679 0
M  V30 48164 H 1832.77 -3.8662 -6.00862 0
M  V30 48165 H 1834.6 -4.29991 -7.97006 0
M  V30 48166 P 1832.73 -6.144 -6.45285 0
M  V30 48167 O 1832.51 -7.54673 -6.86199 0
M  V30 48168 O 1831.94 -5.12391 -7.179 0
M  V30 48169 O 1832.48 -5.99158 -4.88404 0
M  V30 48170 C 1833.42 -6.60234 -3.96415 0
M  V30 48171 C 1832.69 -7.08259 -2.72856 0
M  V30 48172 O 1832.48 -5.9427 -1.83651 0
M  V30 48173 C 1831.29 -7.64886 -2.9555 0
M  V30 48174 O 1830.9 -8.53963 -1.90717 0
M  V30 48175 C 1830.41 -6.4116 -2.90739 0
M  V30 48176 C 1831.12 -5.55375 -1.86963 0
M  V30 48177 N 1831.07 -4.09664 -2.15742 0
M  V30 48178 H 1833.91 -7.45574 -4.45629 0
M  V30 48179 H 1834.18 -5.86232 -3.67314 0
M  V30 48180 H 1833.31 -7.84412 -2.24479 0
M  V30 48181 P 1829.35 -8.7635 -1.60911 0
M  V30 48182 O 1829.13 -10.1388 -1.11561 0
M  V30 48183 O 1828.56 -8.36503 -2.79617 0
M  V30 48184 O 1829.1 -7.71806 -0.42951 0
M  V30 48185 C 1830.04 -7.67148 0.673689 0
M  V30 48186 C 1829.31 -7.33374 1.95559 0
M  V30 48187 O 1829.1 -5.88721 2.00726 0
M  V30 48188 C 1827.91 -7.92526 2.10483 0
M  V30 48189 O 1827.52 -8.02971 3.47653 0
M  V30 48190 C 1827.03 -6.89602 1.41652 0
M  V30 48191 C 1827.74 -5.59201 1.75185 0
M  V30 48192 N 1827.69 -4.58301 0.657969 0
M  V30 48193 H 1830.53 -8.65116 0.777161 0
M  V30 48194 H 1830.8 -6.9022 0.46725 0
M  V30 48195 H 1829.93 -7.66548 2.79458 0
M  V30 48196 H 1827.28 -5.16165 2.65183 0
M  V30 48197 H 1827 -7.06433 0.329384 0
M  V30 48198 H 1826.01 -6.90926 1.82021 0
M  V30 48199 H 1827.84 -8.90873 1.62657 0
M  V30 48200 P 1825.97 -8.03563 3.84925 0
M  V30 48201 O 1825.75 -8.85821 5.0569 0
M  V30 48202 O 1825.18 -8.41101 2.65469 0
M  V30 48203 O 1825.72 -6.4965 4.18908 0
M  V30 48204 C 1826.66 -5.81037 5.05421 0
M  V30 48205 C 1825.93 -4.78366 5.89277 0
M  V30 48206 O 1825.72 -3.58302 5.08433 0
M  V30 48207 C 1824.53 -5.17448 6.36119 0
M  V30 48208 O 1824.14 -4.45271 7.53232 0
M  V30 48209 C 1823.65 -4.74639 5.19936 0
M  V30 48210 C 1824.36 -3.49432 4.70418 0
M  V30 48211 N 1824.31 -3.32099 3.22613 0
M  V30 48212 C 1824.39 -4.28245 2.25527 0
M  V30 48213 N 1824.32 -3.80823 1.04874 0
M  V30 48214 C 1824.17 -2.44571 1.23535 0
M  V30 48215 C 1824.04 -1.37068 0.330675 0
M  V30 48216 N 1824.03 -1.51472 -0.990824 0
M  V30 48217 N 1823.92 -0.138614 0.848756 0
M  V30 48218 C 1823.93 0.00675923 2.16999 0
M  V30 48219 N 1824.05 -0.904372 3.11122 0
M  V30 48220 C 1824.17 -2.12707 2.56212 0
M  V30 48221 H 1827.15 -6.54213 5.71376 0
M  V30 48222 H 1827.42 -5.30936 4.43503 0
M  V30 48223 H 1826.55 -4.55889 6.76652 0
M  V30 48224 H 1823.9 -2.61715 5.17932 0
M  V30 48225 H 1823.62 -5.52155 4.41878 0
M  V30 48226 H 1822.63 -4.51981 5.53374 0
M  V30 48227 H 1824.46 -6.25124 6.55234 0
M  V30 48228 H 1824.5 -5.34372 2.47488 0
M  V30 48229 H 1824.12 -2.45153 -1.4078 0
M  V30 48230 H 1823.93 -0.688422 -1.59911 0
M  V30 48231 H 1823.82 1.02584 2.52346 0
M  V30 48232 P 1822.59 -4.23843 7.83734 0
M  V30 48233 O 1822.37 -4.19407 9.29784 0
M  V30 48234 O 1821.8 -5.24426 7.09156 0
M  V30 48235 O 1822.34 -2.7935 7.20758 0
M  V30 48236 C 1823.28 -1.7299 7.50419 0
M  V30 48237 C 1822.55 -0.406376 7.57911 0
M  V30 48238 O 1822.34 0.0897726 6.21935 0
M  V30 48239 C 1821.15 -0.447224 8.1878 0
M  V30 48240 O 1820.76 0.825065 8.71101 0
M  V30 48241 C 1820.27 -0.783801 6.99623 0
M  V30 48242 C 1820.98 -0.0619192 5.85967 0
M  V30 48243 N 1820.93 -0.7859 4.56281 0
M  V30 48244 H 1823.77 -1.93423 8.4679 0
M  V30 48245 H 1824.04 -1.68181 6.71046 0
M  V30 48246 H 1823.17 0.289041 8.15388 0
M  V30 48247 P 1819.21 1.17771 8.83182 0
M  V30 48248 O 1818.99 2.07206 9.98732 0
M  V30 48249 O 1818.42 -0.0743816 8.81969 0
M  V30 48250 O 1818.96 1.97652 7.47304 0
M  V30 48251 C 1819.9 3.01133 7.08783 0
M  V30 48252 C 1819.17 4.12613 6.37049 0
M  V30 48253 O 1818.96 3.72827 4.97879 0
M  V30 48254 C 1817.77 4.45085 6.88694 0
M  V30 48255 O 1817.38 5.7877 6.5624 0
M  V30 48256 C 1816.89 3.47817 6.12078 0
M  V30 48257 C 1817.6 3.39414 4.77697 0
M  V30 48258 N 1817.55 2.04615 4.15333 0
M  V30 48259 H 1820.39 3.41248 7.98759 0
M  V30 48260 H 1820.66 2.5837 6.41742 0
M  V30 48261 H 1819.79 5.02657 6.42673 0
M  V30 48262 P 1815.83 6.144 6.45285 0
M  V30 48263 O 1815.61 7.54673 6.86199 0
M  V30 48264 O 1815.04 5.12391 7.179 0
M  V30 48265 O 1815.58 5.99158 4.88404 0
M  V30 48266 C 1816.52 6.60234 3.96415 0
M  V30 48267 C 1815.79 7.08259 2.72856 0
M  V30 48268 O 1815.58 5.9427 1.83651 0
M  V30 48269 C 1814.39 7.64886 2.9555 0
M  V30 48270 O 1814 8.53963 1.90717 0
M  V30 48271 C 1813.51 6.4116 2.90739 0
M  V30 48272 C 1814.22 5.55375 1.86963 0
M  V30 48273 N 1814.17 4.09664 2.15742 0
M  V30 48274 H 1817.01 7.45574 4.45629 0
M  V30 48275 H 1817.28 5.86232 3.67314 0
M  V30 48276 H 1816.41 7.84412 2.24479 0
M  V30 48277 P 1812.45 8.7635 1.60911 0
M  V30 48278 O 1812.23 10.1388 1.11561 0
M  V30 48279 O 1811.66 8.36503 2.79617 0
M  V30 48280 O 1812.2 7.71806 0.42951 0
M  V30 48281 C 1813.14 7.67148 -0.673689 0
M  V30 48282 C 1812.41 7.33374 -1.95559 0
M  V30 48283 O 1812.2 5.88721 -2.00726 0
M  V30 48284 C 1811.01 7.92526 -2.10483 0
M  V30 48285 O 1810.62 8.02971 -3.47653 0
M  V30 48286 C 1810.13 6.89602 -1.41652 0
M  V30 48287 C 1810.84 5.59201 -1.75185 0
M  V30 48288 N 1810.79 4.58235 -0.662552 0
M  V30 48289 H 1813.63 8.65116 -0.777161 0
M  V30 48290 H 1813.9 6.90173 -0.474152 0
M  V30 48291 H 1813.03 7.66548 -2.79458 0
M  V30 48292 P 1809.07 8.03563 -3.84925 0
M  V30 48293 O 1808.85 8.85821 -5.0569 0
M  V30 48294 O 1808.28 8.41101 -2.65469 0
M  V30 48295 O 1808.82 6.4965 -4.18908 0
M  V30 48296 C 1809.76 5.81037 -5.05421 0
M  V30 48297 C 1809.03 4.78366 -5.89277 0
M  V30 48298 O 1808.82 3.58302 -5.08433 0
M  V30 48299 C 1807.63 5.17448 -6.36119 0
M  V30 48300 O 1807.24 4.45271 -7.53232 0
M  V30 48301 C 1806.75 4.74639 -5.19936 0
M  V30 48302 C 1807.46 3.49432 -4.70418 0
M  V30 48303 N 1807.41 3.32099 -3.22613 0
M  V30 48304 H 1810.25 6.54213 -5.71376 0
M  V30 48305 H 1810.52 5.30936 -4.43503 0
M  V30 48306 H 1809.65 4.55889 -6.76652 0
M  V30 48307 H 1807 2.61715 -5.17932 0
M  V30 48308 H 1806.72 5.52155 -4.41878 0
M  V30 48309 H 1805.73 4.51981 -5.53374 0
M  V30 48310 H 1807.56 6.25124 -6.55234 0
M  V30 48311 P 1805.69 4.23843 -7.83734 0
M  V30 48312 O 1805.47 4.19407 -9.29784 0
M  V30 48313 O 1804.9 5.24426 -7.09156 0
M  V30 48314 O 1805.44 2.79386 -7.20852 0
M  V30 48315 C 1806.38 1.7299 -7.50419 0
M  V30 48316 C 1805.65 0.41401 -7.5797 0
M  V30 48317 O 1805.44 -0.089787 -6.22035 0
M  V30 48318 C 1804.25 0.447224 -8.1878 0
M  V30 48319 O 1803.86 -0.825159 -8.71201 0
M  V30 48320 C 1803.37 0.783801 -6.99623 0
M  V30 48321 C 1804.08 0.0619192 -5.85967 0
M  V30 48322 N 1804.03 0.7859 -4.56281 0
M  V30 48323 C 1803.88 0.0359258 -3.39981 0
M  V30 48324 O 1803.79 -1.19723 -3.49038 0
M  V30 48325 N 1803.83 0.869151 -2.14025 0
M  V30 48326 C 1803.93 2.01207 -2.14363 0
M  V30 48327 N 1803.88 2.58978 -0.954287 0
M  V30 48328 C 1804.08 2.80817 -3.32215 0
M  V30 48329 C 1804.13 2.13785 -4.50884 0
M  V30 48330 H 1806.87 1.93401 -8.46693 0
M  V30 48331 H 1807.14 1.68181 -6.71046 0
M  V30 48332 H 1806.27 -0.289076 -8.15488 0
M  V30 48333 H 1803.62 -0.927166 -5.72947 0
M  V30 48334 H 1803.34 1.87 -6.82132 0
M  V30 48335 H 1802.35 0.404009 -7.13457 0
M  V30 48336 H 1804.18 1.20599 -8.97534 0
M  V30 48337 H 1804.25 2.70295 -5.43162 0
M  V30 48338 H 1804.15 3.89465 -3.27406 0
M  V30 48339 H 1803.76 2.01616 -0.107046 0
M  V30 48340 H 1803.96 3.61403 -0.873101 0
M  V30 48341 P 1802.31 -1.17771 -8.83182 0
M  V30 48342 O 1802.09 -2.07206 -9.98732 0
M  V30 48343 O 1801.52 0.0743816 -8.81969 0
M  V30 48344 O 1802.06 -1.97652 -7.47304 0
M  V30 48345 C 1803 -3.01133 -7.08783 0
M  V30 48346 C 1802.27 -4.12613 -6.37049 0
M  V30 48347 O 1802.06 -3.72827 -4.97879 0
M  V30 48348 C 1800.87 -4.45085 -6.88694 0
M  V30 48349 O 1800.48 -5.7877 -6.5624 0
M  V30 48350 C 1799.99 -3.47817 -6.12078 0
M  V30 48351 C 1800.7 -3.39414 -4.77697 0
M  V30 48352 N 1800.65 -2.04615 -4.15333 0
M  V30 48353 C 1800.73 -0.803897 -4.75249 0
M  V30 48354 N 1800.65 0.197615 -3.91502 0
M  V30 48355 C 1800.51 -0.413002 -2.66823 0
M  V30 48356 C 1800.38 0.157221 -1.38007 0
M  V30 48357 N 1800.26 -0.833136 -0.390236 0
M  V30 48358 C 1800.26 -2.19402 -0.623885 0
M  V30 48359 N 1800.13 -2.97622 0.449677 0
M  V30 48360 N 1800.39 -2.73005 -1.83601 0
M  V30 48361 C 1800.51 -1.78786 -2.80935 0
M  V30 48362 H 1803.49 -3.41248 -7.98759 0
M  V30 48363 H 1803.76 -2.5837 -6.41742 0
M  V30 48364 H 1802.89 -5.02657 -6.42673 0
M  V30 48365 P 1798.93 -6.144 -6.45285 0
M  V30 48366 O 1798.71 -7.54673 -6.86199 0
M  V30 48367 O 1798.14 -5.12391 -7.179 0
M  V30 48368 O 1798.68 -5.99158 -4.88404 0
M  V30 48369 C 1799.62 -6.60062 -3.96313 0
M  V30 48370 C 1798.89 -7.08259 -2.72856 0
M  V30 48371 O 1798.68 -5.9427 -1.83651 0
M  V30 48372 C 1797.49 -7.65087 -2.94749 0
M  V30 48373 O 1797.1 -8.53963 -1.90717 0
M  V30 48374 C 1796.61 -6.41069 -2.90698 0
M  V30 48375 C 1797.32 -5.5528 -1.86931 0
M  V30 48376 N 1797.27 -4.09575 -2.15696 0
M  V30 48377 C 1797.12 -3.24249 -1.08435 0
M  V30 48378 O 1797.03 -3.63946 0.0628747 0
M  V30 48379 N 1797.08 -1.90009 -1.39973 0
M  V30 48380 C 1797.17 -1.34884 -2.65614 0
M  V30 48381 C 1797.32 -2.3145 -3.71736 0
M  V30 48382 C 1797.37 -3.63518 -3.44754 0
M  V30 48383 H 1800.11 -7.45402 -4.45526 0
M  V30 48384 H 1800.38 -5.86062 -3.67208 0
M  V30 48385 H 1799.51 -7.84412 -2.24479 0
M  V30 48386 H 1796.86 -5.73358 -0.888409 0
M  V30 48387 H 1796.58 -5.90877 -3.88583 0
M  V30 48388 H 1795.59 -6.65867 -2.58821 0
M  V30 48389 H 1797.42 -8.16248 -3.92006 0
M  V30 48390 H 1797.49 -4.34551 -4.26383 0
M  V30 48391 P 1795.55 -8.7635 -1.60911 0
M  V30 48392 O 1795.33 -10.1388 -1.11561 0
M  V30 48393 O 1794.76 -8.36503 -2.79617 0
M  V30 48394 O 1795.3 -7.71806 -0.42951 0
M  V30 48395 C 1796.24 -7.67148 0.673689 0
M  V30 48396 C 1795.51 -7.33374 1.95559 0
M  V30 48397 O 1795.3 -5.88721 2.00726 0
M  V30 48398 C 1794.11 -7.92526 2.10483 0
M  V30 48399 O 1793.72 -8.02971 3.47653 0
M  V30 48400 C 1793.23 -6.89602 1.41652 0
M  V30 48401 C 1793.94 -5.59201 1.75185 0
M  V30 48402 N 1793.89 -4.58235 0.662552 0
M  V30 48403 H 1796.73 -8.65116 0.777161 0
M  V30 48404 H 1797 -6.90173 0.474152 0
M  V30 48405 H 1796.13 -7.66548 2.79458 0
M  V30 48406 P 1792.17 -8.03563 3.84925 0
M  V30 48407 O 1791.95 -8.85821 5.0569 0
M  V30 48408 O 1791.38 -8.41101 2.65469 0
M  V30 48409 O 1791.92 -6.4965 4.18908 0
M  V30 48410 C 1792.86 -5.81037 5.05421 0
M  V30 48411 C 1792.13 -4.78366 5.89277 0
M  V30 48412 O 1791.92 -3.58302 5.08433 0
M  V30 48413 C 1790.73 -5.17448 6.36119 0
M  V30 48414 O 1790.34 -4.45271 7.53232 0
M  V30 48415 C 1789.85 -4.74639 5.19936 0
M  V30 48416 C 1790.56 -3.49432 4.70418 0
M  V30 48417 N 1790.51 -3.32099 3.22613 0
M  V30 48418 C 1790.59 -4.28245 2.25527 0
M  V30 48419 N 1790.52 -3.80823 1.04874 0
M  V30 48420 C 1790.37 -2.44571 1.23535 0
M  V30 48421 C 1790.24 -1.37068 0.330675 0
M  V30 48422 N 1790.23 -1.51472 -0.990824 0
M  V30 48423 N 1790.12 -0.138614 0.848756 0
M  V30 48424 C 1790.13 0.00675923 2.16999 0
M  V30 48425 N 1790.25 -0.904372 3.11122 0
M  V30 48426 C 1790.37 -2.12707 2.56212 0
M  V30 48427 H 1793.35 -6.54213 5.71376 0
M  V30 48428 H 1793.62 -5.30936 4.43503 0
M  V30 48429 H 1792.75 -4.55889 6.76652 0
M  V30 48430 H 1790.1 -2.61715 5.17932 0
M  V30 48431 H 1789.82 -5.52155 4.41878 0
M  V30 48432 H 1788.83 -4.51981 5.53374 0
M  V30 48433 H 1790.66 -6.25124 6.55234 0
M  V30 48434 H 1790.7 -5.34372 2.47488 0
M  V30 48435 H 1790.32 -2.45153 -1.4078 0
M  V30 48436 H 1790.13 -0.688422 -1.59911 0
M  V30 48437 H 1790.02 1.02584 2.52346 0
M  V30 48438 P 1788.79 -4.23843 7.83734 0
M  V30 48439 O 1788.57 -4.19407 9.29784 0
M  V30 48440 O 1788 -5.24426 7.09156 0
M  V30 48441 O 1788.54 -2.7935 7.20758 0
M  V30 48442 C 1789.48 -1.7299 7.50419 0
M  V30 48443 C 1788.75 -0.406376 7.57911 0
M  V30 48444 O 1788.54 0.0897726 6.21935 0
M  V30 48445 C 1787.35 -0.447224 8.1878 0
M  V30 48446 O 1786.96 0.825065 8.71101 0
M  V30 48447 C 1786.47 -0.783801 6.99623 0
M  V30 48448 C 1787.18 -0.0619192 5.85967 0
M  V30 48449 N 1787.13 -0.790462 4.56202 0
M  V30 48450 H 1789.97 -1.93423 8.4679 0
M  V30 48451 H 1790.24 -1.68852 6.70877 0
M  V30 48452 H 1789.37 0.289041 8.15388 0
M  V30 48453 H 1786.72 0.927006 5.72848 0
M  V30 48454 H 1786.44 -1.86973 6.82036 0
M  V30 48455 H 1785.45 -0.403953 7.13357 0
M  V30 48456 H 1787.28 -1.20599 8.97534 0
M  V30 48457 P 1785.41 1.17771 8.83182 0
M  V30 48458 O 1785.19 2.07206 9.98732 0
M  V30 48459 O 1784.62 -0.0743816 8.81969 0
M  V30 48460 O 1785.16 1.97652 7.47304 0
M  V30 48461 C 1786.1 3.01133 7.08783 0
M  V30 48462 C 1785.37 4.12613 6.37049 0
M  V30 48463 O 1785.16 3.72827 4.97879 0
M  V30 48464 C 1783.97 4.45085 6.88694 0
M  V30 48465 O 1783.58 5.7877 6.5624 0
M  V30 48466 C 1783.09 3.47817 6.12078 0
M  V30 48467 C 1783.8 3.39414 4.77697 0
M  V30 48468 N 1783.75 2.04615 4.15333 0
M  V30 48469 H 1786.59 3.41248 7.98759 0
M  V30 48470 H 1786.86 2.5837 6.41742 0
M  V30 48471 H 1785.99 5.02657 6.42673 0
M  V30 48472 P 1782.03 6.144 6.45285 0
M  V30 48473 O 1781.81 7.54673 6.86199 0
M  V30 48474 O 1781.24 5.12391 7.179 0
M  V30 48475 O 1781.78 5.99158 4.88404 0
M  V30 48476 C 1782.72 6.60234 3.96415 0
M  V30 48477 C 1781.99 7.08259 2.72856 0
M  V30 48478 O 1781.78 5.9427 1.83651 0
M  V30 48479 C 1780.59 7.64886 2.9555 0
M  V30 48480 O 1780.2 8.53963 1.90717 0
M  V30 48481 C 1779.71 6.4116 2.90739 0
M  V30 48482 C 1780.42 5.55375 1.86963 0
M  V30 48483 N 1780.37 4.09448 2.16152 0
M  V30 48484 H 1783.21 7.45574 4.45629 0
M  V30 48485 H 1783.48 5.85864 3.679 0
M  V30 48486 H 1782.61 7.84412 2.24479 0
M  V30 48487 H 1779.96 5.73457 0.888562 0
M  V30 48488 H 1779.68 5.90877 3.88583 0
M  V30 48489 H 1778.69 6.6596 2.58858 0
M  V30 48490 H 1780.52 8.16339 3.92049 0
M  V30 48491 P 1778.65 8.7635 1.60911 0
M  V30 48492 O 1778.43 10.1388 1.11561 0
M  V30 48493 O 1777.86 8.36503 2.79617 0
M  V30 48494 O 1778.4 7.71806 0.42951 0
M  V30 48495 C 1779.34 7.67148 -0.673689 0
M  V30 48496 C 1778.61 7.33374 -1.95559 0
M  V30 48497 O 1778.4 5.88721 -2.00726 0
M  V30 48498 C 1777.21 7.92526 -2.10483 0
M  V30 48499 O 1776.82 8.02971 -3.47653 0
M  V30 48500 C 1776.33 6.89602 -1.41652 0
M  V30 48501 C 1777.04 5.59201 -1.75185 0
M  V30 48502 N 1776.99 4.58301 -0.657969 0
M  V30 48503 H 1779.83 8.65116 -0.777161 0
M  V30 48504 H 1780.1 6.9022 -0.46725 0
M  V30 48505 H 1779.23 7.66548 -2.79458 0
M  V30 48506 H 1776.58 5.16165 -2.65183 0
M  V30 48507 H 1776.3 7.06433 -0.329384 0
M  V30 48508 H 1775.31 6.90926 -1.82021 0
M  V30 48509 H 1777.14 8.90873 -1.62657 0
M  V30 48510 P 1775.27 8.03563 -3.84925 0
M  V30 48511 O 1775.05 8.85821 -5.0569 0
M  V30 48512 O 1774.48 8.41101 -2.65469 0
M  V30 48513 O 1775.02 6.4965 -4.18908 0
M  V30 48514 C 1775.96 5.81037 -5.05421 0
M  V30 48515 C 1775.23 4.78366 -5.89277 0
M  V30 48516 O 1775.02 3.58302 -5.08433 0
M  V30 48517 C 1773.83 5.17448 -6.36119 0
M  V30 48518 O 1773.44 4.45271 -7.53232 0
M  V30 48519 C 1772.95 4.74639 -5.19936 0
M  V30 48520 C 1773.66 3.49432 -4.70418 0
M  V30 48521 N 1773.61 3.31776 -3.22945 0
M  V30 48522 H 1776.45 6.54213 -5.71376 0
M  V30 48523 H 1776.72 5.30492 -4.44033 0
M  V30 48524 H 1775.85 4.55889 -6.76652 0
M  V30 48525 P 1771.89 4.23843 -7.83734 0
M  V30 48526 O 1771.67 4.19407 -9.29784 0
M  V30 48527 O 1771.1 5.24426 -7.09156 0
M  V30 48528 O 1771.64 2.7935 -7.20758 0
M  V30 48529 C 1772.58 1.7299 -7.50419 0
M  V30 48530 C 1771.85 0.406376 -7.57911 0
M  V30 48531 O 1771.64 -0.0897726 -6.21935 0
M  V30 48532 C 1770.45 0.447224 -8.1878 0
M  V30 48533 O 1770.06 -0.825065 -8.71101 0
M  V30 48534 C 1769.57 0.783801 -6.99623 0
M  V30 48535 C 1770.28 0.0619192 -5.85967 0
M  V30 48536 N 1770.23 0.790462 -4.56202 0
M  V30 48537 H 1773.07 1.93423 -8.4679 0
M  V30 48538 H 1773.34 1.68852 -6.70877 0
M  V30 48539 H 1772.47 -0.289041 -8.15388 0
M  V30 48540 H 1769.82 -0.927006 -5.72848 0
M  V30 48541 H 1769.54 1.86973 -6.82036 0
M  V30 48542 H 1768.55 0.403953 -7.13357 0
M  V30 48543 H 1770.38 1.20599 -8.97534 0
M  V30 48544 P 1768.51 -1.17771 -8.83182 0
M  V30 48545 O 1768.29 -2.07206 -9.98732 0
M  V30 48546 O 1767.72 0.0743816 -8.81969 0
M  V30 48547 O 1768.26 -1.97652 -7.47304 0
M  V30 48548 C 1769.2 -3.01133 -7.08783 0
M  V30 48549 C 1768.47 -4.12613 -6.37049 0
M  V30 48550 O 1768.26 -3.72827 -4.97879 0
M  V30 48551 C 1767.07 -4.45085 -6.88694 0
M  V30 48552 O 1766.68 -5.7877 -6.5624 0
M  V30 48553 C 1766.19 -3.47817 -6.12078 0
M  V30 48554 C 1766.9 -3.39414 -4.77697 0
M  V30 48555 N 1766.85 -2.04615 -4.15333 0
M  V30 48556 H 1769.69 -3.41248 -7.98759 0
M  V30 48557 H 1769.96 -2.5837 -6.41742 0
M  V30 48558 H 1769.09 -5.02657 -6.42673 0
M  V30 48559 P 1765.13 -6.144 -6.45285 0
M  V30 48560 O 1764.91 -7.54673 -6.86199 0
M  V30 48561 O 1764.34 -5.12391 -7.179 0
M  V30 48562 O 1764.88 -5.99158 -4.88404 0
M  V30 48563 C 1765.82 -6.60234 -3.96415 0
M  V30 48564 C 1765.09 -7.08259 -2.72856 0
M  V30 48565 O 1764.88 -5.9427 -1.83651 0
M  V30 48566 C 1763.69 -7.64886 -2.9555 0
M  V30 48567 O 1763.3 -8.53963 -1.90717 0
M  V30 48568 C 1762.81 -6.4116 -2.90739 0
M  V30 48569 C 1763.52 -5.55375 -1.86963 0
M  V30 48570 N 1763.47 -4.09664 -2.15742 0
M  V30 48571 C 1763.55 -3.44381 -3.37233 0
M  V30 48572 N 1763.47 -2.14131 -3.28347 0
M  V30 48573 C 1763.33 -1.90247 -1.91588 0
M  V30 48574 C 1763.2 -0.683992 -1.20892 0
M  V30 48575 N 1763.08 -0.903396 0.173998 0
M  V30 48576 C 1763.08 -2.14171 0.784879 0
M  V30 48577 N 1762.95 -2.1435 2.11317 0
M  V30 48578 N 1763.21 -3.28784 0.119316 0
M  V30 48579 C 1763.33 -3.0977 -1.22194 0
M  V30 48580 H 1766.31 -7.45574 -4.45629 0
M  V30 48581 H 1766.58 -5.86232 -3.67314 0
M  V30 48582 H 1765.71 -7.84412 -2.24479 0
M  V30 48583 P 1761.75 -8.7635 -1.60911 0
M  V30 48584 O 1761.53 -10.1388 -1.11561 0
M  V30 48585 O 1760.96 -8.36503 -2.79617 0
M  V30 48586 O 1761.5 -7.71806 -0.42951 0
M  V30 48587 C 1762.44 -7.67148 0.673689 0
M  V30 48588 C 1761.71 -7.33374 1.95559 0
M  V30 48589 O 1761.5 -5.88721 2.00726 0
M  V30 48590 C 1760.31 -7.92526 2.10483 0
M  V30 48591 O 1759.92 -8.02971 3.47653 0
M  V30 48592 C 1759.43 -6.89602 1.41652 0
M  V30 48593 C 1760.14 -5.59201 1.75185 0
M  V30 48594 N 1760.09 -4.58235 0.662552 0
M  V30 48595 H 1762.93 -8.65116 0.777161 0
M  V30 48596 H 1763.2 -6.90173 0.474152 0
M  V30 48597 H 1762.33 -7.66548 2.79458 0
M  V30 48598 P 1758.37 -8.03563 3.84925 0
M  V30 48599 O 1758.15 -8.85821 5.0569 0
M  V30 48600 O 1757.58 -8.41101 2.65469 0
M  V30 48601 O 1758.12 -6.4965 4.18908 0
M  V30 48602 C 1759.06 -5.81037 5.05421 0
M  V30 48603 C 1758.33 -4.78366 5.89277 0
M  V30 48604 O 1758.12 -3.58302 5.08433 0
M  V30 48605 C 1756.93 -5.17448 6.36119 0
M  V30 48606 O 1756.54 -4.45271 7.53232 0
M  V30 48607 C 1756.05 -4.74639 5.19936 0
M  V30 48608 C 1756.76 -3.49432 4.70418 0
M  V30 48609 N 1756.71 -3.32099 3.22613 0
M  V30 48610 H 1759.55 -6.54213 5.71376 0
M  V30 48611 H 1759.82 -5.30936 4.43503 0
M  V30 48612 H 1758.95 -4.55889 6.76652 0
M  V30 48613 H 1756.3 -2.61715 5.17932 0
M  V30 48614 H 1756.02 -5.52155 4.41878 0
M  V30 48615 H 1755.03 -4.51981 5.53374 0
M  V30 48616 H 1756.86 -6.25124 6.55234 0
M  V30 48617 P 1754.99 -4.23843 7.83734 0
M  V30 48618 O 1754.77 -4.19407 9.29784 0
M  V30 48619 O 1754.2 -5.24426 7.09156 0
M  V30 48620 O 1754.74 -2.7935 7.20758 0
M  V30 48621 C 1755.68 -1.7299 7.50419 0
M  V30 48622 C 1754.95 -0.406376 7.57911 0
M  V30 48623 O 1754.74 0.0897726 6.21935 0
M  V30 48624 C 1753.55 -0.447224 8.1878 0
M  V30 48625 O 1753.16 0.825065 8.71101 0
M  V30 48626 C 1752.67 -0.783801 6.99623 0
M  V30 48627 C 1753.38 -0.0619192 5.85967 0
M  V30 48628 N 1753.33 -0.790462 4.56202 0
M  V30 48629 H 1756.17 -1.93423 8.4679 0
M  V30 48630 H 1756.44 -1.68852 6.70877 0
M  V30 48631 H 1755.57 0.289041 8.15388 0
M  V30 48632 H 1752.92 0.927006 5.72848 0
M  V30 48633 H 1752.64 -1.86973 6.82036 0
M  V30 48634 H 1751.65 -0.403953 7.13357 0
M  V30 48635 H 1753.48 -1.20599 8.97534 0
M  V30 48636 P 1751.61 1.17771 8.83182 0
M  V30 48637 O 1751.39 2.07206 9.98732 0
M  V30 48638 O 1750.82 -0.0743816 8.81969 0
M  V30 48639 O 1751.36 1.97652 7.47304 0
M  V30 48640 C 1752.3 3.01133 7.08783 0
M  V30 48641 C 1751.57 4.12613 6.37049 0
M  V30 48642 O 1751.36 3.72827 4.97879 0
M  V30 48643 C 1750.17 4.45085 6.88694 0
M  V30 48644 O 1749.78 5.7877 6.5624 0
M  V30 48645 C 1749.29 3.47817 6.12078 0
M  V30 48646 C 1750 3.39414 4.77697 0
M  V30 48647 N 1749.95 2.04615 4.15333 0
M  V30 48648 C 1750.03 0.803897 4.75249 0
M  V30 48649 N 1749.95 -0.197615 3.91502 0
M  V30 48650 C 1749.81 0.413002 2.66823 0
M  V30 48651 C 1749.68 -0.157221 1.38007 0
M  V30 48652 N 1749.56 0.833136 0.390236 0
M  V30 48653 C 1749.56 2.19402 0.623885 0
M  V30 48654 N 1749.43 2.97622 -0.449677 0
M  V30 48655 N 1749.69 2.73005 1.83601 0
M  V30 48656 C 1749.81 1.78786 2.80935 0
M  V30 48657 H 1752.79 3.41248 7.98759 0
M  V30 48658 H 1753.06 2.5837 6.41742 0
M  V30 48659 H 1752.19 5.02657 6.42673 0
M  V30 48660 P 1748.23 6.144 6.45285 0
M  V30 48661 O 1748.01 7.54673 6.86199 0
M  V30 48662 O 1747.44 5.12391 7.179 0
M  V30 48663 O 1747.98 5.99158 4.88404 0
M  V30 48664 C 1748.92 6.60234 3.96415 0
M  V30 48665 C 1748.19 7.08259 2.72856 0
M  V30 48666 O 1747.98 5.9427 1.83651 0
M  V30 48667 C 1746.79 7.64886 2.9555 0
M  V30 48668 O 1746.4 8.53963 1.90717 0
M  V30 48669 C 1745.91 6.4116 2.90739 0
M  V30 48670 C 1746.62 5.55375 1.86963 0
M  V30 48671 N 1746.57 4.09664 2.15742 0
M  V30 48672 H 1749.41 7.45574 4.45629 0
M  V30 48673 H 1749.68 5.86232 3.67314 0
M  V30 48674 H 1748.81 7.84412 2.24479 0
M  V30 48675 P 1744.85 8.7635 1.60911 0
M  V30 48676 O 1744.63 10.1388 1.11561 0
M  V30 48677 O 1744.06 8.36503 2.79617 0
M  V30 48678 O 1744.6 7.71806 0.42951 0
M  V30 48679 C 1745.54 7.67148 -0.673689 0
M  V30 48680 C 1744.81 7.33374 -1.95559 0
M  V30 48681 O 1744.6 5.88721 -2.00726 0
M  V30 48682 C 1743.41 7.92526 -2.10483 0
M  V30 48683 O 1743.02 8.02971 -3.47653 0
M  V30 48684 C 1742.53 6.89602 -1.41652 0
M  V30 48685 C 1743.24 5.59201 -1.75185 0
M  V30 48686 N 1743.19 4.58235 -0.662552 0
M  V30 48687 H 1746.03 8.65116 -0.777161 0
M  V30 48688 H 1746.3 6.90173 -0.474152 0
M  V30 48689 H 1745.43 7.66548 -2.79458 0
M  V30 48690 P 1741.47 8.03563 -3.84925 0
M  V30 48691 O 1741.25 8.85821 -5.0569 0
M  V30 48692 O 1740.68 8.41101 -2.65469 0
M  V30 48693 O 1741.22 6.49734 -4.18962 0
M  V30 48694 C 1742.16 5.81037 -5.05421 0
M  V30 48695 C 1741.43 4.79018 -5.88876 0
M  V30 48696 O 1741.22 3.58359 -5.08515 0
M  V30 48697 C 1740.03 5.17448 -6.36119 0
M  V30 48698 O 1739.64 4.45322 -7.53318 0
M  V30 48699 C 1739.15 4.74639 -5.19936 0
M  V30 48700 C 1739.86 3.49432 -4.70418 0
M  V30 48701 N 1739.81 3.31776 -3.22945 0
M  V30 48702 C 1739.66 2.02742 -2.72939 0
M  V30 48703 O 1739.57 1.08301 -3.52749 0
M  V30 48704 N 1739.61 1.96117 -1.22063 0
M  V30 48705 C 1739.71 2.8878 -0.551566 0
M  V30 48706 N 1739.66 2.65609 0.750198 0
M  V30 48707 C 1739.86 4.22457 -1.03707 0
M  V30 48708 C 1739.91 4.37979 -2.39113 0
M  V30 48709 H 1742.65 6.54138 -5.7131 0
M  V30 48710 H 1742.92 5.30492 -4.44033 0
M  V30 48711 H 1742.05 4.55945 -6.76735 0
M  V30 48712 H 1739.4 2.6176 -5.18021 0
M  V30 48713 H 1739.12 5.52233 -4.41941 0
M  V30 48714 H 1738.13 4.52045 -5.53452 0
M  V30 48715 H 1739.96 6.25124 -6.55234 0
M  V30 48716 H 1740.03 5.37936 -2.80552 0
M  V30 48717 H 1739.93 5.07528 -0.359553 0
M  V30 48718 H 1739.54 1.69403 1.09847 0
M  V30 48719 H 1739.74 3.43701 1.41792 0
M  V30 48720 P 1738.09 4.23843 -7.83734 0
M  V30 48721 O 1737.87 4.19407 -9.29784 0
M  V30 48722 O 1737.3 5.24426 -7.09156 0
M  V30 48723 O 1737.84 2.7935 -7.20758 0
M  V30 48724 C 1738.78 1.7299 -7.50419 0
M  V30 48725 C 1738.05 0.406376 -7.57911 0
M  V30 48726 O 1737.84 -0.0897726 -6.21935 0
M  V30 48727 C 1736.65 0.447224 -8.1878 0
M  V30 48728 O 1736.26 -0.825065 -8.71101 0
M  V30 48729 C 1735.77 0.783801 -6.99623 0
M  V30 48730 C 1736.48 0.0619192 -5.85967 0
M  V30 48731 N 1736.43 0.7859 -4.56281 0
M  V30 48732 H 1739.27 1.93423 -8.4679 0
M  V30 48733 H 1739.54 1.68181 -6.71046 0
M  V30 48734 H 1738.67 -0.289041 -8.15388 0
M  V30 48735 P 1734.71 -1.17771 -8.83182 0
M  V30 48736 O 1734.49 -2.07206 -9.98732 0
M  V30 48737 O 1733.92 0.0743816 -8.81969 0
M  V30 48738 O 1734.46 -1.97652 -7.47304 0
M  V30 48739 C 1735.4 -3.01133 -7.08783 0
M  V30 48740 C 1734.67 -4.12613 -6.37049 0
M  V30 48741 O 1734.46 -3.72827 -4.97879 0
M  V30 48742 C 1733.27 -4.45085 -6.88694 0
M  V30 48743 O 1732.88 -5.7877 -6.5624 0
M  V30 48744 C 1732.39 -3.47817 -6.12078 0
M  V30 48745 C 1733.1 -3.39414 -4.77697 0
M  V30 48746 N 1733.05 -2.04615 -4.15333 0
M  V30 48747 H 1735.89 -3.41248 -7.98759 0
M  V30 48748 H 1736.16 -2.5837 -6.41742 0
M  V30 48749 H 1735.29 -5.02657 -6.42673 0
M  V30 48750 P 1731.33 -6.144 -6.45285 0
M  V30 48751 O 1731.11 -7.54673 -6.86199 0
M  V30 48752 O 1730.54 -5.12391 -7.179 0
M  V30 48753 O 1731.08 -5.99158 -4.88404 0
M  V30 48754 C 1732.02 -6.60234 -3.96415 0
M  V30 48755 C 1731.29 -7.08259 -2.72856 0
M  V30 48756 O 1731.08 -5.9427 -1.83651 0
M  V30 48757 C 1729.89 -7.64886 -2.9555 0
M  V30 48758 O 1729.5 -8.53963 -1.90717 0
M  V30 48759 C 1729.01 -6.4116 -2.90739 0
M  V30 48760 C 1729.72 -5.55375 -1.86963 0
M  V30 48761 N 1729.67 -4.09448 -2.16152 0
M  V30 48762 H 1732.51 -7.45574 -4.45629 0
M  V30 48763 H 1732.78 -5.85864 -3.679 0
M  V30 48764 H 1731.91 -7.84412 -2.24479 0
M  V30 48765 H 1729.26 -5.73457 -0.888562 0
M  V30 48766 H 1728.98 -5.90877 -3.88583 0
M  V30 48767 H 1727.99 -6.6596 -2.58858 0
M  V30 48768 H 1729.82 -8.16339 -3.92049 0
M  V30 48769 P 1727.95 -8.7635 -1.60911 0
M  V30 48770 O 1727.73 -10.1388 -1.11561 0
M  V30 48771 O 1727.16 -8.36503 -2.79617 0
M  V30 48772 O 1727.7 -7.71806 -0.42951 0
M  V30 48773 C 1728.64 -7.67148 0.673689 0
M  V30 48774 C 1727.91 -7.33374 1.95559 0
M  V30 48775 O 1727.7 -5.88721 2.00726 0
M  V30 48776 C 1726.51 -7.92526 2.10483 0
M  V30 48777 O 1726.12 -8.02971 3.47653 0
M  V30 48778 C 1725.63 -6.89602 1.41652 0
M  V30 48779 C 1726.34 -5.59201 1.75185 0
M  V30 48780 N 1726.29 -4.58235 0.662552 0
M  V30 48781 H 1729.13 -8.65116 0.777161 0
M  V30 48782 H 1729.4 -6.90173 0.474152 0
M  V30 48783 H 1728.53 -7.66548 2.79458 0
M  V30 48784 P 1724.57 -8.03563 3.84925 0
M  V30 48785 O 1724.35 -8.85821 5.0569 0
M  V30 48786 O 1723.78 -8.41101 2.65469 0
M  V30 48787 O 1724.32 -6.4965 4.18908 0
M  V30 48788 C 1725.26 -5.81037 5.05421 0
M  V30 48789 C 1724.53 -4.78366 5.89277 0
M  V30 48790 O 1724.32 -3.58302 5.08433 0
M  V30 48791 C 1723.13 -5.17448 6.36119 0
M  V30 48792 O 1722.74 -4.45271 7.53232 0
M  V30 48793 C 1722.25 -4.74639 5.19936 0
M  V30 48794 C 1722.96 -3.49432 4.70418 0
M  V30 48795 N 1722.91 -3.31776 3.22945 0
M  V30 48796 H 1725.75 -6.54213 5.71376 0
M  V30 48797 H 1726.02 -5.30492 4.44033 0
M  V30 48798 H 1725.15 -4.55889 6.76652 0
M  V30 48799 P 1721.19 -4.23843 7.83734 0
M  V30 48800 O 1720.97 -4.19407 9.29784 0
M  V30 48801 O 1720.4 -5.24426 7.09156 0
M  V30 48802 O 1720.94 -2.7935 7.20758 0
M  V30 48803 C 1721.88 -1.7299 7.50419 0
M  V30 48804 C 1721.15 -0.406376 7.57911 0
M  V30 48805 O 1720.94 0.0897726 6.21935 0
M  V30 48806 C 1719.75 -0.447224 8.1878 0
M  V30 48807 O 1719.36 0.825065 8.71101 0
M  V30 48808 C 1718.87 -0.783801 6.99623 0
M  V30 48809 C 1719.58 -0.0619192 5.85967 0
M  V30 48810 N 1719.53 -0.7859 4.56281 0
M  V30 48811 H 1722.37 -1.93423 8.4679 0
M  V30 48812 H 1722.64 -1.68181 6.71046 0
M  V30 48813 H 1721.77 0.289041 8.15388 0
M  V30 48814 P 1717.81 1.17771 8.83182 0
M  V30 48815 O 1717.59 2.07206 9.98732 0
M  V30 48816 O 1717.02 -0.0743816 8.81969 0
M  V30 48817 O 1717.56 1.97652 7.47304 0
M  V30 48818 C 1718.5 3.01133 7.08783 0
M  V30 48819 C 1717.77 4.12613 6.37049 0
M  V30 48820 O 1717.56 3.72827 4.97879 0
M  V30 48821 C 1716.37 4.45085 6.88694 0
M  V30 48822 O 1715.98 5.7877 6.5624 0
M  V30 48823 C 1715.49 3.47817 6.12078 0
M  V30 48824 C 1716.2 3.39414 4.77697 0
M  V30 48825 N 1716.15 2.04615 4.15333 0
M  V30 48826 H 1718.99 3.41248 7.98759 0
M  V30 48827 H 1719.26 2.5837 6.41742 0
M  V30 48828 H 1718.39 5.02657 6.42673 0
M  V30 48829 P 1714.43 6.144 6.45285 0
M  V30 48830 O 1714.21 7.54673 6.86199 0
M  V30 48831 O 1713.64 5.12391 7.179 0
M  V30 48832 O 1714.18 5.99158 4.88404 0
M  V30 48833 C 1715.12 6.60234 3.96415 0
M  V30 48834 C 1714.39 7.08259 2.72856 0
M  V30 48835 O 1714.18 5.9427 1.83651 0
M  V30 48836 C 1712.99 7.64886 2.9555 0
M  V30 48837 O 1712.6 8.53963 1.90717 0
M  V30 48838 C 1712.11 6.4116 2.90739 0
M  V30 48839 C 1712.82 5.55375 1.86963 0
M  V30 48840 N 1712.77 4.09664 2.15742 0
M  V30 48841 H 1715.61 7.45574 4.45629 0
M  V30 48842 H 1715.88 5.86232 3.67314 0
M  V30 48843 H 1715.01 7.84412 2.24479 0
M  V30 48844 P 1711.05 8.7635 1.60911 0
M  V30 48845 O 1710.83 10.1388 1.11561 0
M  V30 48846 O 1710.26 8.36503 2.79617 0
M  V30 48847 O 1710.8 7.71806 0.42951 0
M  V30 48848 C 1711.74 7.67148 -0.673689 0
M  V30 48849 C 1711.01 7.33374 -1.95559 0
M  V30 48850 O 1710.8 5.88721 -2.00726 0
M  V30 48851 C 1709.61 7.92526 -2.10483 0
M  V30 48852 O 1709.22 8.02971 -3.47653 0
M  V30 48853 C 1708.73 6.89602 -1.41652 0
M  V30 48854 C 1709.44 5.59201 -1.75185 0
M  V30 48855 N 1709.39 4.58235 -0.662552 0
M  V30 48856 H 1712.23 8.65116 -0.777161 0
M  V30 48857 H 1712.5 6.90173 -0.474152 0
M  V30 48858 H 1711.63 7.66548 -2.79458 0
M  V30 48859 P 1707.67 8.03563 -3.84925 0
M  V30 48860 O 1707.45 8.85821 -5.0569 0
M  V30 48861 O 1706.88 8.41101 -2.65469 0
M  V30 48862 O 1707.42 6.4965 -4.18908 0
M  V30 48863 C 1708.36 5.80886 -5.05289 0
M  V30 48864 C 1707.63 4.78366 -5.89277 0
M  V30 48865 O 1707.42 3.58302 -5.08433 0
M  V30 48866 C 1706.23 5.16748 -6.36559 0
M  V30 48867 O 1705.84 4.45271 -7.53232 0
M  V30 48868 C 1705.35 4.74572 -5.19863 0
M  V30 48869 C 1706.06 3.49373 -4.70338 0
M  V30 48870 N 1706.01 3.31704 -3.22876 0
M  V30 48871 C 1705.86 2.03326 -2.74871 0
M  V30 48872 O 1705.77 1.06486 -3.48076 0
M  V30 48873 N 1705.82 1.91838 -1.37456 0
M  V30 48874 C 1705.91 2.94295 -0.462035 0
M  V30 48875 O 1705.86 2.71763 0.752928 0
M  V30 48876 C 1706.06 4.25064 -1.05249 0
M  V30 48877 C 1706.17 5.39815 -0.095697 0
M  V30 48878 C 1706.11 4.40214 -2.39192 0
M  V30 48879 H 1708.85 6.54063 -5.71245 0
M  V30 48880 H 1709.12 5.30339 -4.43905 0
M  V30 48881 H 1708.25 4.55889 -6.76652 0
M  V30 48882 H 1705.6 2.6167 -5.17842 0
M  V30 48883 H 1705.32 5.52155 -4.41878 0
M  V30 48884 H 1704.33 4.51918 -5.53297 0
M  V30 48885 H 1706.16 6.25055 -6.55162 0
M  V30 48886 H 1706.23 5.39798 -2.81523 0
M  V30 48887 H 1705.2 5.91593 -0.0279582 0
M  V30 48888 H 1706.94 6.10038 -0.450573 0
M  V30 48889 H 1706.45 5.02007 0.89937 0
M  V30 48890 H 1705.71 0.995326 -1.00435 0
M  V30 48891 P 1704.29 4.23843 -7.83734 0
M  V30 48892 O 1704.07 4.19407 -9.29784 0
M  V30 48893 O 1703.5 5.24426 -7.09156 0
M  V30 48894 O 1704.04 2.7935 -7.20758 0
M  V30 48895 C 1704.98 1.7299 -7.50419 0
M  V30 48896 C 1704.25 0.406376 -7.57911 0
M  V30 48897 O 1704.04 -0.0897726 -6.21935 0
M  V30 48898 C 1702.85 0.447224 -8.1878 0
M  V30 48899 O 1702.46 -0.825065 -8.71101 0
M  V30 48900 C 1701.97 0.783801 -6.99623 0
M  V30 48901 C 1702.68 0.0619192 -5.85967 0
M  V30 48902 N 1702.63 0.7859 -4.56281 0
M  V30 48903 H 1705.47 1.93423 -8.4679 0
M  V30 48904 H 1705.74 1.68181 -6.71046 0
M  V30 48905 H 1704.87 -0.289041 -8.15388 0
M  V30 48906 P 1700.91 -1.17771 -8.83182 0
M  V30 48907 O 1700.69 -2.07206 -9.98732 0
M  V30 48908 O 1700.12 0.0743816 -8.81969 0
M  V30 48909 O 1700.66 -1.97652 -7.47304 0
M  V30 48910 C 1701.6 -3.01133 -7.08783 0
M  V30 48911 C 1700.87 -4.12613 -6.37049 0
M  V30 48912 O 1700.66 -3.72827 -4.97879 0
M  V30 48913 C 1699.47 -4.45085 -6.88694 0
M  V30 48914 O 1699.08 -5.7877 -6.5624 0
M  V30 48915 C 1698.59 -3.47817 -6.12078 0
M  V30 48916 C 1699.3 -3.39414 -4.77697 0
M  V30 48917 N 1699.25 -2.04615 -4.15333 0
M  V30 48918 H 1702.09 -3.41248 -7.98759 0
M  V30 48919 H 1702.36 -2.5837 -6.41742 0
M  V30 48920 H 1701.49 -5.02657 -6.42673 0
M  V30 48921 P 1697.53 -6.144 -6.45285 0
M  V30 48922 O 1697.31 -7.54673 -6.86199 0
M  V30 48923 O 1696.74 -5.12391 -7.179 0
M  V30 48924 O 1697.28 -5.99158 -4.88404 0
M  V30 48925 C 1698.22 -6.60234 -3.96415 0
M  V30 48926 C 1697.49 -7.08259 -2.72856 0
M  V30 48927 O 1697.28 -5.9427 -1.83651 0
M  V30 48928 C 1696.09 -7.64886 -2.9555 0
M  V30 48929 O 1695.7 -8.53963 -1.90717 0
M  V30 48930 C 1695.21 -6.4116 -2.90739 0
M  V30 48931 C 1695.92 -5.55375 -1.86963 0
M  V30 48932 N 1695.87 -4.09664 -2.15742 0
M  V30 48933 H 1698.71 -7.45574 -4.45629 0
M  V30 48934 H 1698.98 -5.86232 -3.67314 0
M  V30 48935 H 1698.11 -7.84412 -2.24479 0
M  V30 48936 P 1694.15 -8.7635 -1.60911 0
M  V30 48937 O 1693.93 -10.1388 -1.11561 0
M  V30 48938 O 1693.36 -8.36503 -2.79617 0
M  V30 48939 O 1693.9 -7.71806 -0.42951 0
M  V30 48940 C 1694.84 -7.67148 0.673689 0
M  V30 48941 C 1694.11 -7.33374 1.95559 0
M  V30 48942 O 1693.9 -5.88721 2.00726 0
M  V30 48943 C 1692.71 -7.92526 2.10483 0
M  V30 48944 O 1692.32 -8.02971 3.47653 0
M  V30 48945 C 1691.83 -6.89602 1.41652 0
M  V30 48946 C 1692.54 -5.59201 1.75185 0
M  V30 48947 N 1692.49 -4.58235 0.662552 0
M  V30 48948 H 1695.33 -8.65116 0.777161 0
M  V30 48949 H 1695.6 -6.90173 0.474152 0
M  V30 48950 H 1694.73 -7.66548 2.79458 0
M  V30 48951 P 1690.77 -8.03563 3.84925 0
M  V30 48952 O 1690.55 -8.85821 5.0569 0
M  V30 48953 O 1689.98 -8.41101 2.65469 0
M  V30 48954 O 1690.52 -6.4965 4.18908 0
M  V30 48955 C 1691.46 -5.81037 5.05421 0
M  V30 48956 C 1690.73 -4.78366 5.89277 0
M  V30 48957 O 1690.52 -3.58302 5.08433 0
M  V30 48958 C 1689.33 -5.17448 6.36119 0
M  V30 48959 O 1688.94 -4.45271 7.53232 0
M  V30 48960 C 1688.45 -4.74639 5.19936 0
M  V30 48961 C 1689.16 -3.49432 4.70418 0
M  V30 48962 N 1689.11 -3.31776 3.22945 0
M  V30 48963 H 1691.95 -6.54213 5.71376 0
M  V30 48964 H 1692.22 -5.30492 4.44033 0
M  V30 48965 H 1691.35 -4.55889 6.76652 0
M  V30 48966 P 1687.39 -4.23843 7.83734 0
M  V30 48967 O 1687.17 -4.19407 9.29784 0
M  V30 48968 O 1686.6 -5.24426 7.09156 0
M  V30 48969 O 1687.14 -2.7935 7.20758 0
M  V30 48970 C 1688.08 -1.7299 7.50419 0
M  V30 48971 C 1687.35 -0.406376 7.57911 0
M  V30 48972 O 1687.14 0.0897726 6.21935 0
M  V30 48973 C 1685.95 -0.447224 8.1878 0
M  V30 48974 O 1685.56 0.825065 8.71101 0
M  V30 48975 C 1685.07 -0.783801 6.99623 0
M  V30 48976 C 1685.78 -0.0619192 5.85967 0
M  V30 48977 N 1685.73 -0.790462 4.56202 0
M  V30 48978 H 1688.57 -1.93423 8.4679 0
M  V30 48979 H 1688.84 -1.68852 6.70877 0
M  V30 48980 H 1687.97 0.289041 8.15388 0
M  V30 48981 H 1685.32 0.927006 5.72848 0
M  V30 48982 H 1685.04 -1.86973 6.82036 0
M  V30 48983 H 1684.05 -0.403953 7.13357 0
M  V30 48984 H 1685.88 -1.20599 8.97534 0
M  V30 48985 P 1684.01 1.17771 8.83182 0
M  V30 48986 O 1683.79 2.07206 9.98732 0
M  V30 48987 O 1683.22 -0.0743816 8.81969 0
M  V30 48988 O 1683.76 1.97652 7.47304 0
M  V30 48989 C 1684.7 3.01133 7.08783 0
M  V30 48990 C 1683.97 4.12613 6.37049 0
M  V30 48991 O 1683.76 3.72827 4.97879 0
M  V30 48992 C 1682.57 4.45085 6.88694 0
M  V30 48993 O 1682.18 5.7877 6.5624 0
M  V30 48994 C 1681.69 3.47817 6.12078 0
M  V30 48995 C 1682.4 3.39414 4.77697 0
M  V30 48996 N 1682.35 2.04615 4.15333 0
M  V30 48997 H 1685.19 3.41248 7.98759 0
M  V30 48998 H 1685.46 2.5837 6.41742 0
M  V30 48999 H 1684.59 5.02657 6.42673 0
M  V30 49000 P 1680.63 6.144 6.45285 0
M  V30 49001 O 1680.41 7.54673 6.86199 0
M  V30 49002 O 1679.84 5.12391 7.179 0
M  V30 49003 O 1680.38 5.99158 4.88404 0
M  V30 49004 C 1681.32 6.60234 3.96415 0
M  V30 49005 C 1680.59 7.08259 2.72856 0
M  V30 49006 O 1680.38 5.9427 1.83651 0
M  V30 49007 C 1679.19 7.64886 2.9555 0
M  V30 49008 O 1678.8 8.53963 1.90717 0
M  V30 49009 C 1678.31 6.4116 2.90739 0
M  V30 49010 C 1679.02 5.55375 1.86963 0
M  V30 49011 N 1678.97 4.09448 2.16152 0
M  V30 49012 H 1681.81 7.45574 4.45629 0
M  V30 49013 H 1682.08 5.85864 3.679 0
M  V30 49014 H 1681.21 7.84412 2.24479 0
M  V30 49015 H 1678.56 5.73457 0.888562 0
M  V30 49016 H 1678.28 5.90877 3.88583 0
M  V30 49017 H 1677.29 6.6596 2.58858 0
M  V30 49018 H 1679.12 8.16339 3.92049 0
M  V30 49019 P 1677.25 8.7635 1.60911 0
M  V30 49020 O 1677.03 10.1388 1.11561 0
M  V30 49021 O 1676.46 8.36503 2.79617 0
M  V30 49022 O 1677 7.71806 0.42951 0
M  V30 49023 C 1677.94 7.66948 -0.673514 0
M  V30 49024 C 1677.21 7.33374 -1.95559 0
M  V30 49025 O 1677 5.88721 -2.00726 0
M  V30 49026 C 1675.81 7.92218 -2.1125 0
M  V30 49027 O 1675.42 8.02971 -3.47653 0
M  V30 49028 C 1674.93 6.89504 -1.41631 0
M  V30 49029 C 1675.64 5.59106 -1.75155 0
M  V30 49030 N 1675.59 4.58136 -0.662409 0
M  V30 49031 C 1675.44 3.26059 -1.02863 0
M  V30 49032 O 1675.35 2.90743 -2.19009 0
M  V30 49033 N 1675.4 2.35995 0.0155585 0
M  V30 49034 C 1675.49 2.65248 1.35603 0
M  V30 49035 O 1675.44 1.75605 2.20651 0
M  V30 49036 C 1675.64 4.05747 1.64698 0
M  V30 49037 C 1675.75 4.42345 3.09553 0
M  V30 49038 C 1675.69 4.96734 0.652411 0
M  V30 49039 H 1678.43 8.64917 -0.776982 0
M  V30 49040 H 1678.7 6.89974 -0.474015 0
M  V30 49041 H 1677.83 7.66548 -2.79458 0
M  V30 49042 H 1675.18 5.16076 -2.65138 0
M  V30 49043 H 1674.9 7.06433 -0.329384 0
M  V30 49044 H 1673.91 6.90829 -1.81996 0
M  V30 49045 H 1675.74 8.90774 -1.62639 0
M  V30 49046 H 1675.81 6.02181 0.895285 0
M  V30 49047 H 1674.78 4.80252 3.45468 0
M  V30 49048 H 1676.52 5.20015 3.22119 0
M  V30 49049 H 1676.03 3.53269 3.67833 0
M  V30 49050 H 1675.3 1.39558 -0.227499 0
M  V30 49051 P 1673.87 8.03563 -3.84925 0
M  V30 49052 O 1673.65 8.85821 -5.0569 0
M  V30 49053 O 1673.08 8.41101 -2.65469 0
M  V30 49054 O 1673.62 6.4965 -4.18908 0
M  V30 49055 C 1674.56 5.81037 -5.05421 0
M  V30 49056 C 1673.83 4.78366 -5.89277 0
M  V30 49057 O 1673.62 3.58302 -5.08433 0
M  V30 49058 C 1672.43 5.17448 -6.36119 0
M  V30 49059 O 1672.04 4.45271 -7.53232 0
M  V30 49060 C 1671.55 4.74639 -5.19936 0
M  V30 49061 C 1672.26 3.49432 -4.70418 0
M  V30 49062 N 1672.21 3.31776 -3.22945 0
M  V30 49063 H 1675.05 6.54213 -5.71376 0
M  V30 49064 H 1675.32 5.30492 -4.44033 0
M  V30 49065 H 1674.45 4.55889 -6.76652 0
M  V30 49066 P 1670.49 4.23843 -7.83734 0
M  V30 49067 O 1670.27 4.19407 -9.29784 0
M  V30 49068 O 1669.7 5.24426 -7.09156 0
M  V30 49069 O 1670.24 2.7935 -7.20758 0
M  V30 49070 C 1671.18 1.72945 -7.50224 0
M  V30 49071 C 1670.45 0.406376 -7.57911 0
M  V30 49072 O 1670.24 -0.0897726 -6.21935 0
M  V30 49073 C 1669.05 0.438983 -8.18724 0
M  V30 49074 O 1668.66 -0.825065 -8.71101 0
M  V30 49075 C 1668.17 0.783689 -6.99524 0
M  V30 49076 C 1668.88 0.0619086 -5.85867 0
M  V30 49077 N 1668.83 0.78573 -4.56183 0
M  V30 49078 C 1668.68 0.0292889 -3.41887 0
M  V30 49079 O 1668.59 -1.18445 -3.4419 0
M  V30 49080 N 1668.64 0.744061 -2.23964 0
M  V30 49081 C 1668.73 2.10932 -2.10362 0
M  V30 49082 C 1668.88 2.8202 -3.34994 0
M  V30 49083 C 1668.93 2.15547 -4.52261 0
M  V30 49084 H 1671.67 1.93379 -8.46595 0
M  V30 49085 H 1671.94 1.68132 -6.70852 0
M  V30 49086 H 1671.07 -0.289041 -8.15388 0
M  V30 49087 H 1668.42 -0.926847 -5.72749 0
M  V30 49088 H 1668.14 1.86973 -6.82036 0
M  V30 49089 H 1667.15 0.403896 -7.13257 0
M  V30 49090 H 1668.98 1.20585 -8.97435 0
M  V30 49091 H 1669.05 2.71231 -5.45042 0
M  V30 49092 P 1667.11 -1.17771 -8.83182 0
M  V30 49093 O 1666.89 -2.07206 -9.98732 0
M  V30 49094 O 1666.32 0.0743816 -8.81969 0
M  V30 49095 O 1666.86 -1.97652 -7.47304 0
M  V30 49096 C 1667.8 -3.01133 -7.08783 0
M  V30 49097 C 1667.07 -4.12613 -6.37049 0
M  V30 49098 O 1666.86 -3.72827 -4.97879 0
M  V30 49099 C 1665.67 -4.45085 -6.88694 0
M  V30 49100 O 1665.28 -5.7877 -6.5624 0
M  V30 49101 C 1664.79 -3.47817 -6.12078 0
M  V30 49102 C 1665.5 -3.39414 -4.77697 0
M  V30 49103 N 1665.45 -2.04615 -4.15333 0
M  V30 49104 H 1668.29 -3.41248 -7.98759 0
M  V30 49105 H 1668.56 -2.5837 -6.41742 0
M  V30 49106 H 1667.69 -5.02657 -6.42673 0
M  V30 49107 P 1663.73 -6.144 -6.45285 0
M  V30 49108 O 1663.51 -7.54673 -6.86199 0
M  V30 49109 O 1662.94 -5.12391 -7.179 0
M  V30 49110 O 1663.48 -5.99158 -4.88404 0
M  V30 49111 C 1664.42 -6.60234 -3.96415 0
M  V30 49112 C 1663.69 -7.08259 -2.72856 0
M  V30 49113 O 1663.48 -5.9427 -1.83651 0
M  V30 49114 C 1662.29 -7.64886 -2.9555 0
M  V30 49115 O 1661.9 -8.53963 -1.90717 0
M  V30 49116 C 1661.41 -6.4116 -2.90739 0
M  V30 49117 C 1662.12 -5.55375 -1.86963 0
M  V30 49118 N 1662.07 -4.09664 -2.15742 0
M  V30 49119 H 1664.91 -7.45574 -4.45629 0
M  V30 49120 H 1665.18 -5.86232 -3.67314 0
M  V30 49121 H 1664.31 -7.84412 -2.24479 0
M  V30 49122 P 1660.35 -8.7635 -1.60911 0
M  V30 49123 O 1660.13 -10.1388 -1.11561 0
M  V30 49124 O 1659.56 -8.36503 -2.79617 0
M  V30 49125 O 1660.1 -7.71806 -0.42951 0
M  V30 49126 C 1661.04 -7.67148 0.673689 0
M  V30 49127 C 1660.31 -7.33374 1.95559 0
M  V30 49128 O 1660.1 -5.88721 2.00726 0
M  V30 49129 C 1658.91 -7.92526 2.10483 0
M  V30 49130 O 1658.52 -8.02971 3.47653 0
M  V30 49131 C 1658.03 -6.89602 1.41652 0
M  V30 49132 C 1658.74 -5.59201 1.75185 0
M  V30 49133 N 1658.69 -4.58235 0.662552 0
M  V30 49134 H 1661.53 -8.65116 0.777161 0
M  V30 49135 H 1661.8 -6.90173 0.474152 0
M  V30 49136 H 1660.93 -7.66548 2.79458 0
M  V30 49137 P 1656.97 -8.03563 3.84925 0
M  V30 49138 O 1656.75 -8.85821 5.0569 0
M  V30 49139 O 1656.18 -8.41101 2.65469 0
M  V30 49140 O 1656.72 -6.4965 4.18908 0
M  V30 49141 C 1657.66 -5.81037 5.05421 0
M  V30 49142 C 1656.93 -4.78366 5.89277 0
M  V30 49143 O 1656.72 -3.58302 5.08433 0
M  V30 49144 C 1655.53 -5.17448 6.36119 0
M  V30 49145 O 1655.14 -4.45271 7.53232 0
M  V30 49146 C 1654.65 -4.74639 5.19936 0
M  V30 49147 C 1655.36 -3.49432 4.70418 0
M  V30 49148 N 1655.31 -3.31776 3.22945 0
M  V30 49149 H 1658.15 -6.54213 5.71376 0
M  V30 49150 H 1658.42 -5.30492 4.44033 0
M  V30 49151 H 1657.55 -4.55889 6.76652 0
M  V30 49152 P 1653.59 -4.23843 7.83734 0
M  V30 49153 O 1653.37 -4.19407 9.29784 0
M  V30 49154 O 1652.8 -5.24426 7.09156 0
M  V30 49155 O 1653.34 -2.7935 7.20758 0
M  V30 49156 C 1654.28 -1.7299 7.50419 0
M  V30 49157 C 1653.55 -0.406376 7.57911 0
M  V30 49158 O 1653.34 0.0897726 6.21935 0
M  V30 49159 C 1652.15 -0.447224 8.1878 0
M  V30 49160 O 1651.76 0.825065 8.71101 0
M  V30 49161 C 1651.27 -0.783801 6.99623 0
M  V30 49162 C 1651.98 -0.0619192 5.85967 0
M  V30 49163 N 1651.93 -0.790462 4.56202 0
M  V30 49164 H 1654.77 -1.93423 8.4679 0
M  V30 49165 H 1655.04 -1.68852 6.70877 0
M  V30 49166 H 1654.17 0.289041 8.15388 0
M  V30 49167 H 1651.52 0.927006 5.72848 0
M  V30 49168 H 1651.24 -1.86973 6.82036 0
M  V30 49169 H 1650.25 -0.403953 7.13357 0
M  V30 49170 H 1652.08 -1.20599 8.97534 0
M  V30 49171 P 1650.21 1.17771 8.83182 0
M  V30 49172 O 1649.99 2.07206 9.98732 0
M  V30 49173 O 1649.42 -0.0743816 8.81969 0
M  V30 49174 O 1649.96 1.97678 7.474 0
M  V30 49175 C 1650.9 3.01133 7.08783 0
M  V30 49176 C 1650.17 4.1203 6.37546 0
M  V30 49177 O 1649.96 3.72887 4.9796 0
M  V30 49178 C 1648.77 4.45085 6.88694 0
M  V30 49179 O 1648.38 5.78836 6.56315 0
M  V30 49180 C 1647.89 3.47817 6.12078 0
M  V30 49181 C 1648.6 3.39414 4.77697 0
M  V30 49182 N 1648.55 2.04615 4.15333 0
M  V30 49183 C 1648.4 1.96929 2.77162 0
M  V30 49184 O 1648.31 3.02017 2.12006 0
M  V30 49185 N 1648.35 0.55485 2.24237 0
M  V30 49186 C 1648.45 -0.367808 2.9169 0
M  V30 49187 N 1648.4 -1.53426 2.29427 0
M  V30 49188 C 1648.6 -0.319148 4.33828 0
M  V30 49189 C 1648.65 0.920672 4.90433 0
M  V30 49190 H 1651.39 3.41209 7.98667 0
M  V30 49191 H 1651.66 2.5837 6.41742 0
M  V30 49192 H 1650.79 5.02718 6.42752 0
M  V30 49193 H 1648.14 4.11779 4.09026 0
M  V30 49194 H 1647.86 2.49661 6.61772 0
M  V30 49195 H 1646.87 3.86674 6.00946 0
M  V30 49196 H 1648.7 4.29991 7.97006 0
M  V30 49197 H 1648.77 1.00589 5.98303 0
M  V30 49198 H 1648.67 -1.22639 4.93799 0
M  V30 49199 H 1648.28 -1.56819 1.27167 0
M  V30 49200 H 1648.48 -2.41062 2.83063 0
M  V30 49201 P 1646.83 6.144 6.45285 0
M  V30 49202 O 1646.61 7.54673 6.86199 0
M  V30 49203 O 1646.04 5.12391 7.179 0
M  V30 49204 O 1646.58 5.99158 4.88404 0
M  V30 49205 C 1647.52 6.60062 3.96313 0
M  V30 49206 C 1646.79 7.08259 2.72856 0
M  V30 49207 O 1646.58 5.9427 1.83651 0
M  V30 49208 C 1645.39 7.65087 2.94749 0
M  V30 49209 O 1645 8.53963 1.90717 0
M  V30 49210 C 1644.51 6.41069 2.90698 0
M  V30 49211 C 1645.22 5.5528 1.86931 0
M  V30 49212 N 1645.17 4.09575 2.15696 0
M  V30 49213 C 1645.02 3.24249 1.08435 0
M  V30 49214 O 1644.93 3.63946 -0.0628747 0
M  V30 49215 N 1644.98 1.90009 1.39973 0
M  V30 49216 C 1645.07 1.34884 2.65614 0
M  V30 49217 C 1645.22 2.3145 3.71736 0
M  V30 49218 C 1645.27 3.63518 3.44754 0
M  V30 49219 H 1648.01 7.45402 4.45526 0
M  V30 49220 H 1648.28 5.86062 3.67208 0
M  V30 49221 H 1647.41 7.84412 2.24479 0
M  V30 49222 H 1644.76 5.73358 0.888409 0
M  V30 49223 H 1644.48 5.90877 3.88583 0
M  V30 49224 H 1643.49 6.65867 2.58821 0
M  V30 49225 H 1645.32 8.16248 3.92006 0
M  V30 49226 H 1645.39 4.34551 4.26383 0
M  V30 49227 P 1643.45 8.7635 1.60911 0
M  V30 49228 O 1643.23 10.1388 1.11561 0
M  V30 49229 O 1642.66 8.36503 2.79617 0
M  V30 49230 O 1643.2 7.71806 0.42951 0
M  V30 49231 C 1644.14 7.67148 -0.673689 0
M  V30 49232 C 1643.41 7.33374 -1.95559 0
M  V30 49233 O 1643.2 5.88721 -2.00726 0
M  V30 49234 C 1642.01 7.92526 -2.10483 0
M  V30 49235 O 1641.62 8.02971 -3.47653 0
M  V30 49236 C 1641.13 6.89602 -1.41652 0
M  V30 49237 C 1641.84 5.59201 -1.75185 0
M  V30 49238 N 1641.79 4.58235 -0.662552 0
M  V30 49239 H 1644.63 8.65116 -0.777161 0
M  V30 49240 H 1644.9 6.90173 -0.474152 0
M  V30 49241 H 1644.03 7.66548 -2.79458 0
M  V30 49242 P 1640.07 8.03563 -3.84925 0
M  V30 49243 O 1639.85 8.85821 -5.0569 0
M  V30 49244 O 1639.28 8.41101 -2.65469 0
M  V30 49245 O 1639.82 6.4965 -4.18908 0
M  V30 49246 C 1640.76 5.81037 -5.05421 0
M  V30 49247 C 1640.03 4.78366 -5.89277 0
M  V30 49248 O 1639.82 3.58302 -5.08433 0
M  V30 49249 C 1638.63 5.17448 -6.36119 0
M  V30 49250 O 1638.24 4.45271 -7.53232 0
M  V30 49251 C 1637.75 4.74639 -5.19936 0
M  V30 49252 C 1638.46 3.49432 -4.70418 0
M  V30 49253 N 1638.41 3.31776 -3.22945 0
M  V30 49254 H 1641.25 6.54213 -5.71376 0
M  V30 49255 H 1641.52 5.30492 -4.44033 0
M  V30 49256 H 1640.65 4.55889 -6.76652 0
M  V30 49257 P 1636.69 4.23843 -7.83734 0
M  V30 49258 O 1636.47 4.19407 -9.29784 0
M  V30 49259 O 1635.9 5.24426 -7.09156 0
M  V30 49260 O 1636.44 2.7935 -7.20758 0
M  V30 49261 C 1637.38 1.7299 -7.50419 0
M  V30 49262 C 1636.65 0.406376 -7.57911 0
M  V30 49263 O 1636.44 -0.0897726 -6.21935 0
M  V30 49264 C 1635.25 0.447224 -8.1878 0
M  V30 49265 O 1634.86 -0.825065 -8.71101 0
M  V30 49266 C 1634.37 0.783801 -6.99623 0
M  V30 49267 C 1635.08 0.0619192 -5.85967 0
M  V30 49268 N 1635.03 0.7859 -4.56281 0
M  V30 49269 H 1637.87 1.93423 -8.4679 0
M  V30 49270 H 1638.14 1.68181 -6.71046 0
M  V30 49271 H 1637.27 -0.289041 -8.15388 0
M  V30 49272 P 1633.31 -1.17771 -8.83182 0
M  V30 49273 O 1633.09 -2.07206 -9.98732 0
M  V30 49274 O 1632.52 0.0743816 -8.81969 0
M  V30 49275 O 1633.06 -1.97652 -7.47304 0
M  V30 49276 C 1634 -3.01133 -7.08783 0
M  V30 49277 C 1633.27 -4.12613 -6.37049 0
M  V30 49278 O 1633.06 -3.72827 -4.97879 0
M  V30 49279 C 1631.87 -4.45085 -6.88694 0
M  V30 49280 O 1631.48 -5.7877 -6.5624 0
M  V30 49281 C 1630.99 -3.47817 -6.12078 0
M  V30 49282 C 1631.7 -3.39414 -4.77697 0
M  V30 49283 N 1631.65 -2.04615 -4.15333 0
M  V30 49284 H 1634.49 -3.41248 -7.98759 0
M  V30 49285 H 1634.76 -2.5837 -6.41742 0
M  V30 49286 H 1633.89 -5.02657 -6.42673 0
M  V30 49287 P 1629.93 -6.144 -6.45285 0
M  V30 49288 O 1629.71 -7.54673 -6.86199 0
M  V30 49289 O 1629.14 -5.12391 -7.179 0
M  V30 49290 O 1629.68 -5.99236 -4.88467 0
M  V30 49291 C 1630.62 -6.60234 -3.96415 0
M  V30 49292 C 1629.89 -7.08079 -2.736 0
M  V30 49293 O 1629.68 -5.94365 -1.8368 0
M  V30 49294 C 1628.49 -7.64886 -2.9555 0
M  V30 49295 O 1628.1 -8.5406 -1.90739 0
M  V30 49296 C 1627.61 -6.4116 -2.90739 0
M  V30 49297 C 1628.32 -5.55375 -1.86963 0
M  V30 49298 N 1628.27 -4.09664 -2.15742 0
M  V30 49299 C 1628.12 -3.22231 -1.08477 0
M  V30 49300 O 1628.03 -3.68951 0.0600489 0
M  V30 49301 N 1628.07 -1.76692 -1.48799 0
M  V30 49302 C 1628.17 -1.41695 -2.57602 0
M  V30 49303 N 1628.12 -0.107296 -2.75791 0
M  V30 49304 C 1628.32 -2.29178 -3.69733 0
M  V30 49305 C 1628.37 -3.62753 -3.42653 0
M  V30 49306 H 1631.11 -7.45488 -4.45578 0
M  V30 49307 H 1631.38 -5.86232 -3.67314 0
M  V30 49308 H 1630.51 -7.84508 -2.24507 0
M  V30 49309 H 1627.86 -5.73556 -0.888715 0
M  V30 49310 H 1627.58 -5.9096 -3.88638 0
M  V30 49311 H 1626.59 -6.66053 -2.58894 0
M  V30 49312 H 1628.42 -8.16339 -3.92049 0
M  V30 49313 H 1628.49 -4.33052 -4.24913 0
M  V30 49314 H 1628.39 -1.9103 -4.71577 0
M  V30 49315 H 1628 0.521221 -1.95056 0
M  V30 49316 H 1628.2 0.286429 -3.70695 0
M  V30 49317 P 1626.55 -8.7635 -1.60911 0
M  V30 49318 O 1626.33 -10.1388 -1.11561 0
M  V30 49319 O 1625.76 -8.36503 -2.79617 0
M  V30 49320 O 1626.3 -7.71806 -0.42951 0
M  V30 49321 C 1627.24 -7.67148 0.673689 0
M  V30 49322 C 1626.51 -7.33374 1.95559 0
M  V30 49323 O 1626.3 -5.88721 2.00726 0
M  V30 49324 C 1625.11 -7.92526 2.10483 0
M  V30 49325 O 1624.72 -8.02971 3.47653 0
M  V30 49326 C 1624.23 -6.89602 1.41652 0
M  V30 49327 C 1624.94 -5.59201 1.75185 0
M  V30 49328 N 1624.89 -4.58235 0.662552 0
M  V30 49329 C 1624.97 -4.7683 -0.704049 0
M  V30 49330 N 1624.89 -3.66233 -1.39775 0
M  V30 49331 C 1624.75 -2.66526 -0.431739 0
M  V30 49332 C 1624.62 -1.26394 -0.575992 0
M  V30 49333 N 1624.5 -0.62859 0.67177 0
M  V30 49334 C 1624.5 -1.27134 1.89385 0
M  V30 49335 N 1624.37 -0.492035 2.96951 0
M  V30 49336 N 1624.63 -2.58978 2.02907 0
M  V30 49337 C 1624.75 -3.22433 0.832218 0
M  V30 49338 H 1627.73 -8.65116 0.777161 0
M  V30 49339 H 1628 -6.90173 0.474152 0
M  V30 49340 H 1627.13 -7.66548 2.79458 0
M  V30 49341 P 1623.17 -8.03563 3.84925 0
M  V30 49342 O 1622.95 -8.85821 5.0569 0
M  V30 49343 O 1622.38 -8.41101 2.65469 0
M  V30 49344 O 1622.92 -6.4965 4.18908 0
M  V30 49345 C 1623.86 -5.81037 5.05421 0
M  V30 49346 C 1623.13 -4.78366 5.89277 0
M  V30 49347 O 1622.92 -3.58302 5.08433 0
M  V30 49348 C 1621.73 -5.17448 6.36119 0
M  V30 49349 O 1621.34 -4.45271 7.53232 0
M  V30 49350 C 1620.85 -4.74639 5.19936 0
M  V30 49351 C 1621.56 -3.49432 4.70418 0
M  V30 49352 N 1621.51 -3.32099 3.22613 0
M  V30 49353 H 1624.35 -6.54213 5.71376 0
M  V30 49354 H 1624.62 -5.30936 4.43503 0
M  V30 49355 H 1623.75 -4.55889 6.76652 0
M  V30 49356 H 1621.1 -2.61715 5.17932 0
M  V30 49357 H 1620.82 -5.52155 4.41878 0
M  V30 49358 H 1619.83 -4.51981 5.53374 0
M  V30 49359 H 1621.66 -6.25124 6.55234 0
M  V30 49360 P 1619.79 -4.23843 7.83734 0
M  V30 49361 O 1619.57 -4.19407 9.29784 0
M  V30 49362 O 1619 -5.24426 7.09156 0
M  V30 49363 O 1619.54 -2.7935 7.20758 0
M  V30 49364 C 1620.48 -1.7299 7.50419 0
M  V30 49365 C 1619.75 -0.406376 7.57911 0
M  V30 49366 O 1619.54 0.0897726 6.21935 0
M  V30 49367 C 1618.35 -0.447224 8.1878 0
M  V30 49368 O 1617.96 0.825065 8.71101 0
M  V30 49369 C 1617.47 -0.783801 6.99623 0
M  V30 49370 C 1618.18 -0.0619192 5.85967 0
M  V30 49371 N 1618.13 -0.790462 4.56202 0
M  V30 49372 H 1620.97 -1.93423 8.4679 0
M  V30 49373 H 1621.24 -1.68852 6.70877 0
M  V30 49374 H 1620.37 0.289041 8.15388 0
M  V30 49375 H 1617.72 0.927006 5.72848 0
M  V30 49376 H 1617.44 -1.86973 6.82036 0
M  V30 49377 H 1616.45 -0.403953 7.13357 0
M  V30 49378 H 1618.28 -1.20599 8.97534 0
M  V30 49379 P 1616.41 1.17771 8.83182 0
M  V30 49380 O 1616.19 2.07206 9.98732 0
M  V30 49381 O 1615.62 -0.0743816 8.81969 0
M  V30 49382 O 1616.16 1.97652 7.47304 0
M  V30 49383 C 1617.1 3.01055 7.08599 0
M  V30 49384 C 1616.37 4.12613 6.37049 0
M  V30 49385 O 1616.16 3.72827 4.97879 0
M  V30 49386 C 1614.97 4.45719 6.88164 0
M  V30 49387 O 1614.58 5.7877 6.5624 0
M  V30 49388 C 1614.09 3.47768 6.11991 0
M  V30 49389 C 1614.8 3.39356 4.77615 0
M  V30 49390 N 1614.75 2.04571 4.15244 0
M  V30 49391 C 1614.6 1.98587 2.78314 0
M  V30 49392 O 1614.51 2.98134 2.08835 0
M  V30 49393 N 1614.56 0.714467 2.24925 0
M  V30 49394 C 1614.65 -0.470001 2.94169 0
M  V30 49395 C 1614.8 -0.312541 4.36783 0
M  V30 49396 C 1614.85 0.914512 4.92583 0
M  V30 49397 H 1617.59 3.41169 7.98575 0
M  V30 49398 H 1617.86 2.58295 6.41556 0
M  V30 49399 H 1616.99 5.02657 6.42673 0
M  V30 49400 H 1614.34 4.11637 4.08885 0
M  V30 49401 H 1614.06 2.49626 6.61679 0
M  V30 49402 H 1613.07 3.86566 6.00778 0
M  V30 49403 H 1614.9 4.29943 7.96918 0
M  V30 49404 H 1614.97 1.00937 6.00374 0
M  V30 49405 P 1613.03 6.144 6.45285 0
M  V30 49406 O 1612.81 7.54673 6.86199 0
M  V30 49407 O 1612.24 5.12391 7.179 0
M  V30 49408 O 1612.78 5.99236 4.88467 0
M  V30 49409 C 1613.72 6.60234 3.96415 0
M  V30 49410 C 1612.99 7.08079 2.736 0
M  V30 49411 O 1612.78 5.94365 1.8368 0
M  V30 49412 C 1611.59 7.64886 2.9555 0
M  V30 49413 O 1611.2 8.5406 1.90739 0
M  V30 49414 C 1610.71 6.4116 2.90739 0
M  V30 49415 C 1611.42 5.55375 1.86963 0
M  V30 49416 N 1611.37 4.09664 2.15742 0
M  V30 49417 C 1611.22 3.22231 1.08477 0
M  V30 49418 O 1611.13 3.68951 -0.0600489 0
M  V30 49419 N 1611.17 1.76692 1.48799 0
M  V30 49420 C 1611.27 1.41695 2.57602 0
M  V30 49421 N 1611.22 0.107296 2.75791 0
M  V30 49422 C 1611.42 2.29178 3.69733 0
M  V30 49423 C 1611.47 3.62753 3.42653 0
M  V30 49424 H 1614.21 7.45488 4.45578 0
M  V30 49425 H 1614.48 5.86232 3.67314 0
M  V30 49426 H 1613.61 7.84508 2.24507 0
M  V30 49427 H 1610.96 5.73556 0.888715 0
M  V30 49428 H 1610.68 5.9096 3.88638 0
M  V30 49429 H 1609.69 6.66053 2.58894 0
M  V30 49430 H 1611.52 8.16339 3.92049 0
M  V30 49431 H 1611.59 4.33052 4.24913 0
M  V30 49432 H 1611.49 1.9103 4.71577 0
M  V30 49433 H 1611.1 -0.521221 1.95056 0
M  V30 49434 H 1611.3 -0.286429 3.70695 0
M  V30 49435 P 1609.65 8.7635 1.60911 0
M  V30 49436 O 1609.43 10.1388 1.11561 0
M  V30 49437 O 1608.86 8.36503 2.79617 0
M  V30 49438 O 1609.4 7.71806 0.42951 0
M  V30 49439 C 1610.34 7.67148 -0.673689 0
M  V30 49440 C 1609.61 7.33374 -1.95559 0
M  V30 49441 O 1609.4 5.88721 -2.00726 0
M  V30 49442 C 1608.21 7.92526 -2.10483 0
M  V30 49443 O 1607.82 8.02971 -3.47653 0
M  V30 49444 C 1607.33 6.89602 -1.41652 0
M  V30 49445 C 1608.04 5.59201 -1.75185 0
M  V30 49446 N 1607.99 4.58235 -0.662552 0
M  V30 49447 H 1610.83 8.65116 -0.777161 0
M  V30 49448 H 1611.1 6.90173 -0.474152 0
M  V30 49449 H 1610.23 7.66548 -2.79458 0
M  V30 49450 P 1606.27 8.03563 -3.84925 0
M  V30 49451 O 1606.05 8.85821 -5.0569 0
M  V30 49452 O 1605.48 8.41101 -2.65469 0
M  V30 49453 O 1606.02 6.4965 -4.18908 0
M  V30 49454 C 1606.96 5.81037 -5.05421 0
M  V30 49455 C 1606.23 4.78366 -5.89277 0
M  V30 49456 O 1606.02 3.58302 -5.08433 0
M  V30 49457 C 1604.83 5.17448 -6.36119 0
M  V30 49458 O 1604.44 4.45271 -7.53232 0
M  V30 49459 C 1603.95 4.74639 -5.19936 0
M  V30 49460 C 1604.66 3.49432 -4.70418 0
M  V30 49461 N 1604.61 3.31776 -3.22945 0
M  V30 49462 H 1607.45 6.54213 -5.71376 0
M  V30 49463 H 1607.72 5.30492 -4.44033 0
M  V30 49464 H 1606.85 4.55889 -6.76652 0
M  V30 49465 P 1602.89 4.23843 -7.83734 0
M  V30 49466 O 1602.67 4.19407 -9.29784 0
M  V30 49467 O 1602.1 5.24426 -7.09156 0
M  V30 49468 O 1602.64 2.79386 -7.20852 0
M  V30 49469 C 1603.58 1.7299 -7.50419 0
M  V30 49470 C 1602.85 0.41401 -7.5797 0
M  V30 49471 O 1602.64 -0.089787 -6.22035 0
M  V30 49472 C 1601.45 0.447224 -8.1878 0
M  V30 49473 O 1601.06 -0.825159 -8.71201 0
M  V30 49474 C 1600.57 0.783801 -6.99623 0
M  V30 49475 C 1601.28 0.0619192 -5.85967 0
M  V30 49476 N 1601.23 0.7859 -4.56281 0
M  V30 49477 C 1601.08 0.0359258 -3.39981 0
M  V30 49478 O 1600.99 -1.19723 -3.49038 0
M  V30 49479 N 1601.03 0.869151 -2.14025 0
M  V30 49480 C 1601.13 2.01207 -2.14363 0
M  V30 49481 N 1601.08 2.58978 -0.954287 0
M  V30 49482 C 1601.28 2.80817 -3.32215 0
M  V30 49483 C 1601.33 2.13785 -4.50884 0
M  V30 49484 H 1604.07 1.93401 -8.46693 0
M  V30 49485 H 1604.34 1.68181 -6.71046 0
M  V30 49486 H 1603.47 -0.289076 -8.15488 0
M  V30 49487 H 1600.82 -0.927166 -5.72947 0
M  V30 49488 H 1600.54 1.87 -6.82132 0
M  V30 49489 H 1599.55 0.404009 -7.13457 0
M  V30 49490 H 1601.38 1.20599 -8.97534 0
M  V30 49491 H 1601.45 2.70295 -5.43162 0
M  V30 49492 H 1601.35 3.89465 -3.27406 0
M  V30 49493 H 1600.96 2.01616 -0.107046 0
M  V30 49494 H 1601.16 3.61403 -0.873101 0
M  V30 49495 P 1599.51 -1.17771 -8.83182 0
M  V30 49496 O 1599.29 -2.07206 -9.98732 0
M  V30 49497 O 1598.72 0.0743816 -8.81969 0
M  V30 49498 O 1599.26 -1.97652 -7.47304 0
M  V30 49499 C 1600.2 -3.01133 -7.08783 0
M  V30 49500 C 1599.47 -4.12613 -6.37049 0
M  V30 49501 O 1599.26 -3.72827 -4.97879 0
M  V30 49502 C 1598.07 -4.45085 -6.88694 0
M  V30 49503 O 1597.68 -5.7877 -6.5624 0
M  V30 49504 C 1597.19 -3.47817 -6.12078 0
M  V30 49505 C 1597.9 -3.39414 -4.77697 0
M  V30 49506 N 1597.85 -2.04615 -4.15333 0
M  V30 49507 H 1600.69 -3.41248 -7.98759 0
M  V30 49508 H 1600.96 -2.5837 -6.41742 0
M  V30 49509 H 1600.09 -5.02657 -6.42673 0
M  V30 49510 P 1596.13 -6.144 -6.45285 0
M  V30 49511 O 1595.91 -7.54673 -6.86199 0
M  V30 49512 O 1595.34 -5.12391 -7.179 0
M  V30 49513 O 1595.88 -5.99236 -4.88467 0
M  V30 49514 C 1596.82 -6.60234 -3.96415 0
M  V30 49515 C 1596.09 -7.08079 -2.736 0
M  V30 49516 O 1595.88 -5.94365 -1.8368 0
M  V30 49517 C 1594.69 -7.64886 -2.9555 0
M  V30 49518 O 1594.3 -8.5406 -1.90739 0
M  V30 49519 C 1593.81 -6.4116 -2.90739 0
M  V30 49520 C 1594.52 -5.55375 -1.86963 0
M  V30 49521 N 1594.47 -4.09664 -2.15742 0
M  V30 49522 C 1594.32 -3.22231 -1.08477 0
M  V30 49523 O 1594.23 -3.68951 0.0600489 0
M  V30 49524 N 1594.27 -1.76692 -1.48799 0
M  V30 49525 C 1594.37 -1.41695 -2.57602 0
M  V30 49526 N 1594.32 -0.107296 -2.75791 0
M  V30 49527 C 1594.52 -2.29178 -3.69733 0
M  V30 49528 C 1594.57 -3.62753 -3.42653 0
M  V30 49529 H 1597.31 -7.45488 -4.45578 0
M  V30 49530 H 1597.58 -5.86232 -3.67314 0
M  V30 49531 H 1596.71 -7.84508 -2.24507 0
M  V30 49532 H 1594.06 -5.73556 -0.888715 0
M  V30 49533 H 1593.78 -5.9096 -3.88638 0
M  V30 49534 H 1592.79 -6.66053 -2.58894 0
M  V30 49535 H 1594.62 -8.16339 -3.92049 0
M  V30 49536 H 1594.69 -4.33052 -4.24913 0
M  V30 49537 H 1594.59 -1.9103 -4.71577 0
M  V30 49538 H 1594.2 0.521221 -1.95056 0
M  V30 49539 H 1594.4 0.286429 -3.70695 0
M  V30 49540 P 1592.75 -8.7635 -1.60911 0
M  V30 49541 O 1592.53 -10.1388 -1.11561 0
M  V30 49542 O 1591.96 -8.36503 -2.79617 0
M  V30 49543 O 1592.5 -7.71806 -0.42951 0
M  V30 49544 C 1593.44 -7.67148 0.673689 0
M  V30 49545 C 1592.71 -7.33374 1.95559 0
M  V30 49546 O 1592.5 -5.88721 2.00726 0
M  V30 49547 C 1591.31 -7.92526 2.10483 0
M  V30 49548 O 1590.92 -8.02971 3.47653 0
M  V30 49549 C 1590.43 -6.89602 1.41652 0
M  V30 49550 C 1591.14 -5.59201 1.75185 0
M  V30 49551 N 1591.09 -4.58301 0.657969 0
M  V30 49552 H 1593.93 -8.65116 0.777161 0
M  V30 49553 H 1594.2 -6.9022 0.46725 0
M  V30 49554 H 1593.33 -7.66548 2.79458 0
M  V30 49555 H 1590.68 -5.16165 2.65183 0
M  V30 49556 H 1590.4 -7.06433 0.329384 0
M  V30 49557 H 1589.41 -6.90926 1.82021 0
M  V30 49558 H 1591.24 -8.90873 1.62657 0
M  V30 49559 P 1589.37 -8.03563 3.84925 0
M  V30 49560 O 1589.15 -8.85821 5.0569 0
M  V30 49561 O 1588.58 -8.41101 2.65469 0
M  V30 49562 O 1589.12 -6.4965 4.18908 0
M  V30 49563 C 1590.06 -5.81037 5.05421 0
M  V30 49564 C 1589.33 -4.78366 5.89277 0
M  V30 49565 O 1589.12 -3.58302 5.08433 0
M  V30 49566 C 1587.93 -5.17448 6.36119 0
M  V30 49567 O 1587.54 -4.45271 7.53232 0
M  V30 49568 C 1587.05 -4.74639 5.19936 0
M  V30 49569 C 1587.76 -3.49432 4.70418 0
M  V30 49570 N 1587.71 -3.31776 3.22945 0
M  V30 49571 H 1590.55 -6.54213 5.71376 0
M  V30 49572 H 1590.82 -5.30492 4.44033 0
M  V30 49573 H 1589.95 -4.55889 6.76652 0
M  V30 49574 P 1585.99 -4.23843 7.83734 0
M  V30 49575 O 1585.77 -4.19407 9.29784 0
M  V30 49576 O 1585.2 -5.24426 7.09156 0
M  V30 49577 O 1585.74 -2.7935 7.20758 0
M  V30 49578 C 1586.68 -1.72945 7.50224 0
M  V30 49579 C 1585.95 -0.406376 7.57911 0
M  V30 49580 O 1585.74 0.0897726 6.21935 0
M  V30 49581 C 1584.55 -0.438983 8.18724 0
M  V30 49582 O 1584.16 0.825065 8.71101 0
M  V30 49583 C 1583.67 -0.783689 6.99524 0
M  V30 49584 C 1584.38 -0.0619086 5.85867 0
M  V30 49585 N 1584.33 -0.78573 4.56183 0
M  V30 49586 C 1584.18 -0.0292889 3.41887 0
M  V30 49587 O 1584.09 1.18445 3.4419 0
M  V30 49588 N 1584.14 -0.744061 2.23964 0
M  V30 49589 C 1584.23 -2.10932 2.10362 0
M  V30 49590 O 1584.18 -2.64117 0.98825 0
M  V30 49591 C 1584.38 -2.8202 3.34994 0
M  V30 49592 C 1584.49 -4.31095 3.25037 0
M  V30 49593 C 1584.43 -2.15547 4.52261 0
M  V30 49594 H 1587.17 -1.93379 8.46595 0
M  V30 49595 H 1587.44 -1.68132 6.70852 0
M  V30 49596 H 1586.57 0.289041 8.15388 0
M  V30 49597 H 1583.92 0.926847 5.72749 0
M  V30 49598 H 1583.64 -1.86973 6.82036 0
M  V30 49599 H 1582.65 -0.403896 7.13257 0
M  V30 49600 H 1584.48 -1.20585 8.97435 0
M  V30 49601 H 1584.55 -2.71231 5.45042 0
M  V30 49602 H 1583.52 -4.76966 3.49992 0
M  V30 49603 H 1585.26 -4.67047 3.95024 0
M  V30 49604 H 1584.77 -4.58996 2.22312 0
M  V30 49605 H 1584.04 -0.214893 1.39758 0
M  V30 49606 P 1582.61 1.17771 8.83182 0
M  V30 49607 O 1582.39 2.07206 9.98732 0
M  V30 49608 O 1581.82 -0.0743816 8.81969 0
M  V30 49609 O 1582.36 1.97652 7.47304 0
M  V30 49610 C 1583.3 3.01133 7.08783 0
M  V30 49611 C 1582.57 4.12613 6.37049 0
M  V30 49612 O 1582.36 3.72827 4.97879 0
M  V30 49613 C 1581.17 4.45085 6.88694 0
M  V30 49614 O 1580.78 5.7877 6.5624 0
M  V30 49615 C 1580.29 3.47817 6.12078 0
M  V30 49616 C 1581 3.39414 4.77697 0
M  V30 49617 N 1580.95 2.04615 4.15333 0
M  V30 49618 H 1583.79 3.41248 7.98759 0
M  V30 49619 H 1584.06 2.5837 6.41742 0
M  V30 49620 H 1583.19 5.02657 6.42673 0
M  V30 49621 P 1579.23 6.144 6.45285 0
M  V30 49622 O 1579.01 7.54673 6.86199 0
M  V30 49623 O 1578.44 5.12391 7.179 0
M  V30 49624 O 1578.98 5.99158 4.88404 0
M  V30 49625 C 1579.92 6.60234 3.96415 0
M  V30 49626 C 1579.19 7.08259 2.72856 0
M  V30 49627 O 1578.98 5.9427 1.83651 0
M  V30 49628 C 1577.79 7.64886 2.9555 0
M  V30 49629 O 1577.4 8.53963 1.90717 0
M  V30 49630 C 1576.91 6.4116 2.90739 0
M  V30 49631 C 1577.62 5.55375 1.86963 0
M  V30 49632 N 1577.57 4.09448 2.16152 0
M  V30 49633 C 1577.65 3.46824 3.37593 0
M  V30 49634 N 1577.58 2.17422 3.29777 0
M  V30 49635 C 1577.43 1.93065 1.94427 0
M  V30 49636 C 1577.3 0.738053 1.20141 0
M  V30 49637 N 1577.29 -0.474256 1.74676 0
M  V30 49638 N 1577.18 0.850049 -0.13045 0
M  V30 49639 C 1577.19 2.06169 -0.676992 0
M  V30 49640 N 1577.31 3.23842 -0.101312 0
M  V30 49641 C 1577.43 3.09402 1.23122 0
M  V30 49642 H 1580.41 7.45574 4.45629 0
M  V30 49643 H 1580.68 5.85864 3.679 0
M  V30 49644 H 1579.81 7.84412 2.24479 0
M  V30 49645 H 1577.16 5.73457 0.888562 0
M  V30 49646 H 1576.88 5.90877 3.88583 0
M  V30 49647 H 1575.89 6.6596 2.58858 0
M  V30 49648 H 1577.72 8.16339 3.92049 0
M  V30 49649 H 1577.76 4.00505 4.3174 0
M  V30 49650 H 1577.38 -0.581337 2.76658 0
M  V30 49651 H 1577.19 -1.30811 1.14888 0
M  V30 49652 H 1577.08 2.08295 -1.75542 0
M  V30 49653 P 1575.85 8.7635 1.60911 0
M  V30 49654 O 1575.63 10.1388 1.11561 0
M  V30 49655 O 1575.06 8.36503 2.79617 0
M  V30 49656 O 1575.6 7.71806 0.42951 0
M  V30 49657 C 1576.54 7.67148 -0.673689 0
M  V30 49658 C 1575.81 7.33374 -1.95559 0
M  V30 49659 O 1575.6 5.88721 -2.00726 0
M  V30 49660 C 1574.41 7.92526 -2.10483 0
M  V30 49661 O 1574.02 8.02971 -3.47653 0
M  V30 49662 C 1573.53 6.89602 -1.41652 0
M  V30 49663 C 1574.24 5.59201 -1.75185 0
M  V30 49664 N 1574.19 4.58301 -0.657969 0
M  V30 49665 H 1577.03 8.65116 -0.777161 0
M  V30 49666 H 1577.3 6.9022 -0.46725 0
M  V30 49667 H 1576.43 7.66548 -2.79458 0
M  V30 49668 H 1573.78 5.16165 -2.65183 0
M  V30 49669 H 1573.5 7.06433 -0.329384 0
M  V30 49670 H 1572.51 6.90926 -1.82021 0
M  V30 49671 H 1574.34 8.90873 -1.62657 0
M  V30 49672 P 1572.47 8.03563 -3.84925 0
M  V30 49673 O 1572.25 8.85821 -5.0569 0
M  V30 49674 O 1571.68 8.41101 -2.65469 0
M  V30 49675 O 1572.22 6.4965 -4.18908 0
M  V30 49676 C 1573.16 5.80886 -5.05289 0
M  V30 49677 C 1572.43 4.78366 -5.89277 0
M  V30 49678 O 1572.22 3.58302 -5.08433 0
M  V30 49679 C 1571.03 5.16748 -6.36559 0
M  V30 49680 O 1570.64 4.45271 -7.53232 0
M  V30 49681 C 1570.15 4.74572 -5.19863 0
M  V30 49682 C 1570.86 3.49373 -4.70338 0
M  V30 49683 N 1570.81 3.31704 -3.22876 0
M  V30 49684 C 1570.66 2.03326 -2.74871 0
M  V30 49685 O 1570.57 1.06486 -3.48076 0
M  V30 49686 N 1570.62 1.91838 -1.37456 0
M  V30 49687 C 1570.71 2.94295 -0.462035 0
M  V30 49688 O 1570.66 2.71763 0.752928 0
M  V30 49689 C 1570.86 4.25064 -1.05249 0
M  V30 49690 C 1570.97 5.39815 -0.095697 0
M  V30 49691 C 1570.91 4.40214 -2.39192 0
M  V30 49692 H 1573.65 6.54063 -5.71245 0
M  V30 49693 H 1573.92 5.30339 -4.43905 0
M  V30 49694 H 1573.05 4.55889 -6.76652 0
M  V30 49695 H 1570.4 2.6167 -5.17842 0
M  V30 49696 H 1570.12 5.52155 -4.41878 0
M  V30 49697 H 1569.13 4.51918 -5.53297 0
M  V30 49698 H 1570.96 6.25055 -6.55162 0
M  V30 49699 H 1571.03 5.39798 -2.81523 0
M  V30 49700 H 1570 5.91593 -0.0279582 0
M  V30 49701 H 1571.74 6.10038 -0.450573 0
M  V30 49702 H 1571.25 5.02007 0.89937 0
M  V30 49703 H 1570.52 0.995326 -1.00435 0
M  V30 49704 P 1569.09 4.23843 -7.83734 0
M  V30 49705 O 1568.87 4.19407 -9.29784 0
M  V30 49706 O 1568.3 5.24426 -7.09156 0
M  V30 49707 O 1568.84 2.7935 -7.20758 0
M  V30 49708 C 1569.78 1.7299 -7.50419 0
M  V30 49709 C 1569.05 0.406376 -7.57911 0
M  V30 49710 O 1568.84 -0.0897726 -6.21935 0
M  V30 49711 C 1567.65 0.447224 -8.1878 0
M  V30 49712 O 1567.26 -0.825065 -8.71101 0
M  V30 49713 C 1566.77 0.783801 -6.99623 0
M  V30 49714 C 1567.48 0.0619192 -5.85967 0
M  V30 49715 N 1567.43 0.790462 -4.56202 0
M  V30 49716 H 1570.27 1.93423 -8.4679 0
M  V30 49717 H 1570.54 1.68852 -6.70877 0
M  V30 49718 H 1569.67 -0.289041 -8.15388 0
M  V30 49719 H 1567.02 -0.927006 -5.72848 0
M  V30 49720 H 1566.74 1.86973 -6.82036 0
M  V30 49721 H 1565.75 0.403953 -7.13357 0
M  V30 49722 H 1567.58 1.20599 -8.97534 0
M  V30 49723 P 1565.71 -1.17771 -8.83182 0
M  V30 49724 O 1565.49 -2.07206 -9.98732 0
M  V30 49725 O 1564.92 0.0743816 -8.81969 0
M  V30 49726 O 1565.46 -1.97652 -7.47304 0
M  V30 49727 C 1566.4 -3.01133 -7.08783 0
M  V30 49728 C 1565.67 -4.12613 -6.37049 0
M  V30 49729 O 1565.46 -3.72827 -4.97879 0
M  V30 49730 C 1564.27 -4.45085 -6.88694 0
M  V30 49731 O 1563.88 -5.7877 -6.5624 0
M  V30 49732 C 1563.39 -3.47817 -6.12078 0
M  V30 49733 C 1564.1 -3.39414 -4.77697 0
M  V30 49734 N 1564.05 -2.04199 -4.15538 0
M  V30 49735 H 1566.89 -3.41248 -7.98759 0
M  V30 49736 H 1567.16 -2.57728 -6.42 0
M  V30 49737 H 1566.29 -5.02657 -6.42673 0
M  V30 49738 H 1563.64 -4.11708 -4.08956 0
M  V30 49739 H 1563.36 -2.49626 -6.61679 0
M  V30 49740 H 1562.37 -3.8662 -6.00862 0
M  V30 49741 H 1564.2 -4.29991 -7.97006 0
M  V30 49742 P 1562.33 -6.144 -6.45285 0
M  V30 49743 O 1562.11 -7.54673 -6.86199 0
M  V30 49744 O 1561.54 -5.12391 -7.179 0
M  V30 49745 O 1562.08 -5.99236 -4.88467 0
M  V30 49746 C 1563.02 -6.60234 -3.96415 0
M  V30 49747 C 1562.29 -7.08079 -2.736 0
M  V30 49748 O 1562.08 -5.94365 -1.8368 0
M  V30 49749 C 1560.89 -7.64886 -2.9555 0
M  V30 49750 O 1560.5 -8.5406 -1.90739 0
M  V30 49751 C 1560.01 -6.4116 -2.90739 0
M  V30 49752 C 1560.72 -5.55375 -1.86963 0
M  V30 49753 N 1560.67 -4.09664 -2.15742 0
M  V30 49754 C 1560.52 -3.22231 -1.08477 0
M  V30 49755 O 1560.43 -3.68951 0.0600489 0
M  V30 49756 N 1560.47 -1.76692 -1.48799 0
M  V30 49757 C 1560.57 -1.41695 -2.57602 0
M  V30 49758 N 1560.52 -0.107296 -2.75791 0
M  V30 49759 C 1560.72 -2.29178 -3.69733 0
M  V30 49760 C 1560.77 -3.62753 -3.42653 0
M  V30 49761 H 1563.51 -7.45488 -4.45578 0
M  V30 49762 H 1563.78 -5.86232 -3.67314 0
M  V30 49763 H 1562.91 -7.84508 -2.24507 0
M  V30 49764 H 1560.26 -5.73556 -0.888715 0
M  V30 49765 H 1559.98 -5.9096 -3.88638 0
M  V30 49766 H 1558.99 -6.66053 -2.58894 0
M  V30 49767 H 1560.82 -8.16339 -3.92049 0
M  V30 49768 H 1560.89 -4.33052 -4.24913 0
M  V30 49769 H 1560.79 -1.9103 -4.71577 0
M  V30 49770 H 1560.4 0.521221 -1.95056 0
M  V30 49771 H 1560.6 0.286429 -3.70695 0
M  V30 49772 P 1558.95 -8.7635 -1.60911 0
M  V30 49773 O 1558.73 -10.1388 -1.11561 0
M  V30 49774 O 1558.16 -8.36503 -2.79617 0
M  V30 49775 O 1558.7 -7.71806 -0.42951 0
M  V30 49776 C 1559.64 -7.67148 0.673689 0
M  V30 49777 C 1558.91 -7.33374 1.95559 0
M  V30 49778 O 1558.7 -5.88721 2.00726 0
M  V30 49779 C 1557.51 -7.92526 2.10483 0
M  V30 49780 O 1557.12 -8.02971 3.47653 0
M  V30 49781 C 1556.63 -6.89602 1.41652 0
M  V30 49782 C 1557.34 -5.59201 1.75185 0
M  V30 49783 N 1557.29 -4.58235 0.662552 0
M  V30 49784 H 1560.13 -8.65116 0.777161 0
M  V30 49785 H 1560.4 -6.90173 0.474152 0
M  V30 49786 H 1559.53 -7.66548 2.79458 0
M  V30 49787 P 1555.57 -8.03563 3.84925 0
M  V30 49788 O 1555.35 -8.85821 5.0569 0
M  V30 49789 O 1554.78 -8.41101 2.65469 0
M  V30 49790 O 1555.32 -6.4965 4.18908 0
M  V30 49791 C 1556.26 -5.81037 5.05421 0
M  V30 49792 C 1555.53 -4.78366 5.89277 0
M  V30 49793 O 1555.32 -3.58302 5.08433 0
M  V30 49794 C 1554.13 -5.17448 6.36119 0
M  V30 49795 O 1553.74 -4.45271 7.53232 0
M  V30 49796 C 1553.25 -4.74639 5.19936 0
M  V30 49797 C 1553.96 -3.49432 4.70418 0
M  V30 49798 N 1553.91 -3.32099 3.22613 0
M  V30 49799 C 1553.99 -4.28245 2.25527 0
M  V30 49800 N 1553.92 -3.80823 1.04874 0
M  V30 49801 C 1553.77 -2.44571 1.23535 0
M  V30 49802 C 1553.64 -1.37068 0.330675 0
M  V30 49803 N 1553.63 -1.51472 -0.990824 0
M  V30 49804 N 1553.52 -0.138614 0.848756 0
M  V30 49805 C 1553.53 0.00675923 2.16999 0
M  V30 49806 N 1553.65 -0.904372 3.11122 0
M  V30 49807 C 1553.77 -2.12707 2.56212 0
M  V30 49808 H 1556.75 -6.54213 5.71376 0
M  V30 49809 H 1557.02 -5.30936 4.43503 0
M  V30 49810 H 1556.15 -4.55889 6.76652 0
M  V30 49811 H 1553.5 -2.61715 5.17932 0
M  V30 49812 H 1553.22 -5.52155 4.41878 0
M  V30 49813 H 1552.23 -4.51981 5.53374 0
M  V30 49814 H 1554.06 -6.25124 6.55234 0
M  V30 49815 H 1554.1 -5.34372 2.47488 0
M  V30 49816 H 1553.72 -2.45153 -1.4078 0
M  V30 49817 H 1553.53 -0.688422 -1.59911 0
M  V30 49818 H 1553.42 1.02584 2.52346 0
M  V30 49819 P 1552.19 -4.23843 7.83734 0
M  V30 49820 O 1551.97 -4.19407 9.29784 0
M  V30 49821 O 1551.4 -5.24426 7.09156 0
M  V30 49822 O 1551.94 -2.7935 7.20758 0
M  V30 49823 C 1552.88 -1.7299 7.50419 0
M  V30 49824 C 1552.15 -0.406376 7.57911 0
M  V30 49825 O 1551.94 0.0897726 6.21935 0
M  V30 49826 C 1550.75 -0.447224 8.1878 0
M  V30 49827 O 1550.36 0.825065 8.71101 0
M  V30 49828 C 1549.87 -0.783801 6.99623 0
M  V30 49829 C 1550.58 -0.0619192 5.85967 0
M  V30 49830 N 1550.53 -0.7859 4.56281 0
M  V30 49831 H 1553.37 -1.93423 8.4679 0
M  V30 49832 H 1553.64 -1.68181 6.71046 0
M  V30 49833 H 1552.77 0.289041 8.15388 0
M  V30 49834 P 1548.81 1.17771 8.83182 0
M  V30 49835 O 1548.59 2.07206 9.98732 0
M  V30 49836 O 1548.02 -0.0743816 8.81969 0
M  V30 49837 O 1548.56 1.97652 7.47304 0
M  V30 49838 C 1549.5 3.01133 7.08783 0
M  V30 49839 C 1548.77 4.12613 6.37049 0
M  V30 49840 O 1548.56 3.72827 4.97879 0
M  V30 49841 C 1547.37 4.45085 6.88694 0
M  V30 49842 O 1546.98 5.7877 6.5624 0
M  V30 49843 C 1546.49 3.47817 6.12078 0
M  V30 49844 C 1547.2 3.39414 4.77697 0
M  V30 49845 N 1547.15 2.04615 4.15333 0
M  V30 49846 H 1549.99 3.41248 7.98759 0
M  V30 49847 H 1550.26 2.5837 6.41742 0
M  V30 49848 H 1549.39 5.02657 6.42673 0
M  V30 49849 P 1545.43 6.144 6.45285 0
M  V30 49850 O 1545.21 7.54673 6.86199 0
M  V30 49851 O 1544.64 5.12391 7.179 0
M  V30 49852 O 1545.18 5.99158 4.88404 0
M  V30 49853 C 1546.12 6.60234 3.96415 0
M  V30 49854 C 1545.39 7.08259 2.72856 0
M  V30 49855 O 1545.18 5.9427 1.83651 0
M  V30 49856 C 1543.99 7.64886 2.9555 0
M  V30 49857 O 1543.6 8.53963 1.90717 0
M  V30 49858 C 1543.11 6.4116 2.90739 0
M  V30 49859 C 1543.82 5.55375 1.86963 0
M  V30 49860 N 1543.77 4.09664 2.15742 0
M  V30 49861 H 1546.61 7.45574 4.45629 0
M  V30 49862 H 1546.88 5.86232 3.67314 0
M  V30 49863 H 1546.01 7.84412 2.24479 0
M  V30 49864 P 1542.05 8.7635 1.60911 0
M  V30 49865 O 1541.83 10.1388 1.11561 0
M  V30 49866 O 1541.26 8.36503 2.79617 0
M  V30 49867 O 1541.8 7.71806 0.42951 0
M  V30 49868 C 1542.74 7.67148 -0.673689 0
M  V30 49869 C 1542.01 7.33374 -1.95559 0
M  V30 49870 O 1541.8 5.88721 -2.00726 0
M  V30 49871 C 1540.61 7.92526 -2.10483 0
M  V30 49872 O 1540.22 8.02971 -3.47653 0
M  V30 49873 C 1539.73 6.89602 -1.41652 0
M  V30 49874 C 1540.44 5.59201 -1.75185 0
M  V30 49875 N 1540.39 4.58301 -0.657969 0
M  V30 49876 C 1540.47 4.79019 0.692603 0
M  V30 49877 N 1540.4 3.69736 1.38998 0
M  V30 49878 C 1540.25 2.70474 0.438135 0
M  V30 49879 C 1540.12 1.30327 0.538142 0
M  V30 49880 N 1540.11 0.64304 1.69192 0
M  V30 49881 N 1540 0.611027 -0.605183 0
M  V30 49882 C 1540.01 1.27002 -1.75953 0
M  V30 49883 N 1540.13 2.56038 -1.98546 0
M  V30 49884 C 1540.25 3.22681 -0.822541 0
M  V30 49885 H 1543.23 8.65116 -0.777161 0
M  V30 49886 H 1543.5 6.9022 -0.46725 0
M  V30 49887 H 1542.63 7.66548 -2.79458 0
M  V30 49888 H 1539.98 5.16165 -2.65183 0
M  V30 49889 H 1539.7 7.06433 -0.329384 0
M  V30 49890 H 1538.71 6.90926 -1.82021 0
M  V30 49891 H 1540.54 8.90873 -1.62657 0
M  V30 49892 H 1540.58 5.77785 1.13874 0
M  V30 49893 H 1540.2 1.15585 2.57991 0
M  V30 49894 H 1540.01 -0.382989 1.69835 0
M  V30 49895 H 1539.9 0.653331 -2.64449 0
M  V30 49896 P 1538.67 8.03563 -3.84925 0
M  V30 49897 O 1538.45 8.85821 -5.0569 0
M  V30 49898 O 1537.88 8.41101 -2.65469 0
M  V30 49899 O 1538.42 6.4965 -4.18908 0
M  V30 49900 C 1539.36 5.81037 -5.05421 0
M  V30 49901 C 1538.63 4.78366 -5.89277 0
M  V30 49902 O 1538.42 3.58302 -5.08433 0
M  V30 49903 C 1537.23 5.17448 -6.36119 0
M  V30 49904 O 1536.84 4.45271 -7.53232 0
M  V30 49905 C 1536.35 4.74639 -5.19936 0
M  V30 49906 C 1537.06 3.49432 -4.70418 0
M  V30 49907 N 1537.01 3.31776 -3.22945 0
M  V30 49908 C 1537.09 4.27147 -2.23315 0
M  V30 49909 N 1537.01 3.78447 -1.02186 0
M  V30 49910 C 1536.87 2.41001 -1.21732 0
M  V30 49911 C 1536.74 1.36111 -0.27694 0
M  V30 49912 O 1536.72 1.42065 0.951767 0
M  V30 49913 N 1536.62 0.113683 -0.912949 0
M  V30 49914 C 1536.62 -0.0846396 -2.27943 0
M  V30 49915 N 1536.49 -1.34737 -2.6916 0
M  V30 49916 N 1536.75 0.902521 -3.16379 0
M  V30 49917 C 1536.87 2.11937 -2.56849 0
M  V30 49918 H 1539.85 6.54213 -5.71376 0
M  V30 49919 H 1540.12 5.30492 -4.44033 0
M  V30 49920 H 1539.25 4.55889 -6.76652 0
M  V30 49921 H 1536.6 2.6176 -5.18021 0
M  V30 49922 H 1536.32 5.52233 -4.41941 0
M  V30 49923 H 1535.33 4.52045 -5.53452 0
M  V30 49924 H 1537.16 6.25193 -6.55307 0
M  V30 49925 H 1537.21 5.3351 -2.43857 0
M  V30 49926 H 1536.53 -0.69331 -0.330371 0
M  V30 49927 H 1536.49 -1.56433 -3.6988 0
M  V30 49928 H 1536.39 -2.10701 -2.00133 0
M  V30 49929 P 1535.29 4.23843 -7.83734 0
M  V30 49930 O 1535.07 4.19407 -9.29784 0
M  V30 49931 O 1534.5 5.24426 -7.09156 0
M  V30 49932 O 1535.04 2.7935 -7.20758 0
M  V30 49933 C 1535.98 1.7299 -7.50419 0
M  V30 49934 C 1535.25 0.406376 -7.57911 0
M  V30 49935 O 1535.04 -0.0897726 -6.21935 0
M  V30 49936 C 1533.85 0.447224 -8.1878 0
M  V30 49937 O 1533.46 -0.825065 -8.71101 0
M  V30 49938 C 1532.97 0.783801 -6.99623 0
M  V30 49939 C 1533.68 0.0619192 -5.85967 0
M  V30 49940 N 1533.63 0.7859 -4.56281 0
M  V30 49941 H 1536.47 1.93423 -8.4679 0
M  V30 49942 H 1536.74 1.68181 -6.71046 0
M  V30 49943 H 1535.87 -0.289041 -8.15388 0
M  V30 49944 P 1531.91 -1.17771 -8.83182 0
M  V30 49945 O 1531.69 -2.07206 -9.98732 0
M  V30 49946 O 1531.12 0.0743816 -8.81969 0
M  V30 49947 O 1531.66 -1.97652 -7.47304 0
M  V30 49948 C 1532.6 -3.01133 -7.08783 0
M  V30 49949 C 1531.87 -4.12613 -6.37049 0
M  V30 49950 O 1531.66 -3.72827 -4.97879 0
M  V30 49951 C 1530.47 -4.45085 -6.88694 0
M  V30 49952 O 1530.08 -5.7877 -6.5624 0
M  V30 49953 C 1529.59 -3.47817 -6.12078 0
M  V30 49954 C 1530.3 -3.39414 -4.77697 0
M  V30 49955 N 1530.25 -2.04199 -4.15538 0
M  V30 49956 C 1530.33 -0.821545 -4.76977 0
M  V30 49957 N 1530.26 0.1794 -3.94592 0
M  V30 49958 C 1530.11 -0.419121 -2.70776 0
M  V30 49959 C 1529.98 0.109072 -1.40577 0
M  V30 49960 N 1529.97 1.4104 -1.1344 0
M  V30 49961 N 1529.86 -0.764381 -0.39411 0
M  V30 49962 C 1529.87 -2.06587 -0.664135 0
M  V30 49963 N 1529.99 -2.67948 -1.82153 0
M  V30 49964 C 1530.11 -1.77942 -2.8147 0
M  V30 49965 H 1533.09 -3.41248 -7.98759 0
M  V30 49966 H 1533.36 -2.57728 -6.42 0
M  V30 49967 H 1532.49 -5.02657 -6.42673 0
M  V30 49968 H 1529.84 -4.11708 -4.08956 0
M  V30 49969 H 1529.56 -2.49626 -6.61679 0
M  V30 49970 H 1528.57 -3.8662 -6.00862 0
M  V30 49971 H 1530.4 -4.29991 -7.97006 0
M  V30 49972 H 1530.44 -0.702451 -5.84696 0
M  V30 49973 H 1530.06 2.09647 -1.89651 0
M  V30 49974 H 1529.87 1.73358 -0.160575 0
M  V30 49975 H 1529.76 -2.71695 0.195838 0
M  V30 49976 P 1528.53 -6.144 -6.45285 0
M  V30 49977 O 1528.31 -7.54673 -6.86199 0
M  V30 49978 O 1527.74 -5.12391 -7.179 0
M  V30 49979 O 1528.28 -5.99158 -4.88404 0
M  V30 49980 C 1529.22 -6.60234 -3.96415 0
M  V30 49981 C 1528.49 -7.08259 -2.72856 0
M  V30 49982 O 1528.28 -5.9427 -1.83651 0
M  V30 49983 C 1527.09 -7.64886 -2.9555 0
M  V30 49984 O 1526.7 -8.53963 -1.90717 0
M  V30 49985 C 1526.21 -6.4116 -2.90739 0
M  V30 49986 C 1526.92 -5.55375 -1.86963 0
M  V30 49987 N 1526.87 -4.09448 -2.16152 0
M  V30 49988 H 1529.71 -7.45574 -4.45629 0
M  V30 49989 H 1529.98 -5.85864 -3.679 0
M  V30 49990 H 1529.11 -7.84412 -2.24479 0
M  V30 49991 H 1526.46 -5.73457 -0.888562 0
M  V30 49992 H 1526.18 -5.90877 -3.88583 0
M  V30 49993 H 1525.19 -6.6596 -2.58858 0
M  V30 49994 H 1527.02 -8.16339 -3.92049 0
M  V30 49995 P 1525.15 -8.7635 -1.60911 0
M  V30 49996 O 1524.93 -10.1388 -1.11561 0
M  V30 49997 O 1524.36 -8.36503 -2.79617 0
M  V30 49998 O 1524.9 -7.71806 -0.42951 0
M  V30 49999 C 1525.84 -7.67148 0.673689 0
M  V30 50000 C 1525.11 -7.33374 1.95559 0
M  V30 50001 O 1524.9 -5.88721 2.00726 0
M  V30 50002 C 1523.71 -7.92526 2.10483 0
M  V30 50003 O 1523.32 -8.02971 3.47653 0
M  V30 50004 C 1522.83 -6.89602 1.41652 0
M  V30 50005 C 1523.54 -5.59201 1.75185 0
M  V30 50006 N 1523.49 -4.58235 0.662552 0
M  V30 50007 H 1526.33 -8.65116 0.777161 0
M  V30 50008 H 1526.6 -6.90173 0.474152 0
M  V30 50009 H 1525.73 -7.66548 2.79458 0
M  V30 50010 P 1521.77 -8.03563 3.84925 0
M  V30 50011 O 1521.55 -8.85821 5.0569 0
M  V30 50012 O 1520.98 -8.41101 2.65469 0
M  V30 50013 O 1521.52 -6.4965 4.18908 0
M  V30 50014 C 1522.46 -5.80886 5.05289 0
M  V30 50015 C 1521.73 -4.78366 5.89277 0
M  V30 50016 O 1521.52 -3.58302 5.08433 0
M  V30 50017 C 1520.33 -5.16748 6.36559 0
M  V30 50018 O 1519.94 -4.45271 7.53232 0
M  V30 50019 C 1519.45 -4.74572 5.19863 0
M  V30 50020 C 1520.16 -3.49373 4.70338 0
M  V30 50021 N 1520.11 -3.31704 3.22876 0
M  V30 50022 C 1519.96 -2.03326 2.74871 0
M  V30 50023 O 1519.87 -1.06486 3.48076 0
M  V30 50024 N 1519.92 -1.91838 1.37456 0
M  V30 50025 C 1520.01 -2.94295 0.462035 0
M  V30 50026 C 1520.16 -4.25064 1.05249 0
M  V30 50027 C 1520.21 -4.40214 2.39192 0
M  V30 50028 H 1522.95 -6.54063 5.71245 0
M  V30 50029 H 1523.22 -5.30339 4.43905 0
M  V30 50030 H 1522.35 -4.55889 6.76652 0
M  V30 50031 H 1519.7 -2.6167 5.17842 0
M  V30 50032 H 1519.42 -5.52155 4.41878 0
M  V30 50033 H 1518.43 -4.51918 5.53297 0
M  V30 50034 H 1520.26 -6.25055 6.55162 0
M  V30 50035 H 1520.33 -5.39798 2.81523 0
M  V30 50036 P 1518.39 -4.23843 7.83734 0
M  V30 50037 O 1518.17 -4.19407 9.29784 0
M  V30 50038 O 1517.6 -5.24426 7.09156 0
M  V30 50039 O 1518.14 -2.79386 7.20852 0
M  V30 50040 C 1519.08 -1.7299 7.50419 0
M  V30 50041 C 1518.35 -0.41401 7.5797 0
M  V30 50042 O 1518.14 0.089787 6.22035 0
M  V30 50043 C 1516.95 -0.447224 8.1878 0
M  V30 50044 O 1516.56 0.825159 8.71201 0
M  V30 50045 C 1516.07 -0.783801 6.99623 0
M  V30 50046 C 1516.78 -0.0619192 5.85967 0
M  V30 50047 N 1516.73 -0.7859 4.56281 0
M  V30 50048 C 1516.58 -0.0359258 3.39981 0
M  V30 50049 O 1516.49 1.19723 3.49038 0
M  V30 50050 N 1516.53 -0.869151 2.14025 0
M  V30 50051 C 1516.63 -2.01207 2.14363 0
M  V30 50052 N 1516.58 -2.58978 0.954287 0
M  V30 50053 C 1516.78 -2.80817 3.32215 0
M  V30 50054 C 1516.83 -2.13785 4.50884 0
M  V30 50055 H 1519.57 -1.93401 8.46693 0
M  V30 50056 H 1519.84 -1.68181 6.71046 0
M  V30 50057 H 1518.97 0.289076 8.15488 0
M  V30 50058 H 1516.32 0.927166 5.72947 0
M  V30 50059 H 1516.04 -1.87 6.82132 0
M  V30 50060 H 1515.05 -0.404009 7.13457 0
M  V30 50061 H 1516.88 -1.20599 8.97534 0
M  V30 50062 H 1516.95 -2.70295 5.43162 0
M  V30 50063 H 1516.85 -3.89465 3.27406 0
M  V30 50064 H 1516.46 -2.01616 0.107046 0
M  V30 50065 H 1516.66 -3.61403 0.873101 0
M  V30 50066 P 1515.01 1.17771 8.83182 0
M  V30 50067 O 1514.79 2.07206 9.98732 0
M  V30 50068 O 1514.22 -0.0743816 8.81969 0
M  V30 50069 O 1514.76 1.97678 7.474 0
M  V30 50070 C 1515.7 3.01133 7.08783 0
M  V30 50071 C 1514.97 4.1203 6.37546 0
M  V30 50072 O 1514.76 3.72887 4.9796 0
M  V30 50073 C 1513.57 4.45085 6.88694 0
M  V30 50074 O 1513.18 5.78836 6.56315 0
M  V30 50075 C 1512.69 3.47817 6.12078 0
M  V30 50076 C 1513.4 3.39414 4.77697 0
M  V30 50077 N 1513.35 2.04615 4.15333 0
M  V30 50078 C 1513.2 1.96929 2.77162 0
M  V30 50079 O 1513.11 3.02017 2.12006 0
M  V30 50080 N 1513.15 0.55485 2.24237 0
M  V30 50081 C 1513.25 -0.367808 2.9169 0
M  V30 50082 N 1513.2 -1.53426 2.29427 0
M  V30 50083 C 1513.4 -0.319148 4.33828 0
M  V30 50084 C 1513.45 0.920672 4.90433 0
M  V30 50085 H 1516.19 3.41209 7.98667 0
M  V30 50086 H 1516.46 2.5837 6.41742 0
M  V30 50087 H 1515.59 5.02718 6.42752 0
M  V30 50088 H 1512.94 4.11779 4.09026 0
M  V30 50089 H 1512.66 2.49661 6.61772 0
M  V30 50090 H 1511.67 3.86674 6.00946 0
M  V30 50091 H 1513.5 4.29991 7.97006 0
M  V30 50092 H 1513.57 1.00589 5.98303 0
M  V30 50093 H 1513.47 -1.22639 4.93799 0
M  V30 50094 H 1513.08 -1.56819 1.27167 0
M  V30 50095 H 1513.28 -2.41062 2.83063 0
M  V30 50096 P 1511.63 6.144 6.45285 0
M  V30 50097 O 1511.41 7.54673 6.86199 0
M  V30 50098 O 1510.84 5.12391 7.179 0
M  V30 50099 O 1511.38 5.99158 4.88404 0
M  V30 50100 C 1512.32 6.60062 3.96313 0
M  V30 50101 C 1511.59 7.08259 2.72856 0
M  V30 50102 O 1511.38 5.9427 1.83651 0
M  V30 50103 C 1510.19 7.65087 2.94749 0
M  V30 50104 O 1509.8 8.53963 1.90717 0
M  V30 50105 C 1509.31 6.41069 2.90698 0
M  V30 50106 C 1510.02 5.5528 1.86931 0
M  V30 50107 N 1509.97 4.09575 2.15696 0
M  V30 50108 C 1509.82 3.24249 1.08435 0
M  V30 50109 O 1509.73 3.63946 -0.0628747 0
M  V30 50110 N 1509.78 1.90009 1.39973 0
M  V30 50111 C 1509.87 1.34884 2.65614 0
M  V30 50112 O 1509.82 0.123716 2.81728 0
M  V30 50113 C 1510.02 2.3145 3.71736 0
M  V30 50114 C 1510.13 1.75913 5.10438 0
M  V30 50115 C 1510.07 3.63518 3.44754 0
M  V30 50116 H 1512.81 7.45402 4.45526 0
M  V30 50117 H 1513.08 5.86062 3.67208 0
M  V30 50118 H 1512.21 7.84412 2.24479 0
M  V30 50119 H 1509.56 5.73358 0.888409 0
M  V30 50120 H 1509.28 5.90877 3.88583 0
M  V30 50121 H 1508.29 6.65867 2.58821 0
M  V30 50122 H 1510.12 8.16248 3.92006 0
M  V30 50123 H 1510.19 4.34551 4.26383 0
M  V30 50124 H 1509.16 1.85471 5.61775 0
M  V30 50125 H 1510.9 2.31364 5.66257 0
M  V30 50126 H 1510.41 0.695936 5.05229 0
M  V30 50127 H 1509.68 1.26277 0.63625 0
M  V30 50128 P 1508.25 8.7635 1.60911 0
M  V30 50129 O 1508.03 10.1388 1.11561 0
M  V30 50130 O 1507.46 8.36503 2.79617 0
M  V30 50131 O 1508 7.71806 0.42951 0
M  V30 50132 C 1508.94 7.67148 -0.673689 0
M  V30 50133 C 1508.21 7.33374 -1.95559 0
M  V30 50134 O 1508 5.88721 -2.00726 0
M  V30 50135 C 1506.81 7.92526 -2.10483 0
M  V30 50136 O 1506.42 8.02971 -3.47653 0
M  V30 50137 C 1505.93 6.89602 -1.41652 0
M  V30 50138 C 1506.64 5.59201 -1.75185 0
M  V30 50139 N 1506.59 4.58301 -0.657969 0
M  V30 50140 H 1509.43 8.65116 -0.777161 0
M  V30 50141 H 1509.7 6.9022 -0.46725 0
M  V30 50142 H 1508.83 7.66548 -2.79458 0
M  V30 50143 H 1506.18 5.16165 -2.65183 0
M  V30 50144 H 1505.9 7.06433 -0.329384 0
M  V30 50145 H 1504.91 6.90926 -1.82021 0
M  V30 50146 H 1506.74 8.90873 -1.62657 0
M  V30 50147 P 1504.87 8.03563 -3.84925 0
M  V30 50148 O 1504.65 8.85821 -5.0569 0
M  V30 50149 O 1504.08 8.41101 -2.65469 0
M  V30 50150 O 1504.62 6.4965 -4.18908 0
M  V30 50151 C 1505.56 5.81037 -5.05421 0
M  V30 50152 C 1504.83 4.78366 -5.89277 0
M  V30 50153 O 1504.62 3.58302 -5.08433 0
M  V30 50154 C 1503.43 5.17448 -6.36119 0
M  V30 50155 O 1503.04 4.45271 -7.53232 0
M  V30 50156 C 1502.55 4.74639 -5.19936 0
M  V30 50157 C 1503.26 3.49432 -4.70418 0
M  V30 50158 N 1503.21 3.31776 -3.22945 0
M  V30 50159 H 1506.05 6.54213 -5.71376 0
M  V30 50160 H 1506.32 5.30492 -4.44033 0
M  V30 50161 H 1505.45 4.55889 -6.76652 0
M  V30 50162 P 1501.49 4.23843 -7.83734 0
M  V30 50163 O 1501.27 4.19407 -9.29784 0
M  V30 50164 O 1500.7 5.24426 -7.09156 0
M  V30 50165 O 1501.24 2.7935 -7.20758 0
M  V30 50166 C 1502.18 1.72945 -7.50224 0
M  V30 50167 C 1501.45 0.406376 -7.57911 0
M  V30 50168 O 1501.24 -0.0897726 -6.21935 0
M  V30 50169 C 1500.05 0.438983 -8.18724 0
M  V30 50170 O 1499.66 -0.825065 -8.71101 0
M  V30 50171 C 1499.17 0.783689 -6.99524 0
M  V30 50172 C 1499.88 0.0619086 -5.85867 0
M  V30 50173 N 1499.83 0.78573 -4.56183 0
M  V30 50174 C 1499.68 0.0292889 -3.41887 0
M  V30 50175 O 1499.59 -1.18445 -3.4419 0
M  V30 50176 N 1499.64 0.744061 -2.23964 0
M  V30 50177 C 1499.73 2.10932 -2.10362 0
M  V30 50178 O 1499.68 2.64117 -0.98825 0
M  V30 50179 C 1499.88 2.8202 -3.34994 0
M  V30 50180 C 1499.99 4.31095 -3.25037 0
M  V30 50181 C 1499.93 2.15547 -4.52261 0
M  V30 50182 H 1502.67 1.93379 -8.46595 0
M  V30 50183 H 1502.94 1.68132 -6.70852 0
M  V30 50184 H 1502.07 -0.289041 -8.15388 0
M  V30 50185 H 1499.42 -0.926847 -5.72749 0
M  V30 50186 H 1499.14 1.86973 -6.82036 0
M  V30 50187 H 1498.15 0.403896 -7.13257 0
M  V30 50188 H 1499.98 1.20585 -8.97435 0
M  V30 50189 H 1500.05 2.71231 -5.45042 0
M  V30 50190 H 1499.02 4.76966 -3.49992 0
M  V30 50191 H 1500.76 4.67047 -3.95024 0
M  V30 50192 H 1500.27 4.58996 -2.22312 0
M  V30 50193 H 1499.54 0.214893 -1.39758 0
M  V30 50194 P 1498.11 -1.17771 -8.83182 0
M  V30 50195 O 1497.89 -2.07206 -9.98732 0
M  V30 50196 O 1497.32 0.0743816 -8.81969 0
M  V30 50197 O 1497.86 -1.97652 -7.47304 0
M  V30 50198 C 1498.8 -3.01133 -7.08783 0
M  V30 50199 C 1498.07 -4.12613 -6.37049 0
M  V30 50200 O 1497.86 -3.72827 -4.97879 0
M  V30 50201 C 1496.67 -4.45085 -6.88694 0
M  V30 50202 O 1496.28 -5.7877 -6.5624 0
M  V30 50203 C 1495.79 -3.47817 -6.12078 0
M  V30 50204 C 1496.5 -3.39414 -4.77697 0
M  V30 50205 N 1496.45 -2.04199 -4.15538 0
M  V30 50206 H 1499.29 -3.41248 -7.98759 0
M  V30 50207 H 1499.56 -2.57728 -6.42 0
M  V30 50208 H 1498.69 -5.02657 -6.42673 0
M  V30 50209 H 1496.04 -4.11708 -4.08956 0
M  V30 50210 H 1495.76 -2.49626 -6.61679 0
M  V30 50211 H 1494.77 -3.8662 -6.00862 0
M  V30 50212 H 1496.6 -4.29991 -7.97006 0
M  V30 50213 P 1494.73 -6.144 -6.45285 0
M  V30 50214 O 1494.51 -7.54673 -6.86199 0
M  V30 50215 O 1493.94 -5.12391 -7.179 0
M  V30 50216 O 1494.48 -5.99158 -4.88404 0
M  V30 50217 C 1495.42 -6.60234 -3.96415 0
M  V30 50218 C 1494.69 -7.08259 -2.72856 0
M  V30 50219 O 1494.48 -5.9427 -1.83651 0
M  V30 50220 C 1493.29 -7.64886 -2.9555 0
M  V30 50221 O 1492.9 -8.53963 -1.90717 0
M  V30 50222 C 1492.41 -6.4116 -2.90739 0
M  V30 50223 C 1493.12 -5.55375 -1.86963 0
M  V30 50224 N 1493.07 -4.09448 -2.16152 0
M  V30 50225 H 1495.91 -7.45574 -4.45629 0
M  V30 50226 H 1496.18 -5.85864 -3.679 0
M  V30 50227 H 1495.31 -7.84412 -2.24479 0
M  V30 50228 H 1492.66 -5.73457 -0.888562 0
M  V30 50229 H 1492.38 -5.90877 -3.88583 0
M  V30 50230 H 1491.39 -6.6596 -2.58858 0
M  V30 50231 H 1493.22 -8.16339 -3.92049 0
M  V30 50232 P 1491.35 -8.7635 -1.60911 0
M  V30 50233 O 1491.13 -10.1388 -1.11561 0
M  V30 50234 O 1490.56 -8.36503 -2.79617 0
M  V30 50235 O 1491.1 -7.71806 -0.42951 0
M  V30 50236 C 1492.04 -7.67148 0.673689 0
M  V30 50237 C 1491.31 -7.33374 1.95559 0
M  V30 50238 O 1491.1 -5.88721 2.00726 0
M  V30 50239 C 1489.91 -7.92526 2.10483 0
M  V30 50240 O 1489.52 -8.02971 3.47653 0
M  V30 50241 C 1489.03 -6.89602 1.41652 0
M  V30 50242 C 1489.74 -5.59201 1.75185 0
M  V30 50243 N 1489.69 -4.58235 0.662552 0
M  V30 50244 H 1492.53 -8.65116 0.777161 0
M  V30 50245 H 1492.8 -6.90173 0.474152 0
M  V30 50246 H 1491.93 -7.66548 2.79458 0
M  V30 50247 P 1487.97 -8.03563 3.84925 0
M  V30 50248 O 1487.75 -8.85821 5.0569 0
M  V30 50249 O 1487.18 -8.41101 2.65469 0
M  V30 50250 O 1487.72 -6.4965 4.18908 0
M  V30 50251 C 1488.66 -5.81037 5.05421 0
M  V30 50252 C 1487.93 -4.78366 5.89277 0
M  V30 50253 O 1487.72 -3.58302 5.08433 0
M  V30 50254 C 1486.53 -5.17448 6.36119 0
M  V30 50255 O 1486.14 -4.45271 7.53232 0
M  V30 50256 C 1485.65 -4.74639 5.19936 0
M  V30 50257 C 1486.36 -3.49432 4.70418 0
M  V30 50258 N 1486.31 -3.32099 3.22613 0
M  V30 50259 H 1489.15 -6.54213 5.71376 0
M  V30 50260 H 1489.42 -5.30936 4.43503 0
M  V30 50261 H 1488.55 -4.55889 6.76652 0
M  V30 50262 H 1485.9 -2.61715 5.17932 0
M  V30 50263 H 1485.62 -5.52155 4.41878 0
M  V30 50264 H 1484.63 -4.51981 5.53374 0
M  V30 50265 H 1486.46 -6.25124 6.55234 0
M  V30 50266 P 1484.59 -4.23843 7.83734 0
M  V30 50267 O 1484.37 -4.19407 9.29784 0
M  V30 50268 O 1483.8 -5.24426 7.09156 0
M  V30 50269 O 1484.34 -2.7935 7.20758 0
M  V30 50270 C 1485.28 -1.7299 7.50419 0
M  V30 50271 C 1484.55 -0.406376 7.57911 0
M  V30 50272 O 1484.34 0.0897726 6.21935 0
M  V30 50273 C 1483.15 -0.447224 8.1878 0
M  V30 50274 O 1482.76 0.825065 8.71101 0
M  V30 50275 C 1482.27 -0.783801 6.99623 0
M  V30 50276 C 1482.98 -0.0619192 5.85967 0
M  V30 50277 N 1482.93 -0.7859 4.56281 0
M  V30 50278 H 1485.77 -1.93423 8.4679 0
M  V30 50279 H 1486.04 -1.68181 6.71046 0
M  V30 50280 H 1485.17 0.289041 8.15388 0
M  V30 50281 P 1481.21 1.17771 8.83182 0
M  V30 50282 O 1480.99 2.07206 9.98732 0
M  V30 50283 O 1480.42 -0.0743816 8.81969 0
M  V30 50284 O 1480.96 1.97652 7.47304 0
M  V30 50285 C 1481.9 3.01133 7.08783 0
M  V30 50286 C 1481.17 4.12613 6.37049 0
M  V30 50287 O 1480.96 3.72827 4.97879 0
M  V30 50288 C 1479.77 4.45085 6.88694 0
M  V30 50289 O 1479.38 5.7877 6.5624 0
M  V30 50290 C 1478.89 3.47817 6.12078 0
M  V30 50291 C 1479.6 3.39414 4.77697 0
M  V30 50292 N 1479.55 2.04615 4.15333 0
M  V30 50293 H 1482.39 3.41248 7.98759 0
M  V30 50294 H 1482.66 2.5837 6.41742 0
M  V30 50295 H 1481.79 5.02657 6.42673 0
M  V30 50296 P 1477.83 6.144 6.45285 0
M  V30 50297 O 1477.61 7.54673 6.86199 0
M  V30 50298 O 1477.04 5.12391 7.179 0
M  V30 50299 O 1477.58 5.99236 4.88467 0
M  V30 50300 C 1478.52 6.60234 3.96415 0
M  V30 50301 C 1477.79 7.08079 2.736 0
M  V30 50302 O 1477.58 5.94365 1.8368 0
M  V30 50303 C 1476.39 7.64886 2.9555 0
M  V30 50304 O 1476 8.5406 1.90739 0
M  V30 50305 C 1475.51 6.4116 2.90739 0
M  V30 50306 C 1476.22 5.55375 1.86963 0
M  V30 50307 N 1476.17 4.09664 2.15742 0
M  V30 50308 C 1476.02 3.22231 1.08477 0
M  V30 50309 O 1475.93 3.68951 -0.0600489 0
M  V30 50310 N 1475.97 1.76692 1.48799 0
M  V30 50311 C 1476.07 1.41695 2.57602 0
M  V30 50312 N 1476.02 0.107296 2.75791 0
M  V30 50313 C 1476.22 2.29178 3.69733 0
M  V30 50314 C 1476.27 3.62753 3.42653 0
M  V30 50315 H 1479.01 7.45488 4.45578 0
M  V30 50316 H 1479.28 5.86232 3.67314 0
M  V30 50317 H 1478.41 7.84508 2.24507 0
M  V30 50318 H 1475.76 5.73556 0.888715 0
M  V30 50319 H 1475.48 5.9096 3.88638 0
M  V30 50320 H 1474.49 6.66053 2.58894 0
M  V30 50321 H 1476.32 8.16339 3.92049 0
M  V30 50322 H 1476.39 4.33052 4.24913 0
M  V30 50323 H 1476.29 1.9103 4.71577 0
M  V30 50324 H 1475.9 -0.521221 1.95056 0
M  V30 50325 H 1476.1 -0.286429 3.70695 0
M  V30 50326 P 1474.45 8.7635 1.60911 0
M  V30 50327 O 1474.23 10.1388 1.11561 0
M  V30 50328 O 1473.66 8.36503 2.79617 0
M  V30 50329 O 1474.2 7.71806 0.42951 0
M  V30 50330 C 1475.14 7.67148 -0.673689 0
M  V30 50331 C 1474.41 7.33374 -1.95559 0
M  V30 50332 O 1474.2 5.88721 -2.00726 0
M  V30 50333 C 1473.01 7.92526 -2.10483 0
M  V30 50334 O 1472.62 8.02971 -3.47653 0
M  V30 50335 C 1472.13 6.89602 -1.41652 0
M  V30 50336 C 1472.84 5.59201 -1.75185 0
M  V30 50337 N 1472.79 4.58301 -0.657969 0
M  V30 50338 H 1475.63 8.65116 -0.777161 0
M  V30 50339 H 1475.9 6.9022 -0.46725 0
M  V30 50340 H 1475.03 7.66548 -2.79458 0
M  V30 50341 H 1472.38 5.16165 -2.65183 0
M  V30 50342 H 1472.1 7.06433 -0.329384 0
M  V30 50343 H 1471.11 6.90926 -1.82021 0
M  V30 50344 H 1472.94 8.90873 -1.62657 0
M  V30 50345 P 1471.07 8.03563 -3.84925 0
M  V30 50346 O 1470.85 8.85821 -5.0569 0
M  V30 50347 O 1470.28 8.41101 -2.65469 0
M  V30 50348 O 1470.82 6.4965 -4.18908 0
M  V30 50349 C 1471.76 5.81037 -5.05421 0
M  V30 50350 C 1471.03 4.78366 -5.89277 0
M  V30 50351 O 1470.82 3.58302 -5.08433 0
M  V30 50352 C 1469.63 5.17448 -6.36119 0
M  V30 50353 O 1469.24 4.45271 -7.53232 0
M  V30 50354 C 1468.75 4.74639 -5.19936 0
M  V30 50355 C 1469.46 3.49432 -4.70418 0
M  V30 50356 N 1469.41 3.31776 -3.22945 0
M  V30 50357 H 1472.25 6.54213 -5.71376 0
M  V30 50358 H 1472.52 5.30492 -4.44033 0
M  V30 50359 H 1471.65 4.55889 -6.76652 0
M  V30 50360 P 1467.69 4.23843 -7.83734 0
M  V30 50361 O 1467.47 4.19407 -9.29784 0
M  V30 50362 O 1466.9 5.24426 -7.09156 0
M  V30 50363 O 1467.44 2.7935 -7.20758 0
M  V30 50364 C 1468.38 1.72945 -7.50224 0
M  V30 50365 C 1467.65 0.406376 -7.57911 0
M  V30 50366 O 1467.44 -0.0897726 -6.21935 0
M  V30 50367 C 1466.25 0.438983 -8.18724 0
M  V30 50368 O 1465.86 -0.825065 -8.71101 0
M  V30 50369 C 1465.37 0.783689 -6.99524 0
M  V30 50370 C 1466.08 0.0619086 -5.85867 0
M  V30 50371 N 1466.03 0.78573 -4.56183 0
M  V30 50372 C 1465.88 0.0292889 -3.41887 0
M  V30 50373 O 1465.79 -1.18445 -3.4419 0
M  V30 50374 N 1465.84 0.744061 -2.23964 0
M  V30 50375 C 1465.93 2.10932 -2.10362 0
M  V30 50376 C 1466.08 2.8202 -3.34994 0
M  V30 50377 C 1466.13 2.15547 -4.52261 0
M  V30 50378 H 1468.87 1.93379 -8.46595 0
M  V30 50379 H 1469.14 1.68132 -6.70852 0
M  V30 50380 H 1468.27 -0.289041 -8.15388 0
M  V30 50381 H 1465.62 -0.926847 -5.72749 0
M  V30 50382 H 1465.34 1.86973 -6.82036 0
M  V30 50383 H 1464.35 0.403896 -7.13257 0
M  V30 50384 H 1466.18 1.20585 -8.97435 0
M  V30 50385 H 1466.25 2.71231 -5.45042 0
M  V30 50386 P 1464.31 -1.17771 -8.83182 0
M  V30 50387 O 1464.09 -2.07206 -9.98732 0
M  V30 50388 O 1463.52 0.0743816 -8.81969 0
M  V30 50389 O 1464.06 -1.97652 -7.47304 0
M  V30 50390 C 1465 -3.01133 -7.08783 0
M  V30 50391 C 1464.27 -4.12613 -6.37049 0
M  V30 50392 O 1464.06 -3.72827 -4.97879 0
M  V30 50393 C 1462.87 -4.45085 -6.88694 0
M  V30 50394 O 1462.48 -5.7877 -6.5624 0
M  V30 50395 C 1461.99 -3.47817 -6.12078 0
M  V30 50396 C 1462.7 -3.39414 -4.77697 0
M  V30 50397 N 1462.65 -2.04615 -4.15333 0
M  V30 50398 H 1465.49 -3.41248 -7.98759 0
M  V30 50399 H 1465.76 -2.5837 -6.41742 0
M  V30 50400 H 1464.89 -5.02657 -6.42673 0
M  V30 50401 P 1460.93 -6.144 -6.45285 0
M  V30 50402 O 1460.71 -7.54673 -6.86199 0
M  V30 50403 O 1460.14 -5.12391 -7.179 0
M  V30 50404 O 1460.68 -5.99158 -4.88404 0
M  V30 50405 C 1461.62 -6.60234 -3.96415 0
M  V30 50406 C 1460.89 -7.08259 -2.72856 0
M  V30 50407 O 1460.68 -5.9427 -1.83651 0
M  V30 50408 C 1459.49 -7.64886 -2.9555 0
M  V30 50409 O 1459.1 -8.53963 -1.90717 0
M  V30 50410 C 1458.61 -6.4116 -2.90739 0
M  V30 50411 C 1459.32 -5.55375 -1.86963 0
M  V30 50412 N 1459.27 -4.09664 -2.15742 0
M  V30 50413 H 1462.11 -7.45574 -4.45629 0
M  V30 50414 H 1462.38 -5.86232 -3.67314 0
M  V30 50415 H 1461.51 -7.84412 -2.24479 0
M  V30 50416 P 1457.55 -8.7635 -1.60911 0
M  V30 50417 O 1457.33 -10.1388 -1.11561 0
M  V30 50418 O 1456.76 -8.36503 -2.79617 0
M  V30 50419 O 1457.3 -7.71806 -0.42951 0
M  V30 50420 C 1458.24 -7.67148 0.673689 0
M  V30 50421 C 1457.51 -7.33374 1.95559 0
M  V30 50422 O 1457.3 -5.88721 2.00726 0
M  V30 50423 C 1456.11 -7.92526 2.10483 0
M  V30 50424 O 1455.72 -8.02971 3.47653 0
M  V30 50425 C 1455.23 -6.89602 1.41652 0
M  V30 50426 C 1455.94 -5.59201 1.75185 0
M  V30 50427 N 1455.89 -4.58301 0.657969 0
M  V30 50428 H 1458.73 -8.65116 0.777161 0
M  V30 50429 H 1459 -6.9022 0.46725 0
M  V30 50430 H 1458.13 -7.66548 2.79458 0
M  V30 50431 H 1455.48 -5.16165 2.65183 0
M  V30 50432 H 1455.2 -7.06433 0.329384 0
M  V30 50433 H 1454.21 -6.90926 1.82021 0
M  V30 50434 H 1456.04 -8.90873 1.62657 0
M  V30 50435 P 1454.17 -8.03563 3.84925 0
M  V30 50436 O 1453.95 -8.85821 5.0569 0
M  V30 50437 O 1453.38 -8.41101 2.65469 0
M  V30 50438 O 1453.92 -6.4965 4.18908 0
M  V30 50439 C 1454.86 -5.81037 5.05421 0
M  V30 50440 C 1454.13 -4.78366 5.89277 0
M  V30 50441 O 1453.92 -3.58302 5.08433 0
M  V30 50442 C 1452.73 -5.17448 6.36119 0
M  V30 50443 O 1452.34 -4.45271 7.53232 0
M  V30 50444 C 1451.85 -4.74639 5.19936 0
M  V30 50445 C 1452.56 -3.49432 4.70418 0
M  V30 50446 N 1452.51 -3.31776 3.22945 0
M  V30 50447 H 1455.35 -6.54213 5.71376 0
M  V30 50448 H 1455.62 -5.30492 4.44033 0
M  V30 50449 H 1454.75 -4.55889 6.76652 0
M  V30 50450 P 1450.79 -4.23843 7.83734 0
M  V30 50451 O 1450.57 -4.19407 9.29784 0
M  V30 50452 O 1450 -5.24426 7.09156 0
M  V30 50453 O 1450.54 -2.7935 7.20758 0
M  V30 50454 C 1451.48 -1.72945 7.50224 0
M  V30 50455 C 1450.75 -0.406376 7.57911 0
M  V30 50456 O 1450.54 0.0897726 6.21935 0
M  V30 50457 C 1449.35 -0.438983 8.18724 0
M  V30 50458 O 1448.96 0.825065 8.71101 0
M  V30 50459 C 1448.47 -0.783689 6.99524 0
M  V30 50460 C 1449.18 -0.0619086 5.85867 0
M  V30 50461 N 1449.13 -0.78573 4.56183 0
M  V30 50462 C 1448.98 -0.0292889 3.41887 0
M  V30 50463 O 1448.89 1.18445 3.4419 0
M  V30 50464 N 1448.94 -0.744061 2.23964 0
M  V30 50465 C 1449.03 -2.10932 2.10362 0
M  V30 50466 O 1448.98 -2.64117 0.98825 0
M  V30 50467 C 1449.18 -2.8202 3.34994 0
M  V30 50468 C 1449.29 -4.31095 3.25037 0
M  V30 50469 C 1449.23 -2.15547 4.52261 0
M  V30 50470 H 1451.97 -1.93379 8.46595 0
M  V30 50471 H 1452.24 -1.68132 6.70852 0
M  V30 50472 H 1451.37 0.289041 8.15388 0
M  V30 50473 H 1448.72 0.926847 5.72749 0
M  V30 50474 H 1448.44 -1.86973 6.82036 0
M  V30 50475 H 1447.45 -0.403896 7.13257 0
M  V30 50476 H 1449.28 -1.20585 8.97435 0
M  V30 50477 H 1449.35 -2.71231 5.45042 0
M  V30 50478 H 1448.32 -4.76966 3.49992 0
M  V30 50479 H 1450.06 -4.67047 3.95024 0
M  V30 50480 H 1449.57 -4.58996 2.22312 0
M  V30 50481 H 1448.84 -0.214893 1.39758 0
M  V30 50482 P 1447.41 1.17771 8.83182 0
M  V30 50483 O 1447.19 2.07206 9.98732 0
M  V30 50484 O 1446.62 -0.0743816 8.81969 0
M  V30 50485 O 1447.16 1.97652 7.47304 0
M  V30 50486 C 1448.1 3.01133 7.08783 0
M  V30 50487 C 1447.37 4.12613 6.37049 0
M  V30 50488 O 1447.16 3.72827 4.97879 0
M  V30 50489 C 1445.97 4.45085 6.88694 0
M  V30 50490 O 1445.58 5.7877 6.5624 0
M  V30 50491 C 1445.09 3.47817 6.12078 0
M  V30 50492 C 1445.8 3.39414 4.77697 0
M  V30 50493 N 1445.75 2.04199 4.15538 0
M  V30 50494 H 1448.59 3.41248 7.98759 0
M  V30 50495 H 1448.86 2.57728 6.42 0
M  V30 50496 H 1447.99 5.02657 6.42673 0
M  V30 50497 H 1445.34 4.11708 4.08956 0
M  V30 50498 H 1445.06 2.49626 6.61679 0
M  V30 50499 H 1444.07 3.8662 6.00862 0
M  V30 50500 H 1445.9 4.29991 7.97006 0
M  V30 50501 P 1444.03 6.144 6.45285 0
M  V30 50502 O 1443.81 7.54673 6.86199 0
M  V30 50503 O 1443.24 5.12391 7.179 0
M  V30 50504 O 1443.78 5.99158 4.88404 0
M  V30 50505 C 1444.72 6.60234 3.96415 0
M  V30 50506 C 1443.99 7.08259 2.72856 0
M  V30 50507 O 1443.78 5.9427 1.83651 0
M  V30 50508 C 1442.59 7.64886 2.9555 0
M  V30 50509 O 1442.2 8.53963 1.90717 0
M  V30 50510 C 1441.71 6.4116 2.90739 0
M  V30 50511 C 1442.42 5.55375 1.86963 0
M  V30 50512 N 1442.37 4.09664 2.15742 0
M  V30 50513 C 1442.45 3.44381 3.37233 0
M  V30 50514 N 1442.37 2.14131 3.28347 0
M  V30 50515 C 1442.23 1.90247 1.91588 0
M  V30 50516 C 1442.1 0.683992 1.20892 0
M  V30 50517 O 1442.08 -0.46618 1.64523 0
M  V30 50518 N 1441.98 0.903396 -0.173998 0
M  V30 50519 C 1441.98 2.14171 -0.784879 0
M  V30 50520 N 1441.85 2.1435 -2.11317 0
M  V30 50521 N 1442.11 3.28784 -0.119316 0
M  V30 50522 C 1442.23 3.0977 1.22194 0
M  V30 50523 H 1445.21 7.45574 4.45629 0
M  V30 50524 H 1445.48 5.86232 3.67314 0
M  V30 50525 H 1444.61 7.84412 2.24479 0
M  V30 50526 H 1441.96 5.73556 0.888715 0
M  V30 50527 H 1441.68 5.9096 3.88638 0
M  V30 50528 H 1440.69 6.66053 2.58894 0
M  V30 50529 H 1442.52 8.16429 3.92093 0
M  V30 50530 H 1442.57 3.96785 4.32043 0
M  V30 50531 H 1441.89 0.0999567 -0.761467 0
M  V30 50532 H 1441.85 3.03436 -2.63076 0
M  V30 50533 H 1441.75 1.25228 -2.62233 0
M  V30 50534 P 1440.65 8.7635 1.60911 0
M  V30 50535 O 1440.43 10.1388 1.11561 0
M  V30 50536 O 1439.86 8.36503 2.79617 0
M  V30 50537 O 1440.4 7.71806 0.42951 0
M  V30 50538 C 1441.34 7.67148 -0.673689 0
M  V30 50539 C 1440.61 7.33374 -1.95559 0
M  V30 50540 O 1440.4 5.88721 -2.00726 0
M  V30 50541 C 1439.21 7.92526 -2.10483 0
M  V30 50542 O 1438.82 8.02971 -3.47653 0
M  V30 50543 C 1438.33 6.89602 -1.41652 0
M  V30 50544 C 1439.04 5.59201 -1.75185 0
M  V30 50545 N 1438.99 4.58301 -0.657969 0
M  V30 50546 H 1441.83 8.65116 -0.777161 0
M  V30 50547 H 1442.1 6.9022 -0.46725 0
M  V30 50548 H 1441.23 7.66548 -2.79458 0
M  V30 50549 H 1438.58 5.16165 -2.65183 0
M  V30 50550 H 1438.3 7.06433 -0.329384 0
M  V30 50551 H 1437.31 6.90926 -1.82021 0
M  V30 50552 H 1439.14 8.90873 -1.62657 0
M  V30 50553 P 1437.27 8.03563 -3.84925 0
M  V30 50554 O 1437.05 8.85821 -5.0569 0
M  V30 50555 O 1436.48 8.41101 -2.65469 0
M  V30 50556 O 1437.02 6.4965 -4.18908 0
M  V30 50557 C 1437.96 5.81037 -5.05421 0
M  V30 50558 C 1437.23 4.78366 -5.89277 0
M  V30 50559 O 1437.02 3.58302 -5.08433 0
M  V30 50560 C 1435.83 5.17448 -6.36119 0
M  V30 50561 O 1435.44 4.45271 -7.53232 0
M  V30 50562 C 1434.95 4.74639 -5.19936 0
M  V30 50563 C 1435.66 3.49432 -4.70418 0
M  V30 50564 N 1435.61 3.32099 -3.22613 0
M  V30 50565 H 1438.45 6.54213 -5.71376 0
M  V30 50566 H 1438.72 5.30936 -4.43503 0
M  V30 50567 H 1437.85 4.55889 -6.76652 0
M  V30 50568 H 1435.2 2.61715 -5.17932 0
M  V30 50569 H 1434.92 5.52155 -4.41878 0
M  V30 50570 H 1433.93 4.51981 -5.53374 0
M  V30 50571 H 1435.76 6.25124 -6.55234 0
M  V30 50572 P 1433.89 4.23843 -7.83734 0
M  V30 50573 O 1433.67 4.19407 -9.29784 0
M  V30 50574 O 1433.1 5.24426 -7.09156 0
M  V30 50575 O 1433.64 2.7935 -7.20758 0
M  V30 50576 C 1434.58 1.7299 -7.50419 0
M  V30 50577 C 1433.85 0.406376 -7.57911 0
M  V30 50578 O 1433.64 -0.0897726 -6.21935 0
M  V30 50579 C 1432.45 0.447224 -8.1878 0
M  V30 50580 O 1432.06 -0.825065 -8.71101 0
M  V30 50581 C 1431.57 0.783801 -6.99623 0
M  V30 50582 C 1432.28 0.0619192 -5.85967 0
M  V30 50583 N 1432.23 0.7859 -4.56281 0
M  V30 50584 H 1435.07 1.93423 -8.4679 0
M  V30 50585 H 1435.34 1.68181 -6.71046 0
M  V30 50586 H 1434.47 -0.289041 -8.15388 0
M  V30 50587 P 1430.51 -1.17771 -8.83182 0
M  V30 50588 O 1430.29 -2.07206 -9.98732 0
M  V30 50589 O 1429.72 0.0743816 -8.81969 0
M  V30 50590 O 1430.26 -1.97652 -7.47304 0
M  V30 50591 C 1431.2 -3.01133 -7.08783 0
M  V30 50592 C 1430.47 -4.12613 -6.37049 0
M  V30 50593 O 1430.26 -3.72827 -4.97879 0
M  V30 50594 C 1429.07 -4.45085 -6.88694 0
M  V30 50595 O 1428.68 -5.7877 -6.5624 0
M  V30 50596 C 1428.19 -3.47817 -6.12078 0
M  V30 50597 C 1428.9 -3.39414 -4.77697 0
M  V30 50598 N 1428.85 -2.04615 -4.15333 0
M  V30 50599 H 1431.69 -3.41248 -7.98759 0
M  V30 50600 H 1431.96 -2.5837 -6.41742 0
M  V30 50601 H 1431.09 -5.02657 -6.42673 0
M  V30 50602 P 1427.13 -6.144 -6.45285 0
M  V30 50603 O 1426.91 -7.54673 -6.86199 0
M  V30 50604 O 1426.34 -5.12391 -7.179 0
M  V30 50605 O 1426.88 -5.99158 -4.88404 0
M  V30 50606 C 1427.82 -6.60234 -3.96415 0
M  V30 50607 C 1427.09 -7.08259 -2.72856 0
M  V30 50608 O 1426.88 -5.9427 -1.83651 0
M  V30 50609 C 1425.69 -7.64886 -2.9555 0
M  V30 50610 O 1425.3 -8.53963 -1.90717 0
M  V30 50611 C 1424.81 -6.4116 -2.90739 0
M  V30 50612 C 1425.52 -5.55375 -1.86963 0
M  V30 50613 N 1425.47 -4.09664 -2.15742 0
M  V30 50614 H 1428.31 -7.45574 -4.45629 0
M  V30 50615 H 1428.58 -5.86232 -3.67314 0
M  V30 50616 H 1427.71 -7.84412 -2.24479 0
M  V30 50617 P 1423.75 -8.7635 -1.60911 0
M  V30 50618 O 1423.53 -10.1388 -1.11561 0
M  V30 50619 O 1422.96 -8.36503 -2.79617 0
M  V30 50620 O 1423.5 -7.71806 -0.42951 0
M  V30 50621 C 1424.44 -7.67148 0.673689 0
M  V30 50622 C 1423.71 -7.33374 1.95559 0
M  V30 50623 O 1423.5 -5.88721 2.00726 0
M  V30 50624 C 1422.31 -7.92526 2.10483 0
M  V30 50625 O 1421.92 -8.02971 3.47653 0
M  V30 50626 C 1421.43 -6.89602 1.41652 0
M  V30 50627 C 1422.14 -5.59201 1.75185 0
M  V30 50628 N 1422.09 -4.58235 0.662552 0
M  V30 50629 H 1424.93 -8.65116 0.777161 0
M  V30 50630 H 1425.2 -6.90173 0.474152 0
M  V30 50631 H 1424.33 -7.66548 2.79458 0
M  V30 50632 P 1420.37 -8.03563 3.84925 0
M  V30 50633 O 1420.15 -8.85821 5.0569 0
M  V30 50634 O 1419.58 -8.41101 2.65469 0
M  V30 50635 O 1420.12 -6.4965 4.18908 0
M  V30 50636 C 1421.06 -5.81037 5.05421 0
M  V30 50637 C 1420.33 -4.78366 5.89277 0
M  V30 50638 O 1420.12 -3.58302 5.08433 0
M  V30 50639 C 1418.93 -5.17448 6.36119 0
M  V30 50640 O 1418.54 -4.45271 7.53232 0
M  V30 50641 C 1418.05 -4.74639 5.19936 0
M  V30 50642 C 1418.76 -3.49432 4.70418 0
M  V30 50643 N 1418.71 -3.31776 3.22945 0
M  V30 50644 H 1421.55 -6.54213 5.71376 0
M  V30 50645 H 1421.82 -5.30492 4.44033 0
M  V30 50646 H 1420.95 -4.55889 6.76652 0
M  V30 50647 P 1416.99 -4.23843 7.83734 0
M  V30 50648 O 1416.77 -4.19407 9.29784 0
M  V30 50649 O 1416.2 -5.24426 7.09156 0
M  V30 50650 O 1416.74 -2.7935 7.20758 0
M  V30 50651 C 1417.68 -1.72945 7.50224 0
M  V30 50652 C 1416.95 -0.406376 7.57911 0
M  V30 50653 O 1416.74 0.0897726 6.21935 0
M  V30 50654 C 1415.55 -0.438983 8.18724 0
M  V30 50655 O 1415.16 0.825065 8.71101 0
M  V30 50656 C 1414.67 -0.783689 6.99524 0
M  V30 50657 C 1415.38 -0.0619086 5.85867 0
M  V30 50658 N 1415.33 -0.78573 4.56183 0
M  V30 50659 C 1415.18 -0.0292889 3.41887 0
M  V30 50660 O 1415.09 1.18445 3.4419 0
M  V30 50661 N 1415.14 -0.744061 2.23964 0
M  V30 50662 C 1415.23 -2.10932 2.10362 0
M  V30 50663 O 1415.18 -2.64117 0.98825 0
M  V30 50664 C 1415.38 -2.8202 3.34994 0
M  V30 50665 C 1415.49 -4.31095 3.25037 0
M  V30 50666 C 1415.43 -2.15547 4.52261 0
M  V30 50667 H 1418.17 -1.93379 8.46595 0
M  V30 50668 H 1418.44 -1.68132 6.70852 0
M  V30 50669 H 1417.57 0.289041 8.15388 0
M  V30 50670 H 1414.92 0.926847 5.72749 0
M  V30 50671 H 1414.64 -1.86973 6.82036 0
M  V30 50672 H 1413.65 -0.403896 7.13257 0
M  V30 50673 H 1415.48 -1.20585 8.97435 0
M  V30 50674 H 1415.55 -2.71231 5.45042 0
M  V30 50675 H 1414.52 -4.76966 3.49992 0
M  V30 50676 H 1416.26 -4.67047 3.95024 0
M  V30 50677 H 1415.77 -4.58996 2.22312 0
M  V30 50678 H 1415.04 -0.214893 1.39758 0
M  V30 50679 P 1413.61 1.17771 8.83182 0
M  V30 50680 O 1413.39 2.07206 9.98732 0
M  V30 50681 O 1412.82 -0.0743816 8.81969 0
M  V30 50682 O 1413.36 1.97652 7.47304 0
M  V30 50683 C 1414.3 3.01133 7.08783 0
M  V30 50684 C 1413.57 4.12613 6.37049 0
M  V30 50685 O 1413.36 3.72827 4.97879 0
M  V30 50686 C 1412.17 4.45085 6.88694 0
M  V30 50687 O 1411.78 5.7877 6.5624 0
M  V30 50688 C 1411.29 3.47817 6.12078 0
M  V30 50689 C 1412 3.39414 4.77697 0
M  V30 50690 N 1411.95 2.04199 4.15538 0
M  V30 50691 H 1414.79 3.41248 7.98759 0
M  V30 50692 H 1415.06 2.57728 6.42 0
M  V30 50693 H 1414.19 5.02657 6.42673 0
M  V30 50694 H 1411.54 4.11708 4.08956 0
M  V30 50695 H 1411.26 2.49626 6.61679 0
M  V30 50696 H 1410.27 3.8662 6.00862 0
M  V30 50697 H 1412.1 4.29991 7.97006 0
M  V30 50698 P 1410.23 6.144 6.45285 0
M  V30 50699 O 1410.01 7.54673 6.86199 0
M  V30 50700 O 1409.44 5.12391 7.179 0
M  V30 50701 O 1409.98 5.99158 4.88404 0
M  V30 50702 C 1410.92 6.60234 3.96415 0
M  V30 50703 C 1410.19 7.08259 2.72856 0
M  V30 50704 O 1409.98 5.9427 1.83651 0
M  V30 50705 C 1408.79 7.64886 2.9555 0
M  V30 50706 O 1408.4 8.53963 1.90717 0
M  V30 50707 C 1407.91 6.4116 2.90739 0
M  V30 50708 C 1408.62 5.55375 1.86963 0
M  V30 50709 N 1408.57 4.09664 2.15742 0
M  V30 50710 H 1411.41 7.45574 4.45629 0
M  V30 50711 H 1411.68 5.86232 3.67314 0
M  V30 50712 H 1410.81 7.84412 2.24479 0
M  V30 50713 P 1406.85 8.7635 1.60911 0
M  V30 50714 O 1406.63 10.1388 1.11561 0
M  V30 50715 O 1406.06 8.36503 2.79617 0
M  V30 50716 O 1406.6 7.71806 0.42951 0
M  V30 50717 C 1407.54 7.67148 -0.673689 0
M  V30 50718 C 1406.81 7.33374 -1.95559 0
M  V30 50719 O 1406.6 5.88721 -2.00726 0
M  V30 50720 C 1405.41 7.92526 -2.10483 0
M  V30 50721 O 1405.02 8.02971 -3.47653 0
M  V30 50722 C 1404.53 6.89602 -1.41652 0
M  V30 50723 C 1405.24 5.59201 -1.75185 0
M  V30 50724 N 1405.19 4.58301 -0.657969 0
M  V30 50725 H 1408.03 8.65116 -0.777161 0
M  V30 50726 H 1408.3 6.9022 -0.46725 0
M  V30 50727 H 1407.43 7.66548 -2.79458 0
M  V30 50728 H 1404.78 5.16165 -2.65183 0
M  V30 50729 H 1404.5 7.06433 -0.329384 0
M  V30 50730 H 1403.51 6.90926 -1.82021 0
M  V30 50731 H 1405.34 8.90873 -1.62657 0
M  V30 50732 P 1403.47 8.03563 -3.84925 0
M  V30 50733 O 1403.25 8.85821 -5.0569 0
M  V30 50734 O 1402.68 8.41101 -2.65469 0
M  V30 50735 O 1403.22 6.4965 -4.18908 0
M  V30 50736 C 1404.16 5.81037 -5.05421 0
M  V30 50737 C 1403.43 4.78366 -5.89277 0
M  V30 50738 O 1403.22 3.58302 -5.08433 0
M  V30 50739 C 1402.03 5.17448 -6.36119 0
M  V30 50740 O 1401.64 4.45271 -7.53232 0
M  V30 50741 C 1401.15 4.74639 -5.19936 0
M  V30 50742 C 1401.86 3.49432 -4.70418 0
M  V30 50743 N 1401.81 3.31776 -3.22945 0
M  V30 50744 H 1404.65 6.54213 -5.71376 0
M  V30 50745 H 1404.92 5.30492 -4.44033 0
M  V30 50746 H 1404.05 4.55889 -6.76652 0
M  V30 50747 P 1400.09 4.23843 -7.83734 0
M  V30 50748 O 1399.87 4.19407 -9.29784 0
M  V30 50749 O 1399.3 5.24426 -7.09156 0
M  V30 50750 O 1399.84 2.7935 -7.20758 0
M  V30 50751 C 1400.78 1.7299 -7.50419 0
M  V30 50752 C 1400.05 0.406376 -7.57911 0
M  V30 50753 O 1399.84 -0.0897726 -6.21935 0
M  V30 50754 C 1398.65 0.447224 -8.1878 0
M  V30 50755 O 1398.26 -0.825065 -8.71101 0
M  V30 50756 C 1397.77 0.783801 -6.99623 0
M  V30 50757 C 1398.48 0.0619192 -5.85967 0
M  V30 50758 N 1398.43 0.7859 -4.56281 0
M  V30 50759 H 1401.27 1.93423 -8.4679 0
M  V30 50760 H 1401.54 1.68181 -6.71046 0
M  V30 50761 H 1400.67 -0.289041 -8.15388 0
M  V30 50762 P 1396.71 -1.17771 -8.83182 0
M  V30 50763 O 1396.49 -2.07206 -9.98732 0
M  V30 50764 O 1395.92 0.0743816 -8.81969 0
M  V30 50765 O 1396.46 -1.97652 -7.47304 0
M  V30 50766 C 1397.4 -3.01133 -7.08783 0
M  V30 50767 C 1396.67 -4.12613 -6.37049 0
M  V30 50768 O 1396.46 -3.72827 -4.97879 0
M  V30 50769 C 1395.27 -4.45085 -6.88694 0
M  V30 50770 O 1394.88 -5.7877 -6.5624 0
M  V30 50771 C 1394.39 -3.47817 -6.12078 0
M  V30 50772 C 1395.1 -3.39414 -4.77697 0
M  V30 50773 N 1395.05 -2.04615 -4.15333 0
M  V30 50774 H 1397.89 -3.41248 -7.98759 0
M  V30 50775 H 1398.16 -2.5837 -6.41742 0
M  V30 50776 H 1397.29 -5.02657 -6.42673 0
M  V30 50777 P 1393.33 -6.144 -6.45285 0
M  V30 50778 O 1393.11 -7.54673 -6.86199 0
M  V30 50779 O 1392.54 -5.12391 -7.179 0
M  V30 50780 O 1393.08 -5.99158 -4.88404 0
M  V30 50781 C 1394.02 -6.60234 -3.96415 0
M  V30 50782 C 1393.29 -7.08259 -2.72856 0
M  V30 50783 O 1393.08 -5.9427 -1.83651 0
M  V30 50784 C 1391.89 -7.64886 -2.9555 0
M  V30 50785 O 1391.5 -8.53963 -1.90717 0
M  V30 50786 C 1391.01 -6.4116 -2.90739 0
M  V30 50787 C 1391.72 -5.55375 -1.86963 0
M  V30 50788 N 1391.67 -4.09664 -2.15742 0
M  V30 50789 H 1394.51 -7.45574 -4.45629 0
M  V30 50790 H 1394.78 -5.86232 -3.67314 0
M  V30 50791 H 1393.91 -7.84412 -2.24479 0
M  V30 50792 P 1389.95 -8.7635 -1.60911 0
M  V30 50793 O 1389.73 -10.1388 -1.11561 0
M  V30 50794 O 1389.16 -8.36503 -2.79617 0
M  V30 50795 O 1389.7 -7.71806 -0.42951 0
M  V30 50796 C 1390.64 -7.67148 0.673689 0
M  V30 50797 C 1389.91 -7.33374 1.95559 0
M  V30 50798 O 1389.7 -5.88721 2.00726 0
M  V30 50799 C 1388.51 -7.92526 2.10483 0
M  V30 50800 O 1388.12 -8.02971 3.47653 0
M  V30 50801 C 1387.63 -6.89602 1.41652 0
M  V30 50802 C 1388.34 -5.59201 1.75185 0
M  V30 50803 N 1388.29 -4.58235 0.662552 0
M  V30 50804 H 1391.13 -8.65116 0.777161 0
M  V30 50805 H 1391.4 -6.90173 0.474152 0
M  V30 50806 H 1390.53 -7.66548 2.79458 0
M  V30 50807 P 1386.57 -8.03563 3.84925 0
M  V30 50808 O 1386.35 -8.85821 5.0569 0
M  V30 50809 O 1385.78 -8.41101 2.65469 0
M  V30 50810 O 1386.32 -6.4965 4.18908 0
M  V30 50811 C 1387.26 -5.81037 5.05421 0
M  V30 50812 C 1386.53 -4.78366 5.89277 0
M  V30 50813 O 1386.32 -3.58302 5.08433 0
M  V30 50814 C 1385.13 -5.17448 6.36119 0
M  V30 50815 O 1384.74 -4.45271 7.53232 0
M  V30 50816 C 1384.25 -4.74639 5.19936 0
M  V30 50817 C 1384.96 -3.49432 4.70418 0
M  V30 50818 N 1384.91 -3.32099 3.22613 0
M  V30 50819 H 1387.75 -6.54213 5.71376 0
M  V30 50820 H 1388.02 -5.30936 4.43503 0
M  V30 50821 H 1387.15 -4.55889 6.76652 0
M  V30 50822 H 1384.5 -2.61715 5.17932 0
M  V30 50823 H 1384.22 -5.52155 4.41878 0
M  V30 50824 H 1383.23 -4.51981 5.53374 0
M  V30 50825 H 1385.06 -6.25124 6.55234 0
M  V30 50826 P 1383.19 -4.23843 7.83734 0
M  V30 50827 O 1382.97 -4.19407 9.29784 0
M  V30 50828 O 1382.4 -5.24426 7.09156 0
M  V30 50829 O 1382.94 -2.7935 7.20758 0
M  V30 50830 C 1383.88 -1.7299 7.50419 0
M  V30 50831 C 1383.15 -0.406376 7.57911 0
M  V30 50832 O 1382.94 0.0897726 6.21935 0
M  V30 50833 C 1381.75 -0.447224 8.1878 0
M  V30 50834 O 1381.36 0.825065 8.71101 0
M  V30 50835 C 1380.87 -0.783801 6.99623 0
M  V30 50836 C 1381.58 -0.0619192 5.85967 0
M  V30 50837 N 1381.53 -0.7859 4.56281 0
M  V30 50838 H 1384.37 -1.93423 8.4679 0
M  V30 50839 H 1384.64 -1.68181 6.71046 0
M  V30 50840 H 1383.77 0.289041 8.15388 0
M  V30 50841 P 1379.81 1.17771 8.83182 0
M  V30 50842 O 1379.59 2.07206 9.98732 0
M  V30 50843 O 1379.02 -0.0743816 8.81969 0
M  V30 50844 O 1379.56 1.97652 7.47304 0
M  V30 50845 C 1380.5 3.01133 7.08783 0
M  V30 50846 C 1379.77 4.12613 6.37049 0
M  V30 50847 O 1379.56 3.72827 4.97879 0
M  V30 50848 C 1378.37 4.45085 6.88694 0
M  V30 50849 O 1377.98 5.7877 6.5624 0
M  V30 50850 C 1377.49 3.47817 6.12078 0
M  V30 50851 C 1378.2 3.39414 4.77697 0
M  V30 50852 N 1378.15 2.04615 4.15333 0
M  V30 50853 H 1380.99 3.41248 7.98759 0
M  V30 50854 H 1381.26 2.5837 6.41742 0
M  V30 50855 H 1380.39 5.02657 6.42673 0
M  V30 50856 P 1376.43 6.144 6.45285 0
M  V30 50857 O 1376.21 7.54673 6.86199 0
M  V30 50858 O 1375.64 5.12391 7.179 0
M  V30 50859 O 1376.18 5.99158 4.88404 0
M  V30 50860 C 1377.12 6.60234 3.96415 0
M  V30 50861 C 1376.39 7.08259 2.72856 0
M  V30 50862 O 1376.18 5.9427 1.83651 0
M  V30 50863 C 1374.99 7.64886 2.9555 0
M  V30 50864 O 1374.6 8.53963 1.90717 0
M  V30 50865 C 1374.11 6.4116 2.90739 0
M  V30 50866 C 1374.82 5.55375 1.86963 0
M  V30 50867 N 1374.77 4.09664 2.15742 0
M  V30 50868 H 1377.61 7.45574 4.45629 0
M  V30 50869 H 1377.88 5.86232 3.67314 0
M  V30 50870 H 1377.01 7.84412 2.24479 0
M  V30 50871 P 1373.05 8.7635 1.60911 0
M  V30 50872 O 1372.83 10.1388 1.11561 0
M  V30 50873 O 1372.26 8.36503 2.79617 0
M  V30 50874 O 1372.8 7.71906 0.429565 0
M  V30 50875 C 1373.74 7.67148 -0.673689 0
M  V30 50876 C 1373.01 7.33666 -1.94851 0
M  V30 50877 O 1372.8 5.88816 -2.00759 0
M  V30 50878 C 1371.61 7.92526 -2.10483 0
M  V30 50879 O 1371.22 8.03063 -3.47693 0
M  V30 50880 C 1370.73 6.89602 -1.41652 0
M  V30 50881 C 1371.44 5.59201 -1.75185 0
M  V30 50882 N 1371.39 4.58235 -0.662552 0
M  V30 50883 C 1371.24 3.24451 -1.01643 0
M  V30 50884 O 1371.15 2.94958 -2.21722 0
M  V30 50885 N 1371.19 2.30408 0.165238 0
M  V30 50886 C 1371.29 2.66048 1.25118 0
M  V30 50887 N 1371.24 1.70787 2.16813 0
M  V30 50888 C 1371.44 4.02732 1.64413 0
M  V30 50889 C 1371.49 4.9488 0.63991 0
M  V30 50890 H 1374.23 8.65017 -0.777072 0
M  V30 50891 H 1374.5 6.90173 -0.474152 0
M  V30 50892 H 1373.63 7.66642 -2.79492 0
M  V30 50893 H 1370.98 5.16254 -2.65229 0
M  V30 50894 H 1370.7 7.06532 -0.329431 0
M  V30 50895 H 1369.71 6.91023 -1.82047 0
M  V30 50896 H 1371.54 8.90873 -1.62657 0
M  V30 50897 H 1371.61 6.00104 0.892197 0
M  V30 50898 H 1371.51 4.31733 2.69229 0
M  V30 50899 H 1371.12 0.724835 1.8844 0
M  V30 50900 H 1371.32 1.94716 3.16734 0
M  V30 50901 P 1369.67 8.03563 -3.84925 0
M  V30 50902 O 1369.45 8.85821 -5.0569 0
M  V30 50903 O 1368.88 8.41101 -2.65469 0
M  V30 50904 O 1369.42 6.4965 -4.18908 0
M  V30 50905 C 1370.36 5.81037 -5.05421 0
M  V30 50906 C 1369.63 4.78366 -5.89277 0
M  V30 50907 O 1369.42 3.58302 -5.08433 0
M  V30 50908 C 1368.23 5.17448 -6.36119 0
M  V30 50909 O 1367.84 4.45271 -7.53232 0
M  V30 50910 C 1367.35 4.74639 -5.19936 0
M  V30 50911 C 1368.06 3.49432 -4.70418 0
M  V30 50912 N 1368.01 3.31776 -3.22945 0
M  V30 50913 C 1368.09 4.27147 -2.23315 0
M  V30 50914 N 1368.01 3.78447 -1.02186 0
M  V30 50915 C 1367.87 2.41001 -1.21732 0
M  V30 50916 C 1367.74 1.36111 -0.27694 0
M  V30 50917 O 1367.72 1.42065 0.951767 0
M  V30 50918 N 1367.62 0.113683 -0.912949 0
M  V30 50919 C 1367.62 -0.0846396 -2.27943 0
M  V30 50920 N 1367.49 -1.34737 -2.6916 0
M  V30 50921 N 1367.75 0.902521 -3.16379 0
M  V30 50922 C 1367.87 2.11937 -2.56849 0
M  V30 50923 H 1370.85 6.54213 -5.71376 0
M  V30 50924 H 1371.12 5.30492 -4.44033 0
M  V30 50925 H 1370.25 4.55889 -6.76652 0
M  V30 50926 H 1367.6 2.6176 -5.18021 0
M  V30 50927 H 1367.32 5.52233 -4.41941 0
M  V30 50928 H 1366.33 4.52045 -5.53452 0
M  V30 50929 H 1368.16 6.25193 -6.55307 0
M  V30 50930 H 1368.21 5.3351 -2.43857 0
M  V30 50931 H 1367.53 -0.69331 -0.330371 0
M  V30 50932 H 1367.49 -1.56433 -3.6988 0
M  V30 50933 H 1367.39 -2.10701 -2.00133 0
M  V30 50934 P 1366.29 4.23843 -7.83734 0
M  V30 50935 O 1366.07 4.19407 -9.29784 0
M  V30 50936 O 1365.5 5.24426 -7.09156 0
M  V30 50937 O 1366.04 2.79386 -7.20852 0
M  V30 50938 C 1366.98 1.7299 -7.50419 0
M  V30 50939 C 1366.25 0.41401 -7.5797 0
M  V30 50940 O 1366.04 -0.089787 -6.22035 0
M  V30 50941 C 1364.85 0.447224 -8.1878 0
M  V30 50942 O 1364.46 -0.825159 -8.71201 0
M  V30 50943 C 1363.97 0.783801 -6.99623 0
M  V30 50944 C 1364.68 0.0619192 -5.85967 0
M  V30 50945 N 1364.63 0.7859 -4.56281 0
M  V30 50946 C 1364.48 0.0359258 -3.39981 0
M  V30 50947 O 1364.39 -1.19723 -3.49038 0
M  V30 50948 N 1364.43 0.869151 -2.14025 0
M  V30 50949 C 1364.53 2.01207 -2.14363 0
M  V30 50950 N 1364.48 2.58978 -0.954287 0
M  V30 50951 C 1364.68 2.80817 -3.32215 0
M  V30 50952 C 1364.73 2.13785 -4.50884 0
M  V30 50953 H 1367.47 1.93401 -8.46693 0
M  V30 50954 H 1367.74 1.68181 -6.71046 0
M  V30 50955 H 1366.87 -0.289076 -8.15488 0
M  V30 50956 H 1364.22 -0.927166 -5.72947 0
M  V30 50957 H 1363.94 1.87 -6.82132 0
M  V30 50958 H 1362.95 0.404009 -7.13457 0
M  V30 50959 H 1364.78 1.20599 -8.97534 0
M  V30 50960 H 1364.85 2.70295 -5.43162 0
M  V30 50961 H 1364.75 3.89465 -3.27406 0
M  V30 50962 H 1364.36 2.01616 -0.107046 0
M  V30 50963 H 1364.56 3.61403 -0.873101 0
M  V30 50964 P 1362.91 -1.17771 -8.83182 0
M  V30 50965 O 1362.69 -2.07206 -9.98732 0
M  V30 50966 O 1362.12 0.0743816 -8.81969 0
M  V30 50967 O 1362.66 -1.97652 -7.47304 0
M  V30 50968 C 1363.6 -3.01133 -7.08783 0
M  V30 50969 C 1362.87 -4.12613 -6.37049 0
M  V30 50970 O 1362.66 -3.72827 -4.97879 0
M  V30 50971 C 1361.47 -4.45085 -6.88694 0
M  V30 50972 O 1361.08 -5.7877 -6.5624 0
M  V30 50973 C 1360.59 -3.47817 -6.12078 0
M  V30 50974 C 1361.3 -3.39414 -4.77697 0
M  V30 50975 N 1361.25 -2.04615 -4.15333 0
M  V30 50976 H 1364.09 -3.41248 -7.98759 0
M  V30 50977 H 1364.36 -2.5837 -6.41742 0
M  V30 50978 H 1363.49 -5.02657 -6.42673 0
M  V30 50979 P 1359.53 -6.144 -6.45285 0
M  V30 50980 O 1359.31 -7.54673 -6.86199 0
M  V30 50981 O 1358.74 -5.12391 -7.179 0
M  V30 50982 O 1359.28 -5.99158 -4.88404 0
M  V30 50983 C 1360.22 -6.60062 -3.96313 0
M  V30 50984 C 1359.49 -7.08259 -2.72856 0
M  V30 50985 O 1359.28 -5.9427 -1.83651 0
M  V30 50986 C 1358.09 -7.65087 -2.94749 0
M  V30 50987 O 1357.7 -8.53963 -1.90717 0
M  V30 50988 C 1357.21 -6.41069 -2.90698 0
M  V30 50989 C 1357.92 -5.5528 -1.86931 0
M  V30 50990 N 1357.87 -4.09575 -2.15696 0
M  V30 50991 C 1357.72 -3.24249 -1.08435 0
M  V30 50992 O 1357.63 -3.63946 0.0628747 0
M  V30 50993 N 1357.68 -1.90009 -1.39973 0
M  V30 50994 C 1357.77 -1.34884 -2.65614 0
M  V30 50995 O 1357.72 -0.123716 -2.81728 0
M  V30 50996 C 1357.92 -2.3145 -3.71736 0
M  V30 50997 C 1358.03 -1.75913 -5.10438 0
M  V30 50998 C 1357.97 -3.63518 -3.44754 0
M  V30 50999 H 1360.71 -7.45402 -4.45526 0
M  V30 51000 H 1360.98 -5.86062 -3.67208 0
M  V30 51001 H 1360.11 -7.84412 -2.24479 0
M  V30 51002 H 1357.46 -5.73358 -0.888409 0
M  V30 51003 H 1357.18 -5.90877 -3.88583 0
M  V30 51004 H 1356.19 -6.65867 -2.58821 0
M  V30 51005 H 1358.02 -8.16248 -3.92006 0
M  V30 51006 H 1358.09 -4.34551 -4.26383 0
M  V30 51007 H 1357.06 -1.85471 -5.61775 0
M  V30 51008 H 1358.8 -2.31364 -5.66257 0
M  V30 51009 H 1358.31 -0.695936 -5.05229 0
M  V30 51010 H 1357.58 -1.26277 -0.63625 0
M  V30 51011 P 1356.15 -8.7635 -1.60911 0
M  V30 51012 O 1355.93 -10.1388 -1.11561 0
M  V30 51013 O 1355.36 -8.36503 -2.79617 0
M  V30 51014 O 1355.9 -7.71806 -0.42951 0
M  V30 51015 C 1356.84 -7.66948 0.673514 0
M  V30 51016 C 1356.11 -7.33374 1.95559 0
M  V30 51017 O 1355.9 -5.88721 2.00726 0
M  V30 51018 C 1354.71 -7.92218 2.1125 0
M  V30 51019 O 1354.32 -8.02971 3.47653 0
M  V30 51020 C 1353.83 -6.89504 1.41631 0
M  V30 51021 C 1354.54 -5.59106 1.75155 0
M  V30 51022 N 1354.49 -4.58136 0.662409 0
M  V30 51023 C 1354.34 -3.26059 1.02863 0
M  V30 51024 O 1354.25 -2.90743 2.19009 0
M  V30 51025 N 1354.3 -2.35995 -0.0155585 0
M  V30 51026 C 1354.39 -2.65248 -1.35603 0
M  V30 51027 O 1354.34 -1.75605 -2.20651 0
M  V30 51028 C 1354.54 -4.05747 -1.64698 0
M  V30 51029 C 1354.65 -4.42345 -3.09553 0
M  V30 51030 C 1354.59 -4.96734 -0.652411 0
M  V30 51031 H 1357.33 -8.64917 0.776982 0
M  V30 51032 H 1357.6 -6.89974 0.474015 0
M  V30 51033 H 1356.73 -7.66548 2.79458 0
M  V30 51034 H 1354.08 -5.16076 2.65138 0
M  V30 51035 H 1353.8 -7.06433 0.329384 0
M  V30 51036 H 1352.81 -6.90829 1.81996 0
M  V30 51037 H 1354.64 -8.90774 1.62639 0
M  V30 51038 H 1354.71 -6.02181 -0.895285 0
M  V30 51039 H 1353.68 -4.80252 -3.45468 0
M  V30 51040 H 1355.42 -5.20015 -3.22119 0
M  V30 51041 H 1354.93 -3.53269 -3.67833 0
M  V30 51042 H 1354.2 -1.39558 0.227499 0
M  V30 51043 P 1352.77 -8.03563 3.84925 0
M  V30 51044 O 1352.55 -8.85821 5.0569 0
M  V30 51045 O 1351.98 -8.41101 2.65469 0
M  V30 51046 O 1352.52 -6.4965 4.18908 0
M  V30 51047 C 1353.46 -5.81037 5.05421 0
M  V30 51048 C 1352.73 -4.78366 5.89277 0
M  V30 51049 O 1352.52 -3.58302 5.08433 0
M  V30 51050 C 1351.33 -5.17448 6.36119 0
M  V30 51051 O 1350.94 -4.45271 7.53232 0
M  V30 51052 C 1350.45 -4.74639 5.19936 0
M  V30 51053 C 1351.16 -3.49432 4.70418 0
M  V30 51054 N 1351.11 -3.32099 3.22613 0
M  V30 51055 H 1353.95 -6.54213 5.71376 0
M  V30 51056 H 1354.22 -5.30936 4.43503 0
M  V30 51057 H 1353.36 -4.55889 6.76652 0
M  V30 51058 H 1350.7 -2.61715 5.17932 0
M  V30 51059 H 1350.42 -5.52155 4.41878 0
M  V30 51060 H 1349.43 -4.51981 5.53374 0
M  V30 51061 H 1351.26 -6.25124 6.55234 0
M  V30 51062 P 1349.39 -4.23843 7.83734 0
M  V30 51063 O 1349.17 -4.19407 9.29784 0
M  V30 51064 O 1348.6 -5.24426 7.09156 0
M  V30 51065 O 1349.14 -2.7935 7.20758 0
M  V30 51066 C 1350.08 -1.7299 7.50419 0
M  V30 51067 C 1349.35 -0.406376 7.57911 0
M  V30 51068 O 1349.14 0.0897726 6.21935 0
M  V30 51069 C 1347.95 -0.447224 8.1878 0
M  V30 51070 O 1347.56 0.825065 8.71101 0
M  V30 51071 C 1347.07 -0.783801 6.99623 0
M  V30 51072 C 1347.78 -0.0619192 5.85967 0
M  V30 51073 N 1347.73 -0.7859 4.56281 0
M  V30 51074 H 1350.57 -1.93423 8.4679 0
M  V30 51075 H 1350.84 -1.68181 6.71046 0
M  V30 51076 H 1349.98 0.289041 8.15388 0
M  V30 51077 P 1346.01 1.17771 8.83182 0
M  V30 51078 O 1345.79 2.07206 9.98732 0
M  V30 51079 O 1345.22 -0.0743816 8.81969 0
M  V30 51080 O 1345.76 1.97652 7.47304 0
M  V30 51081 C 1346.7 3.01133 7.08783 0
M  V30 51082 C 1345.97 4.12613 6.37049 0
M  V30 51083 O 1345.76 3.72827 4.97879 0
M  V30 51084 C 1344.57 4.45085 6.88694 0
M  V30 51085 O 1344.18 5.7877 6.5624 0
M  V30 51086 C 1343.69 3.47817 6.12078 0
M  V30 51087 C 1344.4 3.39414 4.77697 0
M  V30 51088 N 1344.35 2.04615 4.15333 0
M  V30 51089 H 1347.19 3.41248 7.98759 0
M  V30 51090 H 1347.46 2.5837 6.41742 0
M  V30 51091 H 1346.6 5.02657 6.42673 0
M  V30 51092 P 1342.63 6.144 6.45285 0
M  V30 51093 O 1342.41 7.54673 6.86199 0
M  V30 51094 O 1341.84 5.12391 7.179 0
M  V30 51095 O 1342.38 5.99158 4.88404 0
M  V30 51096 C 1343.32 6.60234 3.96415 0
M  V30 51097 C 1342.59 7.08259 2.72856 0
M  V30 51098 O 1342.38 5.9427 1.83651 0
M  V30 51099 C 1341.19 7.64886 2.9555 0
M  V30 51100 O 1340.8 8.53963 1.90717 0
M  V30 51101 C 1340.31 6.4116 2.90739 0
M  V30 51102 C 1341.02 5.55375 1.86963 0
M  V30 51103 N 1340.97 4.09448 2.16152 0
M  V30 51104 H 1343.81 7.45574 4.45629 0
M  V30 51105 H 1344.08 5.85864 3.679 0
M  V30 51106 H 1343.22 7.84412 2.24479 0
M  V30 51107 H 1340.56 5.73457 0.888562 0
M  V30 51108 H 1340.28 5.90877 3.88583 0
M  V30 51109 H 1339.29 6.6596 2.58858 0
M  V30 51110 H 1341.12 8.16339 3.92049 0
M  V30 51111 P 1339.25 8.7635 1.60911 0
M  V30 51112 O 1339.03 10.1388 1.11561 0
M  V30 51113 O 1338.46 8.36503 2.79617 0
M  V30 51114 O 1339 7.71806 0.42951 0
M  V30 51115 C 1339.94 7.67148 -0.673689 0
M  V30 51116 C 1339.21 7.33374 -1.95559 0
M  V30 51117 O 1339 5.88721 -2.00726 0
M  V30 51118 C 1337.81 7.92526 -2.10483 0
M  V30 51119 O 1337.42 8.02971 -3.47653 0
M  V30 51120 C 1336.93 6.89602 -1.41652 0
M  V30 51121 C 1337.64 5.59201 -1.75185 0
M  V30 51122 N 1337.59 4.58235 -0.662552 0
M  V30 51123 H 1340.43 8.65116 -0.777161 0
M  V30 51124 H 1340.7 6.90173 -0.474152 0
M  V30 51125 H 1339.84 7.66548 -2.79458 0
M  V30 51126 P 1335.87 8.03563 -3.84925 0
M  V30 51127 O 1335.65 8.85821 -5.0569 0
M  V30 51128 O 1335.08 8.41101 -2.65469 0
M  V30 51129 O 1335.62 6.4965 -4.18908 0
M  V30 51130 C 1336.56 5.81037 -5.05421 0
M  V30 51131 C 1335.83 4.78366 -5.89277 0
M  V30 51132 O 1335.62 3.58302 -5.08433 0
M  V30 51133 C 1334.43 5.17448 -6.36119 0
M  V30 51134 O 1334.04 4.45271 -7.53232 0
M  V30 51135 C 1333.55 4.74639 -5.19936 0
M  V30 51136 C 1334.26 3.49432 -4.70418 0
M  V30 51137 N 1334.21 3.32099 -3.22613 0
M  V30 51138 H 1337.05 6.54213 -5.71376 0
M  V30 51139 H 1337.32 5.30936 -4.43503 0
M  V30 51140 H 1336.46 4.55889 -6.76652 0
M  V30 51141 H 1333.8 2.61715 -5.17932 0
M  V30 51142 H 1333.52 5.52155 -4.41878 0
M  V30 51143 H 1332.53 4.51981 -5.53374 0
M  V30 51144 H 1334.36 6.25124 -6.55234 0
M  V30 51145 P 1332.49 4.23843 -7.83734 0
M  V30 51146 O 1332.27 4.19407 -9.29784 0
M  V30 51147 O 1331.7 5.24426 -7.09156 0
M  V30 51148 O 1332.24 2.7935 -7.20758 0
M  V30 51149 C 1333.18 1.7299 -7.50419 0
M  V30 51150 C 1332.45 0.406376 -7.57911 0
M  V30 51151 O 1332.24 -0.0897726 -6.21935 0
M  V30 51152 C 1331.05 0.447224 -8.1878 0
M  V30 51153 O 1330.66 -0.825065 -8.71101 0
M  V30 51154 C 1330.17 0.783801 -6.99623 0
M  V30 51155 C 1330.88 0.0619192 -5.85967 0
M  V30 51156 N 1330.83 0.7859 -4.56281 0
M  V30 51157 H 1333.67 1.93423 -8.4679 0
M  V30 51158 H 1333.94 1.68181 -6.71046 0
M  V30 51159 H 1333.08 -0.289041 -8.15388 0
M  V30 51160 P 1329.11 -1.17771 -8.83182 0
M  V30 51161 O 1328.89 -2.07206 -9.98732 0
M  V30 51162 O 1328.32 0.0743816 -8.81969 0
M  V30 51163 O 1328.86 -1.97652 -7.47304 0
M  V30 51164 C 1329.8 -3.01133 -7.08783 0
M  V30 51165 C 1329.07 -4.12613 -6.37049 0
M  V30 51166 O 1328.86 -3.72827 -4.97879 0
M  V30 51167 C 1327.67 -4.45085 -6.88694 0
M  V30 51168 O 1327.28 -5.7877 -6.5624 0
M  V30 51169 C 1326.79 -3.47817 -6.12078 0
M  V30 51170 C 1327.5 -3.39414 -4.77697 0
M  V30 51171 N 1327.45 -2.04615 -4.15333 0
M  V30 51172 H 1330.29 -3.41248 -7.98759 0
M  V30 51173 H 1330.56 -2.5837 -6.41742 0
M  V30 51174 H 1329.7 -5.02657 -6.42673 0
M  V30 51175 P 1325.73 -6.144 -6.45285 0
M  V30 51176 O 1325.51 -7.54673 -6.86199 0
M  V30 51177 O 1324.94 -5.12391 -7.179 0
M  V30 51178 O 1325.48 -5.99158 -4.88404 0
M  V30 51179 C 1326.42 -6.60234 -3.96415 0
M  V30 51180 C 1325.69 -7.08259 -2.72856 0
M  V30 51181 O 1325.48 -5.9427 -1.83651 0
M  V30 51182 C 1324.29 -7.64886 -2.9555 0
M  V30 51183 O 1323.9 -8.53963 -1.90717 0
M  V30 51184 C 1323.41 -6.4116 -2.90739 0
M  V30 51185 C 1324.12 -5.55375 -1.86963 0
M  V30 51186 N 1324.07 -4.09664 -2.15742 0
M  V30 51187 C 1324.15 -3.44381 -3.37233 0
M  V30 51188 N 1324.07 -2.14131 -3.28347 0
M  V30 51189 C 1323.93 -1.90247 -1.91588 0
M  V30 51190 C 1323.8 -0.683992 -1.20892 0
M  V30 51191 O 1323.78 0.46618 -1.64523 0
M  V30 51192 N 1323.68 -0.903396 0.173998 0
M  V30 51193 C 1323.68 -2.14171 0.784879 0
M  V30 51194 N 1323.55 -2.1435 2.11317 0
M  V30 51195 N 1323.81 -3.28784 0.119316 0
M  V30 51196 C 1323.93 -3.0977 -1.22194 0
M  V30 51197 H 1326.91 -7.45574 -4.45629 0
M  V30 51198 H 1327.18 -5.86232 -3.67314 0
M  V30 51199 H 1326.32 -7.84412 -2.24479 0
M  V30 51200 H 1323.66 -5.73556 -0.888715 0
M  V30 51201 H 1323.38 -5.9096 -3.88638 0
M  V30 51202 H 1322.39 -6.66053 -2.58894 0
M  V30 51203 H 1324.22 -8.16429 -3.92093 0
M  V30 51204 H 1324.27 -3.96785 -4.32043 0
M  V30 51205 H 1323.59 -0.0999567 0.761467 0
M  V30 51206 H 1323.55 -3.03436 2.63076 0
M  V30 51207 H 1323.45 -1.25228 2.62233 0
M  V30 51208 P 1322.35 -8.7635 -1.60911 0
M  V30 51209 O 1322.13 -10.1388 -1.11561 0
M  V30 51210 O 1321.56 -8.36503 -2.79617 0
M  V30 51211 O 1322.1 -7.71806 -0.42951 0
M  V30 51212 C 1323.04 -7.67148 0.673689 0
M  V30 51213 C 1322.31 -7.33374 1.95559 0
M  V30 51214 O 1322.1 -5.88721 2.00726 0
M  V30 51215 C 1320.91 -7.92526 2.10483 0
M  V30 51216 O 1320.52 -8.02971 3.47653 0
M  V30 51217 C 1320.03 -6.89602 1.41652 0
M  V30 51218 C 1320.74 -5.59201 1.75185 0
M  V30 51219 N 1320.69 -4.58301 0.657969 0
M  V30 51220 C 1320.77 -4.79019 -0.692603 0
M  V30 51221 N 1320.7 -3.69736 -1.38998 0
M  V30 51222 C 1320.55 -2.70474 -0.438135 0
M  V30 51223 C 1320.42 -1.30327 -0.538142 0
M  V30 51224 N 1320.41 -0.64304 -1.69192 0
M  V30 51225 N 1320.3 -0.611027 0.605183 0
M  V30 51226 C 1320.31 -1.27002 1.75953 0
M  V30 51227 N 1320.43 -2.56038 1.98546 0
M  V30 51228 C 1320.55 -3.22681 0.822541 0
M  V30 51229 H 1323.53 -8.65116 0.777161 0
M  V30 51230 H 1323.8 -6.9022 0.46725 0
M  V30 51231 H 1322.94 -7.66548 2.79458 0
M  V30 51232 H 1320.28 -5.16165 2.65183 0
M  V30 51233 H 1320 -7.06433 0.329384 0
M  V30 51234 H 1319.01 -6.90926 1.82021 0
M  V30 51235 H 1320.84 -8.90873 1.62657 0
M  V30 51236 H 1320.88 -5.77785 -1.13874 0
M  V30 51237 H 1320.5 -1.15585 -2.57991 0
M  V30 51238 H 1320.31 0.382989 -1.69835 0
M  V30 51239 H 1320.21 -0.653331 2.64449 0
M  V30 51240 P 1318.97 -8.03563 3.84925 0
M  V30 51241 O 1318.75 -8.85821 5.0569 0
M  V30 51242 O 1318.18 -8.41101 2.65469 0
M  V30 51243 O 1318.72 -6.4965 4.18908 0
M  V30 51244 C 1319.66 -5.81037 5.05421 0
M  V30 51245 C 1318.93 -4.78366 5.89277 0
M  V30 51246 O 1318.72 -3.58302 5.08433 0
M  V30 51247 C 1317.53 -5.17448 6.36119 0
M  V30 51248 O 1317.14 -4.45271 7.53232 0
M  V30 51249 C 1316.65 -4.74639 5.19936 0
M  V30 51250 C 1317.36 -3.49432 4.70418 0
M  V30 51251 N 1317.31 -3.32099 3.22613 0
M  V30 51252 H 1320.15 -6.54213 5.71376 0
M  V30 51253 H 1320.42 -5.30936 4.43503 0
M  V30 51254 H 1319.56 -4.55889 6.76652 0
M  V30 51255 H 1316.9 -2.61715 5.17932 0
M  V30 51256 H 1316.62 -5.52155 4.41878 0
M  V30 51257 H 1315.63 -4.51981 5.53374 0
M  V30 51258 H 1317.46 -6.25124 6.55234 0
M  V30 51259 P 1315.59 -4.23843 7.83734 0
M  V30 51260 O 1315.37 -4.19407 9.29784 0
M  V30 51261 O 1314.8 -5.24426 7.09156 0
M  V30 51262 O 1315.34 -2.79386 7.20852 0
M  V30 51263 C 1316.28 -1.7299 7.50419 0
M  V30 51264 C 1315.55 -0.41401 7.5797 0
M  V30 51265 O 1315.34 0.089787 6.22035 0
M  V30 51266 C 1314.15 -0.447224 8.1878 0
M  V30 51267 O 1313.76 0.825159 8.71201 0
M  V30 51268 C 1313.27 -0.783801 6.99623 0
M  V30 51269 C 1313.98 -0.0619192 5.85967 0
M  V30 51270 N 1313.93 -0.7859 4.56281 0
M  V30 51271 C 1313.78 -0.0359258 3.39981 0
M  V30 51272 O 1313.69 1.19723 3.49038 0
M  V30 51273 N 1313.73 -0.869151 2.14025 0
M  V30 51274 C 1313.83 -2.01207 2.14363 0
M  V30 51275 N 1313.78 -2.58978 0.954287 0
M  V30 51276 C 1313.98 -2.80817 3.32215 0
M  V30 51277 C 1314.03 -2.13785 4.50884 0
M  V30 51278 H 1316.77 -1.93401 8.46693 0
M  V30 51279 H 1317.04 -1.68181 6.71046 0
M  V30 51280 H 1316.18 0.289076 8.15488 0
M  V30 51281 H 1313.52 0.927166 5.72947 0
M  V30 51282 H 1313.24 -1.87 6.82132 0
M  V30 51283 H 1312.25 -0.404009 7.13457 0
M  V30 51284 H 1314.08 -1.20599 8.97534 0
M  V30 51285 H 1314.16 -2.70295 5.43162 0
M  V30 51286 H 1314.05 -3.89465 3.27406 0
M  V30 51287 H 1313.67 -2.01616 0.107046 0
M  V30 51288 H 1313.86 -3.61403 0.873101 0
M  V30 51289 P 1312.21 1.17771 8.83182 0
M  V30 51290 O 1311.99 2.07206 9.98732 0
M  V30 51291 O 1311.42 -0.0743816 8.81969 0
M  V30 51292 O 1311.96 1.97652 7.47304 0
M  V30 51293 C 1312.9 3.01133 7.08783 0
M  V30 51294 C 1312.17 4.12613 6.37049 0
M  V30 51295 O 1311.96 3.72827 4.97879 0
M  V30 51296 C 1310.77 4.45085 6.88694 0
M  V30 51297 O 1310.38 5.7877 6.5624 0
M  V30 51298 C 1309.89 3.47817 6.12078 0
M  V30 51299 C 1310.6 3.39414 4.77697 0
M  V30 51300 N 1310.55 2.04615 4.15333 0
M  V30 51301 H 1313.39 3.41248 7.98759 0
M  V30 51302 H 1313.66 2.5837 6.41742 0
M  V30 51303 H 1312.8 5.02657 6.42673 0
M  V30 51304 P 1308.83 6.144 6.45285 0
M  V30 51305 O 1308.61 7.54673 6.86199 0
M  V30 51306 O 1308.04 5.12391 7.179 0
M  V30 51307 O 1308.58 5.99158 4.88404 0
M  V30 51308 C 1309.52 6.60234 3.96415 0
M  V30 51309 C 1308.79 7.08259 2.72856 0
M  V30 51310 O 1308.58 5.9427 1.83651 0
M  V30 51311 C 1307.39 7.64886 2.9555 0
M  V30 51312 O 1307 8.53963 1.90717 0
M  V30 51313 C 1306.51 6.4116 2.90739 0
M  V30 51314 C 1307.22 5.55375 1.86963 0
M  V30 51315 N 1307.17 4.09448 2.16152 0
M  V30 51316 H 1310.01 7.45574 4.45629 0
M  V30 51317 H 1310.28 5.85864 3.679 0
M  V30 51318 H 1309.42 7.84412 2.24479 0
M  V30 51319 H 1306.76 5.73457 0.888562 0
M  V30 51320 H 1306.48 5.90877 3.88583 0
M  V30 51321 H 1305.49 6.6596 2.58858 0
M  V30 51322 H 1307.32 8.16339 3.92049 0
M  V30 51323 P 1305.45 8.7635 1.60911 0
M  V30 51324 O 1305.23 10.1388 1.11561 0
M  V30 51325 O 1304.66 8.36503 2.79617 0
M  V30 51326 O 1305.2 7.71806 0.42951 0
M  V30 51327 C 1306.14 7.67148 -0.673689 0
M  V30 51328 C 1305.41 7.33374 -1.95559 0
M  V30 51329 O 1305.2 5.88721 -2.00726 0
M  V30 51330 C 1304.01 7.92526 -2.10483 0
M  V30 51331 O 1303.62 8.02971 -3.47653 0
M  V30 51332 C 1303.13 6.89602 -1.41652 0
M  V30 51333 C 1303.84 5.59201 -1.75185 0
M  V30 51334 N 1303.79 4.58301 -0.657969 0
M  V30 51335 H 1306.63 8.65116 -0.777161 0
M  V30 51336 H 1306.9 6.9022 -0.46725 0
M  V30 51337 H 1306.04 7.66548 -2.79458 0
M  V30 51338 H 1303.38 5.16165 -2.65183 0
M  V30 51339 H 1303.1 7.06433 -0.329384 0
M  V30 51340 H 1302.11 6.90926 -1.82021 0
M  V30 51341 H 1303.94 8.90873 -1.62657 0
M  V30 51342 P 1302.07 8.03563 -3.84925 0
M  V30 51343 O 1301.85 8.85821 -5.0569 0
M  V30 51344 O 1301.28 8.41101 -2.65469 0
M  V30 51345 O 1301.82 6.4965 -4.18908 0
M  V30 51346 C 1302.76 5.81037 -5.05421 0
M  V30 51347 C 1302.03 4.78366 -5.89277 0
M  V30 51348 O 1301.82 3.58302 -5.08433 0
M  V30 51349 C 1300.63 5.17448 -6.36119 0
M  V30 51350 O 1300.24 4.45271 -7.53232 0
M  V30 51351 C 1299.75 4.74639 -5.19936 0
M  V30 51352 C 1300.46 3.49432 -4.70418 0
M  V30 51353 N 1300.41 3.31776 -3.22945 0
M  V30 51354 H 1303.25 6.54213 -5.71376 0
M  V30 51355 H 1303.52 5.30492 -4.44033 0
M  V30 51356 H 1302.66 4.55889 -6.76652 0
M  V30 51357 P 1298.69 4.23843 -7.83734 0
M  V30 51358 O 1298.47 4.19407 -9.29784 0
M  V30 51359 O 1297.9 5.24426 -7.09156 0
M  V30 51360 O 1298.44 2.7935 -7.20758 0
M  V30 51361 C 1299.38 1.7299 -7.50419 0
M  V30 51362 C 1298.65 0.406376 -7.57911 0
M  V30 51363 O 1298.44 -0.0897726 -6.21935 0
M  V30 51364 C 1297.25 0.447224 -8.1878 0
M  V30 51365 O 1296.86 -0.825065 -8.71101 0
M  V30 51366 C 1296.37 0.783801 -6.99623 0
M  V30 51367 C 1297.08 0.0619192 -5.85967 0
M  V30 51368 N 1297.03 0.7859 -4.56281 0
M  V30 51369 H 1299.87 1.93423 -8.4679 0
M  V30 51370 H 1300.14 1.68181 -6.71046 0
M  V30 51371 H 1299.28 -0.289041 -8.15388 0
M  V30 51372 P 1295.31 -1.17771 -8.83182 0
M  V30 51373 O 1295.09 -2.07206 -9.98732 0
M  V30 51374 O 1294.52 0.0743816 -8.81969 0
M  V30 51375 O 1295.06 -1.97652 -7.47304 0
M  V30 51376 C 1296 -3.01133 -7.08783 0
M  V30 51377 C 1295.27 -4.12613 -6.37049 0
M  V30 51378 O 1295.06 -3.72827 -4.97879 0
M  V30 51379 C 1293.87 -4.45085 -6.88694 0
M  V30 51380 O 1293.48 -5.7877 -6.5624 0
M  V30 51381 C 1292.99 -3.47817 -6.12078 0
M  V30 51382 C 1293.7 -3.39414 -4.77697 0
M  V30 51383 N 1293.65 -2.04615 -4.15333 0
M  V30 51384 H 1296.49 -3.41248 -7.98759 0
M  V30 51385 H 1296.76 -2.5837 -6.41742 0
M  V30 51386 H 1295.9 -5.02657 -6.42673 0
M  V30 51387 P 1291.93 -6.144 -6.45285 0
M  V30 51388 O 1291.71 -7.54673 -6.86199 0
M  V30 51389 O 1291.14 -5.12391 -7.179 0
M  V30 51390 O 1291.68 -5.99158 -4.88404 0
M  V30 51391 C 1292.62 -6.60234 -3.96415 0
M  V30 51392 C 1291.89 -7.08259 -2.72856 0
M  V30 51393 O 1291.68 -5.9427 -1.83651 0
M  V30 51394 C 1290.49 -7.64886 -2.9555 0
M  V30 51395 O 1290.1 -8.53963 -1.90717 0
M  V30 51396 C 1289.61 -6.4116 -2.90739 0
M  V30 51397 C 1290.32 -5.55375 -1.86963 0
M  V30 51398 N 1290.27 -4.09448 -2.16152 0
M  V30 51399 C 1290.35 -3.46824 -3.37593 0
M  V30 51400 N 1290.28 -2.17422 -3.29777 0
M  V30 51401 C 1290.13 -1.93065 -1.94427 0
M  V30 51402 C 1290 -0.738053 -1.20141 0
M  V30 51403 N 1289.99 0.474256 -1.74676 0
M  V30 51404 N 1289.88 -0.850049 0.13045 0
M  V30 51405 C 1289.89 -2.06169 0.676992 0
M  V30 51406 N 1290.01 -3.23842 0.101312 0
M  V30 51407 C 1290.13 -3.09402 -1.23122 0
M  V30 51408 H 1293.11 -7.45574 -4.45629 0
M  V30 51409 H 1293.38 -5.85864 -3.679 0
M  V30 51410 H 1292.52 -7.84412 -2.24479 0
M  V30 51411 H 1289.86 -5.73457 -0.888562 0
M  V30 51412 H 1289.58 -5.90877 -3.88583 0
M  V30 51413 H 1288.59 -6.6596 -2.58858 0
M  V30 51414 H 1290.42 -8.16339 -3.92049 0
M  V30 51415 H 1290.46 -4.00505 -4.3174 0
M  V30 51416 H 1290.08 0.581337 -2.76658 0
M  V30 51417 H 1289.89 1.30811 -1.14888 0
M  V30 51418 H 1289.79 -2.08295 1.75542 0
M  V30 51419 P 1288.55 -8.7635 -1.60911 0
M  V30 51420 O 1288.33 -10.1388 -1.11561 0
M  V30 51421 O 1287.76 -8.36503 -2.79617 0
M  V30 51422 O 1288.3 -7.71806 -0.42951 0
M  V30 51423 C 1289.24 -7.67148 0.673689 0
M  V30 51424 C 1288.51 -7.33374 1.95559 0
M  V30 51425 O 1288.3 -5.88721 2.00726 0
M  V30 51426 C 1287.11 -7.92526 2.10483 0
M  V30 51427 O 1286.72 -8.02971 3.47653 0
M  V30 51428 C 1286.23 -6.89602 1.41652 0
M  V30 51429 C 1286.94 -5.59201 1.75185 0
M  V30 51430 N 1286.89 -4.58235 0.662552 0
M  V30 51431 H 1289.73 -8.65116 0.777161 0
M  V30 51432 H 1290 -6.90173 0.474152 0
M  V30 51433 H 1289.14 -7.66548 2.79458 0
M  V30 51434 P 1285.17 -8.03563 3.84925 0
M  V30 51435 O 1284.95 -8.85821 5.0569 0
M  V30 51436 O 1284.38 -8.41101 2.65469 0
M  V30 51437 O 1284.92 -6.4965 4.18908 0
M  V30 51438 C 1285.86 -5.81037 5.05421 0
M  V30 51439 C 1285.13 -4.78366 5.89277 0
M  V30 51440 O 1284.92 -3.58302 5.08433 0
M  V30 51441 C 1283.73 -5.17448 6.36119 0
M  V30 51442 O 1283.34 -4.45271 7.53232 0
M  V30 51443 C 1282.85 -4.74639 5.19936 0
M  V30 51444 C 1283.56 -3.49432 4.70418 0
M  V30 51445 N 1283.51 -3.31776 3.22945 0
M  V30 51446 H 1286.35 -6.54213 5.71376 0
M  V30 51447 H 1286.62 -5.30492 4.44033 0
M  V30 51448 H 1285.76 -4.55889 6.76652 0
M  V30 51449 P 1281.79 -4.23843 7.83734 0
M  V30 51450 O 1281.57 -4.19407 9.29784 0
M  V30 51451 O 1281 -5.24426 7.09156 0
M  V30 51452 O 1281.54 -2.7935 7.20758 0
M  V30 51453 C 1282.48 -1.7299 7.50419 0
M  V30 51454 C 1281.75 -0.406376 7.57911 0
M  V30 51455 O 1281.54 0.0897726 6.21935 0
M  V30 51456 C 1280.35 -0.447224 8.1878 0
M  V30 51457 O 1279.96 0.825065 8.71101 0
M  V30 51458 C 1279.47 -0.783801 6.99623 0
M  V30 51459 C 1280.18 -0.0619192 5.85967 0
M  V30 51460 N 1280.13 -0.7859 4.56281 0
M  V30 51461 H 1282.97 -1.93423 8.4679 0
M  V30 51462 H 1283.24 -1.68181 6.71046 0
M  V30 51463 H 1282.38 0.289041 8.15388 0
M  V30 51464 P 1278.41 1.17771 8.83182 0
M  V30 51465 O 1278.19 2.07206 9.98732 0
M  V30 51466 O 1277.62 -0.0743816 8.81969 0
M  V30 51467 O 1278.16 1.97652 7.47304 0
M  V30 51468 C 1279.1 3.01133 7.08783 0
M  V30 51469 C 1278.37 4.12613 6.37049 0
M  V30 51470 O 1278.16 3.72827 4.97879 0
M  V30 51471 C 1276.97 4.45085 6.88694 0
M  V30 51472 O 1276.58 5.7877 6.5624 0
M  V30 51473 C 1276.09 3.47817 6.12078 0
M  V30 51474 C 1276.8 3.39414 4.77697 0
M  V30 51475 N 1276.75 2.04199 4.15538 0
M  V30 51476 H 1279.59 3.41248 7.98759 0
M  V30 51477 H 1279.86 2.57728 6.42 0
M  V30 51478 H 1279 5.02657 6.42673 0
M  V30 51479 H 1276.34 4.11708 4.08956 0
M  V30 51480 H 1276.06 2.49626 6.61679 0
M  V30 51481 H 1275.07 3.8662 6.00862 0
M  V30 51482 H 1276.9 4.29991 7.97006 0
M  V30 51483 P 1275.03 6.144 6.45285 0
M  V30 51484 O 1274.81 7.54673 6.86199 0
M  V30 51485 O 1274.24 5.12391 7.179 0
M  V30 51486 O 1274.78 5.99158 4.88404 0
M  V30 51487 C 1275.72 6.60234 3.96415 0
M  V30 51488 C 1274.99 7.08259 2.72856 0
M  V30 51489 O 1274.78 5.9427 1.83651 0
M  V30 51490 C 1273.59 7.64886 2.9555 0
M  V30 51491 O 1273.2 8.53963 1.90717 0
M  V30 51492 C 1272.71 6.4116 2.90739 0
M  V30 51493 C 1273.42 5.55375 1.86963 0
M  V30 51494 N 1273.37 4.09448 2.16152 0
M  V30 51495 C 1273.45 3.46824 3.37593 0
M  V30 51496 N 1273.38 2.17422 3.29777 0
M  V30 51497 C 1273.23 1.93065 1.94427 0
M  V30 51498 C 1273.1 0.738053 1.20141 0
M  V30 51499 N 1273.09 -0.474256 1.74676 0
M  V30 51500 N 1272.98 0.850049 -0.13045 0
M  V30 51501 C 1272.99 2.06169 -0.676992 0
M  V30 51502 N 1273.11 3.23842 -0.101312 0
M  V30 51503 C 1273.23 3.09402 1.23122 0
M  V30 51504 H 1276.21 7.45574 4.45629 0
M  V30 51505 H 1276.48 5.85864 3.679 0
M  V30 51506 H 1275.62 7.84412 2.24479 0
M  V30 51507 H 1272.96 5.73457 0.888562 0
M  V30 51508 H 1272.68 5.90877 3.88583 0
M  V30 51509 H 1271.69 6.6596 2.58858 0
M  V30 51510 H 1273.52 8.16339 3.92049 0
M  V30 51511 H 1273.56 4.00505 4.3174 0
M  V30 51512 H 1273.18 -0.581337 2.76658 0
M  V30 51513 H 1272.99 -1.30811 1.14888 0
M  V30 51514 H 1272.89 2.08295 -1.75542 0
M  V30 51515 P 1271.65 8.7635 1.60911 0
M  V30 51516 O 1271.43 10.1388 1.11561 0
M  V30 51517 O 1270.86 8.36503 2.79617 0
M  V30 51518 O 1271.4 7.71806 0.42951 0
M  V30 51519 C 1272.34 7.67148 -0.673689 0
M  V30 51520 C 1271.61 7.33374 -1.95559 0
M  V30 51521 O 1271.4 5.88721 -2.00726 0
M  V30 51522 C 1270.21 7.92526 -2.10483 0
M  V30 51523 O 1269.82 8.02971 -3.47653 0
M  V30 51524 C 1269.33 6.89602 -1.41652 0
M  V30 51525 C 1270.04 5.59201 -1.75185 0
M  V30 51526 N 1269.99 4.58235 -0.662552 0
M  V30 51527 H 1272.83 8.65116 -0.777161 0
M  V30 51528 H 1273.1 6.90173 -0.474152 0
M  V30 51529 H 1272.24 7.66548 -2.79458 0
M  V30 51530 P 1268.27 8.03563 -3.84925 0
M  V30 51531 O 1268.05 8.85821 -5.0569 0
M  V30 51532 O 1267.48 8.41101 -2.65469 0
M  V30 51533 O 1268.02 6.4965 -4.18908 0
M  V30 51534 C 1268.96 5.81037 -5.05421 0
M  V30 51535 C 1268.23 4.78366 -5.89277 0
M  V30 51536 O 1268.02 3.58302 -5.08433 0
M  V30 51537 C 1266.83 5.17448 -6.36119 0
M  V30 51538 O 1266.44 4.45271 -7.53232 0
M  V30 51539 C 1265.95 4.74639 -5.19936 0
M  V30 51540 C 1266.66 3.49432 -4.70418 0
M  V30 51541 N 1266.61 3.32099 -3.22613 0
M  V30 51542 H 1269.45 6.54213 -5.71376 0
M  V30 51543 H 1269.72 5.30936 -4.43503 0
M  V30 51544 H 1268.86 4.55889 -6.76652 0
M  V30 51545 H 1266.2 2.61715 -5.17932 0
M  V30 51546 H 1265.92 5.52155 -4.41878 0
M  V30 51547 H 1264.93 4.51981 -5.53374 0
M  V30 51548 H 1266.76 6.25124 -6.55234 0
M  V30 51549 P 1264.89 4.23843 -7.83734 0
M  V30 51550 O 1264.67 4.19407 -9.29784 0
M  V30 51551 O 1264.1 5.24426 -7.09156 0
M  V30 51552 O 1264.64 2.7935 -7.20758 0
M  V30 51553 C 1265.58 1.7299 -7.50419 0
M  V30 51554 C 1264.85 0.406376 -7.57911 0
M  V30 51555 O 1264.64 -0.0897726 -6.21935 0
M  V30 51556 C 1263.45 0.447224 -8.1878 0
M  V30 51557 O 1263.06 -0.825065 -8.71101 0
M  V30 51558 C 1262.57 0.783801 -6.99623 0
M  V30 51559 C 1263.28 0.0619192 -5.85967 0
M  V30 51560 N 1263.23 0.790462 -4.56202 0
M  V30 51561 H 1266.07 1.93423 -8.4679 0
M  V30 51562 H 1266.34 1.68852 -6.70877 0
M  V30 51563 H 1265.48 -0.289041 -8.15388 0
M  V30 51564 H 1262.82 -0.927006 -5.72848 0
M  V30 51565 H 1262.54 1.86973 -6.82036 0
M  V30 51566 H 1261.55 0.403953 -7.13357 0
M  V30 51567 H 1263.38 1.20599 -8.97534 0
M  V30 51568 P 1261.51 -1.17771 -8.83182 0
M  V30 51569 O 1261.29 -2.07206 -9.98732 0
M  V30 51570 O 1260.72 0.0743816 -8.81969 0
M  V30 51571 O 1261.26 -1.97652 -7.47304 0
M  V30 51572 C 1262.2 -3.01133 -7.08783 0
M  V30 51573 C 1261.47 -4.12613 -6.37049 0
M  V30 51574 O 1261.26 -3.72827 -4.97879 0
M  V30 51575 C 1260.07 -4.45085 -6.88694 0
M  V30 51576 O 1259.68 -5.7877 -6.5624 0
M  V30 51577 C 1259.19 -3.47817 -6.12078 0
M  V30 51578 C 1259.9 -3.39414 -4.77697 0
M  V30 51579 N 1259.85 -2.04615 -4.15333 0
M  V30 51580 H 1262.69 -3.41248 -7.98759 0
M  V30 51581 H 1262.96 -2.5837 -6.41742 0
M  V30 51582 H 1262.1 -5.02657 -6.42673 0
M  V30 51583 P 1258.13 -6.144 -6.45285 0
M  V30 51584 O 1257.91 -7.54673 -6.86199 0
M  V30 51585 O 1257.34 -5.12391 -7.179 0
M  V30 51586 O 1257.88 -5.99158 -4.88404 0
M  V30 51587 C 1258.82 -6.60234 -3.96415 0
M  V30 51588 C 1258.09 -7.08259 -2.72856 0
M  V30 51589 O 1257.88 -5.9427 -1.83651 0
M  V30 51590 C 1256.69 -7.64886 -2.9555 0
M  V30 51591 O 1256.3 -8.53963 -1.90717 0
M  V30 51592 C 1255.81 -6.4116 -2.90739 0
M  V30 51593 C 1256.52 -5.55375 -1.86963 0
M  V30 51594 N 1256.47 -4.09448 -2.16152 0
M  V30 51595 C 1256.55 -3.46824 -3.37593 0
M  V30 51596 N 1256.48 -2.17422 -3.29777 0
M  V30 51597 C 1256.33 -1.93065 -1.94427 0
M  V30 51598 C 1256.2 -0.738053 -1.20141 0
M  V30 51599 N 1256.19 0.474256 -1.74676 0
M  V30 51600 N 1256.08 -0.850049 0.13045 0
M  V30 51601 C 1256.09 -2.06169 0.676992 0
M  V30 51602 N 1256.21 -3.23842 0.101312 0
M  V30 51603 C 1256.33 -3.09402 -1.23122 0
M  V30 51604 H 1259.31 -7.45574 -4.45629 0
M  V30 51605 H 1259.58 -5.85864 -3.679 0
M  V30 51606 H 1258.72 -7.84412 -2.24479 0
M  V30 51607 H 1256.06 -5.73457 -0.888562 0
M  V30 51608 H 1255.78 -5.90877 -3.88583 0
M  V30 51609 H 1254.79 -6.6596 -2.58858 0
M  V30 51610 H 1256.62 -8.16339 -3.92049 0
M  V30 51611 H 1256.66 -4.00505 -4.3174 0
M  V30 51612 H 1256.28 0.581337 -2.76658 0
M  V30 51613 H 1256.09 1.30811 -1.14888 0
M  V30 51614 H 1255.99 -2.08295 1.75542 0
M  V30 51615 P 1254.75 -8.7635 -1.60911 0
M  V30 51616 O 1254.53 -10.1388 -1.11561 0
M  V30 51617 O 1253.96 -8.36503 -2.79617 0
M  V30 51618 O 1254.5 -7.71806 -0.42951 0
M  V30 51619 C 1255.44 -7.67148 0.673689 0
M  V30 51620 C 1254.71 -7.33374 1.95559 0
M  V30 51621 O 1254.5 -5.88721 2.00726 0
M  V30 51622 C 1253.31 -7.92526 2.10483 0
M  V30 51623 O 1252.92 -8.02971 3.47653 0
M  V30 51624 C 1252.43 -6.89602 1.41652 0
M  V30 51625 C 1253.14 -5.59201 1.75185 0
M  V30 51626 N 1253.09 -4.58235 0.662552 0
M  V30 51627 H 1255.93 -8.65116 0.777161 0
M  V30 51628 H 1256.2 -6.90173 0.474152 0
M  V30 51629 H 1255.34 -7.66548 2.79458 0
M  V30 51630 P 1251.37 -8.03563 3.84925 0
M  V30 51631 O 1251.15 -8.85821 5.0569 0
M  V30 51632 O 1250.58 -8.41101 2.65469 0
M  V30 51633 O 1251.12 -6.4965 4.18908 0
M  V30 51634 C 1252.06 -5.81037 5.05421 0
M  V30 51635 C 1251.33 -4.78366 5.89277 0
M  V30 51636 O 1251.12 -3.58302 5.08433 0
M  V30 51637 C 1249.93 -5.17448 6.36119 0
M  V30 51638 O 1249.54 -4.45271 7.53232 0
M  V30 51639 C 1249.05 -4.74639 5.19936 0
M  V30 51640 C 1249.76 -3.49432 4.70418 0
M  V30 51641 N 1249.71 -3.31776 3.22945 0
M  V30 51642 H 1252.55 -6.54213 5.71376 0
M  V30 51643 H 1252.82 -5.30492 4.44033 0
M  V30 51644 H 1251.96 -4.55889 6.76652 0
M  V30 51645 P 1247.99 -4.23843 7.83734 0
M  V30 51646 O 1247.77 -4.19407 9.29784 0
M  V30 51647 O 1247.2 -5.24426 7.09156 0
M  V30 51648 O 1247.74 -2.7935 7.20758 0
M  V30 51649 C 1248.68 -1.7299 7.50419 0
M  V30 51650 C 1247.95 -0.406376 7.57911 0
M  V30 51651 O 1247.74 0.0897726 6.21935 0
M  V30 51652 C 1246.55 -0.447224 8.1878 0
M  V30 51653 O 1246.16 0.825065 8.71101 0
M  V30 51654 C 1245.67 -0.783801 6.99623 0
M  V30 51655 C 1246.38 -0.0619192 5.85967 0
M  V30 51656 N 1246.33 -0.7859 4.56281 0
M  V30 51657 H 1249.17 -1.93423 8.4679 0
M  V30 51658 H 1249.44 -1.68181 6.71046 0
M  V30 51659 H 1248.58 0.289041 8.15388 0
M  V30 51660 P 1244.61 1.17771 8.83182 0
M  V30 51661 O 1244.39 2.07206 9.98732 0
M  V30 51662 O 1243.82 -0.0743816 8.81969 0
M  V30 51663 O 1244.36 1.97652 7.47304 0
M  V30 51664 C 1245.3 3.01133 7.08783 0
M  V30 51665 C 1244.57 4.12613 6.37049 0
M  V30 51666 O 1244.36 3.72827 4.97879 0
M  V30 51667 C 1243.17 4.45085 6.88694 0
M  V30 51668 O 1242.78 5.7877 6.5624 0
M  V30 51669 C 1242.29 3.47817 6.12078 0
M  V30 51670 C 1243 3.39414 4.77697 0
M  V30 51671 N 1242.95 2.04615 4.15333 0
M  V30 51672 H 1245.79 3.41248 7.98759 0
M  V30 51673 H 1246.06 2.5837 6.41742 0
M  V30 51674 H 1245.2 5.02657 6.42673 0
M  V30 51675 P 1241.23 6.144 6.45285 0
M  V30 51676 O 1241.01 7.54673 6.86199 0
M  V30 51677 O 1240.44 5.12391 7.179 0
M  V30 51678 O 1240.98 5.99158 4.88404 0
M  V30 51679 C 1241.92 6.60234 3.96415 0
M  V30 51680 C 1241.19 7.08259 2.72856 0
M  V30 51681 O 1240.98 5.9427 1.83651 0
M  V30 51682 C 1239.79 7.64886 2.9555 0
M  V30 51683 O 1239.4 8.53963 1.90717 0
M  V30 51684 C 1238.91 6.4116 2.90739 0
M  V30 51685 C 1239.62 5.55375 1.86963 0
M  V30 51686 N 1239.57 4.09664 2.15742 0
M  V30 51687 H 1242.41 7.45574 4.45629 0
M  V30 51688 H 1242.68 5.86232 3.67314 0
M  V30 51689 H 1241.82 7.84412 2.24479 0
M  V30 51690 P 1237.85 8.7635 1.60911 0
M  V30 51691 O 1237.63 10.1388 1.11561 0
M  V30 51692 O 1237.06 8.36503 2.79617 0
M  V30 51693 O 1237.6 7.71806 0.42951 0
M  V30 51694 C 1238.54 7.66948 -0.673514 0
M  V30 51695 C 1237.81 7.33374 -1.95559 0
M  V30 51696 O 1237.6 5.88721 -2.00726 0
M  V30 51697 C 1236.41 7.92218 -2.1125 0
M  V30 51698 O 1236.02 8.02971 -3.47653 0
M  V30 51699 C 1235.53 6.89504 -1.41631 0
M  V30 51700 C 1236.24 5.59106 -1.75155 0
M  V30 51701 N 1236.19 4.58136 -0.662409 0
M  V30 51702 C 1236.04 3.26059 -1.02863 0
M  V30 51703 O 1235.95 2.90743 -2.19009 0
M  V30 51704 N 1236 2.35995 0.0155585 0
M  V30 51705 C 1236.09 2.65248 1.35603 0
M  V30 51706 O 1236.04 1.75605 2.20651 0
M  V30 51707 C 1236.24 4.05747 1.64698 0
M  V30 51708 C 1236.35 4.42345 3.09553 0
M  V30 51709 C 1236.29 4.96734 0.652411 0
M  V30 51710 H 1239.03 8.64917 -0.776982 0
M  V30 51711 H 1239.3 6.89974 -0.474015 0
M  V30 51712 H 1238.44 7.66548 -2.79458 0
M  V30 51713 H 1235.78 5.16076 -2.65138 0
M  V30 51714 H 1235.5 7.06433 -0.329384 0
M  V30 51715 H 1234.51 6.90829 -1.81996 0
M  V30 51716 H 1236.34 8.90774 -1.62639 0
M  V30 51717 H 1236.41 6.02181 0.895285 0
M  V30 51718 H 1235.38 4.80252 3.45468 0
M  V30 51719 H 1237.12 5.20015 3.22119 0
M  V30 51720 H 1236.63 3.53269 3.67833 0
M  V30 51721 H 1235.9 1.39558 -0.227499 0
M  V30 51722 P 1234.47 8.03563 -3.84925 0
M  V30 51723 O 1234.25 8.85821 -5.0569 0
M  V30 51724 O 1233.68 8.41101 -2.65469 0
M  V30 51725 O 1234.22 6.4965 -4.18908 0
M  V30 51726 C 1235.16 5.81037 -5.05421 0
M  V30 51727 C 1234.43 4.78366 -5.89277 0
M  V30 51728 O 1234.22 3.58302 -5.08433 0
M  V30 51729 C 1233.03 5.17448 -6.36119 0
M  V30 51730 O 1232.64 4.45271 -7.53232 0
M  V30 51731 C 1232.15 4.74639 -5.19936 0
M  V30 51732 C 1232.86 3.49432 -4.70418 0
M  V30 51733 N 1232.81 3.31776 -3.22945 0
M  V30 51734 H 1235.65 6.54213 -5.71376 0
M  V30 51735 H 1235.92 5.30492 -4.44033 0
M  V30 51736 H 1235.06 4.55889 -6.76652 0
M  V30 51737 P 1231.09 4.23843 -7.83734 0
M  V30 51738 O 1230.87 4.19407 -9.29784 0
M  V30 51739 O 1230.3 5.24426 -7.09156 0
M  V30 51740 O 1230.84 2.7935 -7.20758 0
M  V30 51741 C 1231.78 1.7299 -7.50419 0
M  V30 51742 C 1231.05 0.406376 -7.57911 0
M  V30 51743 O 1230.84 -0.0897726 -6.21935 0
M  V30 51744 C 1229.65 0.447224 -8.1878 0
M  V30 51745 O 1229.26 -0.825065 -8.71101 0
M  V30 51746 C 1228.77 0.783801 -6.99623 0
M  V30 51747 C 1229.48 0.0619192 -5.85967 0
M  V30 51748 N 1229.43 0.7859 -4.56281 0
M  V30 51749 H 1232.27 1.93423 -8.4679 0
M  V30 51750 H 1232.54 1.68181 -6.71046 0
M  V30 51751 H 1231.68 -0.289041 -8.15388 0
M  V30 51752 P 1227.71 -1.17771 -8.83182 0
M  V30 51753 O 1227.49 -2.07206 -9.98732 0
M  V30 51754 O 1226.92 0.0743816 -8.81969 0
M  V30 51755 O 1227.46 -1.97652 -7.47304 0
M  V30 51756 C 1228.4 -3.01133 -7.08783 0
M  V30 51757 C 1227.67 -4.12613 -6.37049 0
M  V30 51758 O 1227.46 -3.72827 -4.97879 0
M  V30 51759 C 1226.27 -4.45085 -6.88694 0
M  V30 51760 O 1225.88 -5.7877 -6.5624 0
M  V30 51761 C 1225.39 -3.47817 -6.12078 0
M  V30 51762 C 1226.1 -3.39414 -4.77697 0
M  V30 51763 N 1226.05 -2.04615 -4.15333 0
M  V30 51764 H 1228.89 -3.41248 -7.98759 0
M  V30 51765 H 1229.16 -2.5837 -6.41742 0
M  V30 51766 H 1228.3 -5.02657 -6.42673 0
M  V30 51767 P 1224.33 -6.144 -6.45285 0
M  V30 51768 O 1224.11 -7.54673 -6.86199 0
M  V30 51769 O 1223.54 -5.12391 -7.179 0
M  V30 51770 O 1224.08 -5.99158 -4.88404 0
M  V30 51771 C 1225.02 -6.60234 -3.96415 0
M  V30 51772 C 1224.29 -7.08259 -2.72856 0
M  V30 51773 O 1224.08 -5.9427 -1.83651 0
M  V30 51774 C 1222.89 -7.64886 -2.9555 0
M  V30 51775 O 1222.5 -8.53963 -1.90717 0
M  V30 51776 C 1222.01 -6.4116 -2.90739 0
M  V30 51777 C 1222.72 -5.55375 -1.86963 0
M  V30 51778 N 1222.67 -4.09664 -2.15742 0
M  V30 51779 H 1225.51 -7.45574 -4.45629 0
M  V30 51780 H 1225.78 -5.86232 -3.67314 0
M  V30 51781 H 1224.92 -7.84412 -2.24479 0
M  V30 51782 P 1220.95 -8.7635 -1.60911 0
M  V30 51783 O 1220.73 -10.1388 -1.11561 0
M  V30 51784 O 1220.16 -8.36503 -2.79617 0
M  V30 51785 O 1220.7 -7.71806 -0.42951 0
M  V30 51786 C 1221.64 -7.67148 0.673689 0
M  V30 51787 C 1220.91 -7.33374 1.95559 0
M  V30 51788 O 1220.7 -5.88721 2.00726 0
M  V30 51789 C 1219.51 -7.92526 2.10483 0
M  V30 51790 O 1219.12 -8.02971 3.47653 0
M  V30 51791 C 1218.63 -6.89602 1.41652 0
M  V30 51792 C 1219.34 -5.59201 1.75185 0
M  V30 51793 N 1219.29 -4.58235 0.662552 0
M  V30 51794 H 1222.13 -8.65116 0.777161 0
M  V30 51795 H 1222.4 -6.90173 0.474152 0
M  V30 51796 H 1221.54 -7.66548 2.79458 0
M  V30 51797 P 1217.57 -8.03563 3.84925 0
M  V30 51798 O 1217.35 -8.85821 5.0569 0
M  V30 51799 O 1216.78 -8.41101 2.65469 0
M  V30 51800 O 1217.32 -6.4965 4.18908 0
M  V30 51801 C 1218.26 -5.81037 5.05421 0
M  V30 51802 C 1217.53 -4.78366 5.89277 0
M  V30 51803 O 1217.32 -3.58302 5.08433 0
M  V30 51804 C 1216.13 -5.17448 6.36119 0
M  V30 51805 O 1215.74 -4.45271 7.53232 0
M  V30 51806 C 1215.25 -4.74639 5.19936 0
M  V30 51807 C 1215.96 -3.49432 4.70418 0
M  V30 51808 N 1215.91 -3.31776 3.22945 0
M  V30 51809 H 1218.75 -6.54213 5.71376 0
M  V30 51810 H 1219.02 -5.30492 4.44033 0
M  V30 51811 H 1218.16 -4.55889 6.76652 0
M  V30 51812 P 1214.19 -4.23843 7.83734 0
M  V30 51813 O 1213.97 -4.19407 9.29784 0
M  V30 51814 O 1213.4 -5.24426 7.09156 0
M  V30 51815 O 1213.94 -2.7935 7.20758 0
M  V30 51816 C 1214.88 -1.7299 7.50419 0
M  V30 51817 C 1214.15 -0.406376 7.57911 0
M  V30 51818 O 1213.94 0.0897726 6.21935 0
M  V30 51819 C 1212.75 -0.447224 8.1878 0
M  V30 51820 O 1212.36 0.825065 8.71101 0
M  V30 51821 C 1211.87 -0.783801 6.99623 0
M  V30 51822 C 1212.58 -0.0619192 5.85967 0
M  V30 51823 N 1212.53 -0.7859 4.56281 0
M  V30 51824 H 1215.37 -1.93423 8.4679 0
M  V30 51825 H 1215.64 -1.68181 6.71046 0
M  V30 51826 H 1214.78 0.289041 8.15388 0
M  V30 51827 P 1210.81 1.17771 8.83182 0
M  V30 51828 O 1210.59 2.07206 9.98732 0
M  V30 51829 O 1210.02 -0.0743816 8.81969 0
M  V30 51830 O 1210.56 1.97652 7.47304 0
M  V30 51831 C 1211.5 3.01133 7.08783 0
M  V30 51832 C 1210.77 4.12613 6.37049 0
M  V30 51833 O 1210.56 3.72827 4.97879 0
M  V30 51834 C 1209.37 4.45085 6.88694 0
M  V30 51835 O 1208.98 5.7877 6.5624 0
M  V30 51836 C 1208.49 3.47817 6.12078 0
M  V30 51837 C 1209.2 3.39414 4.77697 0
M  V30 51838 N 1209.15 2.04615 4.15333 0
M  V30 51839 H 1211.99 3.41248 7.98759 0
M  V30 51840 H 1212.26 2.5837 6.41742 0
M  V30 51841 H 1211.4 5.02657 6.42673 0
M  V30 51842 P 1207.43 6.144 6.45285 0
M  V30 51843 O 1207.21 7.54673 6.86199 0
M  V30 51844 O 1206.64 5.12391 7.179 0
M  V30 51845 O 1207.18 5.99158 4.88404 0
M  V30 51846 C 1208.12 6.60234 3.96415 0
M  V30 51847 C 1207.39 7.08259 2.72856 0
M  V30 51848 O 1207.18 5.9427 1.83651 0
M  V30 51849 C 1205.99 7.64886 2.9555 0
M  V30 51850 O 1205.6 8.53963 1.90717 0
M  V30 51851 C 1205.11 6.4116 2.90739 0
M  V30 51852 C 1205.82 5.55375 1.86963 0
M  V30 51853 N 1205.77 4.09448 2.16152 0
M  V30 51854 H 1208.61 7.45574 4.45629 0
M  V30 51855 H 1208.88 5.85864 3.679 0
M  V30 51856 H 1208.02 7.84412 2.24479 0
M  V30 51857 H 1205.36 5.73457 0.888562 0
M  V30 51858 H 1205.08 5.90877 3.88583 0
M  V30 51859 H 1204.09 6.6596 2.58858 0
M  V30 51860 H 1205.92 8.16339 3.92049 0
M  V30 51861 P 1204.05 8.7635 1.60911 0
M  V30 51862 O 1203.83 10.1388 1.11561 0
M  V30 51863 O 1203.26 8.36503 2.79617 0
M  V30 51864 O 1203.8 7.71806 0.42951 0
M  V30 51865 C 1204.74 7.67148 -0.673689 0
M  V30 51866 C 1204.01 7.33374 -1.95559 0
M  V30 51867 O 1203.8 5.88721 -2.00726 0
M  V30 51868 C 1202.61 7.92526 -2.10483 0
M  V30 51869 O 1202.22 8.02971 -3.47653 0
M  V30 51870 C 1201.73 6.89602 -1.41652 0
M  V30 51871 C 1202.44 5.59201 -1.75185 0
M  V30 51872 N 1202.39 4.58235 -0.662552 0
M  V30 51873 H 1205.23 8.65116 -0.777161 0
M  V30 51874 H 1205.5 6.90173 -0.474152 0
M  V30 51875 H 1204.64 7.66548 -2.79458 0
M  V30 51876 P 1200.67 8.03563 -3.84925 0
M  V30 51877 O 1200.45 8.85821 -5.0569 0
M  V30 51878 O 1199.88 8.41101 -2.65469 0
M  V30 51879 O 1200.42 6.4965 -4.18908 0
M  V30 51880 C 1201.36 5.81037 -5.05421 0
M  V30 51881 C 1200.63 4.78366 -5.89277 0
M  V30 51882 O 1200.42 3.58302 -5.08433 0
M  V30 51883 C 1199.23 5.17448 -6.36119 0
M  V30 51884 O 1198.84 4.45271 -7.53232 0
M  V30 51885 C 1198.35 4.74639 -5.19936 0
M  V30 51886 C 1199.06 3.49432 -4.70418 0
M  V30 51887 N 1199.01 3.31776 -3.22945 0
M  V30 51888 H 1201.85 6.54213 -5.71376 0
M  V30 51889 H 1202.12 5.30492 -4.44033 0
M  V30 51890 H 1201.26 4.55889 -6.76652 0
M  V30 51891 P 1197.29 4.23843 -7.83734 0
M  V30 51892 O 1197.07 4.19407 -9.29784 0
M  V30 51893 O 1196.5 5.24426 -7.09156 0
M  V30 51894 O 1197.04 2.7935 -7.20758 0
M  V30 51895 C 1197.98 1.7299 -7.50419 0
M  V30 51896 C 1197.25 0.406376 -7.57911 0
M  V30 51897 O 1197.04 -0.0897726 -6.21935 0
M  V30 51898 C 1195.85 0.447224 -8.1878 0
M  V30 51899 O 1195.46 -0.825065 -8.71101 0
M  V30 51900 C 1194.97 0.783801 -6.99623 0
M  V30 51901 C 1195.68 0.0619192 -5.85967 0
M  V30 51902 N 1195.63 0.7859 -4.56281 0
M  V30 51903 H 1198.47 1.93423 -8.4679 0
M  V30 51904 H 1198.74 1.68181 -6.71046 0
M  V30 51905 H 1197.88 -0.289041 -8.15388 0
M  V30 51906 P 1193.91 -1.17771 -8.83182 0
M  V30 51907 O 1193.69 -2.07206 -9.98732 0
M  V30 51908 O 1193.12 0.0743816 -8.81969 0
M  V30 51909 O 1193.66 -1.97652 -7.47304 0
M  V30 51910 C 1194.6 -3.01055 -7.08599 0
M  V30 51911 C 1193.87 -4.12613 -6.37049 0
M  V30 51912 O 1193.66 -3.72827 -4.97879 0
M  V30 51913 C 1192.47 -4.45719 -6.88164 0
M  V30 51914 O 1192.08 -5.7877 -6.5624 0
M  V30 51915 C 1191.59 -3.47768 -6.11991 0
M  V30 51916 C 1192.3 -3.39356 -4.77615 0
M  V30 51917 N 1192.25 -2.04571 -4.15244 0
M  V30 51918 C 1192.1 -1.98587 -2.78314 0
M  V30 51919 O 1192.01 -2.98134 -2.08835 0
M  V30 51920 N 1192.06 -0.714467 -2.24925 0
M  V30 51921 C 1192.15 0.470001 -2.94169 0
M  V30 51922 O 1192.1 1.55587 -2.35195 0
M  V30 51923 C 1192.3 0.312541 -4.36783 0
M  V30 51924 C 1192.41 1.57711 -5.16352 0
M  V30 51925 C 1192.35 -0.914512 -4.92583 0
M  V30 51926 H 1195.09 -3.41169 -7.98575 0
M  V30 51927 H 1195.36 -2.58295 -6.41556 0
M  V30 51928 H 1194.5 -5.02657 -6.42673 0
M  V30 51929 H 1191.84 -4.11637 -4.08885 0
M  V30 51930 H 1191.56 -2.49626 -6.61679 0
M  V30 51931 H 1190.57 -3.86566 -6.00778 0
M  V30 51932 H 1192.4 -4.29943 -7.96918 0
M  V30 51933 H 1192.47 -1.00937 -6.00374 0
M  V30 51934 H 1191.44 1.80153 -5.63503 0
M  V30 51935 H 1193.18 1.4566 -5.94104 0
M  V30 51936 H 1192.69 2.40664 -4.49645 0
M  V30 51937 H 1191.96 -0.647622 -1.25697 0
M  V30 51938 P 1190.53 -6.144 -6.45285 0
M  V30 51939 O 1190.31 -7.54673 -6.86199 0
M  V30 51940 O 1189.74 -5.12391 -7.179 0
M  V30 51941 O 1190.28 -5.99158 -4.88404 0
M  V30 51942 C 1191.22 -6.60234 -3.96415 0
M  V30 51943 C 1190.49 -7.08259 -2.72856 0
M  V30 51944 O 1190.28 -5.9427 -1.83651 0
M  V30 51945 C 1189.09 -7.64886 -2.9555 0
M  V30 51946 O 1188.7 -8.53963 -1.90717 0
M  V30 51947 C 1188.21 -6.4116 -2.90739 0
M  V30 51948 C 1188.92 -5.55375 -1.86963 0
M  V30 51949 N 1188.87 -4.09448 -2.16152 0
M  V30 51950 H 1191.71 -7.45574 -4.45629 0
M  V30 51951 H 1191.98 -5.85864 -3.679 0
M  V30 51952 H 1191.12 -7.84412 -2.24479 0
M  V30 51953 H 1188.46 -5.73457 -0.888562 0
M  V30 51954 H 1188.18 -5.90877 -3.88583 0
M  V30 51955 H 1187.19 -6.6596 -2.58858 0
M  V30 51956 H 1189.02 -8.16339 -3.92049 0
M  V30 51957 P 1187.15 -8.7635 -1.60911 0
M  V30 51958 O 1186.93 -10.1388 -1.11561 0
M  V30 51959 O 1186.36 -8.36503 -2.79617 0
M  V30 51960 O 1186.9 -7.71806 -0.42951 0
M  V30 51961 C 1187.84 -7.67148 0.673689 0
M  V30 51962 C 1187.11 -7.33374 1.95559 0
M  V30 51963 O 1186.9 -5.88721 2.00726 0
M  V30 51964 C 1185.71 -7.92526 2.10483 0
M  V30 51965 O 1185.32 -8.02971 3.47653 0
M  V30 51966 C 1184.83 -6.89602 1.41652 0
M  V30 51967 C 1185.54 -5.59201 1.75185 0
M  V30 51968 N 1185.49 -4.58235 0.662552 0
M  V30 51969 H 1188.33 -8.65116 0.777161 0
M  V30 51970 H 1188.6 -6.90173 0.474152 0
M  V30 51971 H 1187.74 -7.66548 2.79458 0
M  V30 51972 P 1183.77 -8.03563 3.84925 0
M  V30 51973 O 1183.55 -8.85821 5.0569 0
M  V30 51974 O 1182.98 -8.41101 2.65469 0
M  V30 51975 O 1183.52 -6.4965 4.18908 0
M  V30 51976 C 1184.46 -5.80886 5.05289 0
M  V30 51977 C 1183.73 -4.78366 5.89277 0
M  V30 51978 O 1183.52 -3.58302 5.08433 0
M  V30 51979 C 1182.33 -5.16748 6.36559 0
M  V30 51980 O 1181.94 -4.45271 7.53232 0
M  V30 51981 C 1181.45 -4.74572 5.19863 0
M  V30 51982 C 1182.16 -3.49373 4.70338 0
M  V30 51983 N 1182.11 -3.31704 3.22876 0
M  V30 51984 C 1181.96 -2.03326 2.74871 0
M  V30 51985 O 1181.87 -1.06486 3.48076 0
M  V30 51986 N 1181.92 -1.91838 1.37456 0
M  V30 51987 C 1182.01 -2.94295 0.462035 0
M  V30 51988 O 1181.96 -2.71763 -0.752928 0
M  V30 51989 C 1182.16 -4.25064 1.05249 0
M  V30 51990 C 1182.27 -5.39815 0.095697 0
M  V30 51991 C 1182.21 -4.40214 2.39192 0
M  V30 51992 H 1184.95 -6.54063 5.71245 0
M  V30 51993 H 1185.22 -5.30339 4.43905 0
M  V30 51994 H 1184.36 -4.55889 6.76652 0
M  V30 51995 H 1181.7 -2.6167 5.17842 0
M  V30 51996 H 1181.42 -5.52155 4.41878 0
M  V30 51997 H 1180.43 -4.51918 5.53297 0
M  V30 51998 H 1182.26 -6.25055 6.55162 0
M  V30 51999 H 1182.34 -5.39798 2.81523 0
M  V30 52000 H 1181.31 -5.91593 0.0279582 0
M  V30 52001 H 1183.04 -6.10038 0.450573 0
M  V30 52002 H 1182.55 -5.02007 -0.89937 0
M  V30 52003 H 1181.82 -0.995326 1.00435 0
M  V30 52004 P 1180.39 -4.23843 7.83734 0
M  V30 52005 O 1180.17 -4.19407 9.29784 0
M  V30 52006 O 1179.6 -5.24426 7.09156 0
M  V30 52007 O 1180.14 -2.7935 7.20758 0
M  V30 52008 C 1181.08 -1.7299 7.50419 0
M  V30 52009 C 1180.35 -0.406376 7.57911 0
M  V30 52010 O 1180.14 0.0897726 6.21935 0
M  V30 52011 C 1178.95 -0.447224 8.1878 0
M  V30 52012 O 1178.56 0.825065 8.71101 0
M  V30 52013 C 1178.07 -0.783801 6.99623 0
M  V30 52014 C 1178.78 -0.0619192 5.85967 0
M  V30 52015 N 1178.73 -0.7859 4.56281 0
M  V30 52016 H 1181.57 -1.93423 8.4679 0
M  V30 52017 H 1181.84 -1.68181 6.71046 0
M  V30 52018 H 1180.98 0.289041 8.15388 0
M  V30 52019 P 1177.01 1.17771 8.83182 0
M  V30 52020 O 1176.79 2.07206 9.98732 0
M  V30 52021 O 1176.22 -0.0743816 8.81969 0
M  V30 52022 O 1176.76 1.97678 7.474 0
M  V30 52023 C 1177.7 3.01133 7.08783 0
M  V30 52024 C 1176.97 4.1203 6.37546 0
M  V30 52025 O 1176.76 3.72887 4.9796 0
M  V30 52026 C 1175.57 4.45085 6.88694 0
M  V30 52027 O 1175.18 5.78836 6.56315 0
M  V30 52028 C 1174.69 3.47817 6.12078 0
M  V30 52029 C 1175.4 3.39414 4.77697 0
M  V30 52030 N 1175.35 2.04615 4.15333 0
M  V30 52031 C 1175.2 1.96929 2.77162 0
M  V30 52032 O 1175.11 3.02017 2.12006 0
M  V30 52033 N 1175.15 0.55485 2.24237 0
M  V30 52034 C 1175.25 -0.367808 2.9169 0
M  V30 52035 N 1175.2 -1.53426 2.29427 0
M  V30 52036 C 1175.4 -0.319148 4.33828 0
M  V30 52037 C 1175.45 0.920672 4.90433 0
M  V30 52038 H 1178.19 3.41209 7.98667 0
M  V30 52039 H 1178.46 2.5837 6.41742 0
M  V30 52040 H 1177.6 5.02718 6.42752 0
M  V30 52041 H 1174.94 4.11779 4.09026 0
M  V30 52042 H 1174.66 2.49661 6.61772 0
M  V30 52043 H 1173.67 3.86674 6.00946 0
M  V30 52044 H 1175.5 4.29991 7.97006 0
M  V30 52045 H 1175.58 1.00589 5.98303 0
M  V30 52046 H 1175.47 -1.22639 4.93799 0
M  V30 52047 H 1175.09 -1.56819 1.27167 0
M  V30 52048 H 1175.28 -2.41062 2.83063 0
M  V30 52049 P 1173.63 6.144 6.45285 0
M  V30 52050 O 1173.41 7.54673 6.86199 0
M  V30 52051 O 1172.84 5.12391 7.179 0
M  V30 52052 O 1173.38 5.99236 4.88467 0
M  V30 52053 C 1174.32 6.60234 3.96415 0
M  V30 52054 C 1173.59 7.08079 2.736 0
M  V30 52055 O 1173.38 5.94365 1.8368 0
M  V30 52056 C 1172.19 7.64886 2.9555 0
M  V30 52057 O 1171.8 8.5406 1.90739 0
M  V30 52058 C 1171.31 6.4116 2.90739 0
M  V30 52059 C 1172.02 5.55375 1.86963 0
M  V30 52060 N 1171.97 4.09664 2.15742 0
M  V30 52061 C 1171.82 3.22231 1.08477 0
M  V30 52062 O 1171.73 3.68951 -0.0600489 0
M  V30 52063 N 1171.77 1.76692 1.48799 0
M  V30 52064 C 1171.87 1.41695 2.57602 0
M  V30 52065 N 1171.82 0.107296 2.75791 0
M  V30 52066 C 1172.02 2.29178 3.69733 0
M  V30 52067 C 1172.07 3.62753 3.42653 0
M  V30 52068 H 1174.81 7.45488 4.45578 0
M  V30 52069 H 1175.08 5.86232 3.67314 0
M  V30 52070 H 1174.22 7.84508 2.24507 0
M  V30 52071 H 1171.56 5.73556 0.888715 0
M  V30 52072 H 1171.28 5.9096 3.88638 0
M  V30 52073 H 1170.29 6.66053 2.58894 0
M  V30 52074 H 1172.12 8.16339 3.92049 0
M  V30 52075 H 1172.2 4.33052 4.24913 0
M  V30 52076 H 1172.09 1.9103 4.71577 0
M  V30 52077 H 1171.71 -0.521221 1.95056 0
M  V30 52078 H 1171.9 -0.286429 3.70695 0
M  V30 52079 P 1170.25 8.7635 1.60911 0
M  V30 52080 O 1170.03 10.1388 1.11561 0
M  V30 52081 O 1169.46 8.36503 2.79617 0
M  V30 52082 O 1170 7.71806 0.42951 0
M  V30 52083 C 1170.94 7.67148 -0.673689 0
M  V30 52084 C 1170.21 7.33374 -1.95559 0
M  V30 52085 O 1170 5.88721 -2.00726 0
M  V30 52086 C 1168.81 7.92526 -2.10483 0
M  V30 52087 O 1168.42 8.02971 -3.47653 0
M  V30 52088 C 1167.93 6.89602 -1.41652 0
M  V30 52089 C 1168.64 5.59201 -1.75185 0
M  V30 52090 N 1168.59 4.58301 -0.657969 0
M  V30 52091 H 1171.43 8.65116 -0.777161 0
M  V30 52092 H 1171.7 6.9022 -0.46725 0
M  V30 52093 H 1170.84 7.66548 -2.79458 0
M  V30 52094 H 1168.18 5.16165 -2.65183 0
M  V30 52095 H 1167.9 7.06433 -0.329384 0
M  V30 52096 H 1166.91 6.90926 -1.82021 0
M  V30 52097 H 1168.74 8.90873 -1.62657 0
M  V30 52098 P 1166.87 8.03563 -3.84925 0
M  V30 52099 O 1166.65 8.85821 -5.0569 0
M  V30 52100 O 1166.08 8.41101 -2.65469 0
M  V30 52101 O 1166.62 6.4965 -4.18908 0
M  V30 52102 C 1167.56 5.81037 -5.05421 0
M  V30 52103 C 1166.83 4.78366 -5.89277 0
M  V30 52104 O 1166.62 3.58302 -5.08433 0
M  V30 52105 C 1165.43 5.17448 -6.36119 0
M  V30 52106 O 1165.04 4.45271 -7.53232 0
M  V30 52107 C 1164.55 4.74639 -5.19936 0
M  V30 52108 C 1165.26 3.49432 -4.70418 0
M  V30 52109 N 1165.21 3.31776 -3.22945 0
M  V30 52110 H 1168.05 6.54213 -5.71376 0
M  V30 52111 H 1168.32 5.30492 -4.44033 0
M  V30 52112 H 1167.46 4.55889 -6.76652 0
M  V30 52113 P 1163.49 4.23843 -7.83734 0
M  V30 52114 O 1163.27 4.19407 -9.29784 0
M  V30 52115 O 1162.7 5.24426 -7.09156 0
M  V30 52116 O 1163.24 2.7935 -7.20758 0
M  V30 52117 C 1164.18 1.7299 -7.50419 0
M  V30 52118 C 1163.45 0.406376 -7.57911 0
M  V30 52119 O 1163.24 -0.0897726 -6.21935 0
M  V30 52120 C 1162.05 0.447224 -8.1878 0
M  V30 52121 O 1161.66 -0.825065 -8.71101 0
M  V30 52122 C 1161.17 0.783801 -6.99623 0
M  V30 52123 C 1161.88 0.0619192 -5.85967 0
M  V30 52124 N 1161.83 0.790462 -4.56202 0
M  V30 52125 H 1164.67 1.93423 -8.4679 0
M  V30 52126 H 1164.94 1.68852 -6.70877 0
M  V30 52127 H 1164.08 -0.289041 -8.15388 0
M  V30 52128 H 1161.42 -0.927006 -5.72848 0
M  V30 52129 H 1161.14 1.86973 -6.82036 0
M  V30 52130 H 1160.15 0.403953 -7.13357 0
M  V30 52131 H 1161.98 1.20599 -8.97534 0
M  V30 52132 P 1160.11 -1.17771 -8.83182 0
M  V30 52133 O 1159.89 -2.07206 -9.98732 0
M  V30 52134 O 1159.32 0.0743816 -8.81969 0
M  V30 52135 O 1159.86 -1.97652 -7.47304 0
M  V30 52136 C 1160.8 -3.01133 -7.08783 0
M  V30 52137 C 1160.07 -4.12613 -6.37049 0
M  V30 52138 O 1159.86 -3.72827 -4.97879 0
M  V30 52139 C 1158.67 -4.45085 -6.88694 0
M  V30 52140 O 1158.28 -5.7877 -6.5624 0
M  V30 52141 C 1157.79 -3.47817 -6.12078 0
M  V30 52142 C 1158.5 -3.39414 -4.77697 0
M  V30 52143 N 1158.45 -2.04199 -4.15538 0
M  V30 52144 H 1161.29 -3.41248 -7.98759 0
M  V30 52145 H 1161.56 -2.57728 -6.42 0
M  V30 52146 H 1160.7 -5.02657 -6.42673 0
M  V30 52147 H 1158.04 -4.11708 -4.08956 0
M  V30 52148 H 1157.76 -2.49626 -6.61679 0
M  V30 52149 H 1156.77 -3.8662 -6.00862 0
M  V30 52150 H 1158.6 -4.29991 -7.97006 0
M  V30 52151 P 1156.73 -6.144 -6.45285 0
M  V30 52152 O 1156.51 -7.54673 -6.86199 0
M  V30 52153 O 1155.94 -5.12391 -7.179 0
M  V30 52154 O 1156.48 -5.99158 -4.88404 0
M  V30 52155 C 1157.42 -6.60234 -3.96415 0
M  V30 52156 C 1156.69 -7.08259 -2.72856 0
M  V30 52157 O 1156.48 -5.9427 -1.83651 0
M  V30 52158 C 1155.29 -7.64886 -2.9555 0
M  V30 52159 O 1154.9 -8.53963 -1.90717 0
M  V30 52160 C 1154.41 -6.4116 -2.90739 0
M  V30 52161 C 1155.12 -5.55375 -1.86963 0
M  V30 52162 N 1155.07 -4.09448 -2.16152 0
M  V30 52163 H 1157.91 -7.45574 -4.45629 0
M  V30 52164 H 1158.18 -5.85864 -3.679 0
M  V30 52165 H 1157.32 -7.84412 -2.24479 0
M  V30 52166 H 1154.66 -5.73457 -0.888562 0
M  V30 52167 H 1154.38 -5.90877 -3.88583 0
M  V30 52168 H 1153.39 -6.6596 -2.58858 0
M  V30 52169 H 1155.22 -8.16339 -3.92049 0
M  V30 52170 P 1153.35 -8.7635 -1.60911 0
M  V30 52171 O 1153.13 -10.1388 -1.11561 0
M  V30 52172 O 1152.56 -8.36503 -2.79617 0
M  V30 52173 O 1153.1 -7.71806 -0.42951 0
M  V30 52174 C 1154.04 -7.67148 0.673689 0
M  V30 52175 C 1153.31 -7.33374 1.95559 0
M  V30 52176 O 1153.1 -5.88721 2.00726 0
M  V30 52177 C 1151.91 -7.92526 2.10483 0
M  V30 52178 O 1151.52 -8.02971 3.47653 0
M  V30 52179 C 1151.03 -6.89602 1.41652 0
M  V30 52180 C 1151.74 -5.59201 1.75185 0
M  V30 52181 N 1151.69 -4.58235 0.662552 0
M  V30 52182 H 1154.53 -8.65116 0.777161 0
M  V30 52183 H 1154.8 -6.90173 0.474152 0
M  V30 52184 H 1153.94 -7.66548 2.79458 0
M  V30 52185 P 1149.97 -8.03563 3.84925 0
M  V30 52186 O 1149.75 -8.85821 5.0569 0
M  V30 52187 O 1149.18 -8.41101 2.65469 0
M  V30 52188 O 1149.72 -6.4965 4.18908 0
M  V30 52189 C 1150.66 -5.81037 5.05421 0
M  V30 52190 C 1149.93 -4.78366 5.89277 0
M  V30 52191 O 1149.72 -3.58302 5.08433 0
M  V30 52192 C 1148.53 -5.17448 6.36119 0
M  V30 52193 O 1148.14 -4.45271 7.53232 0
M  V30 52194 C 1147.65 -4.74639 5.19936 0
M  V30 52195 C 1148.36 -3.49432 4.70418 0
M  V30 52196 N 1148.31 -3.31776 3.22945 0
M  V30 52197 H 1151.15 -6.54213 5.71376 0
M  V30 52198 H 1151.42 -5.30492 4.44033 0
M  V30 52199 H 1150.56 -4.55889 6.76652 0
M  V30 52200 P 1146.59 -4.23843 7.83734 0
M  V30 52201 O 1146.37 -4.19407 9.29784 0
M  V30 52202 O 1145.8 -5.24426 7.09156 0
M  V30 52203 O 1146.34 -2.7935 7.20758 0
M  V30 52204 C 1147.28 -1.7299 7.50419 0
M  V30 52205 C 1146.55 -0.406376 7.57911 0
M  V30 52206 O 1146.34 0.0897726 6.21935 0
M  V30 52207 C 1145.15 -0.447224 8.1878 0
M  V30 52208 O 1144.76 0.825065 8.71101 0
M  V30 52209 C 1144.27 -0.783801 6.99623 0
M  V30 52210 C 1144.98 -0.0619192 5.85967 0
M  V30 52211 N 1144.93 -0.790462 4.56202 0
M  V30 52212 H 1147.77 -1.93423 8.4679 0
M  V30 52213 H 1148.04 -1.68852 6.70877 0
M  V30 52214 H 1147.18 0.289041 8.15388 0
M  V30 52215 H 1144.52 0.927006 5.72848 0
M  V30 52216 H 1144.24 -1.86973 6.82036 0
M  V30 52217 H 1143.25 -0.403953 7.13357 0
M  V30 52218 H 1145.08 -1.20599 8.97534 0
M  V30 52219 P 1143.21 1.17771 8.83182 0
M  V30 52220 O 1142.99 2.07206 9.98732 0
M  V30 52221 O 1142.42 -0.0743816 8.81969 0
M  V30 52222 O 1142.96 1.97652 7.47304 0
M  V30 52223 C 1143.9 3.01133 7.08783 0
M  V30 52224 C 1143.17 4.12613 6.37049 0
M  V30 52225 O 1142.96 3.72827 4.97879 0
M  V30 52226 C 1141.77 4.45085 6.88694 0
M  V30 52227 O 1141.38 5.7877 6.5624 0
M  V30 52228 C 1140.89 3.47817 6.12078 0
M  V30 52229 C 1141.6 3.39414 4.77697 0
M  V30 52230 N 1141.55 2.04615 4.15333 0
M  V30 52231 H 1144.39 3.41248 7.98759 0
M  V30 52232 H 1144.66 2.5837 6.41742 0
M  V30 52233 H 1143.8 5.02657 6.42673 0
M  V30 52234 P 1139.83 6.144 6.45285 0
M  V30 52235 O 1139.61 7.54673 6.86199 0
M  V30 52236 O 1139.04 5.12391 7.179 0
M  V30 52237 O 1139.58 5.99158 4.88404 0
M  V30 52238 C 1140.52 6.60234 3.96415 0
M  V30 52239 C 1139.79 7.08259 2.72856 0
M  V30 52240 O 1139.58 5.9427 1.83651 0
M  V30 52241 C 1138.39 7.64886 2.9555 0
M  V30 52242 O 1138 8.53963 1.90717 0
M  V30 52243 C 1137.51 6.4116 2.90739 0
M  V30 52244 C 1138.22 5.55375 1.86963 0
M  V30 52245 N 1138.17 4.09664 2.15742 0
M  V30 52246 H 1141.01 7.45574 4.45629 0
M  V30 52247 H 1141.28 5.86232 3.67314 0
M  V30 52248 H 1140.42 7.84412 2.24479 0
M  V30 52249 P 1136.45 8.7635 1.60911 0
M  V30 52250 O 1136.23 10.1388 1.11561 0
M  V30 52251 O 1135.66 8.36503 2.79617 0
M  V30 52252 O 1136.2 7.71806 0.42951 0
M  V30 52253 C 1137.14 7.67148 -0.673689 0
M  V30 52254 C 1136.41 7.33374 -1.95559 0
M  V30 52255 O 1136.2 5.88721 -2.00726 0
M  V30 52256 C 1135.01 7.92526 -2.10483 0
M  V30 52257 O 1134.62 8.02971 -3.47653 0
M  V30 52258 C 1134.13 6.89602 -1.41652 0
M  V30 52259 C 1134.84 5.59201 -1.75185 0
M  V30 52260 N 1134.79 4.58301 -0.657969 0
M  V30 52261 H 1137.63 8.65116 -0.777161 0
M  V30 52262 H 1137.9 6.9022 -0.46725 0
M  V30 52263 H 1137.04 7.66548 -2.79458 0
M  V30 52264 H 1134.38 5.16165 -2.65183 0
M  V30 52265 H 1134.1 7.06433 -0.329384 0
M  V30 52266 H 1133.11 6.90926 -1.82021 0
M  V30 52267 H 1134.94 8.90873 -1.62657 0
M  V30 52268 P 1133.07 8.03563 -3.84925 0
M  V30 52269 O 1132.85 8.85821 -5.0569 0
M  V30 52270 O 1132.28 8.41101 -2.65469 0
M  V30 52271 O 1132.82 6.4965 -4.18908 0
M  V30 52272 C 1133.76 5.81037 -5.05421 0
M  V30 52273 C 1133.03 4.78366 -5.89277 0
M  V30 52274 O 1132.82 3.58302 -5.08433 0
M  V30 52275 C 1131.63 5.17448 -6.36119 0
M  V30 52276 O 1131.24 4.45271 -7.53232 0
M  V30 52277 C 1130.75 4.74639 -5.19936 0
M  V30 52278 C 1131.46 3.49432 -4.70418 0
M  V30 52279 N 1131.41 3.32099 -3.22613 0
M  V30 52280 C 1131.49 4.28245 -2.25527 0
M  V30 52281 N 1131.42 3.80823 -1.04874 0
M  V30 52282 C 1131.27 2.44571 -1.23535 0
M  V30 52283 C 1131.14 1.37068 -0.330675 0
M  V30 52284 N 1131.13 1.51472 0.990824 0
M  V30 52285 N 1131.02 0.138614 -0.848756 0
M  V30 52286 C 1131.03 -0.00675923 -2.16999 0
M  V30 52287 N 1131.15 0.904372 -3.11122 0
M  V30 52288 C 1131.27 2.12707 -2.56212 0
M  V30 52289 H 1134.25 6.54213 -5.71376 0
M  V30 52290 H 1134.52 5.30936 -4.43503 0
M  V30 52291 H 1133.66 4.55889 -6.76652 0
M  V30 52292 H 1131 2.61715 -5.17932 0
M  V30 52293 H 1130.72 5.52155 -4.41878 0
M  V30 52294 H 1129.73 4.51981 -5.53374 0
M  V30 52295 H 1131.56 6.25124 -6.55234 0
M  V30 52296 H 1131.61 5.34372 -2.47488 0
M  V30 52297 H 1131.22 2.45153 1.4078 0
M  V30 52298 H 1131.04 0.688422 1.59911 0
M  V30 52299 H 1130.93 -1.02584 -2.52346 0
M  V30 52300 P 1129.69 4.23843 -7.83734 0
M  V30 52301 O 1129.47 4.19407 -9.29784 0
M  V30 52302 O 1128.9 5.24426 -7.09156 0
M  V30 52303 O 1129.44 2.7935 -7.20758 0
M  V30 52304 C 1130.38 1.7299 -7.50419 0
M  V30 52305 C 1129.65 0.406376 -7.57911 0
M  V30 52306 O 1129.44 -0.0897726 -6.21935 0
M  V30 52307 C 1128.25 0.447224 -8.1878 0
M  V30 52308 O 1127.86 -0.825065 -8.71101 0
M  V30 52309 C 1127.37 0.783801 -6.99623 0
M  V30 52310 C 1128.08 0.0619192 -5.85967 0
M  V30 52311 N 1128.03 0.7859 -4.56281 0
M  V30 52312 H 1130.87 1.93423 -8.4679 0
M  V30 52313 H 1131.14 1.68181 -6.71046 0
M  V30 52314 H 1130.28 -0.289041 -8.15388 0
M  V30 52315 P 1126.31 -1.17771 -8.83182 0
M  V30 52316 O 1126.09 -2.07206 -9.98732 0
M  V30 52317 O 1125.52 0.0743816 -8.81969 0
M  V30 52318 O 1126.06 -1.97652 -7.47304 0
M  V30 52319 C 1127 -3.01133 -7.08783 0
M  V30 52320 C 1126.27 -4.12613 -6.37049 0
M  V30 52321 O 1126.06 -3.72827 -4.97879 0
M  V30 52322 C 1124.87 -4.45085 -6.88694 0
M  V30 52323 O 1124.48 -5.7877 -6.5624 0
M  V30 52324 C 1123.99 -3.47817 -6.12078 0
M  V30 52325 C 1124.7 -3.39414 -4.77697 0
M  V30 52326 N 1124.65 -2.04615 -4.15333 0
M  V30 52327 H 1127.49 -3.41248 -7.98759 0
M  V30 52328 H 1127.76 -2.5837 -6.41742 0
M  V30 52329 H 1126.9 -5.02657 -6.42673 0
M  V30 52330 P 1122.93 -6.144 -6.45285 0
M  V30 52331 O 1122.71 -7.54673 -6.86199 0
M  V30 52332 O 1122.14 -5.12391 -7.179 0
M  V30 52333 O 1122.68 -5.99158 -4.88404 0
M  V30 52334 C 1123.62 -6.60234 -3.96415 0
M  V30 52335 C 1122.89 -7.08259 -2.72856 0
M  V30 52336 O 1122.68 -5.9427 -1.83651 0
M  V30 52337 C 1121.49 -7.64886 -2.9555 0
M  V30 52338 O 1121.1 -8.53963 -1.90717 0
M  V30 52339 C 1120.61 -6.4116 -2.90739 0
M  V30 52340 C 1121.32 -5.55375 -1.86963 0
M  V30 52341 N 1121.27 -4.09664 -2.15742 0
M  V30 52342 H 1124.11 -7.45574 -4.45629 0
M  V30 52343 H 1124.38 -5.86232 -3.67314 0
M  V30 52344 H 1123.52 -7.84412 -2.24479 0
M  V30 52345 P 1119.55 -8.7635 -1.60911 0
M  V30 52346 O 1119.33 -10.1388 -1.11561 0
M  V30 52347 O 1118.76 -8.36503 -2.79617 0
M  V30 52348 O 1119.3 -7.71806 -0.42951 0
M  V30 52349 C 1120.24 -7.67148 0.673689 0
M  V30 52350 C 1119.51 -7.33374 1.95559 0
M  V30 52351 O 1119.3 -5.88721 2.00726 0
M  V30 52352 C 1118.11 -7.92526 2.10483 0
M  V30 52353 O 1117.72 -8.02971 3.47653 0
M  V30 52354 C 1117.23 -6.89602 1.41652 0
M  V30 52355 C 1117.94 -5.59201 1.75185 0
M  V30 52356 N 1117.89 -4.58301 0.657969 0
M  V30 52357 H 1120.73 -8.65116 0.777161 0
M  V30 52358 H 1121 -6.9022 0.46725 0
M  V30 52359 H 1120.14 -7.66548 2.79458 0
M  V30 52360 H 1117.48 -5.16165 2.65183 0
M  V30 52361 H 1117.2 -7.06433 0.329384 0
M  V30 52362 H 1116.21 -6.90926 1.82021 0
M  V30 52363 H 1118.04 -8.90873 1.62657 0
M  V30 52364 P 1116.17 -8.03563 3.84925 0
M  V30 52365 O 1115.95 -8.85821 5.0569 0
M  V30 52366 O 1115.38 -8.41101 2.65469 0
M  V30 52367 O 1115.92 -6.4965 4.18908 0
M  V30 52368 C 1116.86 -5.80886 5.05289 0
M  V30 52369 C 1116.13 -4.78366 5.89277 0
M  V30 52370 O 1115.92 -3.58302 5.08433 0
M  V30 52371 C 1114.73 -5.16748 6.36559 0
M  V30 52372 O 1114.34 -4.45271 7.53232 0
M  V30 52373 C 1113.85 -4.74572 5.19863 0
M  V30 52374 C 1114.56 -3.49373 4.70338 0
M  V30 52375 N 1114.51 -3.31704 3.22876 0
M  V30 52376 C 1114.36 -2.03326 2.74871 0
M  V30 52377 O 1114.27 -1.06486 3.48076 0
M  V30 52378 N 1114.32 -1.91838 1.37456 0
M  V30 52379 C 1114.41 -2.94295 0.462035 0
M  V30 52380 O 1114.36 -2.71763 -0.752928 0
M  V30 52381 C 1114.56 -4.25064 1.05249 0
M  V30 52382 C 1114.67 -5.39815 0.095697 0
M  V30 52383 C 1114.61 -4.40214 2.39192 0
M  V30 52384 H 1117.35 -6.54063 5.71245 0
M  V30 52385 H 1117.62 -5.30339 4.43905 0
M  V30 52386 H 1116.76 -4.55889 6.76652 0
M  V30 52387 H 1114.1 -2.6167 5.17842 0
M  V30 52388 H 1113.82 -5.52155 4.41878 0
M  V30 52389 H 1112.83 -4.51918 5.53297 0
M  V30 52390 H 1114.66 -6.25055 6.55162 0
M  V30 52391 H 1114.74 -5.39798 2.81523 0
M  V30 52392 H 1113.71 -5.91593 0.0279582 0
M  V30 52393 H 1115.44 -6.10038 0.450573 0
M  V30 52394 H 1114.95 -5.02007 -0.89937 0
M  V30 52395 H 1114.22 -0.995326 1.00435 0
M  V30 52396 P 1112.79 -4.23843 7.83734 0
M  V30 52397 O 1112.57 -4.19407 9.29784 0
M  V30 52398 O 1112 -5.24426 7.09156 0
M  V30 52399 O 1112.54 -2.7935 7.20758 0
M  V30 52400 C 1113.48 -1.7299 7.50419 0
M  V30 52401 C 1112.75 -0.406376 7.57911 0
M  V30 52402 O 1112.54 0.0897726 6.21935 0
M  V30 52403 C 1111.35 -0.447224 8.1878 0
M  V30 52404 O 1110.96 0.825065 8.71101 0
M  V30 52405 C 1110.47 -0.783801 6.99623 0
M  V30 52406 C 1111.18 -0.0619192 5.85967 0
M  V30 52407 N 1111.13 -0.7859 4.56281 0
M  V30 52408 H 1113.97 -1.93423 8.4679 0
M  V30 52409 H 1114.24 -1.68181 6.71046 0
M  V30 52410 H 1113.38 0.289041 8.15388 0
M  V30 52411 P 1109.41 1.17771 8.83182 0
M  V30 52412 O 1109.19 2.07206 9.98732 0
M  V30 52413 O 1108.62 -0.0743816 8.81969 0
M  V30 52414 O 1109.16 1.97652 7.47304 0
M  V30 52415 C 1110.1 3.01133 7.08783 0
M  V30 52416 C 1109.37 4.12613 6.37049 0
M  V30 52417 O 1109.16 3.72827 4.97879 0
M  V30 52418 C 1107.97 4.45085 6.88694 0
M  V30 52419 O 1107.58 5.7877 6.5624 0
M  V30 52420 C 1107.09 3.47817 6.12078 0
M  V30 52421 C 1107.8 3.39414 4.77697 0
M  V30 52422 N 1107.75 2.04615 4.15333 0
M  V30 52423 C 1107.83 0.803897 4.75249 0
M  V30 52424 N 1107.75 -0.197615 3.91502 0
M  V30 52425 C 1107.61 0.413002 2.66823 0
M  V30 52426 C 1107.48 -0.157221 1.38007 0
M  V30 52427 N 1107.36 0.833136 0.390236 0
M  V30 52428 C 1107.36 2.19402 0.623885 0
M  V30 52429 N 1107.23 2.97622 -0.449677 0
M  V30 52430 N 1107.49 2.73005 1.83601 0
M  V30 52431 C 1107.61 1.78786 2.80935 0
M  V30 52432 H 1110.59 3.41248 7.98759 0
M  V30 52433 H 1110.86 2.5837 6.41742 0
M  V30 52434 H 1110 5.02657 6.42673 0
M  V30 52435 P 1106.03 6.144 6.45285 0
M  V30 52436 O 1105.81 7.54673 6.86199 0
M  V30 52437 O 1105.24 5.12391 7.179 0
M  V30 52438 O 1105.78 5.99158 4.88404 0
M  V30 52439 C 1106.72 6.60234 3.96415 0
M  V30 52440 C 1105.99 7.08259 2.72856 0
M  V30 52441 O 1105.78 5.9427 1.83651 0
M  V30 52442 C 1104.59 7.64886 2.9555 0
M  V30 52443 O 1104.2 8.53963 1.90717 0
M  V30 52444 C 1103.71 6.4116 2.90739 0
M  V30 52445 C 1104.42 5.55375 1.86963 0
M  V30 52446 N 1104.37 4.09448 2.16152 0
M  V30 52447 H 1107.21 7.45574 4.45629 0
M  V30 52448 H 1107.48 5.85864 3.679 0
M  V30 52449 H 1106.62 7.84412 2.24479 0
M  V30 52450 H 1103.96 5.73457 0.888562 0
M  V30 52451 H 1103.68 5.90877 3.88583 0
M  V30 52452 H 1102.69 6.6596 2.58858 0
M  V30 52453 H 1104.52 8.16339 3.92049 0
M  V30 52454 P 1102.65 8.7635 1.60911 0
M  V30 52455 O 1102.43 10.1388 1.11561 0
M  V30 52456 O 1101.86 8.36503 2.79617 0
M  V30 52457 O 1102.4 7.71806 0.42951 0
M  V30 52458 C 1103.34 7.67148 -0.673689 0
M  V30 52459 C 1102.61 7.33374 -1.95559 0
M  V30 52460 O 1102.4 5.88721 -2.00726 0
M  V30 52461 C 1101.21 7.92526 -2.10483 0
M  V30 52462 O 1100.82 8.02971 -3.47653 0
M  V30 52463 C 1100.33 6.89602 -1.41652 0
M  V30 52464 C 1101.04 5.59201 -1.75185 0
M  V30 52465 N 1100.99 4.58235 -0.662552 0
M  V30 52466 H 1103.83 8.65116 -0.777161 0
M  V30 52467 H 1104.1 6.90173 -0.474152 0
M  V30 52468 H 1103.24 7.66548 -2.79458 0
M  V30 52469 P 1099.27 8.03563 -3.84925 0
M  V30 52470 O 1099.05 8.85821 -5.0569 0
M  V30 52471 O 1098.48 8.41101 -2.65469 0
M  V30 52472 O 1099.02 6.4965 -4.18908 0
M  V30 52473 C 1099.96 5.81037 -5.05421 0
M  V30 52474 C 1099.23 4.78366 -5.89277 0
M  V30 52475 O 1099.02 3.58302 -5.08433 0
M  V30 52476 C 1097.83 5.17448 -6.36119 0
M  V30 52477 O 1097.44 4.45271 -7.53232 0
M  V30 52478 C 1096.95 4.74639 -5.19936 0
M  V30 52479 C 1097.66 3.49432 -4.70418 0
M  V30 52480 N 1097.61 3.31776 -3.22945 0
M  V30 52481 H 1100.45 6.54213 -5.71376 0
M  V30 52482 H 1100.72 5.30492 -4.44033 0
M  V30 52483 H 1099.86 4.55889 -6.76652 0
M  V30 52484 P 1095.89 4.23843 -7.83734 0
M  V30 52485 O 1095.67 4.19407 -9.29784 0
M  V30 52486 O 1095.1 5.24426 -7.09156 0
M  V30 52487 O 1095.64 2.7935 -7.20758 0
M  V30 52488 C 1096.58 1.72945 -7.50224 0
M  V30 52489 C 1095.85 0.406376 -7.57911 0
M  V30 52490 O 1095.64 -0.0897726 -6.21935 0
M  V30 52491 C 1094.45 0.438983 -8.18724 0
M  V30 52492 O 1094.06 -0.825065 -8.71101 0
M  V30 52493 C 1093.57 0.783689 -6.99524 0
M  V30 52494 C 1094.28 0.0619086 -5.85867 0
M  V30 52495 N 1094.23 0.78573 -4.56183 0
M  V30 52496 C 1094.08 0.0292889 -3.41887 0
M  V30 52497 O 1093.99 -1.18445 -3.4419 0
M  V30 52498 N 1094.04 0.744061 -2.23964 0
M  V30 52499 C 1094.13 2.10932 -2.10362 0
M  V30 52500 C 1094.28 2.8202 -3.34994 0
M  V30 52501 C 1094.33 2.15547 -4.52261 0
M  V30 52502 H 1097.07 1.93379 -8.46595 0
M  V30 52503 H 1097.34 1.68132 -6.70852 0
M  V30 52504 H 1096.48 -0.289041 -8.15388 0
M  V30 52505 H 1093.82 -0.926847 -5.72749 0
M  V30 52506 H 1093.54 1.86973 -6.82036 0
M  V30 52507 H 1092.55 0.403896 -7.13257 0
M  V30 52508 H 1094.38 1.20585 -8.97435 0
M  V30 52509 H 1094.46 2.71231 -5.45042 0
M  V30 52510 P 1092.51 -1.17771 -8.83182 0
M  V30 52511 O 1092.29 -2.07206 -9.98732 0
M  V30 52512 O 1091.72 0.0743816 -8.81969 0
M  V30 52513 O 1092.26 -1.97678 -7.474 0
M  V30 52514 C 1093.2 -3.01133 -7.08783 0
M  V30 52515 C 1092.47 -4.1203 -6.37546 0
M  V30 52516 O 1092.26 -3.72887 -4.9796 0
M  V30 52517 C 1091.07 -4.45085 -6.88694 0
M  V30 52518 O 1090.68 -5.78836 -6.56315 0
M  V30 52519 C 1090.19 -3.47817 -6.12078 0
M  V30 52520 C 1090.9 -3.39414 -4.77697 0
M  V30 52521 N 1090.85 -2.04615 -4.15333 0
M  V30 52522 C 1090.7 -1.96929 -2.77162 0
M  V30 52523 O 1090.61 -3.02017 -2.12006 0
M  V30 52524 N 1090.65 -0.55485 -2.24237 0
M  V30 52525 C 1090.75 0.367808 -2.9169 0
M  V30 52526 N 1090.7 1.53426 -2.29427 0
M  V30 52527 C 1090.9 0.319148 -4.33828 0
M  V30 52528 C 1090.95 -0.920672 -4.90433 0
M  V30 52529 H 1093.69 -3.41209 -7.98667 0
M  V30 52530 H 1093.96 -2.5837 -6.41742 0
M  V30 52531 H 1093.1 -5.02718 -6.42752 0
M  V30 52532 H 1090.44 -4.11779 -4.09026 0
M  V30 52533 H 1090.16 -2.49661 -6.61772 0
M  V30 52534 H 1089.17 -3.86674 -6.00946 0
M  V30 52535 H 1091 -4.29991 -7.97006 0
M  V30 52536 H 1091.08 -1.00589 -5.98303 0
M  V30 52537 H 1090.97 1.22639 -4.93799 0
M  V30 52538 H 1090.59 1.56819 -1.27167 0
M  V30 52539 H 1090.78 2.41062 -2.83063 0
M  V30 52540 P 1089.13 -6.144 -6.45285 0
M  V30 52541 O 1088.91 -7.54673 -6.86199 0
M  V30 52542 O 1088.34 -5.12391 -7.179 0
M  V30 52543 O 1088.88 -5.99236 -4.88467 0
M  V30 52544 C 1089.82 -6.60234 -3.96415 0
M  V30 52545 C 1089.09 -7.08079 -2.736 0
M  V30 52546 O 1088.88 -5.94365 -1.8368 0
M  V30 52547 C 1087.69 -7.64886 -2.9555 0
M  V30 52548 O 1087.3 -8.5406 -1.90739 0
M  V30 52549 C 1086.81 -6.4116 -2.90739 0
M  V30 52550 C 1087.52 -5.55375 -1.86963 0
M  V30 52551 N 1087.47 -4.09664 -2.15742 0
M  V30 52552 C 1087.32 -3.22231 -1.08477 0
M  V30 52553 O 1087.23 -3.68951 0.0600489 0
M  V30 52554 N 1087.27 -1.76692 -1.48799 0
M  V30 52555 C 1087.37 -1.41695 -2.57602 0
M  V30 52556 N 1087.32 -0.107296 -2.75791 0
M  V30 52557 C 1087.52 -2.29178 -3.69733 0
M  V30 52558 C 1087.57 -3.62753 -3.42653 0
M  V30 52559 H 1090.31 -7.45488 -4.45578 0
M  V30 52560 H 1090.58 -5.86232 -3.67314 0
M  V30 52561 H 1089.72 -7.84508 -2.24507 0
M  V30 52562 H 1087.06 -5.73556 -0.888715 0
M  V30 52563 H 1086.78 -5.9096 -3.88638 0
M  V30 52564 H 1085.79 -6.66053 -2.58894 0
M  V30 52565 H 1087.62 -8.16339 -3.92049 0
M  V30 52566 H 1087.7 -4.33052 -4.24913 0
M  V30 52567 H 1087.59 -1.9103 -4.71577 0
M  V30 52568 H 1087.21 0.521221 -1.95056 0
M  V30 52569 H 1087.4 0.286429 -3.70695 0
M  V30 52570 P 1085.75 -8.7635 -1.60911 0
M  V30 52571 O 1085.53 -10.1388 -1.11561 0
M  V30 52572 O 1084.96 -8.36503 -2.79617 0
M  V30 52573 O 1085.5 -7.71806 -0.42951 0
M  V30 52574 C 1086.44 -7.67148 0.673689 0
M  V30 52575 C 1085.71 -7.33374 1.95559 0
M  V30 52576 O 1085.5 -5.88721 2.00726 0
M  V30 52577 C 1084.31 -7.92526 2.10483 0
M  V30 52578 O 1083.92 -8.02971 3.47653 0
M  V30 52579 C 1083.43 -6.89602 1.41652 0
M  V30 52580 C 1084.14 -5.59201 1.75185 0
M  V30 52581 N 1084.09 -4.58301 0.657969 0
M  V30 52582 H 1086.93 -8.65116 0.777161 0
M  V30 52583 H 1087.2 -6.9022 0.46725 0
M  V30 52584 H 1086.34 -7.66548 2.79458 0
M  V30 52585 H 1083.68 -5.16165 2.65183 0
M  V30 52586 H 1083.4 -7.06433 0.329384 0
M  V30 52587 H 1082.41 -6.90926 1.82021 0
M  V30 52588 H 1084.24 -8.90873 1.62657 0
M  V30 52589 P 1082.37 -8.03563 3.84925 0
M  V30 52590 O 1082.15 -8.85821 5.0569 0
M  V30 52591 O 1081.58 -8.41101 2.65469 0
M  V30 52592 O 1082.12 -6.4965 4.18908 0
M  V30 52593 C 1083.06 -5.81037 5.05421 0
M  V30 52594 C 1082.33 -4.78366 5.89277 0
M  V30 52595 O 1082.12 -3.58302 5.08433 0
M  V30 52596 C 1080.93 -5.17448 6.36119 0
M  V30 52597 O 1080.54 -4.45271 7.53232 0
M  V30 52598 C 1080.05 -4.74639 5.19936 0
M  V30 52599 C 1080.76 -3.49432 4.70418 0
M  V30 52600 N 1080.71 -3.32099 3.22613 0
M  V30 52601 H 1083.55 -6.54213 5.71376 0
M  V30 52602 H 1083.82 -5.30936 4.43503 0
M  V30 52603 H 1082.96 -4.55889 6.76652 0
M  V30 52604 H 1080.3 -2.61715 5.17932 0
M  V30 52605 H 1080.02 -5.52155 4.41878 0
M  V30 52606 H 1079.03 -4.51981 5.53374 0
M  V30 52607 H 1080.86 -6.25124 6.55234 0
M  V30 52608 P 1078.99 -4.23843 7.83734 0
M  V30 52609 O 1078.77 -4.19407 9.29784 0
M  V30 52610 O 1078.2 -5.24426 7.09156 0
M  V30 52611 O 1078.74 -2.7935 7.20758 0
M  V30 52612 C 1079.68 -1.7299 7.50419 0
M  V30 52613 C 1078.95 -0.406376 7.57911 0
M  V30 52614 O 1078.74 0.0897726 6.21935 0
M  V30 52615 C 1077.55 -0.447224 8.1878 0
M  V30 52616 O 1077.16 0.825065 8.71101 0
M  V30 52617 C 1076.67 -0.783801 6.99623 0
M  V30 52618 C 1077.38 -0.0619192 5.85967 0
M  V30 52619 N 1077.33 -0.790462 4.56202 0
M  V30 52620 C 1077.41 -2.13895 4.34171 0
M  V30 52621 N 1077.34 -2.46449 3.08687 0
M  V30 52622 C 1077.19 -1.2525 2.43697 0
M  V30 52623 C 1077.06 -0.914535 1.07318 0
M  V30 52624 N 1077.05 -1.80782 0.0887348 0
M  V30 52625 N 1076.94 0.386745 0.768133 0
M  V30 52626 C 1076.95 1.28096 1.75159 0
M  V30 52627 N 1077.07 1.09708 3.04861 0
M  V30 52628 C 1077.19 -0.214857 3.32306 0
M  V30 52629 H 1080.17 -1.93423 8.4679 0
M  V30 52630 H 1080.44 -1.68852 6.70877 0
M  V30 52631 H 1079.58 0.289041 8.15388 0
M  V30 52632 H 1076.92 0.927006 5.72848 0
M  V30 52633 H 1076.64 -1.86973 6.82036 0
M  V30 52634 H 1075.65 -0.403953 7.13357 0
M  V30 52635 H 1077.48 -1.20599 8.97534 0
M  V30 52636 H 1077.53 -2.86846 5.14318 0
M  V30 52637 H 1077.14 -2.81082 0.302037 0
M  V30 52638 H 1076.96 -1.49688 -0.889064 0
M  V30 52639 H 1076.85 2.31317 1.43855 0
M  V30 52640 P 1075.61 1.17771 8.83182 0
M  V30 52641 O 1075.39 2.07206 9.98732 0
M  V30 52642 O 1074.82 -0.0743816 8.81969 0
M  V30 52643 O 1075.36 1.97652 7.47304 0
M  V30 52644 C 1076.3 3.01055 7.08599 0
M  V30 52645 C 1075.57 4.12613 6.37049 0
M  V30 52646 O 1075.36 3.72827 4.97879 0
M  V30 52647 C 1074.17 4.45719 6.88164 0
M  V30 52648 O 1073.78 5.7877 6.5624 0
M  V30 52649 C 1073.29 3.47768 6.11991 0
M  V30 52650 C 1074 3.39356 4.77615 0
M  V30 52651 N 1073.95 2.04571 4.15244 0
M  V30 52652 C 1073.8 1.98587 2.78314 0
M  V30 52653 O 1073.71 2.98134 2.08835 0
M  V30 52654 N 1073.76 0.714467 2.24925 0
M  V30 52655 C 1073.85 -0.470001 2.94169 0
M  V30 52656 O 1073.8 -1.55587 2.35195 0
M  V30 52657 C 1074 -0.312541 4.36783 0
M  V30 52658 C 1074.11 -1.57711 5.16352 0
M  V30 52659 C 1074.05 0.914512 4.92583 0
M  V30 52660 H 1076.79 3.41169 7.98575 0
M  V30 52661 H 1077.06 2.58295 6.41556 0
M  V30 52662 H 1076.2 5.02657 6.42673 0
M  V30 52663 H 1073.54 4.11637 4.08885 0
M  V30 52664 H 1073.26 2.49626 6.61679 0
M  V30 52665 H 1072.27 3.86566 6.00778 0
M  V30 52666 H 1074.1 4.29943 7.96918 0
M  V30 52667 H 1074.18 1.00937 6.00374 0
M  V30 52668 H 1073.15 -1.80153 5.63503 0
M  V30 52669 H 1074.88 -1.4566 5.94104 0
M  V30 52670 H 1074.39 -2.40664 4.49645 0
M  V30 52671 H 1073.66 0.647622 1.25697 0
M  V30 52672 P 1072.23 6.144 6.45285 0
M  V30 52673 O 1072.01 7.54673 6.86199 0
M  V30 52674 O 1071.44 5.12391 7.179 0
M  V30 52675 O 1071.98 5.99158 4.88404 0
M  V30 52676 C 1072.92 6.60234 3.96415 0
M  V30 52677 C 1072.19 7.08259 2.72856 0
M  V30 52678 O 1071.98 5.9427 1.83651 0
M  V30 52679 C 1070.79 7.64886 2.9555 0
M  V30 52680 O 1070.4 8.53963 1.90717 0
M  V30 52681 C 1069.91 6.4116 2.90739 0
M  V30 52682 C 1070.62 5.55375 1.86963 0
M  V30 52683 N 1070.57 4.09664 2.15742 0
M  V30 52684 H 1073.41 7.45574 4.45629 0
M  V30 52685 H 1073.68 5.86232 3.67314 0
M  V30 52686 H 1072.82 7.84412 2.24479 0
M  V30 52687 P 1068.85 8.7635 1.60911 0
M  V30 52688 O 1068.63 10.1388 1.11561 0
M  V30 52689 O 1068.06 8.36503 2.79617 0
M  V30 52690 O 1068.6 7.71806 0.42951 0
M  V30 52691 C 1069.54 7.67148 -0.673689 0
M  V30 52692 C 1068.81 7.33374 -1.95559 0
M  V30 52693 O 1068.6 5.88721 -2.00726 0
M  V30 52694 C 1067.41 7.92526 -2.10483 0
M  V30 52695 O 1067.02 8.02971 -3.47653 0
M  V30 52696 C 1066.53 6.89602 -1.41652 0
M  V30 52697 C 1067.24 5.59201 -1.75185 0
M  V30 52698 N 1067.19 4.58301 -0.657969 0
M  V30 52699 H 1070.03 8.65116 -0.777161 0
M  V30 52700 H 1070.3 6.9022 -0.46725 0
M  V30 52701 H 1069.44 7.66548 -2.79458 0
M  V30 52702 H 1066.78 5.16165 -2.65183 0
M  V30 52703 H 1066.5 7.06433 -0.329384 0
M  V30 52704 H 1065.51 6.90926 -1.82021 0
M  V30 52705 H 1067.34 8.90873 -1.62657 0
M  V30 52706 P 1065.47 8.03563 -3.84925 0
M  V30 52707 O 1065.25 8.85821 -5.0569 0
M  V30 52708 O 1064.68 8.41101 -2.65469 0
M  V30 52709 O 1065.22 6.4965 -4.18908 0
M  V30 52710 C 1066.16 5.81037 -5.05421 0
M  V30 52711 C 1065.43 4.78366 -5.89277 0
M  V30 52712 O 1065.22 3.58302 -5.08433 0
M  V30 52713 C 1064.03 5.17448 -6.36119 0
M  V30 52714 O 1063.64 4.45271 -7.53232 0
M  V30 52715 C 1063.15 4.74639 -5.19936 0
M  V30 52716 C 1063.86 3.49432 -4.70418 0
M  V30 52717 N 1063.81 3.31776 -3.22945 0
M  V30 52718 H 1066.65 6.54213 -5.71376 0
M  V30 52719 H 1066.92 5.30492 -4.44033 0
M  V30 52720 H 1066.06 4.55889 -6.76652 0
M  V30 52721 P 1062.09 4.23843 -7.83734 0
M  V30 52722 O 1061.87 4.19407 -9.29784 0
M  V30 52723 O 1061.3 5.24426 -7.09156 0
M  V30 52724 O 1061.84 2.7935 -7.20758 0
M  V30 52725 C 1062.78 1.7299 -7.50419 0
M  V30 52726 C 1062.05 0.406376 -7.57911 0
M  V30 52727 O 1061.84 -0.0897726 -6.21935 0
M  V30 52728 C 1060.65 0.447224 -8.1878 0
M  V30 52729 O 1060.26 -0.825065 -8.71101 0
M  V30 52730 C 1059.77 0.783801 -6.99623 0
M  V30 52731 C 1060.48 0.0619192 -5.85967 0
M  V30 52732 N 1060.43 0.7859 -4.56281 0
M  V30 52733 H 1063.27 1.93423 -8.4679 0
M  V30 52734 H 1063.54 1.68181 -6.71046 0
M  V30 52735 H 1062.68 -0.289041 -8.15388 0
M  V30 52736 P 1058.71 -1.17771 -8.83182 0
M  V30 52737 O 1058.49 -2.07206 -9.98732 0
M  V30 52738 O 1057.92 0.0743816 -8.81969 0
M  V30 52739 O 1058.46 -1.97652 -7.47304 0
M  V30 52740 C 1059.4 -3.01133 -7.08783 0
M  V30 52741 C 1058.67 -4.12613 -6.37049 0
M  V30 52742 O 1058.46 -3.72827 -4.97879 0
M  V30 52743 C 1057.27 -4.45085 -6.88694 0
M  V30 52744 O 1056.88 -5.7877 -6.5624 0
M  V30 52745 C 1056.39 -3.47817 -6.12078 0
M  V30 52746 C 1057.1 -3.39414 -4.77697 0
M  V30 52747 N 1057.05 -2.04615 -4.15333 0
M  V30 52748 H 1059.89 -3.41248 -7.98759 0
M  V30 52749 H 1060.16 -2.5837 -6.41742 0
M  V30 52750 H 1059.3 -5.02657 -6.42673 0
M  V30 52751 P 1055.33 -6.144 -6.45285 0
M  V30 52752 O 1055.11 -7.54673 -6.86199 0
M  V30 52753 O 1054.54 -5.12391 -7.179 0
M  V30 52754 O 1055.08 -5.99158 -4.88404 0
M  V30 52755 C 1056.02 -6.60234 -3.96415 0
M  V30 52756 C 1055.29 -7.08259 -2.72856 0
M  V30 52757 O 1055.08 -5.9427 -1.83651 0
M  V30 52758 C 1053.89 -7.64886 -2.9555 0
M  V30 52759 O 1053.5 -8.53963 -1.90717 0
M  V30 52760 C 1053.01 -6.4116 -2.90739 0
M  V30 52761 C 1053.72 -5.55375 -1.86963 0
M  V30 52762 N 1053.67 -4.09448 -2.16152 0
M  V30 52763 H 1056.51 -7.45574 -4.45629 0
M  V30 52764 H 1056.78 -5.85864 -3.679 0
M  V30 52765 H 1055.92 -7.84412 -2.24479 0
M  V30 52766 H 1053.26 -5.73457 -0.888562 0
M  V30 52767 H 1052.98 -5.90877 -3.88583 0
M  V30 52768 H 1051.99 -6.6596 -2.58858 0
M  V30 52769 H 1053.82 -8.16339 -3.92049 0
M  V30 52770 P 1051.95 -8.7635 -1.60911 0
M  V30 52771 O 1051.73 -10.1388 -1.11561 0
M  V30 52772 O 1051.16 -8.36503 -2.79617 0
M  V30 52773 O 1051.7 -7.71806 -0.42951 0
M  V30 52774 C 1052.64 -7.67148 0.673689 0
M  V30 52775 C 1051.91 -7.33374 1.95559 0
M  V30 52776 O 1051.7 -5.88721 2.00726 0
M  V30 52777 C 1050.51 -7.92526 2.10483 0
M  V30 52778 O 1050.12 -8.02971 3.47653 0
M  V30 52779 C 1049.63 -6.89602 1.41652 0
M  V30 52780 C 1050.34 -5.59201 1.75185 0
M  V30 52781 N 1050.29 -4.58235 0.662552 0
M  V30 52782 H 1053.13 -8.65116 0.777161 0
M  V30 52783 H 1053.4 -6.90173 0.474152 0
M  V30 52784 H 1052.54 -7.66548 2.79458 0
M  V30 52785 P 1048.57 -8.03563 3.84925 0
M  V30 52786 O 1048.35 -8.85821 5.0569 0
M  V30 52787 O 1047.78 -8.41101 2.65469 0
M  V30 52788 O 1048.32 -6.4965 4.18908 0
M  V30 52789 C 1049.26 -5.81037 5.05421 0
M  V30 52790 C 1048.53 -4.78366 5.89277 0
M  V30 52791 O 1048.32 -3.58302 5.08433 0
M  V30 52792 C 1047.13 -5.17448 6.36119 0
M  V30 52793 O 1046.74 -4.45271 7.53232 0
M  V30 52794 C 1046.25 -4.74639 5.19936 0
M  V30 52795 C 1046.96 -3.49432 4.70418 0
M  V30 52796 N 1046.91 -3.31776 3.22945 0
M  V30 52797 H 1049.75 -6.54213 5.71376 0
M  V30 52798 H 1050.02 -5.30492 4.44033 0
M  V30 52799 H 1049.16 -4.55889 6.76652 0
M  V30 52800 P 1045.19 -4.23843 7.83734 0
M  V30 52801 O 1044.97 -4.19407 9.29784 0
M  V30 52802 O 1044.4 -5.24426 7.09156 0
M  V30 52803 O 1044.94 -2.7935 7.20758 0
M  V30 52804 C 1045.88 -1.7299 7.50419 0
M  V30 52805 C 1045.15 -0.406376 7.57911 0
M  V30 52806 O 1044.94 0.0897726 6.21935 0
M  V30 52807 C 1043.75 -0.447224 8.1878 0
M  V30 52808 O 1043.36 0.825065 8.71101 0
M  V30 52809 C 1042.87 -0.783801 6.99623 0
M  V30 52810 C 1043.58 -0.0619192 5.85967 0
M  V30 52811 N 1043.53 -0.7859 4.56281 0
M  V30 52812 H 1046.37 -1.93423 8.4679 0
M  V30 52813 H 1046.64 -1.68181 6.71046 0
M  V30 52814 H 1045.78 0.289041 8.15388 0
M  V30 52815 P 1041.81 1.17771 8.83182 0
M  V30 52816 O 1041.59 2.07206 9.98732 0
M  V30 52817 O 1041.02 -0.0743816 8.81969 0
M  V30 52818 O 1041.56 1.97652 7.47304 0
M  V30 52819 C 1042.5 3.01133 7.08783 0
M  V30 52820 C 1041.77 4.12613 6.37049 0
M  V30 52821 O 1041.56 3.72827 4.97879 0
M  V30 52822 C 1040.37 4.45085 6.88694 0
M  V30 52823 O 1039.98 5.7877 6.5624 0
M  V30 52824 C 1039.49 3.47817 6.12078 0
M  V30 52825 C 1040.2 3.39414 4.77697 0
M  V30 52826 N 1040.15 2.04615 4.15333 0
M  V30 52827 H 1042.99 3.41248 7.98759 0
M  V30 52828 H 1043.26 2.5837 6.41742 0
M  V30 52829 H 1042.4 5.02657 6.42673 0
M  V30 52830 P 1038.43 6.144 6.45285 0
M  V30 52831 O 1038.21 7.54673 6.86199 0
M  V30 52832 O 1037.64 5.12391 7.179 0
M  V30 52833 O 1038.18 5.99236 4.88467 0
M  V30 52834 C 1039.12 6.60234 3.96415 0
M  V30 52835 C 1038.39 7.08079 2.736 0
M  V30 52836 O 1038.18 5.94365 1.8368 0
M  V30 52837 C 1036.99 7.64886 2.9555 0
M  V30 52838 O 1036.6 8.5406 1.90739 0
M  V30 52839 C 1036.11 6.4116 2.90739 0
M  V30 52840 C 1036.82 5.55375 1.86963 0
M  V30 52841 N 1036.77 4.09664 2.15742 0
M  V30 52842 C 1036.62 3.22231 1.08477 0
M  V30 52843 O 1036.53 3.68951 -0.0600489 0
M  V30 52844 N 1036.57 1.76692 1.48799 0
M  V30 52845 C 1036.67 1.41695 2.57602 0
M  V30 52846 N 1036.62 0.107296 2.75791 0
M  V30 52847 C 1036.82 2.29178 3.69733 0
M  V30 52848 C 1036.87 3.62753 3.42653 0
M  V30 52849 H 1039.61 7.45488 4.45578 0
M  V30 52850 H 1039.88 5.86232 3.67314 0
M  V30 52851 H 1039.02 7.84508 2.24507 0
M  V30 52852 H 1036.36 5.73556 0.888715 0
M  V30 52853 H 1036.08 5.9096 3.88638 0
M  V30 52854 H 1035.09 6.66053 2.58894 0
M  V30 52855 H 1036.92 8.16339 3.92049 0
M  V30 52856 H 1037 4.33052 4.24913 0
M  V30 52857 H 1036.89 1.9103 4.71577 0
M  V30 52858 H 1036.51 -0.521221 1.95056 0
M  V30 52859 H 1036.7 -0.286429 3.70695 0
M  V30 52860 P 1035.05 8.7635 1.60911 0
M  V30 52861 O 1034.83 10.1388 1.11561 0
M  V30 52862 O 1034.26 8.36503 2.79617 0
M  V30 52863 O 1034.8 7.71806 0.42951 0
M  V30 52864 C 1035.74 7.67148 -0.673689 0
M  V30 52865 C 1035.01 7.33374 -1.95559 0
M  V30 52866 O 1034.8 5.88721 -2.00726 0
M  V30 52867 C 1033.61 7.92526 -2.10483 0
M  V30 52868 O 1033.22 8.02971 -3.47653 0
M  V30 52869 C 1032.73 6.89602 -1.41652 0
M  V30 52870 C 1033.44 5.59201 -1.75185 0
M  V30 52871 N 1033.39 4.58301 -0.657969 0
M  V30 52872 H 1036.23 8.65116 -0.777161 0
M  V30 52873 H 1036.5 6.9022 -0.46725 0
M  V30 52874 H 1035.64 7.66548 -2.79458 0
M  V30 52875 H 1032.98 5.16165 -2.65183 0
M  V30 52876 H 1032.7 7.06433 -0.329384 0
M  V30 52877 H 1031.71 6.90926 -1.82021 0
M  V30 52878 H 1033.54 8.90873 -1.62657 0
M  V30 52879 P 1031.67 8.03563 -3.84925 0
M  V30 52880 O 1031.45 8.85821 -5.0569 0
M  V30 52881 O 1030.88 8.41101 -2.65469 0
M  V30 52882 O 1031.42 6.4965 -4.18908 0
M  V30 52883 C 1032.36 5.81037 -5.05421 0
M  V30 52884 C 1031.63 4.78366 -5.89277 0
M  V30 52885 O 1031.42 3.58302 -5.08433 0
M  V30 52886 C 1030.23 5.17448 -6.36119 0
M  V30 52887 O 1029.84 4.45271 -7.53232 0
M  V30 52888 C 1029.35 4.74639 -5.19936 0
M  V30 52889 C 1030.06 3.49432 -4.70418 0
M  V30 52890 N 1030.01 3.31776 -3.22945 0
M  V30 52891 H 1032.85 6.54213 -5.71376 0
M  V30 52892 H 1033.12 5.30492 -4.44033 0
M  V30 52893 H 1032.26 4.55889 -6.76652 0
M  V30 52894 P 1028.29 4.23843 -7.83734 0
M  V30 52895 O 1028.07 4.19407 -9.29784 0
M  V30 52896 O 1027.5 5.24426 -7.09156 0
M  V30 52897 O 1028.04 2.7935 -7.20758 0
M  V30 52898 C 1028.98 1.7299 -7.50419 0
M  V30 52899 C 1028.25 0.406376 -7.57911 0
M  V30 52900 O 1028.04 -0.0897726 -6.21935 0
M  V30 52901 C 1026.85 0.447224 -8.1878 0
M  V30 52902 O 1026.46 -0.825065 -8.71101 0
M  V30 52903 C 1025.97 0.783801 -6.99623 0
M  V30 52904 C 1026.68 0.0619192 -5.85967 0
M  V30 52905 N 1026.63 0.790462 -4.56202 0
M  V30 52906 H 1029.47 1.93423 -8.4679 0
M  V30 52907 H 1029.74 1.68852 -6.70877 0
M  V30 52908 H 1028.88 -0.289041 -8.15388 0
M  V30 52909 H 1026.22 -0.927006 -5.72848 0
M  V30 52910 H 1025.94 1.86973 -6.82036 0
M  V30 52911 H 1024.95 0.403953 -7.13357 0
M  V30 52912 H 1026.78 1.20599 -8.97534 0
M  V30 52913 P 1024.91 -1.17771 -8.83182 0
M  V30 52914 O 1024.69 -2.07206 -9.98732 0
M  V30 52915 O 1024.12 0.0743816 -8.81969 0
M  V30 52916 O 1024.66 -1.97652 -7.47304 0
M  V30 52917 C 1025.6 -3.01133 -7.08783 0
M  V30 52918 C 1024.87 -4.12613 -6.37049 0
M  V30 52919 O 1024.66 -3.72827 -4.97879 0
M  V30 52920 C 1023.47 -4.45085 -6.88694 0
M  V30 52921 O 1023.08 -5.7877 -6.5624 0
M  V30 52922 C 1022.59 -3.47817 -6.12078 0
M  V30 52923 C 1023.3 -3.39414 -4.77697 0
M  V30 52924 N 1023.25 -2.04615 -4.15333 0
M  V30 52925 H 1026.09 -3.41248 -7.98759 0
M  V30 52926 H 1026.36 -2.5837 -6.41742 0
M  V30 52927 H 1025.5 -5.02657 -6.42673 0
M  V30 52928 P 1021.53 -6.144 -6.45285 0
M  V30 52929 O 1021.31 -7.54673 -6.86199 0
M  V30 52930 O 1020.74 -5.12391 -7.179 0
M  V30 52931 O 1021.28 -5.99158 -4.88404 0
M  V30 52932 C 1022.22 -6.60234 -3.96415 0
M  V30 52933 C 1021.49 -7.08259 -2.72856 0
M  V30 52934 O 1021.28 -5.9427 -1.83651 0
M  V30 52935 C 1020.09 -7.64886 -2.9555 0
M  V30 52936 O 1019.7 -8.53963 -1.90717 0
M  V30 52937 C 1019.21 -6.4116 -2.90739 0
M  V30 52938 C 1019.92 -5.55375 -1.86963 0
M  V30 52939 N 1019.87 -4.09448 -2.16152 0
M  V30 52940 C 1019.95 -3.46824 -3.37593 0
M  V30 52941 N 1019.88 -2.17422 -3.29777 0
M  V30 52942 C 1019.73 -1.93065 -1.94427 0
M  V30 52943 C 1019.6 -0.738053 -1.20141 0
M  V30 52944 N 1019.59 0.474256 -1.74676 0
M  V30 52945 N 1019.48 -0.850049 0.13045 0
M  V30 52946 C 1019.49 -2.06169 0.676992 0
M  V30 52947 N 1019.61 -3.23842 0.101312 0
M  V30 52948 C 1019.73 -3.09402 -1.23122 0
M  V30 52949 H 1022.71 -7.45574 -4.45629 0
M  V30 52950 H 1022.98 -5.85864 -3.679 0
M  V30 52951 H 1022.12 -7.84412 -2.24479 0
M  V30 52952 H 1019.46 -5.73457 -0.888562 0
M  V30 52953 H 1019.18 -5.90877 -3.88583 0
M  V30 52954 H 1018.19 -6.6596 -2.58858 0
M  V30 52955 H 1020.02 -8.16339 -3.92049 0
M  V30 52956 H 1020.07 -4.00505 -4.3174 0
M  V30 52957 H 1019.68 0.581337 -2.76658 0
M  V30 52958 H 1019.5 1.30811 -1.14888 0
M  V30 52959 H 1019.39 -2.08295 1.75542 0
M  V30 52960 P 1018.15 -8.7635 -1.60911 0
M  V30 52961 O 1017.93 -10.1388 -1.11561 0
M  V30 52962 O 1017.36 -8.36503 -2.79617 0
M  V30 52963 O 1017.9 -7.71806 -0.42951 0
M  V30 52964 C 1018.84 -7.67148 0.673689 0
M  V30 52965 C 1018.11 -7.33374 1.95559 0
M  V30 52966 O 1017.9 -5.88721 2.00726 0
M  V30 52967 C 1016.71 -7.92526 2.10483 0
M  V30 52968 O 1016.32 -8.02971 3.47653 0
M  V30 52969 C 1015.83 -6.89602 1.41652 0
M  V30 52970 C 1016.54 -5.59201 1.75185 0
M  V30 52971 N 1016.49 -4.58235 0.662552 0
M  V30 52972 H 1019.33 -8.65116 0.777161 0
M  V30 52973 H 1019.61 -6.90173 0.474152 0
M  V30 52974 H 1018.74 -7.66548 2.79458 0
M  V30 52975 P 1014.77 -8.03563 3.84925 0
M  V30 52976 O 1014.55 -8.85821 5.0569 0
M  V30 52977 O 1013.98 -8.41101 2.65469 0
M  V30 52978 O 1014.52 -6.4965 4.18908 0
M  V30 52979 C 1015.46 -5.81037 5.05421 0
M  V30 52980 C 1014.73 -4.78366 5.89277 0
M  V30 52981 O 1014.52 -3.58302 5.08433 0
M  V30 52982 C 1013.33 -5.17448 6.36119 0
M  V30 52983 O 1012.94 -4.45271 7.53232 0
M  V30 52984 C 1012.45 -4.74639 5.19936 0
M  V30 52985 C 1013.16 -3.49432 4.70418 0
M  V30 52986 N 1013.11 -3.31776 3.22945 0
M  V30 52987 C 1013.19 -4.27147 2.23315 0
M  V30 52988 N 1013.11 -3.78447 1.02186 0
M  V30 52989 C 1012.97 -2.41001 1.21732 0
M  V30 52990 C 1012.84 -1.36111 0.27694 0
M  V30 52991 O 1012.82 -1.42065 -0.951767 0
M  V30 52992 N 1012.72 -0.113683 0.912949 0
M  V30 52993 C 1012.72 0.0846396 2.27943 0
M  V30 52994 N 1012.59 1.34737 2.6916 0
M  V30 52995 N 1012.85 -0.902521 3.16379 0
M  V30 52996 C 1012.97 -2.11937 2.56849 0
M  V30 52997 H 1015.95 -6.54213 5.71376 0
M  V30 52998 H 1016.23 -5.30492 4.44033 0
M  V30 52999 H 1015.36 -4.55889 6.76652 0
M  V30 53000 H 1012.7 -2.6176 5.18021 0
M  V30 53001 H 1012.42 -5.52233 4.41941 0
M  V30 53002 H 1011.43 -4.52045 5.53452 0
M  V30 53003 H 1013.27 -6.25193 6.55307 0
M  V30 53004 H 1013.31 -5.3351 2.43857 0
M  V30 53005 H 1012.63 0.69331 0.330371 0
M  V30 53006 H 1012.6 1.56433 3.6988 0
M  V30 53007 H 1012.49 2.10701 2.00133 0
M  V30 53008 P 1011.39 -4.23843 7.83734 0
M  V30 53009 O 1011.17 -4.19407 9.29784 0
M  V30 53010 O 1010.6 -5.24426 7.09156 0
M  V30 53011 O 1011.14 -2.7935 7.20758 0
M  V30 53012 C 1012.08 -1.7299 7.50419 0
M  V30 53013 C 1011.35 -0.406376 7.57911 0
M  V30 53014 O 1011.14 0.0897726 6.21935 0
M  V30 53015 C 1009.95 -0.447224 8.1878 0
M  V30 53016 O 1009.56 0.825065 8.71101 0
M  V30 53017 C 1009.07 -0.783801 6.99623 0
M  V30 53018 C 1009.78 -0.0619192 5.85967 0
M  V30 53019 N 1009.73 -0.7859 4.56281 0
M  V30 53020 H 1012.57 -1.93423 8.4679 0
M  V30 53021 H 1012.85 -1.68181 6.71046 0
M  V30 53022 H 1011.98 0.289041 8.15388 0
M  V30 53023 P 1008.01 1.17771 8.83182 0
M  V30 53024 O 1007.79 2.07206 9.98732 0
M  V30 53025 O 1007.22 -0.0743816 8.81969 0
M  V30 53026 O 1007.76 1.97652 7.47304 0
M  V30 53027 C 1008.7 3.01133 7.08783 0
M  V30 53028 C 1007.97 4.12613 6.37049 0
M  V30 53029 O 1007.76 3.72827 4.97879 0
M  V30 53030 C 1006.57 4.45085 6.88694 0
M  V30 53031 O 1006.18 5.7877 6.5624 0
M  V30 53032 C 1005.69 3.47817 6.12078 0
M  V30 53033 C 1006.4 3.39414 4.77697 0
M  V30 53034 N 1006.35 2.04615 4.15333 0
M  V30 53035 H 1009.19 3.41248 7.98759 0
M  V30 53036 H 1009.47 2.5837 6.41742 0
M  V30 53037 H 1008.6 5.02657 6.42673 0
M  V30 53038 P 1004.63 6.144 6.45285 0
M  V30 53039 O 1004.41 7.54673 6.86199 0
M  V30 53040 O 1003.84 5.12391 7.179 0
M  V30 53041 O 1004.38 5.99158 4.88404 0
M  V30 53042 C 1005.32 6.60234 3.96415 0
M  V30 53043 C 1004.59 7.08259 2.72856 0
M  V30 53044 O 1004.38 5.9427 1.83651 0
M  V30 53045 C 1003.19 7.64886 2.9555 0
M  V30 53046 O 1002.8 8.53963 1.90717 0
M  V30 53047 C 1002.31 6.4116 2.90739 0
M  V30 53048 C 1003.02 5.55375 1.86963 0
M  V30 53049 N 1002.97 4.09664 2.15742 0
M  V30 53050 H 1005.81 7.45574 4.45629 0
M  V30 53051 H 1006.09 5.86232 3.67314 0
M  V30 53052 H 1005.22 7.84412 2.24479 0
M  V30 53053 P 1001.25 8.7635 1.60911 0
M  V30 53054 O 1001.03 10.1388 1.11561 0
M  V30 53055 O 1000.46 8.36503 2.79617 0
M  V30 53056 O 1001 7.71806 0.42951 0
M  V30 53057 C 1001.94 7.66948 -0.673514 0
M  V30 53058 C 1001.21 7.33374 -1.95559 0
M  V30 53059 O 1001 5.88721 -2.00726 0
M  V30 53060 C 999.814 7.92218 -2.1125 0
M  V30 53061 O 999.424 8.02971 -3.47653 0
M  V30 53062 C 998.934 6.89504 -1.41631 0
M  V30 53063 C 999.644 5.59106 -1.75155 0
M  V30 53064 N 999.594 4.58136 -0.662409 0
M  V30 53065 C 999.444 3.26059 -1.02863 0
M  V30 53066 O 999.354 2.90743 -2.19009 0
M  V30 53067 N 999.404 2.35995 0.0155585 0
M  V30 53068 C 999.494 2.65248 1.35603 0
M  V30 53069 C 999.644 4.05747 1.64698 0
M  V30 53070 C 999.694 4.96734 0.652411 0
M  V30 53071 H 1002.44 8.64917 -0.776982 0
M  V30 53072 H 1002.7 6.89974 -0.474015 0
M  V30 53073 H 1001.84 7.66548 -2.79458 0
M  V30 53074 H 999.182 5.16076 -2.65138 0
M  V30 53075 H 998.903 7.06433 -0.329384 0
M  V30 53076 H 997.911 6.90829 -1.81996 0
M  V30 53077 H 999.745 8.90774 -1.62639 0
M  V30 53078 H 999.816 6.02181 0.895285 0
M  V30 53079 P 997.874 8.03563 -3.84925 0
M  V30 53080 O 997.654 8.85821 -5.0569 0
M  V30 53081 O 997.084 8.41101 -2.65469 0
M  V30 53082 O 997.624 6.4965 -4.18908 0
M  V30 53083 C 998.564 5.81037 -5.05421 0
M  V30 53084 C 997.834 4.78366 -5.89277 0
M  V30 53085 O 997.624 3.58302 -5.08433 0
M  V30 53086 C 996.434 5.17448 -6.36119 0
M  V30 53087 O 996.044 4.45271 -7.53232 0
M  V30 53088 C 995.554 4.74639 -5.19936 0
M  V30 53089 C 996.264 3.49432 -4.70418 0
M  V30 53090 N 996.214 3.31776 -3.22945 0
M  V30 53091 H 999.053 6.54213 -5.71376 0
M  V30 53092 H 999.325 5.30492 -4.44033 0
M  V30 53093 H 998.457 4.55889 -6.76652 0
M  V30 53094 P 994.494 4.23843 -7.83734 0
M  V30 53095 O 994.274 4.19407 -9.29784 0
M  V30 53096 O 993.704 5.24426 -7.09156 0
M  V30 53097 O 994.244 2.7935 -7.20758 0
M  V30 53098 C 995.184 1.7299 -7.50419 0
M  V30 53099 C 994.454 0.406376 -7.57911 0
M  V30 53100 O 994.244 -0.0897726 -6.21935 0
M  V30 53101 C 993.054 0.447224 -8.1878 0
M  V30 53102 O 992.664 -0.825065 -8.71101 0
M  V30 53103 C 992.174 0.783801 -6.99623 0
M  V30 53104 C 992.884 0.0619192 -5.85967 0
M  V30 53105 N 992.834 0.7859 -4.56281 0
M  V30 53106 H 995.673 1.93423 -8.4679 0
M  V30 53107 H 995.945 1.68181 -6.71046 0
M  V30 53108 H 995.077 -0.289041 -8.15388 0
M  V30 53109 P 991.114 -1.17771 -8.83182 0
M  V30 53110 O 990.894 -2.07206 -9.98732 0
M  V30 53111 O 990.324 0.0743816 -8.81969 0
M  V30 53112 O 990.864 -1.97652 -7.47304 0
M  V30 53113 C 991.804 -3.01133 -7.08783 0
M  V30 53114 C 991.074 -4.12613 -6.37049 0
M  V30 53115 O 990.864 -3.72827 -4.97879 0
M  V30 53116 C 989.674 -4.45085 -6.88694 0
M  V30 53117 O 989.284 -5.7877 -6.5624 0
M  V30 53118 C 988.794 -3.47817 -6.12078 0
M  V30 53119 C 989.504 -3.39414 -4.77697 0
M  V30 53120 N 989.454 -2.04615 -4.15333 0
M  V30 53121 H 992.293 -3.41248 -7.98759 0
M  V30 53122 H 992.565 -2.5837 -6.41742 0
M  V30 53123 H 991.697 -5.02657 -6.42673 0
M  V30 53124 P 987.734 -6.144 -6.45285 0
M  V30 53125 O 987.514 -7.54673 -6.86199 0
M  V30 53126 O 986.944 -5.12391 -7.179 0
M  V30 53127 O 987.484 -5.99158 -4.88404 0
M  V30 53128 C 988.424 -6.60234 -3.96415 0
M  V30 53129 C 987.694 -7.08259 -2.72856 0
M  V30 53130 O 987.484 -5.9427 -1.83651 0
M  V30 53131 C 986.294 -7.64886 -2.9555 0
M  V30 53132 O 985.904 -8.53963 -1.90717 0
M  V30 53133 C 985.414 -6.4116 -2.90739 0
M  V30 53134 C 986.124 -5.55375 -1.86963 0
M  V30 53135 N 986.074 -4.09664 -2.15742 0
M  V30 53136 H 988.913 -7.45574 -4.45629 0
M  V30 53137 H 989.185 -5.86232 -3.67314 0
M  V30 53138 H 988.317 -7.84412 -2.24479 0
M  V30 53139 P 984.354 -8.7635 -1.60911 0
M  V30 53140 O 984.134 -10.1388 -1.11561 0
M  V30 53141 O 983.564 -8.36503 -2.79617 0
M  V30 53142 O 984.104 -7.71806 -0.42951 0
M  V30 53143 C 985.044 -7.67148 0.673689 0
M  V30 53144 C 984.314 -7.33374 1.95559 0
M  V30 53145 O 984.104 -5.88721 2.00726 0
M  V30 53146 C 982.914 -7.92526 2.10483 0
M  V30 53147 O 982.524 -8.02971 3.47653 0
M  V30 53148 C 982.034 -6.89602 1.41652 0
M  V30 53149 C 982.744 -5.59201 1.75185 0
M  V30 53150 N 982.694 -4.58235 0.662552 0
M  V30 53151 H 985.533 -8.65116 0.777161 0
M  V30 53152 H 985.805 -6.90173 0.474152 0
M  V30 53153 H 984.937 -7.66548 2.79458 0
M  V30 53154 P 980.974 -8.03563 3.84925 0
M  V30 53155 O 980.754 -8.85821 5.0569 0
M  V30 53156 O 980.184 -8.41101 2.65469 0
M  V30 53157 O 980.724 -6.4965 4.18908 0
M  V30 53158 C 981.664 -5.81037 5.05421 0
M  V30 53159 C 980.934 -4.78366 5.89277 0
M  V30 53160 O 980.724 -3.58302 5.08433 0
M  V30 53161 C 979.534 -5.17448 6.36119 0
M  V30 53162 O 979.144 -4.45271 7.53232 0
M  V30 53163 C 978.654 -4.74639 5.19936 0
M  V30 53164 C 979.364 -3.49432 4.70418 0
M  V30 53165 N 979.314 -3.31776 3.22945 0
M  V30 53166 H 982.153 -6.54213 5.71376 0
M  V30 53167 H 982.425 -5.30492 4.44033 0
M  V30 53168 H 981.557 -4.55889 6.76652 0
M  V30 53169 P 977.594 -4.23843 7.83734 0
M  V30 53170 O 977.374 -4.19407 9.29784 0
M  V30 53171 O 976.804 -5.24426 7.09156 0
M  V30 53172 O 977.344 -2.7935 7.20758 0
M  V30 53173 C 978.284 -1.7299 7.50419 0
M  V30 53174 C 977.554 -0.406376 7.57911 0
M  V30 53175 O 977.344 0.0897726 6.21935 0
M  V30 53176 C 976.154 -0.447224 8.1878 0
M  V30 53177 O 975.764 0.825065 8.71101 0
M  V30 53178 C 975.274 -0.783801 6.99623 0
M  V30 53179 C 975.984 -0.0619192 5.85967 0
M  V30 53180 N 975.934 -0.7859 4.56281 0
M  V30 53181 H 978.773 -1.93423 8.4679 0
M  V30 53182 H 979.045 -1.68181 6.71046 0
M  V30 53183 H 978.177 0.289041 8.15388 0
M  V30 53184 P 974.214 1.17771 8.83182 0
M  V30 53185 O 973.994 2.07206 9.98732 0
M  V30 53186 O 973.424 -0.0743816 8.81969 0
M  V30 53187 O 973.964 1.97652 7.47304 0
M  V30 53188 C 974.904 3.01133 7.08783 0
M  V30 53189 C 974.174 4.12613 6.37049 0
M  V30 53190 O 973.964 3.72827 4.97879 0
M  V30 53191 C 972.774 4.45085 6.88694 0
M  V30 53192 O 972.384 5.7877 6.5624 0
M  V30 53193 C 971.894 3.47817 6.12078 0
M  V30 53194 C 972.604 3.39414 4.77697 0
M  V30 53195 N 972.554 2.04615 4.15333 0
M  V30 53196 H 975.393 3.41248 7.98759 0
M  V30 53197 H 975.665 2.5837 6.41742 0
M  V30 53198 H 974.797 5.02657 6.42673 0
M  V30 53199 P 970.834 6.144 6.45285 0
M  V30 53200 O 970.614 7.54673 6.86199 0
M  V30 53201 O 970.044 5.12391 7.179 0
M  V30 53202 O 970.584 5.99158 4.88404 0
M  V30 53203 C 971.524 6.60234 3.96415 0
M  V30 53204 C 970.794 7.08259 2.72856 0
M  V30 53205 O 970.584 5.9427 1.83651 0
M  V30 53206 C 969.394 7.64886 2.9555 0
M  V30 53207 O 969.004 8.53963 1.90717 0
M  V30 53208 C 968.514 6.4116 2.90739 0
M  V30 53209 C 969.224 5.55375 1.86963 0
M  V30 53210 N 969.174 4.09448 2.16152 0
M  V30 53211 H 972.013 7.45574 4.45629 0
M  V30 53212 H 972.285 5.85864 3.679 0
M  V30 53213 H 971.417 7.84412 2.24479 0
M  V30 53214 H 968.762 5.73457 0.888562 0
M  V30 53215 H 968.482 5.90877 3.88583 0
M  V30 53216 H 967.491 6.6596 2.58858 0
M  V30 53217 H 969.325 8.16339 3.92049 0
M  V30 53218 P 967.454 8.7635 1.60911 0
M  V30 53219 O 967.234 10.1388 1.11561 0
M  V30 53220 O 966.664 8.36503 2.79617 0
M  V30 53221 O 967.204 7.71806 0.42951 0
M  V30 53222 C 968.144 7.67148 -0.673689 0
M  V30 53223 C 967.414 7.33374 -1.95559 0
M  V30 53224 O 967.204 5.88721 -2.00726 0
M  V30 53225 C 966.014 7.92526 -2.10483 0
M  V30 53226 O 965.624 8.02971 -3.47653 0
M  V30 53227 C 965.134 6.89602 -1.41652 0
M  V30 53228 C 965.844 5.59201 -1.75185 0
M  V30 53229 N 965.794 4.58235 -0.662552 0
M  V30 53230 H 968.633 8.65116 -0.777161 0
M  V30 53231 H 968.905 6.90173 -0.474152 0
M  V30 53232 H 968.037 7.66548 -2.79458 0
M  V30 53233 P 964.074 8.03563 -3.84925 0
M  V30 53234 O 963.854 8.85821 -5.0569 0
M  V30 53235 O 963.284 8.41101 -2.65469 0
M  V30 53236 O 963.824 6.4965 -4.18908 0
M  V30 53237 C 964.764 5.81037 -5.05421 0
M  V30 53238 C 964.034 4.78366 -5.89277 0
M  V30 53239 O 963.824 3.58302 -5.08433 0
M  V30 53240 C 962.634 5.17448 -6.36119 0
M  V30 53241 O 962.244 4.45271 -7.53232 0
M  V30 53242 C 961.754 4.74639 -5.19936 0
M  V30 53243 C 962.464 3.49432 -4.70418 0
M  V30 53244 N 962.414 3.32099 -3.22613 0
M  V30 53245 H 965.253 6.54213 -5.71376 0
M  V30 53246 H 965.525 5.30936 -4.43503 0
M  V30 53247 H 964.657 4.55889 -6.76652 0
M  V30 53248 H 962.002 2.61715 -5.17932 0
M  V30 53249 H 961.722 5.52155 -4.41878 0
M  V30 53250 H 960.731 4.51981 -5.53374 0
M  V30 53251 H 962.565 6.25124 -6.55234 0
M  V30 53252 P 960.694 4.23843 -7.83734 0
M  V30 53253 O 960.474 4.19407 -9.29784 0
M  V30 53254 O 959.904 5.24426 -7.09156 0
M  V30 53255 O 960.444 2.7935 -7.20758 0
M  V30 53256 C 961.384 1.7299 -7.50419 0
M  V30 53257 C 960.654 0.406376 -7.57911 0
M  V30 53258 O 960.444 -0.0897726 -6.21935 0
M  V30 53259 C 959.254 0.447224 -8.1878 0
M  V30 53260 O 958.864 -0.825065 -8.71101 0
M  V30 53261 C 958.374 0.783801 -6.99623 0
M  V30 53262 C 959.084 0.0619192 -5.85967 0
M  V30 53263 N 959.034 0.7859 -4.56281 0
M  V30 53264 H 961.873 1.93423 -8.4679 0
M  V30 53265 H 962.145 1.68181 -6.71046 0
M  V30 53266 H 961.277 -0.289041 -8.15388 0
M  V30 53267 P 957.314 -1.17771 -8.83182 0
M  V30 53268 O 957.094 -2.07206 -9.98732 0
M  V30 53269 O 956.524 0.0743816 -8.81969 0
M  V30 53270 O 957.064 -1.97678 -7.474 0
M  V30 53271 C 958.004 -3.01133 -7.08783 0
M  V30 53272 C 957.274 -4.1203 -6.37546 0
M  V30 53273 O 957.064 -3.72887 -4.9796 0
M  V30 53274 C 955.874 -4.45085 -6.88694 0
M  V30 53275 O 955.484 -5.78836 -6.56315 0
M  V30 53276 C 954.994 -3.47817 -6.12078 0
M  V30 53277 C 955.704 -3.39414 -4.77697 0
M  V30 53278 N 955.654 -2.04615 -4.15333 0
M  V30 53279 C 955.504 -1.96929 -2.77162 0
M  V30 53280 O 955.414 -3.02017 -2.12006 0
M  V30 53281 N 955.454 -0.55485 -2.24237 0
M  V30 53282 C 955.554 0.367808 -2.9169 0
M  V30 53283 N 955.504 1.53426 -2.29427 0
M  V30 53284 C 955.704 0.319148 -4.33828 0
M  V30 53285 C 955.754 -0.920672 -4.90433 0
M  V30 53286 H 958.494 -3.41209 -7.98667 0
M  V30 53287 H 958.764 -2.5837 -6.41742 0
M  V30 53288 H 957.897 -5.02718 -6.42752 0
M  V30 53289 H 955.242 -4.11779 -4.09026 0
M  V30 53290 H 954.962 -2.49661 -6.61772 0
M  V30 53291 H 953.971 -3.86674 -6.00946 0
M  V30 53292 H 955.805 -4.29991 -7.97006 0
M  V30 53293 H 955.877 -1.00589 -5.98303 0
M  V30 53294 H 955.775 1.22639 -4.93799 0
M  V30 53295 H 955.387 1.56819 -1.27167 0
M  V30 53296 H 955.583 2.41062 -2.83063 0
M  V30 53297 P 953.934 -6.144 -6.45285 0
M  V30 53298 O 953.714 -7.54673 -6.86199 0
M  V30 53299 O 953.144 -5.12391 -7.179 0
M  V30 53300 O 953.684 -5.99158 -4.88404 0
M  V30 53301 C 954.624 -6.60234 -3.96415 0
M  V30 53302 C 953.894 -7.08259 -2.72856 0
M  V30 53303 O 953.684 -5.9427 -1.83651 0
M  V30 53304 C 952.494 -7.64886 -2.9555 0
M  V30 53305 O 952.104 -8.53963 -1.90717 0
M  V30 53306 C 951.614 -6.4116 -2.90739 0
M  V30 53307 C 952.324 -5.55375 -1.86963 0
M  V30 53308 N 952.274 -4.09448 -2.16152 0
M  V30 53309 C 952.354 -3.46824 -3.37593 0
M  V30 53310 N 952.284 -2.17422 -3.29777 0
M  V30 53311 C 952.134 -1.93065 -1.94427 0
M  V30 53312 C 952.004 -0.738053 -1.20141 0
M  V30 53313 N 951.994 0.474256 -1.74676 0
M  V30 53314 N 951.884 -0.850049 0.13045 0
M  V30 53315 C 951.894 -2.06169 0.676992 0
M  V30 53316 N 952.014 -3.23842 0.101312 0
M  V30 53317 C 952.134 -3.09402 -1.23122 0
M  V30 53318 H 955.113 -7.45574 -4.45629 0
M  V30 53319 H 955.385 -5.85864 -3.679 0
M  V30 53320 H 954.517 -7.84412 -2.24479 0
M  V30 53321 H 951.862 -5.73457 -0.888562 0
M  V30 53322 H 951.582 -5.90877 -3.88583 0
M  V30 53323 H 950.591 -6.6596 -2.58858 0
M  V30 53324 H 952.425 -8.16339 -3.92049 0
M  V30 53325 H 952.466 -4.00505 -4.3174 0
M  V30 53326 H 952.085 0.581337 -2.76658 0
M  V30 53327 H 951.896 1.30811 -1.14888 0
M  V30 53328 H 951.788 -2.08295 1.75542 0
M  V30 53329 P 950.554 -8.7635 -1.60911 0
M  V30 53330 O 950.334 -10.1388 -1.11561 0
M  V30 53331 O 949.764 -8.36503 -2.79617 0
M  V30 53332 O 950.304 -7.71806 -0.42951 0
M  V30 53333 C 951.244 -7.67148 0.673689 0
M  V30 53334 C 950.514 -7.33374 1.95559 0
M  V30 53335 O 950.304 -5.88721 2.00726 0
M  V30 53336 C 949.114 -7.92526 2.10483 0
M  V30 53337 O 948.724 -8.02971 3.47653 0
M  V30 53338 C 948.234 -6.89602 1.41652 0
M  V30 53339 C 948.944 -5.59201 1.75185 0
M  V30 53340 N 948.894 -4.58235 0.662552 0
M  V30 53341 H 951.733 -8.65116 0.777161 0
M  V30 53342 H 952.005 -6.90173 0.474152 0
M  V30 53343 H 951.137 -7.66548 2.79458 0
M  V30 53344 P 947.174 -8.03563 3.84925 0
M  V30 53345 O 946.954 -8.85821 5.0569 0
M  V30 53346 O 946.384 -8.41101 2.65469 0
M  V30 53347 O 946.924 -6.4965 4.18908 0
M  V30 53348 C 947.864 -5.81037 5.05421 0
M  V30 53349 C 947.134 -4.78366 5.89277 0
M  V30 53350 O 946.924 -3.58302 5.08433 0
M  V30 53351 C 945.734 -5.17448 6.36119 0
M  V30 53352 O 945.344 -4.45271 7.53232 0
M  V30 53353 C 944.854 -4.74639 5.19936 0
M  V30 53354 C 945.564 -3.49432 4.70418 0
M  V30 53355 N 945.514 -3.32099 3.22613 0
M  V30 53356 H 948.353 -6.54213 5.71376 0
M  V30 53357 H 948.625 -5.30936 4.43503 0
M  V30 53358 H 947.757 -4.55889 6.76652 0
M  V30 53359 H 945.102 -2.61715 5.17932 0
M  V30 53360 H 944.822 -5.52155 4.41878 0
M  V30 53361 H 943.831 -4.51981 5.53374 0
M  V30 53362 H 945.665 -6.25124 6.55234 0
M  V30 53363 P 943.794 -4.23843 7.83734 0
M  V30 53364 O 943.574 -4.19407 9.29784 0
M  V30 53365 O 943.004 -5.24426 7.09156 0
M  V30 53366 O 943.544 -2.7935 7.20758 0
M  V30 53367 C 944.484 -1.7299 7.50419 0
M  V30 53368 C 943.754 -0.406376 7.57911 0
M  V30 53369 O 943.544 0.0897726 6.21935 0
M  V30 53370 C 942.354 -0.447224 8.1878 0
M  V30 53371 O 941.964 0.825065 8.71101 0
M  V30 53372 C 941.474 -0.783801 6.99623 0
M  V30 53373 C 942.184 -0.0619192 5.85967 0
M  V30 53374 N 942.134 -0.7859 4.56281 0
M  V30 53375 H 944.973 -1.93423 8.4679 0
M  V30 53376 H 945.245 -1.68181 6.71046 0
M  V30 53377 H 944.377 0.289041 8.15388 0
M  V30 53378 P 940.414 1.17771 8.83182 0
M  V30 53379 O 940.194 2.07206 9.98732 0
M  V30 53380 O 939.624 -0.0743816 8.81969 0
M  V30 53381 O 940.164 1.97652 7.47304 0
M  V30 53382 C 941.104 3.01133 7.08783 0
M  V30 53383 C 940.374 4.12613 6.37049 0
M  V30 53384 O 940.164 3.72827 4.97879 0
M  V30 53385 C 938.974 4.45085 6.88694 0
M  V30 53386 O 938.584 5.7877 6.5624 0
M  V30 53387 C 938.094 3.47817 6.12078 0
M  V30 53388 C 938.804 3.39414 4.77697 0
M  V30 53389 N 938.754 2.04199 4.15538 0
M  V30 53390 H 941.593 3.41248 7.98759 0
M  V30 53391 H 941.865 2.57728 6.42 0
M  V30 53392 H 940.997 5.02657 6.42673 0
M  V30 53393 H 938.342 4.11708 4.08956 0
M  V30 53394 H 938.062 2.49626 6.61679 0
M  V30 53395 H 937.071 3.8662 6.00862 0
M  V30 53396 H 938.905 4.29991 7.97006 0
M  V30 53397 P 937.034 6.144 6.45285 0
M  V30 53398 O 936.814 7.54673 6.86199 0
M  V30 53399 O 936.244 5.12391 7.179 0
M  V30 53400 O 936.784 5.99158 4.88404 0
M  V30 53401 C 937.724 6.60234 3.96415 0
M  V30 53402 C 936.994 7.08259 2.72856 0
M  V30 53403 O 936.784 5.9427 1.83651 0
M  V30 53404 C 935.594 7.64886 2.9555 0
M  V30 53405 O 935.204 8.53963 1.90717 0
M  V30 53406 C 934.714 6.4116 2.90739 0
M  V30 53407 C 935.424 5.55375 1.86963 0
M  V30 53408 N 935.374 4.09448 2.16152 0
M  V30 53409 H 938.213 7.45574 4.45629 0
M  V30 53410 H 938.485 5.85864 3.679 0
M  V30 53411 H 937.617 7.84412 2.24479 0
M  V30 53412 H 934.962 5.73457 0.888562 0
M  V30 53413 H 934.682 5.90877 3.88583 0
M  V30 53414 H 933.691 6.6596 2.58858 0
M  V30 53415 H 935.525 8.16339 3.92049 0
M  V30 53416 P 933.655 8.7635 1.60911 0
M  V30 53417 O 933.435 10.1388 1.11561 0
M  V30 53418 O 932.865 8.36503 2.79617 0
M  V30 53419 O 933.405 7.71806 0.42951 0
M  V30 53420 C 934.345 7.67148 -0.673689 0
M  V30 53421 C 933.615 7.33374 -1.95559 0
M  V30 53422 O 933.405 5.88721 -2.00726 0
M  V30 53423 C 932.215 7.92526 -2.10483 0
M  V30 53424 O 931.825 8.02971 -3.47653 0
M  V30 53425 C 931.335 6.89602 -1.41652 0
M  V30 53426 C 932.045 5.59201 -1.75185 0
M  V30 53427 N 931.995 4.58301 -0.657969 0
M  V30 53428 H 934.834 8.65116 -0.777161 0
M  V30 53429 H 935.106 6.9022 -0.46725 0
M  V30 53430 H 934.238 7.66548 -2.79458 0
M  V30 53431 H 931.583 5.16165 -2.65183 0
M  V30 53432 H 931.303 7.06433 -0.329384 0
M  V30 53433 H 930.312 6.90926 -1.82021 0
M  V30 53434 H 932.146 8.90873 -1.62657 0
M  V30 53435 P 930.275 8.03563 -3.84925 0
M  V30 53436 O 930.055 8.85821 -5.0569 0
M  V30 53437 O 929.485 8.41101 -2.65469 0
M  V30 53438 O 930.025 6.4965 -4.18908 0
M  V30 53439 C 930.965 5.81037 -5.05421 0
M  V30 53440 C 930.235 4.78366 -5.89277 0
M  V30 53441 O 930.025 3.58302 -5.08433 0
M  V30 53442 C 928.835 5.17448 -6.36119 0
M  V30 53443 O 928.445 4.45271 -7.53232 0
M  V30 53444 C 927.955 4.74639 -5.19936 0
M  V30 53445 C 928.665 3.49432 -4.70418 0
M  V30 53446 N 928.615 3.31776 -3.22945 0
M  V30 53447 H 931.454 6.54213 -5.71376 0
M  V30 53448 H 931.726 5.30492 -4.44033 0
M  V30 53449 H 930.858 4.55889 -6.76652 0
M  V30 53450 P 926.895 4.23843 -7.83734 0
M  V30 53451 O 926.675 4.19407 -9.29784 0
M  V30 53452 O 926.105 5.24426 -7.09156 0
M  V30 53453 O 926.645 2.7935 -7.20758 0
M  V30 53454 C 927.585 1.7299 -7.50419 0
M  V30 53455 C 926.855 0.406376 -7.57911 0
M  V30 53456 O 926.645 -0.0897726 -6.21935 0
M  V30 53457 C 925.455 0.447224 -8.1878 0
M  V30 53458 O 925.065 -0.825065 -8.71101 0
M  V30 53459 C 924.575 0.783801 -6.99623 0
M  V30 53460 C 925.285 0.0619192 -5.85967 0
M  V30 53461 N 925.235 0.7859 -4.56281 0
M  V30 53462 C 925.315 2.14308 -4.31736 0
M  V30 53463 N 925.235 2.46106 -3.05116 0
M  V30 53464 C 925.095 1.23422 -2.4014 0
M  V30 53465 C 924.965 0.938381 -1.02409 0
M  V30 53466 N 924.845 -0.444647 -0.805413 0
M  V30 53467 C 924.845 -1.40829 -1.79435 0
M  V30 53468 N 924.715 -2.67213 -1.38558 0
M  V30 53469 N 924.975 -1.12947 -3.09005 0
M  V30 53470 C 925.095 0.204887 -3.32369 0
M  V30 53471 H 928.074 1.93423 -8.4679 0
M  V30 53472 H 928.346 1.68181 -6.71046 0
M  V30 53473 H 927.478 -0.289041 -8.15388 0
M  V30 53474 P 923.515 -1.17771 -8.83182 0
M  V30 53475 O 923.295 -2.07206 -9.98732 0
M  V30 53476 O 922.725 0.0743816 -8.81969 0
M  V30 53477 O 923.265 -1.97652 -7.47304 0
M  V30 53478 C 924.205 -3.01133 -7.08783 0
M  V30 53479 C 923.475 -4.12613 -6.37049 0
M  V30 53480 O 923.265 -3.72827 -4.97879 0
M  V30 53481 C 922.075 -4.45085 -6.88694 0
M  V30 53482 O 921.685 -5.7877 -6.5624 0
M  V30 53483 C 921.195 -3.47817 -6.12078 0
M  V30 53484 C 921.905 -3.39414 -4.77697 0
M  V30 53485 N 921.855 -2.04615 -4.15333 0
M  V30 53486 H 924.694 -3.41248 -7.98759 0
M  V30 53487 H 924.966 -2.5837 -6.41742 0
M  V30 53488 H 924.098 -5.02657 -6.42673 0
M  V30 53489 P 920.135 -6.144 -6.45285 0
M  V30 53490 O 919.915 -7.54673 -6.86199 0
M  V30 53491 O 919.345 -5.12391 -7.179 0
M  V30 53492 O 919.885 -5.99158 -4.88404 0
M  V30 53493 C 920.825 -6.60234 -3.96415 0
M  V30 53494 C 920.095 -7.08259 -2.72856 0
M  V30 53495 O 919.885 -5.9427 -1.83651 0
M  V30 53496 C 918.695 -7.64886 -2.9555 0
M  V30 53497 O 918.305 -8.53963 -1.90717 0
M  V30 53498 C 917.815 -6.4116 -2.90739 0
M  V30 53499 C 918.525 -5.55375 -1.86963 0
M  V30 53500 N 918.475 -4.09448 -2.16152 0
M  V30 53501 H 921.314 -7.45574 -4.45629 0
M  V30 53502 H 921.586 -5.85864 -3.679 0
M  V30 53503 H 920.718 -7.84412 -2.24479 0
M  V30 53504 H 918.063 -5.73457 -0.888562 0
M  V30 53505 H 917.783 -5.90877 -3.88583 0
M  V30 53506 H 916.792 -6.6596 -2.58858 0
M  V30 53507 H 918.626 -8.16339 -3.92049 0
M  V30 53508 P 916.755 -8.7635 -1.60911 0
M  V30 53509 O 916.535 -10.1388 -1.11561 0
M  V30 53510 O 915.965 -8.36503 -2.79617 0
M  V30 53511 O 916.505 -7.71806 -0.42951 0
M  V30 53512 C 917.445 -7.67148 0.673689 0
M  V30 53513 C 916.715 -7.33374 1.95559 0
M  V30 53514 O 916.505 -5.88721 2.00726 0
M  V30 53515 C 915.315 -7.92526 2.10483 0
M  V30 53516 O 914.925 -8.02971 3.47653 0
M  V30 53517 C 914.435 -6.89602 1.41652 0
M  V30 53518 C 915.145 -5.59201 1.75185 0
M  V30 53519 N 915.095 -4.58235 0.662552 0
M  V30 53520 H 917.934 -8.65116 0.777161 0
M  V30 53521 H 918.206 -6.90173 0.474152 0
M  V30 53522 H 917.338 -7.66548 2.79458 0
M  V30 53523 P 913.375 -8.03563 3.84925 0
M  V30 53524 O 913.155 -8.85821 5.0569 0
M  V30 53525 O 912.585 -8.41101 2.65469 0
M  V30 53526 O 913.125 -6.4965 4.18908 0
M  V30 53527 C 914.065 -5.81037 5.05421 0
M  V30 53528 C 913.335 -4.78366 5.89277 0
M  V30 53529 O 913.125 -3.58302 5.08433 0
M  V30 53530 C 911.935 -5.17448 6.36119 0
M  V30 53531 O 911.545 -4.45271 7.53232 0
M  V30 53532 C 911.055 -4.74639 5.19936 0
M  V30 53533 C 911.765 -3.49432 4.70418 0
M  V30 53534 N 911.715 -3.31776 3.22945 0
M  V30 53535 C 911.795 -4.27147 2.23315 0
M  V30 53536 N 911.715 -3.78447 1.02186 0
M  V30 53537 C 911.575 -2.41001 1.21732 0
M  V30 53538 C 911.445 -1.36111 0.27694 0
M  V30 53539 N 911.325 -0.113683 0.912949 0
M  V30 53540 C 911.325 0.0846396 2.27943 0
M  V30 53541 N 911.195 1.34737 2.6916 0
M  V30 53542 N 911.455 -0.902521 3.16379 0
M  V30 53543 C 911.575 -2.11937 2.56849 0
M  V30 53544 H 914.554 -6.54213 5.71376 0
M  V30 53545 H 914.826 -5.30492 4.44033 0
M  V30 53546 H 913.958 -4.55889 6.76652 0
M  V30 53547 P 909.995 -4.23843 7.83734 0
M  V30 53548 O 909.775 -4.19407 9.29784 0
M  V30 53549 O 909.205 -5.24426 7.09156 0
M  V30 53550 O 909.745 -2.7935 7.20758 0
M  V30 53551 C 910.685 -1.7299 7.50419 0
M  V30 53552 C 909.955 -0.406376 7.57911 0
M  V30 53553 O 909.745 0.0897726 6.21935 0
M  V30 53554 C 908.555 -0.447224 8.1878 0
M  V30 53555 O 908.165 0.825065 8.71101 0
M  V30 53556 C 907.675 -0.783801 6.99623 0
M  V30 53557 C 908.385 -0.0619192 5.85967 0
M  V30 53558 N 908.335 -0.790462 4.56202 0
M  V30 53559 H 911.174 -1.93423 8.4679 0
M  V30 53560 H 911.446 -1.68852 6.70877 0
M  V30 53561 H 910.578 0.289041 8.15388 0
M  V30 53562 H 907.923 0.927006 5.72848 0
M  V30 53563 H 907.643 -1.86973 6.82036 0
M  V30 53564 H 906.652 -0.403953 7.13357 0
M  V30 53565 H 908.486 -1.20599 8.97534 0
M  V30 53566 P 906.615 1.17771 8.83182 0
M  V30 53567 O 906.395 2.07206 9.98732 0
M  V30 53568 O 905.825 -0.0743816 8.81969 0
M  V30 53569 O 906.365 1.97652 7.47304 0
M  V30 53570 C 907.305 3.01055 7.08599 0
M  V30 53571 C 906.575 4.12613 6.37049 0
M  V30 53572 O 906.365 3.72827 4.97879 0
M  V30 53573 C 905.175 4.45719 6.88164 0
M  V30 53574 O 904.785 5.7877 6.5624 0
M  V30 53575 C 904.295 3.47768 6.11991 0
M  V30 53576 C 905.005 3.39356 4.77615 0
M  V30 53577 N 904.955 2.04571 4.15244 0
M  V30 53578 C 904.805 1.98587 2.78314 0
M  V30 53579 O 904.715 2.98134 2.08835 0
M  V30 53580 N 904.765 0.714467 2.24925 0
M  V30 53581 C 904.855 -0.470001 2.94169 0
M  V30 53582 C 905.005 -0.312541 4.36783 0
M  V30 53583 C 905.055 0.914512 4.92583 0
M  V30 53584 H 907.796 3.41169 7.98575 0
M  V30 53585 H 908.065 2.58295 6.41556 0
M  V30 53586 H 907.198 5.02657 6.42673 0
M  V30 53587 H 904.543 4.11637 4.08885 0
M  V30 53588 H 904.264 2.49626 6.61679 0
M  V30 53589 H 903.272 3.86566 6.00778 0
M  V30 53590 H 905.106 4.29943 7.96918 0
M  V30 53591 H 905.177 1.00937 6.00374 0
M  V30 53592 P 903.235 6.144 6.45285 0
M  V30 53593 O 903.015 7.54673 6.86199 0
M  V30 53594 O 902.445 5.12391 7.179 0
M  V30 53595 O 902.985 5.99158 4.88404 0
M  V30 53596 C 903.925 6.60234 3.96415 0
M  V30 53597 C 903.195 7.08259 2.72856 0
M  V30 53598 O 902.985 5.9427 1.83651 0
M  V30 53599 C 901.795 7.64886 2.9555 0
M  V30 53600 O 901.405 8.53963 1.90717 0
M  V30 53601 C 900.915 6.4116 2.90739 0
M  V30 53602 C 901.625 5.55375 1.86963 0
M  V30 53603 N 901.575 4.09664 2.15742 0
M  V30 53604 H 904.414 7.45574 4.45629 0
M  V30 53605 H 904.686 5.86232 3.67314 0
M  V30 53606 H 903.818 7.84412 2.24479 0
M  V30 53607 P 899.855 8.7635 1.60911 0
M  V30 53608 O 899.635 10.1388 1.11561 0
M  V30 53609 O 899.065 8.36503 2.79617 0
M  V30 53610 O 899.605 7.71906 0.429565 0
M  V30 53611 C 900.545 7.67148 -0.673689 0
M  V30 53612 C 899.815 7.33666 -1.94851 0
M  V30 53613 O 899.605 5.88816 -2.00759 0
M  V30 53614 C 898.415 7.92526 -2.10483 0
M  V30 53615 O 898.025 8.03063 -3.47693 0
M  V30 53616 C 897.535 6.89602 -1.41652 0
M  V30 53617 C 898.245 5.59201 -1.75185 0
M  V30 53618 N 898.195 4.58235 -0.662552 0
M  V30 53619 C 898.045 3.24451 -1.01643 0
M  V30 53620 O 897.955 2.94958 -2.21722 0
M  V30 53621 N 897.995 2.30408 0.165238 0
M  V30 53622 C 898.095 2.66048 1.25118 0
M  V30 53623 N 898.045 1.70787 2.16813 0
M  V30 53624 C 898.245 4.02732 1.64413 0
M  V30 53625 C 898.295 4.9488 0.63991 0
M  V30 53626 H 901.035 8.65017 -0.777072 0
M  V30 53627 H 901.305 6.90173 -0.474152 0
M  V30 53628 H 900.438 7.66642 -2.79492 0
M  V30 53629 H 897.783 5.16254 -2.65229 0
M  V30 53630 H 897.503 7.06532 -0.329431 0
M  V30 53631 H 896.512 6.91023 -1.82047 0
M  V30 53632 H 898.346 8.90873 -1.62657 0
M  V30 53633 H 898.418 6.00104 0.892197 0
M  V30 53634 H 898.316 4.31733 2.69229 0
M  V30 53635 H 897.928 0.724835 1.8844 0
M  V30 53636 H 898.124 1.94716 3.16734 0
M  V30 53637 P 896.475 8.03563 -3.84925 0
M  V30 53638 O 896.255 8.85821 -5.0569 0
M  V30 53639 O 895.685 8.41101 -2.65469 0
M  V30 53640 O 896.225 6.4965 -4.18908 0
M  V30 53641 C 897.165 5.81037 -5.05421 0
M  V30 53642 C 896.435 4.78366 -5.89277 0
M  V30 53643 O 896.225 3.58302 -5.08433 0
M  V30 53644 C 895.035 5.17448 -6.36119 0
M  V30 53645 O 894.645 4.45271 -7.53232 0
M  V30 53646 C 894.155 4.74639 -5.19936 0
M  V30 53647 C 894.865 3.49432 -4.70418 0
M  V30 53648 N 894.815 3.32099 -3.22613 0
M  V30 53649 H 897.654 6.54213 -5.71376 0
M  V30 53650 H 897.926 5.30936 -4.43503 0
M  V30 53651 H 897.058 4.55889 -6.76652 0
M  V30 53652 H 894.403 2.61715 -5.17932 0
M  V30 53653 H 894.123 5.52155 -4.41878 0
M  V30 53654 H 893.132 4.51981 -5.53374 0
M  V30 53655 H 894.966 6.25124 -6.55234 0
M  V30 53656 P 893.095 4.23843 -7.83734 0
M  V30 53657 O 892.875 4.19407 -9.29784 0
M  V30 53658 O 892.305 5.24426 -7.09156 0
M  V30 53659 O 892.845 2.7935 -7.20758 0
M  V30 53660 C 893.785 1.7299 -7.50419 0
M  V30 53661 C 893.055 0.406376 -7.57911 0
M  V30 53662 O 892.845 -0.0897726 -6.21935 0
M  V30 53663 C 891.655 0.447224 -8.1878 0
M  V30 53664 O 891.265 -0.825065 -8.71101 0
M  V30 53665 C 890.775 0.783801 -6.99623 0
M  V30 53666 C 891.485 0.0619192 -5.85967 0
M  V30 53667 N 891.435 0.7859 -4.56281 0
M  V30 53668 H 894.274 1.93423 -8.4679 0
M  V30 53669 H 894.546 1.68181 -6.71046 0
M  V30 53670 H 893.678 -0.289041 -8.15388 0
M  V30 53671 P 889.715 -1.17771 -8.83182 0
M  V30 53672 O 889.495 -2.07206 -9.98732 0
M  V30 53673 O 888.925 0.0743816 -8.81969 0
M  V30 53674 O 889.465 -1.97652 -7.47304 0
M  V30 53675 C 890.405 -3.01133 -7.08783 0
M  V30 53676 C 889.675 -4.12613 -6.37049 0
M  V30 53677 O 889.465 -3.72827 -4.97879 0
M  V30 53678 C 888.275 -4.45085 -6.88694 0
M  V30 53679 O 887.885 -5.7877 -6.5624 0
M  V30 53680 C 887.395 -3.47817 -6.12078 0
M  V30 53681 C 888.105 -3.39414 -4.77697 0
M  V30 53682 N 888.055 -2.04615 -4.15333 0
M  V30 53683 H 890.894 -3.41248 -7.98759 0
M  V30 53684 H 891.166 -2.5837 -6.41742 0
M  V30 53685 H 890.298 -5.02657 -6.42673 0
M  V30 53686 P 886.335 -6.144 -6.45285 0
M  V30 53687 O 886.115 -7.54673 -6.86199 0
M  V30 53688 O 885.545 -5.12391 -7.179 0
M  V30 53689 O 886.085 -5.99158 -4.88404 0
M  V30 53690 C 887.025 -6.60234 -3.96415 0
M  V30 53691 C 886.295 -7.08259 -2.72856 0
M  V30 53692 O 886.085 -5.9427 -1.83651 0
M  V30 53693 C 884.895 -7.64886 -2.9555 0
M  V30 53694 O 884.505 -8.53963 -1.90717 0
M  V30 53695 C 884.015 -6.4116 -2.90739 0
M  V30 53696 C 884.725 -5.55375 -1.86963 0
M  V30 53697 N 884.675 -4.09664 -2.15742 0
M  V30 53698 H 887.514 -7.45574 -4.45629 0
M  V30 53699 H 887.786 -5.86232 -3.67314 0
M  V30 53700 H 886.918 -7.84412 -2.24479 0
M  V30 53701 P 882.955 -8.7635 -1.60911 0
M  V30 53702 O 882.735 -10.1388 -1.11561 0
M  V30 53703 O 882.165 -8.36503 -2.79617 0
M  V30 53704 O 882.705 -7.71806 -0.42951 0
M  V30 53705 C 883.645 -7.67148 0.673689 0
M  V30 53706 C 882.915 -7.33374 1.95559 0
M  V30 53707 O 882.705 -5.88721 2.00726 0
M  V30 53708 C 881.515 -7.92526 2.10483 0
M  V30 53709 O 881.125 -8.02971 3.47653 0
M  V30 53710 C 880.635 -6.89602 1.41652 0
M  V30 53711 C 881.345 -5.59201 1.75185 0
M  V30 53712 N 881.295 -4.58301 0.657969 0
M  V30 53713 H 884.134 -8.65116 0.777161 0
M  V30 53714 H 884.406 -6.9022 0.46725 0
M  V30 53715 H 883.538 -7.66548 2.79458 0
M  V30 53716 H 880.883 -5.16165 2.65183 0
M  V30 53717 H 880.603 -7.06433 0.329384 0
M  V30 53718 H 879.612 -6.90926 1.82021 0
M  V30 53719 H 881.446 -8.90873 1.62657 0
M  V30 53720 P 879.575 -8.03563 3.84925 0
M  V30 53721 O 879.355 -8.85821 5.0569 0
M  V30 53722 O 878.785 -8.41101 2.65469 0
M  V30 53723 O 879.325 -6.4965 4.18908 0
M  V30 53724 C 880.265 -5.81037 5.05421 0
M  V30 53725 C 879.535 -4.78366 5.89277 0
M  V30 53726 O 879.325 -3.58302 5.08433 0
M  V30 53727 C 878.135 -5.17448 6.36119 0
M  V30 53728 O 877.745 -4.45271 7.53232 0
M  V30 53729 C 877.255 -4.74639 5.19936 0
M  V30 53730 C 877.965 -3.49432 4.70418 0
M  V30 53731 N 877.915 -3.31776 3.22945 0
M  V30 53732 H 880.754 -6.54213 5.71376 0
M  V30 53733 H 881.026 -5.30492 4.44033 0
M  V30 53734 H 880.158 -4.55889 6.76652 0
M  V30 53735 P 876.195 -4.23843 7.83734 0
M  V30 53736 O 875.975 -4.19407 9.29784 0
M  V30 53737 O 875.405 -5.24426 7.09156 0
M  V30 53738 O 875.945 -2.79386 7.20852 0
M  V30 53739 C 876.885 -1.7299 7.50419 0
M  V30 53740 C 876.155 -0.41401 7.5797 0
M  V30 53741 O 875.945 0.089787 6.22035 0
M  V30 53742 C 874.755 -0.447224 8.1878 0
M  V30 53743 O 874.365 0.825159 8.71201 0
M  V30 53744 C 873.875 -0.783801 6.99623 0
M  V30 53745 C 874.585 -0.0619192 5.85967 0
M  V30 53746 N 874.535 -0.7859 4.56281 0
M  V30 53747 C 874.385 -0.0359258 3.39981 0
M  V30 53748 O 874.295 1.19723 3.49038 0
M  V30 53749 N 874.335 -0.869151 2.14025 0
M  V30 53750 C 874.435 -2.01207 2.14363 0
M  V30 53751 N 874.385 -2.58978 0.954287 0
M  V30 53752 C 874.585 -2.80817 3.32215 0
M  V30 53753 C 874.635 -2.13785 4.50884 0
M  V30 53754 H 877.375 -1.93401 8.46693 0
M  V30 53755 H 877.645 -1.68181 6.71046 0
M  V30 53756 H 876.778 0.289076 8.15488 0
M  V30 53757 H 874.123 0.927166 5.72947 0
M  V30 53758 H 873.843 -1.87 6.82132 0
M  V30 53759 H 872.852 -0.404009 7.13457 0
M  V30 53760 H 874.686 -1.20599 8.97534 0
M  V30 53761 H 874.758 -2.70295 5.43162 0
M  V30 53762 H 874.656 -3.89465 3.27406 0
M  V30 53763 H 874.268 -2.01616 0.107046 0
M  V30 53764 H 874.464 -3.61403 0.873101 0
M  V30 53765 P 872.815 1.17771 8.83182 0
M  V30 53766 O 872.595 2.07206 9.98732 0
M  V30 53767 O 872.025 -0.0743816 8.81969 0
M  V30 53768 O 872.565 1.97652 7.47304 0
M  V30 53769 C 873.505 3.01133 7.08783 0
M  V30 53770 C 872.775 4.12613 6.37049 0
M  V30 53771 O 872.565 3.72827 4.97879 0
M  V30 53772 C 871.375 4.45085 6.88694 0
M  V30 53773 O 870.985 5.7877 6.5624 0
M  V30 53774 C 870.495 3.47817 6.12078 0
M  V30 53775 C 871.205 3.39414 4.77697 0
M  V30 53776 N 871.155 2.04615 4.15333 0
M  V30 53777 H 873.994 3.41248 7.98759 0
M  V30 53778 H 874.266 2.5837 6.41742 0
M  V30 53779 H 873.398 5.02657 6.42673 0
M  V30 53780 P 869.435 6.144 6.45285 0
M  V30 53781 O 869.215 7.54673 6.86199 0
M  V30 53782 O 868.645 5.12391 7.179 0
M  V30 53783 O 869.185 5.99158 4.88404 0
M  V30 53784 C 870.125 6.60234 3.96415 0
M  V30 53785 C 869.395 7.08259 2.72856 0
M  V30 53786 O 869.185 5.9427 1.83651 0
M  V30 53787 C 867.995 7.64886 2.9555 0
M  V30 53788 O 867.605 8.53963 1.90717 0
M  V30 53789 C 867.115 6.4116 2.90739 0
M  V30 53790 C 867.825 5.55375 1.86963 0
M  V30 53791 N 867.775 4.09664 2.15742 0
M  V30 53792 H 870.614 7.45574 4.45629 0
M  V30 53793 H 870.886 5.86232 3.67314 0
M  V30 53794 H 870.018 7.84412 2.24479 0
M  V30 53795 P 866.055 8.7635 1.60911 0
M  V30 53796 O 865.835 10.1388 1.11561 0
M  V30 53797 O 865.265 8.36503 2.79617 0
M  V30 53798 O 865.805 7.71806 0.42951 0
M  V30 53799 C 866.745 7.67148 -0.673689 0
M  V30 53800 C 866.015 7.33374 -1.95559 0
M  V30 53801 O 865.805 5.88721 -2.00726 0
M  V30 53802 C 864.615 7.92526 -2.10483 0
M  V30 53803 O 864.225 8.02971 -3.47653 0
M  V30 53804 C 863.735 6.89602 -1.41652 0
M  V30 53805 C 864.445 5.59201 -1.75185 0
M  V30 53806 N 864.395 4.58235 -0.662552 0
M  V30 53807 H 867.234 8.65116 -0.777161 0
M  V30 53808 H 867.506 6.90173 -0.474152 0
M  V30 53809 H 866.638 7.66548 -2.79458 0
M  V30 53810 P 862.675 8.03563 -3.84925 0
M  V30 53811 O 862.455 8.85821 -5.0569 0
M  V30 53812 O 861.885 8.41101 -2.65469 0
M  V30 53813 O 862.425 6.4965 -4.18908 0
M  V30 53814 C 863.365 5.81037 -5.05421 0
M  V30 53815 C 862.635 4.78366 -5.89277 0
M  V30 53816 O 862.425 3.58302 -5.08433 0
M  V30 53817 C 861.235 5.17448 -6.36119 0
M  V30 53818 O 860.845 4.45271 -7.53232 0
M  V30 53819 C 860.355 4.74639 -5.19936 0
M  V30 53820 C 861.065 3.49432 -4.70418 0
M  V30 53821 N 861.015 3.31776 -3.22945 0
M  V30 53822 H 863.854 6.54213 -5.71376 0
M  V30 53823 H 864.126 5.30492 -4.44033 0
M  V30 53824 H 863.258 4.55889 -6.76652 0
M  V30 53825 P 859.295 4.23843 -7.83734 0
M  V30 53826 O 859.075 4.19407 -9.29784 0
M  V30 53827 O 858.505 5.24426 -7.09156 0
M  V30 53828 O 859.045 2.7935 -7.20758 0
M  V30 53829 C 859.985 1.7299 -7.50419 0
M  V30 53830 C 859.255 0.406376 -7.57911 0
M  V30 53831 O 859.045 -0.0897726 -6.21935 0
M  V30 53832 C 857.855 0.447224 -8.1878 0
M  V30 53833 O 857.465 -0.825065 -8.71101 0
M  V30 53834 C 856.975 0.783801 -6.99623 0
M  V30 53835 C 857.685 0.0619192 -5.85967 0
M  V30 53836 N 857.635 0.790462 -4.56202 0
M  V30 53837 H 860.474 1.93423 -8.4679 0
M  V30 53838 H 860.746 1.68852 -6.70877 0
M  V30 53839 H 859.878 -0.289041 -8.15388 0
M  V30 53840 H 857.223 -0.927006 -5.72848 0
M  V30 53841 H 856.943 1.86973 -6.82036 0
M  V30 53842 H 855.952 0.403953 -7.13357 0
M  V30 53843 H 857.786 1.20599 -8.97534 0
M  V30 53844 P 855.915 -1.17771 -8.83182 0
M  V30 53845 O 855.695 -2.07206 -9.98732 0
M  V30 53846 O 855.125 0.0743816 -8.81969 0
M  V30 53847 O 855.665 -1.97652 -7.47304 0
M  V30 53848 C 856.605 -3.01133 -7.08783 0
M  V30 53849 C 855.875 -4.12613 -6.37049 0
M  V30 53850 O 855.665 -3.72827 -4.97879 0
M  V30 53851 C 854.475 -4.45085 -6.88694 0
M  V30 53852 O 854.085 -5.7877 -6.5624 0
M  V30 53853 C 853.595 -3.47817 -6.12078 0
M  V30 53854 C 854.305 -3.39414 -4.77697 0
M  V30 53855 N 854.255 -2.04615 -4.15333 0
M  V30 53856 H 857.094 -3.41248 -7.98759 0
M  V30 53857 H 857.366 -2.5837 -6.41742 0
M  V30 53858 H 856.498 -5.02657 -6.42673 0
M  V30 53859 P 852.535 -6.144 -6.45285 0
M  V30 53860 O 852.315 -7.54673 -6.86199 0
M  V30 53861 O 851.745 -5.12391 -7.179 0
M  V30 53862 O 852.285 -5.99158 -4.88404 0
M  V30 53863 C 853.225 -6.60234 -3.96415 0
M  V30 53864 C 852.495 -7.08259 -2.72856 0
M  V30 53865 O 852.285 -5.9427 -1.83651 0
M  V30 53866 C 851.095 -7.64886 -2.9555 0
M  V30 53867 O 850.705 -8.53963 -1.90717 0
M  V30 53868 C 850.215 -6.4116 -2.90739 0
M  V30 53869 C 850.925 -5.55375 -1.86963 0
M  V30 53870 N 850.875 -4.09448 -2.16152 0
M  V30 53871 H 853.714 -7.45574 -4.45629 0
M  V30 53872 H 853.986 -5.85864 -3.679 0
M  V30 53873 H 853.118 -7.84412 -2.24479 0
M  V30 53874 H 850.463 -5.73457 -0.888562 0
M  V30 53875 H 850.183 -5.90877 -3.88583 0
M  V30 53876 H 849.192 -6.6596 -2.58858 0
M  V30 53877 H 851.026 -8.16339 -3.92049 0
M  V30 53878 P 849.155 -8.7635 -1.60911 0
M  V30 53879 O 848.935 -10.1388 -1.11561 0
M  V30 53880 O 848.365 -8.36503 -2.79617 0
M  V30 53881 O 848.905 -7.71806 -0.42951 0
M  V30 53882 C 849.845 -7.67148 0.673689 0
M  V30 53883 C 849.115 -7.33374 1.95559 0
M  V30 53884 O 848.905 -5.88721 2.00726 0
M  V30 53885 C 847.715 -7.92526 2.10483 0
M  V30 53886 O 847.325 -8.02971 3.47653 0
M  V30 53887 C 846.835 -6.89602 1.41652 0
M  V30 53888 C 847.545 -5.59201 1.75185 0
M  V30 53889 N 847.495 -4.58301 0.657969 0
M  V30 53890 H 850.334 -8.65116 0.777161 0
M  V30 53891 H 850.606 -6.9022 0.46725 0
M  V30 53892 H 849.738 -7.66548 2.79458 0
M  V30 53893 H 847.083 -5.16165 2.65183 0
M  V30 53894 H 846.803 -7.06433 0.329384 0
M  V30 53895 H 845.812 -6.90926 1.82021 0
M  V30 53896 H 847.646 -8.90873 1.62657 0
M  V30 53897 P 845.775 -8.03563 3.84925 0
M  V30 53898 O 845.555 -8.85821 5.0569 0
M  V30 53899 O 844.985 -8.41101 2.65469 0
M  V30 53900 O 845.525 -6.4965 4.18908 0
M  V30 53901 C 846.465 -5.81037 5.05421 0
M  V30 53902 C 845.735 -4.78366 5.89277 0
M  V30 53903 O 845.525 -3.58302 5.08433 0
M  V30 53904 C 844.335 -5.17448 6.36119 0
M  V30 53905 O 843.945 -4.45271 7.53232 0
M  V30 53906 C 843.455 -4.74639 5.19936 0
M  V30 53907 C 844.165 -3.49432 4.70418 0
M  V30 53908 N 844.115 -3.32099 3.22613 0
M  V30 53909 C 844.195 -4.28245 2.25527 0
M  V30 53910 N 844.125 -3.80823 1.04874 0
M  V30 53911 C 843.975 -2.44571 1.23535 0
M  V30 53912 C 843.845 -1.37068 0.330675 0
M  V30 53913 N 843.835 -1.51472 -0.990824 0
M  V30 53914 N 843.725 -0.138614 0.848756 0
M  V30 53915 C 843.735 0.00675923 2.16999 0
M  V30 53916 N 843.855 -0.904372 3.11122 0
M  V30 53917 C 843.975 -2.12707 2.56212 0
M  V30 53918 H 846.954 -6.54213 5.71376 0
M  V30 53919 H 847.226 -5.30936 4.43503 0
M  V30 53920 H 846.358 -4.55889 6.76652 0
M  V30 53921 H 843.703 -2.61715 5.17932 0
M  V30 53922 H 843.423 -5.52155 4.41878 0
M  V30 53923 H 842.432 -4.51981 5.53374 0
M  V30 53924 H 844.266 -6.25124 6.55234 0
M  V30 53925 H 844.307 -5.34372 2.47488 0
M  V30 53926 H 843.926 -2.45153 -1.4078 0
M  V30 53927 H 843.737 -0.688422 -1.59911 0
M  V30 53928 H 843.629 1.02584 2.52346 0
M  V30 53929 P 842.395 -4.23843 7.83734 0
M  V30 53930 O 842.175 -4.19407 9.29784 0
M  V30 53931 O 841.605 -5.24426 7.09156 0
M  V30 53932 O 842.145 -2.7935 7.20758 0
M  V30 53933 C 843.085 -1.7299 7.50419 0
M  V30 53934 C 842.355 -0.406376 7.57911 0
M  V30 53935 O 842.145 0.0897726 6.21935 0
M  V30 53936 C 840.955 -0.447224 8.1878 0
M  V30 53937 O 840.565 0.825065 8.71101 0
M  V30 53938 C 840.075 -0.783801 6.99623 0
M  V30 53939 C 840.785 -0.0619192 5.85967 0
M  V30 53940 N 840.735 -0.790462 4.56202 0
M  V30 53941 H 843.574 -1.93423 8.4679 0
M  V30 53942 H 843.846 -1.68852 6.70877 0
M  V30 53943 H 842.978 0.289041 8.15388 0
M  V30 53944 H 840.323 0.927006 5.72848 0
M  V30 53945 H 840.043 -1.86973 6.82036 0
M  V30 53946 H 839.052 -0.403953 7.13357 0
M  V30 53947 H 840.886 -1.20599 8.97534 0
M  V30 53948 P 839.015 1.17771 8.83182 0
M  V30 53949 O 838.795 2.07206 9.98732 0
M  V30 53950 O 838.225 -0.0743816 8.81969 0
M  V30 53951 O 838.765 1.97678 7.474 0
M  V30 53952 C 839.705 3.01133 7.08783 0
M  V30 53953 C 838.975 4.1203 6.37546 0
M  V30 53954 O 838.765 3.72887 4.9796 0
M  V30 53955 C 837.575 4.45085 6.88694 0
M  V30 53956 O 837.185 5.78836 6.56315 0
M  V30 53957 C 836.695 3.47817 6.12078 0
M  V30 53958 C 837.405 3.39414 4.77697 0
M  V30 53959 N 837.355 2.04615 4.15333 0
M  V30 53960 C 837.205 1.96929 2.77162 0
M  V30 53961 O 837.115 3.02017 2.12006 0
M  V30 53962 N 837.155 0.55485 2.24237 0
M  V30 53963 C 837.255 -0.367808 2.9169 0
M  V30 53964 N 837.205 -1.53426 2.29427 0
M  V30 53965 C 837.405 -0.319148 4.33828 0
M  V30 53966 C 837.455 0.920672 4.90433 0
M  V30 53967 H 840.195 3.41209 7.98667 0
M  V30 53968 H 840.465 2.5837 6.41742 0
M  V30 53969 H 839.598 5.02718 6.42752 0
M  V30 53970 H 836.943 4.11779 4.09026 0
M  V30 53971 H 836.663 2.49661 6.61772 0
M  V30 53972 H 835.672 3.86674 6.00946 0
M  V30 53973 H 837.506 4.29991 7.97006 0
M  V30 53974 H 837.578 1.00589 5.98303 0
M  V30 53975 H 837.476 -1.22639 4.93799 0
M  V30 53976 H 837.088 -1.56819 1.27167 0
M  V30 53977 H 837.284 -2.41062 2.83063 0
M  V30 53978 P 835.635 6.144 6.45285 0
M  V30 53979 O 835.415 7.54673 6.86199 0
M  V30 53980 O 834.845 5.12391 7.179 0
M  V30 53981 O 835.385 5.99158 4.88404 0
M  V30 53982 C 836.325 6.60062 3.96313 0
M  V30 53983 C 835.595 7.08259 2.72856 0
M  V30 53984 O 835.385 5.9427 1.83651 0
M  V30 53985 C 834.195 7.65087 2.94749 0
M  V30 53986 O 833.805 8.53963 1.90717 0
M  V30 53987 C 833.315 6.41069 2.90698 0
M  V30 53988 C 834.025 5.5528 1.86931 0
M  V30 53989 N 833.975 4.09575 2.15696 0
M  V30 53990 C 833.825 3.24249 1.08435 0
M  V30 53991 O 833.735 3.63946 -0.0628747 0
M  V30 53992 N 833.785 1.90009 1.39973 0
M  V30 53993 C 833.875 1.34884 2.65614 0
M  V30 53994 O 833.825 0.123716 2.81728 0
M  V30 53995 C 834.025 2.3145 3.71736 0
M  V30 53996 C 834.135 1.75913 5.10438 0
M  V30 53997 C 834.075 3.63518 3.44754 0
M  V30 53998 H 836.816 7.45402 4.45526 0
M  V30 53999 H 837.085 5.86062 3.67208 0
M  V30 54000 H 836.218 7.84412 2.24479 0
M  V30 54001 H 833.563 5.73358 0.888409 0
M  V30 54002 H 833.284 5.90877 3.88583 0
M  V30 54003 H 832.292 6.65867 2.58821 0
M  V30 54004 H 834.126 8.16248 3.92006 0
M  V30 54005 H 834.197 4.34551 4.26383 0
M  V30 54006 H 833.167 1.85471 5.61775 0
M  V30 54007 H 834.904 2.31364 5.66257 0
M  V30 54008 H 834.416 0.695936 5.05229 0
M  V30 54009 H 833.68 1.26277 0.63625 0
M  V30 54010 P 832.255 8.7635 1.60911 0
M  V30 54011 O 832.035 10.1388 1.11561 0
M  V30 54012 O 831.465 8.36503 2.79617 0
M  V30 54013 O 832.005 7.71806 0.42951 0
M  V30 54014 C 832.945 7.67148 -0.673689 0
M  V30 54015 C 832.215 7.33374 -1.95559 0
M  V30 54016 O 832.005 5.88721 -2.00726 0
M  V30 54017 C 830.815 7.92526 -2.10483 0
M  V30 54018 O 830.425 8.02971 -3.47653 0
M  V30 54019 C 829.935 6.89602 -1.41652 0
M  V30 54020 C 830.645 5.59201 -1.75185 0
M  V30 54021 N 830.595 4.58235 -0.662552 0
M  V30 54022 H 833.434 8.65116 -0.777161 0
M  V30 54023 H 833.706 6.90173 -0.474152 0
M  V30 54024 H 832.838 7.66548 -2.79458 0
M  V30 54025 P 828.875 8.03563 -3.84925 0
M  V30 54026 O 828.655 8.85821 -5.0569 0
M  V30 54027 O 828.085 8.41101 -2.65469 0
M  V30 54028 O 828.625 6.4965 -4.18908 0
M  V30 54029 C 829.565 5.81037 -5.05421 0
M  V30 54030 C 828.835 4.78366 -5.89277 0
M  V30 54031 O 828.625 3.58302 -5.08433 0
M  V30 54032 C 827.435 5.17448 -6.36119 0
M  V30 54033 O 827.045 4.45271 -7.53232 0
M  V30 54034 C 826.555 4.74639 -5.19936 0
M  V30 54035 C 827.265 3.49432 -4.70418 0
M  V30 54036 N 827.215 3.32099 -3.22613 0
M  V30 54037 H 830.054 6.54213 -5.71376 0
M  V30 54038 H 830.326 5.30936 -4.43503 0
M  V30 54039 H 829.458 4.55889 -6.76652 0
M  V30 54040 H 826.803 2.61715 -5.17932 0
M  V30 54041 H 826.523 5.52155 -4.41878 0
M  V30 54042 H 825.532 4.51981 -5.53374 0
M  V30 54043 H 827.366 6.25124 -6.55234 0
M  V30 54044 P 825.495 4.23843 -7.83734 0
M  V30 54045 O 825.275 4.19407 -9.29784 0
M  V30 54046 O 824.705 5.24426 -7.09156 0
M  V30 54047 O 825.245 2.7935 -7.20758 0
M  V30 54048 C 826.185 1.7299 -7.50419 0
M  V30 54049 C 825.455 0.406376 -7.57911 0
M  V30 54050 O 825.245 -0.0897726 -6.21935 0
M  V30 54051 C 824.055 0.447224 -8.1878 0
M  V30 54052 O 823.665 -0.825065 -8.71101 0
M  V30 54053 C 823.175 0.783801 -6.99623 0
M  V30 54054 C 823.885 0.0619192 -5.85967 0
M  V30 54055 N 823.835 0.7859 -4.56281 0
M  V30 54056 C 823.915 2.14308 -4.31736 0
M  V30 54057 N 823.835 2.46106 -3.05116 0
M  V30 54058 C 823.695 1.23422 -2.4014 0
M  V30 54059 C 823.565 0.938381 -1.02409 0
M  V30 54060 N 823.445 -0.444647 -0.805413 0
M  V30 54061 C 823.445 -1.40829 -1.79435 0
M  V30 54062 N 823.315 -2.67213 -1.38558 0
M  V30 54063 N 823.575 -1.12947 -3.09005 0
M  V30 54064 C 823.695 0.204887 -3.32369 0
M  V30 54065 H 826.674 1.93423 -8.4679 0
M  V30 54066 H 826.946 1.68181 -6.71046 0
M  V30 54067 H 826.078 -0.289041 -8.15388 0
M  V30 54068 P 822.115 -1.17771 -8.83182 0
M  V30 54069 O 821.895 -2.07206 -9.98732 0
M  V30 54070 O 821.325 0.0743816 -8.81969 0
M  V30 54071 O 821.865 -1.97652 -7.47304 0
M  V30 54072 C 822.805 -3.01055 -7.08599 0
M  V30 54073 C 822.075 -4.12613 -6.37049 0
M  V30 54074 O 821.865 -3.72827 -4.97879 0
M  V30 54075 C 820.675 -4.45719 -6.88164 0
M  V30 54076 O 820.285 -5.7877 -6.5624 0
M  V30 54077 C 819.795 -3.47768 -6.11991 0
M  V30 54078 C 820.505 -3.39356 -4.77615 0
M  V30 54079 N 820.455 -2.04571 -4.15244 0
M  V30 54080 C 820.305 -1.98587 -2.78314 0
M  V30 54081 O 820.215 -2.98134 -2.08835 0
M  V30 54082 N 820.265 -0.714467 -2.24925 0
M  V30 54083 C 820.355 0.470001 -2.94169 0
M  V30 54084 O 820.305 1.55587 -2.35195 0
M  V30 54085 C 820.505 0.312541 -4.36783 0
M  V30 54086 C 820.615 1.57711 -5.16352 0
M  V30 54087 C 820.555 -0.914512 -4.92583 0
M  V30 54088 H 823.296 -3.41169 -7.98575 0
M  V30 54089 H 823.565 -2.58295 -6.41556 0
M  V30 54090 H 822.698 -5.02657 -6.42673 0
M  V30 54091 H 820.043 -4.11637 -4.08885 0
M  V30 54092 H 819.764 -2.49626 -6.61679 0
M  V30 54093 H 818.772 -3.86566 -6.00778 0
M  V30 54094 H 820.606 -4.29943 -7.96918 0
M  V30 54095 H 820.677 -1.00937 -6.00374 0
M  V30 54096 H 819.647 1.80153 -5.63503 0
M  V30 54097 H 821.384 1.4566 -5.94104 0
M  V30 54098 H 820.896 2.40664 -4.49645 0
M  V30 54099 H 820.16 -0.647622 -1.25697 0
M  V30 54100 P 818.735 -6.144 -6.45285 0
M  V30 54101 O 818.515 -7.54673 -6.86199 0
M  V30 54102 O 817.945 -5.12391 -7.179 0
M  V30 54103 O 818.485 -5.99158 -4.88404 0
M  V30 54104 C 819.425 -6.60062 -3.96313 0
M  V30 54105 C 818.695 -7.08259 -2.72856 0
M  V30 54106 O 818.485 -5.9427 -1.83651 0
M  V30 54107 C 817.295 -7.65087 -2.94749 0
M  V30 54108 O 816.905 -8.53963 -1.90717 0
M  V30 54109 C 816.415 -6.41069 -2.90698 0
M  V30 54110 C 817.125 -5.5528 -1.86931 0
M  V30 54111 N 817.075 -4.09575 -2.15696 0
M  V30 54112 C 816.925 -3.24249 -1.08435 0
M  V30 54113 O 816.835 -3.63946 0.0628747 0
M  V30 54114 N 816.885 -1.90009 -1.39973 0
M  V30 54115 C 816.975 -1.34884 -2.65614 0
M  V30 54116 C 817.125 -2.3145 -3.71736 0
M  V30 54117 C 817.175 -3.63518 -3.44754 0
M  V30 54118 H 819.916 -7.45402 -4.45526 0
M  V30 54119 H 820.185 -5.86062 -3.67208 0
M  V30 54120 H 819.318 -7.84412 -2.24479 0
M  V30 54121 H 816.663 -5.73358 -0.888409 0
M  V30 54122 H 816.384 -5.90877 -3.88583 0
M  V30 54123 H 815.392 -6.65867 -2.58821 0
M  V30 54124 H 817.226 -8.16248 -3.92006 0
M  V30 54125 H 817.297 -4.34551 -4.26383 0
M  V30 54126 P 815.355 -8.7635 -1.60911 0
M  V30 54127 O 815.135 -10.1388 -1.11561 0
M  V30 54128 O 814.565 -8.36503 -2.79617 0
M  V30 54129 O 815.105 -7.71806 -0.42951 0
M  V30 54130 C 816.045 -7.66948 0.673514 0
M  V30 54131 C 815.315 -7.33374 1.95559 0
M  V30 54132 O 815.105 -5.88721 2.00726 0
M  V30 54133 C 813.915 -7.92218 2.1125 0
M  V30 54134 O 813.525 -8.02971 3.47653 0
M  V30 54135 C 813.035 -6.89504 1.41631 0
M  V30 54136 C 813.745 -5.59106 1.75155 0
M  V30 54137 N 813.695 -4.58136 0.662409 0
M  V30 54138 C 813.545 -3.26059 1.02863 0
M  V30 54139 O 813.455 -2.90743 2.19009 0
M  V30 54140 N 813.505 -2.35995 -0.0155585 0
M  V30 54141 C 813.595 -2.65248 -1.35603 0
M  V30 54142 C 813.745 -4.05747 -1.64698 0
M  V30 54143 C 813.795 -4.96734 -0.652411 0
M  V30 54144 H 816.536 -8.64917 0.776982 0
M  V30 54145 H 816.805 -6.89974 0.474015 0
M  V30 54146 H 815.938 -7.66548 2.79458 0
M  V30 54147 H 813.283 -5.16076 2.65138 0
M  V30 54148 H 813.004 -7.06433 0.329384 0
M  V30 54149 H 812.012 -6.90829 1.81996 0
M  V30 54150 H 813.846 -8.90774 1.62639 0
M  V30 54151 H 813.917 -6.02181 -0.895285 0
M  V30 54152 P 811.975 -8.03563 3.84925 0
M  V30 54153 O 811.755 -8.85821 5.0569 0
M  V30 54154 O 811.185 -8.41101 2.65469 0
M  V30 54155 O 811.725 -6.4965 4.18908 0
M  V30 54156 C 812.665 -5.81037 5.05421 0
M  V30 54157 C 811.935 -4.78366 5.89277 0
M  V30 54158 O 811.725 -3.58302 5.08433 0
M  V30 54159 C 810.535 -5.17448 6.36119 0
M  V30 54160 O 810.145 -4.45271 7.53232 0
M  V30 54161 C 809.655 -4.74639 5.19936 0
M  V30 54162 C 810.365 -3.49432 4.70418 0
M  V30 54163 N 810.315 -3.31776 3.22945 0
M  V30 54164 H 813.154 -6.54213 5.71376 0
M  V30 54165 H 813.426 -5.30492 4.44033 0
M  V30 54166 H 812.558 -4.55889 6.76652 0
M  V30 54167 P 808.595 -4.23843 7.83734 0
M  V30 54168 O 808.375 -4.19407 9.29784 0
M  V30 54169 O 807.805 -5.24426 7.09156 0
M  V30 54170 O 808.345 -2.7935 7.20758 0
M  V30 54171 C 809.285 -1.7299 7.50419 0
M  V30 54172 C 808.555 -0.406376 7.57911 0
M  V30 54173 O 808.345 0.0897726 6.21935 0
M  V30 54174 C 807.155 -0.447224 8.1878 0
M  V30 54175 O 806.765 0.825065 8.71101 0
M  V30 54176 C 806.275 -0.783801 6.99623 0
M  V30 54177 C 806.985 -0.0619192 5.85967 0
M  V30 54178 N 806.935 -0.7859 4.56281 0
M  V30 54179 H 809.774 -1.93423 8.4679 0
M  V30 54180 H 810.046 -1.68181 6.71046 0
M  V30 54181 H 809.178 0.289041 8.15388 0
M  V30 54182 P 805.215 1.17771 8.83182 0
M  V30 54183 O 804.995 2.07206 9.98732 0
M  V30 54184 O 804.425 -0.0743816 8.81969 0
M  V30 54185 O 804.965 1.97652 7.47304 0
M  V30 54186 C 805.905 3.01133 7.08783 0
M  V30 54187 C 805.175 4.12613 6.37049 0
M  V30 54188 O 804.965 3.72827 4.97879 0
M  V30 54189 C 803.775 4.45085 6.88694 0
M  V30 54190 O 803.385 5.7877 6.5624 0
M  V30 54191 C 802.895 3.47817 6.12078 0
M  V30 54192 C 803.605 3.39414 4.77697 0
M  V30 54193 N 803.555 2.04615 4.15333 0
M  V30 54194 H 806.394 3.41248 7.98759 0
M  V30 54195 H 806.666 2.5837 6.41742 0
M  V30 54196 H 805.798 5.02657 6.42673 0
M  V30 54197 P 801.835 6.144 6.45285 0
M  V30 54198 O 801.615 7.54673 6.86199 0
M  V30 54199 O 801.045 5.12391 7.179 0
M  V30 54200 O 801.585 5.99158 4.88404 0
M  V30 54201 C 802.525 6.60062 3.96313 0
M  V30 54202 C 801.795 7.08259 2.72856 0
M  V30 54203 O 801.585 5.9427 1.83651 0
M  V30 54204 C 800.395 7.65087 2.94749 0
M  V30 54205 O 800.005 8.53963 1.90717 0
M  V30 54206 C 799.515 6.41069 2.90698 0
M  V30 54207 C 800.225 5.5528 1.86931 0
M  V30 54208 N 800.175 4.09575 2.15696 0
M  V30 54209 C 800.025 3.24249 1.08435 0
M  V30 54210 O 799.935 3.63946 -0.0628747 0
M  V30 54211 N 799.985 1.90009 1.39973 0
M  V30 54212 C 800.075 1.34884 2.65614 0
M  V30 54213 O 800.025 0.123716 2.81728 0
M  V30 54214 C 800.225 2.3145 3.71736 0
M  V30 54215 C 800.335 1.75913 5.10438 0
M  V30 54216 C 800.275 3.63518 3.44754 0
M  V30 54217 H 803.016 7.45402 4.45526 0
M  V30 54218 H 803.285 5.86062 3.67208 0
M  V30 54219 H 802.418 7.84412 2.24479 0
M  V30 54220 H 799.763 5.73358 0.888409 0
M  V30 54221 H 799.484 5.90877 3.88583 0
M  V30 54222 H 798.492 6.65867 2.58821 0
M  V30 54223 H 800.326 8.16248 3.92006 0
M  V30 54224 H 800.397 4.34551 4.26383 0
M  V30 54225 H 799.367 1.85471 5.61775 0
M  V30 54226 H 801.104 2.31364 5.66257 0
M  V30 54227 H 800.616 0.695936 5.05229 0
M  V30 54228 H 799.88 1.26277 0.63625 0
M  V30 54229 P 798.455 8.7635 1.60911 0
M  V30 54230 O 798.235 10.1388 1.11561 0
M  V30 54231 O 797.665 8.36503 2.79617 0
M  V30 54232 O 798.205 7.71806 0.42951 0
M  V30 54233 C 799.145 7.67148 -0.673689 0
M  V30 54234 C 798.415 7.33374 -1.95559 0
M  V30 54235 O 798.205 5.88721 -2.00726 0
M  V30 54236 C 797.015 7.92526 -2.10483 0
M  V30 54237 O 796.625 8.02971 -3.47653 0
M  V30 54238 C 796.135 6.89602 -1.41652 0
M  V30 54239 C 796.845 5.59201 -1.75185 0
M  V30 54240 N 796.795 4.58235 -0.662552 0
M  V30 54241 H 799.634 8.65116 -0.777161 0
M  V30 54242 H 799.906 6.90173 -0.474152 0
M  V30 54243 H 799.038 7.66548 -2.79458 0
M  V30 54244 P 795.075 8.03563 -3.84925 0
M  V30 54245 O 794.855 8.85821 -5.0569 0
M  V30 54246 O 794.285 8.41101 -2.65469 0
M  V30 54247 O 794.825 6.4965 -4.18908 0
M  V30 54248 C 795.765 5.81037 -5.05421 0
M  V30 54249 C 795.035 4.78366 -5.89277 0
M  V30 54250 O 794.825 3.58302 -5.08433 0
M  V30 54251 C 793.635 5.17448 -6.36119 0
M  V30 54252 O 793.245 4.45271 -7.53232 0
M  V30 54253 C 792.755 4.74639 -5.19936 0
M  V30 54254 C 793.465 3.49432 -4.70418 0
M  V30 54255 N 793.415 3.31776 -3.22945 0
M  V30 54256 H 796.254 6.54213 -5.71376 0
M  V30 54257 H 796.526 5.30492 -4.44033 0
M  V30 54258 H 795.658 4.55889 -6.76652 0
M  V30 54259 P 791.695 4.23843 -7.83734 0
M  V30 54260 O 791.475 4.19407 -9.29784 0
M  V30 54261 O 790.905 5.24426 -7.09156 0
M  V30 54262 O 791.445 2.7935 -7.20758 0
M  V30 54263 C 792.385 1.7299 -7.50419 0
M  V30 54264 C 791.655 0.406376 -7.57911 0
M  V30 54265 O 791.445 -0.0897726 -6.21935 0
M  V30 54266 C 790.255 0.447224 -8.1878 0
M  V30 54267 O 789.865 -0.825065 -8.71101 0
M  V30 54268 C 789.375 0.783801 -6.99623 0
M  V30 54269 C 790.085 0.0619192 -5.85967 0
M  V30 54270 N 790.035 0.790462 -4.56202 0
M  V30 54271 H 792.874 1.93423 -8.4679 0
M  V30 54272 H 793.146 1.68852 -6.70877 0
M  V30 54273 H 792.278 -0.289041 -8.15388 0
M  V30 54274 H 789.623 -0.927006 -5.72848 0
M  V30 54275 H 789.343 1.86973 -6.82036 0
M  V30 54276 H 788.352 0.403953 -7.13357 0
M  V30 54277 H 790.186 1.20599 -8.97534 0
M  V30 54278 P 788.315 -1.17771 -8.83182 0
M  V30 54279 O 788.095 -2.07206 -9.98732 0
M  V30 54280 O 787.525 0.0743816 -8.81969 0
M  V30 54281 O 788.065 -1.97652 -7.47304 0
M  V30 54282 C 789.005 -3.01133 -7.08783 0
M  V30 54283 C 788.275 -4.12613 -6.37049 0
M  V30 54284 O 788.065 -3.72827 -4.97879 0
M  V30 54285 C 786.875 -4.45085 -6.88694 0
M  V30 54286 O 786.485 -5.7877 -6.5624 0
M  V30 54287 C 785.995 -3.47817 -6.12078 0
M  V30 54288 C 786.705 -3.39414 -4.77697 0
M  V30 54289 N 786.655 -2.04199 -4.15538 0
M  V30 54290 H 789.494 -3.41248 -7.98759 0
M  V30 54291 H 789.766 -2.57728 -6.42 0
M  V30 54292 H 788.898 -5.02657 -6.42673 0
M  V30 54293 H 786.243 -4.11708 -4.08956 0
M  V30 54294 H 785.963 -2.49626 -6.61679 0
M  V30 54295 H 784.972 -3.8662 -6.00862 0
M  V30 54296 H 786.806 -4.29991 -7.97006 0
M  V30 54297 P 784.935 -6.144 -6.45285 0
M  V30 54298 O 784.715 -7.54673 -6.86199 0
M  V30 54299 O 784.145 -5.12391 -7.179 0
M  V30 54300 O 784.685 -5.99158 -4.88404 0
M  V30 54301 C 785.625 -6.60234 -3.96415 0
M  V30 54302 C 784.895 -7.08259 -2.72856 0
M  V30 54303 O 784.685 -5.9427 -1.83651 0
M  V30 54304 C 783.495 -7.64886 -2.9555 0
M  V30 54305 O 783.105 -8.53963 -1.90717 0
M  V30 54306 C 782.615 -6.4116 -2.90739 0
M  V30 54307 C 783.325 -5.55375 -1.86963 0
M  V30 54308 N 783.275 -4.09448 -2.16152 0
M  V30 54309 H 786.114 -7.45574 -4.45629 0
M  V30 54310 H 786.386 -5.85864 -3.679 0
M  V30 54311 H 785.518 -7.84412 -2.24479 0
M  V30 54312 H 782.863 -5.73457 -0.888562 0
M  V30 54313 H 782.583 -5.90877 -3.88583 0
M  V30 54314 H 781.592 -6.6596 -2.58858 0
M  V30 54315 H 783.426 -8.16339 -3.92049 0
M  V30 54316 P 781.555 -8.7635 -1.60911 0
M  V30 54317 O 781.335 -10.1388 -1.11561 0
M  V30 54318 O 780.765 -8.36503 -2.79617 0
M  V30 54319 O 781.305 -7.71806 -0.42951 0
M  V30 54320 C 782.245 -7.67148 0.673689 0
M  V30 54321 C 781.515 -7.33374 1.95559 0
M  V30 54322 O 781.305 -5.88721 2.00726 0
M  V30 54323 C 780.115 -7.92526 2.10483 0
M  V30 54324 O 779.725 -8.02971 3.47653 0
M  V30 54325 C 779.235 -6.89602 1.41652 0
M  V30 54326 C 779.945 -5.59201 1.75185 0
M  V30 54327 N 779.895 -4.58235 0.662552 0
M  V30 54328 H 782.734 -8.65116 0.777161 0
M  V30 54329 H 783.006 -6.90173 0.474152 0
M  V30 54330 H 782.138 -7.66548 2.79458 0
M  V30 54331 P 778.175 -8.03563 3.84925 0
M  V30 54332 O 777.955 -8.85821 5.0569 0
M  V30 54333 O 777.385 -8.41101 2.65469 0
M  V30 54334 O 777.925 -6.4965 4.18908 0
M  V30 54335 C 778.865 -5.81037 5.05421 0
M  V30 54336 C 778.135 -4.78366 5.89277 0
M  V30 54337 O 777.925 -3.58302 5.08433 0
M  V30 54338 C 776.735 -5.17448 6.36119 0
M  V30 54339 O 776.345 -4.45271 7.53232 0
M  V30 54340 C 775.855 -4.74639 5.19936 0
M  V30 54341 C 776.565 -3.49432 4.70418 0
M  V30 54342 N 776.515 -3.32099 3.22613 0
M  V30 54343 H 779.354 -6.54213 5.71376 0
M  V30 54344 H 779.626 -5.30936 4.43503 0
M  V30 54345 H 778.758 -4.55889 6.76652 0
M  V30 54346 H 776.103 -2.61715 5.17932 0
M  V30 54347 H 775.823 -5.52155 4.41878 0
M  V30 54348 H 774.832 -4.51981 5.53374 0
M  V30 54349 H 776.666 -6.25124 6.55234 0
M  V30 54350 P 774.795 -4.23843 7.83734 0
M  V30 54351 O 774.575 -4.19407 9.29784 0
M  V30 54352 O 774.005 -5.24426 7.09156 0
M  V30 54353 O 774.545 -2.7935 7.20758 0
M  V30 54354 C 775.485 -1.7299 7.50419 0
M  V30 54355 C 774.755 -0.406376 7.57911 0
M  V30 54356 O 774.545 0.0897726 6.21935 0
M  V30 54357 C 773.355 -0.447224 8.1878 0
M  V30 54358 O 772.965 0.825065 8.71101 0
M  V30 54359 C 772.475 -0.783801 6.99623 0
M  V30 54360 C 773.185 -0.0619192 5.85967 0
M  V30 54361 N 773.135 -0.7859 4.56281 0
M  V30 54362 H 775.974 -1.93423 8.4679 0
M  V30 54363 H 776.246 -1.68181 6.71046 0
M  V30 54364 H 775.378 0.289041 8.15388 0
M  V30 54365 P 771.415 1.17771 8.83182 0
M  V30 54366 O 771.195 2.07206 9.98732 0
M  V30 54367 O 770.625 -0.0743816 8.81969 0
M  V30 54368 O 771.165 1.97652 7.47304 0
M  V30 54369 C 772.105 3.01133 7.08783 0
M  V30 54370 C 771.375 4.12613 6.37049 0
M  V30 54371 O 771.165 3.72827 4.97879 0
M  V30 54372 C 769.975 4.45085 6.88694 0
M  V30 54373 O 769.585 5.7877 6.5624 0
M  V30 54374 C 769.095 3.47817 6.12078 0
M  V30 54375 C 769.805 3.39414 4.77697 0
M  V30 54376 N 769.755 2.04615 4.15333 0
M  V30 54377 H 772.594 3.41248 7.98759 0
M  V30 54378 H 772.866 2.5837 6.41742 0
M  V30 54379 H 771.998 5.02657 6.42673 0
M  V30 54380 P 768.035 6.144 6.45285 0
M  V30 54381 O 767.815 7.54673 6.86199 0
M  V30 54382 O 767.245 5.12391 7.179 0
M  V30 54383 O 767.785 5.99158 4.88404 0
M  V30 54384 C 768.725 6.60234 3.96415 0
M  V30 54385 C 767.995 7.08259 2.72856 0
M  V30 54386 O 767.785 5.9427 1.83651 0
M  V30 54387 C 766.595 7.64886 2.9555 0
M  V30 54388 O 766.205 8.53963 1.90717 0
M  V30 54389 C 765.715 6.4116 2.90739 0
M  V30 54390 C 766.425 5.55375 1.86963 0
M  V30 54391 N 766.375 4.09448 2.16152 0
M  V30 54392 H 769.214 7.45574 4.45629 0
M  V30 54393 H 769.486 5.85864 3.679 0
M  V30 54394 H 768.618 7.84412 2.24479 0
M  V30 54395 H 765.963 5.73457 0.888562 0
M  V30 54396 H 765.683 5.90877 3.88583 0
M  V30 54397 H 764.692 6.6596 2.58858 0
M  V30 54398 H 766.526 8.16339 3.92049 0
M  V30 54399 P 764.656 8.7635 1.60911 0
M  V30 54400 O 764.436 10.1388 1.11561 0
M  V30 54401 O 763.866 8.36503 2.79617 0
M  V30 54402 O 764.406 7.71806 0.42951 0
M  V30 54403 C 765.346 7.67148 -0.673689 0
M  V30 54404 C 764.616 7.33374 -1.95559 0
M  V30 54405 O 764.406 5.88721 -2.00726 0
M  V30 54406 C 763.216 7.92526 -2.10483 0
M  V30 54407 O 762.826 8.02971 -3.47653 0
M  V30 54408 C 762.336 6.89602 -1.41652 0
M  V30 54409 C 763.046 5.59201 -1.75185 0
M  V30 54410 N 762.996 4.58235 -0.662552 0
M  V30 54411 H 765.835 8.65116 -0.777161 0
M  V30 54412 H 766.107 6.90173 -0.474152 0
M  V30 54413 H 765.239 7.66548 -2.79458 0
M  V30 54414 P 761.276 8.03563 -3.84925 0
M  V30 54415 O 761.056 8.85821 -5.0569 0
M  V30 54416 O 760.486 8.41101 -2.65469 0
M  V30 54417 O 761.026 6.4965 -4.18908 0
M  V30 54418 C 761.966 5.81037 -5.05421 0
M  V30 54419 C 761.236 4.78366 -5.89277 0
M  V30 54420 O 761.026 3.58302 -5.08433 0
M  V30 54421 C 759.836 5.17448 -6.36119 0
M  V30 54422 O 759.446 4.45271 -7.53232 0
M  V30 54423 C 758.956 4.74639 -5.19936 0
M  V30 54424 C 759.666 3.49432 -4.70418 0
M  V30 54425 N 759.616 3.32099 -3.22613 0
M  V30 54426 H 762.455 6.54213 -5.71376 0
M  V30 54427 H 762.727 5.30936 -4.43503 0
M  V30 54428 H 761.859 4.55889 -6.76652 0
M  V30 54429 H 759.204 2.61715 -5.17932 0
M  V30 54430 H 758.924 5.52155 -4.41878 0
M  V30 54431 H 757.933 4.51981 -5.53374 0
M  V30 54432 H 759.767 6.25124 -6.55234 0
M  V30 54433 P 757.896 4.23843 -7.83734 0
M  V30 54434 O 757.676 4.19407 -9.29784 0
M  V30 54435 O 757.106 5.24426 -7.09156 0
M  V30 54436 O 757.646 2.7935 -7.20758 0
M  V30 54437 C 758.586 1.7299 -7.50419 0
M  V30 54438 C 757.856 0.406376 -7.57911 0
M  V30 54439 O 757.646 -0.0897726 -6.21935 0
M  V30 54440 C 756.456 0.447224 -8.1878 0
M  V30 54441 O 756.066 -0.825065 -8.71101 0
M  V30 54442 C 755.576 0.783801 -6.99623 0
M  V30 54443 C 756.286 0.0619192 -5.85967 0
M  V30 54444 N 756.236 0.790462 -4.56202 0
M  V30 54445 H 759.075 1.93423 -8.4679 0
M  V30 54446 H 759.347 1.68852 -6.70877 0
M  V30 54447 H 758.479 -0.289041 -8.15388 0
M  V30 54448 H 755.824 -0.927006 -5.72848 0
M  V30 54449 H 755.544 1.86973 -6.82036 0
M  V30 54450 H 754.553 0.403953 -7.13357 0
M  V30 54451 H 756.387 1.20599 -8.97534 0
M  V30 54452 P 754.516 -1.17771 -8.83182 0
M  V30 54453 O 754.296 -2.07206 -9.98732 0
M  V30 54454 O 753.726 0.0743816 -8.81969 0
M  V30 54455 O 754.266 -1.97652 -7.47304 0
M  V30 54456 C 755.206 -3.01133 -7.08783 0
M  V30 54457 C 754.476 -4.12613 -6.37049 0
M  V30 54458 O 754.266 -3.72827 -4.97879 0
M  V30 54459 C 753.076 -4.45085 -6.88694 0
M  V30 54460 O 752.686 -5.7877 -6.5624 0
M  V30 54461 C 752.196 -3.47817 -6.12078 0
M  V30 54462 C 752.906 -3.39414 -4.77697 0
M  V30 54463 N 752.856 -2.04615 -4.15333 0
M  V30 54464 H 755.695 -3.41248 -7.98759 0
M  V30 54465 H 755.967 -2.5837 -6.41742 0
M  V30 54466 H 755.099 -5.02657 -6.42673 0
M  V30 54467 P 751.136 -6.144 -6.45285 0
M  V30 54468 O 750.916 -7.54673 -6.86199 0
M  V30 54469 O 750.346 -5.12391 -7.179 0
M  V30 54470 O 750.886 -5.99158 -4.88404 0
M  V30 54471 C 751.826 -6.60234 -3.96415 0
M  V30 54472 C 751.096 -7.08259 -2.72856 0
M  V30 54473 O 750.886 -5.9427 -1.83651 0
M  V30 54474 C 749.696 -7.64886 -2.9555 0
M  V30 54475 O 749.306 -8.53963 -1.90717 0
M  V30 54476 C 748.816 -6.4116 -2.90739 0
M  V30 54477 C 749.526 -5.55375 -1.86963 0
M  V30 54478 N 749.476 -4.09448 -2.16152 0
M  V30 54479 H 752.315 -7.45574 -4.45629 0
M  V30 54480 H 752.587 -5.85864 -3.679 0
M  V30 54481 H 751.719 -7.84412 -2.24479 0
M  V30 54482 H 749.064 -5.73457 -0.888562 0
M  V30 54483 H 748.784 -5.90877 -3.88583 0
M  V30 54484 H 747.793 -6.6596 -2.58858 0
M  V30 54485 H 749.627 -8.16339 -3.92049 0
M  V30 54486 P 747.756 -8.7635 -1.60911 0
M  V30 54487 O 747.536 -10.1388 -1.11561 0
M  V30 54488 O 746.966 -8.36503 -2.79617 0
M  V30 54489 O 747.506 -7.71806 -0.42951 0
M  V30 54490 C 748.446 -7.67148 0.673689 0
M  V30 54491 C 747.716 -7.33374 1.95559 0
M  V30 54492 O 747.506 -5.88721 2.00726 0
M  V30 54493 C 746.316 -7.92526 2.10483 0
M  V30 54494 O 745.926 -8.02971 3.47653 0
M  V30 54495 C 745.436 -6.89602 1.41652 0
M  V30 54496 C 746.146 -5.59201 1.75185 0
M  V30 54497 N 746.096 -4.58235 0.662552 0
M  V30 54498 H 748.935 -8.65116 0.777161 0
M  V30 54499 H 749.207 -6.90173 0.474152 0
M  V30 54500 H 748.339 -7.66548 2.79458 0
M  V30 54501 P 744.376 -8.03563 3.84925 0
M  V30 54502 O 744.156 -8.85821 5.0569 0
M  V30 54503 O 743.586 -8.41101 2.65469 0
M  V30 54504 O 744.126 -6.4965 4.18908 0
M  V30 54505 C 745.066 -5.81037 5.05421 0
M  V30 54506 C 744.336 -4.78366 5.89277 0
M  V30 54507 O 744.126 -3.58302 5.08433 0
M  V30 54508 C 742.936 -5.17448 6.36119 0
M  V30 54509 O 742.546 -4.45271 7.53232 0
M  V30 54510 C 742.056 -4.74639 5.19936 0
M  V30 54511 C 742.766 -3.49432 4.70418 0
M  V30 54512 N 742.716 -3.31776 3.22945 0
M  V30 54513 H 745.555 -6.54213 5.71376 0
M  V30 54514 H 745.827 -5.30492 4.44033 0
M  V30 54515 H 744.959 -4.55889 6.76652 0
M  V30 54516 P 740.996 -4.23843 7.83734 0
M  V30 54517 O 740.776 -4.19407 9.29784 0
M  V30 54518 O 740.206 -5.24426 7.09156 0
M  V30 54519 O 740.746 -2.7935 7.20758 0
M  V30 54520 C 741.686 -1.7299 7.50419 0
M  V30 54521 C 740.956 -0.406376 7.57911 0
M  V30 54522 O 740.746 0.0897726 6.21935 0
M  V30 54523 C 739.556 -0.447224 8.1878 0
M  V30 54524 O 739.166 0.825065 8.71101 0
M  V30 54525 C 738.676 -0.783801 6.99623 0
M  V30 54526 C 739.386 -0.0619192 5.85967 0
M  V30 54527 N 739.336 -0.7859 4.56281 0
M  V30 54528 H 742.175 -1.93423 8.4679 0
M  V30 54529 H 742.447 -1.68181 6.71046 0
M  V30 54530 H 741.579 0.289041 8.15388 0
M  V30 54531 P 737.616 1.17771 8.83182 0
M  V30 54532 O 737.396 2.07206 9.98732 0
M  V30 54533 O 736.826 -0.0743816 8.81969 0
M  V30 54534 O 737.366 1.97652 7.47304 0
M  V30 54535 C 738.306 3.01133 7.08783 0
M  V30 54536 C 737.576 4.12613 6.37049 0
M  V30 54537 O 737.366 3.72827 4.97879 0
M  V30 54538 C 736.176 4.45085 6.88694 0
M  V30 54539 O 735.786 5.7877 6.5624 0
M  V30 54540 C 735.296 3.47817 6.12078 0
M  V30 54541 C 736.006 3.39414 4.77697 0
M  V30 54542 N 735.956 2.04199 4.15538 0
M  V30 54543 C 736.036 0.821545 4.76977 0
M  V30 54544 N 735.966 -0.1794 3.94592 0
M  V30 54545 C 735.816 0.419121 2.70776 0
M  V30 54546 C 735.686 -0.109072 1.40577 0
M  V30 54547 N 735.676 -1.4104 1.1344 0
M  V30 54548 N 735.566 0.764381 0.39411 0
M  V30 54549 C 735.576 2.06587 0.664135 0
M  V30 54550 N 735.696 2.67948 1.82153 0
M  V30 54551 C 735.816 1.77942 2.8147 0
M  V30 54552 H 738.795 3.41248 7.98759 0
M  V30 54553 H 739.067 2.57728 6.42 0
M  V30 54554 H 738.199 5.02657 6.42673 0
M  V30 54555 H 735.544 4.11708 4.08956 0
M  V30 54556 H 735.264 2.49626 6.61679 0
M  V30 54557 H 734.273 3.8662 6.00862 0
M  V30 54558 H 736.107 4.29991 7.97006 0
M  V30 54559 H 736.148 0.702451 5.84696 0
M  V30 54560 H 735.767 -2.09647 1.89651 0
M  V30 54561 H 735.578 -1.73358 0.160575 0
M  V30 54562 H 735.47 2.71695 -0.195838 0
M  V30 54563 P 734.236 6.144 6.45285 0
M  V30 54564 O 734.016 7.54673 6.86199 0
M  V30 54565 O 733.446 5.12391 7.179 0
M  V30 54566 O 733.986 5.99158 4.88404 0
M  V30 54567 C 734.926 6.60234 3.96415 0
M  V30 54568 C 734.196 7.08259 2.72856 0
M  V30 54569 O 733.986 5.9427 1.83651 0
M  V30 54570 C 732.796 7.64886 2.9555 0
M  V30 54571 O 732.406 8.53963 1.90717 0
M  V30 54572 C 731.916 6.4116 2.90739 0
M  V30 54573 C 732.626 5.55375 1.86963 0
M  V30 54574 N 732.576 4.09664 2.15742 0
M  V30 54575 H 735.415 7.45574 4.45629 0
M  V30 54576 H 735.687 5.86232 3.67314 0
M  V30 54577 H 734.819 7.84412 2.24479 0
M  V30 54578 P 730.856 8.7635 1.60911 0
M  V30 54579 O 730.636 10.1388 1.11561 0
M  V30 54580 O 730.066 8.36503 2.79617 0
M  V30 54581 O 730.606 7.71806 0.42951 0
M  V30 54582 C 731.546 7.67148 -0.673689 0
M  V30 54583 C 730.816 7.33374 -1.95559 0
M  V30 54584 O 730.606 5.88721 -2.00726 0
M  V30 54585 C 729.416 7.92526 -2.10483 0
M  V30 54586 O 729.026 8.02971 -3.47653 0
M  V30 54587 C 728.536 6.89602 -1.41652 0
M  V30 54588 C 729.246 5.59201 -1.75185 0
M  V30 54589 N 729.196 4.58235 -0.662552 0
M  V30 54590 C 729.276 4.7683 0.704049 0
M  V30 54591 N 729.196 3.66233 1.39775 0
M  V30 54592 C 729.056 2.66526 0.431739 0
M  V30 54593 C 728.926 1.26394 0.575992 0
M  V30 54594 O 728.906 0.589894 1.60503 0
M  V30 54595 N 728.806 0.62859 -0.67177 0
M  V30 54596 C 728.806 1.27134 -1.89385 0
M  V30 54597 N 728.676 0.492035 -2.96951 0
M  V30 54598 N 728.936 2.58978 -2.02907 0
M  V30 54599 C 729.056 3.22433 -0.832218 0
M  V30 54600 H 732.035 8.65116 -0.777161 0
M  V30 54601 H 732.307 6.90173 -0.474152 0
M  V30 54602 H 731.439 7.66548 -2.79458 0
M  V30 54603 H 728.784 5.16254 -2.65229 0
M  V30 54604 H 728.504 7.06532 -0.329431 0
M  V30 54605 H 727.513 6.91023 -1.82047 0
M  V30 54606 H 729.347 8.90971 -1.62675 0
M  V30 54607 H 729.396 5.74954 1.16305 0
M  V30 54608 H 728.714 -0.366713 -0.674793 0
M  V30 54609 H 728.677 0.908532 -3.91188 0
M  V30 54610 H 728.576 -0.528253 -2.85758 0
M  V30 54611 P 727.476 8.03563 -3.84925 0
M  V30 54612 O 727.256 8.85821 -5.0569 0
M  V30 54613 O 726.686 8.41101 -2.65469 0
M  V30 54614 O 727.226 6.4965 -4.18908 0
M  V30 54615 C 728.166 5.81037 -5.05421 0
M  V30 54616 C 727.436 4.78366 -5.89277 0
M  V30 54617 O 727.226 3.58302 -5.08433 0
M  V30 54618 C 726.036 5.17448 -6.36119 0
M  V30 54619 O 725.646 4.45271 -7.53232 0
M  V30 54620 C 725.156 4.74639 -5.19936 0
M  V30 54621 C 725.866 3.49432 -4.70418 0
M  V30 54622 N 725.816 3.32099 -3.22613 0
M  V30 54623 C 725.896 4.28245 -2.25527 0
M  V30 54624 N 725.826 3.80823 -1.04874 0
M  V30 54625 C 725.676 2.44571 -1.23535 0
M  V30 54626 C 725.546 1.37068 -0.330675 0
M  V30 54627 N 725.536 1.51472 0.990824 0
M  V30 54628 N 725.426 0.138614 -0.848756 0
M  V30 54629 C 725.436 -0.00675923 -2.16999 0
M  V30 54630 N 725.556 0.904372 -3.11122 0
M  V30 54631 C 725.676 2.12707 -2.56212 0
M  V30 54632 H 728.655 6.54213 -5.71376 0
M  V30 54633 H 728.927 5.30936 -4.43503 0
M  V30 54634 H 728.059 4.55889 -6.76652 0
M  V30 54635 H 725.404 2.61715 -5.17932 0
M  V30 54636 H 725.124 5.52155 -4.41878 0
M  V30 54637 H 724.133 4.51981 -5.53374 0
M  V30 54638 H 725.967 6.25124 -6.55234 0
M  V30 54639 H 726.008 5.34372 -2.47488 0
M  V30 54640 H 725.627 2.45153 1.4078 0
M  V30 54641 H 725.438 0.688422 1.59911 0
M  V30 54642 H 725.33 -1.02584 -2.52346 0
M  V30 54643 P 724.096 4.23843 -7.83734 0
M  V30 54644 O 723.876 4.19407 -9.29784 0
M  V30 54645 O 723.306 5.24426 -7.09156 0
M  V30 54646 O 723.846 2.7935 -7.20758 0
M  V30 54647 C 724.786 1.7299 -7.50419 0
M  V30 54648 C 724.056 0.406376 -7.57911 0
M  V30 54649 O 723.846 -0.0897726 -6.21935 0
M  V30 54650 C 722.656 0.447224 -8.1878 0
M  V30 54651 O 722.266 -0.825065 -8.71101 0
M  V30 54652 C 721.776 0.783801 -6.99623 0
M  V30 54653 C 722.486 0.0619192 -5.85967 0
M  V30 54654 N 722.436 0.7859 -4.56281 0
M  V30 54655 C 722.516 2.14308 -4.31736 0
M  V30 54656 N 722.436 2.46106 -3.05116 0
M  V30 54657 C 722.296 1.23422 -2.4014 0
M  V30 54658 C 722.166 0.938381 -1.02409 0
M  V30 54659 N 722.046 -0.444647 -0.805413 0
M  V30 54660 C 722.046 -1.40829 -1.79435 0
M  V30 54661 N 721.916 -2.67213 -1.38558 0
M  V30 54662 N 722.176 -1.12947 -3.09005 0
M  V30 54663 C 722.296 0.204887 -3.32369 0
M  V30 54664 H 725.275 1.93423 -8.4679 0
M  V30 54665 H 725.547 1.68181 -6.71046 0
M  V30 54666 H 724.679 -0.289041 -8.15388 0
M  V30 54667 P 720.716 -1.17771 -8.83182 0
M  V30 54668 O 720.496 -2.07206 -9.98732 0
M  V30 54669 O 719.926 0.0743816 -8.81969 0
M  V30 54670 O 720.466 -1.97652 -7.47304 0
M  V30 54671 C 721.406 -3.01133 -7.08783 0
M  V30 54672 C 720.676 -4.12613 -6.37049 0
M  V30 54673 O 720.466 -3.72827 -4.97879 0
M  V30 54674 C 719.276 -4.45085 -6.88694 0
M  V30 54675 O 718.886 -5.7877 -6.5624 0
M  V30 54676 C 718.396 -3.47817 -6.12078 0
M  V30 54677 C 719.106 -3.39414 -4.77697 0
M  V30 54678 N 719.056 -2.04199 -4.15538 0
M  V30 54679 H 721.895 -3.41248 -7.98759 0
M  V30 54680 H 722.167 -2.57728 -6.42 0
M  V30 54681 H 721.299 -5.02657 -6.42673 0
M  V30 54682 H 718.644 -4.11708 -4.08956 0
M  V30 54683 H 718.364 -2.49626 -6.61679 0
M  V30 54684 H 717.373 -3.8662 -6.00862 0
M  V30 54685 H 719.207 -4.29991 -7.97006 0
M  V30 54686 P 717.336 -6.144 -6.45285 0
M  V30 54687 O 717.116 -7.54673 -6.86199 0
M  V30 54688 O 716.546 -5.12391 -7.179 0
M  V30 54689 O 717.086 -5.99158 -4.88404 0
M  V30 54690 C 718.026 -6.60234 -3.96415 0
M  V30 54691 C 717.296 -7.08259 -2.72856 0
M  V30 54692 O 717.086 -5.9427 -1.83651 0
M  V30 54693 C 715.896 -7.64886 -2.9555 0
M  V30 54694 O 715.506 -8.53963 -1.90717 0
M  V30 54695 C 715.016 -6.4116 -2.90739 0
M  V30 54696 C 715.726 -5.55375 -1.86963 0
M  V30 54697 N 715.676 -4.09664 -2.15742 0
M  V30 54698 H 718.515 -7.45574 -4.45629 0
M  V30 54699 H 718.787 -5.86232 -3.67314 0
M  V30 54700 H 717.919 -7.84412 -2.24479 0
M  V30 54701 P 713.956 -8.7635 -1.60911 0
M  V30 54702 O 713.736 -10.1388 -1.11561 0
M  V30 54703 O 713.166 -8.36503 -2.79617 0
M  V30 54704 O 713.706 -7.71906 -0.429565 0
M  V30 54705 C 714.646 -7.67148 0.673689 0
M  V30 54706 C 713.916 -7.33666 1.94851 0
M  V30 54707 O 713.706 -5.88816 2.00759 0
M  V30 54708 C 712.516 -7.92526 2.10483 0
M  V30 54709 O 712.126 -8.03063 3.47693 0
M  V30 54710 C 711.636 -6.89602 1.41652 0
M  V30 54711 C 712.346 -5.59201 1.75185 0
M  V30 54712 N 712.296 -4.58235 0.662552 0
M  V30 54713 C 712.146 -3.24451 1.01643 0
M  V30 54714 O 712.056 -2.94958 2.21722 0
M  V30 54715 N 712.096 -2.30408 -0.165238 0
M  V30 54716 C 712.196 -2.66048 -1.25118 0
M  V30 54717 N 712.146 -1.70787 -2.16813 0
M  V30 54718 C 712.346 -4.02732 -1.64413 0
M  V30 54719 C 712.396 -4.9488 -0.63991 0
M  V30 54720 H 715.136 -8.65017 0.777072 0
M  V30 54721 H 715.406 -6.90173 0.474152 0
M  V30 54722 H 714.539 -7.66642 2.79492 0
M  V30 54723 H 711.884 -5.16254 2.65229 0
M  V30 54724 H 711.604 -7.06532 0.329431 0
M  V30 54725 H 710.613 -6.91023 1.82047 0
M  V30 54726 H 712.447 -8.90873 1.62657 0
M  V30 54727 H 712.519 -6.00104 -0.892197 0
M  V30 54728 H 712.417 -4.31733 -2.69229 0
M  V30 54729 H 712.029 -0.724835 -1.8844 0
M  V30 54730 H 712.225 -1.94716 -3.16734 0
M  V30 54731 P 710.576 -8.03563 3.84925 0
M  V30 54732 O 710.356 -8.85821 5.0569 0
M  V30 54733 O 709.786 -8.41101 2.65469 0
M  V30 54734 O 710.326 -6.4965 4.18908 0
M  V30 54735 C 711.266 -5.81037 5.05421 0
M  V30 54736 C 710.536 -4.78366 5.89277 0
M  V30 54737 O 710.326 -3.58302 5.08433 0
M  V30 54738 C 709.136 -5.17448 6.36119 0
M  V30 54739 O 708.746 -4.45271 7.53232 0
M  V30 54740 C 708.256 -4.74639 5.19936 0
M  V30 54741 C 708.966 -3.49432 4.70418 0
M  V30 54742 N 708.916 -3.31776 3.22945 0
M  V30 54743 H 711.755 -6.54213 5.71376 0
M  V30 54744 H 712.027 -5.30492 4.44033 0
M  V30 54745 H 711.159 -4.55889 6.76652 0
M  V30 54746 P 707.196 -4.23843 7.83734 0
M  V30 54747 O 706.976 -4.19407 9.29784 0
M  V30 54748 O 706.406 -5.24426 7.09156 0
M  V30 54749 O 706.946 -2.7935 7.20758 0
M  V30 54750 C 707.886 -1.7299 7.50419 0
M  V30 54751 C 707.156 -0.406376 7.57911 0
M  V30 54752 O 706.946 0.0897726 6.21935 0
M  V30 54753 C 705.756 -0.447224 8.1878 0
M  V30 54754 O 705.366 0.825065 8.71101 0
M  V30 54755 C 704.876 -0.783801 6.99623 0
M  V30 54756 C 705.586 -0.0619192 5.85967 0
M  V30 54757 N 705.536 -0.7859 4.56281 0
M  V30 54758 H 708.375 -1.93423 8.4679 0
M  V30 54759 H 708.647 -1.68181 6.71046 0
M  V30 54760 H 707.779 0.289041 8.15388 0
M  V30 54761 P 703.816 1.17771 8.83182 0
M  V30 54762 O 703.596 2.07206 9.98732 0
M  V30 54763 O 703.026 -0.0743816 8.81969 0
M  V30 54764 O 703.566 1.97652 7.47304 0
M  V30 54765 C 704.506 3.01133 7.08783 0
M  V30 54766 C 703.776 4.12613 6.37049 0
M  V30 54767 O 703.566 3.72827 4.97879 0
M  V30 54768 C 702.376 4.45085 6.88694 0
M  V30 54769 O 701.986 5.7877 6.5624 0
M  V30 54770 C 701.496 3.47817 6.12078 0
M  V30 54771 C 702.206 3.39414 4.77697 0
M  V30 54772 N 702.156 2.04615 4.15333 0
M  V30 54773 H 704.995 3.41248 7.98759 0
M  V30 54774 H 705.267 2.5837 6.41742 0
M  V30 54775 H 704.399 5.02657 6.42673 0
M  V30 54776 P 700.436 6.144 6.45285 0
M  V30 54777 O 700.216 7.54673 6.86199 0
M  V30 54778 O 699.646 5.12391 7.179 0
M  V30 54779 O 700.186 5.99158 4.88404 0
M  V30 54780 C 701.126 6.60234 3.96415 0
M  V30 54781 C 700.396 7.08259 2.72856 0
M  V30 54782 O 700.186 5.9427 1.83651 0
M  V30 54783 C 698.996 7.64886 2.9555 0
M  V30 54784 O 698.606 8.53963 1.90717 0
M  V30 54785 C 698.116 6.4116 2.90739 0
M  V30 54786 C 698.826 5.55375 1.86963 0
M  V30 54787 N 698.776 4.09448 2.16152 0
M  V30 54788 H 701.615 7.45574 4.45629 0
M  V30 54789 H 701.887 5.85864 3.679 0
M  V30 54790 H 701.019 7.84412 2.24479 0
M  V30 54791 H 698.364 5.73457 0.888562 0
M  V30 54792 H 698.084 5.90877 3.88583 0
M  V30 54793 H 697.093 6.6596 2.58858 0
M  V30 54794 H 698.927 8.16339 3.92049 0
M  V30 54795 P 697.056 8.7635 1.60911 0
M  V30 54796 O 696.836 10.1388 1.11561 0
M  V30 54797 O 696.266 8.36503 2.79617 0
M  V30 54798 O 696.806 7.71806 0.42951 0
M  V30 54799 C 697.746 7.67148 -0.673689 0
M  V30 54800 C 697.016 7.33374 -1.95559 0
M  V30 54801 O 696.806 5.88721 -2.00726 0
M  V30 54802 C 695.616 7.92526 -2.10483 0
M  V30 54803 O 695.226 8.02971 -3.47653 0
M  V30 54804 C 694.736 6.89602 -1.41652 0
M  V30 54805 C 695.446 5.59201 -1.75185 0
M  V30 54806 N 695.396 4.58235 -0.662552 0
M  V30 54807 H 698.235 8.65116 -0.777161 0
M  V30 54808 H 698.507 6.90173 -0.474152 0
M  V30 54809 H 697.639 7.66548 -2.79458 0
M  V30 54810 P 693.676 8.03563 -3.84925 0
M  V30 54811 O 693.456 8.85821 -5.0569 0
M  V30 54812 O 692.886 8.41101 -2.65469 0
M  V30 54813 O 693.426 6.4965 -4.18908 0
M  V30 54814 C 694.366 5.81037 -5.05421 0
M  V30 54815 C 693.636 4.78366 -5.89277 0
M  V30 54816 O 693.426 3.58302 -5.08433 0
M  V30 54817 C 692.236 5.17448 -6.36119 0
M  V30 54818 O 691.846 4.45271 -7.53232 0
M  V30 54819 C 691.356 4.74639 -5.19936 0
M  V30 54820 C 692.066 3.49432 -4.70418 0
M  V30 54821 N 692.016 3.31776 -3.22945 0
M  V30 54822 H 694.855 6.54213 -5.71376 0
M  V30 54823 H 695.127 5.30492 -4.44033 0
M  V30 54824 H 694.259 4.55889 -6.76652 0
M  V30 54825 P 690.296 4.23843 -7.83734 0
M  V30 54826 O 690.076 4.19407 -9.29784 0
M  V30 54827 O 689.506 5.24426 -7.09156 0
M  V30 54828 O 690.046 2.7935 -7.20758 0
M  V30 54829 C 690.986 1.7299 -7.50419 0
M  V30 54830 C 690.256 0.406376 -7.57911 0
M  V30 54831 O 690.046 -0.0897726 -6.21935 0
M  V30 54832 C 688.856 0.447224 -8.1878 0
M  V30 54833 O 688.466 -0.825065 -8.71101 0
M  V30 54834 C 687.976 0.783801 -6.99623 0
M  V30 54835 C 688.686 0.0619192 -5.85967 0
M  V30 54836 N 688.636 0.7859 -4.56281 0
M  V30 54837 H 691.475 1.93423 -8.4679 0
M  V30 54838 H 691.747 1.68181 -6.71046 0
M  V30 54839 H 690.879 -0.289041 -8.15388 0
M  V30 54840 P 686.916 -1.17771 -8.83182 0
M  V30 54841 O 686.696 -2.07206 -9.98732 0
M  V30 54842 O 686.126 0.0743816 -8.81969 0
M  V30 54843 O 686.666 -1.97652 -7.47304 0
M  V30 54844 C 687.606 -3.01133 -7.08783 0
M  V30 54845 C 686.876 -4.12613 -6.37049 0
M  V30 54846 O 686.666 -3.72827 -4.97879 0
M  V30 54847 C 685.476 -4.45085 -6.88694 0
M  V30 54848 O 685.086 -5.7877 -6.5624 0
M  V30 54849 C 684.596 -3.47817 -6.12078 0
M  V30 54850 C 685.306 -3.39414 -4.77697 0
M  V30 54851 N 685.256 -2.04615 -4.15333 0
M  V30 54852 H 688.095 -3.41248 -7.98759 0
M  V30 54853 H 688.367 -2.5837 -6.41742 0
M  V30 54854 H 687.499 -5.02657 -6.42673 0
M  V30 54855 P 683.536 -6.144 -6.45285 0
M  V30 54856 O 683.316 -7.54673 -6.86199 0
M  V30 54857 O 682.746 -5.12391 -7.179 0
M  V30 54858 O 683.286 -5.99236 -4.88467 0
M  V30 54859 C 684.226 -6.60234 -3.96415 0
M  V30 54860 C 683.496 -7.08079 -2.736 0
M  V30 54861 O 683.286 -5.94365 -1.8368 0
M  V30 54862 C 682.096 -7.64886 -2.9555 0
M  V30 54863 O 681.706 -8.5406 -1.90739 0
M  V30 54864 C 681.216 -6.4116 -2.90739 0
M  V30 54865 C 681.926 -5.55375 -1.86963 0
M  V30 54866 N 681.876 -4.09664 -2.15742 0
M  V30 54867 C 681.726 -3.22231 -1.08477 0
M  V30 54868 O 681.636 -3.68951 0.0600489 0
M  V30 54869 N 681.676 -1.76692 -1.48799 0
M  V30 54870 C 681.776 -1.41695 -2.57602 0
M  V30 54871 N 681.726 -0.107296 -2.75791 0
M  V30 54872 C 681.926 -2.29178 -3.69733 0
M  V30 54873 C 681.976 -3.62753 -3.42653 0
M  V30 54874 H 684.716 -7.45488 -4.45578 0
M  V30 54875 H 684.986 -5.86232 -3.67314 0
M  V30 54876 H 684.119 -7.84508 -2.24507 0
M  V30 54877 H 681.464 -5.73556 -0.888715 0
M  V30 54878 H 681.184 -5.9096 -3.88638 0
M  V30 54879 H 680.193 -6.66053 -2.58894 0
M  V30 54880 H 682.027 -8.16339 -3.92049 0
M  V30 54881 H 682.099 -4.33052 -4.24913 0
M  V30 54882 H 681.997 -1.9103 -4.71577 0
M  V30 54883 H 681.609 0.521221 -1.95056 0
M  V30 54884 H 681.805 0.286429 -3.70695 0
M  V30 54885 P 680.156 -8.7635 -1.60911 0
M  V30 54886 O 679.936 -10.1388 -1.11561 0
M  V30 54887 O 679.366 -8.36503 -2.79617 0
M  V30 54888 O 679.906 -7.71806 -0.42951 0
M  V30 54889 C 680.846 -7.66948 0.673514 0
M  V30 54890 C 680.116 -7.33374 1.95559 0
M  V30 54891 O 679.906 -5.88721 2.00726 0
M  V30 54892 C 678.716 -7.92218 2.1125 0
M  V30 54893 O 678.326 -8.02971 3.47653 0
M  V30 54894 C 677.836 -6.89504 1.41631 0
M  V30 54895 C 678.546 -5.59106 1.75155 0
M  V30 54896 N 678.496 -4.58136 0.662409 0
M  V30 54897 C 678.346 -3.26059 1.02863 0
M  V30 54898 O 678.256 -2.90743 2.19009 0
M  V30 54899 N 678.306 -2.35995 -0.0155585 0
M  V30 54900 C 678.396 -2.65248 -1.35603 0
M  V30 54901 O 678.346 -1.75605 -2.20651 0
M  V30 54902 C 678.546 -4.05747 -1.64698 0
M  V30 54903 C 678.656 -4.42345 -3.09553 0
M  V30 54904 C 678.596 -4.96734 -0.652411 0
M  V30 54905 H 681.337 -8.64917 0.776982 0
M  V30 54906 H 681.606 -6.89974 0.474015 0
M  V30 54907 H 680.739 -7.66548 2.79458 0
M  V30 54908 H 678.084 -5.16076 2.65138 0
M  V30 54909 H 677.805 -7.06433 0.329384 0
M  V30 54910 H 676.813 -6.90829 1.81996 0
M  V30 54911 H 678.647 -8.90774 1.62639 0
M  V30 54912 H 678.718 -6.02181 -0.895285 0
M  V30 54913 H 677.688 -4.80252 -3.45468 0
M  V30 54914 H 679.425 -5.20015 -3.22119 0
M  V30 54915 H 678.937 -3.53269 -3.67833 0
M  V30 54916 H 678.201 -1.39558 0.227499 0
M  V30 54917 P 676.776 -8.03563 3.84925 0
M  V30 54918 O 676.556 -8.85821 5.0569 0
M  V30 54919 O 675.986 -8.41101 2.65469 0
M  V30 54920 O 676.526 -6.4965 4.18908 0
M  V30 54921 C 677.466 -5.80886 5.05289 0
M  V30 54922 C 676.736 -4.78366 5.89277 0
M  V30 54923 O 676.526 -3.58302 5.08433 0
M  V30 54924 C 675.336 -5.16748 6.36559 0
M  V30 54925 O 674.946 -4.45271 7.53232 0
M  V30 54926 C 674.456 -4.74572 5.19863 0
M  V30 54927 C 675.166 -3.49373 4.70338 0
M  V30 54928 N 675.116 -3.31704 3.22876 0
M  V30 54929 C 674.966 -2.03326 2.74871 0
M  V30 54930 O 674.876 -1.06486 3.48076 0
M  V30 54931 N 674.926 -1.91838 1.37456 0
M  V30 54932 C 675.016 -2.94295 0.462035 0
M  V30 54933 C 675.166 -4.25064 1.05249 0
M  V30 54934 C 675.216 -4.40214 2.39192 0
M  V30 54935 H 677.957 -6.54063 5.71245 0
M  V30 54936 H 678.226 -5.30339 4.43905 0
M  V30 54937 H 677.359 -4.55889 6.76652 0
M  V30 54938 H 674.704 -2.6167 5.17842 0
M  V30 54939 H 674.425 -5.52155 4.41878 0
M  V30 54940 H 673.433 -4.51918 5.53297 0
M  V30 54941 H 675.267 -6.25055 6.55162 0
M  V30 54942 H 675.338 -5.39798 2.81523 0
M  V30 54943 P 673.396 -4.23843 7.83734 0
M  V30 54944 O 673.176 -4.19407 9.29784 0
M  V30 54945 O 672.606 -5.24426 7.09156 0
M  V30 54946 O 673.146 -2.79386 7.20852 0
M  V30 54947 C 674.086 -1.7299 7.50419 0
M  V30 54948 C 673.356 -0.41401 7.5797 0
M  V30 54949 O 673.146 0.089787 6.22035 0
M  V30 54950 C 671.956 -0.447224 8.1878 0
M  V30 54951 O 671.566 0.825159 8.71201 0
M  V30 54952 C 671.076 -0.783801 6.99623 0
M  V30 54953 C 671.786 -0.0619192 5.85967 0
M  V30 54954 N 671.736 -0.7859 4.56281 0
M  V30 54955 C 671.586 -0.0359258 3.39981 0
M  V30 54956 O 671.496 1.19723 3.49038 0
M  V30 54957 N 671.536 -0.869151 2.14025 0
M  V30 54958 C 671.636 -2.01207 2.14363 0
M  V30 54959 N 671.586 -2.58978 0.954287 0
M  V30 54960 C 671.786 -2.80817 3.32215 0
M  V30 54961 C 671.836 -2.13785 4.50884 0
M  V30 54962 H 674.576 -1.93401 8.46693 0
M  V30 54963 H 674.846 -1.68181 6.71046 0
M  V30 54964 H 673.979 0.289076 8.15488 0
M  V30 54965 H 671.324 0.927166 5.72947 0
M  V30 54966 H 671.044 -1.87 6.82132 0
M  V30 54967 H 670.053 -0.404009 7.13457 0
M  V30 54968 H 671.887 -1.20599 8.97534 0
M  V30 54969 H 671.959 -2.70295 5.43162 0
M  V30 54970 H 671.857 -3.89465 3.27406 0
M  V30 54971 H 671.469 -2.01616 0.107046 0
M  V30 54972 H 671.665 -3.61403 0.873101 0
M  V30 54973 P 670.016 1.17771 8.83182 0
M  V30 54974 O 669.796 2.07206 9.98732 0
M  V30 54975 O 669.226 -0.0743816 8.81969 0
M  V30 54976 O 669.766 1.97652 7.47304 0
M  V30 54977 C 670.706 3.01133 7.08783 0
M  V30 54978 C 669.976 4.12613 6.37049 0
M  V30 54979 O 669.766 3.72827 4.97879 0
M  V30 54980 C 668.576 4.45085 6.88694 0
M  V30 54981 O 668.186 5.7877 6.5624 0
M  V30 54982 C 667.696 3.47817 6.12078 0
M  V30 54983 C 668.406 3.39414 4.77697 0
M  V30 54984 N 668.356 2.04615 4.15333 0
M  V30 54985 H 671.195 3.41248 7.98759 0
M  V30 54986 H 671.467 2.5837 6.41742 0
M  V30 54987 H 670.599 5.02657 6.42673 0
M  V30 54988 P 666.636 6.144 6.45285 0
M  V30 54989 O 666.416 7.54673 6.86199 0
M  V30 54990 O 665.846 5.12391 7.179 0
M  V30 54991 O 666.386 5.99158 4.88404 0
M  V30 54992 C 667.326 6.60234 3.96415 0
M  V30 54993 C 666.596 7.08259 2.72856 0
M  V30 54994 O 666.386 5.9427 1.83651 0
M  V30 54995 C 665.196 7.64886 2.9555 0
M  V30 54996 O 664.806 8.53963 1.90717 0
M  V30 54997 C 664.316 6.4116 2.90739 0
M  V30 54998 C 665.026 5.55375 1.86963 0
M  V30 54999 N 664.976 4.09664 2.15742 0
M  V30 55000 H 667.815 7.45574 4.45629 0
M  V30 55001 H 668.087 5.86232 3.67314 0
M  V30 55002 H 667.219 7.84412 2.24479 0
M  V30 55003 P 663.256 8.7635 1.60911 0
M  V30 55004 O 663.036 10.1388 1.11561 0
M  V30 55005 O 662.466 8.36503 2.79617 0
M  V30 55006 O 663.006 7.71806 0.42951 0
M  V30 55007 C 663.946 7.67148 -0.673689 0
M  V30 55008 C 663.216 7.33374 -1.95559 0
M  V30 55009 O 663.006 5.88721 -2.00726 0
M  V30 55010 C 661.816 7.92526 -2.10483 0
M  V30 55011 O 661.426 8.02971 -3.47653 0
M  V30 55012 C 660.936 6.89602 -1.41652 0
M  V30 55013 C 661.646 5.59201 -1.75185 0
M  V30 55014 N 661.596 4.58301 -0.657969 0
M  V30 55015 H 664.435 8.65116 -0.777161 0
M  V30 55016 H 664.707 6.9022 -0.46725 0
M  V30 55017 H 663.839 7.66548 -2.79458 0
M  V30 55018 H 661.184 5.16165 -2.65183 0
M  V30 55019 H 660.904 7.06433 -0.329384 0
M  V30 55020 H 659.913 6.90926 -1.82021 0
M  V30 55021 H 661.747 8.90873 -1.62657 0
M  V30 55022 P 659.876 8.03563 -3.84925 0
M  V30 55023 O 659.656 8.85821 -5.0569 0
M  V30 55024 O 659.086 8.41101 -2.65469 0
M  V30 55025 O 659.626 6.4965 -4.18908 0
M  V30 55026 C 660.566 5.81037 -5.05421 0
M  V30 55027 C 659.836 4.78366 -5.89277 0
M  V30 55028 O 659.626 3.58302 -5.08433 0
M  V30 55029 C 658.436 5.17448 -6.36119 0
M  V30 55030 O 658.046 4.45271 -7.53232 0
M  V30 55031 C 657.556 4.74639 -5.19936 0
M  V30 55032 C 658.266 3.49432 -4.70418 0
M  V30 55033 N 658.216 3.31776 -3.22945 0
M  V30 55034 H 661.055 6.54213 -5.71376 0
M  V30 55035 H 661.327 5.30492 -4.44033 0
M  V30 55036 H 660.459 4.55889 -6.76652 0
M  V30 55037 P 656.496 4.23843 -7.83734 0
M  V30 55038 O 656.276 4.19407 -9.29784 0
M  V30 55039 O 655.706 5.24426 -7.09156 0
M  V30 55040 O 656.246 2.7935 -7.20758 0
M  V30 55041 C 657.186 1.7299 -7.50419 0
M  V30 55042 C 656.456 0.406376 -7.57911 0
M  V30 55043 O 656.246 -0.0897726 -6.21935 0
M  V30 55044 C 655.056 0.447224 -8.1878 0
M  V30 55045 O 654.666 -0.825065 -8.71101 0
M  V30 55046 C 654.176 0.783801 -6.99623 0
M  V30 55047 C 654.886 0.0619192 -5.85967 0
M  V30 55048 N 654.836 0.7859 -4.56281 0
M  V30 55049 H 657.675 1.93423 -8.4679 0
M  V30 55050 H 657.947 1.68181 -6.71046 0
M  V30 55051 H 657.079 -0.289041 -8.15388 0
M  V30 55052 P 653.116 -1.17771 -8.83182 0
M  V30 55053 O 652.896 -2.07206 -9.98732 0
M  V30 55054 O 652.326 0.0743816 -8.81969 0
M  V30 55055 O 652.866 -1.97652 -7.47304 0
M  V30 55056 C 653.806 -3.01133 -7.08783 0
M  V30 55057 C 653.076 -4.12613 -6.37049 0
M  V30 55058 O 652.866 -3.72827 -4.97879 0
M  V30 55059 C 651.676 -4.45085 -6.88694 0
M  V30 55060 O 651.286 -5.7877 -6.5624 0
M  V30 55061 C 650.796 -3.47817 -6.12078 0
M  V30 55062 C 651.506 -3.39414 -4.77697 0
M  V30 55063 N 651.456 -2.04199 -4.15538 0
M  V30 55064 C 651.536 -0.821545 -4.76977 0
M  V30 55065 N 651.466 0.1794 -3.94592 0
M  V30 55066 C 651.316 -0.419121 -2.70776 0
M  V30 55067 C 651.186 0.109072 -1.40577 0
M  V30 55068 N 651.176 1.4104 -1.1344 0
M  V30 55069 N 651.066 -0.764381 -0.39411 0
M  V30 55070 C 651.076 -2.06587 -0.664135 0
M  V30 55071 N 651.196 -2.67948 -1.82153 0
M  V30 55072 C 651.316 -1.77942 -2.8147 0
M  V30 55073 H 654.295 -3.41248 -7.98759 0
M  V30 55074 H 654.567 -2.57728 -6.42 0
M  V30 55075 H 653.699 -5.02657 -6.42673 0
M  V30 55076 H 651.044 -4.11708 -4.08956 0
M  V30 55077 H 650.764 -2.49626 -6.61679 0
M  V30 55078 H 649.773 -3.8662 -6.00862 0
M  V30 55079 H 651.607 -4.29991 -7.97006 0
M  V30 55080 H 651.648 -0.702451 -5.84696 0
M  V30 55081 H 651.267 2.09647 -1.89651 0
M  V30 55082 H 651.078 1.73358 -0.160575 0
M  V30 55083 H 650.97 -2.71695 0.195838 0
M  V30 55084 P 649.736 -6.144 -6.45285 0
M  V30 55085 O 649.516 -7.54673 -6.86199 0
M  V30 55086 O 648.946 -5.12391 -7.179 0
M  V30 55087 O 649.486 -5.99158 -4.88404 0
M  V30 55088 C 650.426 -6.60234 -3.96415 0
M  V30 55089 C 649.696 -7.08259 -2.72856 0
M  V30 55090 O 649.486 -5.9427 -1.83651 0
M  V30 55091 C 648.296 -7.64886 -2.9555 0
M  V30 55092 O 647.906 -8.53963 -1.90717 0
M  V30 55093 C 647.416 -6.4116 -2.90739 0
M  V30 55094 C 648.126 -5.55375 -1.86963 0
M  V30 55095 N 648.076 -4.09664 -2.15742 0
M  V30 55096 H 650.915 -7.45574 -4.45629 0
M  V30 55097 H 651.187 -5.86232 -3.67314 0
M  V30 55098 H 650.319 -7.84412 -2.24479 0
M  V30 55099 P 646.356 -8.7635 -1.60911 0
M  V30 55100 O 646.136 -10.1388 -1.11561 0
M  V30 55101 O 645.566 -8.36503 -2.79617 0
M  V30 55102 O 646.106 -7.71806 -0.42951 0
M  V30 55103 C 647.046 -7.67148 0.673689 0
M  V30 55104 C 646.316 -7.33374 1.95559 0
M  V30 55105 O 646.106 -5.88721 2.00726 0
M  V30 55106 C 644.916 -7.92526 2.10483 0
M  V30 55107 O 644.526 -8.02971 3.47653 0
M  V30 55108 C 644.036 -6.89602 1.41652 0
M  V30 55109 C 644.746 -5.59201 1.75185 0
M  V30 55110 N 644.696 -4.58301 0.657969 0
M  V30 55111 H 647.535 -8.65116 0.777161 0
M  V30 55112 H 647.807 -6.9022 0.46725 0
M  V30 55113 H 646.939 -7.66548 2.79458 0
M  V30 55114 H 644.284 -5.16165 2.65183 0
M  V30 55115 H 644.004 -7.06433 0.329384 0
M  V30 55116 H 643.013 -6.90926 1.82021 0
M  V30 55117 H 644.847 -8.90873 1.62657 0
M  V30 55118 P 642.976 -8.03563 3.84925 0
M  V30 55119 O 642.756 -8.85821 5.0569 0
M  V30 55120 O 642.186 -8.41101 2.65469 0
M  V30 55121 O 642.726 -6.4965 4.18908 0
M  V30 55122 C 643.666 -5.81037 5.05421 0
M  V30 55123 C 642.936 -4.78366 5.89277 0
M  V30 55124 O 642.726 -3.58302 5.08433 0
M  V30 55125 C 641.536 -5.17448 6.36119 0
M  V30 55126 O 641.146 -4.45271 7.53232 0
M  V30 55127 C 640.656 -4.74639 5.19936 0
M  V30 55128 C 641.366 -3.49432 4.70418 0
M  V30 55129 N 641.316 -3.31776 3.22945 0
M  V30 55130 H 644.155 -6.54213 5.71376 0
M  V30 55131 H 644.427 -5.30492 4.44033 0
M  V30 55132 H 643.559 -4.55889 6.76652 0
M  V30 55133 P 639.596 -4.23843 7.83734 0
M  V30 55134 O 639.376 -4.19407 9.29784 0
M  V30 55135 O 638.806 -5.24426 7.09156 0
M  V30 55136 O 639.346 -2.7935 7.20758 0
M  V30 55137 C 640.286 -1.7299 7.50419 0
M  V30 55138 C 639.556 -0.406376 7.57911 0
M  V30 55139 O 639.346 0.0897726 6.21935 0
M  V30 55140 C 638.156 -0.447224 8.1878 0
M  V30 55141 O 637.766 0.825065 8.71101 0
M  V30 55142 C 637.276 -0.783801 6.99623 0
M  V30 55143 C 637.986 -0.0619192 5.85967 0
M  V30 55144 N 637.936 -0.7859 4.56281 0
M  V30 55145 H 640.775 -1.93423 8.4679 0
M  V30 55146 H 641.047 -1.68181 6.71046 0
M  V30 55147 H 640.179 0.289041 8.15388 0
M  V30 55148 P 636.216 1.17771 8.83182 0
M  V30 55149 O 635.996 2.07206 9.98732 0
M  V30 55150 O 635.426 -0.0743816 8.81969 0
M  V30 55151 O 635.966 1.97652 7.47304 0
M  V30 55152 C 636.906 3.01133 7.08783 0
M  V30 55153 C 636.176 4.12613 6.37049 0
M  V30 55154 O 635.966 3.72827 4.97879 0
M  V30 55155 C 634.776 4.45085 6.88694 0
M  V30 55156 O 634.386 5.7877 6.5624 0
M  V30 55157 C 633.896 3.47817 6.12078 0
M  V30 55158 C 634.606 3.39414 4.77697 0
M  V30 55159 N 634.556 2.04199 4.15538 0
M  V30 55160 H 637.395 3.41248 7.98759 0
M  V30 55161 H 637.667 2.57728 6.42 0
M  V30 55162 H 636.799 5.02657 6.42673 0
M  V30 55163 H 634.144 4.11708 4.08956 0
M  V30 55164 H 633.864 2.49626 6.61679 0
M  V30 55165 H 632.873 3.8662 6.00862 0
M  V30 55166 H 634.707 4.29991 7.97006 0
M  V30 55167 P 632.836 6.144 6.45285 0
M  V30 55168 O 632.616 7.54673 6.86199 0
M  V30 55169 O 632.046 5.12391 7.179 0
M  V30 55170 O 632.586 5.99158 4.88404 0
M  V30 55171 C 633.526 6.60234 3.96415 0
M  V30 55172 C 632.796 7.08259 2.72856 0
M  V30 55173 O 632.586 5.9427 1.83651 0
M  V30 55174 C 631.396 7.64886 2.9555 0
M  V30 55175 O 631.006 8.53963 1.90717 0
M  V30 55176 C 630.516 6.4116 2.90739 0
M  V30 55177 C 631.226 5.55375 1.86963 0
M  V30 55178 N 631.176 4.09448 2.16152 0
M  V30 55179 H 634.015 7.45574 4.45629 0
M  V30 55180 H 634.287 5.85864 3.679 0
M  V30 55181 H 633.419 7.84412 2.24479 0
M  V30 55182 H 630.764 5.73457 0.888562 0
M  V30 55183 H 630.484 5.90877 3.88583 0
M  V30 55184 H 629.493 6.6596 2.58858 0
M  V30 55185 H 631.327 8.16339 3.92049 0
M  V30 55186 P 629.456 8.7635 1.60911 0
M  V30 55187 O 629.236 10.1388 1.11561 0
M  V30 55188 O 628.666 8.36503 2.79617 0
M  V30 55189 O 629.206 7.71806 0.42951 0
M  V30 55190 C 630.146 7.67148 -0.673689 0
M  V30 55191 C 629.416 7.33374 -1.95559 0
M  V30 55192 O 629.206 5.88721 -2.00726 0
M  V30 55193 C 628.016 7.92526 -2.10483 0
M  V30 55194 O 627.626 8.02971 -3.47653 0
M  V30 55195 C 627.136 6.89602 -1.41652 0
M  V30 55196 C 627.846 5.59201 -1.75185 0
M  V30 55197 N 627.796 4.58235 -0.662552 0
M  V30 55198 C 627.876 4.7683 0.704049 0
M  V30 55199 N 627.796 3.66233 1.39775 0
M  V30 55200 C 627.656 2.66526 0.431739 0
M  V30 55201 C 627.526 1.26394 0.575992 0
M  V30 55202 N 627.406 0.62859 -0.67177 0
M  V30 55203 C 627.406 1.27134 -1.89385 0
M  V30 55204 N 627.276 0.492035 -2.96951 0
M  V30 55205 N 627.536 2.58978 -2.02907 0
M  V30 55206 C 627.656 3.22433 -0.832218 0
M  V30 55207 H 630.635 8.65116 -0.777161 0
M  V30 55208 H 630.907 6.90173 -0.474152 0
M  V30 55209 H 630.039 7.66548 -2.79458 0
M  V30 55210 P 626.076 8.03563 -3.84925 0
M  V30 55211 O 625.856 8.85821 -5.0569 0
M  V30 55212 O 625.286 8.41101 -2.65469 0
M  V30 55213 O 625.826 6.4965 -4.18908 0
M  V30 55214 C 626.766 5.81037 -5.05421 0
M  V30 55215 C 626.036 4.78366 -5.89277 0
M  V30 55216 O 625.826 3.58302 -5.08433 0
M  V30 55217 C 624.636 5.17448 -6.36119 0
M  V30 55218 O 624.246 4.45271 -7.53232 0
M  V30 55219 C 623.756 4.74639 -5.19936 0
M  V30 55220 C 624.466 3.49432 -4.70418 0
M  V30 55221 N 624.416 3.31776 -3.22945 0
M  V30 55222 H 627.255 6.54213 -5.71376 0
M  V30 55223 H 627.527 5.30492 -4.44033 0
M  V30 55224 H 626.659 4.55889 -6.76652 0
M  V30 55225 P 622.696 4.23843 -7.83734 0
M  V30 55226 O 622.476 4.19407 -9.29784 0
M  V30 55227 O 621.906 5.24426 -7.09156 0
M  V30 55228 O 622.446 2.7935 -7.20758 0
M  V30 55229 C 623.386 1.72945 -7.50224 0
M  V30 55230 C 622.656 0.406376 -7.57911 0
M  V30 55231 O 622.446 -0.0897726 -6.21935 0
M  V30 55232 C 621.256 0.438983 -8.18724 0
M  V30 55233 O 620.866 -0.825065 -8.71101 0
M  V30 55234 C 620.376 0.783689 -6.99524 0
M  V30 55235 C 621.086 0.0619086 -5.85867 0
M  V30 55236 N 621.036 0.78573 -4.56183 0
M  V30 55237 C 620.886 0.0292889 -3.41887 0
M  V30 55238 O 620.796 -1.18445 -3.4419 0
M  V30 55239 N 620.846 0.744061 -2.23964 0
M  V30 55240 C 620.936 2.10932 -2.10362 0
M  V30 55241 C 621.086 2.8202 -3.34994 0
M  V30 55242 C 621.136 2.15547 -4.52261 0
M  V30 55243 H 623.877 1.93379 -8.46595 0
M  V30 55244 H 624.146 1.68132 -6.70852 0
M  V30 55245 H 623.279 -0.289041 -8.15388 0
M  V30 55246 H 620.624 -0.926847 -5.72749 0
M  V30 55247 H 620.345 1.86973 -6.82036 0
M  V30 55248 H 619.353 0.403896 -7.13257 0
M  V30 55249 H 621.187 1.20585 -8.97435 0
M  V30 55250 H 621.258 2.71231 -5.45042 0
M  V30 55251 P 619.316 -1.17771 -8.83182 0
M  V30 55252 O 619.096 -2.07206 -9.98732 0
M  V30 55253 O 618.526 0.0743816 -8.81969 0
M  V30 55254 O 619.066 -1.97652 -7.47304 0
M  V30 55255 C 620.006 -3.01133 -7.08783 0
M  V30 55256 C 619.276 -4.12613 -6.37049 0
M  V30 55257 O 619.066 -3.72827 -4.97879 0
M  V30 55258 C 617.876 -4.45085 -6.88694 0
M  V30 55259 O 617.486 -5.7877 -6.5624 0
M  V30 55260 C 616.996 -3.47817 -6.12078 0
M  V30 55261 C 617.706 -3.39414 -4.77697 0
M  V30 55262 N 617.656 -2.04199 -4.15538 0
M  V30 55263 H 620.495 -3.41248 -7.98759 0
M  V30 55264 H 620.767 -2.57728 -6.42 0
M  V30 55265 H 619.899 -5.02657 -6.42673 0
M  V30 55266 H 617.244 -4.11708 -4.08956 0
M  V30 55267 H 616.964 -2.49626 -6.61679 0
M  V30 55268 H 615.973 -3.8662 -6.00862 0
M  V30 55269 H 617.807 -4.29991 -7.97006 0
M  V30 55270 P 615.936 -6.144 -6.45285 0
M  V30 55271 O 615.716 -7.54673 -6.86199 0
M  V30 55272 O 615.146 -5.12391 -7.179 0
M  V30 55273 O 615.686 -5.99158 -4.88404 0
M  V30 55274 C 616.626 -6.60062 -3.96313 0
M  V30 55275 C 615.896 -7.08259 -2.72856 0
M  V30 55276 O 615.686 -5.9427 -1.83651 0
M  V30 55277 C 614.496 -7.65087 -2.94749 0
M  V30 55278 O 614.106 -8.53963 -1.90717 0
M  V30 55279 C 613.616 -6.41069 -2.90698 0
M  V30 55280 C 614.326 -5.5528 -1.86931 0
M  V30 55281 N 614.276 -4.09575 -2.15696 0
M  V30 55282 C 614.126 -3.24249 -1.08435 0
M  V30 55283 O 614.036 -3.63946 0.0628747 0
M  V30 55284 N 614.086 -1.90009 -1.39973 0
M  V30 55285 C 614.176 -1.34884 -2.65614 0
M  V30 55286 O 614.126 -0.123716 -2.81728 0
M  V30 55287 C 614.326 -2.3145 -3.71736 0
M  V30 55288 C 614.436 -1.75913 -5.10438 0
M  V30 55289 C 614.376 -3.63518 -3.44754 0
M  V30 55290 H 617.117 -7.45402 -4.45526 0
M  V30 55291 H 617.386 -5.86062 -3.67208 0
M  V30 55292 H 616.519 -7.84412 -2.24479 0
M  V30 55293 H 613.864 -5.73358 -0.888409 0
M  V30 55294 H 613.585 -5.90877 -3.88583 0
M  V30 55295 H 612.593 -6.65867 -2.58821 0
M  V30 55296 H 614.427 -8.16248 -3.92006 0
M  V30 55297 H 614.498 -4.34551 -4.26383 0
M  V30 55298 H 613.468 -1.85471 -5.61775 0
M  V30 55299 H 615.205 -2.31364 -5.66257 0
M  V30 55300 H 614.717 -0.695936 -5.05229 0
M  V30 55301 H 613.981 -1.26277 -0.63625 0
M  V30 55302 P 612.556 -8.7635 -1.60911 0
M  V30 55303 O 612.336 -10.1388 -1.11561 0
M  V30 55304 O 611.766 -8.36503 -2.79617 0
M  V30 55305 O 612.306 -7.71806 -0.42951 0
M  V30 55306 C 613.246 -7.67148 0.673689 0
M  V30 55307 C 612.516 -7.33374 1.95559 0
M  V30 55308 O 612.306 -5.88721 2.00726 0
M  V30 55309 C 611.116 -7.92526 2.10483 0
M  V30 55310 O 610.726 -8.02971 3.47653 0
M  V30 55311 C 610.236 -6.89602 1.41652 0
M  V30 55312 C 610.946 -5.59201 1.75185 0
M  V30 55313 N 610.896 -4.58301 0.657969 0
M  V30 55314 C 610.976 -4.79019 -0.692603 0
M  V30 55315 N 610.906 -3.69736 -1.38998 0
M  V30 55316 C 610.756 -2.70474 -0.438135 0
M  V30 55317 C 610.626 -1.30327 -0.538142 0
M  V30 55318 N 610.616 -0.64304 -1.69192 0
M  V30 55319 N 610.506 -0.611027 0.605183 0
M  V30 55320 C 610.516 -1.27002 1.75953 0
M  V30 55321 N 610.636 -2.56038 1.98546 0
M  V30 55322 C 610.756 -3.22681 0.822541 0
M  V30 55323 H 613.735 -8.65116 0.777161 0
M  V30 55324 H 614.007 -6.9022 0.46725 0
M  V30 55325 H 613.139 -7.66548 2.79458 0
M  V30 55326 H 610.484 -5.16165 2.65183 0
M  V30 55327 H 610.204 -7.06433 0.329384 0
M  V30 55328 H 609.213 -6.90926 1.82021 0
M  V30 55329 H 611.047 -8.90873 1.62657 0
M  V30 55330 H 611.088 -5.77785 -1.13874 0
M  V30 55331 H 610.707 -1.15585 -2.57991 0
M  V30 55332 H 610.518 0.382989 -1.69835 0
M  V30 55333 H 610.41 -0.653331 2.64449 0
M  V30 55334 P 609.176 -8.03563 3.84925 0
M  V30 55335 O 608.956 -8.85821 5.0569 0
M  V30 55336 O 608.386 -8.41101 2.65469 0
M  V30 55337 O 608.926 -6.4965 4.18908 0
M  V30 55338 C 609.866 -5.81037 5.05421 0
M  V30 55339 C 609.136 -4.78366 5.89277 0
M  V30 55340 O 608.926 -3.58302 5.08433 0
M  V30 55341 C 607.736 -5.17448 6.36119 0
M  V30 55342 O 607.346 -4.45271 7.53232 0
M  V30 55343 C 606.856 -4.74639 5.19936 0
M  V30 55344 C 607.566 -3.49432 4.70418 0
M  V30 55345 N 607.516 -3.31776 3.22945 0
M  V30 55346 H 610.355 -6.54213 5.71376 0
M  V30 55347 H 610.627 -5.30492 4.44033 0
M  V30 55348 H 609.759 -4.55889 6.76652 0
M  V30 55349 P 605.796 -4.23843 7.83734 0
M  V30 55350 O 605.576 -4.19407 9.29784 0
M  V30 55351 O 605.006 -5.24426 7.09156 0
M  V30 55352 O 605.546 -2.7935 7.20758 0
M  V30 55353 C 606.486 -1.7299 7.50419 0
M  V30 55354 C 605.756 -0.406376 7.57911 0
M  V30 55355 O 605.546 0.0897726 6.21935 0
M  V30 55356 C 604.356 -0.447224 8.1878 0
M  V30 55357 O 603.966 0.825065 8.71101 0
M  V30 55358 C 603.476 -0.783801 6.99623 0
M  V30 55359 C 604.186 -0.0619192 5.85967 0
M  V30 55360 N 604.136 -0.7859 4.56281 0
M  V30 55361 H 606.975 -1.93423 8.4679 0
M  V30 55362 H 607.247 -1.68181 6.71046 0
M  V30 55363 H 606.379 0.289041 8.15388 0
M  V30 55364 P 602.416 1.17771 8.83182 0
M  V30 55365 O 602.196 2.07206 9.98732 0
M  V30 55366 O 601.626 -0.0743816 8.81969 0
M  V30 55367 O 602.166 1.97652 7.47304 0
M  V30 55368 C 603.106 3.01133 7.08783 0
M  V30 55369 C 602.376 4.12613 6.37049 0
M  V30 55370 O 602.166 3.72827 4.97879 0
M  V30 55371 C 600.976 4.45085 6.88694 0
M  V30 55372 O 600.586 5.7877 6.5624 0
M  V30 55373 C 600.096 3.47817 6.12078 0
M  V30 55374 C 600.806 3.39414 4.77697 0
M  V30 55375 N 600.756 2.04199 4.15538 0
M  V30 55376 C 600.836 0.821545 4.76977 0
M  V30 55377 N 600.766 -0.1794 3.94592 0
M  V30 55378 C 600.616 0.419121 2.70776 0
M  V30 55379 C 600.486 -0.109072 1.40577 0
M  V30 55380 N 600.476 -1.4104 1.1344 0
M  V30 55381 N 600.366 0.764381 0.39411 0
M  V30 55382 C 600.376 2.06587 0.664135 0
M  V30 55383 N 600.496 2.67948 1.82153 0
M  V30 55384 C 600.616 1.77942 2.8147 0
M  V30 55385 H 603.595 3.41248 7.98759 0
M  V30 55386 H 603.867 2.57728 6.42 0
M  V30 55387 H 602.999 5.02657 6.42673 0
M  V30 55388 H 600.344 4.11708 4.08956 0
M  V30 55389 H 600.064 2.49626 6.61679 0
M  V30 55390 H 599.073 3.8662 6.00862 0
M  V30 55391 H 600.907 4.29991 7.97006 0
M  V30 55392 H 600.948 0.702451 5.84696 0
M  V30 55393 H 600.567 -2.09647 1.89651 0
M  V30 55394 H 600.378 -1.73358 0.160575 0
M  V30 55395 H 600.27 2.71695 -0.195838 0
M  V30 55396 P 599.036 6.144 6.45285 0
M  V30 55397 O 598.816 7.54673 6.86199 0
M  V30 55398 O 598.246 5.12391 7.179 0
M  V30 55399 O 598.786 5.99158 4.88404 0
M  V30 55400 C 599.726 6.60234 3.96415 0
M  V30 55401 C 598.996 7.08259 2.72856 0
M  V30 55402 O 598.786 5.9427 1.83651 0
M  V30 55403 C 597.596 7.64886 2.9555 0
M  V30 55404 O 597.206 8.53963 1.90717 0
M  V30 55405 C 596.716 6.4116 2.90739 0
M  V30 55406 C 597.426 5.55375 1.86963 0
M  V30 55407 N 597.376 4.09664 2.15742 0
M  V30 55408 H 600.215 7.45574 4.45629 0
M  V30 55409 H 600.487 5.86232 3.67314 0
M  V30 55410 H 599.619 7.84412 2.24479 0
M  V30 55411 P 595.656 8.7635 1.60911 0
M  V30 55412 O 595.436 10.1388 1.11561 0
M  V30 55413 O 594.866 8.36503 2.79617 0
M  V30 55414 O 595.406 7.71806 0.42951 0
M  V30 55415 C 596.346 7.67148 -0.673689 0
M  V30 55416 C 595.616 7.33374 -1.95559 0
M  V30 55417 O 595.406 5.88721 -2.00726 0
M  V30 55418 C 594.216 7.92526 -2.10483 0
M  V30 55419 O 593.826 8.02971 -3.47653 0
M  V30 55420 C 593.336 6.89602 -1.41652 0
M  V30 55421 C 594.046 5.59201 -1.75185 0
M  V30 55422 N 593.996 4.58301 -0.657969 0
M  V30 55423 H 596.835 8.65116 -0.777161 0
M  V30 55424 H 597.107 6.9022 -0.46725 0
M  V30 55425 H 596.239 7.66548 -2.79458 0
M  V30 55426 H 593.584 5.16165 -2.65183 0
M  V30 55427 H 593.304 7.06433 -0.329384 0
M  V30 55428 H 592.313 6.90926 -1.82021 0
M  V30 55429 H 594.147 8.90873 -1.62657 0
M  V30 55430 P 592.277 8.03563 -3.84925 0
M  V30 55431 O 592.057 8.85821 -5.0569 0
M  V30 55432 O 591.487 8.41101 -2.65469 0
M  V30 55433 O 592.027 6.4965 -4.18908 0
M  V30 55434 C 592.967 5.81037 -5.05421 0
M  V30 55435 C 592.237 4.78366 -5.89277 0
M  V30 55436 O 592.027 3.58302 -5.08433 0
M  V30 55437 C 590.837 5.17448 -6.36119 0
M  V30 55438 O 590.447 4.45271 -7.53232 0
M  V30 55439 C 589.957 4.74639 -5.19936 0
M  V30 55440 C 590.667 3.49432 -4.70418 0
M  V30 55441 N 590.617 3.32099 -3.22613 0
M  V30 55442 C 590.697 4.28245 -2.25527 0
M  V30 55443 N 590.627 3.80823 -1.04874 0
M  V30 55444 C 590.477 2.44571 -1.23535 0
M  V30 55445 C 590.347 1.37068 -0.330675 0
M  V30 55446 N 590.337 1.51472 0.990824 0
M  V30 55447 N 590.227 0.138614 -0.848756 0
M  V30 55448 C 590.237 -0.00675923 -2.16999 0
M  V30 55449 N 590.357 0.904372 -3.11122 0
M  V30 55450 C 590.477 2.12707 -2.56212 0
M  V30 55451 H 593.456 6.54213 -5.71376 0
M  V30 55452 H 593.728 5.30936 -4.43503 0
M  V30 55453 H 592.86 4.55889 -6.76652 0
M  V30 55454 H 590.205 2.61715 -5.17932 0
M  V30 55455 H 589.925 5.52155 -4.41878 0
M  V30 55456 H 588.934 4.51981 -5.53374 0
M  V30 55457 H 590.768 6.25124 -6.55234 0
M  V30 55458 H 590.809 5.34372 -2.47488 0
M  V30 55459 H 590.428 2.45153 1.4078 0
M  V30 55460 H 590.239 0.688422 1.59911 0
M  V30 55461 H 590.131 -1.02584 -2.52346 0
M  V30 55462 P 588.897 4.23843 -7.83734 0
M  V30 55463 O 588.677 4.19407 -9.29784 0
M  V30 55464 O 588.107 5.24426 -7.09156 0
M  V30 55465 O 588.647 2.7935 -7.20758 0
M  V30 55466 C 589.587 1.7299 -7.50419 0
M  V30 55467 C 588.857 0.406376 -7.57911 0
M  V30 55468 O 588.647 -0.0897726 -6.21935 0
M  V30 55469 C 587.457 0.447224 -8.1878 0
M  V30 55470 O 587.067 -0.825065 -8.71101 0
M  V30 55471 C 586.577 0.783801 -6.99623 0
M  V30 55472 C 587.287 0.0619192 -5.85967 0
M  V30 55473 N 587.237 0.790462 -4.56202 0
M  V30 55474 H 590.076 1.93423 -8.4679 0
M  V30 55475 H 590.348 1.68852 -6.70877 0
M  V30 55476 H 589.48 -0.289041 -8.15388 0
M  V30 55477 H 586.825 -0.927006 -5.72848 0
M  V30 55478 H 586.545 1.86973 -6.82036 0
M  V30 55479 H 585.554 0.403953 -7.13357 0
M  V30 55480 H 587.388 1.20599 -8.97534 0
M  V30 55481 P 585.517 -1.17771 -8.83182 0
M  V30 55482 O 585.297 -2.07206 -9.98732 0
M  V30 55483 O 584.727 0.0743816 -8.81969 0
M  V30 55484 O 585.267 -1.97652 -7.47304 0
M  V30 55485 C 586.207 -3.01133 -7.08783 0
M  V30 55486 C 585.477 -4.12613 -6.37049 0
M  V30 55487 O 585.267 -3.72827 -4.97879 0
M  V30 55488 C 584.077 -4.45085 -6.88694 0
M  V30 55489 O 583.687 -5.7877 -6.5624 0
M  V30 55490 C 583.197 -3.47817 -6.12078 0
M  V30 55491 C 583.907 -3.39414 -4.77697 0
M  V30 55492 N 583.857 -2.04615 -4.15333 0
M  V30 55493 H 586.696 -3.41248 -7.98759 0
M  V30 55494 H 586.968 -2.5837 -6.41742 0
M  V30 55495 H 586.1 -5.02657 -6.42673 0
M  V30 55496 P 582.137 -6.144 -6.45285 0
M  V30 55497 O 581.917 -7.54673 -6.86199 0
M  V30 55498 O 581.347 -5.12391 -7.179 0
M  V30 55499 O 581.887 -5.99158 -4.88404 0
M  V30 55500 C 582.827 -6.60234 -3.96415 0
M  V30 55501 C 582.097 -7.08259 -2.72856 0
M  V30 55502 O 581.887 -5.9427 -1.83651 0
M  V30 55503 C 580.697 -7.64886 -2.9555 0
M  V30 55504 O 580.307 -8.53963 -1.90717 0
M  V30 55505 C 579.817 -6.4116 -2.90739 0
M  V30 55506 C 580.527 -5.55375 -1.86963 0
M  V30 55507 N 580.477 -4.09664 -2.15742 0
M  V30 55508 H 583.316 -7.45574 -4.45629 0
M  V30 55509 H 583.588 -5.86232 -3.67314 0
M  V30 55510 H 582.72 -7.84412 -2.24479 0
M  V30 55511 P 578.757 -8.7635 -1.60911 0
M  V30 55512 O 578.537 -10.1388 -1.11561 0
M  V30 55513 O 577.967 -8.36503 -2.79617 0
M  V30 55514 O 578.507 -7.71806 -0.42951 0
M  V30 55515 C 579.447 -7.67148 0.673689 0
M  V30 55516 C 578.717 -7.33374 1.95559 0
M  V30 55517 O 578.507 -5.88721 2.00726 0
M  V30 55518 C 577.317 -7.92526 2.10483 0
M  V30 55519 O 576.927 -8.02971 3.47653 0
M  V30 55520 C 576.437 -6.89602 1.41652 0
M  V30 55521 C 577.147 -5.59201 1.75185 0
M  V30 55522 N 577.097 -4.58235 0.662552 0
M  V30 55523 H 579.936 -8.65116 0.777161 0
M  V30 55524 H 580.208 -6.90173 0.474152 0
M  V30 55525 H 579.34 -7.66548 2.79458 0
M  V30 55526 P 575.377 -8.03563 3.84925 0
M  V30 55527 O 575.157 -8.85821 5.0569 0
M  V30 55528 O 574.587 -8.41101 2.65469 0
M  V30 55529 O 575.127 -6.4965 4.18908 0
M  V30 55530 C 576.067 -5.81037 5.05421 0
M  V30 55531 C 575.337 -4.78366 5.89277 0
M  V30 55532 O 575.127 -3.58302 5.08433 0
M  V30 55533 C 573.937 -5.17448 6.36119 0
M  V30 55534 O 573.547 -4.45271 7.53232 0
M  V30 55535 C 573.057 -4.74639 5.19936 0
M  V30 55536 C 573.767 -3.49432 4.70418 0
M  V30 55537 N 573.717 -3.31776 3.22945 0
M  V30 55538 C 573.797 -4.27147 2.23315 0
M  V30 55539 N 573.717 -3.78447 1.02186 0
M  V30 55540 C 573.577 -2.41001 1.21732 0
M  V30 55541 C 573.447 -1.36111 0.27694 0
M  V30 55542 O 573.427 -1.42065 -0.951767 0
M  V30 55543 N 573.327 -0.113683 0.912949 0
M  V30 55544 C 573.327 0.0846396 2.27943 0
M  V30 55545 N 573.197 1.34737 2.6916 0
M  V30 55546 N 573.457 -0.902521 3.16379 0
M  V30 55547 C 573.577 -2.11937 2.56849 0
M  V30 55548 H 576.556 -6.54213 5.71376 0
M  V30 55549 H 576.828 -5.30492 4.44033 0
M  V30 55550 H 575.96 -4.55889 6.76652 0
M  V30 55551 H 573.305 -2.6176 5.18021 0
M  V30 55552 H 573.025 -5.52233 4.41941 0
M  V30 55553 H 572.034 -4.52045 5.53452 0
M  V30 55554 H 573.868 -6.25193 6.55307 0
M  V30 55555 H 573.917 -5.3351 2.43857 0
M  V30 55556 H 573.235 0.69331 0.330371 0
M  V30 55557 H 573.198 1.56433 3.6988 0
M  V30 55558 H 573.097 2.10701 2.00133 0
M  V30 55559 P 571.997 -4.23843 7.83734 0
M  V30 55560 O 571.777 -4.19407 9.29784 0
M  V30 55561 O 571.207 -5.24426 7.09156 0
M  V30 55562 O 571.747 -2.7935 7.20758 0
M  V30 55563 C 572.687 -1.7299 7.50419 0
M  V30 55564 C 571.957 -0.406376 7.57911 0
M  V30 55565 O 571.747 0.0897726 6.21935 0
M  V30 55566 C 570.557 -0.447224 8.1878 0
M  V30 55567 O 570.167 0.825065 8.71101 0
M  V30 55568 C 569.677 -0.783801 6.99623 0
M  V30 55569 C 570.387 -0.0619192 5.85967 0
M  V30 55570 N 570.337 -0.7859 4.56281 0
M  V30 55571 H 573.176 -1.93423 8.4679 0
M  V30 55572 H 573.448 -1.68181 6.71046 0
M  V30 55573 H 572.58 0.289041 8.15388 0
M  V30 55574 P 568.617 1.17771 8.83182 0
M  V30 55575 O 568.397 2.07206 9.98732 0
M  V30 55576 O 567.827 -0.0743816 8.81969 0
M  V30 55577 O 568.367 1.97652 7.47304 0
M  V30 55578 C 569.307 3.01133 7.08783 0
M  V30 55579 C 568.577 4.12613 6.37049 0
M  V30 55580 O 568.367 3.72827 4.97879 0
M  V30 55581 C 567.177 4.45085 6.88694 0
M  V30 55582 O 566.787 5.7877 6.5624 0
M  V30 55583 C 566.297 3.47817 6.12078 0
M  V30 55584 C 567.007 3.39414 4.77697 0
M  V30 55585 N 566.957 2.04199 4.15538 0
M  V30 55586 H 569.796 3.41248 7.98759 0
M  V30 55587 H 570.068 2.57728 6.42 0
M  V30 55588 H 569.2 5.02657 6.42673 0
M  V30 55589 H 566.545 4.11708 4.08956 0
M  V30 55590 H 566.265 2.49626 6.61679 0
M  V30 55591 H 565.274 3.8662 6.00862 0
M  V30 55592 H 567.108 4.29991 7.97006 0
M  V30 55593 P 565.237 6.144 6.45285 0
M  V30 55594 O 565.017 7.54673 6.86199 0
M  V30 55595 O 564.447 5.12391 7.179 0
M  V30 55596 O 564.987 5.99158 4.88404 0
M  V30 55597 C 565.927 6.60062 3.96313 0
M  V30 55598 C 565.197 7.08259 2.72856 0
M  V30 55599 O 564.987 5.9427 1.83651 0
M  V30 55600 C 563.797 7.65087 2.94749 0
M  V30 55601 O 563.407 8.53963 1.90717 0
M  V30 55602 C 562.917 6.41069 2.90698 0
M  V30 55603 C 563.627 5.5528 1.86931 0
M  V30 55604 N 563.577 4.09575 2.15696 0
M  V30 55605 C 563.427 3.24249 1.08435 0
M  V30 55606 O 563.337 3.63946 -0.0628747 0
M  V30 55607 N 563.387 1.90009 1.39973 0
M  V30 55608 C 563.477 1.34884 2.65614 0
M  V30 55609 O 563.427 0.123716 2.81728 0
M  V30 55610 C 563.627 2.3145 3.71736 0
M  V30 55611 C 563.737 1.75913 5.10438 0
M  V30 55612 C 563.677 3.63518 3.44754 0
M  V30 55613 H 566.418 7.45402 4.45526 0
M  V30 55614 H 566.687 5.86062 3.67208 0
M  V30 55615 H 565.82 7.84412 2.24479 0
M  V30 55616 H 563.165 5.73358 0.888409 0
M  V30 55617 H 562.886 5.90877 3.88583 0
M  V30 55618 H 561.894 6.65867 2.58821 0
M  V30 55619 H 563.728 8.16248 3.92006 0
M  V30 55620 H 563.799 4.34551 4.26383 0
M  V30 55621 H 562.769 1.85471 5.61775 0
M  V30 55622 H 564.506 2.31364 5.66257 0
M  V30 55623 H 564.018 0.695936 5.05229 0
M  V30 55624 H 563.282 1.26277 0.63625 0
M  V30 55625 P 561.857 8.7635 1.60911 0
M  V30 55626 O 561.637 10.1388 1.11561 0
M  V30 55627 O 561.067 8.36503 2.79617 0
M  V30 55628 O 561.607 7.71906 0.429565 0
M  V30 55629 C 562.547 7.67148 -0.673689 0
M  V30 55630 C 561.817 7.33666 -1.94851 0
M  V30 55631 O 561.607 5.88816 -2.00759 0
M  V30 55632 C 560.417 7.92526 -2.10483 0
M  V30 55633 O 560.027 8.03063 -3.47693 0
M  V30 55634 C 559.537 6.89602 -1.41652 0
M  V30 55635 C 560.247 5.59201 -1.75185 0
M  V30 55636 N 560.197 4.58235 -0.662552 0
M  V30 55637 C 560.047 3.24451 -1.01643 0
M  V30 55638 O 559.957 2.94958 -2.21722 0
M  V30 55639 N 559.997 2.30408 0.165238 0
M  V30 55640 C 560.097 2.66048 1.25118 0
M  V30 55641 N 560.047 1.70787 2.16813 0
M  V30 55642 C 560.247 4.02732 1.64413 0
M  V30 55643 C 560.297 4.9488 0.63991 0
M  V30 55644 H 563.037 8.65017 -0.777072 0
M  V30 55645 H 563.307 6.90173 -0.474152 0
M  V30 55646 H 562.44 7.66642 -2.79492 0
M  V30 55647 H 559.785 5.16254 -2.65229 0
M  V30 55648 H 559.505 7.06532 -0.329431 0
M  V30 55649 H 558.514 6.91023 -1.82047 0
M  V30 55650 H 560.348 8.90873 -1.62657 0
M  V30 55651 H 560.42 6.00104 0.892197 0
M  V30 55652 H 560.318 4.31733 2.69229 0
M  V30 55653 H 559.93 0.724835 1.8844 0
M  V30 55654 H 560.126 1.94716 3.16734 0
M  V30 55655 P 558.477 8.03563 -3.84925 0
M  V30 55656 O 558.257 8.85821 -5.0569 0
M  V30 55657 O 557.687 8.41101 -2.65469 0
M  V30 55658 O 558.227 6.4965 -4.18908 0
M  V30 55659 C 559.167 5.81037 -5.05421 0
M  V30 55660 C 558.437 4.78366 -5.89277 0
M  V30 55661 O 558.227 3.58302 -5.08433 0
M  V30 55662 C 557.037 5.17448 -6.36119 0
M  V30 55663 O 556.647 4.45271 -7.53232 0
M  V30 55664 C 556.157 4.74639 -5.19936 0
M  V30 55665 C 556.867 3.49432 -4.70418 0
M  V30 55666 N 556.817 3.31776 -3.22945 0
M  V30 55667 C 556.897 4.27147 -2.23315 0
M  V30 55668 N 556.817 3.78447 -1.02186 0
M  V30 55669 C 556.677 2.41001 -1.21732 0
M  V30 55670 C 556.547 1.36111 -0.27694 0
M  V30 55671 N 556.427 0.113683 -0.912949 0
M  V30 55672 C 556.427 -0.0846396 -2.27943 0
M  V30 55673 N 556.297 -1.34737 -2.6916 0
M  V30 55674 N 556.557 0.902521 -3.16379 0
M  V30 55675 C 556.677 2.11937 -2.56849 0
M  V30 55676 H 559.656 6.54213 -5.71376 0
M  V30 55677 H 559.928 5.30492 -4.44033 0
M  V30 55678 H 559.06 4.55889 -6.76652 0
M  V30 55679 P 555.097 4.23843 -7.83734 0
M  V30 55680 O 554.877 4.19407 -9.29784 0
M  V30 55681 O 554.307 5.24426 -7.09156 0
M  V30 55682 O 554.847 2.79386 -7.20852 0
M  V30 55683 C 555.787 1.7299 -7.50419 0
M  V30 55684 C 555.057 0.41401 -7.5797 0
M  V30 55685 O 554.847 -0.089787 -6.22035 0
M  V30 55686 C 553.657 0.447224 -8.1878 0
M  V30 55687 O 553.267 -0.825159 -8.71201 0
M  V30 55688 C 552.777 0.783801 -6.99623 0
M  V30 55689 C 553.487 0.0619192 -5.85967 0
M  V30 55690 N 553.437 0.7859 -4.56281 0
M  V30 55691 C 553.287 0.0359258 -3.39981 0
M  V30 55692 O 553.197 -1.19723 -3.49038 0
M  V30 55693 N 553.237 0.869151 -2.14025 0
M  V30 55694 C 553.337 2.01207 -2.14363 0
M  V30 55695 N 553.287 2.58978 -0.954287 0
M  V30 55696 C 553.487 2.80817 -3.32215 0
M  V30 55697 C 553.537 2.13785 -4.50884 0
M  V30 55698 H 556.277 1.93401 -8.46693 0
M  V30 55699 H 556.547 1.68181 -6.71046 0
M  V30 55700 H 555.68 -0.289076 -8.15488 0
M  V30 55701 H 553.025 -0.927166 -5.72947 0
M  V30 55702 H 552.745 1.87 -6.82132 0
M  V30 55703 H 551.754 0.404009 -7.13457 0
M  V30 55704 H 553.588 1.20599 -8.97534 0
M  V30 55705 H 553.66 2.70295 -5.43162 0
M  V30 55706 H 553.558 3.89465 -3.27406 0
M  V30 55707 H 553.17 2.01616 -0.107046 0
M  V30 55708 H 553.366 3.61403 -0.873101 0
M  V30 55709 P 551.717 -1.17771 -8.83182 0
M  V30 55710 O 551.497 -2.07206 -9.98732 0
M  V30 55711 O 550.927 0.0743816 -8.81969 0
M  V30 55712 O 551.467 -1.97652 -7.47304 0
M  V30 55713 C 552.407 -3.01133 -7.08783 0
M  V30 55714 C 551.677 -4.12613 -6.37049 0
M  V30 55715 O 551.467 -3.72827 -4.97879 0
M  V30 55716 C 550.277 -4.45085 -6.88694 0
M  V30 55717 O 549.887 -5.7877 -6.5624 0
M  V30 55718 C 549.397 -3.47817 -6.12078 0
M  V30 55719 C 550.107 -3.39414 -4.77697 0
M  V30 55720 N 550.057 -2.04615 -4.15333 0
M  V30 55721 H 552.896 -3.41248 -7.98759 0
M  V30 55722 H 553.168 -2.5837 -6.41742 0
M  V30 55723 H 552.3 -5.02657 -6.42673 0
M  V30 55724 P 548.337 -6.144 -6.45285 0
M  V30 55725 O 548.117 -7.54673 -6.86199 0
M  V30 55726 O 547.547 -5.12391 -7.179 0
M  V30 55727 O 548.087 -5.99158 -4.88404 0
M  V30 55728 C 549.027 -6.60062 -3.96313 0
M  V30 55729 C 548.297 -7.08259 -2.72856 0
M  V30 55730 O 548.087 -5.9427 -1.83651 0
M  V30 55731 C 546.897 -7.65087 -2.94749 0
M  V30 55732 O 546.507 -8.53963 -1.90717 0
M  V30 55733 C 546.017 -6.41069 -2.90698 0
M  V30 55734 C 546.727 -5.5528 -1.86931 0
M  V30 55735 N 546.677 -4.09575 -2.15696 0
M  V30 55736 C 546.527 -3.24249 -1.08435 0
M  V30 55737 O 546.437 -3.63946 0.0628747 0
M  V30 55738 N 546.487 -1.90009 -1.39973 0
M  V30 55739 C 546.577 -1.34884 -2.65614 0
M  V30 55740 C 546.727 -2.3145 -3.71736 0
M  V30 55741 C 546.777 -3.63518 -3.44754 0
M  V30 55742 H 549.518 -7.45402 -4.45526 0
M  V30 55743 H 549.787 -5.86062 -3.67208 0
M  V30 55744 H 548.92 -7.84412 -2.24479 0
M  V30 55745 H 546.265 -5.73358 -0.888409 0
M  V30 55746 H 545.986 -5.90877 -3.88583 0
M  V30 55747 H 544.994 -6.65867 -2.58821 0
M  V30 55748 H 546.828 -8.16248 -3.92006 0
M  V30 55749 H 546.899 -4.34551 -4.26383 0
M  V30 55750 P 544.957 -8.7635 -1.60911 0
M  V30 55751 O 544.737 -10.1388 -1.11561 0
M  V30 55752 O 544.167 -8.36503 -2.79617 0
M  V30 55753 O 544.707 -7.71906 -0.429565 0
M  V30 55754 C 545.647 -7.67148 0.673689 0
M  V30 55755 C 544.917 -7.33666 1.94851 0
M  V30 55756 O 544.707 -5.88816 2.00759 0
M  V30 55757 C 543.517 -7.92526 2.10483 0
M  V30 55758 O 543.127 -8.03063 3.47693 0
M  V30 55759 C 542.637 -6.89602 1.41652 0
M  V30 55760 C 543.347 -5.59201 1.75185 0
M  V30 55761 N 543.297 -4.58235 0.662552 0
M  V30 55762 C 543.147 -3.24451 1.01643 0
M  V30 55763 O 543.057 -2.94958 2.21722 0
M  V30 55764 N 543.097 -2.30408 -0.165238 0
M  V30 55765 C 543.197 -2.66048 -1.25118 0
M  V30 55766 N 543.147 -1.70787 -2.16813 0
M  V30 55767 C 543.347 -4.02732 -1.64413 0
M  V30 55768 C 543.397 -4.9488 -0.63991 0
M  V30 55769 H 546.137 -8.65017 0.777072 0
M  V30 55770 H 546.407 -6.90173 0.474152 0
M  V30 55771 H 545.54 -7.66642 2.79492 0
M  V30 55772 H 542.885 -5.16254 2.65229 0
M  V30 55773 H 542.605 -7.06532 0.329431 0
M  V30 55774 H 541.614 -6.91023 1.82047 0
M  V30 55775 H 543.448 -8.90873 1.62657 0
M  V30 55776 H 543.52 -6.00104 -0.892197 0
M  V30 55777 H 543.418 -4.31733 -2.69229 0
M  V30 55778 H 543.03 -0.724835 -1.8844 0
M  V30 55779 H 543.226 -1.94716 -3.16734 0
M  V30 55780 P 541.577 -8.03563 3.84925 0
M  V30 55781 O 541.357 -8.85821 5.0569 0
M  V30 55782 O 540.787 -8.41101 2.65469 0
M  V30 55783 O 541.327 -6.49734 4.18962 0
M  V30 55784 C 542.267 -5.81037 5.05421 0
M  V30 55785 C 541.537 -4.79018 5.88876 0
M  V30 55786 O 541.327 -3.58359 5.08515 0
M  V30 55787 C 540.137 -5.17448 6.36119 0
M  V30 55788 O 539.747 -4.45322 7.53318 0
M  V30 55789 C 539.257 -4.74639 5.19936 0
M  V30 55790 C 539.967 -3.49432 4.70418 0
M  V30 55791 N 539.917 -3.31776 3.22945 0
M  V30 55792 C 539.767 -2.02742 2.72939 0
M  V30 55793 O 539.677 -1.08301 3.52749 0
M  V30 55794 N 539.717 -1.96117 1.22063 0
M  V30 55795 C 539.817 -2.8878 0.551566 0
M  V30 55796 N 539.767 -2.65609 -0.750198 0
M  V30 55797 C 539.967 -4.22457 1.03707 0
M  V30 55798 C 540.017 -4.37979 2.39113 0
M  V30 55799 H 542.757 -6.54138 5.7131 0
M  V30 55800 H 543.027 -5.30492 4.44033 0
M  V30 55801 H 542.16 -4.55945 6.76735 0
M  V30 55802 H 539.505 -2.6176 5.18021 0
M  V30 55803 H 539.225 -5.52233 4.41941 0
M  V30 55804 H 538.234 -4.52045 5.53452 0
M  V30 55805 H 540.068 -6.25124 6.55234 0
M  V30 55806 H 540.14 -5.37936 2.80552 0
M  V30 55807 H 540.038 -5.07528 0.359553 0
M  V30 55808 H 539.65 -1.69403 -1.09847 0
M  V30 55809 H 539.846 -3.43701 -1.41792 0
M  V30 55810 P 538.197 -4.23843 7.83734 0
M  V30 55811 O 537.977 -4.19407 9.29784 0
M  V30 55812 O 537.407 -5.24426 7.09156 0
M  V30 55813 O 537.947 -2.7935 7.20758 0
M  V30 55814 C 538.887 -1.7299 7.50419 0
M  V30 55815 C 538.157 -0.406376 7.57911 0
M  V30 55816 O 537.947 0.0897726 6.21935 0
M  V30 55817 C 536.757 -0.447224 8.1878 0
M  V30 55818 O 536.367 0.825065 8.71101 0
M  V30 55819 C 535.877 -0.783801 6.99623 0
M  V30 55820 C 536.587 -0.0619192 5.85967 0
M  V30 55821 N 536.537 -0.790462 4.56202 0
M  V30 55822 C 536.617 -2.13895 4.34171 0
M  V30 55823 N 536.547 -2.46449 3.08687 0
M  V30 55824 C 536.397 -1.2525 2.43697 0
M  V30 55825 C 536.267 -0.914535 1.07318 0
M  V30 55826 N 536.257 -1.80782 0.0887348 0
M  V30 55827 N 536.147 0.386745 0.768133 0
M  V30 55828 C 536.157 1.28096 1.75159 0
M  V30 55829 N 536.277 1.09708 3.04861 0
M  V30 55830 C 536.397 -0.214857 3.32306 0
M  V30 55831 H 539.376 -1.93423 8.4679 0
M  V30 55832 H 539.648 -1.68852 6.70877 0
M  V30 55833 H 538.78 0.289041 8.15388 0
M  V30 55834 H 536.125 0.927006 5.72848 0
M  V30 55835 H 535.845 -1.86973 6.82036 0
M  V30 55836 H 534.854 -0.403953 7.13357 0
M  V30 55837 H 536.688 -1.20599 8.97534 0
M  V30 55838 H 536.729 -2.86846 5.14318 0
M  V30 55839 H 536.348 -2.81082 0.302037 0
M  V30 55840 H 536.159 -1.49688 -0.889064 0
M  V30 55841 H 536.051 2.31317 1.43855 0
M  V30 55842 P 534.817 1.17771 8.83182 0
M  V30 55843 O 534.597 2.07206 9.98732 0
M  V30 55844 O 534.027 -0.0743816 8.81969 0
M  V30 55845 O 534.567 1.97652 7.47304 0
M  V30 55846 C 535.507 3.01133 7.08783 0
M  V30 55847 C 534.777 4.12613 6.37049 0
M  V30 55848 O 534.567 3.72827 4.97879 0
M  V30 55849 C 533.377 4.45085 6.88694 0
M  V30 55850 O 532.987 5.7877 6.5624 0
M  V30 55851 C 532.497 3.47817 6.12078 0
M  V30 55852 C 533.207 3.39414 4.77697 0
M  V30 55853 N 533.157 2.04615 4.15333 0
M  V30 55854 H 535.996 3.41248 7.98759 0
M  V30 55855 H 536.268 2.5837 6.41742 0
M  V30 55856 H 535.4 5.02657 6.42673 0
M  V30 55857 P 531.437 6.144 6.45285 0
M  V30 55858 O 531.217 7.54673 6.86199 0
M  V30 55859 O 530.647 5.12391 7.179 0
M  V30 55860 O 531.187 5.99158 4.88404 0
M  V30 55861 C 532.127 6.60234 3.96415 0
M  V30 55862 C 531.397 7.08259 2.72856 0
M  V30 55863 O 531.187 5.9427 1.83651 0
M  V30 55864 C 529.997 7.64886 2.9555 0
M  V30 55865 O 529.607 8.53963 1.90717 0
M  V30 55866 C 529.117 6.4116 2.90739 0
M  V30 55867 C 529.827 5.55375 1.86963 0
M  V30 55868 N 529.777 4.09448 2.16152 0
M  V30 55869 H 532.616 7.45574 4.45629 0
M  V30 55870 H 532.888 5.85864 3.679 0
M  V30 55871 H 532.02 7.84412 2.24479 0
M  V30 55872 H 529.365 5.73457 0.888562 0
M  V30 55873 H 529.085 5.90877 3.88583 0
M  V30 55874 H 528.094 6.6596 2.58858 0
M  V30 55875 H 529.928 8.16339 3.92049 0
M  V30 55876 P 528.057 8.7635 1.60911 0
M  V30 55877 O 527.837 10.1388 1.11561 0
M  V30 55878 O 527.267 8.36503 2.79617 0
M  V30 55879 O 527.807 7.71806 0.42951 0
M  V30 55880 C 528.747 7.67148 -0.673689 0
M  V30 55881 C 528.017 7.33374 -1.95559 0
M  V30 55882 O 527.807 5.88721 -2.00726 0
M  V30 55883 C 526.617 7.92526 -2.10483 0
M  V30 55884 O 526.227 8.02971 -3.47653 0
M  V30 55885 C 525.737 6.89602 -1.41652 0
M  V30 55886 C 526.447 5.59201 -1.75185 0
M  V30 55887 N 526.397 4.58301 -0.657969 0
M  V30 55888 H 529.236 8.65116 -0.777161 0
M  V30 55889 H 529.508 6.9022 -0.46725 0
M  V30 55890 H 528.64 7.66548 -2.79458 0
M  V30 55891 H 525.985 5.16165 -2.65183 0
M  V30 55892 H 525.705 7.06433 -0.329384 0
M  V30 55893 H 524.714 6.90926 -1.82021 0
M  V30 55894 H 526.548 8.90873 -1.62657 0
M  V30 55895 P 524.677 8.03563 -3.84925 0
M  V30 55896 O 524.457 8.85821 -5.0569 0
M  V30 55897 O 523.887 8.41101 -2.65469 0
M  V30 55898 O 524.427 6.4965 -4.18908 0
M  V30 55899 C 525.367 5.81037 -5.05421 0
M  V30 55900 C 524.637 4.78366 -5.89277 0
M  V30 55901 O 524.427 3.58302 -5.08433 0
M  V30 55902 C 523.237 5.17448 -6.36119 0
M  V30 55903 O 522.847 4.45271 -7.53232 0
M  V30 55904 C 522.357 4.74639 -5.19936 0
M  V30 55905 C 523.067 3.49432 -4.70418 0
M  V30 55906 N 523.017 3.31776 -3.22945 0
M  V30 55907 H 525.856 6.54213 -5.71376 0
M  V30 55908 H 526.128 5.30492 -4.44033 0
M  V30 55909 H 525.26 4.55889 -6.76652 0
M  V30 55910 P 521.297 4.23843 -7.83734 0
M  V30 55911 O 521.077 4.19407 -9.29784 0
M  V30 55912 O 520.507 5.24426 -7.09156 0
M  V30 55913 O 521.047 2.7935 -7.20758 0
M  V30 55914 C 521.987 1.7299 -7.50419 0
M  V30 55915 C 521.257 0.406376 -7.57911 0
M  V30 55916 O 521.047 -0.0897726 -6.21935 0
M  V30 55917 C 519.857 0.447224 -8.1878 0
M  V30 55918 O 519.467 -0.825065 -8.71101 0
M  V30 55919 C 518.977 0.783801 -6.99623 0
M  V30 55920 C 519.687 0.0619192 -5.85967 0
M  V30 55921 N 519.637 0.790462 -4.56202 0
M  V30 55922 H 522.476 1.93423 -8.4679 0
M  V30 55923 H 522.748 1.68852 -6.70877 0
M  V30 55924 H 521.88 -0.289041 -8.15388 0
M  V30 55925 H 519.225 -0.927006 -5.72848 0
M  V30 55926 H 518.945 1.86973 -6.82036 0
M  V30 55927 H 517.954 0.403953 -7.13357 0
M  V30 55928 H 519.788 1.20599 -8.97534 0
M  V30 55929 P 517.917 -1.17771 -8.83182 0
M  V30 55930 O 517.697 -2.07206 -9.98732 0
M  V30 55931 O 517.127 0.0743816 -8.81969 0
M  V30 55932 O 517.667 -1.97652 -7.47304 0
M  V30 55933 C 518.607 -3.01133 -7.08783 0
M  V30 55934 C 517.877 -4.12613 -6.37049 0
M  V30 55935 O 517.667 -3.72827 -4.97879 0
M  V30 55936 C 516.477 -4.45085 -6.88694 0
M  V30 55937 O 516.087 -5.7877 -6.5624 0
M  V30 55938 C 515.597 -3.47817 -6.12078 0
M  V30 55939 C 516.307 -3.39414 -4.77697 0
M  V30 55940 N 516.257 -2.04199 -4.15538 0
M  V30 55941 H 519.096 -3.41248 -7.98759 0
M  V30 55942 H 519.368 -2.57728 -6.42 0
M  V30 55943 H 518.5 -5.02657 -6.42673 0
M  V30 55944 H 515.845 -4.11708 -4.08956 0
M  V30 55945 H 515.565 -2.49626 -6.61679 0
M  V30 55946 H 514.574 -3.8662 -6.00862 0
M  V30 55947 H 516.408 -4.29991 -7.97006 0
M  V30 55948 P 514.537 -6.144 -6.45285 0
M  V30 55949 O 514.317 -7.54673 -6.86199 0
M  V30 55950 O 513.747 -5.12391 -7.179 0
M  V30 55951 O 514.287 -5.99158 -4.88404 0
M  V30 55952 C 515.227 -6.60234 -3.96415 0
M  V30 55953 C 514.497 -7.08259 -2.72856 0
M  V30 55954 O 514.287 -5.9427 -1.83651 0
M  V30 55955 C 513.097 -7.64886 -2.9555 0
M  V30 55956 O 512.707 -8.53963 -1.90717 0
M  V30 55957 C 512.217 -6.4116 -2.90739 0
M  V30 55958 C 512.927 -5.55375 -1.86963 0
M  V30 55959 N 512.877 -4.09448 -2.16152 0
M  V30 55960 H 515.716 -7.45574 -4.45629 0
M  V30 55961 H 515.988 -5.85864 -3.679 0
M  V30 55962 H 515.12 -7.84412 -2.24479 0
M  V30 55963 H 512.465 -5.73457 -0.888562 0
M  V30 55964 H 512.185 -5.90877 -3.88583 0
M  V30 55965 H 511.194 -6.6596 -2.58858 0
M  V30 55966 H 513.028 -8.16339 -3.92049 0
M  V30 55967 P 511.157 -8.7635 -1.60911 0
M  V30 55968 O 510.937 -10.1388 -1.11561 0
M  V30 55969 O 510.367 -8.36503 -2.79617 0
M  V30 55970 O 510.907 -7.71806 -0.42951 0
M  V30 55971 C 511.847 -7.67148 0.673689 0
M  V30 55972 C 511.117 -7.33374 1.95559 0
M  V30 55973 O 510.907 -5.88721 2.00726 0
M  V30 55974 C 509.717 -7.92526 2.10483 0
M  V30 55975 O 509.327 -8.02971 3.47653 0
M  V30 55976 C 508.837 -6.89602 1.41652 0
M  V30 55977 C 509.547 -5.59201 1.75185 0
M  V30 55978 N 509.497 -4.58235 0.662552 0
M  V30 55979 C 509.577 -4.7683 -0.704049 0
M  V30 55980 N 509.497 -3.66233 -1.39775 0
M  V30 55981 C 509.357 -2.66526 -0.431739 0
M  V30 55982 C 509.227 -1.26394 -0.575992 0
M  V30 55983 N 509.107 -0.62859 0.67177 0
M  V30 55984 C 509.107 -1.27134 1.89385 0
M  V30 55985 N 508.977 -0.492035 2.96951 0
M  V30 55986 N 509.237 -2.58978 2.02907 0
M  V30 55987 C 509.357 -3.22433 0.832218 0
M  V30 55988 H 512.336 -8.65116 0.777161 0
M  V30 55989 H 512.608 -6.90173 0.474152 0
M  V30 55990 H 511.74 -7.66548 2.79458 0
M  V30 55991 P 507.777 -8.03563 3.84925 0
M  V30 55992 O 507.557 -8.85821 5.0569 0
M  V30 55993 O 506.987 -8.41101 2.65469 0
M  V30 55994 O 507.527 -6.4965 4.18908 0
M  V30 55995 C 508.467 -5.81037 5.05421 0
M  V30 55996 C 507.737 -4.78366 5.89277 0
M  V30 55997 O 507.527 -3.58302 5.08433 0
M  V30 55998 C 506.337 -5.17448 6.36119 0
M  V30 55999 O 505.947 -4.45271 7.53232 0
M  V30 56000 C 505.457 -4.74639 5.19936 0
M  V30 56001 C 506.167 -3.49432 4.70418 0
M  V30 56002 N 506.117 -3.31776 3.22945 0
M  V30 56003 H 508.956 -6.54213 5.71376 0
M  V30 56004 H 509.228 -5.30492 4.44033 0
M  V30 56005 H 508.36 -4.55889 6.76652 0
M  V30 56006 P 504.397 -4.23843 7.83734 0
M  V30 56007 O 504.177 -4.19407 9.29784 0
M  V30 56008 O 503.607 -5.24426 7.09156 0
M  V30 56009 O 504.147 -2.7935 7.20758 0
M  V30 56010 C 505.087 -1.7299 7.50419 0
M  V30 56011 C 504.357 -0.406376 7.57911 0
M  V30 56012 O 504.147 0.0897726 6.21935 0
M  V30 56013 C 502.957 -0.447224 8.1878 0
M  V30 56014 O 502.567 0.825065 8.71101 0
M  V30 56015 C 502.077 -0.783801 6.99623 0
M  V30 56016 C 502.787 -0.0619192 5.85967 0
M  V30 56017 N 502.737 -0.790462 4.56202 0
M  V30 56018 H 505.576 -1.93423 8.4679 0
M  V30 56019 H 505.848 -1.68852 6.70877 0
M  V30 56020 H 504.98 0.289041 8.15388 0
M  V30 56021 H 502.325 0.927006 5.72848 0
M  V30 56022 H 502.045 -1.86973 6.82036 0
M  V30 56023 H 501.054 -0.403953 7.13357 0
M  V30 56024 H 502.888 -1.20599 8.97534 0
M  V30 56025 P 501.017 1.17771 8.83182 0
M  V30 56026 O 500.797 2.07206 9.98732 0
M  V30 56027 O 500.227 -0.0743816 8.81969 0
M  V30 56028 O 500.767 1.97652 7.47304 0
M  V30 56029 C 501.707 3.01133 7.08783 0
M  V30 56030 C 500.977 4.12613 6.37049 0
M  V30 56031 O 500.767 3.72827 4.97879 0
M  V30 56032 C 499.577 4.45085 6.88694 0
M  V30 56033 O 499.187 5.7877 6.5624 0
M  V30 56034 C 498.697 3.47817 6.12078 0
M  V30 56035 C 499.407 3.39414 4.77697 0
M  V30 56036 N 499.357 2.04199 4.15538 0
M  V30 56037 H 502.196 3.41248 7.98759 0
M  V30 56038 H 502.468 2.57728 6.42 0
M  V30 56039 H 501.6 5.02657 6.42673 0
M  V30 56040 H 498.945 4.11708 4.08956 0
M  V30 56041 H 498.665 2.49626 6.61679 0
M  V30 56042 H 497.674 3.8662 6.00862 0
M  V30 56043 H 499.508 4.29991 7.97006 0
M  V30 56044 P 497.637 6.144 6.45285 0
M  V30 56045 O 497.417 7.54673 6.86199 0
M  V30 56046 O 496.847 5.12391 7.179 0
M  V30 56047 O 497.387 5.99158 4.88404 0
M  V30 56048 C 498.327 6.60234 3.96415 0
M  V30 56049 C 497.597 7.08259 2.72856 0
M  V30 56050 O 497.387 5.9427 1.83651 0
M  V30 56051 C 496.197 7.64886 2.9555 0
M  V30 56052 O 495.807 8.53963 1.90717 0
M  V30 56053 C 495.317 6.4116 2.90739 0
M  V30 56054 C 496.027 5.55375 1.86963 0
M  V30 56055 N 495.977 4.09448 2.16152 0
M  V30 56056 C 496.057 3.46824 3.37593 0
M  V30 56057 N 495.987 2.17422 3.29777 0
M  V30 56058 C 495.837 1.93065 1.94427 0
M  V30 56059 C 495.707 0.738053 1.20141 0
M  V30 56060 N 495.697 -0.474256 1.74676 0
M  V30 56061 N 495.587 0.850049 -0.13045 0
M  V30 56062 C 495.597 2.06169 -0.676992 0
M  V30 56063 N 495.717 3.23842 -0.101312 0
M  V30 56064 C 495.837 3.09402 1.23122 0
M  V30 56065 H 498.816 7.45574 4.45629 0
M  V30 56066 H 499.088 5.85864 3.679 0
M  V30 56067 H 498.22 7.84412 2.24479 0
M  V30 56068 H 495.565 5.73457 0.888562 0
M  V30 56069 H 495.285 5.90877 3.88583 0
M  V30 56070 H 494.294 6.6596 2.58858 0
M  V30 56071 H 496.128 8.16339 3.92049 0
M  V30 56072 H 496.169 4.00505 4.3174 0
M  V30 56073 H 495.788 -0.581337 2.76658 0
M  V30 56074 H 495.599 -1.30811 1.14888 0
M  V30 56075 H 495.491 2.08295 -1.75542 0
M  V30 56076 P 494.257 8.7635 1.60911 0
M  V30 56077 O 494.037 10.1388 1.11561 0
M  V30 56078 O 493.467 8.36503 2.79617 0
M  V30 56079 O 494.007 7.71806 0.42951 0
M  V30 56080 C 494.947 7.67148 -0.673689 0
M  V30 56081 C 494.217 7.33374 -1.95559 0
M  V30 56082 O 494.007 5.88721 -2.00726 0
M  V30 56083 C 492.817 7.92526 -2.10483 0
M  V30 56084 O 492.427 8.02971 -3.47653 0
M  V30 56085 C 491.937 6.89602 -1.41652 0
M  V30 56086 C 492.647 5.59201 -1.75185 0
M  V30 56087 N 492.597 4.58235 -0.662552 0
M  V30 56088 H 495.436 8.65116 -0.777161 0
M  V30 56089 H 495.708 6.90173 -0.474152 0
M  V30 56090 H 494.84 7.66548 -2.79458 0
M  V30 56091 P 490.877 8.03563 -3.84925 0
M  V30 56092 O 490.657 8.85821 -5.0569 0
M  V30 56093 O 490.087 8.41101 -2.65469 0
M  V30 56094 O 490.627 6.4965 -4.18908 0
M  V30 56095 C 491.567 5.81037 -5.05421 0
M  V30 56096 C 490.837 4.78366 -5.89277 0
M  V30 56097 O 490.627 3.58302 -5.08433 0
M  V30 56098 C 489.437 5.17448 -6.36119 0
M  V30 56099 O 489.047 4.45271 -7.53232 0
M  V30 56100 C 488.557 4.74639 -5.19936 0
M  V30 56101 C 489.267 3.49432 -4.70418 0
M  V30 56102 N 489.217 3.31776 -3.22945 0
M  V30 56103 H 492.056 6.54213 -5.71376 0
M  V30 56104 H 492.328 5.30492 -4.44033 0
M  V30 56105 H 491.46 4.55889 -6.76652 0
M  V30 56106 P 487.497 4.23843 -7.83734 0
M  V30 56107 O 487.277 4.19407 -9.29784 0
M  V30 56108 O 486.707 5.24426 -7.09156 0
M  V30 56109 O 487.247 2.7935 -7.20758 0
M  V30 56110 C 488.187 1.7299 -7.50419 0
M  V30 56111 C 487.457 0.406376 -7.57911 0
M  V30 56112 O 487.247 -0.0897726 -6.21935 0
M  V30 56113 C 486.057 0.447224 -8.1878 0
M  V30 56114 O 485.667 -0.825065 -8.71101 0
M  V30 56115 C 485.177 0.783801 -6.99623 0
M  V30 56116 C 485.887 0.0619192 -5.85967 0
M  V30 56117 N 485.837 0.7859 -4.56281 0
M  V30 56118 H 488.676 1.93423 -8.4679 0
M  V30 56119 H 488.948 1.68181 -6.71046 0
M  V30 56120 H 488.08 -0.289041 -8.15388 0
M  V30 56121 P 484.117 -1.17771 -8.83182 0
M  V30 56122 O 483.897 -2.07206 -9.98732 0
M  V30 56123 O 483.327 0.0743816 -8.81969 0
M  V30 56124 O 483.867 -1.97678 -7.474 0
M  V30 56125 C 484.807 -3.01133 -7.08783 0
M  V30 56126 C 484.077 -4.1203 -6.37546 0
M  V30 56127 O 483.867 -3.72887 -4.9796 0
M  V30 56128 C 482.677 -4.45085 -6.88694 0
M  V30 56129 O 482.287 -5.78836 -6.56315 0
M  V30 56130 C 481.797 -3.47817 -6.12078 0
M  V30 56131 C 482.507 -3.39414 -4.77697 0
M  V30 56132 N 482.457 -2.04615 -4.15333 0
M  V30 56133 C 482.307 -1.96929 -2.77162 0
M  V30 56134 O 482.217 -3.02017 -2.12006 0
M  V30 56135 N 482.257 -0.55485 -2.24237 0
M  V30 56136 C 482.357 0.367808 -2.9169 0
M  V30 56137 N 482.307 1.53426 -2.29427 0
M  V30 56138 C 482.507 0.319148 -4.33828 0
M  V30 56139 C 482.557 -0.920672 -4.90433 0
M  V30 56140 H 485.297 -3.41209 -7.98667 0
M  V30 56141 H 485.567 -2.5837 -6.41742 0
M  V30 56142 H 484.7 -5.02718 -6.42752 0
M  V30 56143 H 482.045 -4.11779 -4.09026 0
M  V30 56144 H 481.765 -2.49661 -6.61772 0
M  V30 56145 H 480.774 -3.86674 -6.00946 0
M  V30 56146 H 482.608 -4.29991 -7.97006 0
M  V30 56147 H 482.68 -1.00589 -5.98303 0
M  V30 56148 H 482.578 1.22639 -4.93799 0
M  V30 56149 H 482.19 1.56819 -1.27167 0
M  V30 56150 H 482.386 2.41062 -2.83063 0
M  V30 56151 P 480.737 -6.144 -6.45285 0
M  V30 56152 O 480.517 -7.54673 -6.86199 0
M  V30 56153 O 479.947 -5.12391 -7.179 0
M  V30 56154 O 480.487 -5.99158 -4.88404 0
M  V30 56155 C 481.427 -6.60234 -3.96415 0
M  V30 56156 C 480.697 -7.08259 -2.72856 0
M  V30 56157 O 480.487 -5.9427 -1.83651 0
M  V30 56158 C 479.297 -7.64886 -2.9555 0
M  V30 56159 O 478.907 -8.53963 -1.90717 0
M  V30 56160 C 478.417 -6.4116 -2.90739 0
M  V30 56161 C 479.127 -5.55375 -1.86963 0
M  V30 56162 N 479.077 -4.09664 -2.15742 0
M  V30 56163 H 481.916 -7.45574 -4.45629 0
M  V30 56164 H 482.188 -5.86232 -3.67314 0
M  V30 56165 H 481.32 -7.84412 -2.24479 0
M  V30 56166 P 477.357 -8.7635 -1.60911 0
M  V30 56167 O 477.137 -10.1388 -1.11561 0
M  V30 56168 O 476.567 -8.36503 -2.79617 0
M  V30 56169 O 477.107 -7.71806 -0.42951 0
M  V30 56170 C 478.047 -7.67148 0.673689 0
M  V30 56171 C 477.317 -7.33374 1.95559 0
M  V30 56172 O 477.107 -5.88721 2.00726 0
M  V30 56173 C 475.917 -7.92526 2.10483 0
M  V30 56174 O 475.527 -8.02971 3.47653 0
M  V30 56175 C 475.037 -6.89602 1.41652 0
M  V30 56176 C 475.747 -5.59201 1.75185 0
M  V30 56177 N 475.697 -4.58235 0.662552 0
M  V30 56178 H 478.536 -8.65116 0.777161 0
M  V30 56179 H 478.808 -6.90173 0.474152 0
M  V30 56180 H 477.94 -7.66548 2.79458 0
M  V30 56181 P 473.977 -8.03563 3.84925 0
M  V30 56182 O 473.757 -8.85821 5.0569 0
M  V30 56183 O 473.187 -8.41101 2.65469 0
M  V30 56184 O 473.727 -6.4965 4.18908 0
M  V30 56185 C 474.667 -5.81037 5.05421 0
M  V30 56186 C 473.937 -4.78366 5.89277 0
M  V30 56187 O 473.727 -3.58302 5.08433 0
M  V30 56188 C 472.537 -5.17448 6.36119 0
M  V30 56189 O 472.147 -4.45271 7.53232 0
M  V30 56190 C 471.657 -4.74639 5.19936 0
M  V30 56191 C 472.367 -3.49432 4.70418 0
M  V30 56192 N 472.317 -3.31776 3.22945 0
M  V30 56193 H 475.156 -6.54213 5.71376 0
M  V30 56194 H 475.428 -5.30492 4.44033 0
M  V30 56195 H 474.56 -4.55889 6.76652 0
M  V30 56196 P 470.597 -4.23843 7.83734 0
M  V30 56197 O 470.377 -4.19407 9.29784 0
M  V30 56198 O 469.807 -5.24426 7.09156 0
M  V30 56199 O 470.347 -2.7935 7.20758 0
M  V30 56200 C 471.287 -1.72945 7.50224 0
M  V30 56201 C 470.557 -0.406376 7.57911 0
M  V30 56202 O 470.347 0.0897726 6.21935 0
M  V30 56203 C 469.157 -0.438983 8.18724 0
M  V30 56204 O 468.767 0.825065 8.71101 0
M  V30 56205 C 468.277 -0.783689 6.99524 0
M  V30 56206 C 468.987 -0.0619086 5.85867 0
M  V30 56207 N 468.937 -0.78573 4.56183 0
M  V30 56208 C 468.787 -0.0292889 3.41887 0
M  V30 56209 O 468.697 1.18445 3.4419 0
M  V30 56210 N 468.747 -0.744061 2.23964 0
M  V30 56211 C 468.837 -2.10932 2.10362 0
M  V30 56212 O 468.787 -2.64117 0.98825 0
M  V30 56213 C 468.987 -2.8202 3.34994 0
M  V30 56214 C 469.097 -4.31095 3.25037 0
M  V30 56215 C 469.037 -2.15547 4.52261 0
M  V30 56216 H 471.778 -1.93379 8.46595 0
M  V30 56217 H 472.047 -1.68132 6.70852 0
M  V30 56218 H 471.18 0.289041 8.15388 0
M  V30 56219 H 468.525 0.926847 5.72749 0
M  V30 56220 H 468.246 -1.86973 6.82036 0
M  V30 56221 H 467.254 -0.403896 7.13257 0
M  V30 56222 H 469.088 -1.20585 8.97435 0
M  V30 56223 H 469.159 -2.71231 5.45042 0
M  V30 56224 H 468.129 -4.76966 3.49992 0
M  V30 56225 H 469.866 -4.67047 3.95024 0
M  V30 56226 H 469.378 -4.58996 2.22312 0
M  V30 56227 H 468.642 -0.214893 1.39758 0
M  V30 56228 P 467.217 1.17771 8.83182 0
M  V30 56229 O 466.997 2.07206 9.98732 0
M  V30 56230 O 466.427 -0.0743816 8.81969 0
M  V30 56231 O 466.967 1.97652 7.47304 0
M  V30 56232 C 467.907 3.01133 7.08783 0
M  V30 56233 C 467.177 4.12613 6.37049 0
M  V30 56234 O 466.967 3.72827 4.97879 0
M  V30 56235 C 465.777 4.45085 6.88694 0
M  V30 56236 O 465.387 5.7877 6.5624 0
M  V30 56237 C 464.897 3.47817 6.12078 0
M  V30 56238 C 465.607 3.39414 4.77697 0
M  V30 56239 N 465.557 2.04615 4.15333 0
M  V30 56240 H 468.396 3.41248 7.98759 0
M  V30 56241 H 468.668 2.5837 6.41742 0
M  V30 56242 H 467.8 5.02657 6.42673 0
M  V30 56243 P 463.837 6.144 6.45285 0
M  V30 56244 O 463.617 7.54673 6.86199 0
M  V30 56245 O 463.047 5.12391 7.179 0
M  V30 56246 O 463.587 5.99158 4.88404 0
M  V30 56247 C 464.527 6.60234 3.96415 0
M  V30 56248 C 463.797 7.08259 2.72856 0
M  V30 56249 O 463.587 5.9427 1.83651 0
M  V30 56250 C 462.397 7.64886 2.9555 0
M  V30 56251 O 462.007 8.53963 1.90717 0
M  V30 56252 C 461.517 6.4116 2.90739 0
M  V30 56253 C 462.227 5.55375 1.86963 0
M  V30 56254 N 462.177 4.09664 2.15742 0
M  V30 56255 H 465.016 7.45574 4.45629 0
M  V30 56256 H 465.288 5.86232 3.67314 0
M  V30 56257 H 464.42 7.84412 2.24479 0
M  V30 56258 P 460.457 8.7635 1.60911 0
M  V30 56259 O 460.237 10.1388 1.11561 0
M  V30 56260 O 459.667 8.36503 2.79617 0
M  V30 56261 O 460.207 7.71806 0.42951 0
M  V30 56262 C 461.147 7.67148 -0.673689 0
M  V30 56263 C 460.417 7.33374 -1.95559 0
M  V30 56264 O 460.207 5.88721 -2.00726 0
M  V30 56265 C 459.017 7.92526 -2.10483 0
M  V30 56266 O 458.627 8.02971 -3.47653 0
M  V30 56267 C 458.137 6.89602 -1.41652 0
M  V30 56268 C 458.847 5.59201 -1.75185 0
M  V30 56269 N 458.797 4.58235 -0.662552 0
M  V30 56270 C 458.877 4.7683 0.704049 0
M  V30 56271 N 458.797 3.66233 1.39775 0
M  V30 56272 C 458.657 2.66526 0.431739 0
M  V30 56273 C 458.527 1.26394 0.575992 0
M  V30 56274 N 458.407 0.62859 -0.67177 0
M  V30 56275 C 458.407 1.27134 -1.89385 0
M  V30 56276 N 458.277 0.492035 -2.96951 0
M  V30 56277 N 458.537 2.58978 -2.02907 0
M  V30 56278 C 458.657 3.22433 -0.832218 0
M  V30 56279 H 461.636 8.65116 -0.777161 0
M  V30 56280 H 461.908 6.90173 -0.474152 0
M  V30 56281 H 461.04 7.66548 -2.79458 0
M  V30 56282 P 457.077 8.03563 -3.84925 0
M  V30 56283 O 456.857 8.85821 -5.0569 0
M  V30 56284 O 456.287 8.41101 -2.65469 0
M  V30 56285 O 456.827 6.4965 -4.18908 0
M  V30 56286 C 457.767 5.81037 -5.05421 0
M  V30 56287 C 457.037 4.78366 -5.89277 0
M  V30 56288 O 456.827 3.58302 -5.08433 0
M  V30 56289 C 455.637 5.17448 -6.36119 0
M  V30 56290 O 455.247 4.45271 -7.53232 0
M  V30 56291 C 454.757 4.74639 -5.19936 0
M  V30 56292 C 455.467 3.49432 -4.70418 0
M  V30 56293 N 455.417 3.31776 -3.22945 0
M  V30 56294 H 458.256 6.54213 -5.71376 0
M  V30 56295 H 458.528 5.30492 -4.44033 0
M  V30 56296 H 457.66 4.55889 -6.76652 0
M  V30 56297 P 453.697 4.23843 -7.83734 0
M  V30 56298 O 453.477 4.19407 -9.29784 0
M  V30 56299 O 452.907 5.24426 -7.09156 0
M  V30 56300 O 453.447 2.7935 -7.20758 0
M  V30 56301 C 454.387 1.7299 -7.50419 0
M  V30 56302 C 453.657 0.406376 -7.57911 0
M  V30 56303 O 453.447 -0.0897726 -6.21935 0
M  V30 56304 C 452.257 0.447224 -8.1878 0
M  V30 56305 O 451.867 -0.825065 -8.71101 0
M  V30 56306 C 451.377 0.783801 -6.99623 0
M  V30 56307 C 452.087 0.0619192 -5.85967 0
M  V30 56308 N 452.037 0.790462 -4.56202 0
M  V30 56309 H 454.876 1.93423 -8.4679 0
M  V30 56310 H 455.148 1.68852 -6.70877 0
M  V30 56311 H 454.28 -0.289041 -8.15388 0
M  V30 56312 H 451.625 -0.927006 -5.72848 0
M  V30 56313 H 451.345 1.86973 -6.82036 0
M  V30 56314 H 450.354 0.403953 -7.13357 0
M  V30 56315 H 452.188 1.20599 -8.97534 0
M  V30 56316 P 450.317 -1.17771 -8.83182 0
M  V30 56317 O 450.097 -2.07206 -9.98732 0
M  V30 56318 O 449.527 0.0743816 -8.81969 0
M  V30 56319 O 450.067 -1.97652 -7.47304 0
M  V30 56320 C 451.007 -3.01133 -7.08783 0
M  V30 56321 C 450.277 -4.12613 -6.37049 0
M  V30 56322 O 450.067 -3.72827 -4.97879 0
M  V30 56323 C 448.877 -4.45085 -6.88694 0
M  V30 56324 O 448.487 -5.7877 -6.5624 0
M  V30 56325 C 447.997 -3.47817 -6.12078 0
M  V30 56326 C 448.707 -3.39414 -4.77697 0
M  V30 56327 N 448.657 -2.04615 -4.15333 0
M  V30 56328 H 451.496 -3.41248 -7.98759 0
M  V30 56329 H 451.768 -2.5837 -6.41742 0
M  V30 56330 H 450.9 -5.02657 -6.42673 0
M  V30 56331 P 446.937 -6.144 -6.45285 0
M  V30 56332 O 446.717 -7.54673 -6.86199 0
M  V30 56333 O 446.147 -5.12391 -7.179 0
M  V30 56334 O 446.687 -5.99158 -4.88404 0
M  V30 56335 C 447.627 -6.60234 -3.96415 0
M  V30 56336 C 446.897 -7.08259 -2.72856 0
M  V30 56337 O 446.687 -5.9427 -1.83651 0
M  V30 56338 C 445.497 -7.64886 -2.9555 0
M  V30 56339 O 445.107 -8.53963 -1.90717 0
M  V30 56340 C 444.617 -6.4116 -2.90739 0
M  V30 56341 C 445.327 -5.55375 -1.86963 0
M  V30 56342 N 445.277 -4.09664 -2.15742 0
M  V30 56343 H 448.116 -7.45574 -4.45629 0
M  V30 56344 H 448.388 -5.86232 -3.67314 0
M  V30 56345 H 447.52 -7.84412 -2.24479 0
M  V30 56346 P 443.557 -8.7635 -1.60911 0
M  V30 56347 O 443.337 -10.1388 -1.11561 0
M  V30 56348 O 442.767 -8.36503 -2.79617 0
M  V30 56349 O 443.307 -7.71806 -0.42951 0
M  V30 56350 C 444.247 -7.67148 0.673689 0
M  V30 56351 C 443.517 -7.33374 1.95559 0
M  V30 56352 O 443.307 -5.88721 2.00726 0
M  V30 56353 C 442.117 -7.92526 2.10483 0
M  V30 56354 O 441.727 -8.02971 3.47653 0
M  V30 56355 C 441.237 -6.89602 1.41652 0
M  V30 56356 C 441.947 -5.59201 1.75185 0
M  V30 56357 N 441.897 -4.58301 0.657969 0
M  V30 56358 H 444.736 -8.65116 0.777161 0
M  V30 56359 H 445.008 -6.9022 0.46725 0
M  V30 56360 H 444.14 -7.66548 2.79458 0
M  V30 56361 H 441.485 -5.16165 2.65183 0
M  V30 56362 H 441.205 -7.06433 0.329384 0
M  V30 56363 H 440.214 -6.90926 1.82021 0
M  V30 56364 H 442.048 -8.90873 1.62657 0
M  V30 56365 P 440.177 -8.03563 3.84925 0
M  V30 56366 O 439.957 -8.85821 5.0569 0
M  V30 56367 O 439.387 -8.41101 2.65469 0
M  V30 56368 O 439.927 -6.4965 4.18908 0
M  V30 56369 C 440.867 -5.81037 5.05421 0
M  V30 56370 C 440.137 -4.78366 5.89277 0
M  V30 56371 O 439.927 -3.58302 5.08433 0
M  V30 56372 C 438.737 -5.17448 6.36119 0
M  V30 56373 O 438.347 -4.45271 7.53232 0
M  V30 56374 C 437.857 -4.74639 5.19936 0
M  V30 56375 C 438.567 -3.49432 4.70418 0
M  V30 56376 N 438.517 -3.31776 3.22945 0
M  V30 56377 H 441.356 -6.54213 5.71376 0
M  V30 56378 H 441.628 -5.30492 4.44033 0
M  V30 56379 H 440.76 -4.55889 6.76652 0
M  V30 56380 P 436.797 -4.23843 7.83734 0
M  V30 56381 O 436.577 -4.19407 9.29784 0
M  V30 56382 O 436.007 -5.24426 7.09156 0
M  V30 56383 O 436.547 -2.7935 7.20758 0
M  V30 56384 C 437.487 -1.7299 7.50419 0
M  V30 56385 C 436.757 -0.406376 7.57911 0
M  V30 56386 O 436.547 0.0897726 6.21935 0
M  V30 56387 C 435.357 -0.447224 8.1878 0
M  V30 56388 O 434.967 0.825065 8.71101 0
M  V30 56389 C 434.477 -0.783801 6.99623 0
M  V30 56390 C 435.187 -0.0619192 5.85967 0
M  V30 56391 N 435.137 -0.7859 4.56281 0
M  V30 56392 H 437.976 -1.93423 8.4679 0
M  V30 56393 H 438.248 -1.68181 6.71046 0
M  V30 56394 H 437.38 0.289041 8.15388 0
M  V30 56395 P 433.417 1.17771 8.83182 0
M  V30 56396 O 433.197 2.07206 9.98732 0
M  V30 56397 O 432.627 -0.0743816 8.81969 0
M  V30 56398 O 433.167 1.97652 7.47304 0
M  V30 56399 C 434.107 3.01133 7.08783 0
M  V30 56400 C 433.377 4.12613 6.37049 0
M  V30 56401 O 433.167 3.72827 4.97879 0
M  V30 56402 C 431.977 4.45085 6.88694 0
M  V30 56403 O 431.587 5.7877 6.5624 0
M  V30 56404 C 431.097 3.47817 6.12078 0
M  V30 56405 C 431.807 3.39414 4.77697 0
M  V30 56406 N 431.757 2.04615 4.15333 0
M  V30 56407 H 434.596 3.41248 7.98759 0
M  V30 56408 H 434.868 2.5837 6.41742 0
M  V30 56409 H 434 5.02657 6.42673 0
M  V30 56410 P 430.037 6.144 6.45285 0
M  V30 56411 O 429.817 7.54673 6.86199 0
M  V30 56412 O 429.247 5.12391 7.179 0
M  V30 56413 O 429.787 5.99158 4.88404 0
M  V30 56414 C 430.727 6.60234 3.96415 0
M  V30 56415 C 429.997 7.08259 2.72856 0
M  V30 56416 O 429.787 5.9427 1.83651 0
M  V30 56417 C 428.597 7.64886 2.9555 0
M  V30 56418 O 428.207 8.53963 1.90717 0
M  V30 56419 C 427.717 6.4116 2.90739 0
M  V30 56420 C 428.427 5.55375 1.86963 0
M  V30 56421 N 428.377 4.09664 2.15742 0
M  V30 56422 H 431.216 7.45574 4.45629 0
M  V30 56423 H 431.488 5.86232 3.67314 0
M  V30 56424 H 430.62 7.84412 2.24479 0
M  V30 56425 P 426.657 8.7635 1.60911 0
M  V30 56426 O 426.437 10.1388 1.11561 0
M  V30 56427 O 425.867 8.36503 2.79617 0
M  V30 56428 O 426.407 7.71806 0.42951 0
M  V30 56429 C 427.347 7.67148 -0.673689 0
M  V30 56430 C 426.617 7.33374 -1.95559 0
M  V30 56431 O 426.407 5.88721 -2.00726 0
M  V30 56432 C 425.217 7.92526 -2.10483 0
M  V30 56433 O 424.827 8.02971 -3.47653 0
M  V30 56434 C 424.337 6.89602 -1.41652 0
M  V30 56435 C 425.047 5.59201 -1.75185 0
M  V30 56436 N 424.997 4.58235 -0.662552 0
M  V30 56437 H 427.836 8.65116 -0.777161 0
M  V30 56438 H 428.108 6.90173 -0.474152 0
M  V30 56439 H 427.24 7.66548 -2.79458 0
M  V30 56440 P 423.278 8.03563 -3.84925 0
M  V30 56441 O 423.058 8.85821 -5.0569 0
M  V30 56442 O 422.488 8.41101 -2.65469 0
M  V30 56443 O 423.028 6.4965 -4.18908 0
M  V30 56444 C 423.968 5.81037 -5.05421 0
M  V30 56445 C 423.238 4.78366 -5.89277 0
M  V30 56446 O 423.028 3.58302 -5.08433 0
M  V30 56447 C 421.838 5.17448 -6.36119 0
M  V30 56448 O 421.448 4.45271 -7.53232 0
M  V30 56449 C 420.958 4.74639 -5.19936 0
M  V30 56450 C 421.668 3.49432 -4.70418 0
M  V30 56451 N 421.618 3.31776 -3.22945 0
M  V30 56452 H 424.457 6.54213 -5.71376 0
M  V30 56453 H 424.729 5.30492 -4.44033 0
M  V30 56454 H 423.861 4.55889 -6.76652 0
M  V30 56455 P 419.898 4.23843 -7.83734 0
M  V30 56456 O 419.678 4.19407 -9.29784 0
M  V30 56457 O 419.108 5.24426 -7.09156 0
M  V30 56458 O 419.648 2.79386 -7.20852 0
M  V30 56459 C 420.588 1.7299 -7.50419 0
M  V30 56460 C 419.858 0.41401 -7.5797 0
M  V30 56461 O 419.648 -0.089787 -6.22035 0
M  V30 56462 C 418.458 0.447224 -8.1878 0
M  V30 56463 O 418.068 -0.825159 -8.71201 0
M  V30 56464 C 417.578 0.783801 -6.99623 0
M  V30 56465 C 418.288 0.0619192 -5.85967 0
M  V30 56466 N 418.238 0.7859 -4.56281 0
M  V30 56467 C 418.088 0.0359258 -3.39981 0
M  V30 56468 O 417.998 -1.19723 -3.49038 0
M  V30 56469 N 418.038 0.869151 -2.14025 0
M  V30 56470 C 418.138 2.01207 -2.14363 0
M  V30 56471 N 418.088 2.58978 -0.954287 0
M  V30 56472 C 418.288 2.80817 -3.32215 0
M  V30 56473 C 418.338 2.13785 -4.50884 0
M  V30 56474 H 421.078 1.93401 -8.46693 0
M  V30 56475 H 421.348 1.68181 -6.71046 0
M  V30 56476 H 420.481 -0.289076 -8.15488 0
M  V30 56477 H 417.826 -0.927166 -5.72947 0
M  V30 56478 H 417.546 1.87 -6.82132 0
M  V30 56479 H 416.555 0.404009 -7.13457 0
M  V30 56480 H 418.389 1.20599 -8.97534 0
M  V30 56481 H 418.461 2.70295 -5.43162 0
M  V30 56482 H 418.359 3.89465 -3.27406 0
M  V30 56483 H 417.971 2.01616 -0.107046 0
M  V30 56484 H 418.167 3.61403 -0.873101 0
M  V30 56485 P 416.518 -1.17771 -8.83182 0
M  V30 56486 O 416.298 -2.07206 -9.98732 0
M  V30 56487 O 415.728 0.0743816 -8.81969 0
M  V30 56488 O 416.268 -1.97652 -7.47304 0
M  V30 56489 C 417.208 -3.01133 -7.08783 0
M  V30 56490 C 416.478 -4.12613 -6.37049 0
M  V30 56491 O 416.268 -3.72827 -4.97879 0
M  V30 56492 C 415.078 -4.45085 -6.88694 0
M  V30 56493 O 414.688 -5.7877 -6.5624 0
M  V30 56494 C 414.198 -3.47817 -6.12078 0
M  V30 56495 C 414.908 -3.39414 -4.77697 0
M  V30 56496 N 414.858 -2.04199 -4.15538 0
M  V30 56497 H 417.697 -3.41248 -7.98759 0
M  V30 56498 H 417.969 -2.57728 -6.42 0
M  V30 56499 H 417.101 -5.02657 -6.42673 0
M  V30 56500 H 414.446 -4.11708 -4.08956 0
M  V30 56501 H 414.166 -2.49626 -6.61679 0
M  V30 56502 H 413.175 -3.8662 -6.00862 0
M  V30 56503 H 415.009 -4.29991 -7.97006 0
M  V30 56504 P 413.138 -6.144 -6.45285 0
M  V30 56505 O 412.918 -7.54673 -6.86199 0
M  V30 56506 O 412.348 -5.12391 -7.179 0
M  V30 56507 O 412.888 -5.99236 -4.88467 0
M  V30 56508 C 413.828 -6.60234 -3.96415 0
M  V30 56509 C 413.098 -7.08079 -2.736 0
M  V30 56510 O 412.888 -5.94365 -1.8368 0
M  V30 56511 C 411.698 -7.64886 -2.9555 0
M  V30 56512 O 411.308 -8.5406 -1.90739 0
M  V30 56513 C 410.818 -6.4116 -2.90739 0
M  V30 56514 C 411.528 -5.55375 -1.86963 0
M  V30 56515 N 411.478 -4.09664 -2.15742 0
M  V30 56516 C 411.328 -3.22231 -1.08477 0
M  V30 56517 O 411.238 -3.68951 0.0600489 0
M  V30 56518 N 411.278 -1.76692 -1.48799 0
M  V30 56519 C 411.378 -1.41695 -2.57602 0
M  V30 56520 N 411.328 -0.107296 -2.75791 0
M  V30 56521 C 411.528 -2.29178 -3.69733 0
M  V30 56522 C 411.578 -3.62753 -3.42653 0
M  V30 56523 H 414.318 -7.45488 -4.45578 0
M  V30 56524 H 414.588 -5.86232 -3.67314 0
M  V30 56525 H 413.721 -7.84508 -2.24507 0
M  V30 56526 H 411.066 -5.73556 -0.888715 0
M  V30 56527 H 410.786 -5.9096 -3.88638 0
M  V30 56528 H 409.795 -6.66053 -2.58894 0
M  V30 56529 H 411.629 -8.16339 -3.92049 0
M  V30 56530 H 411.701 -4.33052 -4.24913 0
M  V30 56531 H 411.599 -1.9103 -4.71577 0
M  V30 56532 H 411.211 0.521221 -1.95056 0
M  V30 56533 H 411.407 0.286429 -3.70695 0
M  V30 56534 P 409.758 -8.7635 -1.60911 0
M  V30 56535 O 409.538 -10.1388 -1.11561 0
M  V30 56536 O 408.968 -8.36503 -2.79617 0
M  V30 56537 O 409.508 -7.71806 -0.42951 0
M  V30 56538 C 410.448 -7.67148 0.673689 0
M  V30 56539 C 409.718 -7.33374 1.95559 0
M  V30 56540 O 409.508 -5.88721 2.00726 0
M  V30 56541 C 408.318 -7.92526 2.10483 0
M  V30 56542 O 407.928 -8.02971 3.47653 0
M  V30 56543 C 407.438 -6.89602 1.41652 0
M  V30 56544 C 408.148 -5.59201 1.75185 0
M  V30 56545 N 408.098 -4.58235 0.662552 0
M  V30 56546 H 410.937 -8.65116 0.777161 0
M  V30 56547 H 411.209 -6.90173 0.474152 0
M  V30 56548 H 410.341 -7.66548 2.79458 0
M  V30 56549 P 406.378 -8.03563 3.84925 0
M  V30 56550 O 406.158 -8.85821 5.0569 0
M  V30 56551 O 405.588 -8.41101 2.65469 0
M  V30 56552 O 406.128 -6.4965 4.18908 0
M  V30 56553 C 407.068 -5.81037 5.05421 0
M  V30 56554 C 406.338 -4.78366 5.89277 0
M  V30 56555 O 406.128 -3.58302 5.08433 0
M  V30 56556 C 404.938 -5.17448 6.36119 0
M  V30 56557 O 404.548 -4.45271 7.53232 0
M  V30 56558 C 404.058 -4.74639 5.19936 0
M  V30 56559 C 404.768 -3.49432 4.70418 0
M  V30 56560 N 404.718 -3.31776 3.22945 0
M  V30 56561 H 407.557 -6.54213 5.71376 0
M  V30 56562 H 407.829 -5.30492 4.44033 0
M  V30 56563 H 406.961 -4.55889 6.76652 0
M  V30 56564 P 402.998 -4.23843 7.83734 0
M  V30 56565 O 402.778 -4.19407 9.29784 0
M  V30 56566 O 402.208 -5.24426 7.09156 0
M  V30 56567 O 402.748 -2.7935 7.20758 0
M  V30 56568 C 403.688 -1.7299 7.50419 0
M  V30 56569 C 402.958 -0.406376 7.57911 0
M  V30 56570 O 402.748 0.0897726 6.21935 0
M  V30 56571 C 401.558 -0.447224 8.1878 0
M  V30 56572 O 401.168 0.825065 8.71101 0
M  V30 56573 C 400.678 -0.783801 6.99623 0
M  V30 56574 C 401.388 -0.0619192 5.85967 0
M  V30 56575 N 401.338 -0.7859 4.56281 0
M  V30 56576 H 404.177 -1.93423 8.4679 0
M  V30 56577 H 404.449 -1.68181 6.71046 0
M  V30 56578 H 403.581 0.289041 8.15388 0
M  V30 56579 P 399.618 1.17771 8.83182 0
M  V30 56580 O 399.398 2.07206 9.98732 0
M  V30 56581 O 398.828 -0.0743816 8.81969 0
M  V30 56582 O 399.368 1.97652 7.47304 0
M  V30 56583 C 400.308 3.01133 7.08783 0
M  V30 56584 C 399.578 4.12613 6.37049 0
M  V30 56585 O 399.368 3.72827 4.97879 0
M  V30 56586 C 398.178 4.45085 6.88694 0
M  V30 56587 O 397.788 5.7877 6.5624 0
M  V30 56588 C 397.298 3.47817 6.12078 0
M  V30 56589 C 398.008 3.39414 4.77697 0
M  V30 56590 N 397.958 2.04615 4.15333 0
M  V30 56591 H 400.797 3.41248 7.98759 0
M  V30 56592 H 401.069 2.5837 6.41742 0
M  V30 56593 H 400.201 5.02657 6.42673 0
M  V30 56594 P 396.238 6.144 6.45285 0
M  V30 56595 O 396.018 7.54673 6.86199 0
M  V30 56596 O 395.448 5.12391 7.179 0
M  V30 56597 O 395.988 5.99158 4.88404 0
M  V30 56598 C 396.928 6.60234 3.96415 0
M  V30 56599 C 396.198 7.08259 2.72856 0
M  V30 56600 O 395.988 5.9427 1.83651 0
M  V30 56601 C 394.798 7.64886 2.9555 0
M  V30 56602 O 394.408 8.53963 1.90717 0
M  V30 56603 C 393.918 6.4116 2.90739 0
M  V30 56604 C 394.628 5.55375 1.86963 0
M  V30 56605 N 394.578 4.09448 2.16152 0
M  V30 56606 H 397.417 7.45574 4.45629 0
M  V30 56607 H 397.689 5.85864 3.679 0
M  V30 56608 H 396.821 7.84412 2.24479 0
M  V30 56609 H 394.166 5.73457 0.888562 0
M  V30 56610 H 393.886 5.90877 3.88583 0
M  V30 56611 H 392.895 6.6596 2.58858 0
M  V30 56612 H 394.729 8.16339 3.92049 0
M  V30 56613 P 392.858 8.7635 1.60911 0
M  V30 56614 O 392.638 10.1388 1.11561 0
M  V30 56615 O 392.068 8.36503 2.79617 0
M  V30 56616 O 392.608 7.71806 0.42951 0
M  V30 56617 C 393.548 7.67148 -0.673689 0
M  V30 56618 C 392.818 7.33374 -1.95559 0
M  V30 56619 O 392.608 5.88721 -2.00726 0
M  V30 56620 C 391.418 7.92526 -2.10483 0
M  V30 56621 O 391.028 8.02971 -3.47653 0
M  V30 56622 C 390.538 6.89602 -1.41652 0
M  V30 56623 C 391.248 5.59201 -1.75185 0
M  V30 56624 N 391.198 4.58235 -0.662552 0
M  V30 56625 H 394.037 8.65116 -0.777161 0
M  V30 56626 H 394.309 6.90173 -0.474152 0
M  V30 56627 H 393.441 7.66548 -2.79458 0
M  V30 56628 P 389.478 8.03563 -3.84925 0
M  V30 56629 O 389.258 8.85821 -5.0569 0
M  V30 56630 O 388.688 8.41101 -2.65469 0
M  V30 56631 O 389.228 6.4965 -4.18908 0
M  V30 56632 C 390.168 5.81037 -5.05421 0
M  V30 56633 C 389.438 4.78366 -5.89277 0
M  V30 56634 O 389.228 3.58302 -5.08433 0
M  V30 56635 C 388.038 5.17448 -6.36119 0
M  V30 56636 O 387.648 4.45271 -7.53232 0
M  V30 56637 C 387.158 4.74639 -5.19936 0
M  V30 56638 C 387.868 3.49432 -4.70418 0
M  V30 56639 N 387.818 3.31776 -3.22945 0
M  V30 56640 H 390.657 6.54213 -5.71376 0
M  V30 56641 H 390.929 5.30492 -4.44033 0
M  V30 56642 H 390.061 4.55889 -6.76652 0
M  V30 56643 P 386.098 4.23843 -7.83734 0
M  V30 56644 O 385.878 4.19407 -9.29784 0
M  V30 56645 O 385.308 5.24426 -7.09156 0
M  V30 56646 O 385.848 2.7935 -7.20758 0
M  V30 56647 C 386.788 1.7299 -7.50419 0
M  V30 56648 C 386.058 0.406376 -7.57911 0
M  V30 56649 O 385.848 -0.0897726 -6.21935 0
M  V30 56650 C 384.658 0.447224 -8.1878 0
M  V30 56651 O 384.268 -0.825065 -8.71101 0
M  V30 56652 C 383.778 0.783801 -6.99623 0
M  V30 56653 C 384.488 0.0619192 -5.85967 0
M  V30 56654 N 384.438 0.7859 -4.56281 0
M  V30 56655 H 387.277 1.93423 -8.4679 0
M  V30 56656 H 387.549 1.68181 -6.71046 0
M  V30 56657 H 386.681 -0.289041 -8.15388 0
M  V30 56658 P 382.718 -1.17771 -8.83182 0
M  V30 56659 O 382.498 -2.07206 -9.98732 0
M  V30 56660 O 381.928 0.0743816 -8.81969 0
M  V30 56661 O 382.468 -1.97652 -7.47304 0
M  V30 56662 C 383.408 -3.01133 -7.08783 0
M  V30 56663 C 382.678 -4.12613 -6.37049 0
M  V30 56664 O 382.468 -3.72827 -4.97879 0
M  V30 56665 C 381.278 -4.45085 -6.88694 0
M  V30 56666 O 380.888 -5.7877 -6.5624 0
M  V30 56667 C 380.398 -3.47817 -6.12078 0
M  V30 56668 C 381.108 -3.39414 -4.77697 0
M  V30 56669 N 381.058 -2.04615 -4.15333 0
M  V30 56670 H 383.897 -3.41248 -7.98759 0
M  V30 56671 H 384.169 -2.5837 -6.41742 0
M  V30 56672 H 383.301 -5.02657 -6.42673 0
M  V30 56673 P 379.338 -6.144 -6.45285 0
M  V30 56674 O 379.118 -7.54673 -6.86199 0
M  V30 56675 O 378.548 -5.12391 -7.179 0
M  V30 56676 O 379.088 -5.99158 -4.88404 0
M  V30 56677 C 380.028 -6.60234 -3.96415 0
M  V30 56678 C 379.298 -7.08259 -2.72856 0
M  V30 56679 O 379.088 -5.9427 -1.83651 0
M  V30 56680 C 377.898 -7.64886 -2.9555 0
M  V30 56681 O 377.508 -8.53963 -1.90717 0
M  V30 56682 C 377.018 -6.4116 -2.90739 0
M  V30 56683 C 377.728 -5.55375 -1.86963 0
M  V30 56684 N 377.678 -4.09664 -2.15742 0
M  V30 56685 H 380.517 -7.45574 -4.45629 0
M  V30 56686 H 380.789 -5.86232 -3.67314 0
M  V30 56687 H 379.921 -7.84412 -2.24479 0
M  V30 56688 P 375.958 -8.7635 -1.60911 0
M  V30 56689 O 375.738 -10.1388 -1.11561 0
M  V30 56690 O 375.168 -8.36503 -2.79617 0
M  V30 56691 O 375.708 -7.71806 -0.42951 0
M  V30 56692 C 376.648 -7.67148 0.673689 0
M  V30 56693 C 375.918 -7.33374 1.95559 0
M  V30 56694 O 375.708 -5.88721 2.00726 0
M  V30 56695 C 374.518 -7.92526 2.10483 0
M  V30 56696 O 374.128 -8.02971 3.47653 0
M  V30 56697 C 373.638 -6.89602 1.41652 0
M  V30 56698 C 374.348 -5.59201 1.75185 0
M  V30 56699 N 374.298 -4.58235 0.662552 0
M  V30 56700 H 377.137 -8.65116 0.777161 0
M  V30 56701 H 377.409 -6.90173 0.474152 0
M  V30 56702 H 376.541 -7.66548 2.79458 0
M  V30 56703 P 372.578 -8.03563 3.84925 0
M  V30 56704 O 372.358 -8.85821 5.0569 0
M  V30 56705 O 371.788 -8.41101 2.65469 0
M  V30 56706 O 372.328 -6.4965 4.18908 0
M  V30 56707 C 373.268 -5.81037 5.05421 0
M  V30 56708 C 372.538 -4.78366 5.89277 0
M  V30 56709 O 372.328 -3.58302 5.08433 0
M  V30 56710 C 371.138 -5.17448 6.36119 0
M  V30 56711 O 370.748 -4.45271 7.53232 0
M  V30 56712 C 370.258 -4.74639 5.19936 0
M  V30 56713 C 370.968 -3.49432 4.70418 0
M  V30 56714 N 370.918 -3.32099 3.22613 0
M  V30 56715 H 373.757 -6.54213 5.71376 0
M  V30 56716 H 374.029 -5.30936 4.43503 0
M  V30 56717 H 373.161 -4.55889 6.76652 0
M  V30 56718 H 370.506 -2.61715 5.17932 0
M  V30 56719 H 370.226 -5.52155 4.41878 0
M  V30 56720 H 369.235 -4.51981 5.53374 0
M  V30 56721 H 371.069 -6.25124 6.55234 0
M  V30 56722 P 369.198 -4.23843 7.83734 0
M  V30 56723 O 368.978 -4.19407 9.29784 0
M  V30 56724 O 368.408 -5.24426 7.09156 0
M  V30 56725 O 368.948 -2.7935 7.20758 0
M  V30 56726 C 369.888 -1.7299 7.50419 0
M  V30 56727 C 369.158 -0.406376 7.57911 0
M  V30 56728 O 368.948 0.0897726 6.21935 0
M  V30 56729 C 367.758 -0.447224 8.1878 0
M  V30 56730 O 367.368 0.825065 8.71101 0
M  V30 56731 C 366.878 -0.783801 6.99623 0
M  V30 56732 C 367.588 -0.0619192 5.85967 0
M  V30 56733 N 367.538 -0.7859 4.56281 0
M  V30 56734 H 370.377 -1.93423 8.4679 0
M  V30 56735 H 370.649 -1.68181 6.71046 0
M  V30 56736 H 369.781 0.289041 8.15388 0
M  V30 56737 P 365.818 1.17771 8.83182 0
M  V30 56738 O 365.598 2.07206 9.98732 0
M  V30 56739 O 365.028 -0.0743816 8.81969 0
M  V30 56740 O 365.568 1.97652 7.47304 0
M  V30 56741 C 366.508 3.01133 7.08783 0
M  V30 56742 C 365.778 4.12613 6.37049 0
M  V30 56743 O 365.568 3.72827 4.97879 0
M  V30 56744 C 364.378 4.45085 6.88694 0
M  V30 56745 O 363.988 5.7877 6.5624 0
M  V30 56746 C 363.498 3.47817 6.12078 0
M  V30 56747 C 364.208 3.39414 4.77697 0
M  V30 56748 N 364.158 2.04199 4.15538 0
M  V30 56749 C 364.238 0.821545 4.76977 0
M  V30 56750 N 364.168 -0.1794 3.94592 0
M  V30 56751 C 364.018 0.419121 2.70776 0
M  V30 56752 C 363.888 -0.109072 1.40577 0
M  V30 56753 N 363.878 -1.4104 1.1344 0
M  V30 56754 N 363.768 0.764381 0.39411 0
M  V30 56755 C 363.778 2.06587 0.664135 0
M  V30 56756 N 363.898 2.67948 1.82153 0
M  V30 56757 C 364.018 1.77942 2.8147 0
M  V30 56758 H 366.997 3.41248 7.98759 0
M  V30 56759 H 367.269 2.57728 6.42 0
M  V30 56760 H 366.401 5.02657 6.42673 0
M  V30 56761 H 363.746 4.11708 4.08956 0
M  V30 56762 H 363.466 2.49626 6.61679 0
M  V30 56763 H 362.475 3.8662 6.00862 0
M  V30 56764 H 364.309 4.29991 7.97006 0
M  V30 56765 H 364.35 0.702451 5.84696 0
M  V30 56766 H 363.969 -2.09647 1.89651 0
M  V30 56767 H 363.78 -1.73358 0.160575 0
M  V30 56768 H 363.672 2.71695 -0.195838 0
M  V30 56769 P 362.438 6.144 6.45285 0
M  V30 56770 O 362.218 7.54673 6.86199 0
M  V30 56771 O 361.648 5.12391 7.179 0
M  V30 56772 O 362.188 5.99158 4.88404 0
M  V30 56773 C 363.128 6.60234 3.96415 0
M  V30 56774 C 362.398 7.08259 2.72856 0
M  V30 56775 O 362.188 5.9427 1.83651 0
M  V30 56776 C 360.998 7.64886 2.9555 0
M  V30 56777 O 360.608 8.53963 1.90717 0
M  V30 56778 C 360.118 6.4116 2.90739 0
M  V30 56779 C 360.828 5.55375 1.86963 0
M  V30 56780 N 360.778 4.09664 2.15742 0
M  V30 56781 H 363.617 7.45574 4.45629 0
M  V30 56782 H 363.889 5.86232 3.67314 0
M  V30 56783 H 363.021 7.84412 2.24479 0
M  V30 56784 P 359.058 8.7635 1.60911 0
M  V30 56785 O 358.838 10.1388 1.11561 0
M  V30 56786 O 358.268 8.36503 2.79617 0
M  V30 56787 O 358.808 7.71806 0.42951 0
M  V30 56788 C 359.748 7.66948 -0.673514 0
M  V30 56789 C 359.018 7.33374 -1.95559 0
M  V30 56790 O 358.808 5.88721 -2.00726 0
M  V30 56791 C 357.618 7.92218 -2.1125 0
M  V30 56792 O 357.228 8.02971 -3.47653 0
M  V30 56793 C 356.738 6.89504 -1.41631 0
M  V30 56794 C 357.448 5.59106 -1.75155 0
M  V30 56795 N 357.398 4.58136 -0.662409 0
M  V30 56796 C 357.248 3.26059 -1.02863 0
M  V30 56797 O 357.158 2.90743 -2.19009 0
M  V30 56798 N 357.208 2.35995 0.0155585 0
M  V30 56799 C 357.298 2.65248 1.35603 0
M  V30 56800 C 357.448 4.05747 1.64698 0
M  V30 56801 C 357.498 4.96734 0.652411 0
M  V30 56802 H 360.239 8.64917 -0.776982 0
M  V30 56803 H 360.508 6.89974 -0.474015 0
M  V30 56804 H 359.641 7.66548 -2.79458 0
M  V30 56805 H 356.986 5.16076 -2.65138 0
M  V30 56806 H 356.707 7.06433 -0.329384 0
M  V30 56807 H 355.715 6.90829 -1.81996 0
M  V30 56808 H 357.549 8.90774 -1.62639 0
M  V30 56809 H 357.62 6.02181 0.895285 0
M  V30 56810 P 355.678 8.03563 -3.84925 0
M  V30 56811 O 355.458 8.85821 -5.0569 0
M  V30 56812 O 354.888 8.41101 -2.65469 0
M  V30 56813 O 355.428 6.4965 -4.18908 0
M  V30 56814 C 356.368 5.81037 -5.05421 0
M  V30 56815 C 355.638 4.78366 -5.89277 0
M  V30 56816 O 355.428 3.58302 -5.08433 0
M  V30 56817 C 354.238 5.17448 -6.36119 0
M  V30 56818 O 353.848 4.45271 -7.53232 0
M  V30 56819 C 353.358 4.74639 -5.19936 0
M  V30 56820 C 354.068 3.49432 -4.70418 0
M  V30 56821 N 354.018 3.31776 -3.22945 0
M  V30 56822 H 356.857 6.54213 -5.71376 0
M  V30 56823 H 357.129 5.30492 -4.44033 0
M  V30 56824 H 356.261 4.55889 -6.76652 0
M  V30 56825 P 352.298 4.23843 -7.83734 0
M  V30 56826 O 352.078 4.19407 -9.29784 0
M  V30 56827 O 351.508 5.24426 -7.09156 0
M  V30 56828 O 352.048 2.7935 -7.20758 0
M  V30 56829 C 352.988 1.7299 -7.50419 0
M  V30 56830 C 352.258 0.406376 -7.57911 0
M  V30 56831 O 352.048 -0.0897726 -6.21935 0
M  V30 56832 C 350.858 0.447224 -8.1878 0
M  V30 56833 O 350.468 -0.825065 -8.71101 0
M  V30 56834 C 349.978 0.783801 -6.99623 0
M  V30 56835 C 350.688 0.0619192 -5.85967 0
M  V30 56836 N 350.638 0.7859 -4.56281 0
M  V30 56837 C 350.718 2.14308 -4.31736 0
M  V30 56838 N 350.638 2.46106 -3.05116 0
M  V30 56839 C 350.498 1.23422 -2.4014 0
M  V30 56840 C 350.368 0.938381 -1.02409 0
M  V30 56841 O 350.348 1.70876 -0.0650402 0
M  V30 56842 N 350.248 -0.444647 -0.805413 0
M  V30 56843 C 350.248 -1.40829 -1.79435 0
M  V30 56844 N 350.118 -2.67213 -1.38558 0
M  V30 56845 N 350.378 -1.12947 -3.09005 0
M  V30 56846 C 350.498 0.204887 -3.32369 0
M  V30 56847 H 353.477 1.93423 -8.4679 0
M  V30 56848 H 353.749 1.68181 -6.71046 0
M  V30 56849 H 352.881 -0.289041 -8.15388 0
M  V30 56850 H 350.226 -0.927166 -5.72947 0
M  V30 56851 H 349.946 1.87 -6.82132 0
M  V30 56852 H 348.955 0.404009 -7.13457 0
M  V30 56853 H 350.789 1.20612 -8.97633 0
M  V30 56854 H 350.838 2.88284 -5.10874 0
M  V30 56855 H 350.156 -0.755087 0.140242 0
M  V30 56856 H 350.119 -3.43967 -2.0729 0
M  V30 56857 H 350.018 -2.88096 -0.380644 0
M  V30 56858 P 348.918 -1.17771 -8.83182 0
M  V30 56859 O 348.698 -2.07206 -9.98732 0
M  V30 56860 O 348.128 0.0743816 -8.81969 0
M  V30 56861 O 348.668 -1.97652 -7.47304 0
M  V30 56862 C 349.608 -3.01133 -7.08783 0
M  V30 56863 C 348.878 -4.12613 -6.37049 0
M  V30 56864 O 348.668 -3.72827 -4.97879 0
M  V30 56865 C 347.478 -4.45085 -6.88694 0
M  V30 56866 O 347.088 -5.7877 -6.5624 0
M  V30 56867 C 346.598 -3.47817 -6.12078 0
M  V30 56868 C 347.308 -3.39414 -4.77697 0
M  V30 56869 N 347.258 -2.04199 -4.15538 0
M  V30 56870 H 350.097 -3.41248 -7.98759 0
M  V30 56871 H 350.369 -2.57728 -6.42 0
M  V30 56872 H 349.501 -5.02657 -6.42673 0
M  V30 56873 H 346.846 -4.11708 -4.08956 0
M  V30 56874 H 346.566 -2.49626 -6.61679 0
M  V30 56875 H 345.575 -3.8662 -6.00862 0
M  V30 56876 H 347.409 -4.29991 -7.97006 0
M  V30 56877 P 345.538 -6.144 -6.45285 0
M  V30 56878 O 345.318 -7.54673 -6.86199 0
M  V30 56879 O 344.748 -5.12391 -7.179 0
M  V30 56880 O 345.288 -5.99158 -4.88404 0
M  V30 56881 C 346.228 -6.60234 -3.96415 0
M  V30 56882 C 345.498 -7.08259 -2.72856 0
M  V30 56883 O 345.288 -5.9427 -1.83651 0
M  V30 56884 C 344.098 -7.64886 -2.9555 0
M  V30 56885 O 343.708 -8.53963 -1.90717 0
M  V30 56886 C 343.218 -6.4116 -2.90739 0
M  V30 56887 C 343.928 -5.55375 -1.86963 0
M  V30 56888 N 343.878 -4.09664 -2.15742 0
M  V30 56889 H 346.717 -7.45574 -4.45629 0
M  V30 56890 H 346.989 -5.86232 -3.67314 0
M  V30 56891 H 346.121 -7.84412 -2.24479 0
M  V30 56892 P 342.158 -8.7635 -1.60911 0
M  V30 56893 O 341.938 -10.1388 -1.11561 0
M  V30 56894 O 341.368 -8.36503 -2.79617 0
M  V30 56895 O 341.908 -7.71806 -0.42951 0
M  V30 56896 C 342.848 -7.67148 0.673689 0
M  V30 56897 C 342.118 -7.33374 1.95559 0
M  V30 56898 O 341.908 -5.88721 2.00726 0
M  V30 56899 C 340.718 -7.92526 2.10483 0
M  V30 56900 O 340.328 -8.02971 3.47653 0
M  V30 56901 C 339.838 -6.89602 1.41652 0
M  V30 56902 C 340.548 -5.59201 1.75185 0
M  V30 56903 N 340.498 -4.58301 0.657969 0
M  V30 56904 H 343.337 -8.65116 0.777161 0
M  V30 56905 H 343.609 -6.9022 0.46725 0
M  V30 56906 H 342.741 -7.66548 2.79458 0
M  V30 56907 H 340.086 -5.16165 2.65183 0
M  V30 56908 H 339.806 -7.06433 0.329384 0
M  V30 56909 H 338.815 -6.90926 1.82021 0
M  V30 56910 H 340.649 -8.90873 1.62657 0
M  V30 56911 P 338.778 -8.03563 3.84925 0
M  V30 56912 O 338.558 -8.85821 5.0569 0
M  V30 56913 O 337.988 -8.41101 2.65469 0
M  V30 56914 O 338.528 -6.4965 4.18908 0
M  V30 56915 C 339.468 -5.81037 5.05421 0
M  V30 56916 C 338.738 -4.78366 5.89277 0
M  V30 56917 O 338.528 -3.58302 5.08433 0
M  V30 56918 C 337.338 -5.17448 6.36119 0
M  V30 56919 O 336.948 -4.45271 7.53232 0
M  V30 56920 C 336.458 -4.74639 5.19936 0
M  V30 56921 C 337.168 -3.49432 4.70418 0
M  V30 56922 N 337.118 -3.31776 3.22945 0
M  V30 56923 H 339.957 -6.54213 5.71376 0
M  V30 56924 H 340.229 -5.30492 4.44033 0
M  V30 56925 H 339.361 -4.55889 6.76652 0
M  V30 56926 P 335.398 -4.23843 7.83734 0
M  V30 56927 O 335.178 -4.19407 9.29784 0
M  V30 56928 O 334.608 -5.24426 7.09156 0
M  V30 56929 O 335.148 -2.7935 7.20758 0
M  V30 56930 C 336.088 -1.7299 7.50419 0
M  V30 56931 C 335.358 -0.406376 7.57911 0
M  V30 56932 O 335.148 0.0897726 6.21935 0
M  V30 56933 C 333.958 -0.447224 8.1878 0
M  V30 56934 O 333.568 0.825065 8.71101 0
M  V30 56935 C 333.078 -0.783801 6.99623 0
M  V30 56936 C 333.788 -0.0619192 5.85967 0
M  V30 56937 N 333.738 -0.790462 4.56202 0
M  V30 56938 H 336.577 -1.93423 8.4679 0
M  V30 56939 H 336.849 -1.68852 6.70877 0
M  V30 56940 H 335.981 0.289041 8.15388 0
M  V30 56941 H 333.326 0.927006 5.72848 0
M  V30 56942 H 333.046 -1.86973 6.82036 0
M  V30 56943 H 332.055 -0.403953 7.13357 0
M  V30 56944 H 333.889 -1.20599 8.97534 0
M  V30 56945 P 332.018 1.17771 8.83182 0
M  V30 56946 O 331.798 2.07206 9.98732 0
M  V30 56947 O 331.228 -0.0743816 8.81969 0
M  V30 56948 O 331.768 1.97652 7.47304 0
M  V30 56949 C 332.708 3.01055 7.08599 0
M  V30 56950 C 331.978 4.12613 6.37049 0
M  V30 56951 O 331.768 3.72827 4.97879 0
M  V30 56952 C 330.578 4.45719 6.88164 0
M  V30 56953 O 330.188 5.7877 6.5624 0
M  V30 56954 C 329.698 3.47768 6.11991 0
M  V30 56955 C 330.408 3.39356 4.77615 0
M  V30 56956 N 330.358 2.04571 4.15244 0
M  V30 56957 C 330.208 1.98587 2.78314 0
M  V30 56958 O 330.118 2.98134 2.08835 0
M  V30 56959 N 330.168 0.714467 2.24925 0
M  V30 56960 C 330.258 -0.470001 2.94169 0
M  V30 56961 C 330.408 -0.312541 4.36783 0
M  V30 56962 C 330.458 0.914512 4.92583 0
M  V30 56963 H 333.199 3.41169 7.98575 0
M  V30 56964 H 333.468 2.58295 6.41556 0
M  V30 56965 H 332.601 5.02657 6.42673 0
M  V30 56966 H 329.946 4.11637 4.08885 0
M  V30 56967 H 329.667 2.49626 6.61679 0
M  V30 56968 H 328.675 3.86566 6.00778 0
M  V30 56969 H 330.509 4.29943 7.96918 0
M  V30 56970 H 330.58 1.00937 6.00374 0
M  V30 56971 P 328.638 6.144 6.45285 0
M  V30 56972 O 328.418 7.54673 6.86199 0
M  V30 56973 O 327.848 5.12391 7.179 0
M  V30 56974 O 328.388 5.99158 4.88404 0
M  V30 56975 C 329.328 6.60234 3.96415 0
M  V30 56976 C 328.598 7.08259 2.72856 0
M  V30 56977 O 328.388 5.9427 1.83651 0
M  V30 56978 C 327.198 7.64886 2.9555 0
M  V30 56979 O 326.808 8.53963 1.90717 0
M  V30 56980 C 326.318 6.4116 2.90739 0
M  V30 56981 C 327.028 5.55375 1.86963 0
M  V30 56982 N 326.978 4.09664 2.15742 0
M  V30 56983 H 329.817 7.45574 4.45629 0
M  V30 56984 H 330.089 5.86232 3.67314 0
M  V30 56985 H 329.221 7.84412 2.24479 0
M  V30 56986 P 325.258 8.7635 1.60911 0
M  V30 56987 O 325.038 10.1388 1.11561 0
M  V30 56988 O 324.468 8.36503 2.79617 0
M  V30 56989 O 325.008 7.71806 0.42951 0
M  V30 56990 C 325.948 7.67148 -0.673689 0
M  V30 56991 C 325.218 7.33374 -1.95559 0
M  V30 56992 O 325.008 5.88721 -2.00726 0
M  V30 56993 C 323.818 7.92526 -2.10483 0
M  V30 56994 O 323.428 8.02971 -3.47653 0
M  V30 56995 C 322.938 6.89602 -1.41652 0
M  V30 56996 C 323.648 5.59201 -1.75185 0
M  V30 56997 N 323.598 4.58301 -0.657969 0
M  V30 56998 H 326.437 8.65116 -0.777161 0
M  V30 56999 H 326.709 6.9022 -0.46725 0
M  V30 57000 H 325.841 7.66548 -2.79458 0
M  V30 57001 H 323.186 5.16165 -2.65183 0
M  V30 57002 H 322.906 7.06433 -0.329384 0
M  V30 57003 H 321.915 6.90926 -1.82021 0
M  V30 57004 H 323.749 8.90873 -1.62657 0
M  V30 57005 P 321.878 8.03563 -3.84925 0
M  V30 57006 O 321.658 8.85821 -5.0569 0
M  V30 57007 O 321.088 8.41101 -2.65469 0
M  V30 57008 O 321.628 6.4965 -4.18908 0
M  V30 57009 C 322.568 5.81037 -5.05421 0
M  V30 57010 C 321.838 4.78366 -5.89277 0
M  V30 57011 O 321.628 3.58302 -5.08433 0
M  V30 57012 C 320.438 5.17448 -6.36119 0
M  V30 57013 O 320.048 4.45271 -7.53232 0
M  V30 57014 C 319.558 4.74639 -5.19936 0
M  V30 57015 C 320.268 3.49432 -4.70418 0
M  V30 57016 N 320.218 3.31776 -3.22945 0
M  V30 57017 H 323.057 6.54213 -5.71376 0
M  V30 57018 H 323.329 5.30492 -4.44033 0
M  V30 57019 H 322.461 4.55889 -6.76652 0
M  V30 57020 P 318.498 4.23843 -7.83734 0
M  V30 57021 O 318.278 4.19407 -9.29784 0
M  V30 57022 O 317.708 5.24426 -7.09156 0
M  V30 57023 O 318.248 2.7935 -7.20758 0
M  V30 57024 C 319.188 1.7299 -7.50419 0
M  V30 57025 C 318.458 0.406376 -7.57911 0
M  V30 57026 O 318.248 -0.0897726 -6.21935 0
M  V30 57027 C 317.058 0.447224 -8.1878 0
M  V30 57028 O 316.668 -0.825065 -8.71101 0
M  V30 57029 C 316.178 0.783801 -6.99623 0
M  V30 57030 C 316.888 0.0619192 -5.85967 0
M  V30 57031 N 316.838 0.790462 -4.56202 0
M  V30 57032 H 319.677 1.93423 -8.4679 0
M  V30 57033 H 319.949 1.68852 -6.70877 0
M  V30 57034 H 319.081 -0.289041 -8.15388 0
M  V30 57035 H 316.426 -0.927006 -5.72848 0
M  V30 57036 H 316.146 1.86973 -6.82036 0
M  V30 57037 H 315.155 0.403953 -7.13357 0
M  V30 57038 H 316.989 1.20599 -8.97534 0
M  V30 57039 P 315.118 -1.17771 -8.83182 0
M  V30 57040 O 314.898 -2.07206 -9.98732 0
M  V30 57041 O 314.328 0.0743816 -8.81969 0
M  V30 57042 O 314.868 -1.97652 -7.47304 0
M  V30 57043 C 315.808 -3.01055 -7.08599 0
M  V30 57044 C 315.078 -4.12613 -6.37049 0
M  V30 57045 O 314.868 -3.72827 -4.97879 0
M  V30 57046 C 313.678 -4.45719 -6.88164 0
M  V30 57047 O 313.288 -5.7877 -6.5624 0
M  V30 57048 C 312.798 -3.47768 -6.11991 0
M  V30 57049 C 313.508 -3.39356 -4.77615 0
M  V30 57050 N 313.458 -2.04571 -4.15244 0
M  V30 57051 C 313.308 -1.98587 -2.78314 0
M  V30 57052 O 313.218 -2.98134 -2.08835 0
M  V30 57053 N 313.268 -0.714467 -2.24925 0
M  V30 57054 C 313.358 0.470001 -2.94169 0
M  V30 57055 O 313.308 1.55587 -2.35195 0
M  V30 57056 C 313.508 0.312541 -4.36783 0
M  V30 57057 C 313.618 1.57711 -5.16352 0
M  V30 57058 C 313.558 -0.914512 -4.92583 0
M  V30 57059 H 316.299 -3.41169 -7.98575 0
M  V30 57060 H 316.568 -2.58295 -6.41556 0
M  V30 57061 H 315.701 -5.02657 -6.42673 0
M  V30 57062 H 313.046 -4.11637 -4.08885 0
M  V30 57063 H 312.767 -2.49626 -6.61679 0
M  V30 57064 H 311.775 -3.86566 -6.00778 0
M  V30 57065 H 313.609 -4.29943 -7.96918 0
M  V30 57066 H 313.68 -1.00937 -6.00374 0
M  V30 57067 H 312.65 1.80153 -5.63503 0
M  V30 57068 H 314.387 1.4566 -5.94104 0
M  V30 57069 H 313.899 2.40664 -4.49645 0
M  V30 57070 H 313.163 -0.647622 -1.25697 0
M  V30 57071 P 311.738 -6.144 -6.45285 0
M  V30 57072 O 311.518 -7.54673 -6.86199 0
M  V30 57073 O 310.948 -5.12391 -7.179 0
M  V30 57074 O 311.488 -5.99158 -4.88404 0
M  V30 57075 C 312.428 -6.60062 -3.96313 0
M  V30 57076 C 311.698 -7.08259 -2.72856 0
M  V30 57077 O 311.488 -5.9427 -1.83651 0
M  V30 57078 C 310.298 -7.65087 -2.94749 0
M  V30 57079 O 309.908 -8.53963 -1.90717 0
M  V30 57080 C 309.418 -6.41069 -2.90698 0
M  V30 57081 C 310.128 -5.5528 -1.86931 0
M  V30 57082 N 310.078 -4.09575 -2.15696 0
M  V30 57083 C 309.928 -3.24249 -1.08435 0
M  V30 57084 O 309.838 -3.63946 0.0628747 0
M  V30 57085 N 309.888 -1.90009 -1.39973 0
M  V30 57086 C 309.978 -1.34884 -2.65614 0
M  V30 57087 O 309.928 -0.123716 -2.81728 0
M  V30 57088 C 310.128 -2.3145 -3.71736 0
M  V30 57089 C 310.238 -1.75913 -5.10438 0
M  V30 57090 C 310.178 -3.63518 -3.44754 0
M  V30 57091 H 312.919 -7.45402 -4.45526 0
M  V30 57092 H 313.188 -5.86062 -3.67208 0
M  V30 57093 H 312.321 -7.84412 -2.24479 0
M  V30 57094 H 309.666 -5.73358 -0.888409 0
M  V30 57095 H 309.387 -5.90877 -3.88583 0
M  V30 57096 H 308.395 -6.65867 -2.58821 0
M  V30 57097 H 310.229 -8.16248 -3.92006 0
M  V30 57098 H 310.3 -4.34551 -4.26383 0
M  V30 57099 H 309.27 -1.85471 -5.61775 0
M  V30 57100 H 311.007 -2.31364 -5.66257 0
M  V30 57101 H 310.519 -0.695936 -5.05229 0
M  V30 57102 H 309.783 -1.26277 -0.63625 0
M  V30 57103 P 308.358 -8.7635 -1.60911 0
M  V30 57104 O 308.138 -10.1388 -1.11561 0
M  V30 57105 O 307.568 -8.36503 -2.79617 0
M  V30 57106 O 308.108 -7.71806 -0.42951 0
M  V30 57107 C 309.048 -7.67148 0.673689 0
M  V30 57108 C 308.318 -7.33374 1.95559 0
M  V30 57109 O 308.108 -5.88721 2.00726 0
M  V30 57110 C 306.918 -7.92526 2.10483 0
M  V30 57111 O 306.528 -8.02971 3.47653 0
M  V30 57112 C 306.038 -6.89602 1.41652 0
M  V30 57113 C 306.748 -5.59201 1.75185 0
M  V30 57114 N 306.698 -4.58235 0.662552 0
M  V30 57115 H 309.537 -8.65116 0.777161 0
M  V30 57116 H 309.809 -6.90173 0.474152 0
M  V30 57117 H 308.941 -7.66548 2.79458 0
M  V30 57118 P 304.978 -8.03563 3.84925 0
M  V30 57119 O 304.758 -8.85821 5.0569 0
M  V30 57120 O 304.188 -8.41101 2.65469 0
M  V30 57121 O 304.728 -6.4965 4.18908 0
M  V30 57122 C 305.668 -5.81037 5.05421 0
M  V30 57123 C 304.938 -4.78366 5.89277 0
M  V30 57124 O 304.728 -3.58302 5.08433 0
M  V30 57125 C 303.538 -5.17448 6.36119 0
M  V30 57126 O 303.148 -4.45271 7.53232 0
M  V30 57127 C 302.658 -4.74639 5.19936 0
M  V30 57128 C 303.368 -3.49432 4.70418 0
M  V30 57129 N 303.318 -3.31776 3.22945 0
M  V30 57130 H 306.157 -6.54213 5.71376 0
M  V30 57131 H 306.429 -5.30492 4.44033 0
M  V30 57132 H 305.561 -4.55889 6.76652 0
M  V30 57133 P 301.598 -4.23843 7.83734 0
M  V30 57134 O 301.378 -4.19407 9.29784 0
M  V30 57135 O 300.808 -5.24426 7.09156 0
M  V30 57136 O 301.348 -2.7935 7.20758 0
M  V30 57137 C 302.288 -1.7299 7.50419 0
M  V30 57138 C 301.558 -0.406376 7.57911 0
M  V30 57139 O 301.348 0.0897726 6.21935 0
M  V30 57140 C 300.158 -0.447224 8.1878 0
M  V30 57141 O 299.768 0.825065 8.71101 0
M  V30 57142 C 299.278 -0.783801 6.99623 0
M  V30 57143 C 299.988 -0.0619192 5.85967 0
M  V30 57144 N 299.938 -0.7859 4.56281 0
M  V30 57145 H 302.777 -1.93423 8.4679 0
M  V30 57146 H 303.049 -1.68181 6.71046 0
M  V30 57147 H 302.181 0.289041 8.15388 0
M  V30 57148 P 298.218 1.17771 8.83182 0
M  V30 57149 O 297.998 2.07206 9.98732 0
M  V30 57150 O 297.428 -0.0743816 8.81969 0
M  V30 57151 O 297.968 1.97652 7.47304 0
M  V30 57152 C 298.908 3.01133 7.08783 0
M  V30 57153 C 298.178 4.12613 6.37049 0
M  V30 57154 O 297.968 3.72827 4.97879 0
M  V30 57155 C 296.778 4.45085 6.88694 0
M  V30 57156 O 296.388 5.7877 6.5624 0
M  V30 57157 C 295.898 3.47817 6.12078 0
M  V30 57158 C 296.608 3.39414 4.77697 0
M  V30 57159 N 296.558 2.04615 4.15333 0
M  V30 57160 H 299.397 3.41248 7.98759 0
M  V30 57161 H 299.669 2.5837 6.41742 0
M  V30 57162 H 298.801 5.02657 6.42673 0
M  V30 57163 P 294.838 6.144 6.45285 0
M  V30 57164 O 294.618 7.54673 6.86199 0
M  V30 57165 O 294.048 5.12391 7.179 0
M  V30 57166 O 294.588 5.99158 4.88404 0
M  V30 57167 C 295.528 6.60234 3.96415 0
M  V30 57168 C 294.798 7.08259 2.72856 0
M  V30 57169 O 294.588 5.9427 1.83651 0
M  V30 57170 C 293.398 7.64886 2.9555 0
M  V30 57171 O 293.008 8.53963 1.90717 0
M  V30 57172 C 292.518 6.4116 2.90739 0
M  V30 57173 C 293.228 5.55375 1.86963 0
M  V30 57174 N 293.178 4.09664 2.15742 0
M  V30 57175 H 296.017 7.45574 4.45629 0
M  V30 57176 H 296.289 5.86232 3.67314 0
M  V30 57177 H 295.421 7.84412 2.24479 0
M  V30 57178 P 291.458 8.7635 1.60911 0
M  V30 57179 O 291.238 10.1388 1.11561 0
M  V30 57180 O 290.668 8.36503 2.79617 0
M  V30 57181 O 291.208 7.71806 0.42951 0
M  V30 57182 C 292.148 7.67148 -0.673689 0
M  V30 57183 C 291.418 7.33374 -1.95559 0
M  V30 57184 O 291.208 5.88721 -2.00726 0
M  V30 57185 C 290.018 7.92526 -2.10483 0
M  V30 57186 O 289.628 8.02971 -3.47653 0
M  V30 57187 C 289.138 6.89602 -1.41652 0
M  V30 57188 C 289.848 5.59201 -1.75185 0
M  V30 57189 N 289.798 4.58301 -0.657969 0
M  V30 57190 H 292.637 8.65116 -0.777161 0
M  V30 57191 H 292.909 6.9022 -0.46725 0
M  V30 57192 H 292.041 7.66548 -2.79458 0
M  V30 57193 H 289.386 5.16165 -2.65183 0
M  V30 57194 H 289.106 7.06433 -0.329384 0
M  V30 57195 H 288.115 6.90926 -1.82021 0
M  V30 57196 H 289.949 8.90873 -1.62657 0
M  V30 57197 P 288.078 8.03563 -3.84925 0
M  V30 57198 O 287.858 8.85821 -5.0569 0
M  V30 57199 O 287.288 8.41101 -2.65469 0
M  V30 57200 O 287.828 6.4965 -4.18908 0
M  V30 57201 C 288.768 5.81037 -5.05421 0
M  V30 57202 C 288.038 4.78366 -5.89277 0
M  V30 57203 O 287.828 3.58302 -5.08433 0
M  V30 57204 C 286.638 5.17448 -6.36119 0
M  V30 57205 O 286.248 4.45271 -7.53232 0
M  V30 57206 C 285.758 4.74639 -5.19936 0
M  V30 57207 C 286.468 3.49432 -4.70418 0
M  V30 57208 N 286.418 3.31776 -3.22945 0
M  V30 57209 H 289.257 6.54213 -5.71376 0
M  V30 57210 H 289.529 5.30492 -4.44033 0
M  V30 57211 H 288.661 4.55889 -6.76652 0
M  V30 57212 P 284.698 4.23843 -7.83734 0
M  V30 57213 O 284.478 4.19407 -9.29784 0
M  V30 57214 O 283.908 5.24426 -7.09156 0
M  V30 57215 O 284.448 2.7935 -7.20758 0
M  V30 57216 C 285.388 1.7299 -7.50419 0
M  V30 57217 C 284.658 0.406376 -7.57911 0
M  V30 57218 O 284.448 -0.0897726 -6.21935 0
M  V30 57219 C 283.258 0.447224 -8.1878 0
M  V30 57220 O 282.868 -0.825065 -8.71101 0
M  V30 57221 C 282.378 0.783801 -6.99623 0
M  V30 57222 C 283.088 0.0619192 -5.85967 0
M  V30 57223 N 283.038 0.7859 -4.56281 0
M  V30 57224 H 285.877 1.93423 -8.4679 0
M  V30 57225 H 286.149 1.68181 -6.71046 0
M  V30 57226 H 285.281 -0.289041 -8.15388 0
M  V30 57227 P 281.318 -1.17771 -8.83182 0
M  V30 57228 O 281.098 -2.07206 -9.98732 0
M  V30 57229 O 280.528 0.0743816 -8.81969 0
M  V30 57230 O 281.068 -1.97652 -7.47304 0
M  V30 57231 C 282.008 -3.01133 -7.08783 0
M  V30 57232 C 281.278 -4.12613 -6.37049 0
M  V30 57233 O 281.068 -3.72827 -4.97879 0
M  V30 57234 C 279.878 -4.45085 -6.88694 0
M  V30 57235 O 279.488 -5.7877 -6.5624 0
M  V30 57236 C 278.998 -3.47817 -6.12078 0
M  V30 57237 C 279.708 -3.39414 -4.77697 0
M  V30 57238 N 279.658 -2.04199 -4.15538 0
M  V30 57239 H 282.497 -3.41248 -7.98759 0
M  V30 57240 H 282.769 -2.57728 -6.42 0
M  V30 57241 H 281.901 -5.02657 -6.42673 0
M  V30 57242 H 279.246 -4.11708 -4.08956 0
M  V30 57243 H 278.966 -2.49626 -6.61679 0
M  V30 57244 H 277.975 -3.8662 -6.00862 0
M  V30 57245 H 279.809 -4.29991 -7.97006 0
M  V30 57246 P 277.938 -6.144 -6.45285 0
M  V30 57247 O 277.718 -7.54673 -6.86199 0
M  V30 57248 O 277.148 -5.12391 -7.179 0
M  V30 57249 O 277.688 -5.99158 -4.88404 0
M  V30 57250 C 278.628 -6.60234 -3.96415 0
M  V30 57251 C 277.898 -7.08259 -2.72856 0
M  V30 57252 O 277.688 -5.9427 -1.83651 0
M  V30 57253 C 276.498 -7.64886 -2.9555 0
M  V30 57254 O 276.108 -8.53963 -1.90717 0
M  V30 57255 C 275.618 -6.4116 -2.90739 0
M  V30 57256 C 276.328 -5.55375 -1.86963 0
M  V30 57257 N 276.278 -4.09664 -2.15742 0
M  V30 57258 C 276.358 -3.44381 -3.37233 0
M  V30 57259 N 276.278 -2.14131 -3.28347 0
M  V30 57260 C 276.138 -1.90247 -1.91588 0
M  V30 57261 C 276.008 -0.683992 -1.20892 0
M  V30 57262 N 275.888 -0.903396 0.173998 0
M  V30 57263 C 275.888 -2.14171 0.784879 0
M  V30 57264 N 275.758 -2.1435 2.11317 0
M  V30 57265 N 276.018 -3.28784 0.119316 0
M  V30 57266 C 276.138 -3.0977 -1.22194 0
M  V30 57267 H 279.117 -7.45574 -4.45629 0
M  V30 57268 H 279.389 -5.86232 -3.67314 0
M  V30 57269 H 278.521 -7.84412 -2.24479 0
M  V30 57270 P 274.558 -8.7635 -1.60911 0
M  V30 57271 O 274.338 -10.1388 -1.11561 0
M  V30 57272 O 273.768 -8.36503 -2.79617 0
M  V30 57273 O 274.308 -7.71806 -0.42951 0
M  V30 57274 C 275.248 -7.67148 0.673689 0
M  V30 57275 C 274.518 -7.33374 1.95559 0
M  V30 57276 O 274.308 -5.88721 2.00726 0
M  V30 57277 C 273.118 -7.92526 2.10483 0
M  V30 57278 O 272.728 -8.02971 3.47653 0
M  V30 57279 C 272.238 -6.89602 1.41652 0
M  V30 57280 C 272.948 -5.59201 1.75185 0
M  V30 57281 N 272.898 -4.58235 0.662552 0
M  V30 57282 H 275.737 -8.65116 0.777161 0
M  V30 57283 H 276.009 -6.90173 0.474152 0
M  V30 57284 H 275.141 -7.66548 2.79458 0
M  V30 57285 P 271.178 -8.03563 3.84925 0
M  V30 57286 O 270.958 -8.85821 5.0569 0
M  V30 57287 O 270.388 -8.41101 2.65469 0
M  V30 57288 O 270.928 -6.49734 4.18962 0
M  V30 57289 C 271.868 -5.81037 5.05421 0
M  V30 57290 C 271.138 -4.79018 5.88876 0
M  V30 57291 O 270.928 -3.58359 5.08515 0
M  V30 57292 C 269.738 -5.17448 6.36119 0
M  V30 57293 O 269.348 -4.45322 7.53318 0
M  V30 57294 C 268.858 -4.74639 5.19936 0
M  V30 57295 C 269.568 -3.49432 4.70418 0
M  V30 57296 N 269.518 -3.31776 3.22945 0
M  V30 57297 C 269.368 -2.02742 2.72939 0
M  V30 57298 O 269.278 -1.08301 3.52749 0
M  V30 57299 N 269.318 -1.96117 1.22063 0
M  V30 57300 C 269.418 -2.8878 0.551566 0
M  V30 57301 N 269.368 -2.65609 -0.750198 0
M  V30 57302 C 269.568 -4.22457 1.03707 0
M  V30 57303 C 269.618 -4.37979 2.39113 0
M  V30 57304 H 272.358 -6.54138 5.7131 0
M  V30 57305 H 272.628 -5.30492 4.44033 0
M  V30 57306 H 271.761 -4.55945 6.76735 0
M  V30 57307 H 269.106 -2.6176 5.18021 0
M  V30 57308 H 268.826 -5.52233 4.41941 0
M  V30 57309 H 267.835 -4.52045 5.53452 0
M  V30 57310 H 269.669 -6.25124 6.55234 0
M  V30 57311 H 269.741 -5.37936 2.80552 0
M  V30 57312 H 269.639 -5.07528 0.359553 0
M  V30 57313 H 269.251 -1.69403 -1.09847 0
M  V30 57314 H 269.447 -3.43701 -1.41792 0
M  V30 57315 P 267.798 -4.23843 7.83734 0
M  V30 57316 O 267.578 -4.19407 9.29784 0
M  V30 57317 O 267.008 -5.24426 7.09156 0
M  V30 57318 O 267.548 -2.7935 7.20758 0
M  V30 57319 C 268.488 -1.7299 7.50419 0
M  V30 57320 C 267.758 -0.406376 7.57911 0
M  V30 57321 O 267.548 0.0897726 6.21935 0
M  V30 57322 C 266.358 -0.447224 8.1878 0
M  V30 57323 O 265.968 0.825065 8.71101 0
M  V30 57324 C 265.478 -0.783801 6.99623 0
M  V30 57325 C 266.188 -0.0619192 5.85967 0
M  V30 57326 N 266.138 -0.7859 4.56281 0
M  V30 57327 H 268.977 -1.93423 8.4679 0
M  V30 57328 H 269.249 -1.68181 6.71046 0
M  V30 57329 H 268.381 0.289041 8.15388 0
M  V30 57330 P 264.418 1.17771 8.83182 0
M  V30 57331 O 264.198 2.07206 9.98732 0
M  V30 57332 O 263.628 -0.0743816 8.81969 0
M  V30 57333 O 264.168 1.97652 7.47304 0
M  V30 57334 C 265.108 3.01133 7.08783 0
M  V30 57335 C 264.378 4.12613 6.37049 0
M  V30 57336 O 264.168 3.72827 4.97879 0
M  V30 57337 C 262.978 4.45085 6.88694 0
M  V30 57338 O 262.588 5.7877 6.5624 0
M  V30 57339 C 262.098 3.47817 6.12078 0
M  V30 57340 C 262.808 3.39414 4.77697 0
M  V30 57341 N 262.758 2.04615 4.15333 0
M  V30 57342 H 265.597 3.41248 7.98759 0
M  V30 57343 H 265.869 2.5837 6.41742 0
M  V30 57344 H 265.001 5.02657 6.42673 0
M  V30 57345 P 261.038 6.144 6.45285 0
M  V30 57346 O 260.818 7.54673 6.86199 0
M  V30 57347 O 260.248 5.12391 7.179 0
M  V30 57348 O 260.788 5.99158 4.88404 0
M  V30 57349 C 261.728 6.60234 3.96415 0
M  V30 57350 C 260.998 7.08259 2.72856 0
M  V30 57351 O 260.788 5.9427 1.83651 0
M  V30 57352 C 259.598 7.64886 2.9555 0
M  V30 57353 O 259.208 8.53963 1.90717 0
M  V30 57354 C 258.718 6.4116 2.90739 0
M  V30 57355 C 259.428 5.55375 1.86963 0
M  V30 57356 N 259.378 4.09664 2.15742 0
M  V30 57357 H 262.217 7.45574 4.45629 0
M  V30 57358 H 262.489 5.86232 3.67314 0
M  V30 57359 H 261.621 7.84412 2.24479 0
M  V30 57360 P 257.658 8.7635 1.60911 0
M  V30 57361 O 257.438 10.1388 1.11561 0
M  V30 57362 O 256.868 8.36503 2.79617 0
M  V30 57363 O 257.408 7.71806 0.42951 0
M  V30 57364 C 258.348 7.67148 -0.673689 0
M  V30 57365 C 257.618 7.33374 -1.95559 0
M  V30 57366 O 257.408 5.88721 -2.00726 0
M  V30 57367 C 256.218 7.92526 -2.10483 0
M  V30 57368 O 255.828 8.02971 -3.47653 0
M  V30 57369 C 255.338 6.89602 -1.41652 0
M  V30 57370 C 256.048 5.59201 -1.75185 0
M  V30 57371 N 255.998 4.58301 -0.657969 0
M  V30 57372 C 256.078 4.79019 0.692603 0
M  V30 57373 N 256.008 3.69736 1.38998 0
M  V30 57374 C 255.858 2.70474 0.438135 0
M  V30 57375 C 255.728 1.30327 0.538142 0
M  V30 57376 N 255.718 0.64304 1.69192 0
M  V30 57377 N 255.608 0.611027 -0.605183 0
M  V30 57378 C 255.618 1.27002 -1.75953 0
M  V30 57379 N 255.738 2.56038 -1.98546 0
M  V30 57380 C 255.858 3.22681 -0.822541 0
M  V30 57381 H 258.837 8.65116 -0.777161 0
M  V30 57382 H 259.109 6.9022 -0.46725 0
M  V30 57383 H 258.241 7.66548 -2.79458 0
M  V30 57384 H 255.586 5.16165 -2.65183 0
M  V30 57385 H 255.306 7.06433 -0.329384 0
M  V30 57386 H 254.315 6.90926 -1.82021 0
M  V30 57387 H 256.149 8.90873 -1.62657 0
M  V30 57388 H 256.19 5.77785 1.13874 0
M  V30 57389 H 255.809 1.15585 2.57991 0
M  V30 57390 H 255.62 -0.382989 1.69835 0
M  V30 57391 H 255.512 0.653331 -2.64449 0
M  V30 57392 P 254.279 8.03563 -3.84925 0
M  V30 57393 O 254.059 8.85821 -5.0569 0
M  V30 57394 O 253.489 8.41101 -2.65469 0
M  V30 57395 O 254.029 6.4965 -4.18908 0
M  V30 57396 C 254.969 5.81037 -5.05421 0
M  V30 57397 C 254.239 4.78366 -5.89277 0
M  V30 57398 O 254.029 3.58302 -5.08433 0
M  V30 57399 C 252.839 5.17448 -6.36119 0
M  V30 57400 O 252.449 4.45271 -7.53232 0
M  V30 57401 C 251.959 4.74639 -5.19936 0
M  V30 57402 C 252.669 3.49432 -4.70418 0
M  V30 57403 N 252.619 3.31776 -3.22945 0
M  V30 57404 H 255.458 6.54213 -5.71376 0
M  V30 57405 H 255.73 5.30492 -4.44033 0
M  V30 57406 H 254.862 4.55889 -6.76652 0
M  V30 57407 P 250.899 4.23843 -7.83734 0
M  V30 57408 O 250.679 4.19407 -9.29784 0
M  V30 57409 O 250.109 5.24426 -7.09156 0
M  V30 57410 O 250.649 2.7935 -7.20758 0
M  V30 57411 C 251.589 1.7299 -7.50419 0
M  V30 57412 C 250.859 0.406376 -7.57911 0
M  V30 57413 O 250.649 -0.0897726 -6.21935 0
M  V30 57414 C 249.459 0.447224 -8.1878 0
M  V30 57415 O 249.069 -0.825065 -8.71101 0
M  V30 57416 C 248.579 0.783801 -6.99623 0
M  V30 57417 C 249.289 0.0619192 -5.85967 0
M  V30 57418 N 249.239 0.7859 -4.56281 0
M  V30 57419 H 252.078 1.93423 -8.4679 0
M  V30 57420 H 252.35 1.68181 -6.71046 0
M  V30 57421 H 251.482 -0.289041 -8.15388 0
M  V30 57422 P 247.519 -1.17771 -8.83182 0
M  V30 57423 O 247.299 -2.07206 -9.98732 0
M  V30 57424 O 246.729 0.0743816 -8.81969 0
M  V30 57425 O 247.269 -1.97652 -7.47304 0
M  V30 57426 C 248.209 -3.01055 -7.08599 0
M  V30 57427 C 247.479 -4.12613 -6.37049 0
M  V30 57428 O 247.269 -3.72827 -4.97879 0
M  V30 57429 C 246.079 -4.45719 -6.88164 0
M  V30 57430 O 245.689 -5.7877 -6.5624 0
M  V30 57431 C 245.199 -3.47768 -6.11991 0
M  V30 57432 C 245.909 -3.39356 -4.77615 0
M  V30 57433 N 245.859 -2.04571 -4.15244 0
M  V30 57434 C 245.709 -1.98587 -2.78314 0
M  V30 57435 O 245.619 -2.98134 -2.08835 0
M  V30 57436 N 245.669 -0.714467 -2.24925 0
M  V30 57437 C 245.759 0.470001 -2.94169 0
M  V30 57438 C 245.909 0.312541 -4.36783 0
M  V30 57439 C 245.959 -0.914512 -4.92583 0
M  V30 57440 H 248.7 -3.41169 -7.98575 0
M  V30 57441 H 248.969 -2.58295 -6.41556 0
M  V30 57442 H 248.102 -5.02657 -6.42673 0
M  V30 57443 H 245.447 -4.11637 -4.08885 0
M  V30 57444 H 245.168 -2.49626 -6.61679 0
M  V30 57445 H 244.176 -3.86566 -6.00778 0
M  V30 57446 H 246.01 -4.29943 -7.96918 0
M  V30 57447 H 246.081 -1.00937 -6.00374 0
M  V30 57448 P 244.139 -6.144 -6.45285 0
M  V30 57449 O 243.919 -7.54673 -6.86199 0
M  V30 57450 O 243.349 -5.12391 -7.179 0
M  V30 57451 O 243.889 -5.99158 -4.88404 0
M  V30 57452 C 244.829 -6.60234 -3.96415 0
M  V30 57453 C 244.099 -7.08259 -2.72856 0
M  V30 57454 O 243.889 -5.9427 -1.83651 0
M  V30 57455 C 242.699 -7.64886 -2.9555 0
M  V30 57456 O 242.309 -8.53963 -1.90717 0
M  V30 57457 C 241.819 -6.4116 -2.90739 0
M  V30 57458 C 242.529 -5.55375 -1.86963 0
M  V30 57459 N 242.479 -4.09664 -2.15742 0
M  V30 57460 C 242.559 -3.44381 -3.37233 0
M  V30 57461 N 242.479 -2.14131 -3.28347 0
M  V30 57462 C 242.339 -1.90247 -1.91588 0
M  V30 57463 C 242.209 -0.683992 -1.20892 0
M  V30 57464 N 242.089 -0.903396 0.173998 0
M  V30 57465 C 242.089 -2.14171 0.784879 0
M  V30 57466 N 241.959 -2.1435 2.11317 0
M  V30 57467 N 242.219 -3.28784 0.119316 0
M  V30 57468 C 242.339 -3.0977 -1.22194 0
M  V30 57469 H 245.318 -7.45574 -4.45629 0
M  V30 57470 H 245.59 -5.86232 -3.67314 0
M  V30 57471 H 244.722 -7.84412 -2.24479 0
M  V30 57472 P 240.759 -8.7635 -1.60911 0
M  V30 57473 O 240.539 -10.1388 -1.11561 0
M  V30 57474 O 239.969 -8.36503 -2.79617 0
M  V30 57475 O 240.509 -7.71806 -0.42951 0
M  V30 57476 C 241.449 -7.67148 0.673689 0
M  V30 57477 C 240.719 -7.33374 1.95559 0
M  V30 57478 O 240.509 -5.88721 2.00726 0
M  V30 57479 C 239.319 -7.92526 2.10483 0
M  V30 57480 O 238.929 -8.02971 3.47653 0
M  V30 57481 C 238.439 -6.89602 1.41652 0
M  V30 57482 C 239.149 -5.59201 1.75185 0
M  V30 57483 N 239.099 -4.58235 0.662552 0
M  V30 57484 H 241.938 -8.65116 0.777161 0
M  V30 57485 H 242.21 -6.90173 0.474152 0
M  V30 57486 H 241.342 -7.66548 2.79458 0
M  V30 57487 P 237.379 -8.03563 3.84925 0
M  V30 57488 O 237.159 -8.85821 5.0569 0
M  V30 57489 O 236.589 -8.41101 2.65469 0
M  V30 57490 O 237.129 -6.4965 4.18908 0
M  V30 57491 C 238.069 -5.81037 5.05421 0
M  V30 57492 C 237.339 -4.78366 5.89277 0
M  V30 57493 O 237.129 -3.58302 5.08433 0
M  V30 57494 C 235.939 -5.17448 6.36119 0
M  V30 57495 O 235.549 -4.45271 7.53232 0
M  V30 57496 C 235.059 -4.74639 5.19936 0
M  V30 57497 C 235.769 -3.49432 4.70418 0
M  V30 57498 N 235.719 -3.31776 3.22945 0
M  V30 57499 H 238.558 -6.54213 5.71376 0
M  V30 57500 H 238.83 -5.30492 4.44033 0
M  V30 57501 H 237.962 -4.55889 6.76652 0
M  V30 57502 P 233.999 -4.23843 7.83734 0
M  V30 57503 O 233.779 -4.19407 9.29784 0
M  V30 57504 O 233.209 -5.24426 7.09156 0
M  V30 57505 O 233.749 -2.79386 7.20852 0
M  V30 57506 C 234.689 -1.7299 7.50419 0
M  V30 57507 C 233.959 -0.41401 7.5797 0
M  V30 57508 O 233.749 0.089787 6.22035 0
M  V30 57509 C 232.559 -0.447224 8.1878 0
M  V30 57510 O 232.169 0.825159 8.71201 0
M  V30 57511 C 231.679 -0.783801 6.99623 0
M  V30 57512 C 232.389 -0.0619192 5.85967 0
M  V30 57513 N 232.339 -0.7859 4.56281 0
M  V30 57514 C 232.189 -0.0359258 3.39981 0
M  V30 57515 O 232.099 1.19723 3.49038 0
M  V30 57516 N 232.139 -0.869151 2.14025 0
M  V30 57517 C 232.239 -2.01207 2.14363 0
M  V30 57518 N 232.189 -2.58978 0.954287 0
M  V30 57519 C 232.389 -2.80817 3.32215 0
M  V30 57520 C 232.439 -2.13785 4.50884 0
M  V30 57521 H 235.179 -1.93401 8.46693 0
M  V30 57522 H 235.449 -1.68181 6.71046 0
M  V30 57523 H 234.582 0.289076 8.15488 0
M  V30 57524 H 231.927 0.927166 5.72947 0
M  V30 57525 H 231.647 -1.87 6.82132 0
M  V30 57526 H 230.656 -0.404009 7.13457 0
M  V30 57527 H 232.49 -1.20599 8.97534 0
M  V30 57528 H 232.562 -2.70295 5.43162 0
M  V30 57529 H 232.46 -3.89465 3.27406 0
M  V30 57530 H 232.072 -2.01616 0.107046 0
M  V30 57531 H 232.268 -3.61403 0.873101 0
M  V30 57532 P 230.619 1.17771 8.83182 0
M  V30 57533 O 230.399 2.07206 9.98732 0
M  V30 57534 O 229.829 -0.0743816 8.81969 0
M  V30 57535 O 230.369 1.97652 7.47304 0
M  V30 57536 C 231.309 3.01133 7.08783 0
M  V30 57537 C 230.579 4.12613 6.37049 0
M  V30 57538 O 230.369 3.72827 4.97879 0
M  V30 57539 C 229.179 4.45085 6.88694 0
M  V30 57540 O 228.789 5.7877 6.5624 0
M  V30 57541 C 228.299 3.47817 6.12078 0
M  V30 57542 C 229.009 3.39414 4.77697 0
M  V30 57543 N 228.959 2.04615 4.15333 0
M  V30 57544 H 231.798 3.41248 7.98759 0
M  V30 57545 H 232.07 2.5837 6.41742 0
M  V30 57546 H 231.202 5.02657 6.42673 0
M  V30 57547 P 227.239 6.144 6.45285 0
M  V30 57548 O 227.019 7.54673 6.86199 0
M  V30 57549 O 226.449 5.12391 7.179 0
M  V30 57550 O 226.989 5.99158 4.88404 0
M  V30 57551 C 227.929 6.60234 3.96415 0
M  V30 57552 C 227.199 7.08259 2.72856 0
M  V30 57553 O 226.989 5.9427 1.83651 0
M  V30 57554 C 225.799 7.64886 2.9555 0
M  V30 57555 O 225.409 8.53963 1.90717 0
M  V30 57556 C 224.919 6.4116 2.90739 0
M  V30 57557 C 225.629 5.55375 1.86963 0
M  V30 57558 N 225.579 4.09448 2.16152 0
M  V30 57559 H 228.418 7.45574 4.45629 0
M  V30 57560 H 228.69 5.85864 3.679 0
M  V30 57561 H 227.822 7.84412 2.24479 0
M  V30 57562 H 225.167 5.73457 0.888562 0
M  V30 57563 H 224.887 5.90877 3.88583 0
M  V30 57564 H 223.896 6.6596 2.58858 0
M  V30 57565 H 225.73 8.16339 3.92049 0
M  V30 57566 P 223.859 8.7635 1.60911 0
M  V30 57567 O 223.639 10.1388 1.11561 0
M  V30 57568 O 223.069 8.36503 2.79617 0
M  V30 57569 O 223.609 7.71806 0.42951 0
M  V30 57570 C 224.549 7.67148 -0.673689 0
M  V30 57571 C 223.819 7.33374 -1.95559 0
M  V30 57572 O 223.609 5.88721 -2.00726 0
M  V30 57573 C 222.419 7.92526 -2.10483 0
M  V30 57574 O 222.029 8.02971 -3.47653 0
M  V30 57575 C 221.539 6.89602 -1.41652 0
M  V30 57576 C 222.249 5.59201 -1.75185 0
M  V30 57577 N 222.199 4.58235 -0.662552 0
M  V30 57578 H 225.038 8.65116 -0.777161 0
M  V30 57579 H 225.31 6.90173 -0.474152 0
M  V30 57580 H 224.442 7.66548 -2.79458 0
M  V30 57581 P 220.479 8.03563 -3.84925 0
M  V30 57582 O 220.259 8.85821 -5.0569 0
M  V30 57583 O 219.689 8.41101 -2.65469 0
M  V30 57584 O 220.229 6.4965 -4.18908 0
M  V30 57585 C 221.169 5.81037 -5.05421 0
M  V30 57586 C 220.439 4.78366 -5.89277 0
M  V30 57587 O 220.229 3.58302 -5.08433 0
M  V30 57588 C 219.039 5.17448 -6.36119 0
M  V30 57589 O 218.649 4.45271 -7.53232 0
M  V30 57590 C 218.159 4.74639 -5.19936 0
M  V30 57591 C 218.869 3.49432 -4.70418 0
M  V30 57592 N 218.819 3.32099 -3.22613 0
M  V30 57593 H 221.658 6.54213 -5.71376 0
M  V30 57594 H 221.93 5.30936 -4.43503 0
M  V30 57595 H 221.062 4.55889 -6.76652 0
M  V30 57596 H 218.407 2.61715 -5.17932 0
M  V30 57597 H 218.127 5.52155 -4.41878 0
M  V30 57598 H 217.136 4.51981 -5.53374 0
M  V30 57599 H 218.97 6.25124 -6.55234 0
M  V30 57600 P 217.099 4.23843 -7.83734 0
M  V30 57601 O 216.879 4.19407 -9.29784 0
M  V30 57602 O 216.309 5.24426 -7.09156 0
M  V30 57603 O 216.849 2.7935 -7.20758 0
M  V30 57604 C 217.789 1.7299 -7.50419 0
M  V30 57605 C 217.059 0.406376 -7.57911 0
M  V30 57606 O 216.849 -0.0897726 -6.21935 0
M  V30 57607 C 215.659 0.447224 -8.1878 0
M  V30 57608 O 215.269 -0.825065 -8.71101 0
M  V30 57609 C 214.779 0.783801 -6.99623 0
M  V30 57610 C 215.489 0.0619192 -5.85967 0
M  V30 57611 N 215.439 0.7859 -4.56281 0
M  V30 57612 C 215.519 2.14308 -4.31736 0
M  V30 57613 N 215.439 2.46106 -3.05116 0
M  V30 57614 C 215.299 1.23422 -2.4014 0
M  V30 57615 C 215.169 0.938381 -1.02409 0
M  V30 57616 N 215.049 -0.444647 -0.805413 0
M  V30 57617 C 215.049 -1.40829 -1.79435 0
M  V30 57618 N 214.919 -2.67213 -1.38558 0
M  V30 57619 N 215.179 -1.12947 -3.09005 0
M  V30 57620 C 215.299 0.204887 -3.32369 0
M  V30 57621 H 218.278 1.93423 -8.4679 0
M  V30 57622 H 218.55 1.68181 -6.71046 0
M  V30 57623 H 217.682 -0.289041 -8.15388 0
M  V30 57624 P 213.719 -1.17771 -8.83182 0
M  V30 57625 O 213.499 -2.07206 -9.98732 0
M  V30 57626 O 212.929 0.0743816 -8.81969 0
M  V30 57627 O 213.469 -1.97652 -7.47304 0
M  V30 57628 C 214.409 -3.01133 -7.08783 0
M  V30 57629 C 213.679 -4.12613 -6.37049 0
M  V30 57630 O 213.469 -3.72827 -4.97879 0
M  V30 57631 C 212.279 -4.45085 -6.88694 0
M  V30 57632 O 211.889 -5.7877 -6.5624 0
M  V30 57633 C 211.399 -3.47817 -6.12078 0
M  V30 57634 C 212.109 -3.39414 -4.77697 0
M  V30 57635 N 212.059 -2.04615 -4.15333 0
M  V30 57636 H 214.898 -3.41248 -7.98759 0
M  V30 57637 H 215.17 -2.5837 -6.41742 0
M  V30 57638 H 214.302 -5.02657 -6.42673 0
M  V30 57639 P 210.339 -6.144 -6.45285 0
M  V30 57640 O 210.119 -7.54673 -6.86199 0
M  V30 57641 O 209.549 -5.12391 -7.179 0
M  V30 57642 O 210.089 -5.99158 -4.88404 0
M  V30 57643 C 211.029 -6.60234 -3.96415 0
M  V30 57644 C 210.299 -7.08259 -2.72856 0
M  V30 57645 O 210.089 -5.9427 -1.83651 0
M  V30 57646 C 208.899 -7.64886 -2.9555 0
M  V30 57647 O 208.509 -8.53963 -1.90717 0
M  V30 57648 C 208.019 -6.4116 -2.90739 0
M  V30 57649 C 208.729 -5.55375 -1.86963 0
M  V30 57650 N 208.679 -4.09664 -2.15742 0
M  V30 57651 H 211.518 -7.45574 -4.45629 0
M  V30 57652 H 211.79 -5.86232 -3.67314 0
M  V30 57653 H 210.922 -7.84412 -2.24479 0
M  V30 57654 P 206.959 -8.7635 -1.60911 0
M  V30 57655 O 206.739 -10.1388 -1.11561 0
M  V30 57656 O 206.169 -8.36503 -2.79617 0
M  V30 57657 O 206.709 -7.71806 -0.42951 0
M  V30 57658 C 207.649 -7.67148 0.673689 0
M  V30 57659 C 206.919 -7.33374 1.95559 0
M  V30 57660 O 206.709 -5.88721 2.00726 0
M  V30 57661 C 205.519 -7.92526 2.10483 0
M  V30 57662 O 205.129 -8.02971 3.47653 0
M  V30 57663 C 204.639 -6.89602 1.41652 0
M  V30 57664 C 205.349 -5.59201 1.75185 0
M  V30 57665 N 205.299 -4.58235 0.662552 0
M  V30 57666 H 208.138 -8.65116 0.777161 0
M  V30 57667 H 208.41 -6.90173 0.474152 0
M  V30 57668 H 207.542 -7.66548 2.79458 0
M  V30 57669 P 203.579 -8.03563 3.84925 0
M  V30 57670 O 203.359 -8.85821 5.0569 0
M  V30 57671 O 202.789 -8.41101 2.65469 0
M  V30 57672 O 203.329 -6.4965 4.18908 0
M  V30 57673 C 204.269 -5.81037 5.05421 0
M  V30 57674 C 203.539 -4.78366 5.89277 0
M  V30 57675 O 203.329 -3.58302 5.08433 0
M  V30 57676 C 202.139 -5.17448 6.36119 0
M  V30 57677 O 201.749 -4.45271 7.53232 0
M  V30 57678 C 201.259 -4.74639 5.19936 0
M  V30 57679 C 201.969 -3.49432 4.70418 0
M  V30 57680 N 201.919 -3.31776 3.22945 0
M  V30 57681 H 204.758 -6.54213 5.71376 0
M  V30 57682 H 205.03 -5.30492 4.44033 0
M  V30 57683 H 204.162 -4.55889 6.76652 0
M  V30 57684 P 200.199 -4.23843 7.83734 0
M  V30 57685 O 199.979 -4.19407 9.29784 0
M  V30 57686 O 199.409 -5.24426 7.09156 0
M  V30 57687 O 199.949 -2.7935 7.20758 0
M  V30 57688 C 200.889 -1.7299 7.50419 0
M  V30 57689 C 200.159 -0.406376 7.57911 0
M  V30 57690 O 199.949 0.0897726 6.21935 0
M  V30 57691 C 198.759 -0.447224 8.1878 0
M  V30 57692 O 198.369 0.825065 8.71101 0
M  V30 57693 C 197.879 -0.783801 6.99623 0
M  V30 57694 C 198.589 -0.0619192 5.85967 0
M  V30 57695 N 198.539 -0.7859 4.56281 0
M  V30 57696 H 201.378 -1.93423 8.4679 0
M  V30 57697 H 201.65 -1.68181 6.71046 0
M  V30 57698 H 200.782 0.289041 8.15388 0
M  V30 57699 P 196.819 1.17771 8.83182 0
M  V30 57700 O 196.599 2.07206 9.98732 0
M  V30 57701 O 196.029 -0.0743816 8.81969 0
M  V30 57702 O 196.569 1.97652 7.47304 0
M  V30 57703 C 197.509 3.01133 7.08783 0
M  V30 57704 C 196.779 4.12613 6.37049 0
M  V30 57705 O 196.569 3.72827 4.97879 0
M  V30 57706 C 195.379 4.45085 6.88694 0
M  V30 57707 O 194.989 5.7877 6.5624 0
M  V30 57708 C 194.499 3.47817 6.12078 0
M  V30 57709 C 195.209 3.39414 4.77697 0
M  V30 57710 N 195.159 2.04199 4.15538 0
M  V30 57711 C 195.239 0.821545 4.76977 0
M  V30 57712 N 195.169 -0.1794 3.94592 0
M  V30 57713 C 195.019 0.419121 2.70776 0
M  V30 57714 C 194.889 -0.109072 1.40577 0
M  V30 57715 N 194.879 -1.4104 1.1344 0
M  V30 57716 N 194.769 0.764381 0.39411 0
M  V30 57717 C 194.779 2.06587 0.664135 0
M  V30 57718 N 194.899 2.67948 1.82153 0
M  V30 57719 C 195.019 1.77942 2.8147 0
M  V30 57720 H 197.998 3.41248 7.98759 0
M  V30 57721 H 198.27 2.57728 6.42 0
M  V30 57722 H 197.402 5.02657 6.42673 0
M  V30 57723 H 194.747 4.11708 4.08956 0
M  V30 57724 H 194.467 2.49626 6.61679 0
M  V30 57725 H 193.476 3.8662 6.00862 0
M  V30 57726 H 195.31 4.29991 7.97006 0
M  V30 57727 H 195.351 0.702451 5.84696 0
M  V30 57728 H 194.97 -2.09647 1.89651 0
M  V30 57729 H 194.781 -1.73358 0.160575 0
M  V30 57730 H 194.673 2.71695 -0.195838 0
M  V30 57731 P 193.439 6.144 6.45285 0
M  V30 57732 O 193.219 7.54673 6.86199 0
M  V30 57733 O 192.649 5.12391 7.179 0
M  V30 57734 O 193.189 5.99158 4.88404 0
M  V30 57735 C 194.129 6.60234 3.96415 0
M  V30 57736 C 193.399 7.08259 2.72856 0
M  V30 57737 O 193.189 5.9427 1.83651 0
M  V30 57738 C 191.999 7.64886 2.9555 0
M  V30 57739 O 191.609 8.53963 1.90717 0
M  V30 57740 C 191.119 6.4116 2.90739 0
M  V30 57741 C 191.829 5.55375 1.86963 0
M  V30 57742 N 191.779 4.09664 2.15742 0
M  V30 57743 H 194.618 7.45574 4.45629 0
M  V30 57744 H 194.89 5.86232 3.67314 0
M  V30 57745 H 194.022 7.84412 2.24479 0
M  V30 57746 P 190.059 8.7635 1.60911 0
M  V30 57747 O 189.839 10.1388 1.11561 0
M  V30 57748 O 189.269 8.36503 2.79617 0
M  V30 57749 O 189.809 7.71806 0.42951 0
M  V30 57750 C 190.749 7.67148 -0.673689 0
M  V30 57751 C 190.019 7.33374 -1.95559 0
M  V30 57752 O 189.809 5.88721 -2.00726 0
M  V30 57753 C 188.619 7.92526 -2.10483 0
M  V30 57754 O 188.229 8.02971 -3.47653 0
M  V30 57755 C 187.739 6.89602 -1.41652 0
M  V30 57756 C 188.449 5.59201 -1.75185 0
M  V30 57757 N 188.399 4.58235 -0.662552 0
M  V30 57758 H 191.238 8.65116 -0.777161 0
M  V30 57759 H 191.51 6.90173 -0.474152 0
M  V30 57760 H 190.642 7.66548 -2.79458 0
M  V30 57761 P 186.679 8.03563 -3.84925 0
M  V30 57762 O 186.459 8.85821 -5.0569 0
M  V30 57763 O 185.889 8.41101 -2.65469 0
M  V30 57764 O 186.429 6.4965 -4.18908 0
M  V30 57765 C 187.369 5.81037 -5.05421 0
M  V30 57766 C 186.639 4.78366 -5.89277 0
M  V30 57767 O 186.429 3.58302 -5.08433 0
M  V30 57768 C 185.239 5.17448 -6.36119 0
M  V30 57769 O 184.849 4.45271 -7.53232 0
M  V30 57770 C 184.359 4.74639 -5.19936 0
M  V30 57771 C 185.069 3.49432 -4.70418 0
M  V30 57772 N 185.019 3.31776 -3.22945 0
M  V30 57773 H 187.858 6.54213 -5.71376 0
M  V30 57774 H 188.13 5.30492 -4.44033 0
M  V30 57775 H 187.262 4.55889 -6.76652 0
M  V30 57776 P 183.299 4.23843 -7.83734 0
M  V30 57777 O 183.079 4.19407 -9.29784 0
M  V30 57778 O 182.509 5.24426 -7.09156 0
M  V30 57779 O 183.049 2.7935 -7.20758 0
M  V30 57780 C 183.989 1.7299 -7.50419 0
M  V30 57781 C 183.259 0.406376 -7.57911 0
M  V30 57782 O 183.049 -0.0897726 -6.21935 0
M  V30 57783 C 181.859 0.447224 -8.1878 0
M  V30 57784 O 181.469 -0.825065 -8.71101 0
M  V30 57785 C 180.979 0.783801 -6.99623 0
M  V30 57786 C 181.689 0.0619192 -5.85967 0
M  V30 57787 N 181.639 0.7859 -4.56281 0
M  V30 57788 H 184.478 1.93423 -8.4679 0
M  V30 57789 H 184.75 1.68181 -6.71046 0
M  V30 57790 H 183.882 -0.289041 -8.15388 0
M  V30 57791 P 179.919 -1.17771 -8.83182 0
M  V30 57792 O 179.699 -2.07206 -9.98732 0
M  V30 57793 O 179.129 0.0743816 -8.81969 0
M  V30 57794 O 179.669 -1.97652 -7.47304 0
M  V30 57795 C 180.609 -3.01133 -7.08783 0
M  V30 57796 C 179.879 -4.12613 -6.37049 0
M  V30 57797 O 179.669 -3.72827 -4.97879 0
M  V30 57798 C 178.479 -4.45085 -6.88694 0
M  V30 57799 O 178.089 -5.7877 -6.5624 0
M  V30 57800 C 177.599 -3.47817 -6.12078 0
M  V30 57801 C 178.309 -3.39414 -4.77697 0
M  V30 57802 N 178.259 -2.04199 -4.15538 0
M  V30 57803 H 181.098 -3.41248 -7.98759 0
M  V30 57804 H 181.37 -2.57728 -6.42 0
M  V30 57805 H 180.502 -5.02657 -6.42673 0
M  V30 57806 H 177.847 -4.11708 -4.08956 0
M  V30 57807 H 177.567 -2.49626 -6.61679 0
M  V30 57808 H 176.576 -3.8662 -6.00862 0
M  V30 57809 H 178.41 -4.29991 -7.97006 0
M  V30 57810 P 176.539 -6.144 -6.45285 0
M  V30 57811 O 176.319 -7.54673 -6.86199 0
M  V30 57812 O 175.749 -5.12391 -7.179 0
M  V30 57813 O 176.289 -5.99236 -4.88467 0
M  V30 57814 C 177.229 -6.60234 -3.96415 0
M  V30 57815 C 176.499 -7.08079 -2.736 0
M  V30 57816 O 176.289 -5.94365 -1.8368 0
M  V30 57817 C 175.099 -7.64886 -2.9555 0
M  V30 57818 O 174.709 -8.5406 -1.90739 0
M  V30 57819 C 174.219 -6.4116 -2.90739 0
M  V30 57820 C 174.929 -5.55375 -1.86963 0
M  V30 57821 N 174.879 -4.09664 -2.15742 0
M  V30 57822 C 174.729 -3.22231 -1.08477 0
M  V30 57823 O 174.639 -3.68951 0.0600489 0
M  V30 57824 N 174.679 -1.76692 -1.48799 0
M  V30 57825 C 174.779 -1.41695 -2.57602 0
M  V30 57826 N 174.729 -0.107296 -2.75791 0
M  V30 57827 C 174.929 -2.29178 -3.69733 0
M  V30 57828 C 174.979 -3.62753 -3.42653 0
M  V30 57829 H 177.719 -7.45488 -4.45578 0
M  V30 57830 H 177.989 -5.86232 -3.67314 0
M  V30 57831 H 177.122 -7.84508 -2.24507 0
M  V30 57832 H 174.467 -5.73556 -0.888715 0
M  V30 57833 H 174.187 -5.9096 -3.88638 0
M  V30 57834 H 173.196 -6.66053 -2.58894 0
M  V30 57835 H 175.03 -8.16339 -3.92049 0
M  V30 57836 H 175.102 -4.33052 -4.24913 0
M  V30 57837 H 175 -1.9103 -4.71577 0
M  V30 57838 H 174.612 0.521221 -1.95056 0
M  V30 57839 H 174.808 0.286429 -3.70695 0
M  V30 57840 P 173.159 -8.7635 -1.60911 0
M  V30 57841 O 172.939 -10.1388 -1.11561 0
M  V30 57842 O 172.369 -8.36503 -2.79617 0
M  V30 57843 O 172.909 -7.71806 -0.42951 0
M  V30 57844 C 173.849 -7.67148 0.673689 0
M  V30 57845 C 173.119 -7.33374 1.95559 0
M  V30 57846 O 172.909 -5.88721 2.00726 0
M  V30 57847 C 171.719 -7.92526 2.10483 0
M  V30 57848 O 171.329 -8.02971 3.47653 0
M  V30 57849 C 170.839 -6.89602 1.41652 0
M  V30 57850 C 171.549 -5.59201 1.75185 0
M  V30 57851 N 171.499 -4.58235 0.662552 0
M  V30 57852 H 174.338 -8.65116 0.777161 0
M  V30 57853 H 174.61 -6.90173 0.474152 0
M  V30 57854 H 173.742 -7.66548 2.79458 0
M  V30 57855 P 169.779 -8.03563 3.84925 0
M  V30 57856 O 169.559 -8.85821 5.0569 0
M  V30 57857 O 168.989 -8.41101 2.65469 0
M  V30 57858 O 169.529 -6.4965 4.18908 0
M  V30 57859 C 170.469 -5.81037 5.05421 0
M  V30 57860 C 169.739 -4.78366 5.89277 0
M  V30 57861 O 169.529 -3.58302 5.08433 0
M  V30 57862 C 168.339 -5.17448 6.36119 0
M  V30 57863 O 167.949 -4.45271 7.53232 0
M  V30 57864 C 167.459 -4.74639 5.19936 0
M  V30 57865 C 168.169 -3.49432 4.70418 0
M  V30 57866 N 168.119 -3.31776 3.22945 0
M  V30 57867 C 168.199 -4.27147 2.23315 0
M  V30 57868 N 168.119 -3.78447 1.02186 0
M  V30 57869 C 167.979 -2.41001 1.21732 0
M  V30 57870 C 167.849 -1.36111 0.27694 0
M  V30 57871 N 167.729 -0.113683 0.912949 0
M  V30 57872 C 167.729 0.0846396 2.27943 0
M  V30 57873 N 167.599 1.34737 2.6916 0
M  V30 57874 N 167.859 -0.902521 3.16379 0
M  V30 57875 C 167.979 -2.11937 2.56849 0
M  V30 57876 H 170.958 -6.54213 5.71376 0
M  V30 57877 H 171.23 -5.30492 4.44033 0
M  V30 57878 H 170.362 -4.55889 6.76652 0
M  V30 57879 P 166.399 -4.23843 7.83734 0
M  V30 57880 O 166.179 -4.19407 9.29784 0
M  V30 57881 O 165.609 -5.24426 7.09156 0
M  V30 57882 O 166.149 -2.7935 7.20758 0
M  V30 57883 C 167.089 -1.7299 7.50419 0
M  V30 57884 C 166.359 -0.406376 7.57911 0
M  V30 57885 O 166.149 0.0897726 6.21935 0
M  V30 57886 C 164.959 -0.447224 8.1878 0
M  V30 57887 O 164.569 0.825065 8.71101 0
M  V30 57888 C 164.079 -0.783801 6.99623 0
M  V30 57889 C 164.789 -0.0619192 5.85967 0
M  V30 57890 N 164.739 -0.790462 4.56202 0
M  V30 57891 C 164.819 -2.13895 4.34171 0
M  V30 57892 N 164.749 -2.46449 3.08687 0
M  V30 57893 C 164.599 -1.2525 2.43697 0
M  V30 57894 C 164.469 -0.914535 1.07318 0
M  V30 57895 N 164.459 -1.80782 0.0887348 0
M  V30 57896 N 164.349 0.386745 0.768133 0
M  V30 57897 C 164.359 1.28096 1.75159 0
M  V30 57898 N 164.479 1.09708 3.04861 0
M  V30 57899 C 164.599 -0.214857 3.32306 0
M  V30 57900 H 167.578 -1.93423 8.4679 0
M  V30 57901 H 167.85 -1.68852 6.70877 0
M  V30 57902 H 166.982 0.289041 8.15388 0
M  V30 57903 H 164.327 0.927006 5.72848 0
M  V30 57904 H 164.047 -1.86973 6.82036 0
M  V30 57905 H 163.056 -0.403953 7.13357 0
M  V30 57906 H 164.89 -1.20599 8.97534 0
M  V30 57907 H 164.931 -2.86846 5.14318 0
M  V30 57908 H 164.55 -2.81082 0.302037 0
M  V30 57909 H 164.361 -1.49688 -0.889064 0
M  V30 57910 H 164.253 2.31317 1.43855 0
M  V30 57911 P 163.019 1.17771 8.83182 0
M  V30 57912 O 162.799 2.07206 9.98732 0
M  V30 57913 O 162.229 -0.0743816 8.81969 0
M  V30 57914 O 162.769 1.97652 7.47304 0
M  V30 57915 C 163.709 3.01133 7.08783 0
M  V30 57916 C 162.979 4.12613 6.37049 0
M  V30 57917 O 162.769 3.72827 4.97879 0
M  V30 57918 C 161.579 4.45085 6.88694 0
M  V30 57919 O 161.189 5.7877 6.5624 0
M  V30 57920 C 160.699 3.47817 6.12078 0
M  V30 57921 C 161.409 3.39414 4.77697 0
M  V30 57922 N 161.359 2.04199 4.15538 0
M  V30 57923 H 164.198 3.41248 7.98759 0
M  V30 57924 H 164.47 2.57728 6.42 0
M  V30 57925 H 163.602 5.02657 6.42673 0
M  V30 57926 H 160.947 4.11708 4.08956 0
M  V30 57927 H 160.667 2.49626 6.61679 0
M  V30 57928 H 159.676 3.8662 6.00862 0
M  V30 57929 H 161.51 4.29991 7.97006 0
M  V30 57930 P 159.639 6.144 6.45285 0
M  V30 57931 O 159.419 7.54673 6.86199 0
M  V30 57932 O 158.849 5.12391 7.179 0
M  V30 57933 O 159.389 5.99158 4.88404 0
M  V30 57934 C 160.329 6.60234 3.96415 0
M  V30 57935 C 159.599 7.08259 2.72856 0
M  V30 57936 O 159.389 5.9427 1.83651 0
M  V30 57937 C 158.199 7.64886 2.9555 0
M  V30 57938 O 157.809 8.53963 1.90717 0
M  V30 57939 C 157.319 6.4116 2.90739 0
M  V30 57940 C 158.029 5.55375 1.86963 0
M  V30 57941 N 157.979 4.09664 2.15742 0
M  V30 57942 H 160.818 7.45574 4.45629 0
M  V30 57943 H 161.09 5.86232 3.67314 0
M  V30 57944 H 160.222 7.84412 2.24479 0
M  V30 57945 P 156.259 8.7635 1.60911 0
M  V30 57946 O 156.039 10.1388 1.11561 0
M  V30 57947 O 155.469 8.36503 2.79617 0
M  V30 57948 O 156.009 7.71806 0.42951 0
M  V30 57949 C 156.949 7.66948 -0.673514 0
M  V30 57950 C 156.219 7.33374 -1.95559 0
M  V30 57951 O 156.009 5.88721 -2.00726 0
M  V30 57952 C 154.819 7.92218 -2.1125 0
M  V30 57953 O 154.429 8.02971 -3.47653 0
M  V30 57954 C 153.939 6.89504 -1.41631 0
M  V30 57955 C 154.649 5.59106 -1.75155 0
M  V30 57956 N 154.599 4.58136 -0.662409 0
M  V30 57957 C 154.449 3.26059 -1.02863 0
M  V30 57958 O 154.359 2.90743 -2.19009 0
M  V30 57959 N 154.409 2.35995 0.0155585 0
M  V30 57960 C 154.499 2.65248 1.35603 0
M  V30 57961 C 154.649 4.05747 1.64698 0
M  V30 57962 C 154.699 4.96734 0.652411 0
M  V30 57963 H 157.44 8.64917 -0.776982 0
M  V30 57964 H 157.709 6.89974 -0.474015 0
M  V30 57965 H 156.842 7.66548 -2.79458 0
M  V30 57966 H 154.187 5.16076 -2.65138 0
M  V30 57967 H 153.908 7.06433 -0.329384 0
M  V30 57968 H 152.916 6.90829 -1.81996 0
M  V30 57969 H 154.75 8.90774 -1.62639 0
M  V30 57970 H 154.821 6.02181 0.895285 0
M  V30 57971 P 152.879 8.03563 -3.84925 0
M  V30 57972 O 152.659 8.85821 -5.0569 0
M  V30 57973 O 152.089 8.41101 -2.65469 0
M  V30 57974 O 152.629 6.4965 -4.18908 0
M  V30 57975 C 153.569 5.81037 -5.05421 0
M  V30 57976 C 152.839 4.78366 -5.89277 0
M  V30 57977 O 152.629 3.58302 -5.08433 0
M  V30 57978 C 151.439 5.17448 -6.36119 0
M  V30 57979 O 151.049 4.45271 -7.53232 0
M  V30 57980 C 150.559 4.74639 -5.19936 0
M  V30 57981 C 151.269 3.49432 -4.70418 0
M  V30 57982 N 151.219 3.31776 -3.22945 0
M  V30 57983 H 154.058 6.54213 -5.71376 0
M  V30 57984 H 154.33 5.30492 -4.44033 0
M  V30 57985 H 153.462 4.55889 -6.76652 0
M  V30 57986 P 149.499 4.23843 -7.83734 0
M  V30 57987 O 149.279 4.19407 -9.29784 0
M  V30 57988 O 148.709 5.24426 -7.09156 0
M  V30 57989 O 149.249 2.7935 -7.20758 0
M  V30 57990 C 150.189 1.7299 -7.50419 0
M  V30 57991 C 149.459 0.406376 -7.57911 0
M  V30 57992 O 149.249 -0.0897726 -6.21935 0
M  V30 57993 C 148.059 0.447224 -8.1878 0
M  V30 57994 O 147.669 -0.825065 -8.71101 0
M  V30 57995 C 147.179 0.783801 -6.99623 0
M  V30 57996 C 147.889 0.0619192 -5.85967 0
M  V30 57997 N 147.839 0.7859 -4.56281 0
M  V30 57998 H 150.678 1.93423 -8.4679 0
M  V30 57999 H 150.95 1.68181 -6.71046 0
M  V30 58000 H 150.082 -0.289041 -8.15388 0
M  V30 58001 P 146.119 -1.17771 -8.83182 0
M  V30 58002 O 145.899 -2.07206 -9.98732 0
M  V30 58003 O 145.329 0.0743816 -8.81969 0
M  V30 58004 O 145.869 -1.97652 -7.47304 0
M  V30 58005 C 146.809 -3.01133 -7.08783 0
M  V30 58006 C 146.079 -4.12613 -6.37049 0
M  V30 58007 O 145.869 -3.72827 -4.97879 0
M  V30 58008 C 144.679 -4.45085 -6.88694 0
M  V30 58009 O 144.289 -5.7877 -6.5624 0
M  V30 58010 C 143.799 -3.47817 -6.12078 0
M  V30 58011 C 144.509 -3.39414 -4.77697 0
M  V30 58012 N 144.459 -2.04615 -4.15333 0
M  V30 58013 H 147.298 -3.41248 -7.98759 0
M  V30 58014 H 147.57 -2.5837 -6.41742 0
M  V30 58015 H 146.702 -5.02657 -6.42673 0
M  V30 58016 P 142.739 -6.144 -6.45285 0
M  V30 58017 O 142.519 -7.54673 -6.86199 0
M  V30 58018 O 141.949 -5.12391 -7.179 0
M  V30 58019 O 142.489 -5.99158 -4.88404 0
M  V30 58020 C 143.429 -6.60234 -3.96415 0
M  V30 58021 C 142.699 -7.08259 -2.72856 0
M  V30 58022 O 142.489 -5.9427 -1.83651 0
M  V30 58023 C 141.299 -7.64886 -2.9555 0
M  V30 58024 O 140.909 -8.53963 -1.90717 0
M  V30 58025 C 140.419 -6.4116 -2.90739 0
M  V30 58026 C 141.129 -5.55375 -1.86963 0
M  V30 58027 N 141.079 -4.09664 -2.15742 0
M  V30 58028 H 143.918 -7.45574 -4.45629 0
M  V30 58029 H 144.19 -5.86232 -3.67314 0
M  V30 58030 H 143.322 -7.84412 -2.24479 0
M  V30 58031 P 139.359 -8.7635 -1.60911 0
M  V30 58032 O 139.139 -10.1388 -1.11561 0
M  V30 58033 O 138.569 -8.36503 -2.79617 0
M  V30 58034 O 139.109 -7.71806 -0.42951 0
M  V30 58035 C 140.049 -7.67148 0.673689 0
M  V30 58036 C 139.319 -7.33374 1.95559 0
M  V30 58037 O 139.109 -5.88721 2.00726 0
M  V30 58038 C 137.919 -7.92526 2.10483 0
M  V30 58039 O 137.529 -8.02971 3.47653 0
M  V30 58040 C 137.039 -6.89602 1.41652 0
M  V30 58041 C 137.749 -5.59201 1.75185 0
M  V30 58042 N 137.699 -4.58235 0.662552 0
M  V30 58043 H 140.538 -8.65116 0.777161 0
M  V30 58044 H 140.81 -6.90173 0.474152 0
M  V30 58045 H 139.942 -7.66548 2.79458 0
M  V30 58046 P 135.979 -8.03563 3.84925 0
M  V30 58047 O 135.759 -8.85821 5.0569 0
M  V30 58048 O 135.189 -8.41101 2.65469 0
M  V30 58049 O 135.729 -6.4965 4.18908 0
M  V30 58050 C 136.669 -5.81037 5.05421 0
M  V30 58051 C 135.939 -4.78366 5.89277 0
M  V30 58052 O 135.729 -3.58302 5.08433 0
M  V30 58053 C 134.539 -5.17448 6.36119 0
M  V30 58054 O 134.149 -4.45271 7.53232 0
M  V30 58055 C 133.659 -4.74639 5.19936 0
M  V30 58056 C 134.369 -3.49432 4.70418 0
M  V30 58057 N 134.319 -3.31776 3.22945 0
M  V30 58058 H 137.158 -6.54213 5.71376 0
M  V30 58059 H 137.43 -5.30492 4.44033 0
M  V30 58060 H 136.562 -4.55889 6.76652 0
M  V30 58061 P 132.599 -4.23843 7.83734 0
M  V30 58062 O 132.379 -4.19407 9.29784 0
M  V30 58063 O 131.809 -5.24426 7.09156 0
M  V30 58064 O 132.349 -2.7935 7.20758 0
M  V30 58065 C 133.289 -1.7299 7.50419 0
M  V30 58066 C 132.559 -0.406376 7.57911 0
M  V30 58067 O 132.349 0.0897726 6.21935 0
M  V30 58068 C 131.159 -0.447224 8.1878 0
M  V30 58069 O 130.769 0.825065 8.71101 0
M  V30 58070 C 130.279 -0.783801 6.99623 0
M  V30 58071 C 130.989 -0.0619192 5.85967 0
M  V30 58072 N 130.939 -0.7859 4.56281 0
M  V30 58073 H 133.778 -1.93423 8.4679 0
M  V30 58074 H 134.05 -1.68181 6.71046 0
M  V30 58075 H 133.182 0.289041 8.15388 0
M  V30 58076 P 129.219 1.17771 8.83182 0
M  V30 58077 O 128.999 2.07206 9.98732 0
M  V30 58078 O 128.429 -0.0743816 8.81969 0
M  V30 58079 O 128.969 1.97652 7.47304 0
M  V30 58080 C 129.909 3.01133 7.08783 0
M  V30 58081 C 129.179 4.12613 6.37049 0
M  V30 58082 O 128.969 3.72827 4.97879 0
M  V30 58083 C 127.779 4.45085 6.88694 0
M  V30 58084 O 127.389 5.7877 6.5624 0
M  V30 58085 C 126.899 3.47817 6.12078 0
M  V30 58086 C 127.609 3.39414 4.77697 0
M  V30 58087 N 127.559 2.04199 4.15538 0
M  V30 58088 C 127.639 0.821545 4.76977 0
M  V30 58089 N 127.569 -0.1794 3.94592 0
M  V30 58090 C 127.419 0.419121 2.70776 0
M  V30 58091 C 127.289 -0.109072 1.40577 0
M  V30 58092 N 127.279 -1.4104 1.1344 0
M  V30 58093 N 127.169 0.764381 0.39411 0
M  V30 58094 C 127.179 2.06587 0.664135 0
M  V30 58095 N 127.299 2.67948 1.82153 0
M  V30 58096 C 127.419 1.77942 2.8147 0
M  V30 58097 H 130.398 3.41248 7.98759 0
M  V30 58098 H 130.67 2.57728 6.42 0
M  V30 58099 H 129.802 5.02657 6.42673 0
M  V30 58100 H 127.147 4.11708 4.08956 0
M  V30 58101 H 126.867 2.49626 6.61679 0
M  V30 58102 H 125.876 3.8662 6.00862 0
M  V30 58103 H 127.71 4.29991 7.97006 0
M  V30 58104 H 127.751 0.702451 5.84696 0
M  V30 58105 H 127.37 -2.09647 1.89651 0
M  V30 58106 H 127.181 -1.73358 0.160575 0
M  V30 58107 H 127.073 2.71695 -0.195838 0
M  V30 58108 P 125.839 6.144 6.45285 0
M  V30 58109 O 125.619 7.54673 6.86199 0
M  V30 58110 O 125.049 5.12391 7.179 0
M  V30 58111 O 125.589 5.99158 4.88404 0
M  V30 58112 C 126.529 6.60234 3.96415 0
M  V30 58113 C 125.799 7.08259 2.72856 0
M  V30 58114 O 125.589 5.9427 1.83651 0
M  V30 58115 C 124.399 7.64886 2.9555 0
M  V30 58116 O 124.009 8.53963 1.90717 0
M  V30 58117 C 123.519 6.4116 2.90739 0
M  V30 58118 C 124.229 5.55375 1.86963 0
M  V30 58119 N 124.179 4.09448 2.16152 0
M  V30 58120 H 127.018 7.45574 4.45629 0
M  V30 58121 H 127.29 5.85864 3.679 0
M  V30 58122 H 126.422 7.84412 2.24479 0
M  V30 58123 H 123.767 5.73457 0.888562 0
M  V30 58124 H 123.487 5.90877 3.88583 0
M  V30 58125 H 122.496 6.6596 2.58858 0
M  V30 58126 H 124.33 8.16339 3.92049 0
M  V30 58127 P 122.459 8.7635 1.60911 0
M  V30 58128 O 122.239 10.1388 1.11561 0
M  V30 58129 O 121.669 8.36503 2.79617 0
M  V30 58130 O 122.209 7.71806 0.42951 0
M  V30 58131 C 123.149 7.67148 -0.673689 0
M  V30 58132 C 122.419 7.33374 -1.95559 0
M  V30 58133 O 122.209 5.88721 -2.00726 0
M  V30 58134 C 121.019 7.92526 -2.10483 0
M  V30 58135 O 120.629 8.02971 -3.47653 0
M  V30 58136 C 120.139 6.89602 -1.41652 0
M  V30 58137 C 120.849 5.59201 -1.75185 0
M  V30 58138 N 120.799 4.58301 -0.657969 0
M  V30 58139 H 123.638 8.65116 -0.777161 0
M  V30 58140 H 123.91 6.9022 -0.46725 0
M  V30 58141 H 123.042 7.66548 -2.79458 0
M  V30 58142 H 120.387 5.16165 -2.65183 0
M  V30 58143 H 120.107 7.06433 -0.329384 0
M  V30 58144 H 119.116 6.90926 -1.82021 0
M  V30 58145 H 120.95 8.90873 -1.62657 0
M  V30 58146 P 119.079 8.03563 -3.84925 0
M  V30 58147 O 118.859 8.85821 -5.0569 0
M  V30 58148 O 118.289 8.41101 -2.65469 0
M  V30 58149 O 118.829 6.4965 -4.18908 0
M  V30 58150 C 119.769 5.81037 -5.05421 0
M  V30 58151 C 119.039 4.78366 -5.89277 0
M  V30 58152 O 118.829 3.58302 -5.08433 0
M  V30 58153 C 117.639 5.17448 -6.36119 0
M  V30 58154 O 117.249 4.45271 -7.53232 0
M  V30 58155 C 116.759 4.74639 -5.19936 0
M  V30 58156 C 117.469 3.49432 -4.70418 0
M  V30 58157 N 117.419 3.31776 -3.22945 0
M  V30 58158 H 120.258 6.54213 -5.71376 0
M  V30 58159 H 120.53 5.30492 -4.44033 0
M  V30 58160 H 119.662 4.55889 -6.76652 0
M  V30 58161 P 115.699 4.23843 -7.83734 0
M  V30 58162 O 115.479 4.19407 -9.29784 0
M  V30 58163 O 114.909 5.24426 -7.09156 0
M  V30 58164 O 115.449 2.7935 -7.20758 0
M  V30 58165 C 116.389 1.7299 -7.50419 0
M  V30 58166 C 115.659 0.406376 -7.57911 0
M  V30 58167 O 115.449 -0.0897726 -6.21935 0
M  V30 58168 C 114.259 0.447224 -8.1878 0
M  V30 58169 O 113.869 -0.825065 -8.71101 0
M  V30 58170 C 113.379 0.783801 -6.99623 0
M  V30 58171 C 114.089 0.0619192 -5.85967 0
M  V30 58172 N 114.039 0.7859 -4.56281 0
M  V30 58173 C 114.119 2.14308 -4.31736 0
M  V30 58174 N 114.039 2.46106 -3.05116 0
M  V30 58175 C 113.899 1.23422 -2.4014 0
M  V30 58176 C 113.769 0.938381 -1.02409 0
M  V30 58177 N 113.649 -0.444647 -0.805413 0
M  V30 58178 C 113.649 -1.40829 -1.79435 0
M  V30 58179 N 113.519 -2.67213 -1.38558 0
M  V30 58180 N 113.779 -1.12947 -3.09005 0
M  V30 58181 C 113.899 0.204887 -3.32369 0
M  V30 58182 H 116.878 1.93423 -8.4679 0
M  V30 58183 H 117.15 1.68181 -6.71046 0
M  V30 58184 H 116.282 -0.289041 -8.15388 0
M  V30 58185 P 112.319 -1.17771 -8.83182 0
M  V30 58186 O 112.099 -2.07206 -9.98732 0
M  V30 58187 O 111.529 0.0743816 -8.81969 0
M  V30 58188 O 112.069 -1.97652 -7.47304 0
M  V30 58189 C 113.009 -3.01133 -7.08783 0
M  V30 58190 C 112.279 -4.12613 -6.37049 0
M  V30 58191 O 112.069 -3.72827 -4.97879 0
M  V30 58192 C 110.879 -4.45085 -6.88694 0
M  V30 58193 O 110.489 -5.7877 -6.5624 0
M  V30 58194 C 109.999 -3.47817 -6.12078 0
M  V30 58195 C 110.709 -3.39414 -4.77697 0
M  V30 58196 N 110.659 -2.04615 -4.15333 0
M  V30 58197 H 113.498 -3.41248 -7.98759 0
M  V30 58198 H 113.77 -2.5837 -6.41742 0
M  V30 58199 H 112.902 -5.02657 -6.42673 0
M  V30 58200 P 108.939 -6.144 -6.45285 0
M  V30 58201 O 108.719 -7.54673 -6.86199 0
M  V30 58202 O 108.149 -5.12391 -7.179 0
M  V30 58203 O 108.689 -5.99158 -4.88404 0
M  V30 58204 C 109.629 -6.60062 -3.96313 0
M  V30 58205 C 108.899 -7.08259 -2.72856 0
M  V30 58206 O 108.689 -5.9427 -1.83651 0
M  V30 58207 C 107.499 -7.65087 -2.94749 0
M  V30 58208 O 107.109 -8.53963 -1.90717 0
M  V30 58209 C 106.619 -6.41069 -2.90698 0
M  V30 58210 C 107.329 -5.5528 -1.86931 0
M  V30 58211 N 107.279 -4.09575 -2.15696 0
M  V30 58212 C 107.129 -3.24249 -1.08435 0
M  V30 58213 O 107.039 -3.63946 0.0628747 0
M  V30 58214 N 107.089 -1.90009 -1.39973 0
M  V30 58215 C 107.179 -1.34884 -2.65614 0
M  V30 58216 C 107.329 -2.3145 -3.71736 0
M  V30 58217 C 107.379 -3.63518 -3.44754 0
M  V30 58218 H 110.12 -7.45402 -4.45526 0
M  V30 58219 H 110.389 -5.86062 -3.67208 0
M  V30 58220 H 109.522 -7.84412 -2.24479 0
M  V30 58221 H 106.867 -5.73358 -0.888409 0
M  V30 58222 H 106.588 -5.90877 -3.88583 0
M  V30 58223 H 105.596 -6.65867 -2.58821 0
M  V30 58224 H 107.43 -8.16248 -3.92006 0
M  V30 58225 H 107.501 -4.34551 -4.26383 0
M  V30 58226 P 105.559 -8.7635 -1.60911 0
M  V30 58227 O 105.339 -10.1388 -1.11561 0
M  V30 58228 O 104.769 -8.36503 -2.79617 0
M  V30 58229 O 105.309 -7.71806 -0.42951 0
M  V30 58230 C 106.249 -7.67148 0.673689 0
M  V30 58231 C 105.519 -7.33374 1.95559 0
M  V30 58232 O 105.309 -5.88721 2.00726 0
M  V30 58233 C 104.119 -7.92526 2.10483 0
M  V30 58234 O 103.729 -8.02971 3.47653 0
M  V30 58235 C 103.239 -6.89602 1.41652 0
M  V30 58236 C 103.949 -5.59201 1.75185 0
M  V30 58237 N 103.899 -4.58235 0.662552 0
M  V30 58238 H 106.738 -8.65116 0.777161 0
M  V30 58239 H 107.01 -6.90173 0.474152 0
M  V30 58240 H 106.142 -7.66548 2.79458 0
M  V30 58241 P 102.179 -8.03563 3.84925 0
M  V30 58242 O 101.959 -8.85821 5.0569 0
M  V30 58243 O 101.389 -8.41101 2.65469 0
M  V30 58244 O 101.929 -6.4965 4.18908 0
M  V30 58245 C 102.869 -5.81037 5.05421 0
M  V30 58246 C 102.139 -4.78366 5.89277 0
M  V30 58247 O 101.929 -3.58302 5.08433 0
M  V30 58248 C 100.739 -5.17448 6.36119 0
M  V30 58249 O 100.349 -4.45271 7.53232 0
M  V30 58250 C 99.8594 -4.74639 5.19936 0
M  V30 58251 C 100.569 -3.49432 4.70418 0
M  V30 58252 N 100.519 -3.31776 3.22945 0
M  V30 58253 H 103.358 -6.54213 5.71376 0
M  V30 58254 H 103.63 -5.30492 4.44033 0
M  V30 58255 H 102.762 -4.55889 6.76652 0
M  V30 58256 P 98.7994 -4.23843 7.83734 0
M  V30 58257 O 98.5794 -4.19407 9.29784 0
M  V30 58258 O 98.0094 -5.24426 7.09156 0
M  V30 58259 O 98.5494 -2.7935 7.20758 0
M  V30 58260 C 99.4894 -1.7299 7.50419 0
M  V30 58261 C 98.7594 -0.406376 7.57911 0
M  V30 58262 O 98.5494 0.0897726 6.21935 0
M  V30 58263 C 97.3594 -0.447224 8.1878 0
M  V30 58264 O 96.9694 0.825065 8.71101 0
M  V30 58265 C 96.4794 -0.783801 6.99623 0
M  V30 58266 C 97.1894 -0.0619192 5.85967 0
M  V30 58267 N 97.1394 -0.790462 4.56202 0
M  V30 58268 H 99.9784 -1.93423 8.4679 0
M  V30 58269 H 100.25 -1.68852 6.70877 0
M  V30 58270 H 99.3824 0.289041 8.15388 0
M  V30 58271 H 96.7274 0.927006 5.72848 0
M  V30 58272 H 96.4474 -1.86973 6.82036 0
M  V30 58273 H 95.4564 -0.403953 7.13357 0
M  V30 58274 H 97.2904 -1.20599 8.97534 0
M  V30 58275 P 95.4195 1.17771 8.83182 0
M  V30 58276 O 95.1995 2.07206 9.98732 0
M  V30 58277 O 94.6295 -0.0743816 8.81969 0
M  V30 58278 O 95.1695 1.97652 7.47304 0
M  V30 58279 C 96.1095 3.01133 7.08783 0
M  V30 58280 C 95.3795 4.12613 6.37049 0
M  V30 58281 O 95.1695 3.72827 4.97879 0
M  V30 58282 C 93.9795 4.45085 6.88694 0
M  V30 58283 O 93.5895 5.7877 6.5624 0
M  V30 58284 C 93.0995 3.47817 6.12078 0
M  V30 58285 C 93.8095 3.39414 4.77697 0
M  V30 58286 N 93.7595 2.04615 4.15333 0
M  V30 58287 H 96.5985 3.41248 7.98759 0
M  V30 58288 H 96.8705 2.5837 6.41742 0
M  V30 58289 H 96.0025 5.02657 6.42673 0
M  V30 58290 P 92.0395 6.144 6.45285 0
M  V30 58291 O 91.8195 7.54673 6.86199 0
M  V30 58292 O 91.2495 5.12391 7.179 0
M  V30 58293 O 91.7895 5.99158 4.88404 0
M  V30 58294 C 92.7295 6.60062 3.96313 0
M  V30 58295 C 91.9995 7.08259 2.72856 0
M  V30 58296 O 91.7895 5.9427 1.83651 0
M  V30 58297 C 90.5995 7.65087 2.94749 0
M  V30 58298 O 90.2095 8.53963 1.90717 0
M  V30 58299 C 89.7195 6.41069 2.90698 0
M  V30 58300 C 90.4295 5.5528 1.86931 0
M  V30 58301 N 90.3795 4.09575 2.15696 0
M  V30 58302 C 90.2295 3.24249 1.08435 0
M  V30 58303 O 90.1395 3.63946 -0.0628747 0
M  V30 58304 N 90.1895 1.90009 1.39973 0
M  V30 58305 C 90.2795 1.34884 2.65614 0
M  V30 58306 C 90.4295 2.3145 3.71736 0
M  V30 58307 C 90.4795 3.63518 3.44754 0
M  V30 58308 H 93.2205 7.45402 4.45526 0
M  V30 58309 H 93.4895 5.86062 3.67208 0
M  V30 58310 H 92.6225 7.84412 2.24479 0
M  V30 58311 H 89.9675 5.73358 0.888409 0
M  V30 58312 H 89.6885 5.90877 3.88583 0
M  V30 58313 H 88.6965 6.65867 2.58821 0
M  V30 58314 H 90.5305 8.16248 3.92006 0
M  V30 58315 H 90.6015 4.34551 4.26383 0
M  V30 58316 P 88.6595 8.7635 1.60911 0
M  V30 58317 O 88.4395 10.1388 1.11561 0
M  V30 58318 O 87.8695 8.36503 2.79617 0
M  V30 58319 O 88.4095 7.71806 0.42951 0
M  V30 58320 C 89.3495 7.67148 -0.673689 0
M  V30 58321 C 88.6195 7.33374 -1.95559 0
M  V30 58322 O 88.4095 5.88721 -2.00726 0
M  V30 58323 C 87.2195 7.92526 -2.10483 0
M  V30 58324 O 86.8295 8.02971 -3.47653 0
M  V30 58325 C 86.3395 6.89602 -1.41652 0
M  V30 58326 C 87.0495 5.59201 -1.75185 0
M  V30 58327 N 86.9995 4.58301 -0.657969 0
M  V30 58328 H 89.8385 8.65116 -0.777161 0
M  V30 58329 H 90.1105 6.9022 -0.46725 0
M  V30 58330 H 89.2425 7.66548 -2.79458 0
M  V30 58331 H 86.5875 5.16165 -2.65183 0
M  V30 58332 H 86.3075 7.06433 -0.329384 0
M  V30 58333 H 85.3165 6.90926 -1.82021 0
M  V30 58334 H 87.1505 8.90873 -1.62657 0
M  V30 58335 P 85.2795 8.03563 -3.84925 0
M  V30 58336 O 85.0595 8.85821 -5.0569 0
M  V30 58337 O 84.4895 8.41101 -2.65469 0
M  V30 58338 O 85.0295 6.4965 -4.18908 0
M  V30 58339 C 85.9695 5.81037 -5.05421 0
M  V30 58340 C 85.2395 4.78366 -5.89277 0
M  V30 58341 O 85.0295 3.58302 -5.08433 0
M  V30 58342 C 83.8395 5.17448 -6.36119 0
M  V30 58343 O 83.4495 4.45271 -7.53232 0
M  V30 58344 C 82.9595 4.74639 -5.19936 0
M  V30 58345 C 83.6695 3.49432 -4.70418 0
M  V30 58346 N 83.6195 3.32099 -3.22613 0
M  V30 58347 H 86.4585 6.54213 -5.71376 0
M  V30 58348 H 86.7305 5.30936 -4.43503 0
M  V30 58349 H 85.8625 4.55889 -6.76652 0
M  V30 58350 H 83.2075 2.61715 -5.17932 0
M  V30 58351 H 82.9275 5.52155 -4.41878 0
M  V30 58352 H 81.9365 4.51981 -5.53374 0
M  V30 58353 H 83.7705 6.25124 -6.55234 0
M  V30 58354 P 81.8995 4.23843 -7.83734 0
M  V30 58355 O 81.6795 4.19407 -9.29784 0
M  V30 58356 O 81.1095 5.24426 -7.09156 0
M  V30 58357 O 81.6495 2.7935 -7.20758 0
M  V30 58358 C 82.5895 1.72945 -7.50224 0
M  V30 58359 C 81.8595 0.406376 -7.57911 0
M  V30 58360 O 81.6495 -0.0897726 -6.21935 0
M  V30 58361 C 80.4595 0.438983 -8.18724 0
M  V30 58362 O 80.0695 -0.825065 -8.71101 0
M  V30 58363 C 79.5795 0.783689 -6.99524 0
M  V30 58364 C 80.2895 0.0619086 -5.85867 0
M  V30 58365 N 80.2395 0.78573 -4.56183 0
M  V30 58366 C 80.0895 0.0292889 -3.41887 0
M  V30 58367 O 79.9995 -1.18445 -3.4419 0
M  V30 58368 N 80.0495 0.744061 -2.23964 0
M  V30 58369 C 80.1395 2.10932 -2.10362 0
M  V30 58370 O 80.0895 2.64117 -0.98825 0
M  V30 58371 C 80.2895 2.8202 -3.34994 0
M  V30 58372 C 80.3995 4.31095 -3.25037 0
M  V30 58373 C 80.3395 2.15547 -4.52261 0
M  V30 58374 H 83.0805 1.93379 -8.46595 0
M  V30 58375 H 83.3495 1.68132 -6.70852 0
M  V30 58376 H 82.4825 -0.289041 -8.15388 0
M  V30 58377 H 79.8275 -0.926847 -5.72749 0
M  V30 58378 H 79.5485 1.86973 -6.82036 0
M  V30 58379 H 78.5565 0.403896 -7.13257 0
M  V30 58380 H 80.3905 1.20585 -8.97435 0
M  V30 58381 H 80.4615 2.71231 -5.45042 0
M  V30 58382 H 79.4315 4.76966 -3.49992 0
M  V30 58383 H 81.1685 4.67047 -3.95024 0
M  V30 58384 H 80.6805 4.58996 -2.22312 0
M  V30 58385 H 79.9445 0.214893 -1.39758 0
M  V30 58386 P 78.5196 -1.17771 -8.83182 0
M  V30 58387 O 78.2996 -2.07206 -9.98732 0
M  V30 58388 O 77.7296 0.0743816 -8.81969 0
M  V30 58389 O 78.2696 -1.97652 -7.47304 0
M  V30 58390 C 79.2096 -3.01133 -7.08783 0
M  V30 58391 C 78.4796 -4.12613 -6.37049 0
M  V30 58392 O 78.2696 -3.72827 -4.97879 0
M  V30 58393 C 77.0796 -4.45085 -6.88694 0
M  V30 58394 O 76.6896 -5.7877 -6.5624 0
M  V30 58395 C 76.1996 -3.47817 -6.12078 0
M  V30 58396 C 76.9096 -3.39414 -4.77697 0
M  V30 58397 N 76.8596 -2.04199 -4.15538 0
M  V30 58398 H 79.6986 -3.41248 -7.98759 0
M  V30 58399 H 79.9706 -2.57728 -6.42 0
M  V30 58400 H 79.1026 -5.02657 -6.42673 0
M  V30 58401 H 76.4476 -4.11708 -4.08956 0
M  V30 58402 H 76.1676 -2.49626 -6.61679 0
M  V30 58403 H 75.1766 -3.8662 -6.00862 0
M  V30 58404 H 77.0106 -4.29991 -7.97006 0
M  V30 58405 P 75.1396 -6.144 -6.45285 0
M  V30 58406 O 74.9196 -7.54673 -6.86199 0
M  V30 58407 O 74.3496 -5.12391 -7.179 0
M  V30 58408 O 74.8896 -5.99158 -4.88404 0
M  V30 58409 C 75.8296 -6.60234 -3.96415 0
M  V30 58410 C 75.0996 -7.08259 -2.72856 0
M  V30 58411 O 74.8896 -5.9427 -1.83651 0
M  V30 58412 C 73.6996 -7.64886 -2.9555 0
M  V30 58413 O 73.3096 -8.53963 -1.90717 0
M  V30 58414 C 72.8196 -6.4116 -2.90739 0
M  V30 58415 C 73.5296 -5.55375 -1.86963 0
M  V30 58416 N 73.4796 -4.09664 -2.15742 0
M  V30 58417 H 76.3186 -7.45574 -4.45629 0
M  V30 58418 H 76.5906 -5.86232 -3.67314 0
M  V30 58419 H 75.7226 -7.84412 -2.24479 0
M  V30 58420 P 71.7596 -8.7635 -1.60911 0
M  V30 58421 O 71.5396 -10.1388 -1.11561 0
M  V30 58422 O 70.9696 -8.36503 -2.79617 0
M  V30 58423 O 71.5096 -7.71806 -0.42951 0
M  V30 58424 C 72.4496 -7.67148 0.673689 0
M  V30 58425 C 71.7196 -7.33374 1.95559 0
M  V30 58426 O 71.5096 -5.88721 2.00726 0
M  V30 58427 C 70.3196 -7.92526 2.10483 0
M  V30 58428 O 69.9296 -8.02971 3.47653 0
M  V30 58429 C 69.4396 -6.89602 1.41652 0
M  V30 58430 C 70.1496 -5.59201 1.75185 0
M  V30 58431 N 70.0996 -4.58235 0.662552 0
M  V30 58432 H 72.9386 -8.65116 0.777161 0
M  V30 58433 H 73.2106 -6.90173 0.474152 0
M  V30 58434 H 72.3426 -7.66548 2.79458 0
M  V30 58435 P 68.3796 -8.03563 3.84925 0
M  V30 58436 O 68.1596 -8.85821 5.0569 0
M  V30 58437 O 67.5896 -8.41101 2.65469 0
M  V30 58438 O 68.1296 -6.4965 4.18908 0
M  V30 58439 C 69.0696 -5.81037 5.05421 0
M  V30 58440 C 68.3396 -4.78366 5.89277 0
M  V30 58441 O 68.1296 -3.58302 5.08433 0
M  V30 58442 C 66.9396 -5.17448 6.36119 0
M  V30 58443 O 66.5496 -4.45271 7.53232 0
M  V30 58444 C 66.0596 -4.74639 5.19936 0
M  V30 58445 C 66.7696 -3.49432 4.70418 0
M  V30 58446 N 66.7196 -3.32099 3.22613 0
M  V30 58447 H 69.5586 -6.54213 5.71376 0
M  V30 58448 H 69.8306 -5.30936 4.43503 0
M  V30 58449 H 68.9626 -4.55889 6.76652 0
M  V30 58450 H 66.3076 -2.61715 5.17932 0
M  V30 58451 H 66.0276 -5.52155 4.41878 0
M  V30 58452 H 65.0366 -4.51981 5.53374 0
M  V30 58453 H 66.8706 -6.25124 6.55234 0
M  V30 58454 P 64.9996 -4.23843 7.83734 0
M  V30 58455 O 64.7796 -4.19407 9.29784 0
M  V30 58456 O 64.2096 -5.24426 7.09156 0
M  V30 58457 O 64.7496 -2.7935 7.20758 0
M  V30 58458 C 65.6896 -1.7299 7.50419 0
M  V30 58459 C 64.9596 -0.406376 7.57911 0
M  V30 58460 O 64.7496 0.0897726 6.21935 0
M  V30 58461 C 63.5596 -0.447224 8.1878 0
M  V30 58462 O 63.1696 0.825065 8.71101 0
M  V30 58463 C 62.6796 -0.783801 6.99623 0
M  V30 58464 C 63.3896 -0.0619192 5.85967 0
M  V30 58465 N 63.3396 -0.790462 4.56202 0
M  V30 58466 H 66.1786 -1.93423 8.4679 0
M  V30 58467 H 66.4506 -1.68852 6.70877 0
M  V30 58468 H 65.5826 0.289041 8.15388 0
M  V30 58469 H 62.9276 0.927006 5.72848 0
M  V30 58470 H 62.6476 -1.86973 6.82036 0
M  V30 58471 H 61.6566 -0.403953 7.13357 0
M  V30 58472 H 63.4906 -1.20599 8.97534 0
M  V30 58473 P 61.6197 1.17771 8.83182 0
M  V30 58474 O 61.3997 2.07206 9.98732 0
M  V30 58475 O 60.8297 -0.0743816 8.81969 0
M  V30 58476 O 61.3697 1.97652 7.47304 0
M  V30 58477 C 62.3097 3.01133 7.08783 0
M  V30 58478 C 61.5797 4.12613 6.37049 0
M  V30 58479 O 61.3697 3.72827 4.97879 0
M  V30 58480 C 60.1797 4.45085 6.88694 0
M  V30 58481 O 59.7897 5.7877 6.5624 0
M  V30 58482 C 59.2997 3.47817 6.12078 0
M  V30 58483 C 60.0097 3.39414 4.77697 0
M  V30 58484 N 59.9597 2.04615 4.15333 0
M  V30 58485 H 62.7987 3.41248 7.98759 0
M  V30 58486 H 63.0707 2.5837 6.41742 0
M  V30 58487 H 62.2027 5.02657 6.42673 0
M  V30 58488 P 58.2397 6.144 6.45285 0
M  V30 58489 O 58.0197 7.54673 6.86199 0
M  V30 58490 O 57.4497 5.12391 7.179 0
M  V30 58491 O 57.9897 5.99158 4.88404 0
M  V30 58492 C 58.9297 6.60234 3.96415 0
M  V30 58493 C 58.1997 7.08259 2.72856 0
M  V30 58494 O 57.9897 5.9427 1.83651 0
M  V30 58495 C 56.7997 7.64886 2.9555 0
M  V30 58496 O 56.4097 8.53963 1.90717 0
M  V30 58497 C 55.9197 6.4116 2.90739 0
M  V30 58498 C 56.6297 5.55375 1.86963 0
M  V30 58499 N 56.5797 4.09448 2.16152 0
M  V30 58500 H 59.4187 7.45574 4.45629 0
M  V30 58501 H 59.6907 5.85864 3.679 0
M  V30 58502 H 58.8227 7.84412 2.24479 0
M  V30 58503 H 56.1677 5.73457 0.888562 0
M  V30 58504 H 55.8877 5.90877 3.88583 0
M  V30 58505 H 54.8967 6.6596 2.58858 0
M  V30 58506 H 56.7307 8.16339 3.92049 0
M  V30 58507 P 54.8597 8.7635 1.60911 0
M  V30 58508 O 54.6397 10.1388 1.11561 0
M  V30 58509 O 54.0697 8.36503 2.79617 0
M  V30 58510 O 54.6097 7.71806 0.42951 0
M  V30 58511 C 55.5497 7.67148 -0.673689 0
M  V30 58512 C 54.8197 7.33374 -1.95559 0
M  V30 58513 O 54.6097 5.88721 -2.00726 0
M  V30 58514 C 53.4197 7.92526 -2.10483 0
M  V30 58515 O 53.0297 8.02971 -3.47653 0
M  V30 58516 C 52.5397 6.89602 -1.41652 0
M  V30 58517 C 53.2497 5.59201 -1.75185 0
M  V30 58518 N 53.1997 4.58235 -0.662552 0
M  V30 58519 H 56.0387 8.65116 -0.777161 0
M  V30 58520 H 56.3107 6.90173 -0.474152 0
M  V30 58521 H 55.4427 7.66548 -2.79458 0
M  V30 58522 P 51.4797 8.03563 -3.84925 0
M  V30 58523 O 51.2597 8.85821 -5.0569 0
M  V30 58524 O 50.6897 8.41101 -2.65469 0
M  V30 58525 O 51.2297 6.4965 -4.18908 0
M  V30 58526 C 52.1697 5.81037 -5.05421 0
M  V30 58527 C 51.4397 4.78366 -5.89277 0
M  V30 58528 O 51.2297 3.58302 -5.08433 0
M  V30 58529 C 50.0397 5.17448 -6.36119 0
M  V30 58530 O 49.6497 4.45271 -7.53232 0
M  V30 58531 C 49.1597 4.74639 -5.19936 0
M  V30 58532 C 49.8697 3.49432 -4.70418 0
M  V30 58533 N 49.8197 3.31776 -3.22945 0
M  V30 58534 H 52.6587 6.54213 -5.71376 0
M  V30 58535 H 52.9307 5.30492 -4.44033 0
M  V30 58536 H 52.0627 4.55889 -6.76652 0
M  V30 58537 P 48.0997 4.23843 -7.83734 0
M  V30 58538 O 47.8797 4.19407 -9.29784 0
M  V30 58539 O 47.3097 5.24426 -7.09156 0
M  V30 58540 O 47.8497 2.7935 -7.20758 0
M  V30 58541 C 48.7897 1.7299 -7.50419 0
M  V30 58542 C 48.0597 0.406376 -7.57911 0
M  V30 58543 O 47.8497 -0.0897726 -6.21935 0
M  V30 58544 C 46.6597 0.447224 -8.1878 0
M  V30 58545 O 46.2697 -0.825065 -8.71101 0
M  V30 58546 C 45.7797 0.783801 -6.99623 0
M  V30 58547 C 46.4897 0.0619192 -5.85967 0
M  V30 58548 N 46.4397 0.7859 -4.56281 0
M  V30 58549 H 49.2787 1.93423 -8.4679 0
M  V30 58550 H 49.5507 1.68181 -6.71046 0
M  V30 58551 H 48.6827 -0.289041 -8.15388 0
M  V30 58552 P 44.7198 -1.17771 -8.83182 0
M  V30 58553 O 44.4998 -2.07206 -9.98732 0
M  V30 58554 O 43.9298 0.0743816 -8.81969 0
M  V30 58555 O 44.4698 -1.97652 -7.47304 0
M  V30 58556 C 45.4098 -3.01133 -7.08783 0
M  V30 58557 C 44.6798 -4.12613 -6.37049 0
M  V30 58558 O 44.4698 -3.72827 -4.97879 0
M  V30 58559 C 43.2798 -4.45085 -6.88694 0
M  V30 58560 O 42.8898 -5.7877 -6.5624 0
M  V30 58561 C 42.3998 -3.47817 -6.12078 0
M  V30 58562 C 43.1098 -3.39414 -4.77697 0
M  V30 58563 N 43.0598 -2.04615 -4.15333 0
M  V30 58564 H 45.8988 -3.41248 -7.98759 0
M  V30 58565 H 46.1708 -2.5837 -6.41742 0
M  V30 58566 H 45.3028 -5.02657 -6.42673 0
M  V30 58567 P 41.3398 -6.144 -6.45285 0
M  V30 58568 O 41.1198 -7.54673 -6.86199 0
M  V30 58569 O 40.5498 -5.12391 -7.179 0
M  V30 58570 O 41.0898 -5.99158 -4.88404 0
M  V30 58571 C 42.0298 -6.60234 -3.96415 0
M  V30 58572 C 41.2998 -7.08259 -2.72856 0
M  V30 58573 O 41.0898 -5.9427 -1.83651 0
M  V30 58574 C 39.8998 -7.64886 -2.9555 0
M  V30 58575 O 39.5098 -8.53963 -1.90717 0
M  V30 58576 C 39.0198 -6.4116 -2.90739 0
M  V30 58577 C 39.7298 -5.55375 -1.86963 0
M  V30 58578 N 39.6798 -4.09664 -2.15742 0
M  V30 58579 H 42.5188 -7.45574 -4.45629 0
M  V30 58580 H 42.7908 -5.86232 -3.67314 0
M  V30 58581 H 41.9228 -7.84412 -2.24479 0
M  V30 58582 P 37.9598 -8.7635 -1.60911 0
M  V30 58583 O 37.7398 -10.1388 -1.11561 0
M  V30 58584 O 37.1698 -8.36503 -2.79617 0
M  V30 58585 O 37.7098 -7.71806 -0.42951 0
M  V30 58586 C 38.6498 -7.67148 0.673689 0
M  V30 58587 C 37.9198 -7.33374 1.95559 0
M  V30 58588 O 37.7098 -5.88721 2.00726 0
M  V30 58589 C 36.5198 -7.92526 2.10483 0
M  V30 58590 O 36.1298 -8.02971 3.47653 0
M  V30 58591 C 35.6398 -6.89602 1.41652 0
M  V30 58592 C 36.3498 -5.59201 1.75185 0
M  V30 58593 N 36.2998 -4.58235 0.662552 0
M  V30 58594 H 39.1388 -8.65116 0.777161 0
M  V30 58595 H 39.4108 -6.90173 0.474152 0
M  V30 58596 H 38.5428 -7.66548 2.79458 0
M  V30 58597 P 34.5798 -8.03563 3.84925 0
M  V30 58598 O 34.3598 -8.85821 5.0569 0
M  V30 58599 O 33.7898 -8.41101 2.65469 0
M  V30 58600 O 34.3298 -6.4965 4.18908 0
M  V30 58601 C 35.2698 -5.81037 5.05421 0
M  V30 58602 C 34.5398 -4.78366 5.89277 0
M  V30 58603 O 34.3298 -3.58302 5.08433 0
M  V30 58604 C 33.1398 -5.17448 6.36119 0
M  V30 58605 O 32.7498 -4.45271 7.53232 0
M  V30 58606 C 32.2598 -4.74639 5.19936 0
M  V30 58607 C 32.9698 -3.49432 4.70418 0
M  V30 58608 N 32.9198 -3.31776 3.22945 0
M  V30 58609 H 35.7588 -6.54213 5.71376 0
M  V30 58610 H 36.0308 -5.30492 4.44033 0
M  V30 58611 H 35.1628 -4.55889 6.76652 0
M  V30 58612 P 31.1998 -4.23843 7.83734 0
M  V30 58613 O 30.9798 -4.19407 9.29784 0
M  V30 58614 O 30.4098 -5.24426 7.09156 0
M  V30 58615 O 30.9498 -2.7935 7.20758 0
M  V30 58616 C 31.8898 -1.7299 7.50419 0
M  V30 58617 C 31.1598 -0.406376 7.57911 0
M  V30 58618 O 30.9498 0.0897726 6.21935 0
M  V30 58619 C 29.7598 -0.447224 8.1878 0
M  V30 58620 O 29.3698 0.825065 8.71101 0
M  V30 58621 C 28.8798 -0.783801 6.99623 0
M  V30 58622 C 29.5898 -0.0619192 5.85967 0
M  V30 58623 N 29.5398 -0.7859 4.56281 0
M  V30 58624 H 32.3788 -1.93423 8.4679 0
M  V30 58625 H 32.6508 -1.68181 6.71046 0
M  V30 58626 H 31.7828 0.289041 8.15388 0
M  V30 58627 P 27.8199 1.17771 8.83182 0
M  V30 58628 O 27.5999 2.07206 9.98732 0
M  V30 58629 O 27.0299 -0.0743816 8.81969 0
M  V30 58630 O 27.5699 1.97652 7.47304 0
M  V30 58631 C 28.5099 3.01133 7.08783 0
M  V30 58632 C 27.7799 4.12613 6.37049 0
M  V30 58633 O 27.5699 3.72827 4.97879 0
M  V30 58634 C 26.3799 4.45085 6.88694 0
M  V30 58635 O 25.9899 5.7877 6.5624 0
M  V30 58636 C 25.4999 3.47817 6.12078 0
M  V30 58637 C 26.2099 3.39414 4.77697 0
M  V30 58638 N 26.1599 2.04615 4.15333 0
M  V30 58639 H 28.9989 3.41248 7.98759 0
M  V30 58640 H 29.2709 2.5837 6.41742 0
M  V30 58641 H 28.4029 5.02657 6.42673 0
M  V30 58642 P 24.4399 6.144 6.45285 0
M  V30 58643 O 24.2199 7.54673 6.86199 0
M  V30 58644 O 23.6499 5.12391 7.179 0
M  V30 58645 O 24.1899 5.99158 4.88404 0
M  V30 58646 C 25.1299 6.60234 3.96415 0
M  V30 58647 C 24.3999 7.08259 2.72856 0
M  V30 58648 O 24.1899 5.9427 1.83651 0
M  V30 58649 C 22.9999 7.64886 2.9555 0
M  V30 58650 O 22.6099 8.53963 1.90717 0
M  V30 58651 C 22.1199 6.4116 2.90739 0
M  V30 58652 C 22.8299 5.55375 1.86963 0
M  V30 58653 N 22.7799 4.09664 2.15742 0
M  V30 58654 H 25.6189 7.45574 4.45629 0
M  V30 58655 H 25.8909 5.86232 3.67314 0
M  V30 58656 H 25.0229 7.84412 2.24479 0
M  V30 58657 P 21.0599 8.7635 1.60911 0
M  V30 58658 O 20.8399 10.1388 1.11561 0
M  V30 58659 O 20.2699 8.36503 2.79617 0
M  V30 58660 O 20.8099 7.71806 0.42951 0
M  V30 58661 C 21.7499 7.67148 -0.673689 0
M  V30 58662 C 21.0199 7.33374 -1.95559 0
M  V30 58663 O 20.8099 5.88721 -2.00726 0
M  V30 58664 C 19.6199 7.92526 -2.10483 0
M  V30 58665 O 19.2299 8.02971 -3.47653 0
M  V30 58666 C 18.7399 6.89602 -1.41652 0
M  V30 58667 C 19.4499 5.59201 -1.75185 0
M  V30 58668 N 19.3999 4.58235 -0.662552 0
M  V30 58669 H 22.2389 8.65116 -0.777161 0
M  V30 58670 H 22.5109 6.90173 -0.474152 0
M  V30 58671 H 21.6429 7.66548 -2.79458 0
M  V30 58672 P 17.6799 8.03563 -3.84925 0
M  V30 58673 O 17.4599 8.85821 -5.0569 0
M  V30 58674 O 16.8899 8.41101 -2.65469 0
M  V30 58675 O 17.4299 6.4965 -4.18908 0
M  V30 58676 C 18.3699 5.81037 -5.05421 0
M  V30 58677 C 17.6399 4.78366 -5.89277 0
M  V30 58678 O 17.4299 3.58302 -5.08433 0
M  V30 58679 C 16.2399 5.17448 -6.36119 0
M  V30 58680 O 15.8499 4.45271 -7.53232 0
M  V30 58681 C 15.3599 4.74639 -5.19936 0
M  V30 58682 C 16.0699 3.49432 -4.70418 0
M  V30 58683 N 16.0199 3.31776 -3.22945 0
M  V30 58684 H 18.8589 6.54213 -5.71376 0
M  V30 58685 H 19.1309 5.30492 -4.44033 0
M  V30 58686 H 18.2629 4.55889 -6.76652 0
M  V30 58687 P 14.2999 4.23843 -7.83734 0
M  V30 58688 O 14.0799 4.19407 -9.29784 0
M  V30 58689 O 13.5099 5.24426 -7.09156 0
M  V30 58690 O 14.0499 2.7935 -7.20758 0
M  V30 58691 C 14.9899 1.7299 -7.50419 0
M  V30 58692 C 14.2599 0.406376 -7.57911 0
M  V30 58693 O 14.0499 -0.0897726 -6.21935 0
M  V30 58694 C 12.8599 0.447224 -8.1878 0
M  V30 58695 O 12.4699 -0.825065 -8.71101 0
M  V30 58696 C 11.9799 0.783801 -6.99623 0
M  V30 58697 C 12.6899 0.0619192 -5.85967 0
M  V30 58698 N 12.6399 0.790462 -4.56202 0
M  V30 58699 H 15.4789 1.93423 -8.4679 0
M  V30 58700 H 15.7509 1.68852 -6.70877 0
M  V30 58701 H 14.8829 -0.289041 -8.15388 0
M  V30 58702 H 12.2279 -0.927006 -5.72848 0
M  V30 58703 H 11.9479 1.86973 -6.82036 0
M  V30 58704 H 10.9569 0.403953 -7.13357 0
M  V30 58705 H 12.7909 1.20599 -8.97534 0
M  V30 58706 P 10.92 -1.17771 -8.83182 0
M  V30 58707 O 10.7 -2.07206 -9.98732 0
M  V30 58708 O 10.13 0.0743816 -8.81969 0
M  V30 58709 O 10.67 -1.97652 -7.47304 0
M  V30 58710 C 11.61 -3.01133 -7.08783 0
M  V30 58711 C 10.88 -4.12613 -6.37049 0
M  V30 58712 O 10.67 -3.72827 -4.97879 0
M  V30 58713 C 9.47996 -4.45085 -6.88694 0
M  V30 58714 O 9.08996 -5.7877 -6.5624 0
M  V30 58715 C 8.59996 -3.47817 -6.12078 0
M  V30 58716 C 9.30996 -3.39414 -4.77697 0
M  V30 58717 N 9.25996 -2.04615 -4.15333 0
M  V30 58718 H 12.099 -3.41248 -7.98759 0
M  V30 58719 H 12.371 -2.5837 -6.41742 0
M  V30 58720 H 11.503 -5.02657 -6.42673 0
M  V30 58721 P 7.53998 -6.144 -6.45285 0
M  V30 58722 O 7.31998 -7.54673 -6.86199 0
M  V30 58723 O 6.74998 -5.12391 -7.179 0
M  V30 58724 O 7.28998 -5.99158 -4.88404 0
M  V30 58725 C 8.22998 -6.60234 -3.96415 0
M  V30 58726 C 7.49998 -7.08259 -2.72856 0
M  V30 58727 O 7.28998 -5.9427 -1.83651 0
M  V30 58728 C 6.09998 -7.64886 -2.9555 0
M  V30 58729 O 5.70998 -8.53963 -1.90717 0
M  V30 58730 C 5.21998 -6.4116 -2.90739 0
M  V30 58731 C 5.92998 -5.55375 -1.86963 0
M  V30 58732 N 5.87998 -4.09664 -2.15742 0
M  V30 58733 H 8.71898 -7.45574 -4.45629 0
M  V30 58734 H 8.99098 -5.86232 -3.67314 0
M  V30 58735 H 8.12298 -7.84412 -2.24479 0
M  V30 58736 P 4.16 -8.7635 -1.60911 0
M  V30 58737 O 3.94 -10.1388 -1.11561 0
M  V30 58738 O 3.37 -8.36503 -2.79617 0
M  V30 58739 O 3.91 -7.71806 -0.42951 0
M  V30 58740 C 4.85 -7.67148 0.673689 0
M  V30 58741 C 4.12 -7.33374 1.95559 0
M  V30 58742 O 3.91 -5.88721 2.00726 0
M  V30 58743 C 2.72 -7.92526 2.10483 0
M  V30 58744 O 2.33 -8.02971 3.47653 0
M  V30 58745 C 1.84 -6.89602 1.41652 0
M  V30 58746 C 2.55 -5.59201 1.75185 0
M  V30 58747 N 2.5 -4.58235 0.662552 0
M  V30 58748 H 5.339 -8.65116 0.777161 0
M  V30 58749 H 5.611 -6.90173 0.474152 0
M  V30 58750 H 4.743 -7.66548 2.79458 0
M  V30 58751 H 1.613 -8.66322 3.55694 0
M  V30 END ATOM
M  V30 BEGIN BOND
M  V30 END BOND
M  V30 END CTAB
M  END
$$$$
