drugbank_target|P15559 NAD(P)H dehydrogenase [quinone] 1 (DB00170; DB00266; DB01927; DB02395; DB02400; DB02633; DB03147; DB03626; DB04090; DB04392; DB07385; DB09061)
 OpenBabel12092119493D

  0  0  0     0  0            999 V3000
M  V30 BEGIN CTAB
M  V30 COUNTS 4371 4429 0 0 0
M  V30 BEGIN ATOM
M  V30 1 H -0.908 1.98254 -0.117106 0
M  V30 2 N 0 1.576 0 0
M  V30 3 C 0.933 2.03868 1.02534 0
M  V30 4 C 1.911 0.928543 1.3348 0
M  V30 5 O 3.095 1.19667 1.45644 0
M  V30 6 C 0.222 2.43627 2.35294 0
M  V30 7 C -0.732 3.65373 2.2001 0
M  V30 8 S 0.101 5.13292 1.52614 0
M  V30 9 C 1.257 5.56322 2.86805 0
M  V30 10 H 1.49 2.90518 0.631377 0
M  V30 11 H -0.977 1.52953 0.210867 0
M  V30 12 H 0.981 2.67203 3.11629 0
M  V30 13 H -0.358 1.57376 2.7183 0
M  V30 14 H -1.165 3.90944 3.18086 0
M  V30 15 H -1.563 3.418 1.51819 0
M  V30 16 H 0.729 5.58782 3.83104 0
M  V30 17 H 1.672 6.56266 2.65933 0
M  V30 18 H 2.08 4.83886 2.90714 0
M  V30 19 N 1.4781 -0.272755 1.55222 0
M  V30 20 C 2.7241 -1.00581 1.761 0
M  V30 21 C 3.0571 -1.85932 0.560625 0
M  V30 22 O 2.3321 -1.89416 -0.441801 0
M  V30 23 C 2.6151 -1.88816 3.06628 0
M  V30 24 C 2.4681 -1.06457 4.37021 0
M  V30 25 C 3.7871 -2.8752 3.33197 0
M  V30 26 H 0.9061 -0.364244 0.640699 0
M  V30 27 H 3.5481 -0.278189 1.87952 0
M  V30 28 H 1.6981 -2.50856 2.96654 0
M  V30 29 H 3.3701 -0.464863 4.58952 0
M  V30 30 H 1.6131 -0.368043 4.32236 0
M  V30 31 H 2.2841 -1.71514 5.24678 0
M  V30 32 H 4.7601 -2.35615 3.42965 0
M  V30 33 H 3.6361 -3.46399 4.25792 0
M  V30 34 H 3.8971 -3.62657 2.52849 0
M  V30 35 N 2.9562 -1.48159 -0.537278 0
M  V30 36 C 4.2042 -1.55497 -1.29094 0
M  V30 37 C 4.5252 -0.227454 -1.93669 0
M  V30 38 O 3.7952 0.750386 -1.80959 0
M  V30 39 H 2.3752 -0.572832 -0.47945 0
M  V30 40 H 5.0372 -1.84579 -0.625818 0
M  V30 41 H 4.1332 -2.33216 -2.07405 0
M  V30 42 N 4.4343 0.785586 -1.36625 0
M  V30 43 C 5.8503 1.08419 -1.17122 0
M  V30 44 C 6.0503 2.015 0.00208491 0
M  V30 45 O 5.1063 2.43551 0.666278 0
M  V30 46 C 6.4193 1.69498 -2.48377 0
M  V30 47 C 7.9673 1.81821 -2.54775 0
M  V30 48 C 8.4423 2.46315 -3.86126 0
M  V30 49 N 9.9333 2.53779 -3.87492 0
M  V30 50 C 10.6683 3.045 -4.85868 0
M  V30 51 N 10.1643 3.55499 -5.94637 0
M  V30 52 N 11.9573 3.03247 -4.73284 0
M  V30 53 H 4.1083 0.167264 -2.1174 0
M  V30 54 H 6.3713 0.13682 -0.938075 0
M  V30 55 H 6.0773 1.08571 -3.34522 0
M  V30 56 H 5.9513 2.6896 -2.64462 0
M  V30 57 H 8.3383 2.41884 -1.69045 0
M  V30 58 H 8.4193 0.811532 -2.42586 0
M  V30 59 H 8.0633 1.86895 -4.72263 0
M  V30 60 H 7.9933 3.47561 -3.95612 0
M  V30 61 H 10.4843 2.17672 -3.08913 0
M  V30 62 H 10.7973 3.92562 -6.65669 0
M  V30 63 H 9.1423 3.5364 -5.98301 0
M  V30 64 H 12.3333 2.62696 -3.87438 0
M  V30 65 H 12.5063 3.42467 -5.50109 0
M  V30 66 N 5.9124 1.20967 1.01018 0
M  V30 67 C 7.3284 0.965905 1.27053 0
M  V30 68 C 7.5284 -0.350785 1.98423 0
M  V30 69 O 6.5844 -1.07773 2.28344 0
M  V30 70 C 7.8974 2.15294 2.09926 0
M  V30 71 C 9.4454 2.19463 2.23171 0
M  V30 72 C 9.9204 3.3767 3.09424 0
M  V30 73 N 11.4114 3.37724 3.17012 0
M  V30 74 C 12.1464 4.25837 3.83993 0
M  V30 75 N 11.6424 5.24138 4.53047 0
M  V30 76 N 13.4354 4.1366 3.80581 0
M  V30 77 H 5.5864 2.0565 0.531194 0
M  V30 78 H 7.8494 0.90024 0.297106 0
M  V30 79 H 7.5554 3.10684 1.64828 0
M  V30 80 H 7.4294 2.13923 3.10672 0
M  V30 81 H 9.8164 1.24632 2.6749 0
M  V30 82 H 9.8974 2.2488 1.21912 0
M  V30 83 H 9.5414 4.32791 2.65808 0
M  V30 84 H 9.4714 3.29491 4.10784 0
M  V30 85 H 11.9624 2.6658 2.6785 0
M  V30 86 H 12.2754 5.87684 5.01844 0
M  V30 87 H 10.6204 5.28068 4.5185 0
M  V30 88 H 13.8114 3.36127 3.25785 0
M  V30 89 H 13.9844 4.82538 4.32505 0
M  V30 90 N 7.3905 -1.2043 1.01659 0
M  V30 91 C 8.3535 -2.21433 0.591616 0
M  V30 92 C 9.3535 -1.57203 -0.338226 0
M  V30 93 O 10.5435 -1.73737 -0.126918 0
M  V30 94 C 7.6755 -3.40628 -0.136058 0
M  V30 95 H 8.8685 -2.60545 1.48514 0
M  V30 96 H 6.4215 -1.33893 0.806379 0
M  V30 97 H 7.1565 -3.07019 -1.04449 0
M  V30 98 H 6.9415 -3.88475 0.531917 0
M  V30 99 H 8.4315 -4.15475 -0.420735 0
M  V30 100 N 8.8686 -0.792821 -1.36206 0
M  V30 101 C 9.7986 -0.207853 -2.32573 0
M  V30 102 C 10.7796 0.659055 -1.56813 0
M  V30 103 O 11.9646 0.592176 -1.84951 0
M  V30 104 C 9.0946 0.655449 -3.41059 0
M  V30 105 C 8.0486 -0.111842 -4.27854 0
M  V30 106 C 7.3746 0.872274 -5.27537 0
M  V30 107 C 8.6746 -1.30299 -5.05786 0
M  V30 108 H 10.3686 -1.01294 -2.81744 0
M  V30 109 H 7.9146 -0.48854 -1.3546 0
M  V30 110 H 9.8676 1.07464 -4.07467 0
M  V30 111 H 8.5916 1.49328 -2.90463 0
M  V30 112 H 7.2506 -0.512053 -3.63006 0
M  V30 113 H 6.8986 1.70523 -4.73214 0
M  V30 114 H 6.5986 0.363291 -5.86476 0
M  V30 115 H 8.1226 1.28996 -5.96818 0
M  V30 116 H 9.5366 -0.959379 -5.65216 0
M  V30 117 H 7.9336 -1.7455 -5.74154 0
M  V30 118 H 9.0036 -2.09663 -4.37229 0
M  V30 119 N 10.3467 1.47872 -0.545128 0
M  V30 120 C 11.5957 2.01695 -0.0145033 0
M  V30 121 C 11.9087 1.42609 1.33873 0
M  V30 122 O 13.1147 1.88021 1.95858 0
M  V30 123 C 11.5707 3.59892 0.0245068 0
M  V30 124 C 11.1787 4.27966 -1.32475 0
M  V30 125 C 12.9227 4.21507 0.50316 0
M  V30 126 C 10.8297 5.78136 -1.2455 0
M  V30 127 H 9.7597 0.753998 -0.00165172 0
M  V30 128 H 12.4107 1.69985 -0.691175 0
M  V30 129 H 10.7927 3.88509 0.766575 0
M  V30 130 H 11.9667 4.11003 -2.08357 0
M  V30 131 H 10.2817 3.78286 -1.74036 0
M  V30 132 H 12.8787 5.31538 0.580656 0
M  V30 133 H 13.2217 3.87855 1.51243 0
M  V30 134 H 13.7547 3.97376 -0.183681 0
M  V30 135 H 10.4937 6.16388 -2.23039 0
M  V30 136 H 10.0137 5.97469 -0.528282 0
M  V30 137 H 11.6927 6.40099 -0.942488 0
M  V30 138 N 11.8248 0.280983 1.55075 0
M  V30 139 C 13.0708 -0.33461 2.00021 0
M  V30 140 C 13.4038 -1.55063 1.16915 0
M  V30 141 O 12.6788 -1.93006 0.240646 0
M  V30 142 C 12.9618 -0.711007 3.53011 0
M  V30 143 C 12.8148 0.512766 4.46868 0
M  V30 144 C 14.1338 -1.54522 4.12081 0
M  V30 145 H 11.2528 -0.120147 0.727141 0
M  V30 146 H 13.8948 0.389097 1.85973 0
M  V30 147 H 12.0448 -1.32761 3.65112 0
M  V30 148 H 13.7168 1.15131 4.46702 0
M  V30 149 H 11.9598 1.14975 4.18286 0
M  V30 150 H 12.6308 0.205556 5.51617 0
M  V30 151 H 15.1068 -1.02442 4.03293 0
M  V30 152 H 13.9828 -1.77739 5.19327 0
M  V30 153 H 14.2438 -2.52813 3.62682 0
M  V30 154 N 13.3029 -1.57598 0.00835791 0
M  V30 155 C 14.2329 -2.1198 -0.979113 0
M  V30 156 C 15.2139 -1.03091 -1.35301 0
M  V30 157 O 16.3989 -1.30818 -1.43528 0
M  V30 158 C 13.5289 -2.62995 -2.26828 0
M  V30 159 C 12.4829 -3.76485 -2.03576 0
M  V30 160 C 11.8089 -4.13846 -3.38579 0
M  V30 161 C 13.1089 -5.0342 -1.39161 0
M  V30 162 H 14.8029 -2.94738 -0.526281 0
M  V30 163 H 12.3489 -1.41783 -0.251704 0
M  V30 164 H 14.3019 -2.99669 -2.96271 0
M  V30 165 H 13.0259 -1.7737 -2.7424 0
M  V30 166 H 11.6849 -3.40217 -1.36557 0
M  V30 167 H 11.3329 -3.25232 -3.83709 0
M  V30 168 H 11.0329 -4.90312 -3.23834 0
M  V30 169 H 12.5569 -4.53086 -4.09323 0
M  V30 170 H 13.9709 -5.37812 -1.98573 0
M  V30 171 H 12.3679 -5.84746 -1.34878 0
M  V30 172 H 13.4379 -4.83548 -0.361868 0
M  V30 173 N 14.781 0.264519 -1.55364 0
M  V30 174 C 15.744 1.31046 -1.88042 0
M  V30 175 C 16.744 1.41943 -0.755569 0
M  V30 176 O 17.934 1.40947 -1.02369 0
M  V30 177 C 15.066 2.69067 -2.09323 0
M  V30 178 H 16.259 1.03297 -2.81549 0
M  V30 179 H 13.812 0.502989 -1.47986 0
M  V30 180 H 14.547 3.01982 -1.18226 0
M  V30 181 H 14.332 2.62542 -2.91229 0
M  V30 182 H 15.822 3.44623 -2.35848 0
M  V30 183 N 16.2591 1.48442 0.529413 0
M  V30 184 C 17.2091 1.59407 1.63014 0
M  V30 185 C 18.1931 0.451166 1.54445 0
M  V30 186 O 19.3851 0.702635 1.62456 0
M  V30 187 C 16.5141 1.63746 3.01732 0
M  V30 188 C 15.6001 2.83518 3.15402 0
M  V30 189 N 15.9911 4.07929 2.99045 0
M  V30 190 C 14.2891 2.80862 3.46457 0
M  V30 191 C 14.9901 4.8829 3.16146 0
M  V30 192 N 13.9661 4.21117 3.43746 0
M  V30 193 H 17.7681 2.53343 1.48978 0
M  V30 194 H 15.2821 1.44821 0.734885 0
M  V30 195 H 17.2791 1.69695 3.80801 0
M  V30 196 H 15.9391 0.709264 3.16859 0
M  V30 197 H 16.9501 4.38357 2.75796 0
M  V30 198 H 13.6271 1.97301 3.67938 0
M  V30 199 H 15.0171 5.97028 3.08232 0
M  V30 200 N 17.7372 -0.778329 1.37039 0
M  V30 201 C 18.9622 -1.57248 1.35233 0
M  V30 202 C 19.3872 -1.87999 -0.0615568 0
M  V30 203 O 18.7452 -1.48734 -1.03672 0
M  V30 204 C 18.7932 -2.86353 2.19167 0
M  V30 205 O 17.8972 -3.80442 1.59178 0
M  V30 206 H 17.2382 -0.476569 0.462362 0
M  V30 207 H 19.7682 -0.963853 1.80474 0
M  V30 208 H 19.7782 -3.35519 2.32145 0
M  V30 209 H 18.4532 -2.63299 3.21942 0
M  V30 210 H 17.0302 -3.39067 1.55203 0
M  V30 211 N 19.2153 -1.21501 -1.00376 0
M  V30 212 C 20.1253 -0.991447 -2.12621 0
M  V30 213 C 21.1413 0.0568446 -1.73907 0
M  V30 214 O 22.3173 -0.13348 -2.00957 0
M  V30 215 C 19.3823 -0.560312 -3.42142 0
M  V30 216 C 18.4433 -1.68096 -3.95022 0
M  V30 217 C 17.6763 -1.2703 -5.18362 0
M  V30 218 O 17.8993 -0.144438 -5.70217 0
M  V30 219 O 16.8333 -2.08269 -5.64719 0
M  V30 220 H 20.6593 -1.93158 -2.34358 0
M  V30 221 H 18.2443 -0.999999 -1.10997 0
M  V30 222 H 20.1263 -0.329724 -4.20108 0
M  V30 223 H 18.8013 0.351089 -3.2179 0
M  V30 224 H 17.7083 -1.96597 -3.18278 0
M  V30 225 H 19.0413 -2.56983 -4.19786 0
M  V30 226 N 20.6934 1.19889 -1.02296 0
M  V30 227 C 22.1094 1.41462 -0.738954 0
M  V30 228 C 22.3094 1.89721 0.678846 0
M  V30 229 O 21.3654 2.07016 1.4457 0
M  V30 230 C 22.6784 2.43083 -1.77005 0
M  V30 231 C 24.2264 2.5684 -1.78892 0
M  V30 232 C 24.7014 3.61709 -2.80945 0
M  V30 233 N 26.1924 3.69199 -2.79725 0
M  V30 234 C 26.9274 4.50019 -3.55345 0
M  V30 235 N 26.4234 5.34592 -4.40662 0
M  V30 236 N 28.2164 4.44612 -3.43914 0
M  V30 237 H 20.3674 0.868827 -1.93817 0
M  V30 238 H 22.6304 0.44399 -0.837602 0
M  V30 239 H 22.3364 2.14636 -2.78612 0
M  V30 240 H 22.2104 3.4217 -1.58744 0
M  V30 241 H 24.5974 2.84614 -0.779674 0
M  V30 242 H 24.6784 1.57927 -2.01228 0
M  V30 243 H 24.3224 3.34678 -3.82038 0
M  V30 244 H 24.2524 4.60259 -2.5587 0
M  V30 245 H 26.7434 3.08794 -2.17842 0
M  V30 246 H 27.0564 5.93363 -4.95116 0
M  V30 247 H 25.4014 5.34073 -4.44737 0
M  V30 248 H 28.5924 3.7758 -2.76679 0
M  V30 249 H 28.7654 5.0736 -4.031 0
M  V30 250 N 22.1715 0.800033 1.35784 0
M  V30 251 C 23.3995 0.389606 2.03199 0
M  V30 252 C 23.8145 -0.997375 1.60306 0
M  V30 253 O 23.1715 -1.64154 0.797481 0
M  V30 254 C 23.2225 0.455855 3.58614 0
M  V30 255 O 22.9435 1.78815 3.99946 0
M  V30 256 C 24.4445 0.0374032 4.43284 0
M  V30 257 H 21.6645 0.159132 0.651857 0
M  V30 258 H 24.2085 1.08183 1.73541 0
M  V30 259 H 22.3635 -0.188057 3.86943 0
M  V30 260 H 22.7775 1.74636 4.94573 0
M  V30 261 H 24.2515 0.134882 5.51835 0
M  V30 262 H 24.7285 -1.01651 4.27275 0
M  V30 263 H 25.3345 0.654215 4.20238 0
M  V30 264 N 23.6496 -1.47581 0.552962 0
M  V30 265 C 24.8746 -2.07378 0.0300593 0
M  V30 266 C 25.2996 -1.40355 -1.25229 0
M  V30 267 O 24.6576 -0.477099 -1.7491 0
M  V30 268 C 24.7056 -3.60274 -0.153231 0
M  V30 269 O 23.8096 -3.94041 -1.21678 0
M  V30 270 H 23.1506 -0.662158 0.0494182 0
M  V30 271 H 25.6806 -1.89662 0.767434 0
M  V30 272 H 25.6906 -4.0633 -0.368761 0
M  V30 273 H 24.3656 -4.08455 0.783397 0
M  V30 274 H 22.9426 -3.59735 -0.982079 0
M  V30 275 N 25.1277 -0.289203 -1.54924 0
M  V30 276 C 26.3747 0.323519 -1.99899 0
M  V30 277 C 26.7027 1.54797 -1.17762 0
M  V30 278 O 25.9577 1.94237 -0.238835 0
M  V30 279 C 26.2567 0.736119 -3.49737 0
M  V30 280 C 25.9227 -0.385276 -4.49251 0
M  V30 281 C 24.5847 -0.693156 -4.76181 0
M  V30 282 C 26.9367 -1.14021 -5.08575 0
M  V30 283 C 24.2647 -1.7593 -5.59701 0
M  V30 284 C 26.6167 -2.19619 -5.93254 0
M  V30 285 C 25.2807 -2.51026 -6.185 0
M  V30 286 H 24.5507 0.118384 -0.731482 0
M  V30 287 H 27.1977 -0.405847 -1.8715 0
M  V30 288 H 25.5027 1.54539 -3.60035 0
M  V30 289 H 27.1997 1.22118 -3.81953 0
M  V30 290 H 23.7897 -0.135202 -4.28387 0
M  V30 291 H 27.9737 -0.915611 -4.87781 0
M  V30 292 H 23.2297 -2.0075 -5.77503 0
M  V30 293 H 27.4037 -2.78581 -6.38252 0
M  V30 294 H 25.0307 -3.33772 -6.83008 0
M  V30 295 N 26.6058 1.57591 -0.0167156 0
M  V30 296 C 27.5538 2.10604 0.987353 0
M  V30 297 C 28.5478 1.02977 1.34507 0
M  V30 298 O 29.7538 1.21425 1.32875 0
M  V30 299 H 26.1288 0.672695 0.336134 0
M  V30 300 H 28.0998 2.93925 0.514817 0
M  V30 301 C 26.8488 2.6382 2.26483 0
M  V30 302 H 26.1718 3.46278 1.99829 0
M  V30 303 H 27.6118 3.04573 2.94977 0
M  V30 304 C 26.0708 1.55992 2.9861 0
M  V30 305 O 26.6008 0.952521 3.90243 0
M  V30 306 N 24.8068 1.28335 2.60727 0
M  V30 307 H 24.3538 1.77914 1.86291 0
M  V30 308 H 24.3118 0.564115 3.09298 0
M  V30 309 N 28.0839 -0.256276 1.55502 0
M  V30 310 C 29.3139 -1.00196 1.80677 0
M  V30 311 C 29.7219 -1.79805 0.588797 0
M  V30 312 O 29.0649 -1.78055 -0.451883 0
M  V30 313 C 29.1269 -1.99515 2.99055 0
M  V30 314 C 28.7909 -1.38688 4.35448 0
M  V30 315 C 29.7879 -0.794079 5.138 0
M  V30 316 C 27.4729 -1.40906 4.82132 0
M  V30 317 C 29.4669 -0.231562 6.36979 0
M  V30 318 C 27.1539 -0.842684 6.05262 0
M  V30 319 C 28.1519 -0.254953 6.82524 0
M  V30 320 O 27.8399 0.3027 8.0333 0
M  V30 321 H 27.5719 -0.300919 0.60533 0
M  V30 322 H 30.1259 -0.287307 2.03381 0
M  V30 323 H 28.3559 -2.74785 2.72084 0
M  V30 324 H 30.0449 -2.60349 3.11405 0
M  V30 325 H 30.8109 -0.769519 4.78856 0
M  V30 326 H 26.6899 -1.85591 4.21992 0
M  V30 327 H 30.2339 0.227816 6.97228 0
M  V30 328 H 26.1309 -0.86454 6.39684 0
M  V30 329 H 26.8989 0.193662 8.18271 0
M  V30 330 N 29.562 -1.4872 -0.521534 0
M  V30 331 C 30.525 -1.63379 -1.60748 0
M  V30 332 C 31.525 -0.50661 -1.52611 0
M  V30 333 O 32.715 -0.772601 -1.5613 0
M  V30 334 C 29.847 -1.61192 -3.00383 0
M  V30 335 H 31.04 -2.60217 -1.49087 0
M  V30 336 H 28.593 -1.37444 -0.744235 0
M  V30 337 H 29.328 -0.65863 -3.17541 0
M  V30 338 H 29.113 -2.43032 -3.07698 0
M  V30 339 H 30.603 -1.7466 -3.7932 0
M  V30 340 N 31.0401 0.771051 -1.3745 0
M  V30 341 C 31.9731 1.89166 -1.27638 0
M  V30 342 C 32.9511 1.61842 -0.156782 0
M  V30 343 O 34.1351 1.85569 -0.331111 0
M  V30 344 C 31.2621 3.24405 -0.973621 0
M  V30 345 C 30.3081 3.70638 -2.1102 0
M  V30 346 S 31.1411 3.84228 -3.73 0
M  V30 347 C 32.2971 5.22313 -3.44876 0
M  V30 348 H 32.5301 1.972 -2.22485 0
M  V30 349 H 30.0631 0.932224 -1.23081 0
M  V30 350 H 32.0211 4.02514 -0.805766 0
M  V30 351 H 30.6821 3.14071 -0.0426279 0
M  V30 352 H 29.8751 4.68685 -1.85338 0
M  V30 353 H 29.4771 2.99632 -2.23822 0
M  V30 354 H 31.7691 6.07505 -2.99908 0
M  V30 355 H 32.7121 5.53008 -4.42253 0
M  V30 356 H 33.1201 4.90284 -2.79789 0
M  V30 357 N 32.5182 1.22032 0.997298 0
M  V30 358 C 33.4652 0.986467 2.08656 0
M  V30 359 C 34.4352 -0.0902671 1.65855 0
M  V30 360 O 35.6202 0.0584294 1.90711 0
M  V30 361 C 32.7602 0.565569 3.40434 0
M  V30 362 C 31.8732 1.71259 3.96604 0
M  V30 363 C 31.0082 1.24011 5.16522 0
M  V30 364 C 30.0472 2.35896 5.64818 0
M  V30 365 N 29.1842 1.89726 6.7598 0
M  V30 366 H 34.0242 1.91892 2.27994 0
M  V30 367 H 31.5612 0.956199 1.11782 0
M  V30 368 H 33.5192 0.302738 4.161 0
M  V30 369 H 32.1492 -0.329879 3.2111 0
M  V30 370 H 31.2012 2.08986 3.17851 0
M  V30 371 H 32.5132 2.55436 4.28432 0
M  V30 372 H 31.6672 0.934395 5.99461 0
M  V30 373 H 30.4062 0.368487 4.86306 0
M  V30 374 H 29.4112 2.67261 4.8047 0
M  V30 375 H 30.6362 3.23567 5.97061 0
M  V30 376 H 28.5822 1.0492 6.47555 0
M  V30 377 H 28.4992 2.67471 7.07103 0
M  V30 378 H 29.7672 1.62211 7.62435 0
M  V30 379 N 33.9963 -1.19345 1.0293 0
M  V30 380 C 34.9063 -2.26245 0.620515 0
M  V30 381 C 35.9223 -1.70486 -0.347928 0
M  V30 382 O 37.0983 -2.00347 -0.205704 0
M  V30 383 C 34.1633 -3.46693 -0.0218957 0
M  V30 384 C 33.2243 -4.17632 0.994102 0
M  V30 385 C 32.4573 -5.32329 0.382253 0
M  V30 386 O 32.6803 -5.64552 -0.814676 0
M  V30 387 O 31.6143 -5.91664 1.10531 0
M  V30 388 H 35.4403 -2.63453 1.51083 0
M  V30 389 H 33.0253 -1.26207 0.799513 0
M  V30 390 H 34.9073 -4.19683 -0.380072 0
M  V30 391 H 33.5823 -3.11333 -0.886209 0
M  V30 392 H 32.4893 -3.4676 1.40387 0
M  V30 393 H 33.8223 -4.56964 1.8288 0
M  V30 394 N 35.4744 -0.807222 -1.35358 0
M  V30 395 C 36.4374 -0.223665 -2.28106 0
M  V30 396 C 37.4374 0.589354 -1.4961 0
M  V30 397 O 38.6274 0.407745 -1.69361 0
M  V30 398 C 35.7594 0.688149 -3.33882 0
M  V30 399 H 36.9524 -1.04169 -2.81227 0
M  V30 400 H 34.5054 -0.577921 -1.45223 0
M  V30 401 H 35.2404 1.52984 -2.85948 0
M  V30 402 H 35.0254 0.10687 -3.91954 0
M  V30 403 H 36.5154 1.09075 -4.03104 0
M  V30 404 N 36.9525 1.47285 -0.560781 0
M  V30 405 C 37.9155 2.28535 0.174488 0
M  V30 406 C 38.9155 1.37153 0.839388 0
M  V30 407 O 40.1055 1.59748 0.694702 0
M  V30 408 C 37.2375 3.16934 1.25561 0
M  V30 409 H 38.4305 2.95012 -0.539262 0
M  V30 410 H 35.9835 1.53034 -0.317865 0
M  V30 411 H 36.7185 2.55157 2.00164 0
M  V30 412 H 36.5035 3.8419 0.783604 0
M  V30 413 H 37.9935 3.78143 1.77193 0
M  V30 414 N 38.4306 0.297415 1.54768 0
M  V30 415 C 39.3936 -0.567375 2.22066 0
M  V30 416 C 40.3936 -1.06409 1.20556 0
M  V30 417 O 41.5836 -0.960691 1.45315 0
M  V30 418 C 38.7156 -1.78517 2.90421 0
M  V30 419 H 39.9086 0.0205534 2.99893 0
M  V30 420 H 37.4616 0.0482163 1.56226 0
M  V30 421 H 38.1966 -2.41303 2.16664 0
M  V30 422 H 37.9816 -1.43669 3.64831 0
M  V30 423 H 39.4716 -2.39964 3.41771 0
M  V30 424 N 39.9087 -1.5758 0.0250728 0
M  V30 425 C 40.8717 -2.08896 -0.943139 0
M  V30 426 C 41.8717 -1.00321 -1.25668 0
M  V30 427 O 43.0617 -1.26495 -1.19769 0
M  V30 428 C 40.1937 -2.55143 -2.26086 0
M  V30 429 H 41.3867 -2.95723 -0.498775 0
M  V30 430 H 38.9397 -1.54703 -0.222888 0
M  V30 431 H 39.6747 -1.71633 -2.75159 0
M  V30 432 H 39.4597 -3.34461 -2.04641 0
M  V30 433 H 40.9497 -2.95083 -2.95492 0
M  V30 434 N 41.3868 0.248026 -1.55636 0
M  V30 435 C 42.3498 1.29044 -1.89421 0
M  V30 436 C 43.3498 1.41134 -0.770581 0
M  V30 437 O 44.5398 1.39854 -1.03858 0
M  V30 438 C 41.6718 2.66831 -2.12165 0
M  V30 439 H 42.8648 1.00305 -2.82629 0
M  V30 440 H 40.4178 0.487265 -1.48511 0
M  V30 441 H 41.1528 3.00711 -1.21422 0
M  V30 442 H 40.9378 2.59438 -2.93997 0
M  V30 443 H 42.4278 3.42103 -2.3949 0
M  V30 444 N 42.8649 1.48995 0.513639 0
M  V30 445 C 43.7949 1.67636 1.62544 0
M  V30 446 C 44.7759 0.525087 1.61793 0
M  V30 447 O 45.9609 0.759502 1.78732 0
M  V30 448 C 43.0909 1.73114 3.01079 0
M  V30 449 C 42.0449 2.87905 3.16693 0
M  V30 450 C 41.3709 2.78486 4.56453 0
M  V30 451 C 42.6709 4.29005 2.97913 0
M  V30 452 H 44.3649 2.60716 1.47198 0
M  V30 453 H 41.9109 1.25465 0.706714 0
M  V30 454 H 43.8639 1.84742 3.78746 0
M  V30 455 H 42.5879 0.766241 3.17484 0
M  V30 456 H 41.2469 2.75859 2.41448 0
M  V30 457 H 40.8949 1.7993 4.69717 0
M  V30 458 H 40.5949 3.55523 4.67843 0
M  V30 459 H 42.1189 2.92104 5.36197 0
M  V30 460 H 43.5329 4.41798 3.65359 0
M  V30 461 H 41.9299 5.07166 3.20785 0
M  V30 462 H 42.9999 4.44329 1.94165 0
M  V30 463 N 44.343 -0.763751 1.37857 0
M  V30 464 C 45.29 -1.87726 1.34267 0
M  V30 465 C 46.26 -1.64807 0.206879 0
M  V30 466 O 47.445 -1.86613 0.397508 0
M  V30 467 C 44.585 -3.24896 1.16346 0
M  V30 468 C 43.698 -3.59716 2.39225 0
M  V30 469 C 42.833 -4.86137 2.14114 0
M  V30 470 C 41.872 -5.13711 3.32817 0
M  V30 471 N 41.009 -6.31323 3.07206 0
M  V30 472 H 45.849 -1.90129 2.29466 0
M  V30 473 H 43.386 -0.929433 1.14017 0
M  V30 474 H 45.344 -4.04036 1.03975 0
M  V30 475 H 43.974 -3.21847 0.247909 0
M  V30 476 H 43.026 -2.75498 2.62307 0
M  V30 477 H 44.338 -3.76027 3.27728 0
M  V30 478 H 43.492 -5.73198 1.9882 0
M  V30 479 H 42.231 -4.71945 1.22961 0
M  V30 480 H 41.236 -4.25123 3.48641 0
M  V30 481 H 42.461 -5.29807 4.24832 0
M  V30 482 H 40.407 -6.18474 2.1869 0
M  V30 483 H 40.324 -6.48087 3.89254 0
M  V30 484 H 41.592 -7.213 2.95546 0
M  V30 485 N 45.8211 -1.22559 -0.990812 0
M  V30 486 C 46.7681 -0.997519 -2.0813 0
M  V30 487 C 47.7381 0.0814702 -1.659 0
M  V30 488 O 48.9231 -0.0685424 -1.90677 0
M  V30 489 C 46.0631 -0.583615 -3.40129 0
M  V30 490 C 45.1761 -1.7336 -3.9569 0
M  V30 491 C 44.3111 -1.26748 -5.15857 0
M  V30 492 C 43.3501 -2.38888 -5.63559 0
M  V30 493 N 42.4871 -1.93308 -6.74964 0
M  V30 494 H 47.3271 -1.93099 -2.26973 0
M  V30 495 H 44.8641 -0.962114 -1.11273 0
M  V30 496 H 46.8221 -0.324801 -4.15934 0
M  V30 497 H 45.4521 0.312845 -3.2128 0
M  V30 498 H 44.5041 -2.10669 -3.16738 0
M  V30 499 H 45.8161 -2.57704 -4.27071 0
M  V30 500 H 44.9701 -0.966173 -5.98957 0
M  V30 501 H 43.7091 -0.394272 -4.86104 0
M  V30 502 H 42.7141 -2.69805 -4.79046 0
M  V30 503 H 43.9391 -3.26728 -5.95336 0
M  V30 504 H 41.8851 -1.08352 -6.4699 0
M  V30 505 H 41.8021 -2.71217 -7.05675 0
M  V30 506 H 43.0701 -1.66252 -7.61564 0
M  V30 507 N 47.2992 1.18797 -1.03562 0
M  V30 508 C 48.2462 2.22253 -0.622259 0
M  V30 509 C 49.2162 1.61987 0.36736 0
M  V30 510 O 50.4012 1.88986 0.262492 0
M  V30 511 C 47.5412 3.45097 0.0138462 0
M  V30 512 C 46.6542 4.19722 -1.02263 0
M  V30 513 C 45.7892 5.30009 -0.355573 0
M  V30 514 C 44.8282 5.96399 -1.37749 0
M  V30 515 N 43.9652 6.98234 -0.735766 0
M  V30 516 H 48.8052 2.56968 -1.50903 0
M  V30 517 H 46.3422 1.26245 -0.755017 0
M  V30 518 H 48.3002 4.15279 0.399948 0
M  V30 519 H 46.9302 3.11018 0.864158 0
M  V30 520 H 45.9822 3.48418 -1.52673 0
M  V30 521 H 47.2942 4.65227 -1.79903 0
M  V30 522 H 46.4482 6.0664 0.0850095 0
M  V30 523 H 45.1872 4.85592 0.452967 0
M  V30 524 H 44.1922 5.18512 -1.82826 0
M  V30 525 H 45.4172 6.42899 -2.18764 0
M  V30 526 H 43.3632 6.55979 0.0525597 0
M  V30 527 H 43.2802 7.41965 -1.44995 0
M  V30 528 H 44.5482 7.78845 -0.31941 0
M  V30 529 N 48.7773 0.814389 1.34928 0
M  V30 530 C 50.0253 0.397636 1.9815 0
M  V30 531 C 50.3463 -1.04069 1.64908 0
M  V30 532 O 49.6163 -1.72121 0.93548 0
M  V30 533 H 48.1963 0.144043 0.732981 0
M  V30 534 H 50.8583 1.04195 1.6471 0
M  V30 535 H 49.9543 0.509688 3.0791 0
M  V30 536 N 50.2554 -1.46986 0.568584 0
M  V30 537 C 51.5014 -2.0332 0.0571487 0
M  V30 538 C 51.8564 -1.43384 -1.28291 0
M  V30 539 O 51.1494 -0.584304 -1.82473 0
M  V30 540 C 51.3434 -3.57306 -0.081836 0
M  V30 541 C 51.1724 -4.32174 1.24321 0
M  V30 542 C 49.9424 -4.71633 1.81358 0
M  V30 543 C 52.1404 -4.66598 2.16312 0
M  V30 544 N 50.1224 -5.31191 3.07748 0
M  V30 545 C 51.4934 -5.26578 3.27285 0
M  V30 546 C 53.5484 -4.48527 2.16166 0
M  V30 547 C 52.2514 -5.70395 4.38226 0
M  V30 548 C 54.2774 -4.93351 3.26127 0
M  V30 549 C 53.6394 -5.5339 4.3582 0
M  V30 550 H 49.7384 -0.77943 0.063351 0
M  V30 551 H 52.3224 -1.79323 0.758378 0
M  V30 552 H 50.4934 -3.81046 -0.752207 0
M  V30 553 H 52.2254 -4.00282 -0.59637 0
M  V30 554 H 48.9804 -4.53946 1.35019 0
M  V30 555 H 49.4044 -5.65505 3.72201 0
M  V30 556 H 54.0464 -4.01456 1.32638 0
M  V30 557 H 51.7644 -6.16452 5.22506 0
M  V30 558 H 55.3504 -4.81131 3.27115 0
M  V30 559 H 54.2304 -5.87441 5.19503 0
M  V30 560 N 51.7335 -0.305618 -1.54608 0
M  V30 561 C 52.6435 0.57778 -2.27374 0
M  V30 562 C 53.6595 1.14451 -1.31061 0
M  V30 563 O 54.8355 1.16831 -1.6405 0
M  V30 564 C 51.9005 1.73123 -3.00382 0
M  V30 565 C 50.9615 1.19812 -4.12242 0
M  V30 566 C 50.1945 2.2966 -4.81759 0
M  V30 567 O 50.4175 3.49651 -4.50666 0
M  V30 568 O 49.3515 1.96091 -5.69062 0
M  V30 569 H 53.1775 -0.012624 -3.03697 0
M  V30 570 H 50.7625 -0.0719184 -1.49227 0
M  V30 571 H 52.6445 2.40315 -3.4616 0
M  V30 572 H 51.3195 2.30815 -2.26949 0
M  V30 573 H 50.2265 0.491798 -3.70853 0
M  V30 574 H 51.5595 0.666566 -4.87666 0
M  V30 575 N 53.2116 1.57565 -0.0334293 0
M  V30 576 C 54.4576 1.92262 0.645226 0
M  V30 577 C 54.7906 0.910543 1.71531 0
M  V30 578 O 54.0656 -0.066099 1.94388 0
M  V30 579 C 54.3486 3.37422 1.2577 0
M  V30 580 C 54.2016 4.49369 0.196891 0
M  V30 581 C 55.5206 3.82628 2.17449 0
M  V30 582 H 52.6396 0.699171 0.233085 0
M  V30 583 H 55.2816 1.89779 -0.0915694 0
M  V30 584 H 53.4316 3.39669 1.88566 0
M  V30 585 H 55.1036 4.59254 -0.433962 0
M  V30 586 H 53.3466 4.31168 -0.477137 0
M  V30 587 H 54.0176 5.47978 0.665124 0
M  V30 588 H 56.4936 3.82145 1.64634 0
M  V30 589 H 55.3696 4.84883 2.57254 0
M  V30 590 H 55.6306 3.18376 3.0674 0
M  V30 591 N 54.6897 -0.239769 1.55765 0
M  V30 592 C 55.9357 -0.968234 1.78194 0
M  V30 593 C 56.2687 -1.84701 0.599938 0
M  V30 594 O 55.5437 -1.9031 -0.401524 0
M  V30 595 C 55.8267 -1.8227 3.10564 0
M  V30 596 C 55.6797 -0.971633 4.3918 0
M  V30 597 C 56.9987 -2.80388 3.39221 0
M  V30 598 H 54.1177 -0.350572 0.648281 0
M  V30 599 H 56.7597 -0.238259 1.885 0
M  V30 600 H 54.9097 -2.44507 3.01908 0
M  V30 601 H 56.5817 -0.367408 4.59835 0
M  V30 602 H 54.8247 -0.276276 4.32919 0
M  V30 603 H 55.4957 -1.60346 5.28198 0
M  V30 604 H 57.9717 -2.28287 3.47885 0
M  V30 605 H 56.8477 -3.3729 4.33044 0
M  V30 606 H 57.1087 -3.57212 2.60484 0
M  V30 607 N 56.1678 -1.49265 -0.50573 0
M  V30 608 C 57.0778 -1.68312 -1.63427 0
M  V30 609 C 58.0938 -0.565682 -1.64548 0
M  V30 610 O 59.2698 -0.839801 -1.83055 0
M  V30 611 C 56.3348 -1.74107 -2.99813 0
M  V30 612 C 55.3958 -2.97653 -3.09356 0
M  V30 613 C 54.6288 -3.03163 -4.39236 0
M  V30 614 O 54.8518 -2.16396 -5.27758 0
M  V30 615 O 53.7858 -3.9558 -4.53652 0
M  V30 616 H 57.6118 -2.63907 -1.50289 0
M  V30 617 H 55.1968 -1.32951 -0.681502 0
M  V30 618 H 57.0788 -1.803 -3.80881 0
M  V30 619 H 55.7538 -0.816901 -3.13223 0
M  V30 620 H 54.6608 -2.96981 -2.27493 0
M  V30 621 H 55.9938 -3.89535 -3.00871 0
M  V30 622 N 57.6459 0.756429 -1.3826 0
M  V30 623 C 58.8709 1.55077 -1.37717 0
M  V30 624 C 59.2959 1.88073 0.03164 0
M  V30 625 O 58.6539 1.50364 1.01293 0
M  V30 626 C 58.7019 2.8283 -2.23695 0
M  V30 627 O 57.8059 3.77862 -1.6521 0
M  V30 628 H 57.1469 0.469152 -0.469885 0
M  V30 629 H 59.6769 0.935019 -1.81985 0
M  V30 630 H 59.6869 3.31783 -2.37453 0
M  V30 631 H 58.3619 2.58144 -3.2609 0
M  V30 632 H 56.9389 3.36555 -1.60578 0
M  V30 633 N 59.124 1.23083 0.984299 0
M  V30 634 C 60.401 0.9689 1.69917 0
M  V30 635 C 60.781 -0.513604 2.04757 0
M  V30 636 O 60.129 -1.48383 1.73767 0
M  V30 637 C 60.339 1.87518 2.94343 0
M  V30 638 C 61.687 2.13636 3.6694 0
M  V30 639 O 62.711 1.85036 3.04368 0
M  V30 640 O 61.57 2.62119 4.79537 0
M  V30 641 H 58.664 0.365095 0.742048 0
M  V30 642 H 61.21 1.34107 1.03987 0
M  V30 643 H 59.982 2.87756 2.65164 0
M  V30 644 H 59.605 1.50514 3.6801 0
M  V30 645 N 60.6021 -1.18246 1.0419 0
M  V30 646 C 61.5321 -2.24127 0.654914 0
M  V30 647 C 62.5131 -1.66617 -0.342451 0
M  V30 648 O 63.6981 -1.92924 -0.222277 0
M  V30 649 C 60.8281 -3.47295 0.0183757 0
M  V30 650 C 59.7821 -4.17563 0.939414 0
M  V30 651 C 59.1081 -5.34438 0.167286 0
M  V30 652 C 60.4081 -4.70917 2.25908 0
M  V30 653 H 62.1021 -2.56753 1.54007 0
M  V30 654 H 59.6481 -1.23414 0.74195 0
M  V30 655 H 61.6011 -4.20572 -0.264082 0
M  V30 656 H 60.3251 -3.13907 -0.901664 0
M  V30 657 H 58.9841 -3.46186 1.20628 0
M  V30 658 H 58.6321 -4.97298 -0.7552 0
M  V30 659 H 58.3321 -5.82388 0.780901 0
M  V30 660 H 59.8561 -6.10504 -0.108125 0
M  V30 661 H 61.2701 -5.35882 2.03724 0
M  V30 662 H 59.6671 -5.29406 2.82577 0
M  V30 663 H 60.7371 -3.88272 2.9047 0
M  V30 664 N 62.0802 -0.821533 -1.34494 0
M  V30 665 C 63.3102 -0.421272 -2.02259 0
M  V30 666 C 63.7182 0.977047 -1.6202 0
M  V30 667 O 63.0612 1.64348 -0.820703 0
M  V30 668 C 63.1232 -0.44231 -3.56769 0
M  V30 669 C 62.7872 -1.79372 -4.20327 0
M  V30 670 C 63.7842 -2.75435 -4.40944 0
M  V30 671 C 61.4692 -2.08182 -4.57127 0
M  V30 672 C 63.4632 -3.98482 -4.97484 0
M  V30 673 C 61.1502 -3.31489 -5.13379 0
M  V30 674 C 62.1482 -4.26457 -5.33501 0
M  V30 675 O 61.8362 -5.47585 -5.88562 0
M  V30 676 H 61.5682 -0.167473 -0.654927 0
M  V30 677 H 64.1222 -1.11073 -1.72777 0
M  V30 678 H 62.3522 0.303836 -3.85505 0
M  V30 679 H 64.0412 -0.0622925 -4.05852 0
M  V30 680 H 64.8072 -2.54473 -4.12878 0
M  V30 681 H 60.6862 -1.35066 -4.4077 0
M  V30 682 H 64.2302 -4.72618 -5.13106 0
M  V30 683 H 60.1272 -3.52316 -5.40873 0
M  V30 684 H 60.8952 -5.49086 -6.06998 0
M  V30 685 N 63.5583 1.46682 -0.576371 0
M  V30 686 C 64.5213 2.28707 0.150239 0
M  V30 687 C 65.5213 1.38035 0.824794 0
M  V30 688 O 66.7113 1.60476 0.677719 0
M  V30 689 C 63.8433 3.18248 1.22192 0
M  V30 690 H 65.0363 2.94423 -0.570521 0
M  V30 691 H 62.5893 1.52688 -0.334078 0
M  V30 692 H 63.3243 2.57265 1.97447 0
M  V30 693 H 63.1093 3.85 0.742812 0
M  V30 694 H 64.5993 3.80001 1.73172 0
M  V30 695 N 65.0364 0.313813 1.54444 0
M  V30 696 C 65.9694 -0.598866 2.20202 0
M  V30 697 C 66.9474 -1.12318 1.17573 0
M  V30 698 O 68.1314 -1.18899 1.46271 0
M  V30 699 C 65.2584 -1.82071 2.85601 0
M  V30 700 C 64.3044 -1.42851 4.01865 0
M  V30 701 S 65.1374 -0.473512 5.33402 0
M  V30 702 C 66.2934 -1.70286 6.0229 0
M  V30 703 H 66.5264 -0.0402532 2.97273 0
M  V30 704 H 64.0594 0.0979165 1.54089 0
M  V30 705 H 66.0174 -2.52184 3.23904 0
M  V30 706 H 64.6784 -2.3505 2.08351 0
M  V30 707 H 63.8714 -2.33871 4.46453 0
M  V30 708 H 63.4734 -0.807198 3.65185 0
M  V30 709 H 65.7654 -2.64168 6.23876 0
M  V30 710 H 66.7084 -1.29932 6.96077 0
M  V30 711 H 67.1164 -1.88541 5.32083 0
M  V30 712 N 66.5145 -1.57545 0.0417849 0
M  V30 713 C 67.4625 -2.12148 -0.953723 0
M  V30 714 C 68.4565 -1.05104 -1.32852 0
M  V30 715 O 69.6625 -1.23524 -1.30927 0
M  V30 716 H 66.0375 -0.677957 -0.325389 0
M  V30 717 H 68.0085 -2.94707 -0.467991 0
M  V30 718 C 66.7575 -2.6739 -2.22257 0
M  V30 719 H 66.0805 -3.49413 -1.94295 0
M  V30 720 H 67.5205 -3.09227 -2.90094 0
M  V30 721 C 65.9795 -1.60723 -2.96091 0
M  V30 722 O 66.5095 -1.01449 -3.88679 0
M  V30 723 N 64.7155 -1.32466 -2.58652 0
M  V30 724 H 64.2625 -1.80856 -1.83437 0
M  V30 725 H 64.2205 -0.61325 -3.08361 0
M  V30 726 N 67.9926 0.231505 -1.5589 0
M  V30 727 C 69.2396 0.957352 -1.78441 0
M  V30 728 C 69.5676 1.84726 -0.60882 0
M  V30 729 O 68.8226 1.91416 0.40725 0
M  V30 730 C 69.1216 1.83577 -3.0665 0
M  V30 731 C 68.7876 1.09993 -4.37278 0
M  V30 732 C 67.4496 0.896629 -4.72773 0
M  V30 733 C 69.8016 0.579558 -5.17968 0
M  V30 734 C 67.1296 0.160896 -5.86479 0
M  V30 735 C 69.4816 -0.142783 -6.32439 0
M  V30 736 C 68.1456 -0.357427 -6.66542 0
M  V30 737 H 67.4156 0.35032 -0.65296 0
M  V30 738 H 70.0626 0.226259 -1.90159 0
M  V30 739 H 68.3676 2.63441 -2.90011 0
M  V30 740 H 70.0646 2.39934 -3.21298 0
M  V30 741 H 66.6546 1.26835 -4.09403 0
M  V30 742 H 70.8386 0.724125 -4.90989 0
M  V30 743 H 66.0946 -0.0157293 -6.11398 0
M  V30 744 H 70.2686 -0.553559 -6.94196 0
M  V30 745 H 67.8956 -0.929466 -7.54497 0
M  V30 746 N 69.4707 1.49531 0.497807 0
M  V30 747 C 70.4187 1.66926 1.61983 0
M  V30 748 C 71.4127 0.535167 1.60724 0
M  V30 749 O 72.6187 0.714896 1.65195 0
M  V30 750 H 68.9937 0.526415 0.537021 0
M  V30 751 H 70.9647 2.61098 1.44465 0
M  V30 752 C 69.7137 1.75602 3.00099 0
M  V30 753 H 69.0367 2.62244 3.01775 0
M  V30 754 H 70.4767 1.91807 3.78135 0
M  V30 755 C 68.9357 0.501543 3.33146 0
M  V30 756 O 69.4657 -0.371342 3.9998 0
M  V30 757 N 67.6717 0.363531 2.88317 0
M  V30 758 H 67.2187 1.07485 2.34104 0
M  V30 759 H 67.1767 -0.474728 3.10795 0
M  V30 760 N 70.9488 -0.749086 1.3866 0
M  V30 761 C 72.3598 -1.32664 1.31366 0
M  V30 762 C 72.7108 -1.96179 -0.028484 0
M  V30 763 O 71.8358 -1.9537 -0.93057 0
M  V30 764 C 72.4308 -2.41219 2.37905 0
M  V30 765 C 70.9898 -2.94684 2.34176 0
M  V30 766 C 70.1368 -1.68108 2.20533 0
M  V30 767 H 73.0878 -0.547628 1.48952 0
M  V30 768 H 73.1088 -3.21268 2.0388 0
M  V30 769 H 72.6208 -1.94962 3.35576 0
M  V30 770 H 70.7218 -3.45258 1.401 0
M  V30 771 H 70.8348 -3.48757 3.2849 0
M  V30 772 H 69.1988 -1.91907 1.67463 0
M  V30 773 H 69.9818 -1.23923 3.20153 0
M  V30 774 N 72.4269 -1.23603 -0.977757 0
M  V30 775 C 73.6759 -1.06377 -1.71368 0
M  V30 776 C 73.9889 0.399062 -1.91486 0
M  V30 777 O 75.1949 0.691312 -2.62551 0
M  V30 778 C 73.6509 -1.85512 -3.08404 0
M  V30 779 C 73.2589 -3.36141 -2.96164 0
M  V30 780 C 75.0029 -1.76783 -3.85938 0
M  V30 781 C 72.9099 -4.07659 -4.28449 0
M  V30 782 H 71.8399 -0.394452 -0.642591 0
M  V30 783 H 74.4909 -1.47594 -1.09034 0
M  V30 784 H 72.8729 -1.37103 -3.71509 0
M  V30 785 H 74.0469 -3.92056 -2.42133 0
M  V30 786 H 72.3619 -3.45712 -2.32104 0
M  V30 787 H 74.9589 -2.27526 -4.83876 0
M  V30 788 H 75.3019 -0.731116 -4.0983 0
M  V30 789 H 75.8349 -2.22818 -3.2954 0
M  V30 790 H 72.5739 -5.11648 -4.09752 0
M  V30 791 H 72.0939 -3.5653 -4.82334 0
M  V30 792 H 73.7729 -4.141 -4.97122 0
M  V30 793 N 73.905 1.17692 -1.04816 0
M  V30 794 C 75.154 1.87192 -0.751132 0
M  V30 795 C 75.467 1.8169 0.724441 0
M  V30 796 O 76.673 2.46625 1.13527 0
M  V30 797 C 75.129 3.35857 -1.29338 0
M  V30 798 C 74.737 3.4987 -2.79812 0
M  V30 799 C 76.481 4.10709 -1.07322 0
M  V30 800 C 74.388 4.92536 -3.27356 0
M  V30 801 H 73.318 0.701162 -0.277288 0
M  V30 802 H 75.969 1.32932 -1.26496 0
M  V30 803 H 74.351 3.89631 -0.707376 0
M  V30 804 H 75.525 3.06332 -3.44235 0
M  V30 805 H 73.84 2.88433 -3.00325 0
M  V30 806 H 76.437 5.15952 -1.4035 0
M  V30 807 H 76.78 4.16299 -0.0108001 0
M  V30 808 H 77.313 3.6313 -1.62423 0
M  V30 809 H 74.052 4.92119 -4.33012 0
M  V30 810 H 73.572 5.3676 -2.67673 0
M  V30 811 H 75.251 5.61288 -3.21815 0
M  V30 812 N 75.3831 0.828654 1.34056 0
M  V30 813 C 76.6081 0.431637 2.02859 0
M  V30 814 C 77.0331 -0.956339 1.61975 0
M  V30 815 O 76.3911 -1.62338 0.807228 0
M  V30 816 C 76.4391 0.548323 3.56407 0
M  V30 817 O 75.5431 -0.429556 4.10157 0
M  V30 818 H 74.8841 0.176886 0.640006 0
M  V30 819 H 77.4141 1.12066 1.71179 0
M  V30 820 H 77.4241 0.426196 4.05768 0
M  V30 821 H 76.0991 1.5606 3.8551 0
M  V30 822 H 74.6761 -0.265836 3.71951 0
M  V30 823 N 76.8612 -1.46375 0.584142 0
M  V30 824 C 78.2772 -1.57694 0.245929 0
M  V30 825 C 78.4772 -1.57903 -1.25175 0
M  V30 826 O 77.5332 -1.49676 -2.03355 0
M  V30 827 C 78.8462 -2.87028 0.896402 0
M  V30 828 C 80.3942 -3.00662 0.870127 0
M  V30 829 C 80.8692 -4.32734 1.50017 0
M  V30 830 N 82.3602 -4.39436 1.46458 0
M  V30 831 C 83.0952 -5.40248 1.92144 0
M  V30 832 N 82.5912 -6.47726 2.4581 0
M  V30 833 N 84.3842 -5.31459 1.83052 0
M  V30 834 H 76.5352 -1.44483 1.55687 0
M  V30 835 H 78.7982 -0.689291 0.650831 0
M  V30 836 H 78.5042 -2.9269 1.95002 0
M  V30 837 H 78.3782 -3.75014 0.405486 0
M  V30 838 H 80.7652 -2.94581 -0.174871 0
M  V30 839 H 80.8462 -2.14148 1.39908 0
M  V30 840 H 80.4902 -4.39573 2.54437 0
M  V30 841 H 80.4202 -5.18025 0.946432 0
M  V30 842 H 82.9112 -3.62367 1.07231 0
M  V30 843 H 83.2242 -7.20863 2.78525 0
M  V30 844 H 81.5692 -6.48542 2.49836 0
M  V30 845 H 84.7602 -4.46396 1.40883 0
M  V30 846 H 84.9332 -6.09881 2.18973 0
M  V30 847 N 78.3393 -0.321999 -1.54275 0
M  V30 848 C 79.2863 0.544664 -2.24281 0
M  V30 849 C 80.2563 1.1129 -1.23303 0
M  V30 850 O 81.4413 1.15354 -1.51981 0
M  V30 851 C 78.5813 1.70045 -3.00298 0
M  V30 852 C 77.6943 1.16159 -4.1609 0
M  V30 853 C 76.8293 2.28293 -4.79641 0
M  V30 854 C 75.8683 1.71648 -5.8754 0
M  V30 855 N 75.0053 2.77438 -6.44959 0
M  V30 856 H 79.8453 -0.0588907 -2.97942 0
M  V30 857 H 77.3823 -0.0408345 -1.47043 0
M  V30 858 H 79.3403 2.38054 -3.42616 0
M  V30 859 H 77.9703 2.27531 -2.28975 0
M  V30 860 H 77.0223 0.373092 -3.78566 0
M  V30 861 H 78.3343 0.707087 -4.93763 0
M  V30 862 H 77.4883 3.0421 -5.2492 0
M  V30 863 H 76.2273 2.77079 -4.01346 0
M  V30 864 H 75.2323 0.942282 -5.41665 0
M  V30 865 H 76.4573 1.23741 -6.67731 0
M  V30 866 H 74.4033 3.25519 -5.69538 0
M  V30 867 H 74.3203 2.36547 -7.1804 0
M  V30 868 H 75.5883 3.53189 -6.94894 0
M  V30 869 N 79.8174 1.5752 -0.0501392 0
M  V30 870 C 81.0944 1.83996 0.663685 0
M  V30 871 C 81.4744 0.938339 1.89099 0
M  V30 872 O 80.8224 -0.00087759 2.285 0
M  V30 873 C 81.0324 3.33702 1.02196 0
M  V30 874 C 82.3804 4.00691 1.40469 0
M  V30 875 O 83.4044 3.38321 1.11433 0
M  V30 876 O 82.2634 5.10658 1.94654 0
M  V30 877 H 79.3574 0.759385 0.32751 0
M  V30 878 H 81.9034 1.69514 -0.0794238 0
M  V30 879 H 80.6754 3.91015 0.149364 0
M  V30 880 H 80.2984 3.53368 1.82255 0
M  V30 881 N 81.2955 -0.223234 1.56011 0
M  V30 882 C 82.5445 -0.945912 1.78144 0
M  V30 883 C 82.8575 -1.85567 0.618396 0
M  V30 884 O 84.0635 -2.61688 0.723318 0
M  V30 885 C 82.5195 -1.73216 3.15475 0
M  V30 886 C 82.1275 -0.868619 4.39499 0
M  V30 887 C 83.8715 -2.44615 3.46935 0
M  V30 888 C 81.7785 -1.65212 5.67855 0
M  V30 889 H 80.7085 -0.356929 0.664167 0
M  V30 890 H 83.3595 -0.199845 1.82409 0
M  V30 891 H 81.7415 -2.52107 3.05382 0
M  V30 892 H 82.9155 -0.120366 4.60643 0
M  V30 893 H 81.2305 -0.26683 4.15544 0
M  V30 894 H 83.8275 -3.03732 4.40058 0
M  V30 895 H 84.1705 -3.17417 2.69355 0
M  V30 896 H 84.7035 -1.72715 3.58349 0
M  V30 897 H 81.4425 -0.967407 6.48322 0
M  V30 898 H 80.9625 -2.37503 5.50774 0
M  V30 899 H 82.6415 -2.21322 6.07968 0
M  V30 900 N 82.7736 -1.49793 -0.48987 0
M  V30 901 C 84.0016 -1.63568 -1.26701 0
M  V30 902 C 84.4166 -0.311465 -1.86213 0
M  V30 903 O 83.7736 0.704416 -1.68357 0
M  V30 904 C 83.8246 -2.71284 -2.38929 0
M  V30 905 O 83.5456 -3.9857 -1.81861 0
M  V30 906 C 85.0466 -2.95864 -3.3012 0
M  V30 907 H 82.2666 -0.550342 -0.383881 0
M  V30 908 H 84.8106 -1.95898 -0.586864 0
M  V30 909 H 82.9656 -2.417 -3.02753 0
M  V30 910 H 83.3796 -4.57993 -2.55622 0
M  V30 911 H 84.8536 -3.74941 -4.05121 0
M  V30 912 H 85.3306 -2.06206 -3.87783 0
M  V30 913 H 85.9366 -3.26907 -2.72051 0
M  V30 914 N 84.2517 0.741722 -1.39055 0
M  V30 915 C 85.4997 1.49818 -1.35643 0
M  V30 916 C 85.8207 1.94938 0.0491642 0
M  V30 917 O 85.0907 1.68505 0.999141 0
M  V30 918 H 83.6707 0.555755 -0.499144 0
M  V30 919 H 86.3327 0.880957 -1.73854 0
M  V30 920 H 85.4287 2.38348 -2.01486 0
M  V30 921 N 85.7298 1.2412 0.971189 0
M  V30 922 C 86.6768 1.0305 2.06517 0
M  V30 923 C 87.6468 -0.0550666 1.66009 0
M  V30 924 O 88.8318 0.0988688 1.90544 0
M  V30 925 C 85.9718 0.637653 3.39158 0
M  V30 926 C 85.0848 1.79633 3.92882 0
M  V30 927 C 84.2198 1.34939 5.13775 0
M  V30 928 C 83.2588 2.47823 5.59687 0
M  V30 929 N 82.3958 2.04022 6.71803 0
M  V30 930 H 87.2358 1.96685 2.23873 0
M  V30 931 H 84.7728 0.979694 1.09729 0
M  V30 932 H 86.7308 0.390931 4.15364 0
M  V30 933 H 85.3608 -0.261693 3.21737 0
M  V30 934 H 84.4128 2.15681 3.13346 0
M  V30 935 H 85.7248 2.64466 4.22918 0
M  V30 936 H 84.8788 1.06134 5.97345 0
M  V30 937 H 83.6178 0.471557 4.85415 0
M  V30 938 H 82.6228 2.77392 4.74693 0
M  V30 939 H 83.8478 3.36158 5.90063 0
M  V30 940 H 81.7938 1.18632 6.45184 0
M  V30 941 H 81.7108 2.82409 7.01271 0
M  V30 942 H 82.9788 1.78347 7.58823 0
M  V30 943 N 87.2079 -1.17134 1.05439 0
M  V30 944 C 88.1379 -2.2342 0.678649 0
M  V30 945 C 89.1189 -1.66971 -0.32476 0
M  V30 946 O 90.3039 -1.93149 -0.201802 0
M  V30 947 C 87.4339 -3.47256 0.0552099 0
M  V30 948 C 86.3879 -4.16543 0.98365 0
M  V30 949 C 85.7139 -5.34231 0.223961 0
M  V30 950 C 87.0139 -4.68495 2.3089 0
M  V30 951 H 88.7079 -2.55105 1.56722 0
M  V30 952 H 86.2539 -1.2262 0.754998 0
M  V30 953 H 88.2069 -4.20828 -0.21946 0
M  V30 954 H 86.9309 -3.14846 -0.868319 0
M  V30 955 H 85.5899 -3.44887 1.24293 0
M  V30 956 H 85.2379 -4.98071 -0.702412 0
M  V30 957 H 84.9379 -5.81527 0.842627 0
M  V30 958 H 86.4619 -6.10585 -0.0433671 0
M  V30 959 H 87.8759 -5.33691 2.09396 0
M  V30 960 H 86.2729 -5.26379 2.88176 0
M  V30 961 H 87.3429 -3.85169 2.94572 0
M  V30 962 N 88.686 -0.835752 -1.33615 0
M  V30 963 C 89.633 -0.26473 -2.29277 0
M  V30 964 C 90.603 0.617712 -1.54187 0
M  V30 965 O 91.788 0.556641 -1.825 0
M  V30 966 C 88.928 0.556777 -3.40579 0
M  V30 967 C 88.041 -0.349339 -4.30585 0
M  V30 968 C 87.176 0.482969 -5.29 0
M  V30 969 C 86.215 -0.421732 -6.10645 0
M  V30 970 N 85.352 0.372262 -7.01112 0
M  V30 971 H 90.192 -1.08582 -2.77514 0
M  V30 972 H 87.729 -0.546927 -1.36554 0
M  V30 973 H 89.687 1.04852 -4.03809 0
M  V30 974 H 88.317 1.34286 -2.93542 0
M  V30 975 H 87.369 -0.959372 -3.68104 0
M  V30 976 H 88.681 -1.04445 -4.87742 0
M  V30 977 H 87.835 1.03866 -5.97743 0
M  V30 978 H 86.574 1.21153 -4.72412 0
M  V30 979 H 85.579 -0.989464 -5.40823 0
M  V30 980 H 86.804 -1.14861 -6.69316 0
M  V30 981 H 84.75 1.08426 -6.46977 0
M  V30 982 H 84.667 -0.264198 -7.55538 0
M  V30 983 H 85.935 0.910293 -7.74167 0
M  V30 984 N 90.1641 1.46063 -0.591896 0
M  V30 985 C 91.4411 1.95595 -0.0137119 0
M  V30 986 C 91.8211 1.5345 1.4497 0
M  V30 987 O 91.1691 0.789543 2.14426 0
M  V30 988 C 91.3791 3.48453 -0.195373 0
M  V30 989 C 92.7271 4.24546 -0.0679765 0
M  V30 990 O 93.7511 3.55982 -0.124681 0
M  V30 991 O 92.6101 5.46467 0.0600579 0
M  V30 992 H 89.7041 0.825795 0.0446279 0
M  V30 993 H 92.2501 1.56303 -0.660859 0
M  V30 994 H 91.0221 3.72045 -1.21235 0
M  V30 995 H 90.6451 3.94597 0.487775 0
M  V30 996 N 91.6422 0.330177 1.54103 0
M  V30 997 C 93.0532 -0.15652 1.86043 0
M  V30 998 C 93.4042 -1.51086 1.2517 0
M  V30 999 O 92.5292 -2.09023 0.560217 0
M  V30 1000 C 93.1242 -0.290784 3.3755 0
M  V30 1001 C 91.6832 -0.721705 3.69416 0
M  V30 1002 C 90.8302 0.152622 2.7688 0
M  V30 1003 H 93.7812 0.550237 1.48856 0
M  V30 1004 H 93.8022 -1.12058 3.63625 0
M  V30 1005 H 93.3142 0.695068 3.81825 0
M  V30 1006 H 91.4152 -1.71706 3.30678 0
M  V30 1007 H 91.5282 -0.520869 4.7626 0
M  V30 1008 H 89.8922 -0.372894 2.51956 0
M  V30 1009 H 90.6752 1.13536 3.23982 0
M  V30 1010 N 93.1203 -1.57491 0.0584922 0
M  V30 1011 C 94.0833 -2.1085 -0.898617 0
M  V30 1012 C 95.0833 -1.02964 -1.23511 0
M  V30 1013 O 96.2733 -1.29007 -1.17059 0
M  V30 1014 C 93.4053 -2.59881 -2.20623 0
M  V30 1015 H 94.5983 -2.96715 -0.435936 0
M  V30 1016 H 92.1513 -1.55141 -0.190023 0
M  V30 1017 H 92.8863 -1.77431 -2.71457 0
M  V30 1018 H 92.6713 -3.38727 -1.97501 0
M  V30 1019 H 94.1613 -3.01285 -2.89166 0
M  V30 1020 N 94.5984 0.214957 -1.56127 0
M  V30 1021 C 95.5464 1.28601 -1.93816 0
M  V30 1022 C 96.5404 1.48175 -0.821016 0
M  V30 1023 O 97.7464 1.49271 -1.0059 0
M  V30 1024 H 94.1214 0.431302 -0.616022 0
M  V30 1025 H 96.0924 0.940991 -2.83175 0
M  V30 1026 C 94.8414 2.62779 -2.27689 0
M  V30 1027 H 94.1644 2.48527 -3.13168 0
M  V30 1028 H 95.6044 3.36517 -2.57939 0
M  V30 1029 C 94.0634 3.18285 -1.10436 0
M  V30 1030 O 94.5934 4.00002 -0.368945 0
M  V30 1031 N 92.7994 2.7675 -0.886433 0
M  V30 1032 H 92.3464 2.10404 -1.48619 0
M  V30 1033 H 92.3044 3.14229 -0.103656 0
M  V30 1034 N 96.0765 1.50051 0.48192 0
M  V30 1035 C 97.3235 1.60498 1.23477 0
M  V30 1036 C 97.6515 0.300331 1.92167 0
M  V30 1037 O 96.9065 -0.713094 1.82246 0
M  V30 1038 C 97.2055 2.72717 2.30998 0
M  V30 1039 C 96.8715 4.13572 1.79636 0
M  V30 1040 C 95.5335 4.519 1.65348 0
M  V30 1041 C 97.8855 5.01649 1.41412 0
M  V30 1042 C 95.2135 5.76057 1.11244 0
M  V30 1043 C 97.5655 6.26343 0.887538 0
M  V30 1044 C 96.2295 6.63483 0.731207 0
M  V30 1045 H 95.4995 0.587303 0.451836 0
M  V30 1046 H 98.1465 1.83948 0.532468 0
M  V30 1047 H 96.4515 2.43312 3.07094 0
M  V30 1048 H 98.1485 2.78006 2.88988 0
M  V30 1049 H 94.7385 3.83329 1.91721 0
M  V30 1050 H 98.9225 4.72679 1.51289 0
M  V30 1051 H 94.1785 6.03516 0.978686 0
M  V30 1052 H 98.3525 6.93958 0.582654 0
M  V30 1053 H 95.9795 7.59568 0.309806 0
M  V30 1054 N 97.5546 -0.734337 1.39446 0
M  V30 1055 C 98.4866 -1.85861 1.34121 0
M  V30 1056 C 99.4996 -1.60871 0.249864 0
M  V30 1057 O 100.689 -1.71093 0.508865 0
M  V30 1058 C 97.7886 -3.21899 1.05991 0
M  V30 1059 C 96.9616 -3.74239 2.26415 0
M  V30 1060 C 96.0206 -4.88841 1.94733 0
M  V30 1061 O 95.0466 -5.02468 2.67422 0
M  V30 1062 N 96.2486 -5.73261 0.913884 0
M  V30 1063 H 99.0136 -1.90934 2.31007 0
M  V30 1064 H 96.5746 -0.915102 1.33557 0
M  V30 1065 H 98.5666 -3.96136 0.828147 0
M  V30 1066 H 97.1366 -3.12091 0.178361 0
M  V30 1067 H 96.3566 -2.91347 2.65539 0
M  V30 1068 H 97.6446 -4.05942 3.06738 0
M  V30 1069 H 97.0426 -5.64842 0.311476 0
M  V30 1070 H 95.5996 -6.47563 0.742015 0
M  V30 1071 N 99.0327 -1.24633 -0.964593 0
M  V30 1072 C 100.263 -1.11339 -1.74032 0
M  V30 1073 C 100.671 0.336593 -1.86182 0
M  V30 1074 O 100.014 1.24389 -1.35178 0
M  V30 1075 C 100.076 -1.68284 -3.1768 0
M  V30 1076 C 99.7397 -3.17196 -3.28992 0
M  V30 1077 C 100.737 -4.14308 -3.14078 0
M  V30 1078 C 98.4217 -3.57215 -3.53133 0
M  V30 1079 C 100.416 -5.4942 -3.23135 0
M  V30 1080 C 98.1027 -4.92468 -3.61827 0
M  V30 1081 C 99.1007 -5.8838 -3.46841 0
M  V30 1082 O 98.7887 -7.21173 -3.55197 0
M  V30 1083 H 98.5207 -0.389551 -0.552472 0
M  V30 1084 H 101.075 -1.65282 -1.21946 0
M  V30 1085 H 99.3047 -1.08777 -3.71085 0
M  V30 1086 H 100.994 -1.50234 -3.77074 0
M  V30 1087 H 101.76 -3.84731 -2.95308 0
M  V30 1088 H 97.6387 -2.83063 -3.63863 0
M  V30 1089 H 101.183 -6.24263 -3.11355 0
M  V30 1090 H 97.0797 -5.21714 -3.80111 0
M  V30 1091 H 97.8477 -7.29135 -3.71892 0
M  V30 1092 N 100.511 1.16574 -1.06058 0
M  V30 1093 C 101.922 1.68662 -0.800632 0
M  V30 1094 C 102.273 1.84184 0.67608 0
M  V30 1095 O 101.398 1.53568 1.52466 0
M  V30 1096 C 101.993 3.06356 -1.44676 0
M  V30 1097 C 100.552 3.55575 -1.23465 0
M  V30 1098 C 99.6988 2.31616 -1.52477 0
M  V30 1099 H 102.65 1.00969 -1.22438 0
M  V30 1100 H 102.671 3.70636 -0.860788 0
M  V30 1101 H 102.183 2.95027 -2.52152 0
M  V30 1102 H 100.284 3.72167 -0.179527 0
M  V30 1103 H 100.397 4.37812 -1.94571 0
M  V30 1104 H 98.7608 2.36512 -0.945209 0
M  V30 1105 H 99.5438 2.22887 -2.61106 0
M  V30 1106 N 101.989 0.842826 1.3317 0
M  V30 1107 C 102.952 0.284065 2.27433 0
M  V30 1108 C 103.952 -0.54948 1.5112 0
M  V30 1109 O 105.142 -0.362699 1.70382 0
M  V30 1110 C 102.274 -0.599384 3.35589 0
M  V30 1111 H 103.467 1.11589 2.78366 0
M  V30 1112 H 101.02 0.616221 1.4364 0
M  V30 1113 H 101.755 -1.45349 2.89904 0
M  V30 1114 H 101.54 -0.00291266 3.921 0
M  V30 1115 H 103.03 -0.983488 4.05854 0
M  V30 1116 N 103.467 -1.45747 0.599634 0
M  V30 1117 C 104.377 -2.34262 -0.125888 0
M  V30 1118 C 105.393 -1.50768 -0.868625 0
M  V30 1119 O 106.569 -1.83592 -0.828003 0
M  V30 1120 C 103.634 -3.28252 -1.11587 0
M  V30 1121 C 102.695 -4.27651 -0.375956 0
M  V30 1122 C 101.928 -5.1715 -1.31877 0
M  V30 1123 O 102.151 -5.09916 -2.55621 0
M  V30 1124 O 101.085 -5.96286 -0.820157 0
M  V30 1125 H 104.911 -2.97688 0.601315 0
M  V30 1126 H 102.496 -1.44999 0.359934 0
M  V30 1127 H 104.378 -3.86191 -1.68626 0
M  V30 1128 H 103.053 -2.67401 -1.82424 0
M  V30 1129 H 101.96 -3.7335 0.236698 0
M  V30 1130 H 103.293 -4.91334 0.29177 0
M  V30 1131 N 104.945 -0.338344 -1.53925 0
M  V30 1132 C 106.17 0.263987 -2.05713 0
M  V30 1133 C 106.595 1.43847 -1.21201 0
M  V30 1134 O 105.953 1.79904 -0.224535 0
M  V30 1135 C 106.001 0.662 -3.54471 0
M  V30 1136 O 105.105 1.76265 -3.72833 0
M  V30 1137 H 104.446 0.0448722 -0.662482 0
M  V30 1138 H 106.976 -0.491048 -1.9862 0
M  V30 1139 H 106.986 0.940594 -3.9701 0
M  V30 1140 H 105.661 -0.196937 -4.15433 0
M  V30 1141 H 104.238 1.48173 -3.42198 0
M  V30 1142 N 106.423 1.57458 -0.0668435 0
M  V30 1143 C 107.669 1.93587 0.6043 0
M  V30 1144 C 108.002 0.946722 1.69561 0
M  V30 1145 O 107.277 -0.0248516 1.94484 0
M  V30 1146 C 107.56 3.40014 1.18585 0
M  V30 1147 C 107.413 4.49685 0.101529 0
M  V30 1148 C 108.732 3.87154 2.09284 0
M  V30 1149 H 105.851 0.703958 0.218202 0
M  V30 1150 H 108.493 1.89542 -0.131804 0
M  V30 1151 H 106.643 3.43592 1.81319 0
M  V30 1152 H 108.315 4.5823 -0.531279 0
M  V30 1153 H 106.558 4.30059 -0.568487 0
M  V30 1154 H 107.229 5.49266 0.54874 0
M  V30 1155 H 109.705 3.85551 1.56491 0
M  V30 1156 H 108.581 4.90231 2.46911 0
M  V30 1157 H 108.842 3.2481 2.99918 0
M  V30 1158 N 107.901 -0.206675 1.56239 0
M  V30 1159 C 108.831 -1.25909 1.96645 0
M  V30 1160 C 109.812 -1.48097 0.836734 0
M  V30 1161 O 110.997 -1.6003 1.10019 0
M  V30 1162 C 108.127 -2.6058 2.29599 0
M  V30 1163 C 107.081 -2.53024 3.452 0
M  V30 1164 C 106.407 -3.91861 3.63798 0
M  V30 1165 C 107.707 -2.06524 4.79734 0
M  V30 1166 H 109.401 -0.923369 2.84806 0
M  V30 1167 H 106.947 -0.442735 1.37025 0
M  V30 1168 H 108.9 -3.34375 2.56459 0
M  V30 1169 H 107.624 -2.95869 1.38307 0
M  V30 1170 H 106.283 -1.81684 3.18412 0
M  V30 1171 H 105.931 -4.24483 2.69857 0
M  V30 1172 H 105.631 -3.87683 4.4156 0
M  V30 1173 H 107.155 -4.67296 3.93022 0
M  V30 1174 H 108.569 -2.70072 5.05702 0
M  V30 1175 H 106.966 -2.13374 5.60885 0
M  V30 1176 H 108.036 -1.01802 4.74093 0
M  V30 1177 N 109.379 -1.50304 -0.473955 0
M  V30 1178 C 110.342 -1.6841 -1.55469 0
M  V30 1179 C 111.342 -0.554905 -1.50922 0
M  V30 1180 O 112.532 -0.821882 -1.53593 0
M  V30 1181 C 109.664 -1.70667 -2.95102 0
M  V30 1182 H 110.857 -2.64828 -1.40733 0
M  V30 1183 H 108.41 -1.39742 -0.700132 0
M  V30 1184 H 109.145 -0.75932 -3.15285 0
M  V30 1185 H 108.93 -2.52698 -2.9981 0
M  V30 1186 H 110.42 -1.8664 -3.73571 0
M  V30 1187 N 110.857 0.726932 -1.39834 0
M  V30 1188 C 112.087 1.51393 -1.40583 0
M  V30 1189 C 112.495 1.892 -0.000740625 0
M  V30 1190 O 111.838 1.55189 0.982951 0
M  V30 1191 C 111.9 2.82588 -2.22226 0
M  V30 1192 C 111.564 2.67169 -3.70769 0
M  V30 1193 C 112.561 2.3518 -4.63666 0
M  V30 1194 C 110.246 2.83788 -4.14451 0
M  V30 1195 C 112.24 2.20002 -5.98229 0
M  V30 1196 C 109.927 2.68229 -5.49087 0
M  V30 1197 C 110.925 2.36382 -6.4079 0
M  V30 1198 O 110.613 2.2093 -7.72946 0
M  V30 1199 H 110.345 0.474168 -0.48181 0
M  V30 1200 H 112.899 0.905247 -1.84376 0
M  V30 1201 H 111.129 3.45746 -1.73195 0
M  V30 1202 H 112.818 3.44247 -2.15055 0
M  V30 1203 H 113.584 2.21984 -4.31217 0
M  V30 1204 H 109.463 3.07566 -3.43401 0
M  V30 1205 H 113.007 1.95067 -6.69772 0
M  V30 1206 H 108.904 2.81006 -5.81125 0
M  V30 1207 H 109.672 2.35937 -7.83757 0
M  V30 1208 N 112.336 1.25143 0.95797 0
M  V30 1209 C 113.283 1.05235 2.05412 0
M  V30 1210 C 114.253 -0.0374561 1.66058 0
M  V30 1211 O 115.438 0.119073 1.90428 0
M  V30 1212 C 112.578 0.673589 3.38462 0
M  V30 1213 C 111.691 1.8379 3.90954 0
M  V30 1214 C 110.826 1.40381 5.12315 0
M  V30 1215 C 109.865 2.53746 5.57027 0
M  V30 1216 N 109.002 2.11136 6.69601 0
M  V30 1217 H 113.842 1.99048 2.21774 0
M  V30 1218 H 111.379 0.991277 1.08683 0
M  V30 1219 H 113.337 0.434964 4.14926 0
M  V30 1220 H 111.967 -0.227554 3.21997 0
M  V30 1221 H 111.019 2.18992 3.11041 0
M  V30 1222 H 112.331 2.68937 4.20089 0
M  V30 1223 H 111.485 1.12464 5.96185 0
M  V30 1224 H 110.224 0.523015 4.84887 0
M  V30 1225 H 109.229 2.82412 4.71724 0
M  V30 1226 H 110.454 3.42398 5.86464 0
M  V30 1227 H 108.4 1.25468 6.4389 0
M  V30 1228 H 108.317 2.89832 6.98236 0
M  V30 1229 H 109.585 1.86385 7.56889 0
M  V30 1230 N 113.814 -1.1601 1.06675 0
M  V30 1231 C 114.724 -2.24156 0.692179 0
M  V30 1232 C 115.74 -1.71507 -0.293513 0
M  V30 1233 O 116.916 -2.009 -0.141861 0
M  V30 1234 C 113.981 -3.46587 0.0884131 0
M  V30 1235 C 113.042 -4.14257 1.12646 0
M  V30 1236 C 112.275 -5.30844 0.551416 0
M  V30 1237 O 112.498 -5.66858 -0.634656 0
M  V30 1238 O 111.432 -5.87848 1.29298 0
M  V30 1239 H 115.258 -2.58513 1.59388 0
M  V30 1240 H 112.843 -1.23599 0.83926 0
M  V30 1241 H 114.725 -4.20679 -0.246361 0
M  V30 1242 H 113.4 -3.13994 -0.786712 0
M  V30 1243 H 112.307 -3.42118 1.51348 0
M  V30 1244 H 113.64 -4.50914 1.97325 0
M  V30 1245 N 115.292 -0.849877 -1.32721 0
M  V30 1246 C 116.54 -0.450032 -1.97026 0
M  V30 1247 C 116.861 0.996604 -1.67609 0
M  V30 1248 O 116.131 1.6958 -0.980786 0
M  V30 1249 H 114.711 -0.163426 -0.728904 0
M  V30 1250 H 117.373 -1.08526 -1.6189 0
M  V30 1251 H 116.469 -0.591146 -3.0645 0
M  V30 1252 N 116.77 1.45427 -0.607355 0
M  V30 1253 C 117.72 2.27612 0.133038 0
M  V30 1254 C 118.704 1.37307 0.838785 0
M  V30 1255 O 119.896 1.61299 0.728813 0
M  V30 1256 C 117.025 3.24173 1.12991 0
M  V30 1257 C 116.111 4.21965 0.425011 0
M  V30 1258 N 116.502 5.02982 -0.533217 0
M  V30 1259 C 114.8 4.40899 0.672593 0
M  V30 1260 C 115.501 5.73931 -0.947518 0
M  V30 1261 N 114.477 5.42819 -0.291321 0
M  V30 1262 H 118.279 2.87649 -0.602935 0
M  V30 1263 H 115.793 1.56576 -0.431006 0
M  V30 1264 H 117.79 3.81783 1.67473 0
M  V30 1265 H 116.45 2.65696 1.86644 0
M  V30 1266 H 117.461 5.09843 -0.90995 0
M  V30 1267 H 114.138 3.93547 1.39382 0
M  V30 1268 H 115.528 6.49037 -1.73782 0
M  V30 1269 N 118.248 0.346503 1.53744 0
M  V30 1270 C 119.178 -0.501193 2.28058 0
M  V30 1271 C 120.159 -1.10014 1.29734 0
M  V30 1272 O 121.344 -1.12097 1.58581 0
M  V30 1273 C 118.474 -1.65078 3.05559 0
M  V30 1274 C 117.428 -1.18003 4.11411 0
M  V30 1275 C 116.754 -2.41837 4.76884 0
M  V30 1276 C 118.054 -0.278394 5.21558 0
M  V30 1277 H 119.748 0.11875 2.99164 0
M  V30 1278 H 117.294 0.0585531 1.43881 0
M  V30 1279 H 119.247 -2.25028 3.56287 0
M  V30 1280 H 117.971 -2.29767 2.32109 0
M  V30 1281 H 116.63 -0.603331 3.61601 0
M  V30 1282 H 116.278 -3.0494 4.00026 0
M  V30 1283 H 115.978 -2.1102 5.48402 0
M  V30 1284 H 117.502 -3.02508 5.30397 0
M  V30 1285 H 118.916 -0.784823 5.67903 0
M  V30 1286 H 117.313 -0.0619707 6.00068 0
M  V30 1287 H 118.383 0.684677 4.80042 0
M  V30 1288 N 119.726 -1.57421 0.075193 0
M  V30 1289 C 120.951 -1.98364 -0.605515 0
M  V30 1290 C 121.376 -0.953383 -1.62149 0
M  V30 1291 O 120.734 0.0806053 -1.81121 0
M  V30 1292 C 120.782 -3.38332 -1.24756 0
M  V30 1293 O 119.886 -3.37959 -2.36342 0
M  V30 1294 H 119.227 -0.645553 -0.155428 0
M  V30 1295 H 121.757 -2.04044 0.150714 0
M  V30 1296 H 121.767 -3.75591 -1.5936 0
M  V30 1297 H 120.442 -4.12846 -0.503129 0
M  V30 1298 H 119.019 -3.12474 -2.03506 0
M  V30 1299 N 121.204 0.198386 -1.56346 0
M  V30 1300 C 122.615 0.763358 -1.70381 0
M  V30 1301 C 122.966 1.83995 -0.681203 0
M  V30 1302 O 122.091 2.15785 0.16305 0
M  V30 1303 C 122.686 1.39143 -3.08909 0
M  V30 1304 C 121.245 1.90352 -3.2472 0
M  V30 1305 C 120.392 0.772233 -2.6633 0
M  V30 1306 H 123.343 -0.0266377 -1.58678 0
M  V30 1307 H 123.364 2.26076 -3.06055 0
M  V30 1308 H 122.876 0.607638 -3.83314 0
M  V30 1309 H 120.977 2.71461 -2.55225 0
M  V30 1310 H 121.09 2.06757 -4.3219 0
M  V30 1311 H 119.454 1.18566 -2.2542 0
M  V30 1312 H 120.237 0.00073556 -3.433 0
M  V30 1313 N 122.682 1.50554 0.465978 0
M  V30 1314 C 123.959 1.5232 1.22712 0
M  V30 1315 C 124.339 0.270807 2.09356 0
M  V30 1316 O 123.687 -0.745541 2.15995 0
M  V30 1317 C 123.897 2.82175 2.05374 0
M  V30 1318 C 125.245 3.33033 2.6339 0
M  V30 1319 O 126.269 2.83531 2.15612 0
M  V30 1320 O 125.128 4.19336 3.50456 0
M  V30 1321 H 122.222 0.611183 0.557122 0
M  V30 1322 H 124.768 1.62847 0.477381 0
M  V30 1323 H 123.54 3.64797 1.41558 0
M  V30 1324 H 123.163 2.74675 2.87471 0
M  V30 1325 N 124.16 -0.719506 1.40217 0
M  V30 1326 C 125.409 -1.47486 1.37589 0
M  V30 1327 C 125.722 -1.9559 -0.0201568 0
M  V30 1328 O 126.928 -2.70973 -0.169049 0
M  V30 1329 C 125.384 -2.66575 2.41796 0
M  V30 1330 C 124.992 -2.25358 3.87192 0
M  V30 1331 C 126.736 -3.4433 2.48269 0
M  V30 1332 C 124.643 -3.41262 4.83005 0
M  V30 1333 H 123.573 -0.553901 0.511576 0
M  V30 1334 H 126.224 -0.783427 1.65936 0
M  V30 1335 H 124.606 -3.3787 2.06543 0
M  V30 1336 H 125.78 -1.61509 4.31569 0
M  V30 1337 H 124.095 -1.60657 3.84159 0
M  V30 1338 H 126.692 -4.30569 3.17041 0
M  V30 1339 H 127.035 -3.87872 1.51198 0
M  V30 1340 H 127.568 -2.80076 2.82493 0
M  V30 1341 H 124.307 -3.02755 5.81394 0
M  V30 1342 H 123.827 -4.0404 4.43297 0
M  V30 1343 H 125.506 -4.07383 5.02641 0
M  V30 1344 N 125.638 -1.25649 -0.95132 0
M  V30 1345 C 126.884 -1.10757 -1.69884 0
M  V30 1346 C 127.217 0.350061 -1.91019 0
M  V30 1347 O 126.492 1.25783 -1.48354 0
M  V30 1348 C 126.775 -1.86606 -3.07978 0
M  V30 1349 C 126.628 -3.40217 -2.94232 0
M  V30 1350 C 127.947 -1.65182 -4.07925 0
M  V30 1351 H 125.066 -0.40374 -0.616574 0
M  V30 1352 H 127.708 -1.54521 -1.10558 0
M  V30 1353 H 125.858 -1.49409 -3.58621 0
M  V30 1354 H 127.53 -3.87108 -2.50889 0
M  V30 1355 H 125.773 -3.67759 -2.30078 0
M  V30 1356 H 126.444 -3.88505 -3.92133 0
M  V30 1357 H 128.92 -1.9757 -3.66204 0
M  V30 1358 H 127.796 -2.20683 -5.02583 0
M  V30 1359 H 128.057 -0.593933 -4.38092 0
M  V30 1360 N 127.117 1.15442 -1.07289 0
M  V30 1361 C 128.08 2.18358 -0.696591 0
M  V30 1362 C 129.08 1.58637 0.262837 0
M  V30 1363 O 130.27 1.74145 0.0438809 0
M  V30 1364 C 127.402 3.4089 -0.0266151 0
M  V30 1365 H 128.595 2.53162 -1.60776 0
M  V30 1366 H 126.148 1.29893 -0.869342 0
M  V30 1367 H 126.883 3.11653 0.896822 0
M  V30 1368 H 126.668 3.85495 -0.716657 0
M  V30 1369 H 128.158 4.17009 0.222028 0
M  V30 1370 N 128.595 0.856903 1.32268 0
M  V30 1371 C 129.505 0.306131 2.32594 0
M  V30 1372 C 130.521 -0.577209 1.64147 0
M  V30 1373 O 131.697 -0.477043 1.95669 0
M  V30 1374 C 128.762 -0.494561 3.43154 0
M  V30 1375 C 127.823 0.415186 4.27288 0
M  V30 1376 C 127.056 -0.347387 5.32568 0
M  V30 1377 O 127.279 -1.57708 5.48165 0
M  V30 1378 O 126.213 0.287982 6.01211 0
M  V30 1379 H 130.039 1.13737 2.81598 0
M  V30 1380 H 127.624 0.619902 1.35932 0
M  V30 1381 H 129.506 -0.948944 4.10576 0
M  V30 1382 H 128.181 -1.30257 2.96336 0
M  V30 1383 H 127.088 0.917793 3.62667 0
M  V30 1384 H 128.421 1.18844 4.77637 0
M  V30 1385 N 130.073 -1.45103 0.615059 0
M  V30 1386 C 131.005 -2.28786 -0.13762 0
M  V30 1387 C 132.018 -1.40376 -0.824525 0
M  V30 1388 O 133.207 -1.64681 -0.688662 0
M  V30 1389 C 130.307 -3.16322 -1.21628 0
M  V30 1390 C 129.48 -4.33054 -0.615039 0
M  V30 1391 C 128.539 -5.01743 -1.58556 0
M  V30 1392 O 127.565 -5.58293 -1.10895 0
M  V30 1393 N 128.767 -5.01714 -2.91998 0
M  V30 1394 H 131.532 -2.94025 0.580483 0
M  V30 1395 H 129.093 -1.55373 0.45507 0
M  V30 1396 H 131.085 -3.59139 -1.86552 0
M  V30 1397 H 129.655 -2.52943 -1.83681 0
M  V30 1398 H 128.875 -3.93627 0.21245 0
M  V30 1399 H 130.163 -5.08431 -0.193704 0
M  V30 1400 H 129.561 -4.57075 -3.33316 0
M  V30 1401 H 128.118 -5.48371 -3.52325 0
M  V30 1402 N 131.551 -0.354651 -1.53558 0
M  V30 1403 C 132.498 0.496968 -2.25386 0
M  V30 1404 C 133.468 1.0865 -1.25636 0
M  V30 1405 O 134.653 1.12104 -1.54394 0
M  V30 1406 C 131.793 1.63637 -3.03837 0
M  V30 1407 C 130.906 1.07307 -4.18461 0
M  V30 1408 C 130.041 2.18068 -4.84376 0
M  V30 1409 C 129.08 1.59147 -5.91049 0
M  V30 1410 N 128.217 2.63695 -6.50699 0
M  V30 1411 H 133.057 -0.122075 -2.9775 0
M  V30 1412 H 130.594 -0.0720154 -1.46924 0
M  V30 1413 H 132.552 2.30734 -3.47589 0
M  V30 1414 H 131.182 2.22623 -2.33749 0
M  V30 1415 H 130.234 0.292708 -3.79272 0
M  V30 1416 H 131.546 0.602193 -4.95152 0
M  V30 1417 H 130.7 2.93007 -5.31255 0
M  V30 1418 H 129.439 2.68504 -4.07133 0
M  V30 1419 H 128.444 0.827175 -5.43542 0
M  V30 1420 H 129.669 1.09549 -6.70206 0
M  V30 1421 H 127.615 3.13365 -5.76315 0
M  V30 1422 H 127.532 2.21263 -7.22896 0
M  V30 1423 H 128.8 3.3837 -7.02229 0
M  V30 1424 N 133.029 1.57378 -0.0835403 0
M  V30 1425 C 133.976 2.13384 0.879539 0
M  V30 1426 C 134.946 1.04936 1.28754 0
M  V30 1427 O 136.131 1.32662 1.37133 0
M  V30 1428 C 133.271 2.70932 2.13752 0
M  V30 1429 C 132.384 3.93575 1.7811 0
M  V30 1430 C 131.519 4.39326 2.98607 0
M  V30 1431 C 130.558 5.54587 2.59037 0
M  V30 1432 N 129.695 5.95243 3.72331 0
M  V30 1433 H 134.535 2.9537 0.395076 0
M  V30 1434 H 132.072 1.45953 0.183349 0
M  V30 1435 H 134.03 3.02411 2.87408 0
M  V30 1436 H 132.66 1.91693 2.59718 0
M  V30 1437 H 131.712 3.68483 0.94469 0
M  V30 1438 H 133.024 4.77258 1.45005 0
M  V30 1439 H 132.178 4.72528 3.80529 0
M  V30 1440 H 130.917 3.5452 3.34913 0
M  V30 1441 H 129.922 5.21024 1.75539 0
M  V30 1442 H 131.147 6.41133 2.23887 0
M  V30 1443 H 129.093 5.13385 4.08378 0
M  V30 1444 H 129.01 6.73694 3.43034 0
M  V30 1445 H 130.278 6.33072 4.54797 0
M  V30 1446 N 134.507 -0.190092 1.56449 0
M  V30 1447 C 135.437 -1.23816 1.97969 0
M  V30 1448 C 136.418 -1.47201 0.852395 0
M  V30 1449 O 137.603 -1.58854 1.1171 0
M  V30 1450 C 134.733 -2.5813 2.3235 0
M  V30 1451 C 133.687 -2.49348 3.47864 0
M  V30 1452 C 133.013 -3.8798 3.67934 0
M  V30 1453 C 134.313 -2.01424 4.81898 0
M  V30 1454 H 136.007 -0.89311 2.85769 0
M  V30 1455 H 133.553 -0.428177 1.37487 0
M  V30 1456 H 135.506 -3.31637 2.59991 0
M  V30 1457 H 134.23 -2.94386 1.41438 0
M  V30 1458 H 132.889 -1.78297 3.20321 0
M  V30 1459 H 132.537 -4.21597 2.74344 0
M  V30 1460 H 132.237 -3.82978 4.45648 0
M  V30 1461 H 133.761 -4.63101 3.97957 0
M  V30 1462 H 135.175 -2.64693 5.08538 0
M  V30 1463 H 133.572 -2.07413 5.63116 0
M  V30 1464 H 134.642 -0.967677 4.75146 0
M  V30 1465 N 135.985 -1.50799 -0.457987 0
M  V30 1466 C 136.895 -1.73426 -1.57989 0
M  V30 1467 C 137.911 -0.617745 -1.62665 0
M  V30 1468 O 139.087 -0.897614 -1.80291 0
M  V30 1469 C 136.152 -1.83557 -2.94122 0
M  V30 1470 C 135.213 -3.07345 -2.99729 0
M  V30 1471 C 134.446 -3.16983 -4.29368 0
M  V30 1472 O 134.669 -2.33077 -5.20607 0
M  V30 1473 O 133.603 -4.09812 -4.40837 0
M  V30 1474 H 137.429 -2.68555 -1.41817 0
M  V30 1475 H 135.014 -1.35052 -0.638859 0
M  V30 1476 H 136.896 -1.92326 -3.74952 0
M  V30 1477 H 135.571 -0.916137 -3.10465 0
M  V30 1478 H 134.478 -3.04068 -2.1793 0
M  V30 1479 H 135.811 -3.9891 -2.88326 0
M  V30 1480 N 137.463 0.71206 -1.40597 0
M  V30 1481 C 138.426 1.80785 -1.40888 0
M  V30 1482 C 139.426 1.57937 -0.302103 0
M  V30 1483 O 140.616 1.64913 -0.561182 0
M  V30 1484 C 137.748 3.18927 -1.20409 0
M  V30 1485 H 138.941 1.81924 -2.38419 0
M  V30 1486 H 136.494 0.91805 -1.26497 0
M  V30 1487 H 137.229 3.23436 -0.236522 0
M  V30 1488 H 137.014 3.36911 -2.00582 0
M  V30 1489 H 138.504 3.98949 -1.23408 0
M  V30 1490 N 138.941 1.26152 0.944643 0
M  V30 1491 C 139.904 1.07474 2.0244 0
M  V30 1492 C 140.904 0.0242064 1.60782 0
M  V30 1493 O 142.094 0.267302 1.72137 0
M  V30 1494 C 139.226 0.633956 3.34953 0
M  V30 1495 H 140.419 2.03336 2.20442 0
M  V30 1496 H 137.972 1.087 1.12312 0
M  V30 1497 H 138.707 -0.326811 3.22649 0
M  V30 1498 H 138.492 1.39247 3.66542 0
M  V30 1499 H 139.982 0.52501 4.14287 0
M  V30 1500 N 140.419 -1.14872 1.07899 0
M  V30 1501 C 141.696 -1.81928 0.71845 0
M  V30 1502 C 142.076 -1.95417 -0.798455 0
M  V30 1503 O 141.424 -1.50997 -1.715 0
M  V30 1504 C 141.634 -3.17937 1.43935 0
M  V30 1505 C 142.982 -3.93501 1.59506 0
M  V30 1506 O 144.006 -3.27509 1.40058 0
M  V30 1507 O 142.865 -5.1183 1.91551 0
M  V30 1508 H 139.959 -0.78628 0.256305 0
M  V30 1509 H 142.505 -1.21934 1.18026 0
M  V30 1510 H 141.277 -3.0325 2.47295 0
M  V30 1511 H 140.9 -3.85619 0.968687 0
M  V30 1512 N 141.898 -0.863906 -1.31812 0
M  V30 1513 C 142.828 -0.330843 -2.31144 0
M  V30 1514 C 143.809 0.575005 -1.60087 0
M  V30 1515 O 144.994 0.493304 -1.8783 0
M  V30 1516 C 142.124 0.47374 -3.44054 0
M  V30 1517 C 141.078 -0.338481 -4.26659 0
M  V30 1518 C 140.404 0.591412 -5.31419 0
M  V30 1519 C 141.704 -1.56926 -4.98168 0
M  V30 1520 H 143.398 -1.16086 -2.75979 0
M  V30 1521 H 140.944 -0.559657 -1.32679 0
M  V30 1522 H 142.897 0.857143 -4.12591 0
M  V30 1523 H 141.621 1.33721 -2.9797 0
M  V30 1524 H 140.28 -0.703754 -3.59782 0
M  V30 1525 H 139.928 1.45199 -4.81587 0
M  V30 1526 H 139.628 0.0519022 -5.87577 0
M  V30 1527 H 141.152 0.97179 -6.02817 0
M  V30 1528 H 142.566 -1.25764 -5.59336 0
M  V30 1529 H 140.963 -2.04739 -5.64094 0
M  V30 1530 H 142.033 -2.32544 -4.25501 0
M  V30 1531 N 143.376 1.44774 -0.622745 0
M  V30 1532 C 144.622 2.0242 -0.124083 0
M  V30 1533 C 144.955 1.4881 1.24777 0
M  V30 1534 O 144.23 0.668799 1.8264 0
M  V30 1535 C 144.513 3.59957 -0.101619 0
M  V30 1536 C 144.366 4.23867 -1.50521 0
M  V30 1537 C 145.685 4.36284 0.578272 0
M  V30 1538 H 142.804 0.735528 -0.0465645 0
M  V30 1539 H 145.446 1.72447 -0.797617 0
M  V30 1540 H 143.596 3.85623 0.471934 0
M  V30 1541 H 145.268 4.09336 -2.12701 0
M  V30 1542 H 143.511 3.81684 -2.06154 0
M  V30 1543 H 144.182 5.32843 -1.4416 0
M  V30 1544 H 146.658 4.16001 0.0906057 0
M  V30 1545 H 145.534 5.46004 0.563149 0
M  V30 1546 H 145.795 4.10271 1.64713 0
M  V30 1547 N 144.854 0.36279 1.53368 0
M  V30 1548 C 146.103 -0.22888 2.00397 0
M  V30 1549 C 146.416 -1.50096 1.25421 0
M  V30 1550 O 147.622 -2.17106 1.63025 0
M  V30 1551 C 146.078 -0.458417 3.56969 0
M  V30 1552 C 145.686 0.798877 4.4082 0
M  V30 1553 C 147.43 -1.00789 4.12361 0
M  V30 1554 C 145.337 0.539078 5.88938 0
M  V30 1555 H 144.267 -0.089305 0.748693 0
M  V30 1556 H 146.918 0.481099 1.77081 0
M  V30 1557 H 145.3 -1.22959 3.76427 0
M  V30 1558 H 146.474 1.57262 4.33134 0
M  V30 1559 H 144.789 1.27137 3.96516 0
M  V30 1560 H 147.386 -1.21754 5.20653 0
M  V30 1561 H 147.729 -1.9692 3.66781 0
M  V30 1562 H 148.262 -0.296961 3.9669 0
M  V30 1563 H 145.001 1.47064 6.3879 0
M  V30 1564 H 144.521 -0.196222 5.99479 0
M  V30 1565 H 146.2 0.163542 6.46793 0
M  V30 1566 N 146.332 -1.57332 0.0918853 0
M  V30 1567 C 147.579 -1.94236 -0.572577 0
M  V30 1568 C 147.907 -0.973398 -1.6839 0
M  V30 1569 O 147.162 0.00756912 -1.95699 0
M  V30 1570 C 147.461 -3.37689 -1.17051 0
M  V30 1571 C 147.127 -4.50527 -0.183304 0
M  V30 1572 C 145.789 -4.81119 0.0882276 0
M  V30 1573 C 148.141 -5.18883 0.49095 0
M  V30 1574 C 145.469 -5.77395 1.04076 0
M  V30 1575 C 147.821 -6.1618 1.43193 0
M  V30 1576 C 146.485 -6.45179 1.71173 0
M  V30 1577 H 145.755 -0.710762 -0.209521 0
M  V30 1578 H 148.402 -1.9077 0.167036 0
M  V30 1579 H 146.707 -3.37718 -1.9863 0
M  V30 1580 H 148.404 -3.63543 -1.69227 0
M  V30 1581 H 144.994 -4.26681 -0.405124 0
M  V30 1582 H 149.178 -4.95427 0.294312 0
M  V30 1583 H 144.434 -5.98179 1.26457 0
M  V30 1584 H 148.608 -6.68243 1.96023 0
M  V30 1585 H 146.235 -7.1959 2.4514 0
M  V30 1586 N 147.81 0.181792 -1.56548 0
M  V30 1587 C 148.742 1.24956 -1.92142 0
M  V30 1588 C 149.755 1.41022 -0.813422 0
M  V30 1589 O 150.944 1.41212 -1.09186 0
M  V30 1590 C 148.044 2.61981 -2.14987 0
M  V30 1591 C 147.217 2.6735 -3.46183 0
M  V30 1592 C 146.276 3.85664 -3.5798 0
M  V30 1593 O 145.302 3.72148 -4.30691 0
M  V30 1594 N 146.504 5.01683 -2.92053 0
M  V30 1595 H 149.269 0.947329 -2.84334 0
M  V30 1596 H 146.83 0.371629 -1.57577 0
M  V30 1597 H 148.822 3.3958 -2.20154 0
M  V30 1598 H 147.392 2.84637 -1.2923 0
M  V30 1599 H 146.612 1.75925 -3.52766 0
M  V30 1600 H 147.9 2.67939 -4.32534 0
M  V30 1601 H 147.298 5.15564 -2.32832 0
M  V30 1602 H 145.855 5.77181 -3.0283 0
M  V30 1603 N 149.288 1.51039 0.449983 0
M  V30 1604 C 150.535 1.63081 1.20045 0
M  V30 1605 C 150.863 0.341024 1.91487 0
M  V30 1606 O 150.118 -0.674276 1.83717 0
M  V30 1607 C 150.417 2.77556 2.25161 0
M  V30 1608 C 150.083 4.17289 1.70823 0
M  V30 1609 C 148.745 4.55305 1.55725 0
M  V30 1610 C 151.097 5.04536 1.3074 0
M  V30 1611 C 148.425 5.78287 0.989999 0
M  V30 1612 C 150.777 6.28085 0.754482 0
M  V30 1613 C 149.441 6.64885 0.590308 0
M  V30 1614 H 148.711 0.596755 0.439277 0
M  V30 1615 H 151.358 1.85037 0.49333 0
M  V30 1616 H 149.663 2.49771 3.01863 0
M  V30 1617 H 151.36 2.84073 2.83026 0
M  V30 1618 H 147.95 3.8731 1.83546 0
M  V30 1619 H 152.134 4.75782 1.41229 0
M  V30 1620 H 147.39 6.05456 0.850451 0
M  V30 1621 H 151.564 6.95038 0.435324 0
M  V30 1622 H 149.191 7.60055 0.14862 0
M  V30 1623 N 150.766 -0.704594 1.40972 0
M  V30 1624 C 152.177 -1.28418 1.3552 0
M  V30 1625 C 152.528 -1.96171 0.0339434 0
M  V30 1626 O 151.653 -1.98231 -0.867944 0
M  V30 1627 C 152.248 -2.33528 2.45459 0
M  V30 1628 C 150.807 -2.87085 2.43433 0
M  V30 1629 C 149.954 -1.61007 2.2577 0
M  V30 1630 H 152.905 -0.499963 1.50619 0
M  V30 1631 H 152.926 -3.14619 2.13998 0
M  V30 1632 H 152.438 -1.84187 3.41609 0
M  V30 1633 H 150.539 -3.40626 1.51013 0
M  V30 1634 H 150.652 -3.3813 3.39419 0
M  V30 1635 H 149.016 -1.86482 1.73483 0
M  V30 1636 H 149.799 -1.13675 3.23933 0
M  V30 1637 N 152.244 -1.26651 -0.937939 0
M  V30 1638 C 153.174 -1.10993 -2.05433 0
M  V30 1639 C 154.155 -0.0142161 -1.70094 0
M  V30 1640 O 155.34 -0.186837 -1.93299 0
M  V30 1641 C 152.47 -0.745561 -3.39203 0
M  V30 1642 C 151.424 -1.79337 -3.88616 0
M  V30 1643 C 150.75 -1.28324 -5.19073 0
M  V30 1644 C 152.05 -3.19553 -4.13138 0
M  V30 1645 H 153.744 -2.0438 -2.1879 0
M  V30 1646 H 151.29 -0.984041 -1.05131 0
M  V30 1647 H 153.243 -0.622888 -4.16771 0
M  V30 1648 H 151.967 0.22401 -3.25831 0
M  V30 1649 H 150.626 -1.90477 -3.13231 0
M  V30 1650 H 150.274 -0.303414 -5.02084 0
M  V30 1651 H 149.974 -1.98369 -5.53103 0
M  V30 1652 H 151.498 -1.1733 -5.99221 0
M  V30 1653 H 152.912 -3.11471 -4.81309 0
M  V30 1654 H 151.309 -3.87218 -4.58457 0
M  V30 1655 H 152.379 -3.65368 -3.18801 0
M  V30 1656 N 153.722 1.14298 -1.08507 0
M  V30 1657 C 154.654 2.1907 -0.673859 0
M  V30 1658 C 155.667 1.60381 0.279577 0
M  V30 1659 O 156.856 1.78374 0.0670754 0
M  V30 1660 C 153.956 3.38888 0.0290979 0
M  V30 1661 C 153.129 4.27103 -0.943494 0
M  V30 1662 C 152.188 5.25477 -0.275676 0
M  V30 1663 O 151.214 5.61709 -0.920401 0
M  V30 1664 N 152.416 5.7227 0.974013 0
M  V30 1665 H 155.181 2.54965 -1.57521 0
M  V30 1666 H 152.742 1.29528 -0.971287 0
M  V30 1667 H 154.734 4.01761 0.48683 0
M  V30 1668 H 153.304 3.01309 0.832555 0
M  V30 1669 H 152.524 3.61149 -1.58004 0
M  V30 1670 H 153.812 4.82905 -1.60251 0
M  V30 1671 H 153.21 5.44965 1.51755 0
M  V30 1672 H 151.767 6.37127 1.37522 0
M  V30 1673 N 155.201 0.870884 1.31352 0
M  V30 1674 C 156.447 0.492314 1.97352 0
M  V30 1675 C 156.802 -0.945174 1.67583 0
M  V30 1676 O 156.095 -1.65674 0.962423 0
M  V30 1677 C 156.289 0.687157 3.50732 0
M  V30 1678 C 156.118 2.14203 3.95407 0
M  V30 1679 C 154.888 2.78382 4.21701 0
M  V30 1680 C 157.086 3.1144 4.09279 0
M  V30 1681 N 155.068 4.14611 4.52737 0
M  V30 1682 C 156.439 4.32702 4.44037 0
M  V30 1683 C 158.494 3.07418 3.91661 0
M  V30 1684 C 157.197 5.50463 4.63015 0
M  V30 1685 C 159.223 4.24438 4.11833 0
M  V30 1686 C 158.585 5.44463 4.46923 0
M  V30 1687 H 154.684 0.229206 0.747655 0
M  V30 1688 H 157.268 1.12568 1.5886 0
M  V30 1689 H 155.439 0.083384 3.8831 0
M  V30 1690 H 157.171 0.276883 4.03752 0
M  V30 1691 H 153.926 2.29326 4.14375 0
M  V30 1692 H 154.35 4.84928 4.72413 0
M  V30 1693 H 158.992 2.15732 3.6362 0
M  V30 1694 H 156.71 6.42666 4.89904 0
M  V30 1695 H 160.296 4.2278 3.99685 0
M  V30 1696 H 159.176 6.33504 4.62214 0
M  V30 1697 N 156.679 -1.44442 0.630414 0
M  V30 1698 C 157.926 -2.02052 0.134617 0
M  V30 1699 C 158.254 -1.49576 -1.24327 0
M  V30 1700 O 157.509 -0.669806 -1.83881 0
M  V30 1701 C 157.808 -3.57332 0.0697835 0
M  V30 1702 C 157.474 -4.29058 1.38635 0
M  V30 1703 C 156.136 -4.4837 1.74694 0
M  V30 1704 C 158.488 -4.69872 2.25543 0
M  V30 1705 C 155.816 -5.05756 2.97369 0
M  V30 1706 C 158.168 -5.28616 3.47487 0
M  V30 1707 C 156.832 -5.46147 3.8377 0
M  V30 1708 H 156.102 -0.739361 0.0492598 0
M  V30 1709 H 158.749 -1.73217 0.816586 0
M  V30 1710 H 157.054 -3.85577 -0.695553 0
M  V30 1711 H 158.751 -3.99637 -0.330344 0
M  V30 1712 H 155.341 -4.14357 1.09574 0
M  V30 1713 H 159.525 -4.54666 1.98979 0
M  V30 1714 H 154.781 -5.17515 3.25558 0
M  V30 1715 H 158.955 -5.59192 4.15063 0
M  V30 1716 H 156.582 -5.9038 4.7891 0
M  V30 1717 N 158.157 -0.370918 -1.53173 0
M  V30 1718 C 159.405 0.216673 -2.00935 0
M  V30 1719 C 159.726 1.48845 -1.25977 0
M  V30 1720 O 158.996 1.92286 -0.374551 0
M  V30 1721 H 157.576 0.0830565 -0.742368 0
M  V30 1722 H 160.238 -0.49838 -1.8842 0
M  V30 1723 H 159.334 0.439893 -3.08984 0
M  V30 1724 N 159.635 1.57281 -0.100228 0
M  V30 1725 C 160.881 1.94826 0.563101 0
M  V30 1726 C 161.214 0.982475 1.67514 0
M  V30 1727 O 160.489 0.0164069 1.94493 0
M  V30 1728 C 160.772 3.42453 1.11346 0
M  V30 1729 C 160.625 4.498 0.00612081 0
M  V30 1730 C 161.944 3.91506 2.01024 0
M  V30 1731 H 159.063 0.708428 0.203221 0
M  V30 1732 H 161.705 1.8922 -0.171979 0
M  V30 1733 H 159.855 3.47361 1.7399 0
M  V30 1734 H 161.527 4.57 -0.628357 0
M  V30 1735 H 159.77 4.28756 -0.659581 0
M  V30 1736 H 160.441 5.50306 0.432109 0
M  V30 1737 H 162.917 3.88784 1.48278 0
M  V30 1738 H 161.793 4.95358 2.36457 0
M  V30 1739 H 162.054 3.31099 2.92961 0
M  V30 1740 N 161.113 -0.173488 1.56642 0
M  V30 1741 C 162.524 -0.736155 1.71574 0
M  V30 1742 C 162.875 -1.82888 0.710389 0
M  V30 1743 O 162 -2.16017 -0.1287 0
M  V30 1744 C 162.595 -1.34211 3.11083 0
M  V30 1745 C 161.154 -1.85162 3.27707 0
M  V30 1746 C 160.301 -0.729765 2.67525 0
M  V30 1747 H 163.252 0.0518786 1.58615 0
M  V30 1748 H 163.273 -2.21178 3.09613 0
M  V30 1749 H 162.785 -0.546579 3.84232 0
M  V30 1750 H 160.886 -2.67366 2.59512 0
M  V30 1751 H 160.999 -1.99855 4.35425 0
M  V30 1752 H 159.363 -1.14965 2.27278 0
M  V30 1753 H 160.146 0.0538806 3.43258 0
M  V30 1754 N 162.591 -1.51276 -0.441967 0
M  V30 1755 C 163.554 -1.7167 -1.51862 0
M  V30 1756 C 164.554 -0.586793 -1.49711 0
M  V30 1757 O 165.744 -0.854276 -1.51815 0
M  V30 1758 C 162.876 -1.76889 -2.91416 0
M  V30 1759 H 164.069 -2.67754 -1.35084 0
M  V30 1760 H 161.622 -1.41196 -0.670333 0
M  V30 1761 H 162.357 -0.826026 -3.13604 0
M  V30 1762 H 162.142 -2.59001 -2.94382 0
M  V30 1763 H 163.632 -1.94522 -3.69528 0
M  V30 1764 N 164.069 0.697108 -1.41344 0
M  V30 1765 C 165.318 1.45279 -1.39918 0
M  V30 1766 C 165.631 1.95597 -0.0109624 0
M  V30 1767 O 166.837 2.71208 0.125919 0
M  V30 1768 C 165.293 2.62695 -2.46007 0
M  V30 1769 C 164.901 2.19169 -3.90729 0
M  V30 1770 C 166.645 3.40336 -2.53715 0
M  V30 1771 C 164.552 3.33535 -4.88373 0
M  V30 1772 H 163.482 0.545692 -0.520323 0
M  V30 1773 H 166.133 0.756929 -1.67161 0
M  V30 1774 H 164.515 3.34541 -2.11892 0
M  V30 1775 H 165.689 1.54623 -4.34083 0
M  V30 1776 H 164.004 1.54525 -3.86666 0
M  V30 1777 H 166.601 4.2547 -3.2385 0
M  V30 1778 H 166.944 3.85418 -1.5735 0
M  V30 1779 H 167.477 2.75546 -2.86913 0
M  V30 1780 H 164.216 2.93468 -5.86137 0
M  V30 1781 H 163.736 3.96936 -4.49668 0
M  V30 1782 H 165.415 3.99335 -5.09059 0
M  V30 1783 N 165.547 1.27147 0.931209 0
M  V30 1784 C 166.477 1.12081 2.04842 0
M  V30 1785 C 167.458 0.0232364 1.70084 0
M  V30 1786 O 168.643 0.197085 1.93197 0
M  V30 1787 C 165.773 0.76354 3.38803 0
M  V30 1788 C 164.727 1.81396 3.87659 0
M  V30 1789 C 164.053 1.31075 5.18385 0
M  V30 1790 C 165.353 3.21739 4.11438 0
M  V30 1791 H 167.047 2.05537 2.17703 0
M  V30 1792 H 164.593 0.989603 1.04608 0
M  V30 1793 H 166.546 0.644982 4.16435 0
M  V30 1794 H 165.27 -0.206727 3.25945 0
M  V30 1795 H 163.929 1.92136 3.12217 0
M  V30 1796 H 163.577 0.330037 5.01916 0
M  V30 1797 H 163.277 2.013 5.52044 0
M  V30 1798 H 164.801 1.20506 5.98591 0
M  V30 1799 H 166.215 3.14019 4.79651 0
M  V30 1800 H 164.612 3.89644 4.56397 0
M  V30 1801 H 165.682 3.67054 3.16859 0
M  V30 1802 N 167.025 -1.13721 1.09112 0
M  V30 1803 C 167.972 -2.19031 0.727591 0
M  V30 1804 C 168.942 -1.63555 -0.289656 0
M  V30 1805 O 170.127 -1.90023 -0.172026 0
M  V30 1806 C 167.267 -3.4477 0.15082 0
M  V30 1807 C 166.38 -4.14365 1.22172 0
M  V30 1808 C 165.515 -5.27709 0.608042 0
M  V30 1809 C 164.554 -5.89147 1.66047 0
M  V30 1810 N 163.691 -6.93929 1.06806 0
M  V30 1811 H 168.531 -2.49475 1.62991 0
M  V30 1812 H 166.068 -1.22499 0.81439 0
M  V30 1813 H 168.026 -4.16714 -0.201358 0
M  V30 1814 H 166.656 -3.14787 -0.714783 0
M  V30 1815 H 165.708 -3.40737 1.69122 0
M  V30 1816 H 167.02 -4.56114 2.01895 0
M  V30 1817 H 166.174 -6.06355 0.204523 0
M  V30 1818 H 164.913 -4.872 -0.220769 0
M  V30 1819 H 163.918 -5.09198 2.07357 0
M  V30 1820 H 165.143 -6.31729 2.49189 0
M  V30 1821 H 163.089 -6.55483 0.260476 0
M  V30 1822 H 163.006 -7.34202 1.8023 0
M  V30 1823 H 164.274 -7.76434 0.690644 0
M  V30 1824 N 168.503 -0.877838 -1.30888 0
M  V30 1825 C 169.751 -0.491723 -1.96027 0
M  V30 1826 C 170.072 0.960827 -1.69685 0
M  V30 1827 O 169.342 1.67462 -1.01654 0
M  V30 1828 H 167.922 -0.17885 -0.725273 0
M  V30 1829 H 170.584 -1.11935 -1.59551 0
M  V30 1830 H 169.68 -0.656016 -3.05128 0
M  V30 1831 N 169.982 1.44106 -0.638065 0
M  V30 1832 C 171.228 2.02815 -0.15409 0
M  V30 1833 C 171.583 1.49342 1.21304 0
M  V30 1834 O 170.876 0.670699 1.79478 0
M  V30 1835 C 171.07 3.5729 -0.0887327 0
M  V30 1836 C 170.899 4.2575 -1.44799 0
M  V30 1837 C 169.669 4.62443 -2.03653 0
M  V30 1838 C 171.867 4.55746 -2.38327 0
M  V30 1839 N 169.849 5.15903 -3.32741 0
M  V30 1840 C 171.22 5.10364 -3.52036 0
M  V30 1841 C 173.275 4.37703 -2.3732 0
M  V30 1842 C 171.978 5.48837 -4.64941 0
M  V30 1843 C 174.004 4.77229 -3.49294 0
M  V30 1844 C 173.366 5.31966 -4.61726 0
M  V30 1845 H 169.465 0.775519 -0.100466 0
M  V30 1846 H 172.049 1.755 -0.843071 0
M  V30 1847 H 170.22 3.84201 0.569548 0
M  V30 1848 H 171.952 4.02671 0.404711 0
M  V30 1849 H 168.707 4.46987 -1.56523 0
M  V30 1850 H 169.131 5.47102 -3.98758 0
M  V30 1851 H 173.773 3.94671 -1.51641 0
M  V30 1852 H 171.491 5.9082 -5.51323 0
M  V30 1853 H 175.077 4.64976 -3.49698 0
M  V30 1854 H 173.957 5.61986 -5.46939 0
M  V30 1855 N 171.46 0.379036 1.52974 0
M  V30 1856 C 172.707 -0.206421 2.01445 0
M  V30 1857 C 173.035 -1.47668 1.26587 0
M  V30 1858 O 172.29 -1.92514 0.351675 0
M  V30 1859 C 172.589 -0.53096 3.53434 0
M  V30 1860 C 172.255 0.646546 4.46241 0
M  V30 1861 C 170.917 0.969604 4.7133 0
M  V30 1862 C 173.269 1.43479 5.01062 0
M  V30 1863 C 170.597 2.08263 5.48492 0
M  V30 1864 C 172.949 2.53834 5.7944 0
M  V30 1865 C 171.613 2.86659 6.02812 0
M  V30 1866 H 170.883 -0.0755349 0.73714 0
M  V30 1867 H 173.53 0.514271 1.84465 0
M  V30 1868 H 171.835 -1.33285 3.68432 0
M  V30 1869 H 173.532 -0.996417 3.88423 0
M  V30 1870 H 170.122 0.384734 4.2687 0
M  V30 1871 H 174.306 1.19844 4.81613 0
M  V30 1872 H 169.562 2.34078 5.64816 0
M  V30 1873 H 173.736 3.15319 6.20924 0
M  V30 1874 H 171.363 3.73026 6.62387 0
M  V30 1875 N 172.938 -1.57226 0.108567 0
M  V30 1876 C 173.848 -2.18292 -0.859401 0
M  V30 1877 C 174.864 -1.15612 -1.30038 0
M  V30 1878 O 176.04 -1.48039 -1.36552 0
M  V30 1879 C 173.105 -2.762 -2.09558 0
M  V30 1880 C 172.166 -3.93881 -1.70752 0
M  V30 1881 C 171.399 -4.49018 -2.88477 0
M  V30 1882 O 171.622 -4.03068 -4.036 0
M  V30 1883 O 170.556 -5.39852 -2.66164 0
M  V30 1884 H 174.382 -3.01441 -0.369769 0
M  V30 1885 H 171.967 -1.48945 -0.1165 0
M  V30 1886 H 173.849 -3.13156 -2.81978 0
M  V30 1887 H 172.524 -1.96089 -2.57548 0
M  V30 1888 H 171.431 -3.61713 -0.954714 0
M  V30 1889 H 172.764 -4.75396 -1.27513 0
M  V30 1890 N 174.416 0.165178 -1.56732 0
M  V30 1891 C 175.832 0.517174 -1.50988 0
M  V30 1892 C 176.032 1.84331 -0.813894 0
M  V30 1893 O 175.088 2.49672 -0.37682 0
M  V30 1894 C 176.401 0.544261 -2.95733 0
M  V30 1895 C 177.949 0.631039 -3.06573 0
M  V30 1896 C 178.424 0.68896 -4.52788 0
M  V30 1897 N 179.915 0.751683 -4.5706 0
M  V30 1898 C 180.65 0.817177 -5.67547 0
M  V30 1899 N 180.146 0.843129 -6.8765 0
M  V30 1900 N 181.939 0.856668 -5.55534 0
M  V30 1901 H 174.09 -0.704318 -2.00382 0
M  V30 1902 H 176.353 -0.254687 -0.913148 0
M  V30 1903 H 176.059 -0.361607 -3.49836 0
M  V30 1904 H 175.933 1.3886 -3.5071 0
M  V30 1905 H 178.32 1.52733 -2.52501 0
M  V30 1906 H 178.401 -0.240095 -2.54671 0
M  V30 1907 H 178.045 -0.2031 -5.07494 0
M  V30 1908 H 177.975 1.57633 -5.02454 0
M  V30 1909 H 180.466 0.739661 -3.70591 0
M  V30 1910 H 180.779 0.894448 -7.67606 0
M  V30 1911 H 179.124 0.811304 -6.90248 0
M  V30 1912 H 182.315 0.833437 -4.60621 0
M  V30 1913 H 182.488 0.904247 -6.4166 0
M  V30 1914 N 175.894 1.51508 0.433938 0
M  V30 1915 C 177.14 1.64588 1.18484 0
M  V30 1916 C 177.473 0.362666 1.90784 0
M  V30 1917 O 176.748 -0.637892 1.83742 0
M  V30 1918 C 177.031 2.85149 2.19913 0
M  V30 1919 C 176.884 4.23456 1.51674 0
M  V30 1920 C 178.203 3.01227 3.20858 0
M  V30 1921 H 175.322 0.598994 0.429389 0
M  V30 1922 H 177.964 1.84002 0.473647 0
M  V30 1923 H 176.114 2.68729 2.80566 0
M  V30 1924 H 177.786 4.51552 0.943322 0
M  V30 1925 H 176.029 4.25998 0.819035 0
M  V30 1926 H 176.7 5.03812 2.2556 0
M  V30 1927 H 179.176 3.16382 2.70263 0
M  V30 1928 H 178.052 3.87141 3.89118 0
M  V30 1929 H 178.313 2.13447 3.8716 0
M  V30 1930 N 177.372 -0.689602 1.41712 0
M  V30 1931 C 178.619 -1.44966 1.4139 0
M  V30 1932 C 178.947 -1.94484 0.025105 0
M  V30 1933 O 178.202 -1.70307 -0.964048 0
M  V30 1934 C 178.501 -2.67298 2.37247 0
M  V30 1935 C 178.167 -2.36405 3.83958 0
M  V30 1936 C 176.829 -2.27691 4.23923 0
M  V30 1937 C 179.181 -2.11043 4.76561 0
M  V30 1938 C 176.509 -1.91719 5.54492 0
M  V30 1939 C 178.861 -1.76578 6.07456 0
M  V30 1940 C 177.525 -1.66363 6.46436 0
M  V30 1941 H 176.795 -0.53047 0.517381 0
M  V30 1942 H 179.442 -0.787655 1.74552 0
M  V30 1943 H 177.747 -3.38461 1.9736 0
M  V30 1944 H 179.444 -3.25452 2.34269 0
M  V30 1945 H 176.034 -2.44085 3.52308 0
M  V30 1946 H 180.218 -2.16717 4.46483 0
M  V30 1947 H 175.474 -1.82367 5.83568 0
M  V30 1948 H 179.648 -1.55974 6.78708 0
M  V30 1949 H 177.275 -1.38258 7.47522 0
M  V30 1950 N 178.85 -1.27639 -0.924453 0
M  V30 1951 C 180.099 -1.13549 -1.66702 0
M  V30 1952 C 180.412 0.317487 -1.93006 0
M  V30 1953 O 181.618 0.579333 -2.65247 0
M  V30 1954 C 180.074 -1.98426 -3.00259 0
M  V30 1955 C 179.682 -3.484 -2.81641 0
M  V30 1956 C 181.426 -1.92993 -3.78092 0
M  V30 1957 C 179.333 -4.25464 -4.10773 0
M  V30 1958 H 178.263 -0.421351 -0.625283 0
M  V30 1959 H 180.914 -1.52085 -1.02676 0
M  V30 1960 H 179.296 -1.52736 -3.6536 0
M  V30 1961 H 180.47 -4.01973 -2.25287 0
M  V30 1962 H 178.785 -3.55245 -2.17232 0
M  V30 1963 H 181.382 -2.47844 -4.7379 0
M  V30 1964 H 181.725 -0.904281 -4.0636 0
M  V30 1965 H 182.258 -2.36595 -3.19793 0
M  V30 1966 H 178.997 -5.28566 -3.87683 0
M  V30 1967 H 178.517 -3.76667 -4.66779 0
M  V30 1968 H 180.196 -4.34812 -4.79111 0
M  V30 1969 N 180.328 1.1314 -1.09713 0
M  V30 1970 C 181.576 1.84119 -0.833338 0
M  V30 1971 C 181.897 1.84097 0.642904 0
M  V30 1972 O 181.167 1.29881 1.46655 0
M  V30 1973 H 179.747 0.681766 -0.305293 0
M  V30 1974 H 182.409 1.37038 -1.38588 0
M  V30 1975 H 181.505 2.88543 -1.18951 0
M  V30 1976 N 181.806 0.884767 1.30421 0
M  V30 1977 C 182.716 0.355398 2.31892 0
M  V30 1978 C 183.732 -0.542261 1.65335 0
M  V30 1979 O 184.908 -0.435432 1.96637 0
M  V30 1980 C 181.973 -0.421661 3.44126 0
M  V30 1981 C 181.034 0.505727 4.26311 0
M  V30 1982 C 180.267 -0.234343 5.33185 0
M  V30 1983 O 180.49 -1.46045 5.51386 0
M  V30 1984 O 179.424 0.415443 6.00465 0
M  V30 1985 H 183.25 1.19685 2.79122 0
M  V30 1986 H 180.835 0.648596 1.34587 0
M  V30 1987 H 182.717 -0.861641 4.12497 0
M  V30 1988 H 181.392 -1.23942 2.99032 0
M  V30 1989 H 180.299 0.994513 3.60639 0
M  V30 1990 H 181.632 1.28948 4.75009 0
M  V30 1991 N 183.284 -1.43765 0.645699 0
M  V30 1992 C 184.531 -2.01898 0.15604 0
M  V30 1993 C 184.859 -1.50887 -1.22733 0
M  V30 1994 O 184.114 -0.689271 -1.8316 0
M  V30 1995 C 184.413 -3.57238 0.107679 0
M  V30 1996 C 184.079 -4.27564 1.43178 0
M  V30 1997 C 182.741 -4.46492 1.7944 0
M  V30 1998 C 185.093 -4.67454 2.30513 0
M  V30 1999 C 182.421 -5.02573 3.02716 0
M  V30 2000 C 184.773 -5.24901 3.53074 0
M  V30 2001 C 183.437 -5.42046 3.89541 0
M  V30 2002 H 182.707 -0.738797 0.057099 0
M  V30 2003 H 185.354 -1.72341 0.834912 0
M  V30 2004 H 183.659 -3.86293 -0.654618 0
M  V30 2005 H 185.356 -3.99965 -0.287938 0
M  V30 2006 H 181.946 -4.13171 1.13963 0
M  V30 2007 H 186.13 -4.5253 2.0379 0
M  V30 2008 H 181.386 -5.14033 3.31028 0
M  V30 2009 H 185.56 -5.54758 4.20971 0
M  V30 2010 H 183.187 -5.85268 4.85145 0
M  V30 2011 N 184.763 -0.387143 -1.52771 0
M  V30 2012 C 185.726 0.436939 -2.24997 0
M  V30 2013 C 186.726 0.991991 -1.26555 0
M  V30 2014 O 187.916 0.874335 -1.50669 0
M  V30 2015 C 185.048 1.61281 -3.00335 0
M  V30 2016 H 186.241 -0.195365 -2.99263 0
M  V30 2017 H 183.794 -0.139218 -1.55679 0
M  V30 2018 H 184.529 2.2826 -2.30364 0
M  V30 2019 H 184.314 1.22154 -3.72587 0
M  V30 2020 H 185.804 2.19629 -3.5518 0
M  V30 2021 N 186.241 1.57166 -0.116904 0
M  V30 2022 C 187.471 1.99184 0.548586 0
M  V30 2023 C 187.879 0.995436 1.60897 0
M  V30 2024 O 187.222 -0.0201293 1.83689 0
M  V30 2025 C 187.284 3.37611 1.23526 0
M  V30 2026 C 186.948 4.55857 0.323077 0
M  V30 2027 C 187.945 5.18056 -0.437476 0
M  V30 2028 C 185.63 5.01751 0.234761 0
M  V30 2029 C 187.624 6.24536 -1.2741 0
M  V30 2030 C 185.311 6.08093 -0.605496 0
M  V30 2031 C 186.309 6.69352 -1.35856 0
M  V30 2032 O 185.997 7.7364 -2.18487 0
M  V30 2033 H 185.729 0.659148 0.149999 0
M  V30 2034 H 188.283 2.0443 -0.199428 0
M  V30 2035 H 186.513 3.29113 2.0303 0
M  V30 2036 H 188.202 3.63932 1.79745 0
M  V30 2037 H 188.968 4.83516 -0.379105 0
M  V30 2038 H 184.847 4.53817 0.810601 0
M  V30 2039 H 188.391 6.72281 -1.86237 0
M  V30 2040 H 184.288 6.42063 -0.665268 0
M  V30 2041 H 185.056 7.90727 -2.11406 0
M  V30 2042 N 187.719 -0.156864 1.56817 0
M  V30 2043 C 188.947 -0.886316 1.86955 0
M  V30 2044 C 189.362 -1.75185 0.703975 0
M  V30 2045 O 188.719 -1.79555 -0.326552 0
M  V30 2046 C 188.77 -1.75117 3.16253 0
M  V30 2047 O 188.491 -0.920537 4.2832 0
M  V30 2048 C 189.992 -2.58905 3.59837 0
M  V30 2049 H 187.212 -0.25678 0.619923 0
M  V30 2050 H 189.756 -0.152615 2.0393 0
M  V30 2051 H 187.911 -2.43805 3.01062 0
M  V30 2052 H 188.325 -1.51337 5.02192 0
M  V30 2053 H 189.799 -3.1518 4.53172 0
M  V30 2054 H 190.276 -3.34472 2.84649 0
M  V30 2055 H 190.882 -1.95526 3.7769 0
M  V30 2056 N 189.197 -1.51736 -0.425897 0
M  V30 2057 C 190.427 -1.68549 -1.19476 0
M  V30 2058 C 190.835 -0.387288 -1.85194 0
M  V30 2059 O 190.178 0.645142 -1.71999 0
M  V30 2060 C 190.24 -2.75275 -2.31223 0
M  V30 2061 C 189.904 -4.17534 -1.8578 0
M  V30 2062 C 190.901 -5.01936 -1.35485 0
M  V30 2063 C 188.586 -4.6369 -1.93123 0
M  V30 2064 C 190.58 -6.30559 -0.931347 0
M  V30 2065 C 188.267 -5.92307 -1.50384 0
M  V30 2066 C 189.265 -6.75569 -1.00473 0
M  V30 2067 O 188.953 -8.0178 -0.583452 0
M  V30 2068 H 188.685 -0.568525 -0.365725 0
M  V30 2069 H 191.239 -1.98982 -0.509444 0
M  V30 2070 H 189.469 -2.40182 -3.03067 0
M  V30 2071 H 191.158 -2.80853 -2.93047 0
M  V30 2072 H 191.924 -4.67475 -1.29197 0
M  V30 2073 H 187.803 -3.98997 -2.30916 0
M  V30 2074 H 191.347 -6.95498 -0.541084 0
M  V30 2075 H 187.244 -6.2628 -1.56346 0
M  V30 2076 H 188.012 -8.1543 -0.708275 0
M  V30 2077 N 190.675 0.682077 -1.42076 0
M  V30 2078 C 191.638 1.77756 -1.44691 0
M  V30 2079 C 192.638 1.5726 -0.335535 0
M  V30 2080 O 193.828 1.63686 -0.596037 0
M  V30 2081 C 190.96 3.16301 -1.27146 0
M  V30 2082 H 192.153 1.76826 -2.42224 0
M  V30 2083 H 189.706 0.891012 -1.28416 0
M  V30 2084 H 190.441 3.22862 -0.305075 0
M  V30 2085 H 190.226 3.32581 -2.07683 0
M  V30 2086 H 191.716 3.96241 -1.31843 0
M  V30 2087 N 192.153 1.28127 0.917671 0
M  V30 2088 C 193.116 1.11744 2.00115 0
M  V30 2089 C 194.116 0.0583052 1.60694 0
M  V30 2090 O 195.306 0.303755 1.71531 0
M  V30 2091 C 192.438 0.704862 3.33533 0
M  V30 2092 H 193.631 2.07966 2.16079 0
M  V30 2093 H 191.184 1.11058 1.09981 0
M  V30 2094 H 191.919 -0.258299 3.2327 0
M  V30 2095 H 191.704 1.4699 3.63505 0
M  V30 2096 H 193.194 0.612768 4.1308 0
M  V30 2097 N 193.631 -1.12557 1.10312 0
M  V30 2098 C 194.564 -2.1737 0.694674 0
M  V30 2099 C 195.542 -1.59745 -0.303373 0
M  V30 2100 O 196.726 -1.87408 -0.202578 0
M  V30 2101 C 193.853 -3.38691 0.0248052 0
M  V30 2102 C 192.899 -4.14943 0.986121 0
M  V30 2103 S 193.732 -4.73413 2.50281 0
M  V30 2104 C 194.888 -5.9807 1.84562 0
M  V30 2105 H 195.121 -2.5168 1.58255 0
M  V30 2106 H 192.654 -1.23998 0.919992 0
M  V30 2107 H 194.612 -4.08959 -0.355361 0
M  V30 2108 H 193.273 -3.02664 -0.839851 0
M  V30 2109 H 192.466 -5.01854 0.464651 0
M  V30 2110 H 192.068 -3.50377 1.30813 0
M  V30 2111 H 194.36 -6.67232 1.17507 0
M  V30 2112 H 195.303 -6.54841 2.69423 0
M  V30 2113 H 195.711 -5.49073 1.31069 0
M  V30 2114 N 195.109 -0.891671 -1.2995 0
M  V30 2115 C 196.339 -0.527893 -1.99742 0
M  V30 2116 C 196.747 0.88979 -1.66971 0
M  V30 2117 O 196.09 1.59766 -0.906667 0
M  V30 2118 C 196.152 -0.630804 -3.53922 0
M  V30 2119 C 195.816 -2.01401 -4.10228 0
M  V30 2120 C 196.813 -2.98422 -4.25724 0
M  V30 2121 C 194.498 -2.32121 -4.45449 0
M  V30 2122 C 196.492 -4.24293 -4.75662 0
M  V30 2123 C 194.179 -3.58237 -4.95086 0
M  V30 2124 C 195.177 -4.54137 -5.10146 0
M  V30 2125 O 194.865 -5.78014 -5.58708 0
M  V30 2126 H 194.597 -0.201953 -0.645129 0
M  V30 2127 H 197.151 -1.20076 -1.66646 0
M  V30 2128 H 195.381 0.0990616 -3.86573 0
M  V30 2129 H 197.07 -0.277338 -4.04951 0
M  V30 2130 H 197.836 -2.76001 -3.98809 0
M  V30 2131 H 193.715 -1.5824 -4.32991 0
M  V30 2132 H 197.259 -4.99153 -4.87332 0
M  V30 2133 H 193.156 -3.80491 -5.21437 0
M  V30 2134 H 193.924 -5.8049 -5.77039 0
M  V30 2135 N 196.587 1.43421 -0.653314 0
M  V30 2136 C 197.864 1.95361 -0.0966581 0
M  V30 2137 C 198.244 1.59461 1.38331 0
M  V30 2138 O 197.592 0.879777 2.10884 0
M  V30 2139 C 197.802 3.47311 -0.342988 0
M  V30 2140 C 199.15 4.23875 -0.24798 0
M  V30 2141 O 200.174 3.55133 -0.275553 0
M  V30 2142 O 199.033 5.4623 -0.171771 0
M  V30 2143 H 196.127 0.826945 0.00956291 0
M  V30 2144 H 198.673 1.5336 -0.726558 0
M  V30 2145 H 197.445 3.66569 -1.36906 0
M  V30 2146 H 197.068 3.9631 0.319975 0
M  V30 2147 N 198.065 0.39524 1.52563 0
M  V30 2148 C 199.012 -0.437036 2.26624 0
M  V30 2149 C 199.982 -1.05281 1.28472 0
M  V30 2150 O 201.167 -1.07971 1.57311 0
M  V30 2151 C 198.307 -1.55524 3.08069 0
M  V30 2152 C 197.42 -0.961745 4.21158 0
M  V30 2153 C 196.555 -2.05149 4.89987 0
M  V30 2154 C 195.594 -1.4342 5.95061 0
M  V30 2155 N 194.731 -2.46351 6.57462 0
M  V30 2156 H 199.571 0.200976 2.97322 0
M  V30 2157 H 197.108 0.110944 1.46681 0
M  V30 2158 H 199.066 -2.21437 3.53584 0
M  V30 2159 H 197.696 -2.16348 2.3957 0
M  V30 2160 H 196.748 -0.192048 3.79915 0
M  V30 2161 H 198.06 -0.470701 4.96574 0
M  V30 2162 H 197.214 -2.78819 5.38837 0
M  V30 2163 H 195.953 -2.57615 4.14109 0
M  V30 2164 H 194.958 -0.682774 5.45544 0
M  V30 2165 H 196.183 -0.917416 6.72875 0
M  V30 2166 H 194.129 -2.97975 5.8442 0
M  V30 2167 H 194.046 -2.02019 7.28508 0
M  V30 2168 H 195.314 -3.19633 7.10954 0
M  V30 2169 N 199.544 -1.57102 0.125237 0
M  V30 2170 C 200.792 -1.95021 -0.530198 0
M  V30 2171 C 201.113 -1.00982 -1.66816 0
M  V30 2172 O 200.383 -0.0672693 -1.95784 0
M  V30 2173 H 198.963 -0.720046 -0.198853 0
M  V30 2174 H 201.625 -1.93916 0.19564 0
M  V30 2175 H 200.721 -2.98211 -0.920681 0
M  V30 2176 N 201.022 0.148545 -1.56898 0
M  V30 2177 C 202.433 0.708766 -1.72723 0
M  V30 2178 C 202.784 1.81734 -0.739395 0
M  V30 2179 O 201.909 2.16194 0.0943169 0
M  V30 2180 C 202.504 1.29245 -3.13179 0
M  V30 2181 C 201.063 1.79925 -3.30611 0
M  V30 2182 C 200.21 0.687111 -2.68652 0
M  V30 2183 H 203.161 -0.0771063 -1.58513 0
M  V30 2184 H 203.182 2.16224 -3.13093 0
M  V30 2185 H 202.694 0.485382 -3.85053 0
M  V30 2186 H 200.795 2.63203 -2.63732 0
M  V30 2187 H 200.908 1.92903 -4.38549 0
M  V30 2188 H 199.272 1.11335 -2.29078 0
M  V30 2189 H 200.055 -0.108483 -3.43129 0
M  V30 2190 N 202.5 1.5196 0.417844 0
M  V30 2191 C 203.747 1.65591 1.16559 0
M  V30 2192 C 204.075 0.381565 1.90721 0
M  V30 2193 O 203.33 -0.635156 1.85106 0
M  V30 2194 C 203.629 2.82269 2.19223 0
M  V30 2195 C 203.295 4.20819 1.61933 0
M  V30 2196 C 201.957 4.58506 1.46033 0
M  V30 2197 C 204.309 5.07196 1.20008 0
M  V30 2198 C 201.637 5.80257 0.867113 0
M  V30 2199 C 203.989 6.29544 0.621086 0
M  V30 2200 C 202.653 6.65987 0.449144 0
M  V30 2201 H 201.923 0.605939 0.42652 0
M  V30 2202 H 204.57 1.86041 0.45397 0
M  V30 2203 H 202.875 2.56118 2.96498 0
M  V30 2204 H 204.572 2.90012 2.76936 0
M  V30 2205 H 201.162 3.91116 1.7529 0
M  V30 2206 H 205.346 4.7867 1.31105 0
M  V30 2207 H 200.602 6.07124 0.721833 0
M  V30 2208 H 204.776 6.95805 0.287798 0
M  V30 2209 H 202.403 7.60199 -0.012632 0
M  V30 2210 N 203.978 -0.674533 1.42435 0
M  V30 2211 C 205.394 -0.98769 1.25367 0
M  V30 2212 C 205.594 -2.00879 0.158044 0
M  V30 2213 O 204.65 -2.48075 -0.470633 0
M  V30 2214 C 205.963 -1.49224 2.6106 0
M  V30 2215 C 207.511 -1.61 2.68417 0
M  V30 2216 C 207.986 -2.14852 4.04478 0
M  V30 2217 N 209.477 -2.22185 4.06434 0
M  V30 2218 C 210.212 -2.64928 5.08528 0
M  V30 2219 N 209.708 -3.07121 6.21006 0
M  V30 2220 N 211.501 -2.64679 4.95885 0
M  V30 2221 H 203.652 0.00152503 2.124 0
M  V30 2222 H 205.915 -0.0618434 0.945981 0
M  V30 2223 H 205.621 -0.816453 3.42092 0
M  V30 2224 H 205.495 -2.47094 2.84999 0
M  V30 2225 H 207.882 -2.27686 1.87732 0
M  V30 2226 H 207.963 -0.616195 2.48267 0
M  V30 2227 H 207.607 -1.48775 4.85622 0
M  V30 2228 H 207.537 -3.15024 4.2198 0
M  V30 2229 H 210.028 -1.92435 3.25234 0
M  V30 2230 H 210.341 -3.38423 6.94759 0
M  V30 2231 H 208.686 -3.04978 6.24511 0
M  V30 2232 H 211.877 -2.31078 4.07088 0
M  V30 2233 H 212.05 -2.9767 5.75584 0
M  V30 2234 N 205.456 -1.28612 -0.910864 0
M  V30 2235 C 206.681 -1.1891 -1.69927 0
M  V30 2236 C 207.106 0.248372 -1.86453 0
M  V30 2237 O 206.464 1.17961 -1.37676 0
M  V30 2238 C 206.512 -1.89578 -3.06745 0
M  V30 2239 O 205.616 -1.20521 -3.94396 0
M  V30 2240 H 204.957 -0.412632 -0.520222 0
M  V30 2241 H 207.487 -1.69985 -1.1387 0
M  V30 2242 H 207.497 -1.97597 -3.56958 0
M  V30 2243 H 206.172 -2.94136 -2.94035 0
M  V30 2244 H 204.749 -1.20684 -3.52831 0
M  V30 2245 N 206.934 1.1197 -1.10907 0
M  V30 2246 C 207.881 2.17846 -0.762345 0
M  V30 2247 C 208.851 1.63995 0.263599 0
M  V30 2248 O 210.036 1.90273 0.141773 0
M  V30 2249 C 207.176 3.44487 -0.205651 0
M  V30 2250 C 206.289 4.12369 -1.28748 0
M  V30 2251 C 205.424 5.26674 -0.691919 0
M  V30 2252 C 204.463 5.86431 -1.75399 0
M  V30 2253 N 203.6 6.92142 -1.17833 0
M  V30 2254 H 208.44 2.46851 -1.6694 0
M  V30 2255 H 205.977 1.21188 -0.833776 0
M  V30 2256 H 207.935 4.16981 0.135037 0
M  V30 2257 H 206.565 3.15884 0.664613 0
M  V30 2258 H 205.617 3.38003 -1.74522 0
M  V30 2259 H 206.929 4.52844 -2.09125 0
M  V30 2260 H 206.083 6.05953 -0.300963 0
M  V30 2261 H 204.822 4.8749 0.143232 0
M  V30 2262 H 203.827 5.05835 -2.15432 0
M  V30 2263 H 205.052 6.27685 -2.59208 0
M  V30 2264 H 202.998 6.54985 -0.364725 0
M  V30 2265 H 202.915 7.31242 -1.91887 0
M  V30 2266 H 204.183 7.75237 -0.81408 0
M  V30 2267 N 208.412 0.89855 1.29475 0
M  V30 2268 C 209.359 0.373819 2.27753 0
M  V30 2269 C 210.329 -0.543444 1.56958 0
M  V30 2270 O 211.514 -0.468934 1.84948 0
M  V30 2271 C 208.654 -0.393648 3.42848 0
M  V30 2272 C 207.767 0.554379 4.28428 0
M  V30 2273 C 206.902 -0.230026 5.30702 0
M  V30 2274 C 205.941 0.712599 6.07938 0
M  V30 2275 N 205.078 -0.0373283 7.0209 0
M  V30 2276 H 209.918 1.21699 2.72017 0
M  V30 2277 H 207.455 0.611456 1.33789 0
M  V30 2278 H 209.413 -0.85466 4.08352 0
M  V30 2279 H 208.043 -1.20128 2.99615 0
M  V30 2280 H 207.095 1.13391 3.63107 0
M  V30 2281 H 208.407 1.27597 4.82204 0
M  V30 2282 H 207.561 -0.752288 6.02018 0
M  V30 2283 H 206.3 -0.984758 4.77654 0
M  V30 2284 H 205.305 1.24637 5.35486 0
M  V30 2285 H 206.53 1.46664 6.63074 0
M  V30 2286 H 204.476 -0.774348 6.51414 0
M  V30 2287 H 204.393 0.624374 7.53417 0
M  V30 2288 H 205.661 -0.539891 7.77628 0
M  V30 2289 N 209.89 -1.43072 0.660911 0
M  V30 2290 C 210.853 -2.29194 -0.0166406 0
M  V30 2291 C 211.853 -1.42609 -0.742912 0
M  V30 2292 O 213.043 -1.64155 -0.583004 0
M  V30 2293 C 210.175 -3.24831 -1.0343 0
M  V30 2294 H 211.368 -2.90596 0.741208 0
M  V30 2295 H 208.921 -1.5048 0.422532 0
M  V30 2296 H 209.656 -2.68339 -1.82111 0
M  V30 2297 H 209.441 -3.88676 -0.517082 0
M  V30 2298 H 210.931 -3.89451 -1.50723 0
M  V30 2299 N 211.368 -0.403325 -1.52352 0
M  V30 2300 C 212.614 0.174605 -2.02047 0
M  V30 2301 C 212.947 1.45282 -1.28867 0
M  V30 2302 O 212.222 1.90483 -0.393257 0
M  V30 2303 C 212.505 0.428238 -3.57545 0
M  V30 2304 C 212.358 -0.866248 -4.4138 0
M  V30 2305 C 213.677 1.21287 -4.23057 0
M  V30 2306 H 210.796 0.0619851 -0.734389 0
M  V30 2307 H 213.438 -0.53565 -1.82293 0
M  V30 2308 H 211.588 1.03327 -3.74507 0
M  V30 2309 H 213.26 -1.50265 -4.3614 0
M  V30 2310 H 211.503 -1.47851 -4.07827 0
M  V30 2311 H 212.174 -0.643249 -5.48239 0
M  V30 2312 H 214.65 0.700703 -4.10158 0
M  V30 2313 H 213.526 1.35909 -5.31808 0
M  V30 2314 H 213.787 2.23193 -3.81625 0
M  V30 2315 N 212.846 1.57033 -0.133567 0
M  V30 2316 C 213.776 2.1909 0.807567 0
M  V30 2317 C 214.757 1.13517 1.26681 0
M  V30 2318 O 215.942 1.41809 1.32679 0
M  V30 2319 C 213.072 2.80188 2.05212 0
M  V30 2320 C 212.026 3.91471 1.73015 0
M  V30 2321 C 211.352 4.39443 3.04622 0
M  V30 2322 C 212.652 5.12886 0.987168 0
M  V30 2323 H 214.346 2.97988 0.290403 0
M  V30 2324 H 211.892 1.43335 0.138239 0
M  V30 2325 H 213.845 3.22264 2.71521 0
M  V30 2326 H 212.569 1.98601 2.59278 0
M  V30 2327 H 211.228 3.49993 1.0909 0
M  V30 2328 H 210.876 3.54695 3.56651 0
M  V30 2329 H 210.576 5.14495 2.83847 0
M  V30 2330 H 212.1 4.8418 3.72024 0
M  V30 2331 H 213.514 5.51891 1.55208 0
M  V30 2332 H 211.911 5.93615 0.87985 0
M  V30 2333 H 212.981 4.84894 -0.0235286 0
M  V30 2334 N 214.325 -0.140222 1.56975 0
M  V30 2335 C 215.55 -0.870414 1.88251 0
M  V30 2336 C 215.975 -1.73637 0.723312 0
M  V30 2337 O 215.333 -1.78329 -0.32689 0
M  V30 2338 C 215.381 -1.69737 3.18154 0
M  V30 2339 O 214.485 -2.80229 3.02565 0
M  V30 2340 H 213.826 -0.242025 0.61832 0
M  V30 2341 H 216.356 -0.128999 2.04193 0
M  V30 2342 H 216.366 -2.09099 3.50345 0
M  V30 2343 H 215.041 -1.06152 4.02125 0
M  V30 2344 H 213.618 -2.44224 2.81796 0
M  V30 2345 N 215.803 -1.52179 -0.40978 0
M  V30 2346 C 217.052 -1.65434 -1.15388 0
M  V30 2347 C 217.365 -0.390056 -1.91671 0
M  V30 2348 O 218.571 -0.402399 -2.68501 0
M  V30 2349 C 217.027 -2.92279 -2.10003 0
M  V30 2350 C 216.635 -4.25813 -1.39239 0
M  V30 2351 C 218.379 -3.14897 -2.84675 0
M  V30 2352 C 216.286 -5.43782 -2.32498 0
M  V30 2353 H 215.216 -0.616267 -0.434432 0
M  V30 2354 H 217.867 -1.78666 -0.418401 0
M  V30 2355 H 216.249 -2.72744 -2.871 0
M  V30 2356 H 217.423 -4.55828 -0.675099 0
M  V30 2357 H 215.738 -4.09292 -0.766097 0
M  V30 2358 H 218.335 -4.0021 -3.54593 0
M  V30 2359 H 218.678 -2.29103 -3.47588 0
M  V30 2360 H 219.211 -3.34901 -2.14677 0
M  V30 2361 H 215.95 -6.3192 -1.74233 0
M  V30 2362 H 215.47 -5.18106 -3.02201 0
M  V30 2363 H 217.149 -5.76834 -2.93038 0
M  V30 2364 N 217.281 0.66697 -1.42791 0
M  V30 2365 C 218.509 1.45505 -1.47091 0
M  V30 2366 C 218.924 1.8861 -0.0845873 0
M  V30 2367 O 218.281 1.58632 0.90234 0
M  V30 2368 C 218.332 2.69906 -2.40485 0
M  V30 2369 O 218.053 2.28608 -3.73725 0
M  V30 2370 C 219.554 3.63396 -2.53886 0
M  V30 2371 H 216.774 0.447459 -0.500022 0
M  V30 2372 H 219.318 0.818866 -1.8739 0
M  V30 2373 H 217.473 3.29696 -2.03419 0
M  V30 2374 H 217.887 3.08997 -4.23817 0
M  V30 2375 H 219.361 4.47387 -3.2334 0
M  V30 2376 H 219.838 4.09824 -1.57927 0
M  V30 2377 H 220.444 3.09495 -2.91706 0
M  V30 2378 N 218.759 1.29093 0.90403 0
M  V30 2379 C 219.987 1.19689 1.68766 0
M  V30 2380 C 220.402 -0.243113 1.87228 0
M  V30 2381 O 219.759 -1.16326 1.40621 0
M  V30 2382 C 219.81 1.90144 3.07453 0
M  V30 2383 O 219.531 3.2852 2.89838 0
M  V30 2384 C 221.032 1.87162 4.01852 0
M  V30 2385 H 218.252 0.415035 0.527244 0
M  V30 2386 H 220.796 1.7039 1.13082 0
M  V30 2387 H 218.951 1.43289 3.59926 0
M  V30 2388 H 219.365 3.63944 3.77684 0
M  V30 2389 H 220.839 2.41032 4.96596 0
M  V30 2390 H 221.316 0.84617 4.30972 0
M  V30 2391 H 221.922 2.33741 3.5531 0
M  V30 2392 N 220.237 -1.11381 1.11499 0
M  V30 2393 C 221.485 -1.8277 0.862524 0
M  V30 2394 C 221.806 -1.85097 -0.613534 0
M  V30 2395 O 221.076 -1.32198 -1.4457 0
M  V30 2396 H 219.656 -0.676823 0.316101 0
M  V30 2397 H 222.318 -1.34816 1.4075 0
M  V30 2398 H 221.414 -2.86614 1.23527 0
M  V30 2399 N 221.715 -0.905404 -1.28997 0
M  V30 2400 C 222.963 -0.533192 -1.9494 0
M  V30 2401 C 223.284 0.924618 -1.71685 0
M  V30 2402 O 222.554 1.65268 -1.05183 0
M  V30 2403 H 221.134 -0.194194 -0.721317 0
M  V30 2404 H 223.796 -1.15294 -1.57141 0
M  V30 2405 H 222.892 -0.72059 -3.03667 0
M  V30 2406 N 223.193 1.4272 -0.668489 0
M  V30 2407 C 224.418 2.06484 -0.194758 0
M  V30 2408 C 224.843 1.49862 1.13679 0
M  V30 2409 O 224.201 0.614582 1.70565 0
M  V30 2410 C 224.249 3.60353 -0.133546 0
M  V30 2411 O 223.353 4.02464 0.899806 0
M  V30 2412 H 222.694 0.656137 -0.10188 0
M  V30 2413 H 225.224 1.82964 -0.915722 0
M  V30 2414 H 225.234 4.07976 0.0447041 0
M  V30 2415 H 223.909 4.00938 -1.1055 0
M  V30 2416 H 222.486 3.66402 0.693109 0
M  V30 2417 N 224.671 0.411399 1.52136 0
M  V30 2418 C 225.919 -0.163322 2.01439 0
M  V30 2419 C 226.24 -1.45453 1.29879 0
M  V30 2420 O 225.51 -1.91225 0.4254 0
M  V30 2421 H 224.09 -0.0633447 0.744309 0
M  V30 2422 H 226.752 0.548161 1.87033 0
M  V30 2423 H 225.848 -0.357817 3.10042 0
M  V30 2424 N 226.149 -1.5696 0.141893 0
M  V30 2425 C 227.374 -2.00754 -0.520838 0
M  V30 2426 C 227.799 -1.0213 -1.57959 0
M  V30 2427 O 227.157 0.00371324 -1.813 0
M  V30 2428 C 227.205 -3.43318 -1.10294 0
M  V30 2429 O 226.309 -3.47679 -2.21795 0
M  V30 2430 H 225.65 -0.651564 -0.127908 0
M  V30 2431 H 228.18 -2.03221 0.23712 0
M  V30 2432 H 228.19 -3.82012 -1.43287 0
M  V30 2433 H 226.865 -4.14608 -0.327574 0
M  V30 2434 H 225.442 -3.20824 -1.9007 0
M  V30 2435 N 227.627 0.131896 -1.57047 0
M  V30 2436 C 228.56 1.19236 -1.94571 0
M  V30 2437 C 229.538 1.40782 -0.813576 0
M  V30 2438 O 230.722 1.55148 -1.07058 0
M  V30 2439 C 227.849 2.54858 -2.23081 0
M  V30 2440 C 226.895 2.49817 -3.45679 0
M  V30 2441 S 227.728 1.95036 -4.98719 0
M  V30 2442 C 228.884 3.32357 -5.30367 0
M  V30 2443 H 229.117 0.872297 -2.84215 0
M  V30 2444 H 226.65 0.338134 -1.50652 0
M  V30 2445 H 228.608 3.32898 -2.40185 0
M  V30 2446 H 227.269 2.84047 -1.34074 0
M  V30 2447 H 226.462 3.49688 -3.62952 0
M  V30 2448 H 226.064 1.79892 -3.27895 0
M  V30 2449 H 228.356 4.28525 -5.2476 0
M  V30 2450 H 229.299 3.19923 -6.31708 0
M  V30 2451 H 229.707 3.3019 -4.57859 0
M  V30 2452 N 229.106 1.52395 0.401703 0
M  V30 2453 C 230.336 1.70429 1.1678 0
M  V30 2454 C 230.744 0.416702 1.84554 0
M  V30 2455 O 230.087 -0.617697 1.73003 0
M  V30 2456 C 230.149 2.78919 2.26814 0
M  V30 2457 C 229.813 4.20437 1.79113 0
M  V30 2458 C 230.81 5.04028 1.27482 0
M  V30 2459 C 228.495 4.66704 1.85722 0
M  V30 2460 C 230.489 6.31961 0.830913 0
M  V30 2461 C 228.176 5.94625 1.40942 0
M  V30 2462 C 229.174 6.77082 0.897128 0
M  V30 2463 O 228.862 8.02607 0.455822 0
M  V30 2464 H 228.594 0.574272 0.356634 0
M  V30 2465 H 231.148 1.99767 0.477724 0
M  V30 2466 H 229.378 2.44973 2.99207 0
M  V30 2467 H 231.067 2.8548 2.88541 0
M  V30 2468 H 231.833 4.69471 1.21744 0
M  V30 2469 H 227.712 4.0262 2.24539 0
M  V30 2470 H 231.256 6.96271 0.430368 0
M  V30 2471 H 227.153 6.28688 1.46362 0
M  V30 2472 H 227.921 8.16453 0.578457 0
M  V30 2473 N 230.584 -0.659388 1.43143 0
M  V30 2474 C 231.809 -1.45221 1.48073 0
M  V30 2475 C 232.234 -1.87845 0.097995 0
M  V30 2476 O 231.592 -1.56985 -0.90694 0
M  V30 2477 C 231.64 -2.66748 2.42647 0
M  V30 2478 O 230.744 -3.65583 1.90848 0
M  V30 2479 H 230.085 -0.435669 0.501088 0
M  V30 2480 H 232.615 -0.807432 1.87994 0
M  V30 2481 H 232.625 -3.14637 2.59745 0
M  V30 2482 H 231.3 -2.35067 3.43098 0
M  V30 2483 H 229.877 -3.24693 1.83381 0
M  V30 2484 N 232.062 -1.29571 -0.897171 0
M  V30 2485 C 232.992 -1.17473 -2.01798 0
M  V30 2486 C 233.973 -0.068323 -1.69963 0
M  V30 2487 O 235.158 -0.248239 -1.92607 0
M  V30 2488 C 232.288 -0.853099 -3.36659 0
M  V30 2489 C 231.242 -1.9161 -3.82713 0
M  V30 2490 C 230.568 -1.44773 -5.14728 0
M  V30 2491 C 231.868 -3.32535 -4.02763 0
M  V30 2492 H 233.562 -2.11237 -2.12177 0
M  V30 2493 H 231.108 -1.01699 -1.01948 0
M  V30 2494 H 233.061 -0.755165 -4.14578 0
M  V30 2495 H 231.785 0.120236 -3.26379 0
M  V30 2496 H 230.444 -2.00346 -3.07013 0
M  V30 2497 H 230.092 -0.462995 -5.00865 0
M  V30 2498 H 229.792 -2.15865 -5.46513 0
M  V30 2499 H 231.316 -1.36334 -5.95185 0
M  V30 2500 H 232.73 -3.26626 -4.71156 0
M  V30 2501 H 231.127 -4.01607 -4.45905 0
M  V30 2502 H 232.197 -3.75326 -3.07016 0
M  V30 2503 N 233.54 1.10788 -1.12088 0
M  V30 2504 C 234.472 2.16816 -0.743213 0
M  V30 2505 C 235.485 1.6119 0.228412 0
M  V30 2506 O 236.674 1.78497 0.0102931 0
M  V30 2507 C 233.774 3.38809 -0.0787313 0
M  V30 2508 C 232.947 4.23885 -1.0789 0
M  V30 2509 C 232.006 5.24334 -0.442713 0
M  V30 2510 O 231.032 5.58497 -1.09864 0
M  V30 2511 N 232.234 5.75079 0.791457 0
M  V30 2512 H 234.999 2.49825 -1.65552 0
M  V30 2513 H 232.56 1.26373 -1.012 0
M  V30 2514 H 234.552 4.03107 0.358766 0
M  V30 2515 H 233.122 3.03805 0.736275 0
M  V30 2516 H 232.342 3.55939 -1.69414 0
M  V30 2517 H 233.63 4.77562 -1.75533 0
M  V30 2518 H 233.028 5.49517 1.3434 0
M  V30 2519 H 231.585 6.4118 1.17183 0
M  V30 2520 N 235.018 0.912232 1.28515 0
M  V30 2521 C 236.266 0.543523 1.94654 0
M  V30 2522 C 236.587 -0.9155 1.72173 0
M  V30 2523 O 235.857 -1.64708 1.06058 0
M  V30 2524 H 234.437 0.198017 0.720277 0
M  V30 2525 H 237.099 1.16126 1.56527 0
M  V30 2526 H 236.195 0.736684 3.03281 0
M  V30 2527 N 236.496 -1.42363 0.676048 0
M  V30 2528 C 237.745 -2.00745 0.196037 0
M  V30 2529 C 238.058 -1.54083 -1.20489 0
M  V30 2530 O 239.264 -2.04891 -1.78134 0
M  V30 2531 C 237.72 -3.58651 0.299616 0
M  V30 2532 C 237.328 -4.143 1.70468 0
M  V30 2533 C 239.072 -4.24326 -0.121619 0
M  V30 2534 C 236.979 -5.64574 1.76096 0
M  V30 2535 H 235.909 -0.750787 0.0695301 0
M  V30 2536 H 238.56 -1.63072 0.841412 0
M  V30 2537 H 236.942 -3.93833 -0.413673 0
M  V30 2538 H 238.116 -3.90575 2.44515 0
M  V30 2539 H 236.431 -3.61081 2.07387 0
M  V30 2540 H 239.028 -5.34607 -0.0997362 0
M  V30 2541 H 239.371 -3.99897 -1.15708 0
M  V30 2542 H 239.904 -3.94108 0.540706 0
M  V30 2543 H 236.643 -5.93804 2.77628 0
M  V30 2544 H 236.163 -5.90286 1.06406 0
M  V30 2545 H 237.842 -6.29013 1.51496 0
M  V30 2546 N 237.974 -0.419461 -1.51915 0
M  V30 2547 C 238.924 0.418496 -2.24126 0
M  V30 2548 C 239.908 1.00495 -1.25656 0
M  V30 2549 O 241.1 0.926058 -1.50842 0
M  V30 2550 C 238.229 1.52899 -3.07371 0
M  V30 2551 C 237.315 0.952797 -4.13258 0
M  V30 2552 N 237.706 0.104175 -5.05693 0
M  V30 2553 C 236.004 1.22224 -4.28926 0
M  V30 2554 C 236.705 -0.21752 -5.81293 0
M  V30 2555 N 235.681 0.394293 -5.42168 0
M  V30 2556 H 239.483 -0.236048 -2.92951 0
M  V30 2557 H 236.997 -0.230481 -1.60756 0
M  V30 2558 H 238.994 2.14199 -3.57665 0
M  V30 2559 H 237.654 2.18605 -2.40088 0
M  V30 2560 H 238.665 -0.260924 -5.17242 0
M  V30 2561 H 235.342 1.87812 -3.72871 0
M  V30 2562 H 236.732 -0.906992 -6.6575 0
M  V30 2563 N 239.452 1.56882 -0.150215 0
M  V30 2564 C 240.7 1.9584 0.499105 0
M  V30 2565 C 241.021 1.03623 1.65188 0
M  V30 2566 O 240.291 0.0984084 1.95653 0
M  V30 2567 H 238.871 0.723119 0.187373 0
M  V30 2568 H 241.533 1.9358 -0.226466 0
M  V30 2569 H 240.629 2.99638 0.873122 0
M  V30 2570 N 240.93 -0.123565 1.57115 0
M  V30 2571 C 242.207 -0.862196 1.75572 0
M  V30 2572 C 242.587 -1.98279 0.724475 0
M  V30 2573 O 241.935 -2.27102 -0.252407 0
M  V30 2574 C 242.145 -1.38309 3.20424 0
M  V30 2575 C 243.493 -1.83724 3.82793 0
M  V30 2576 O 244.517 -1.47999 3.23998 0
M  V30 2577 O 243.376 -2.49685 4.86127 0
M  V30 2578 H 240.47 -0.409113 0.718718 0
M  V30 2579 H 243.016 -0.107661 1.69358 0
M  V30 2580 H 241.788 -0.578889 3.86994 0
M  V30 2581 H 241.411 -2.20046 3.31158 0
M  V30 2582 N 242.408 -1.52605 -0.393616 0
M  V30 2583 C 243.341 -1.71798 -1.50202 0
M  V30 2584 C 244.319 -0.565743 -1.52441 0
M  V30 2585 O 245.503 -0.794987 -1.70916 0
M  V30 2586 C 242.63 -1.7714 -2.88685 0
M  V30 2587 C 241.676 -2.98845 -3.04292 0
M  V30 2588 S 242.509 -4.58909 -2.75976 0
M  V30 2589 C 243.665 -4.6706 -4.1666 0
M  V30 2590 H 243.898 -2.65542 -1.33696 0
M  V30 2591 H 241.431 -1.42839 -0.586195 0
M  V30 2592 H 243.389 -1.80903 -3.68489 0
M  V30 2593 H 242.05 -0.844969 -3.02521 0
M  V30 2594 H 241.243 -2.99111 -4.05646 0
M  V30 2595 H 240.845 -2.9305 -2.32374 0
M  V30 2596 H 243.137 -4.45391 -5.10523 0
M  V30 2597 H 244.08 -5.6905 -4.21412 0
M  V30 2598 H 244.488 -3.95944 -4.02354 0
M  V30 2599 N 243.887 0.651787 -1.4349 0
M  V30 2600 C 244.835 1.78586 -1.49029 0
M  V30 2601 C 245.829 1.65448 -0.363767 0
M  V30 2602 O 247.035 1.71777 -0.537821 0
M  V30 2603 H 243.41 0.589236 -0.467231 0
M  V30 2604 H 245.381 1.71035 -2.44519 0
M  V30 2605 C 244.13 3.16851 -1.43181 0
M  V30 2606 H 243.453 3.27598 -2.29171 0
M  V30 2607 H 244.893 3.96156 -1.51118 0
M  V30 2608 C 243.352 3.36568 -0.149616 0
M  V30 2609 O 243.882 3.93885 0.788509 0
M  V30 2610 N 242.088 2.90539 -0.0593484 0
M  V30 2611 H 241.635 2.4408 -0.823575 0
M  V30 2612 H 241.593 3.04108 0.797853 0
M  V30 2613 N 245.365 1.30045 0.890287 0
M  V30 2614 C 246.611 1.18737 1.64406 0
M  V30 2615 C 246.944 -0.258525 1.92472 0
M  V30 2616 O 246.219 -1.18562 1.54186 0
M  V30 2617 C 246.502 2.01087 2.98724 0
M  V30 2618 C 246.355 3.53867 2.77665 0
M  V30 2619 C 247.674 1.84457 3.9958 0
M  V30 2620 H 244.793 0.432698 0.596608 0
M  V30 2621 H 247.435 1.5962 1.0306 0
M  V30 2622 H 245.585 1.66349 3.51084 0
M  V30 2623 H 247.257 3.98637 2.32133 0
M  V30 2624 H 245.5 3.78318 2.12269 0
M  V30 2625 H 246.171 4.06772 3.7315 0
M  V30 2626 H 248.647 2.14817 3.56361 0
M  V30 2627 H 247.523 2.44411 4.91482 0
M  V30 2628 H 247.784 0.802276 4.3476 0
M  V30 2629 N 246.843 -1.10192 1.12674 0
M  V30 2630 C 248.092 -1.81573 0.8783 0
M  V30 2631 C 248.405 -1.86249 -0.597557 0
M  V30 2632 O 249.611 -2.5386 -0.962681 0
M  V30 2633 C 248.067 -3.26149 1.52167 0
M  V30 2634 C 247.675 -3.29763 3.03249 0
M  V30 2635 C 249.419 -4.0234 1.3536 0
M  V30 2636 C 247.326 -4.68815 3.60508 0
M  V30 2637 H 246.256 -0.680394 0.324931 0
M  V30 2638 H 248.907 -1.23902 1.35353 0
M  V30 2639 H 247.289 -3.83832 0.974104 0
M  V30 2640 H 248.463 -2.8189 3.6452 0
M  V30 2641 H 246.778 -2.67059 3.19481 0
M  V30 2642 H 249.375 -5.05058 1.75559 0
M  V30 2643 H 249.718 -4.15235 0.297554 0
M  V30 2644 H 250.251 -3.51079 1.87052 0
M  V30 2645 H 246.99 -4.61121 4.65884 0
M  V30 2646 H 246.51 -5.17045 3.04014 0
M  V30 2647 H 248.189 -5.37785 3.59717 0
M  V30 2648 N 248.321 -0.919034 -1.28029 0
M  V30 2649 C 249.251 -0.428581 -2.29533 0
M  V30 2650 C 250.232 0.50659 -1.62381 0
M  V30 2651 O 251.417 0.413195 -1.89753 0
M  V30 2652 C 248.547 0.327388 -3.45753 0
M  V30 2653 C 247.501 -0.519137 -4.2484 0
M  V30 2654 C 246.827 0.365486 -5.33449 0
M  V30 2655 C 248.127 -1.77914 -4.91064 0
M  V30 2656 H 249.821 -1.27687 -2.70807 0
M  V30 2657 H 247.367 -0.615428 -1.30186 0
M  V30 2658 H 249.32 0.681378 -4.15855 0
M  V30 2659 H 248.044 1.20963 -3.03374 0
M  V30 2660 H 246.703 -0.855717 -3.56473 0
M  V30 2661 H 246.351 1.24642 -4.87312 0
M  V30 2662 H 246.051 -0.197356 -5.87268 0
M  V30 2663 H 247.575 0.715241 -6.06396 0
M  V30 2664 H 248.989 -1.49374 -5.53498 0
M  V30 2665 H 247.386 -2.2848 -5.54903 0
M  V30 2666 H 248.456 -2.50382 -4.15255 0
M  V30 2667 N 249.799 1.42003 -0.683588 0
M  V30 2668 C 251.045 2.02223 -0.218536 0
M  V30 2669 C 251.4 1.53126 1.16492 0
M  V30 2670 O 250.693 0.727459 1.77253 0
M  V30 2671 C 250.887 3.56827 -0.202357 0
M  V30 2672 C 250.716 4.20928 -1.5827 0
M  V30 2673 C 249.486 4.5573 -2.18262 0
M  V30 2674 C 251.684 4.47933 -2.52706 0
M  V30 2675 N 249.666 5.05056 -3.48986 0
M  V30 2676 C 251.037 4.98906 -3.68094 0
M  V30 2677 C 253.092 4.29931 -2.51125 0
M  V30 2678 C 251.795 5.33768 -4.82166 0
M  V30 2679 C 253.821 4.65875 -3.643 0
M  V30 2680 C 253.183 5.17008 -4.78417 0
M  V30 2681 H 249.282 0.771931 -0.125088 0
M  V30 2682 H 251.866 1.72729 -0.898479 0
M  V30 2683 H 250.037 3.85819 0.447029 0
M  V30 2684 H 251.769 4.03755 0.276399 0
M  V30 2685 H 248.524 4.41781 -1.70665 0
M  V30 2686 H 248.948 5.34139 -4.15962 0
M  V30 2687 H 253.59 3.89647 -1.6412 0
M  V30 2688 H 251.308 5.72981 -5.6984 0
M  V30 2689 H 254.894 4.53615 -3.64314 0
M  V30 2690 H 253.774 5.44301 -5.64541 0
M  V30 2691 N 251.277 0.427512 1.51691 0
M  V30 2692 C 252.688 -0.0378867 1.86662 0
M  V30 2693 C 253.039 -1.42819 1.34525 0
M  V30 2694 O 252.164 -2.05037 0.692014 0
M  V30 2695 C 252.759 -0.0755266 3.38716 0
M  V30 2696 C 251.318 -0.485309 3.73258 0
M  V30 2697 C 250.465 0.328399 2.75349 0
M  V30 2698 H 253.416 0.64379 1.45055 0
M  V30 2699 H 253.437 -0.887056 3.70016 0
M  V30 2700 H 252.949 0.936487 3.76632 0
M  V30 2701 H 251.05 -1.50329 3.40928 0
M  V30 2702 H 251.163 -0.21693 4.78609 0
M  V30 2703 H 249.527 -0.211905 2.53817 0
M  V30 2704 H 250.31 1.3391 3.16106 0
M  V30 2705 N 252.755 -1.56801 0.158532 0
M  V30 2706 C 254.004 -1.95665 -0.489702 0
M  V30 2707 C 254.317 -1.04654 -1.65248 0
M  V30 2708 O 255.523 -1.33146 -2.3661 0
M  V30 2709 C 253.979 -3.47874 -0.922582 0
M  V30 2710 C 253.587 -4.47489 0.213893 0
M  V30 2711 C 255.331 -3.95583 -1.53996 0
M  V30 2712 C 253.238 -5.90921 -0.237903 0
M  V30 2713 H 252.168 -0.730516 -0.186716 0
M  V30 2714 H 254.819 -1.81861 0.244722 0
M  V30 2715 H 253.201 -3.57051 -1.71261 0
M  V30 2716 H 254.375 -4.50017 0.991036 0
M  V30 2717 H 252.69 -4.09764 0.740407 0
M  V30 2718 H 255.287 -5.0019 -1.8898 0
M  V30 2719 H 255.63 -3.37789 -2.43319 0
M  V30 2720 H 256.163 -3.8937 -0.814611 0
M  V30 2721 H 252.902 -6.52559 0.620236 0
M  V30 2722 H 252.422 -5.91729 -0.980676 0
M  V30 2723 H 254.101 -6.43352 -0.686067 0
M  V30 2724 N 254.233 0.115231 -1.57178 0
M  V30 2725 C 255.165 1.16694 -1.97269 0
M  V30 2726 C 256.178 1.37445 -0.872502 0
M  V30 2727 O 257.367 1.36454 -1.15077 0
M  V30 2728 C 254.467 2.52627 -2.25905 0
M  V30 2729 C 253.64 2.52427 -3.57211 0
M  V30 2730 C 252.699 3.70134 -3.74016 0
M  V30 2731 O 251.725 3.53546 -4.46087 0
M  V30 2732 N 252.927 4.88844 -3.13068 0
M  V30 2733 H 255.692 0.82588 -2.88096 0
M  V30 2734 H 253.253 0.304461 -1.59011 0
M  V30 2735 H 255.245 3.29937 -2.34359 0
M  V30 2736 H 253.815 2.789 -1.41186 0
M  V30 2737 H 253.035 1.60805 -3.5991 0
M  V30 2738 H 254.323 2.49353 -4.43509 0
M  V30 2739 H 253.721 5.05225 -2.54489 0
M  V30 2740 H 252.278 5.63817 -3.27037 0
M  V30 2741 N 255.711 1.52812 0.385517 0
M  V30 2742 C 256.936 1.72207 1.15583 0
M  V30 2743 C 257.361 0.441034 1.82857 0
M  V30 2744 O 256.719 -0.603465 1.70962 0
M  V30 2745 C 256.767 2.87476 2.17692 0
M  V30 2746 O 255.871 2.54693 3.24354 0
M  V30 2747 H 255.212 0.572526 0.336319 0
M  V30 2748 H 257.742 1.99618 0.448744 0
M  V30 2749 H 257.752 3.13072 2.6163 0
M  V30 2750 H 256.427 3.80408 1.68115 0
M  V30 2751 H 255.004 2.3985 2.85529 0
M  V30 2752 N 257.189 -0.644168 1.43834 0
M  V30 2753 C 258.437 -1.40117 1.45642 0
M  V30 2754 C 258.758 -1.94814 0.0852413 0
M  V30 2755 O 258.028 -1.74988 -0.880688 0
M  V30 2756 H 256.608 -0.52005 0.536243 0
M  V30 2757 H 259.27 -0.7591 1.7951 0
M  V30 2758 H 258.366 -2.23902 2.17427 0
M  V30 2759 N 258.668 -1.30515 -0.883378 0
M  V30 2760 C 259.917 -1.18795 -1.63005 0
M  V30 2761 C 260.23 0.255923 -1.93919 0
M  V30 2762 O 261.436 0.494654 -2.66956 0
M  V30 2763 C 259.892 -2.07878 -2.93794 0
M  V30 2764 C 259.5 -3.57184 -2.70414 0
M  V30 2765 C 261.244 -2.04924 -3.71761 0
M  V30 2766 C 259.151 -4.38317 -3.97029 0
M  V30 2767 H 258.081 -0.441031 -0.611562 0
M  V30 2768 H 260.732 -1.55275 -0.977854 0
M  V30 2769 H 259.114 -1.64283 -3.60315 0
M  V30 2770 H 260.288 -4.08937 -2.12384 0
M  V30 2771 H 258.603 -3.61976 -2.0582 0
M  V30 2772 H 261.2 -2.62792 -4.65665 0
M  V30 2773 H 261.543 -1.0331 -4.03277 0
M  V30 2774 H 262.076 -2.46649 -3.12104 0
M  V30 2775 H 258.815 -5.40632 -3.70671 0
M  V30 2776 H 258.335 -3.91326 -4.54559 0
M  V30 2777 H 260.014 -4.49834 -4.65036 0
M  V30 2778 N 260.146 1.09593 -1.13257 0
M  V30 2779 C 261.076 2.18214 -0.830946 0
M  V30 2780 C 262.057 1.68812 0.208966 0
M  V30 2781 O 263.242 1.9408 0.0682666 0
M  V30 2782 C 260.372 3.46051 -0.294296 0
M  V30 2783 C 259.326 4.08778 -1.26826 0
M  V30 2784 C 258.652 5.31419 -0.591449 0
M  V30 2785 C 259.952 4.51476 -2.62615 0
M  V30 2786 H 261.646 2.43703 -1.73923 0
M  V30 2787 H 259.192 1.17128 -0.837675 0
M  V30 2788 H 261.145 4.2134 -0.0709606 0
M  V30 2789 H 259.869 3.20079 0.649366 0
M  V30 2790 H 258.528 3.35505 -1.47756 0
M  V30 2791 H 258.176 5.01727 0.357633 0
M  V30 2792 H 257.876 5.74341 -1.24123 0
M  V30 2793 H 259.4 6.09433 -0.377355 0
M  V30 2794 H 260.814 5.17999 -2.45663 0
M  V30 2795 H 259.211 5.05277 -3.23752 0
M  V30 2796 H 260.281 3.63962 -3.20406 0
M  V30 2797 N 261.624 0.925811 1.2754 0
M  V30 2798 C 262.574 0.394488 2.24561 0
M  V30 2799 C 263.558 -0.500183 1.52928 0
M  V30 2800 O 264.75 -0.337936 1.73744 0
M  V30 2801 C 261.879 -0.353328 3.41477 0
M  V30 2802 C 260.965 0.557752 4.20416 0
M  V30 2803 N 261.356 1.67674 4.77199 0
M  V30 2804 C 259.654 0.360404 4.44541 0
M  V30 2805 C 260.355 2.24324 5.36706 0
M  V30 2806 N 259.331 1.53305 5.21535 0
M  V30 2807 H 263.133 1.2489 2.66045 0
M  V30 2808 H 260.647 0.779864 1.4245 0
M  V30 2809 H 262.644 -0.7509 4.10082 0
M  V30 2810 H 261.304 -1.20469 3.01525 0
M  V30 2811 H 262.315 2.05915 4.75204 0
M  V30 2812 H 258.992 -0.450454 4.15063 0
M  V30 2813 H 260.382 3.18521 5.91603 0
M  V30 2814 N 263.102 -1.41638 0.69111 0
M  V30 2815 C 264.349 -2.01299 0.220193 0
M  V30 2816 C 264.677 -1.54715 -1.17871 0
M  V30 2817 O 263.932 -0.747193 -1.80874 0
M  V30 2818 C 264.231 -3.56714 0.221277 0
M  V30 2819 C 263.897 -4.22792 1.56709 0
M  V30 2820 C 262.559 -4.40557 1.93554 0
M  V30 2821 C 264.911 -4.59883 2.45268 0
M  V30 2822 C 262.239 -4.92688 3.18552 0
M  V30 2823 C 264.591 -5.13403 3.69595 0
M  V30 2824 C 263.255 -5.29379 4.06589 0
M  V30 2825 H 262.525 -0.736606 0.0805743 0
M  V30 2826 H 265.172 -1.69598 0.889319 0
M  V30 2827 H 263.477 -3.8818 -0.531391 0
M  V30 2828 H 265.174 -4.00678 -0.160547 0
M  V30 2829 H 261.764 -4.09336 1.2705 0
M  V30 2830 H 265.948 -4.45817 2.18084 0
M  V30 2831 H 261.204 -5.03242 3.47214 0
M  V30 2832 H 265.378 -5.41084 4.38407 0
M  V30 2833 H 263.005 -5.69537 5.03519 0
M  V30 2834 N 264.58 -0.43555 -1.51462 0
M  V30 2835 C 265.82 0.130708 -2.03982 0
M  V30 2836 C 266.184 1.40117 -1.31268 0
M  V30 2837 O 267.385 2.04755 -1.74152 0
M  V30 2838 C 265.656 0.346102 -3.5572 0
M  V30 2839 S 267.215 0.876022 -4.29967 0
M  V30 2840 H 264.033 0.0326881 -0.710248 0
M  V30 2841 H 266.635 -0.594544 -1.8624 0
M  V30 2842 H 265.339 -0.584911 -4.0621 0
M  V30 2843 H 264.87 1.09849 -3.77752 0
M  V30 2844 H 266.885 2.15379 -4.47019 0
M  V30 2845 N 266.058 1.56714 -0.166846 0
M  V30 2846 C 267.306 1.96358 0.478305 0
M  V30 2847 C 267.627 1.0537 1.6408 0
M  V30 2848 O 266.897 0.119154 1.95537 0
M  V30 2849 H 265.477 0.725065 0.179692 0
M  V30 2850 H 268.139 1.93329 -0.246985 0
M  V30 2851 H 267.235 3.00547 0.841292 0
M  V30 2852 N 267.536 -0.106894 1.57237 0
M  V30 2853 C 268.783 -0.812526 1.85484 0
M  V30 2854 C 269.111 -1.79304 0.753687 0
M  V30 2855 O 268.366 -1.94047 -0.253853 0
M  V30 2856 C 268.665 -1.58628 3.20268 0
M  V30 2857 C 268.331 -0.748967 4.44636 0
M  V30 2858 C 266.993 -0.518104 4.78403 0
M  V30 2859 C 269.345 -0.166122 5.20935 0
M  V30 2860 C 266.673 0.305659 5.85903 0
M  V30 2861 C 269.025 0.644899 6.29304 0
M  V30 2862 C 267.689 0.885965 6.61594 0
M  V30 2863 H 266.959 -0.297324 0.678734 0
M  V30 2864 H 269.606 -0.0744332 1.91355 0
M  V30 2865 H 267.911 -2.39562 3.10028 0
M  V30 2866 H 269.608 -2.13643 3.39349 0
M  V30 2867 H 266.198 -0.939006 4.18187 0
M  V30 2868 H 270.382 -0.33167 4.95191 0
M  V30 2869 H 265.638 0.501528 6.0934 0
M  V30 2870 H 269.812 1.10345 6.87602 0
M  V30 2871 H 267.439 1.52609 7.44725 0
M  V30 2872 N 269.014 -1.53014 -0.377408 0
M  V30 2873 C 269.946 -1.74884 -1.48149 0
M  V30 2874 C 270.959 -0.629433 -1.5014 0
M  V30 2875 O 272.148 -0.905416 -1.53833 0
M  V30 2876 C 269.248 -1.80299 -2.86959 0
M  V30 2877 C 268.421 -3.09776 -3.08801 0
M  V30 2878 C 267.48 -3.06586 -4.27658 0
M  V30 2879 O 266.506 -3.80419 -4.23403 0
M  V30 2880 N 267.708 -2.26578 -5.34455 0
M  V30 2881 H 270.473 -2.70147 -1.29771 0
M  V30 2882 H 268.034 -1.51646 -0.56703 0
M  V30 2883 H 270.026 -1.75657 -3.64591 0
M  V30 2884 H 268.596 -0.92372 -2.98641 0
M  V30 2885 H 267.816 -3.27815 -2.18931 0
M  V30 2886 H 269.104 -3.95366 -3.20255 0
M  V30 2887 H 268.502 -1.66081 -5.40771 0
M  V30 2888 H 267.059 -2.27766 -6.10709 0
M  V30 2889 N 270.492 0.636531 -1.44174 0
M  V30 2890 C 271.738 1.39826 -1.4689 0
M  V30 2891 C 272.071 1.93947 -0.0990585 0
M  V30 2892 O 271.346 1.73325 0.882544 0
M  V30 2893 C 271.629 2.56751 -2.5249 0
M  V30 2894 C 271.482 2.08014 -3.98811 0
M  V30 2895 C 272.801 3.58946 -2.54649 0
M  V30 2896 H 269.92 0.507075 -0.53483 0
M  V30 2897 H 272.562 0.720188 -1.75822 0
M  V30 2898 H 270.712 3.14597 -2.2795 0
M  V30 2899 H 272.384 1.5504 -4.34466 0
M  V30 2900 H 270.627 1.39242 -4.10846 0
M  V30 2901 H 271.298 2.92169 -4.68339 0
M  V30 2902 H 273.774 3.1089 -2.76563 0
M  V30 2903 H 272.65 4.38286 -3.3045 0
M  V30 2904 H 272.911 4.12655 -1.58646 0
M  V30 2905 N 271.97 1.30982 0.876444 0
M  V30 2906 C 272.9 1.20668 1.99903 0
M  V30 2907 C 273.881 0.095354 1.69833 0
M  V30 2908 O 275.066 0.27885 1.92188 0
M  V30 2909 C 272.196 0.90655 3.3526 0
M  V30 2910 C 271.15 1.97675 3.79617 0
M  V30 2911 C 270.476 1.52943 5.1236 0
M  V30 2912 C 271.776 3.389 3.97422 0
M  V30 2913 H 273.47 2.14586 2.0879 0
M  V30 2914 H 271.016 1.03308 1.00317 0
M  V30 2915 H 272.969 0.821025 4.13324 0
M  V30 2916 H 271.693 -0.0682969 3.26529 0
M  V30 2917 H 270.352 2.05205 3.03787 0
M  V30 2918 H 270 0.54262 5.00065 0
M  V30 2919 H 269.7 2.24532 5.43009 0
M  V30 2920 H 271.224 1.45786 5.92941 0
M  V30 2921 H 272.638 3.34081 4.659 0
M  V30 2922 H 271.035 4.0865 4.3946 0
M  V30 2923 H 272.105 3.80163 3.01006 0
M  V30 2924 N 273.449 -1.08991 1.13837 0
M  V30 2925 C 274.359 -2.19301 0.833333 0
M  V30 2926 C 275.375 -1.73026 -0.183847 0
M  V30 2927 O 276.551 -2.01395 -0.0138092 0
M  V30 2928 C 273.616 -3.45323 0.308651 0
M  V30 2929 C 272.677 -4.06255 1.38764 0
M  V30 2930 C 271.91 -5.26262 0.887896 0
M  V30 2931 O 272.133 -5.69747 -0.27287 0
M  V30 2932 O 271.067 -5.78435 1.66421 0
M  V30 2933 H 274.893 -2.47854 1.75506 0
M  V30 2934 H 272.478 -1.18012 0.916166 0
M  V30 2935 H 274.36 -4.21394 0.0216739 0
M  V30 2936 H 273.035 -3.18362 -0.585431 0
M  V30 2937 H 271.942 -3.318 1.72799 0
M  V30 2938 H 273.275 -4.37452 2.25602 0
M  V30 2939 N 274.927 -0.932562 -1.27047 0
M  V30 2940 C 276.338 -0.619451 -1.76124 0
M  V30 2941 C 276.689 0.865397 -1.76083 0
M  V30 2942 O 275.814 1.67722 -1.36742 0
M  V30 2943 C 276.409 -1.11771 -3.19832 0
M  V30 2944 C 274.968 -0.855174 -3.66557 0
M  V30 2945 C 274.115 -1.27362 -2.46321 0
M  V30 2946 H 277.066 -1.11181 -1.13245 0
M  V30 2947 H 277.087 -0.46759 -3.77616 0
M  V30 2948 H 276.599 -2.19842 -3.1983 0
M  V30 2949 H 274.7 0.211524 -3.71999 0
M  V30 2950 H 274.813 -1.47613 -4.55793 0
M  V30 2951 H 273.177 -0.692119 -2.45116 0
M  V30 2952 H 273.96 -2.36307 -2.49025 0
M  V30 2953 N 276.405 1.4127 -0.698611 0
M  V30 2954 C 277.337 2.292 0.00399731 0
M  V30 2955 C 278.35 1.44944 0.741279 0
M  V30 2956 O 279.539 1.68416 0.591477 0
M  V30 2957 C 276.639 3.22875 1.02979 0
M  V30 2958 C 275.812 4.35904 0.36151 0
M  V30 2959 C 274.871 5.10134 1.29033 0
M  V30 2960 O 273.897 5.63809 0.781562 0
M  V30 2961 N 275.099 5.17885 2.6225 0
M  V30 2962 H 277.864 2.9014 -0.750921 0
M  V30 2963 H 275.425 1.52455 -0.544882 0
M  V30 2964 H 277.417 3.69404 1.65296 0
M  V30 2965 H 275.987 2.63221 1.68622 0
M  V30 2966 H 275.207 3.91719 -0.441584 0
M  V30 2967 H 276.495 5.08696 -0.103055 0
M  V30 2968 H 275.893 4.7573 3.061 0
M  V30 2969 H 274.45 5.6798 3.19754 0
M  V30 2970 N 277.883 0.443576 1.51229 0
M  V30 2971 C 278.813 -0.355142 2.30783 0
M  V30 2972 C 279.794 -1.0154 1.36468 0
M  V30 2973 O 280.979 -1.01785 1.65389 0
M  V30 2974 C 278.109 -1.45312 3.15439 0
M  V30 2975 C 277.063 -0.916002 4.18083 0
M  V30 2976 C 276.389 -2.1102 4.91299 0
M  V30 2977 C 277.689 0.0538602 5.22272 0
M  V30 2978 H 279.383 0.308767 2.97804 0
M  V30 2979 H 276.929 0.149937 1.43217 0
M  V30 2980 H 278.882 -2.01914 3.69876 0
M  V30 2981 H 277.606 -2.14541 2.46252 0
M  V30 2982 H 276.265 -0.372145 3.64706 0
M  V30 2983 H 275.913 -2.78882 4.18609 0
M  V30 2984 H 275.613 -1.75717 5.60712 0
M  V30 2985 H 277.137 -2.68164 5.48562 0
M  V30 2986 H 278.551 -0.422069 5.71744 0
M  V30 2987 H 276.948 0.319776 5.99247 0
M  V30 2988 H 278.018 0.98858 4.74716 0
M  V30 2989 N 279.361 -1.56624 0.175154 0
M  V30 2990 C 280.589 -2.01374 -0.474971 0
M  V30 2991 C 281.004 -1.05537 -1.56548 0
M  V30 2992 O 280.361 -0.0568668 -1.82411 0
M  V30 2993 C 280.412 -3.45923 -1.04975 0
M  V30 2994 O 280.133 -4.381 -0.00276605 0
M  V30 2995 C 281.634 -4.06093 -1.77773 0
M  V30 2996 H 278.854 -0.659962 -0.121206 0
M  V30 2997 H 281.398 -2.02601 0.27801 0
M  V30 2998 H 279.553 -3.45458 -1.75321 0
M  V30 2999 H 279.967 -5.22753 -0.427681 0
M  V30 3000 H 281.441 -5.09147 -2.13245 0
M  V30 3001 H 281.918 -3.48405 -2.67414 0
M  V30 3002 H 282.524 -4.10272 -1.12059 0
M  V30 3003 N 280.839 0.0985539 -1.57292 0
M  V30 3004 C 282.069 0.815135 -1.8984 0
M  V30 3005 C 282.477 1.7297 -0.766679 0
M  V30 3006 O 281.82 1.81698 0.270483 0
M  V30 3007 C 281.882 1.6842 -3.17608 0
M  V30 3008 C 281.546 0.94182 -4.4719 0
M  V30 3009 C 282.543 0.273212 -5.19182 0
M  V30 3010 C 280.228 0.916927 -4.9386 0
M  V30 3011 C 282.222 -0.410361 -6.36078 0
M  V30 3012 C 279.909 0.229567 -6.10669 0
M  V30 3013 C 280.907 -0.432902 -6.81627 0
M  V30 3014 O 280.595 -1.10925 -7.9621 0
M  V30 3015 H 280.327 0.238501 -0.632529 0
M  V30 3016 H 282.881 0.0812659 -2.05239 0
M  V30 3017 H 281.111 2.46022 -2.98345 0
M  V30 3018 H 282.8 2.27704 -3.36015 0
M  V30 3019 H 283.566 0.283927 -4.84168 0
M  V30 3020 H 279.445 1.42201 -4.3852 0
M  V30 3021 H 282.989 -0.928013 -6.914 0
M  V30 3022 H 278.886 0.216686 -6.45136 0
M  V30 3023 H 279.654 -1.01579 -8.12172 0
M  V30 3024 N 282.317 1.53212 0.369288 0
M  V30 3025 C 283.542 1.73423 1.1375 0
M  V30 3026 C 283.967 0.460404 1.82378 0
M  V30 3027 O 283.325 -0.585298 1.71592 0
M  V30 3028 C 283.373 2.89769 2.1463 0
M  V30 3029 O 282.477 2.58119 3.21634 0
M  V30 3030 H 281.818 0.576061 0.330227 0
M  V30 3031 H 284.348 2.00083 0.427547 0
M  V30 3032 H 284.358 3.15829 2.58294 0
M  V30 3033 H 283.033 3.8217 1.64071 0
M  V30 3034 H 281.61 2.42864 2.82969 0
M  V30 3035 N 283.795 -0.628877 1.44509 0
M  V30 3036 C 285.044 -1.38437 1.4669 0
M  V30 3037 C 285.357 -1.95322 0.104272 0
M  V30 3038 O 286.563 -2.715 0.00362163 0
M  V30 3039 C 285.019 -2.50659 2.5826 0
M  V30 3040 C 284.627 -2.00277 4.0074 0
M  V30 3041 C 286.371 -3.27844 2.69664 0
M  V30 3042 C 284.278 -3.09854 5.0373 0
M  V30 3043 H 283.208 -0.520245 0.545766 0
M  V30 3044 H 285.859 -0.676313 1.70582 0
M  V30 3045 H 284.241 -3.2405 2.27612 0
M  V30 3046 H 285.415 -1.33736 4.40966 0
M  V30 3047 H 283.73 -1.35901 3.93599 0
M  V30 3048 H 286.327 -4.09534 3.43781 0
M  V30 3049 H 286.67 -3.77471 1.75559 0
M  V30 3050 H 287.203 -2.61543 2.99733 0
M  V30 3051 H 283.942 -2.65168 5.99472 0
M  V30 3052 H 283.462 -3.7503 4.68095 0
M  V30 3053 H 285.141 -3.74592 5.27532 0
M  V30 3054 N 285.273 -1.31445 -0.869486 0
M  V30 3055 C 286.521 -1.20918 -1.61936 0
M  V30 3056 C 286.842 0.232683 -1.93607 0
M  V30 3057 O 286.112 1.15352 -1.58338 0
M  V30 3058 H 284.692 -0.44454 -0.600328 0
M  V30 3059 H 287.354 -1.64776 -1.0409 0
M  V30 3060 H 286.45 -1.78124 -2.56278 0
M  V30 3061 N 286.751 1.08385 -1.14413 0
M  V30 3062 C 287.701 2.13509 -0.79987 0
M  V30 3063 C 288.685 1.5951 0.211059 0
M  V30 3064 O 289.877 1.76995 0.0133694 0
M  V30 3065 C 287.006 3.42162 -0.279297 0
M  V30 3066 C 286.092 4.03042 -1.31976 0
M  V30 3067 N 286.483 4.38327 -2.52395 0
M  V30 3068 C 284.781 4.30379 -1.17004 0
M  V30 3069 C 285.482 4.86428 -3.19003 0
M  V30 3070 N 284.458 4.84547 -2.46405 0
M  V30 3071 H 288.26 2.38609 -1.7159 0
M  V30 3072 H 285.774 1.2572 -1.02802 0
M  V30 3073 H 287.771 4.16898 -0.0143688 0
M  V30 3074 H 286.431 3.18511 0.630923 0
M  V30 3075 H 287.442 4.29349 -2.89621 0
M  V30 3076 H 284.119 4.16281 -0.318854 0
M  V30 3077 H 285.509 5.23107 -4.21674 0
M  V30 3078 N 288.23 0.939286 1.26551 0
M  V30 3079 C 289.458 0.602536 1.97932 0
M  V30 3080 C 289.873 -0.82206 1.69964 0
M  V30 3081 O 289.23 -1.54789 0.966784 0
M  V30 3082 C 289.281 0.832946 3.51773 0
M  V30 3083 O 289.002 2.20151 3.78768 0
M  V30 3084 C 290.503 0.506483 4.40397 0
M  V30 3085 H 287.723 0.227248 0.631347 0
M  V30 3086 H 290.267 1.25948 1.61113 0
M  V30 3087 H 288.422 0.222644 3.8676 0
M  V30 3088 H 288.836 2.26013 4.73306 0
M  V30 3089 H 290.31 0.718333 5.47306 0
M  V30 3090 H 290.787 -0.558451 4.35635 0
M  V30 3091 H 291.393 1.09543 4.10951 0
M  V30 3092 N 289.708 -1.40897 0.706093 0
M  V30 3093 C 291.119 -1.84023 0.315052 0
M  V30 3094 C 291.47 -1.5906 -1.14866 0
M  V30 3095 O 290.595 -1.06651 -1.88293 0
M  V30 3096 C 291.19 -3.34055 0.565038 0
M  V30 3097 C 289.749 -3.7571 0.227806 0
M  V30 3098 C 288.896 -2.64204 0.842122 0
M  V30 3099 H 291.847 -1.303 0.905963 0
M  V30 3100 H 291.868 -3.80107 -0.172843 0
M  V30 3101 H 291.38 -3.52192 1.63042 0
M  V30 3102 H 289.481 -3.63172 -0.832895 0
M  V30 3103 H 289.594 -4.74103 0.690174 0
M  V30 3104 H 287.958 -2.53255 0.270893 0
M  V30 3105 H 288.741 -2.85155 1.91158 0
M  V30 3106 N 291.186 -0.45159 -1.50991 0
M  V30 3107 C 292.149 0.341117 -2.26647 0
M  V30 3108 C 293.149 0.937422 -1.30649 0
M  V30 3109 O 294.339 0.809644 -1.54241 0
M  V30 3110 C 291.471 1.48398 -3.06905 0
M  V30 3111 H 292.664 -0.322117 -2.98165 0
M  V30 3112 H 290.217 -0.205122 -1.54948 0
M  V30 3113 H 290.952 2.18284 -2.39838 0
M  V30 3114 H 290.737 1.06241 -3.77432 0
M  V30 3115 H 292.227 2.04367 -3.64176 0
M  V30 3116 N 292.664 1.56529 -0.183458 0
M  V30 3117 C 293.941 1.88959 0.50536 0
M  V30 3118 C 294.321 1.09523 1.80466 0
M  V30 3119 O 293.669 0.19278 2.27685 0
M  V30 3120 C 293.879 3.41162 0.73547 0
M  V30 3121 C 295.227 4.11155 1.06005 0
M  V30 3122 O 296.251 3.46548 0.823594 0
M  V30 3123 O 295.11 5.25318 1.50675 0
M  V30 3124 H 292.204 0.78441 0.261973 0
M  V30 3125 H 294.75 1.68231 -0.222802 0
M  V30 3126 H 293.522 3.90874 -0.182561 0
M  V30 3127 H 293.145 3.67543 1.51651 0
M  V30 3128 N 294.142 -0.090211 1.57342 0
M  V30 3129 C 295.105 -1.09335 2.01441 0
M  V30 3130 C 296.105 -1.32666 0.908641 0
M  V30 3131 O 297.295 -1.28697 1.174 0
M  V30 3132 C 294.427 -2.44136 2.3793 0
M  V30 3133 H 295.62 -0.713662 2.91285 0
M  V30 3134 H 293.173 -0.335404 1.52659 0
M  V30 3135 H 293.908 -2.86972 1.51055 0
M  V30 3136 H 293.693 -2.28548 3.18603 0
M  V30 3137 H 295.183 -3.16277 2.72688 0
M  V30 3138 N 295.62 -1.53406 -0.361157 0
M  V30 3139 C 297.036 -1.43277 -0.703124 0
M  V30 3140 C 297.236 -0.575384 -1.9311 0
M  V30 3141 O 296.292 -0.0595362 -2.5243 0
M  V30 3142 C 297.605 -2.8653 -0.9122 0
M  V30 3143 C 299.153 -2.96191 -1.01193 0
M  V30 3144 C 299.628 -4.40514 -1.25345 0
M  V30 3145 N 301.119 -4.43962 -1.32105 0
M  V30 3146 C 301.854 -5.52746 -1.5251 0
M  V30 3147 N 301.35 -6.71567 -1.70203 0
M  V30 3148 N 303.143 -5.40331 -1.54916 0
M  V30 3149 H 295.294 -2.07654 0.446475 0
M  V30 3150 H 297.557 -0.937944 0.137715 0
M  V30 3151 H 297.263 -3.51605 -0.0816414 0
M  V30 3152 H 297.137 -3.30441 -1.81903 0
M  V30 3153 H 299.524 -2.31266 -1.83303 0
M  V30 3154 H 299.605 -2.55667 -0.0823929 0
M  V30 3155 H 299.249 -5.06014 -0.437346 0
M  V30 3156 H 299.179 -4.78614 -2.19627 0
M  V30 3157 H 301.67 -3.58332 -1.20028 0
M  V30 3158 H 301.983 -7.50241 -1.85359 0
M  V30 3159 H 300.328 -6.74545 -1.67373 0
M  V30 3160 H 303.519 -4.46465 -1.40663 0
M  V30 3161 H 303.692 -6.25173 -1.70477 0
M  V30 3162 N 297.098 0.621204 -1.44841 0
M  V30 3163 C 298.347 1.37658 -1.47422 0
M  V30 3164 C 298.66 1.95264 -0.114629 0
M  V30 3165 O 299.866 2.71494 -0.0180199 0
M  V30 3166 C 298.322 2.49285 -2.59586 0
M  V30 3167 C 297.93 1.98149 -4.01797 0
M  V30 3168 C 299.674 3.26409 -2.71399 0
M  V30 3169 C 297.581 3.07178 -5.05367 0
M  V30 3170 H 296.511 0.517344 -0.548517 0
M  V30 3171 H 299.162 0.667257 -1.70938 0
M  V30 3172 H 297.544 3.22839 -2.29328 0
M  V30 3173 H 298.718 1.31395 -4.41669 0
M  V30 3174 H 297.033 1.33812 -3.94314 0
M  V30 3175 H 299.63 4.07706 -3.45948 0
M  V30 3176 H 299.973 3.76535 -1.77559 0
M  V30 3177 H 300.506 2.5995 -3.01116 0
M  V30 3178 H 297.245 2.61985 -6.00869 0
M  V30 3179 H 296.765 3.72542 -4.70077 0
M  V30 3180 H 298.444 3.71789 -5.29511 0
M  V30 3181 N 298.576 1.31904 0.862503 0
M  V30 3182 C 299.508 1.16005 1.97675 0
M  V30 3183 C 300.521 0.0971234 1.6251 0
M  V30 3184 O 301.71 0.345337 1.75128 0
M  V30 3185 C 298.81 0.751791 3.30456 0
M  V30 3186 C 297.983 1.90133 3.93914 0
M  V30 3187 C 297.042 1.4779 5.05019 0
M  V30 3188 O 296.068 2.18872 5.25437 0
M  V30 3189 N 297.27 0.369491 5.79323 0
M  V30 3190 H 300.035 2.11982 2.11857 0
M  V30 3191 H 297.596 1.24337 1.03691 0
M  V30 3192 H 299.588 0.451084 4.02178 0
M  V30 3193 H 298.158 -0.116593 3.12382 0
M  V30 3194 H 297.378 2.36896 3.15078 0
M  V30 3195 H 298.666 2.67111 4.33047 0
M  V30 3196 H 298.064 -0.222299 5.65263 0
M  V30 3197 H 296.621 0.128354 6.51674 0
M  V30 3198 N 300.054 -1.07777 1.14986 0
M  V30 3199 C 301.303 -1.79669 0.916617 0
M  V30 3200 C 301.616 -1.87474 -0.557917 0
M  V30 3201 O 302.822 -2.55845 -0.908617 0
M  V30 3202 C 301.278 -3.22848 1.59051 0
M  V30 3203 C 300.886 -3.23257 3.10176 0
M  V30 3204 C 302.63 -3.99379 1.43864 0
M  V30 3205 C 300.537 -4.61063 3.70372 0
M  V30 3206 H 299.467 -0.673349 0.33929 0
M  V30 3207 H 302.118 -1.21003 1.37951 0
M  V30 3208 H 300.5 -3.8168 1.0553 0
M  V30 3209 H 301.674 -2.74095 3.70417 0
M  V30 3210 H 299.989 -2.60222 3.25074 0
M  V30 3211 H 302.586 -5.0122 1.86232 0
M  V30 3212 H 302.929 -4.14511 0.385564 0
M  V30 3213 H 303.462 -3.47032 1.94457 0
M  V30 3214 H 300.201 -4.51135 4.7556 0
M  V30 3215 H 299.721 -5.1048 3.14913 0
M  V30 3216 H 301.4 -5.30034 3.71043 0
M  V30 3217 N 301.532 -0.945985 -1.26051 0
M  V30 3218 C 302.462 -0.477172 -2.28572 0
M  V30 3219 C 303.443 0.472032 -1.63419 0
M  V30 3220 O 304.628 0.372853 -1.90587 0
M  V30 3221 C 301.758 0.253975 -3.4637 0
M  V30 3222 C 300.712 -0.609135 -4.23643 0
M  V30 3223 C 300.038 0.252252 -5.34105 0
M  V30 3224 C 301.338 -1.8829 -4.8718 0
M  V30 3225 H 303.032 -1.33402 -2.68038 0
M  V30 3226 H 300.578 -0.642904 -1.28852 0
M  V30 3227 H 302.531 0.593016 -4.17207 0
M  V30 3228 H 301.255 1.145 -3.05871 0
M  V30 3229 H 299.914 -0.931138 -3.54578 0
M  V30 3230 H 299.562 1.14278 -4.89846 0
M  V30 3231 H 299.262 -0.32188 -5.86718 0
M  V30 3232 H 300.786 0.586454 -6.07777 0
M  V30 3233 H 302.2 -1.61081 -5.50205 0
M  V30 3234 H 300.597 -2.40199 -5.49931 0
M  V30 3235 H 301.667 -2.59134 -4.09851 0
M  V30 3236 N 303.011 1.40521 -0.713556 0
M  V30 3237 C 303.921 2.34522 -0.0606667 0
M  V30 3238 C 304.937 1.57193 0.74607 0
M  V30 3239 O 306.113 1.89591 0.679493 0
M  V30 3240 C 303.178 3.36081 0.851491 0
M  V30 3241 C 302.239 4.29286 0.0349339 0
M  V30 3242 C 301.472 5.25994 0.903649 0
M  V30 3243 O 301.695 5.28616 2.14292 0
M  V30 3244 O 300.629 6.00918 0.343723 0
M  V30 3245 H 304.455 2.91968 -0.835972 0
M  V30 3246 H 302.04 1.41681 -0.47402 0
M  V30 3247 H 303.922 3.98369 1.37404 0
M  V30 3248 H 302.597 2.81052 1.60598 0
M  V30 3249 H 301.504 3.70289 -0.532633 0
M  V30 3250 H 302.837 4.87462 -0.681287 0
M  V30 3251 N 304.489 0.459591 1.5075 0
M  V30 3252 C 305.737 -0.0991532 2.01857 0
M  V30 3253 C 306.058 -1.41247 1.34441 0
M  V30 3254 O 305.328 -1.89775 0.486022 0
M  V30 3255 H 303.908 -0.039633 0.745948 0
M  V30 3256 H 306.57 0.607387 1.85194 0
M  V30 3257 H 305.666 -0.258998 3.11023 0
M  V30 3258 N 305.967 -1.56429 0.191757 0
M  V30 3259 C 307.213 -1.98541 -0.441943 0
M  V30 3260 C 307.568 -1.07646 -1.59468 0
M  V30 3261 O 306.861 -0.120191 -1.91223 0
M  V30 3262 C 307.055 -3.44449 -0.953384 0
M  V30 3263 C 306.884 -4.49456 0.148262 0
M  V30 3264 C 305.654 -5.01668 0.604781 0
M  V30 3265 C 307.852 -5.05336 0.95602 0
M  V30 3266 N 305.834 -5.90334 1.6846 0
M  V30 3267 C 307.205 -5.9064 1.88531 0
M  V30 3268 C 309.26 -4.87779 0.998811 0
M  V30 3269 C 307.963 -6.60264 2.85383 0
M  V30 3270 C 309.989 -5.58139 1.95537 0
M  V30 3271 C 309.351 -6.43187 2.8721 0
M  V30 3272 H 305.45 -0.771247 -0.129236 0
M  V30 3273 H 308.034 -1.92426 0.296682 0
M  V30 3274 H 306.205 -3.5107 -1.66146 0
M  V30 3275 H 307.937 -3.73533 -1.55741 0
M  V30 3276 H 304.692 -4.73183 0.198736 0
M  V30 3277 H 305.116 -6.39371 2.22561 0
M  V30 3278 H 309.758 -4.21705 0.304048 0
M  V30 3279 H 307.476 -7.25538 3.55837 0
M  V30 3280 H 311.062 -5.46532 1.99484 0
M  V30 3281 H 309.942 -6.96674 3.60022 0
M  V30 3282 N 307.445 0.0818655 -1.57387 0
M  V30 3283 C 308.392 1.09834 -2.0299 0
M  V30 3284 C 309.362 1.39043 -0.908639 0
M  V30 3285 O 310.547 1.50282 -1.17559 0
M  V30 3286 C 307.687 2.40971 -2.47037 0
M  V30 3287 C 306.8 2.18379 -3.7274 0
M  V30 3288 C 305.935 3.43008 -4.0561 0
M  V30 3289 C 304.974 3.15736 -5.24383 0
M  V30 3290 N 304.111 4.32667 -5.52941 0
M  V30 3291 H 308.951 0.702472 -2.89602 0
M  V30 3292 H 306.488 0.33531 -1.43227 0
M  V30 3293 H 308.446 3.1752 -2.70623 0
M  V30 3294 H 307.076 2.78379 -1.63417 0
M  V30 3295 H 306.128 1.32569 -3.56552 0
M  V30 3296 H 307.44 1.94227 -4.59431 0
M  V30 3297 H 306.594 4.27958 -4.30043 0
M  V30 3298 H 305.333 3.70225 -3.17466 0
M  V30 3299 H 304.338 2.2918 -4.99757 0
M  V30 3300 H 305.563 2.8985 -6.14136 0
M  V30 3301 H 303.509 4.59935 -4.67756 0
M  V30 3302 H 303.426 4.11753 -6.34031 0
M  V30 3303 H 304.694 5.18644 -5.81918 0
M  V30 3304 N 308.923 1.53595 0.353017 0
M  V30 3305 C 309.87 1.80919 1.43308 0
M  V30 3306 C 310.84 0.654288 1.5267 0
M  V30 3307 O 312.025 0.897759 1.6836 0
M  V30 3308 C 309.165 2.01605 2.80089 0
M  V30 3309 C 308.278 3.29321 2.79593 0
M  V30 3310 C 307.413 3.40125 4.0803 0
M  V30 3311 C 306.452 4.61826 4.01725 0
M  V30 3312 N 305.589 4.69716 5.21834 0
M  V30 3313 H 310.429 2.73074 1.19308 0
M  V30 3314 H 307.966 1.35263 0.578131 0
M  V30 3315 H 309.924 2.11586 3.59565 0
M  V30 3316 H 308.554 1.12772 3.0246 0
M  V30 3317 H 307.606 3.28229 1.92276 0
M  V30 3318 H 308.918 4.18884 2.70809 0
M  V30 3319 H 308.072 3.49488 4.95927 0
M  V30 3320 H 306.811 2.48601 4.19582 0
M  V30 3321 H 305.816 4.52552 3.12213 0
M  V30 3322 H 307.041 5.54705 3.91764 0
M  V30 3323 H 304.987 3.81097 5.33948 0
M  V30 3324 H 304.904 5.53202 5.1527 0
M  V30 3325 H 306.172 4.83376 6.11529 0
M  V30 3326 N 310.401 -0.613514 1.45168 0
M  V30 3327 C 311.817 -0.933629 1.29443 0
M  V30 3328 C 312.017 -2.00028 0.243101 0
M  V30 3329 O 311.073 -2.49848 -0.364992 0
M  V30 3330 C 312.386 -1.38018 2.67155 0
M  V30 3331 C 313.934 -1.49471 2.75004 0
M  V30 3332 C 314.409 -1.97503 4.13227 0
M  V30 3333 N 315.9 -2.04746 4.15491 0
M  V30 3334 C 316.635 -2.43121 5.19307 0
M  V30 3335 N 316.131 -2.80506 6.33473 0
M  V30 3336 N 317.924 -2.43408 5.06664 0
M  V30 3337 H 310.075 0.0916097 2.12202 0
M  V30 3338 H 312.338 -0.0216655 0.947752 0
M  V30 3339 H 312.044 -0.670625 3.45247 0
M  V30 3340 H 311.918 -2.34784 2.95222 0
M  V30 3341 H 314.305 -2.19519 1.9722 0
M  V30 3342 H 314.386 -0.510342 2.50657 0
M  V30 3343 H 314.03 -1.28045 4.91495 0
M  V30 3344 H 313.96 -2.96843 4.34962 0
M  V30 3345 H 316.451 -1.78468 3.33103 0
M  V30 3346 H 316.764 -3.08652 7.08487 0
M  V30 3347 H 315.109 -2.78216 6.36884 0
M  V30 3348 H 318.3 -2.13604 4.16523 0
M  V30 3349 H 318.473 -2.72989 5.87691 0
M  V30 3350 N 311.879 -1.3236 -0.855495 0
M  V30 3351 C 312.809 -1.23833 -1.97958 0
M  V30 3352 C 313.79 -0.122361 -1.69659 0
M  V30 3353 O 314.975 -0.30939 -1.9172 0
M  V30 3354 C 312.105 -0.959772 -3.33775 0
M  V30 3355 C 311.059 -2.03689 -3.76424 0
M  V30 3356 C 310.385 -1.61075 -5.09862 0
M  V30 3357 C 311.685 -3.4518 -3.9198 0
M  V30 3358 H 313.379 -2.1788 -2.0535 0
M  V30 3359 H 310.925 -1.04891 -0.986605 0
M  V30 3360 H 312.878 -0.886678 -4.11966 0
M  V30 3361 H 311.602 0.0163404 -3.26596 0
M  V30 3362 H 310.261 -2.10012 -3.00484 0
M  V30 3363 H 309.909 -0.622107 -4.99138 0
M  V30 3364 H 309.609 -2.33143 -5.39368 0
M  V30 3365 H 311.133 -1.55201 -5.90546 0
M  V30 3366 H 312.547 -3.4145 -4.60526 0
M  V30 3367 H 310.944 -4.1559 -4.32903 0
M  V30 3368 H 312.014 -3.84903 -2.94919 0
M  V30 3369 N 313.357 1.07166 -1.15556 0
M  V30 3370 C 314.267 2.17947 -0.868116 0
M  V30 3371 C 315.283 1.73297 0.156297 0
M  V30 3372 O 316.459 2.01392 -0.0182327 0
M  V30 3373 C 313.524 3.44789 -0.36355 0
M  V30 3374 C 312.585 4.03996 -1.45209 0
M  V30 3375 C 311.818 5.24783 -0.971508 0
M  V30 3376 O 312.041 5.70109 0.182194 0
M  V30 3377 O 310.975 5.75715 -1.75603 0
M  V30 3378 H 314.801 2.4503 -1.79427 0
M  V30 3379 H 312.386 1.16539 -0.934824 0
M  V30 3380 H 314.268 4.21307 -0.0887113 0
M  V30 3381 H 312.943 3.19253 0.534708 0
M  V30 3382 H 311.85 3.29009 -1.78056 0
M  V30 3383 H 313.183 4.33808 -2.32533 0
M  V30 3384 N 314.835 0.952656 1.25548 0
M  V30 3385 C 315.783 0.462354 2.27958 0
M  V30 3386 C 316.777 -0.46634 1.62855 0
M  V30 3387 O 317.983 -0.343287 1.76696 0
M  V30 3388 H 314.358 0.13101 0.7405 0
M  V30 3389 H 316.329 1.33839 2.66702 0
M  V30 3390 C 315.078 -0.24628 3.46827 0
M  V30 3391 H 314.401 0.459192 3.97154 0
M  V30 3392 H 315.841 -0.553393 4.20373 0
M  V30 3393 C 314.3 -1.4681 3.0323 0
M  V30 3394 O 314.83 -2.56591 3.09069 0
M  V30 3395 N 313.036 -1.32874 2.58443 0
M  V30 3396 H 312.583 -0.435536 2.53891 0
M  V30 3397 H 312.541 -2.14742 2.29637 0
M  V30 3398 N 316.313 -1.40141 0.720998 0
M  V30 3399 C 317.562 -2.0002 0.259804 0
M  V30 3400 C 317.875 -1.57839 -1.15526 0
M  V30 3401 O 319.081 -2.10455 -1.71525 0
M  V30 3402 C 317.537 -3.57516 0.413566 0
M  V30 3403 C 317.145 -4.08667 1.83562 0
M  V30 3404 C 318.889 -4.24498 0.0134387 0
M  V30 3405 C 316.796 -5.58686 1.93968 0
M  V30 3406 H 315.726 -0.748195 0.0933806 0
M  V30 3407 H 318.377 -1.60313 0.892866 0
M  V30 3408 H 316.759 -3.9495 -0.288169 0
M  V30 3409 H 317.933 -3.82598 2.56817 0
M  V30 3410 H 316.248 -3.543 2.1877 0
M  V30 3411 H 318.845 -5.34654 0.0703954 0
M  V30 3412 H 319.188 -4.03375 -1.02927 0
M  V30 3413 H 319.721 -3.92188 0.665815 0
M  V30 3414 H 316.46 -5.8467 2.96379 0
M  V30 3415 H 315.98 -5.86602 1.25131 0
M  V30 3416 H 317.659 -6.23875 1.71431 0
M  V30 3417 N 317.792 -0.46758 -1.50504 0
M  V30 3418 C 319.038 0.0808869 -2.03239 0
M  V30 3419 C 319.393 1.37721 -1.34353 0
M  V30 3420 O 318.686 1.86016 -0.459194 0
M  V30 3421 C 318.88 0.323995 -3.55928 0
M  V30 3422 C 318.709 -0.947215 -4.39611 0
M  V30 3423 C 317.479 -1.48951 -4.82848 0
M  V30 3424 C 319.677 -1.84166 -4.80195 0
M  V30 3425 N 317.659 -2.71011 -5.50842 0
M  V30 3426 C 319.03 -2.90815 -5.47564 0
M  V30 3427 C 321.085 -1.85246 -4.62156 0
M  V30 3428 C 319.788 -3.98529 -5.98805 0
M  V30 3429 C 321.814 -2.91914 -5.14335 0
M  V30 3430 C 321.176 -3.97282 -5.81676 0
M  V30 3431 H 317.275 -0.0103394 -0.781932 0
M  V30 3432 H 319.859 -0.635003 -1.84054 0
M  V30 3433 H 318.03 1.00892 -3.75067 0
M  V30 3434 H 319.762 0.866492 -3.95315 0
M  V30 3435 H 316.517 -1.03918 -4.62058 0
M  V30 3436 H 316.941 -3.32988 -5.89447 0
M  V30 3437 H 321.583 -1.05103 -4.09528 0
M  V30 3438 H 319.301 -4.79491 -6.50472 0
M  V30 3439 H 322.887 -2.93729 -5.0221 0
M  V30 3440 H 321.767 -4.78462 -6.21324 0
M  V30 3441 N 319.27 1.56325 -0.20005 0
M  V30 3442 C 320.547 1.89484 0.48529 0
M  V30 3443 C 320.927 1.1143 1.79294 0
M  V30 3444 O 320.275 0.216919 2.27468 0
M  V30 3445 C 320.485 3.41923 0.699243 0
M  V30 3446 C 321.833 4.12256 1.01638 0
M  V30 3447 O 322.857 3.47402 0.786792 0
M  V30 3448 O 321.716 5.26887 1.45095 0
M  V30 3449 H 318.81 0.787144 0.253639 0
M  V30 3450 H 321.356 1.67985 -0.240633 0
M  V30 3451 H 320.128 3.90658 -0.224008 0
M  V30 3452 H 319.751 3.69131 1.47744 0
M  V30 3453 N 320.748 -0.0735177 1.57428 0
M  V30 3454 C 321.658 -1.10547 2.06922 0
M  V30 3455 C 322.674 -1.42506 0.998402 0
M  V30 3456 O 323.85 -1.52717 1.31299 0
M  V30 3457 C 320.915 -2.40019 2.50184 0
M  V30 3458 C 319.976 -2.15046 3.71556 0
M  V30 3459 C 319.209 -3.38345 4.12745 0
M  V30 3460 O 319.432 -4.47399 3.53822 0
M  V30 3461 O 318.366 -3.2666 5.05546 0
M  V30 3462 H 322.192 -0.715013 2.95163 0
M  V30 3463 H 319.777 -0.287531 1.46607 0
M  V30 3464 H 321.659 -3.16218 2.78539 0
M  V30 3465 H 320.334 -2.78447 1.65072 0
M  V30 3466 H 319.241 -1.36558 3.48285 0
M  V30 3467 H 320.574 -1.81499 4.57514 0
M  V30 3468 N 322.226 -1.5378 -0.344866 0
M  V30 3469 C 323.454 -1.74899 -1.10534 0
M  V30 3470 C 323.869 -0.487534 -1.82397 0
M  V30 3471 O 323.226 0.540741 -1.74305 0
M  V30 3472 C 323.277 -2.92822 -2.11984 0
M  V30 3473 O 322.998 -4.14089 -1.43044 0
M  V30 3474 C 324.499 -3.25982 -3.00417 0
M  V30 3475 H 321.719 -0.584426 -0.329678 0
M  V30 3476 H 324.263 -2.006 -0.397474 0
M  V30 3477 H 322.418 -2.69457 -2.78338 0
M  V30 3478 H 322.832 -4.80272 -2.10805 0
M  V30 3479 H 324.306 -4.11848 -3.67539 0
M  V30 3480 H 324.783 -2.42228 -3.66363 0
M  V30 3481 H 325.389 -3.51349 -2.39654 0
M  V30 3482 N 323.704 0.605807 -1.45491 0
M  V30 3483 C 325.115 1.18777 -1.44045 0
M  V30 3484 C 325.466 1.95471 -0.169001 0
M  V30 3485 O 324.591 2.0374 0.729324 0
M  V30 3486 C 325.186 2.16064 -2.60963 0
M  V30 3487 C 323.745 2.69633 -2.62631 0
M  V30 3488 C 322.892 1.45072 -2.36325 0
M  V30 3489 H 325.843 0.395017 -1.53705 0
M  V30 3490 H 325.864 2.9913 -2.35163 0
M  V30 3491 H 325.376 1.60217 -3.53486 0
M  V30 3492 H 323.477 3.29414 -1.74119 0
M  V30 3493 H 323.59 3.13944 -3.61906 0
M  V30 3494 H 321.954 1.74089 -1.85917 0
M  V30 3495 H 322.737 0.910899 -3.30995 0
M  V30 3496 N 325.182 1.32811 0.848464 0
M  V30 3497 C 326.112 1.24882 1.97299 0
M  V30 3498 C 327.093 0.131357 1.69592 0
M  V30 3499 O 328.278 0.319553 1.91553 0
M  V30 3500 C 325.408 0.97746 3.33261 0
M  V30 3501 C 324.362 2.05682 3.75338 0
M  V30 3502 C 323.688 1.63777 5.09 0
M  V30 3503 C 324.988 3.47254 3.90144 0
M  V30 3504 H 326.682 2.18966 2.04191 0
M  V30 3505 H 324.228 1.05413 0.981029 0
M  V30 3506 H 326.181 0.908513 4.1149 0
M  V30 3507 H 324.905 0.000980011 3.266 0
M  V30 3508 H 323.564 2.11603 2.99366 0
M  V30 3509 H 323.212 0.648569 4.98801 0
M  V30 3510 H 322.912 2.36 5.38124 0
M  V30 3511 H 324.436 1.5833 5.89715 0
M  V30 3512 H 325.85 3.43888 4.58709 0
M  V30 3513 H 324.247 4.1788 4.30693 0
M  V30 3514 H 325.317 3.86462 2.92874 0
M  V30 3515 N 326.66 -1.06551 1.16123 0
M  V30 3516 C 327.89 -1.8274 0.963838 0
M  V30 3517 C 328.298 -1.82712 -0.491228 0
M  V30 3518 O 327.641 -1.24294 -1.35265 0
M  V30 3519 C 327.703 -3.3065 1.41106 0
M  V30 3520 C 327.367 -3.54384 2.88549 0
M  V30 3521 C 328.364 -3.4765 3.86569 0
M  V30 3522 C 326.049 -3.81789 3.26408 0
M  V30 3523 C 328.043 -3.67982 5.2045 0
M  V30 3524 C 325.73 -4.01772 4.60459 0
M  V30 3525 C 326.728 -3.94866 5.57288 0
M  V30 3526 O 326.416 -4.14306 6.88916 0
M  V30 3527 H 326.148 -0.583136 0.341948 0
M  V30 3528 H 328.702 -1.35351 1.54497 0
M  V30 3529 H 326.932 -3.78887 0.773394 0
M  V30 3530 H 328.621 -3.88324 1.1815 0
M  V30 3531 H 329.387 -3.2647 3.58667 0
M  V30 3532 H 325.266 -3.86276 2.51619 0
M  V30 3533 H 328.81 -3.62507 5.96015 0
M  V30 3534 H 324.707 -4.2244 4.88072 0
M  V30 3535 H 325.475 -4.31609 6.95454 0
M  V30 3536 N 328.138 -0.959301 -1.25041 0
M  V30 3537 C 329.385 -0.616611 -1.92884 0
M  V30 3538 C 329.713 0.847036 -1.75087 0
M  V30 3539 O 328.968 1.62374 -1.09239 0
M  V30 3540 C 329.267 -0.927136 -3.45165 0
M  V30 3541 C 328.933 -2.37757 -3.83122 0
M  V30 3542 C 327.595 -2.77402 -3.93194 0
M  V30 3543 C 329.947 -3.31929 -4.01836 0
M  V30 3544 C 327.275 -4.10277 -4.19392 0
M  V30 3545 C 329.627 -4.64423 -4.29528 0
M  V30 3546 C 328.291 -5.03857 -4.37818 0
M  V30 3547 H 327.561 -0.225634 -0.705812 0
M  V30 3548 H 330.208 -1.20921 -1.48493 0
M  V30 3549 H 328.513 -0.252195 -3.90987 0
M  V30 3550 H 330.21 -0.6405 -3.95852 0
M  V30 3551 H 326.8 -2.06013 -3.75841 0
M  V30 3552 H 330.984 -3.02488 -3.93465 0
M  V30 3553 H 326.24 -4.40467 -4.24027 0
M  V30 3554 H 330.414 -5.37369 -4.42953 0
M  V30 3555 H 328.041 -6.06843 -4.57871 0
M  V30 3556 N 329.616 1.39756 -0.72842 0
M  V30 3557 C 330.579 2.29012 -0.0927297 0
M  V30 3558 C 331.579 1.45992 0.674025 0
M  V30 3559 O 332.769 1.66749 0.50402 0
M  V30 3560 C 329.901 3.29396 0.878137 0
M  V30 3561 H 331.094 2.86729 -0.879011 0
M  V30 3562 H 328.647 1.48293 -0.493847 0
M  V30 3563 H 329.382 2.76722 1.69101 0
M  V30 3564 H 329.167 3.907 0.331051 0
M  V30 3565 H 330.657 3.96199 1.3197 0
M  V30 3566 N 331.094 0.475555 1.50254 0
M  V30 3567 C 332.505 0.0215174 1.86688 0
M  V30 3568 C 332.856 -1.38467 1.39001 0
M  V30 3569 O 331.981 -2.02732 0.756894 0
M  V30 3570 C 332.576 0.0322715 3.38785 0
M  V30 3571 C 331.135 -0.366314 3.74613 0
M  V30 3572 C 330.282 0.415832 2.74164 0
M  V30 3573 H 333.233 0.689612 1.42934 0
M  V30 3574 H 333.254 -0.76889 3.7265 0
M  V30 3575 H 332.766 1.05584 3.73462 0
M  V30 3576 H 330.867 -1.39406 3.45538 0
M  V30 3577 H 330.98 -0.064555 4.79057 0
M  V30 3578 H 329.344 -0.131048 2.54363 0
M  V30 3579 H 330.127 1.43899 3.11686 0
M  V30 3580 N 332.573 -1.56217 0.208337 0
M  V30 3581 C 333.798 -2.02782 -0.435222 0
M  V30 3582 C 334.223 -1.08738 -1.53485 0
M  V30 3583 O 333.581 -0.0731855 -1.81152 0
M  V30 3584 C 333.629 -3.47687 -0.956335 0
M  V30 3585 O 332.733 -3.56773 -2.06849 0
M  V30 3586 H 332.074 -0.656403 -0.100158 0
M  V30 3587 H 334.604 -2.02033 0.3231 0
M  V30 3588 H 334.614 -3.87745 -1.26955 0
M  V30 3589 H 333.289 -4.15624 -0.15143 0
M  V30 3590 H 331.866 -3.28597 -1.76292 0
M  V30 3591 N 334.051 0.0651679 -1.57465 0
M  V30 3592 C 335.276 0.779605 -1.9219 0
M  V30 3593 C 335.701 1.69988 -0.805333 0
M  V30 3594 O 335.059 1.79685 0.241435 0
M  V30 3595 C 335.107 1.54364 -3.2589 0
M  V30 3596 O 334.211 2.65474 -3.1559 0
M  V30 3597 H 333.552 0.212249 -0.629163 0
M  V30 3598 H 336.082 0.0314294 -2.04576 0
M  V30 3599 H 336.092 1.92146 -3.59922 0
M  V30 3600 H 334.767 0.868457 -4.06732 0
M  V30 3601 H 333.344 2.30501 -2.93128 0
M  V30 3602 N 335.529 1.53961 0.336706 0
M  V30 3603 C 336.459 1.85417 1.41925 0
M  V30 3604 C 337.44 0.709856 1.5458 0
M  V30 3605 O 338.625 0.962396 1.68676 0
M  V30 3606 C 335.755 2.06985 2.78881 0
M  V30 3607 C 334.709 3.22813 2.81026 0
M  V30 3608 C 334.035 3.29727 4.20932 0
M  V30 3609 C 335.335 4.60767 2.45949 0
M  V30 3610 H 337.029 2.76079 1.15848 0
M  V30 3611 H 334.575 1.32839 0.555859 0
M  V30 3612 H 336.528 2.27575 3.54665 0
M  V30 3613 H 335.252 1.13061 3.06406 0
M  V30 3614 H 333.911 3.0209 2.07695 0
M  V30 3615 H 333.559 2.33385 4.45579 0
M  V30 3616 H 333.259 4.07566 4.23277 0
M  V30 3617 H 334.783 3.52536 4.98549 0
M  V30 3618 H 336.197 4.81325 3.11446 0
M  V30 3619 H 334.594 5.4106 2.59566 0
M  V30 3620 H 335.664 4.6391 1.41122 0
M  V30 3621 N 337.007 -0.598083 1.45811 0
M  V30 3622 C 338.254 -1.35681 1.50323 0
M  V30 3623 C 338.582 -1.9393 0.148739 0
M  V30 3624 O 337.837 -1.76094 -0.853787 0
M  V30 3625 C 338.136 -2.51669 2.53766 0
M  V30 3626 C 337.802 -2.11508 3.98215 0
M  V30 3627 C 336.464 -2.0027 4.37545 0
M  V30 3628 C 338.816 -1.80308 4.89018 0
M  V30 3629 C 336.144 -1.56067 5.65562 0
M  V30 3630 C 338.496 -1.37589 6.17456 0
M  V30 3631 C 337.16 -1.24916 6.55708 0
M  V30 3632 H 336.43 -0.496492 0.550069 0
M  V30 3633 H 339.077 -0.675052 1.79207 0
M  V30 3634 H 337.382 -3.25225 2.18486 0
M  V30 3635 H 339.079 -3.09895 2.54492 0
M  V30 3636 H 335.669 -2.21185 3.67117 0
M  V30 3637 H 339.853 -1.87884 4.59362 0
M  V30 3638 H 335.109 -1.44886 5.93985 0
M  V30 3639 H 339.283 -1.12495 6.87254 0
M  V30 3640 H 336.91 -0.904386 7.54801 0
M  V30 3641 N 338.485 -1.33259 -0.841409 0
M  V30 3642 C 339.762 -1.15174 -1.58096 0
M  V30 3643 C 340.142 0.282858 -2.09196 0
M  V30 3644 O 339.49 1.28151 -1.89181 0
M  V30 3645 C 339.7 -2.1907 -2.71679 0
M  V30 3646 C 341.048 -2.53093 -3.40924 0
M  V30 3647 O 342.072 -2.17717 -2.81918 0
M  V30 3648 O 340.931 -3.1379 -4.47435 0
M  V30 3649 H 338.025 -0.445303 -0.696875 0
M  V30 3650 H 340.571 -1.44833 -0.884385 0
M  V30 3651 H 339.343 -3.15443 -2.31541 0
M  V30 3652 H 338.966 -1.90481 -3.49002 0
M  V30 3653 N 339.963 1.05934 -1.16686 0
M  V30 3654 C 340.893 2.1546 -0.899949 0
M  V30 3655 C 341.874 1.69391 0.155154 0
M  V30 3656 O 343.059 1.94199 0.00648693 0
M  V30 3657 C 340.189 3.44939 -0.404241 0
M  V30 3658 C 339.143 4.04536 -1.39767 0
M  V30 3659 C 338.469 5.29268 -0.760216 0
M  V30 3660 C 339.769 4.42893 -2.76845 0
M  V30 3661 H 341.463 2.38046 -1.81588 0
M  V30 3662 H 339.009 1.14404 -0.874514 0
M  V30 3663 H 340.962 4.20901 -0.204971 0
M  V30 3664 H 339.686 3.21983 0.547206 0
M  V30 3665 H 338.345 3.30635 -1.58355 0
M  V30 3666 H 337.993 5.02611 0.197831 0
M  V30 3667 H 337.693 5.70101 -1.42332 0
M  V30 3668 H 339.217 6.07924 -0.57105 0
M  V30 3669 H 340.631 5.09921 -2.62019 0
M  V30 3670 H 339.028 4.94721 -3.39663 0
M  V30 3671 H 340.098 3.53584 -3.31823 0
M  V30 3672 N 341.441 0.965919 1.2453 0
M  V30 3673 C 342.389 0.486506 2.27455 0
M  V30 3674 C 343.383 -0.449041 1.6334 0
M  V30 3675 O 344.589 -0.324527 1.7705 0
M  V30 3676 H 340.964 0.138857 0.739069 0
M  V30 3677 H 342.935 1.3666 2.65267 0
M  V30 3678 C 341.684 -0.209481 3.47068 0
M  V30 3679 H 341.007 0.50129 3.96645 0
M  V30 3680 H 342.447 -0.508775 4.20936 0
M  V30 3681 C 340.906 -1.43586 3.0477 0
M  V30 3682 O 341.436 -2.53299 3.11773 0
M  V30 3683 N 339.642 -1.30126 2.59838 0
M  V30 3684 H 339.189 -0.408583 2.54339 0
M  V30 3685 H 339.147 -2.12294 2.31902 0
M  V30 3686 N 342.919 -1.39368 0.735821 0
M  V30 3687 C 344.166 -2.00497 0.284123 0
M  V30 3688 C 344.494 -1.58387 -1.12889 0
M  V30 3689 O 343.749 -0.804359 -1.78406 0
M  V30 3690 C 344.048 -3.5583 0.334651 0
M  V30 3691 C 343.714 -4.17593 1.7008 0
M  V30 3692 C 342.376 -4.34176 2.07472 0
M  V30 3693 C 344.728 -4.51848 2.59775 0
M  V30 3694 C 342.056 -4.82304 3.34065 0
M  V30 3695 C 344.408 -5.01384 3.85741 0
M  V30 3696 C 343.072 -5.16175 4.23225 0
M  V30 3697 H 342.342 -0.73367 0.103968 0
M  V30 3698 H 344.989 -1.66683 0.942825 0
M  V30 3699 H 343.294 -3.89674 -0.407625 0
M  V30 3700 H 344.991 -4.00986 -0.0329927 0
M  V30 3701 H 341.581 -4.05087 1.40008 0
M  V30 3702 H 345.765 -4.38653 2.32157 0
M  V30 3703 H 341.021 -4.91941 3.63049 0
M  V30 3704 H 345.195 -5.26863 4.55399 0
M  V30 3705 H 342.822 -5.5323 5.21384 0
M  V30 3706 N 344.397 -0.483516 -1.5 0
M  V30 3707 C 345.329 0.340634 -2.26655 0
M  V30 3708 C 346.342 0.946152 -1.32483 0
M  V30 3709 O 347.531 0.832453 -1.579 0
M  V30 3710 C 344.631 1.4929 -3.04246 0
M  V30 3711 C 343.804 0.997903 -4.25865 0
M  V30 3712 C 342.863 2.02569 -4.85646 0
M  V30 3713 O 341.889 1.60128 -5.46212 0
M  V30 3714 N 343.091 3.3548 -4.73744 0
M  V30 3715 H 345.856 -0.316577 -2.98023 0
M  V30 3716 H 343.417 -0.315024 -1.58806 0
M  V30 3717 H 345.409 2.17766 -3.41116 0
M  V30 3718 H 343.979 2.05458 -2.35597 0
M  V30 3719 H 343.199 0.138617 -3.93956 0
M  V30 3720 H 344.487 0.645305 -5.04691 0
M  V30 3721 H 343.885 3.72661 -4.25605 0
M  V30 3722 H 342.442 3.99718 -5.14848 0
M  V30 3723 N 345.875 1.56104 -0.216619 0
M  V30 3724 C 346.838 2.18819 0.681962 0
M  V30 3725 C 347.838 1.14866 1.12528 0
M  V30 3726 O 349.028 1.40128 1.03488 0
M  V30 3727 C 346.16 2.80756 1.93362 0
M  V30 3728 H 347.353 2.99595 0.135254 0
M  V30 3729 H 344.906 1.56265 0.0330003 0
M  V30 3730 H 345.641 2.03837 2.52232 0
M  V30 3731 H 345.426 3.56876 1.62426 0
M  V30 3732 H 346.916 3.28844 2.57393 0
M  V30 3733 N 347.353 -0.0568162 1.57498 0
M  V30 3734 C 348.601 -0.751617 1.87604 0
M  V30 3735 C 348.922 -1.77351 0.81066 0
M  V30 3736 O 348.192 -1.95254 -0.159018 0
M  V30 3737 H 346.772 -0.280583 0.692302 0
M  V30 3738 H 349.434 -0.0293483 1.94878 0
M  V30 3739 H 348.53 -1.25852 2.856 0
M  V30 3740 N 348.832 -1.54138 -0.328536 0
M  V30 3741 C 350.079 -1.72105 -1.06706 0
M  V30 3742 C 350.407 -0.492111 -1.88171 0
M  V30 3743 O 349.662 0.526153 -1.88494 0
M  V30 3744 C 349.961 -2.9457 -2.02393 0
M  V30 3745 C 349.627 -4.29544 -1.37122 0
M  V30 3746 C 348.289 -4.6624 -1.19052 0
M  V30 3747 C 350.641 -5.1333 -0.902331 0
M  V30 3748 C 347.969 -5.84325 -0.527331 0
M  V30 3749 C 350.321 -6.32094 -0.252988 0
M  V30 3750 C 348.985 -6.67473 -0.0600901 0
M  V30 3751 H 348.255 -0.629775 -0.390466 0
M  V30 3752 H 350.902 -1.88372 -0.34473 0
M  V30 3753 H 349.207 -2.72969 -2.81061 0
M  V30 3754 H 350.904 -3.05665 -2.59557 0
M  V30 3755 H 347.494 -4.0067 -1.52188 0
M  V30 3756 H 351.678 -4.855 -1.02974 0
M  V30 3757 H 346.934 -6.103 -0.366634 0
M  V30 3758 H 351.108 -6.96299 0.118366 0
M  V30 3759 H 348.735 -7.58832 0.455828 0
M  V30 3760 N 350.31 0.590341 -1.46126 0
M  V30 3761 C 351.24 1.71032 -1.58966 0
M  V30 3762 C 352.221 1.64302 -0.440335 0
M  V30 3763 O 353.406 1.82436 -0.665634 0
M  V30 3764 C 350.536 3.09665 -1.57241 0
M  V30 3765 C 349.49 3.31221 -2.71066 0
M  V30 3766 C 348.816 4.70303 -2.54399 0
M  V30 3767 C 350.116 3.19796 -4.1295 0
M  V30 3768 H 351.81 1.60543 -2.52718 0
M  V30 3769 H 349.356 0.770933 -1.21625 0
M  V30 3770 H 351.309 3.87831 -1.64819 0
M  V30 3771 H 350.033 3.21036 -0.600289 0
M  V30 3772 H 348.692 2.55452 -2.62944 0
M  V30 3773 H 348.34 4.78429 -1.55288 0
M  V30 3774 H 348.04 4.85679 -3.30741 0
M  V30 3775 H 349.564 5.50647 -2.63857 0
M  V30 3776 H 350.978 3.87815 -4.22223 0
M  V30 3777 H 349.375 3.46696 -4.89818 0
M  V30 3778 H 350.445 2.16983 -4.33643 0
M  V30 3779 N 351.788 1.33704 0.83433 0
M  V30 3780 C 352.721 1.18675 1.94914 0
M  V30 3781 C 353.699 0.0811145 1.62398 0
M  V30 3782 O 354.883 0.244186 1.86912 0
M  V30 3783 C 352.01 0.821231 3.28593 0
M  V30 3784 C 351.056 1.93501 3.80079 0
M  V30 3785 S 351.889 3.54671 4.01209 0
M  V30 3786 C 353.045 3.20136 5.37833 0
M  V30 3787 H 353.278 2.13043 2.07364 0
M  V30 3788 H 350.811 1.18598 0.988624 0
M  V30 3789 H 352.769 0.617123 4.05835 0
M  V30 3790 H 351.43 -0.103927 3.13928 0
M  V30 3791 H 350.623 1.63273 4.76821 0
M  V30 3792 H 350.225 2.09601 3.09747 0
M  V30 3793 H 352.517 2.71242 6.20833 0
M  V30 3794 H 353.46 4.15975 5.73036 0
M  V30 3795 H 353.868 2.56613 5.02802 0
M  V30 3796 N 353.266 -1.05314 1.17247 0
M  V30 3797 C 354.213 -2.13031 0.888058 0
M  V30 3798 C 355.183 -1.65253 -0.167537 0
M  V30 3799 O 356.368 -1.90775 -0.0305974 0
M  V30 3800 C 353.508 -3.42702 0.406147 0
M  V30 3801 C 352.621 -4.04161 1.52572 0
M  V30 3802 C 351.756 -5.21744 0.997808 0
M  V30 3803 C 350.795 -5.75207 2.09291 0
M  V30 3804 N 349.932 -6.84094 1.57986 0
M  V30 3805 H 354.772 -2.36698 1.81048 0
M  V30 3806 H 352.309 -1.16121 0.903013 0
M  V30 3807 H 354.267 -4.17059 0.108305 0
M  V30 3808 H 352.897 -3.19222 -0.479313 0
M  V30 3809 H 351.949 -3.27253 1.93931 0
M  V30 3810 H 353.261 -4.39881 2.35172 0
M  V30 3811 H 352.415 -6.03168 0.653739 0
M  V30 3812 H 351.154 -4.87495 0.141232 0
M  V30 3813 H 350.159 -4.92414 2.44557 0
M  V30 3814 H 351.384 -6.11505 2.95362 0
M  V30 3815 H 349.33 -6.51745 0.74598 0
M  V30 3816 H 349.247 -7.18811 2.34195 0
M  V30 3817 H 350.515 -7.69172 1.26468 0
M  V30 3818 N 354.744 -0.972509 -1.24016 0
M  V30 3819 C 355.691 -0.505969 -2.25186 0
M  V30 3820 C 356.661 0.451009 -1.5986 0
M  V30 3821 O 357.846 0.360307 -1.87367 0
M  V30 3822 C 354.986 0.193089 -3.44559 0
M  V30 3823 C 354.099 -0.803222 -4.24467 0
M  V30 3824 C 353.234 -0.0797793 -5.3114 0
M  V30 3825 C 352.273 -1.06583 -6.02749 0
M  V30 3826 N 351.41 -0.372074 -7.01113 0
M  V30 3827 H 356.25 -1.37351 -2.64459 0
M  V30 3828 H 353.787 -0.688419 -1.29997 0
M  V30 3829 H 355.745 0.615125 -4.1264 0
M  V30 3830 H 354.375 1.02455 -3.06109 0
M  V30 3831 H 353.427 -1.34368 -3.55878 0
M  V30 3832 H 354.739 -1.55494 -4.73944 0
M  V30 3833 H 353.893 0.400015 -6.0538 0
M  V30 3834 H 352.632 0.704597 -4.82583 0
M  V30 3835 H 351.637 -1.55645 -5.27309 0
M  V30 3836 H 352.862 -1.85074 -6.53395 0
M  V30 3837 H 350.808 0.393238 -6.5482 0
M  V30 3838 H 350.725 -1.06258 -7.48495 0
M  V30 3839 H 351.993 0.0855932 -7.79453 0
M  V30 3840 N 356.222 1.38976 -0.743202 0
M  V30 3841 C 357.132 2.3434 -0.110399 0
M  V30 3842 C 358.148 1.58741 0.712559 0
M  V30 3843 O 359.324 1.9099 0.639125 0
M  V30 3844 C 356.389 3.37812 0.780012 0
M  V30 3845 C 355.45 4.29263 -0.0561319 0
M  V30 3846 C 354.683 5.27793 0.791875 0
M  V30 3847 O 354.906 5.33043 2.03031 0
M  V30 3848 O 353.84 6.01512 0.216183 0
M  V30 3849 H 357.666 2.90129 -0.897714 0
M  V30 3850 H 355.251 1.40643 -0.503966 0
M  V30 3851 H 357.133 4.01194 1.28923 0
M  V30 3852 H 355.808 2.84395 1.546 0
M  V30 3853 H 354.715 3.69076 -0.611056 0
M  V30 3854 H 356.048 4.85907 -0.784531 0
M  V30 3855 N 357.7 0.491464 1.49741 0
M  V30 3856 C 358.946 -0.0565092 2.02721 0
M  V30 3857 C 359.279 -1.37522 1.37118 0
M  V30 3858 O 358.554 -1.87866 0.503645 0
M  V30 3859 C 358.837 -0.219051 3.59433 0
M  V30 3860 C 358.69 1.12211 4.35579 0
M  V30 3861 C 360.009 -0.964157 4.29409 0
M  V30 3862 H 357.128 -0.0190627 0.736753 0
M  V30 3863 H 359.77 0.641021 1.7886 0
M  V30 3864 H 357.92 -0.813165 3.79895 0
M  V30 3865 H 359.592 1.75437 4.26637 0
M  V30 3866 H 357.835 1.71377 3.98513 0
M  V30 3867 H 358.506 0.961794 5.43556 0
M  V30 3868 H 360.982 -0.460378 4.13545 0
M  V30 3869 H 359.858 -1.04671 5.38828 0
M  V30 3870 H 360.119 -2.00563 3.93988 0
M  V30 3871 N 359.178 -1.55987 0.224894 0
M  V30 3872 C 360.11 -2.17722 -0.716224 0
M  V30 3873 C 361.123 -1.14723 -1.15509 0
M  V30 3874 O 362.312 -1.41688 -1.08567 0
M  V30 3875 C 359.412 -2.74873 -1.98238 0
M  V30 3876 C 358.585 -4.03074 -1.69853 0
M  V30 3877 C 357.644 -4.44757 -2.81208 0
M  V30 3878 O 356.67 -5.11587 -2.49534 0
M  V30 3879 N 357.872 -4.10716 -4.10235 0
M  V30 3880 H 360.637 -2.99109 -0.188123 0
M  V30 3881 H 358.198 -1.6184 0.0440123 0
M  V30 3882 H 360.19 -2.99727 -2.7193 0
M  V30 3883 H 358.76 -1.9777 -2.42086 0
M  V30 3884 H 357.98 -3.86041 -0.797875 0
M  V30 3885 H 359.268 -4.86701 -1.48324 0
M  V30 3886 H 358.666 -3.57019 -4.38809 0
M  V30 3887 H 357.223 -4.40455 -4.80461 0
M  V30 3888 N 360.656 0.0484629 -1.57525 0
M  V30 3889 C 361.933 0.777447 -1.79486 0
M  V30 3890 C 362.313 1.94597 -0.818251 0
M  V30 3891 O 361.661 2.28047 0.143767 0
M  V30 3892 C 361.871 1.22864 -3.26658 0
M  V30 3893 C 363.219 1.65251 -3.91123 0
M  V30 3894 O 364.243 1.32372 -3.3069 0
M  V30 3895 O 363.102 2.26207 -4.97486 0
M  V30 3896 H 360.196 0.374357 -0.737419 0
M  V30 3897 H 362.742 0.0267359 -1.69679 0
M  V30 3898 H 361.514 0.393589 -3.89316 0
M  V30 3899 H 361.137 2.03996 -3.41279 0
M  V30 3900 N 362.134 1.5431 0.320358 0
M  V30 3901 C 363.044 1.86946 1.41734 0
M  V30 3902 C 364.06 0.761689 1.56443 0
M  V30 3903 O 365.236 1.05629 1.71477 0
M  V30 3904 C 362.301 2.09293 2.76401 0
M  V30 3905 C 361.362 3.33082 2.70841 0
M  V30 3906 C 360.595 3.54353 3.99086 0
M  V30 3907 O 360.818 2.79002 4.97508 0
M  V30 3908 O 359.752 4.47838 4.0215 0
M  V30 3909 H 363.578 2.80232 1.17062 0
M  V30 3910 H 361.163 1.40255 0.514673 0
M  V30 3911 H 363.045 2.25303 3.56113 0
M  V30 3912 H 361.72 1.19194 3.00956 0
M  V30 3913 H 360.627 3.22454 1.89668 0
M  V30 3914 H 361.96 4.23249 2.5124 0
M  V30 3915 N 363.613 -0.582584 1.46437 0
M  V30 3916 C 364.523 -1.71949 1.59595 0
M  V30 3917 C 365.539 -1.67264 0.479443 0
M  V30 3918 O 366.715 -1.87171 0.743579 0
M  V30 3919 C 363.78 -3.08452 1.58298 0
M  V30 3920 C 362.841 -3.244 2.81182 0
M  V30 3921 C 362.074 -4.54391 2.79937 0
M  V30 3922 O 362.297 -5.38287 1.8869 0
M  V30 3923 O 361.231 -4.73588 3.71481 0
M  V30 3924 H 365.057 -1.63795 2.55744 0
M  V30 3925 H 362.642 -0.749643 1.29231 0
M  V30 3926 H 364.524 -3.89732 1.60271 0
M  V30 3927 H 363.199 -3.17043 0.653094 0
M  V30 3928 H 362.106 -2.42613 2.84763 0
M  V30 3929 H 363.439 -3.20699 3.7338 0
M  V30 3930 N 365.091 -1.34144 -0.827227 0
M  V30 3931 C 366.038 -1.25364 -1.93785 0
M  V30 3932 C 367.008 -0.129774 -1.65592 0
M  V30 3933 O 368.193 -0.310024 -1.88264 0
M  V30 3934 C 365.333 -1.01064 -3.2997 0
M  V30 3935 C 364.446 -2.22185 -3.70484 0
M  V30 3936 C 363.581 -1.91203 -4.95595 0
M  V30 3937 C 362.62 -3.08491 -5.28677 0
M  V30 3938 N 361.757 -2.77421 -6.44967 0
M  V30 3939 H 366.597 -2.20347 -2.00627 0
M  V30 3940 H 364.134 -1.09558 -0.981608 0
M  V30 3941 H 366.092 -0.850139 -4.08446 0
M  V30 3942 H 364.722 -0.0975026 -3.22653 0
M  V30 3943 H 363.774 -2.4917 -2.87434 0
M  V30 3944 H 365.086 -3.0983 -3.90905 0
M  V30 3945 H 364.24 -1.71864 -5.81848 0
M  V30 3946 H 362.979 -1.00812 -4.77167 0
M  V30 3947 H 361.984 -3.28431 -4.40923 0
M  V30 3948 H 363.209 -3.99655 -5.49047 0
M  V30 3949 H 361.155 -1.89601 -6.28003 0
M  V30 3950 H 361.072 -3.58598 -6.6554 0
M  V30 3951 H 362.34 -2.61577 -7.34301 0
M  V30 3952 N 366.569 1.04691 -1.17803 0
M  V30 3953 C 367.517 2.14665 -0.895635 0
M  V30 3954 C 368.511 1.68806 0.141679 0
M  V30 3955 O 369.717 1.79999 -0.00587914 0
M  V30 3956 H 366.092 0.701038 -0.272121 0
M  V30 3957 H 368.063 2.35685 -1.83017 0
M  V30 3958 C 366.812 3.45019 -0.430962 0
M  V30 3959 H 366.135 3.8071 -1.22064 0
M  V30 3960 H 367.575 4.23125 -0.272301 0
M  V30 3961 C 366.034 3.25943 0.852207 0
M  V30 3962 O 366.564 3.5296 1.91786 0
M  V30 3963 N 364.77 2.79304 0.802346 0
M  V30 3964 H 364.317 2.57518 -0.0650788 0
M  V30 3965 H 364.275 2.66921 1.66134 0
M  V30 3966 N 368.047 0.979072 1.23499 0
M  V30 3967 C 368.994 0.517904 2.24914 0
M  V30 3968 C 369.964 -0.442525 1.60097 0
M  V30 3969 O 371.149 -0.350365 1.87556 0
M  V30 3970 C 368.289 -0.174813 3.44657 0
M  V30 3971 C 367.402 0.825721 4.24035 0
M  V30 3972 C 366.537 0.107946 5.3109 0
M  V30 3973 C 365.576 1.09778 6.02175 0
M  V30 3974 N 364.713 0.40925 7.00906 0
M  V30 3975 H 369.553 1.38751 2.63727 0
M  V30 3976 H 367.09 0.695303 1.2963 0
M  V30 3977 H 369.048 -0.593233 4.12961 0
M  V30 3978 H 367.678 -1.0083 3.06648 0
M  V30 3979 H 366.73 1.36253 3.55161 0
M  V30 3980 H 368.042 1.58005 4.73113 0
M  V30 3981 H 367.196 -0.367904 6.05583 0
M  V30 3982 H 365.935 -0.678994 4.8295 0
M  V30 3983 H 364.94 1.5844 5.26476 0
M  V30 3984 H 366.165 1.88536 6.52404 0
M  V30 3985 H 364.111 -0.358506 6.5502 0
M  V30 3986 H 364.028 1.10226 7.47921 0
M  V30 3987 H 365.296 -0.0442557 7.79487 0
M  V30 3988 N 369.525 -1.3858 0.750561 0
M  V30 3989 C 370.472 -2.30483 0.120835 0
M  V30 3990 C 371.442 -1.50022 -0.712923 0
M  V30 3991 O 372.627 -1.78662 -0.669676 0
M  V30 3992 C 369.767 -3.36431 -0.768666 0
M  V30 3993 C 368.88 -4.31927 0.0793922 0
M  V30 3994 C 368.015 -5.24944 -0.81283 0
M  V30 3995 C 367.054 -6.12088 0.0390447 0
M  V30 3996 N 366.191 -6.97412 -0.809969 0
M  V30 3997 H 371.031 -2.83761 0.91015 0
M  V30 3998 H 368.568 -1.39707 0.460463 0
M  V30 3999 H 370.526 -3.96462 -1.29898 0
M  V30 4000 H 369.156 -2.8457 -1.5238 0
M  V30 4001 H 368.208 -3.73382 0.727303 0
M  V30 4002 H 369.52 -4.93319 0.737401 0
M  V30 4003 H 368.674 -5.90078 -1.41042 0
M  V30 4004 H 367.413 -4.63911 -1.50458 0
M  V30 4005 H 366.418 -5.45952 0.649328 0
M  V30 4006 H 367.643 -6.75189 0.727809 0
M  V30 4007 H 365.589 -6.38931 -1.48672 0
M  V30 4008 H 365.506 -7.55712 -0.208789 0
M  V30 4009 H 366.774 -7.66959 -1.39263 0
M  V30 4010 N 371.003 -0.499398 -1.49478 0
M  V30 4011 C 372.25 0.0456899 -2.02448 0
M  V30 4012 C 372.578 1.37142 -1.37921 0
M  V30 4013 O 371.833 1.89111 -0.503544 0
M  V30 4014 C 372.132 0.248424 -3.56536 0
M  V30 4015 C 371.798 -0.999107 -4.39692 0
M  V30 4016 C 370.46 -1.34108 -4.62135 0
M  V30 4017 C 372.812 -1.82842 -4.88076 0
M  V30 4018 C 370.14 -2.51191 -5.30208 0
M  V30 4019 C 372.492 -2.99076 -5.57437 0
M  V30 4020 C 371.156 -3.33655 -5.78127 0
M  V30 4021 H 370.426 0.0167191 -0.740811 0
M  V30 4022 H 373.073 -0.65923 -1.79795 0
M  V30 4023 H 371.378 1.03586 -3.77859 0
M  V30 4024 H 373.075 0.684605 -3.95113 0
M  V30 4025 H 369.665 -0.722729 -4.22463 0
M  V30 4026 H 373.849 -1.57737 -4.70566 0
M  V30 4027 H 369.105 -2.78221 -5.44429 0
M  V30 4028 H 373.279 -3.63664 -5.93904 0
M  V30 4029 H 370.906 -4.24483 -6.30649 0
M  V30 4030 N 372.481 1.55866 -0.233164 0
M  V30 4031 C 373.729 1.9821 0.394593 0
M  V30 4032 C 374.05 1.12234 1.59463 0
M  V30 4033 O 373.32 0.201981 1.94856 0
M  V30 4034 H 371.9 0.732034 0.148778 0
M  V30 4035 H 374.562 1.92107 -0.32876 0
M  V30 4036 H 373.658 3.03845 0.713063 0
M  V30 4037 N 373.959 -0.0401083 1.57549 0
M  V30 4038 C 374.889 -1.04384 2.08869 0
M  V30 4039 C 375.87 -1.38407 0.988817 0
M  V30 4040 O 377.055 -1.47483 1.26342 0
M  V30 4041 C 374.185 -2.34808 2.55895 0
M  V30 4042 C 373.139 -2.15057 3.70047 0
M  V30 4043 C 372.465 -3.51145 4.03239 0
M  V30 4044 C 373.765 -1.54576 4.98902 0
M  V30 4045 H 375.459 -0.616666 2.92981 0
M  V30 4046 H 373.005 -0.295184 1.40942 0
M  V30 4047 H 374.958 -3.05346 2.90417 0
M  V30 4048 H 373.682 -2.79565 1.68853 0
M  V30 4049 H 372.341 -1.46954 3.35857 0
M  V30 4050 H 371.989 -3.93529 3.13279 0
M  V30 4051 H 371.689 -3.38758 4.80122 0
M  V30 4052 H 373.213 -4.23062 4.40285 0
M  V30 4053 H 374.627 -2.15017 5.31451 0
M  V30 4054 H 373.024 -1.52796 5.80322 0
M  V30 4055 H 374.094 -0.51039 4.82206 0
M  V30 4056 N 375.437 -1.54477 -0.31217 0
M  V30 4057 C 376.662 -1.77526 -1.07235 0
M  V30 4058 C 377.087 -0.527775 -1.80544 0
M  V30 4059 O 376.445 0.52121 -1.73646 0
M  V30 4060 C 376.493 -2.97535 -2.03728 0
M  V30 4061 O 375.597 -2.69878 -3.11833 0
M  V30 4062 H 374.938 -0.58792 -0.30862 0
M  V30 4063 H 377.468 -2.01532 -0.352993 0
M  V30 4064 H 377.478 -3.25198 -2.46395 0
M  V30 4065 H 376.153 -3.87996 -1.49774 0
M  V30 4066 H 374.73 -2.53199 -2.7376 0
M  V30 4067 N 376.915 0.57481 -1.46744 0
M  V30 4068 C 378.161 1.3347 -1.52688 0
M  V30 4069 C 378.494 1.93353 -0.181229 0
M  V30 4070 O 377.769 1.76912 0.808237 0
M  V30 4071 C 378.052 2.45811 -2.63152 0
M  V30 4072 C 377.905 1.90912 -4.07275 0
M  V30 4073 C 379.224 3.47822 -2.69644 0
M  V30 4074 H 376.343 0.483935 -0.555856 0
M  V30 4075 H 378.985 0.644968 -1.78718 0
M  V30 4076 H 377.135 3.04646 -2.41088 0
M  V30 4077 H 378.807 1.36473 -4.4065 0
M  V30 4078 H 377.05 1.21691 -4.16382 0
M  V30 4079 H 377.721 2.72042 -4.80309 0
M  V30 4080 H 380.197 2.9888 -2.895 0
M  V30 4081 H 379.073 4.23876 -3.48742 0
M  V30 4082 H 379.334 4.05555 -1.76005 0
M  V30 4083 N 378.394 1.34581 0.820102 0
M  V30 4084 C 379.642 1.26845 1.57336 0
M  V30 4085 C 379.963 -0.160667 1.94337 0
M  V30 4086 O 379.233 -1.09396 1.6251 0
M  V30 4087 H 377.813 0.466514 0.583415 0
M  V30 4088 H 380.475 1.68526 0.979027 0
M  V30 4089 H 379.571 1.87513 2.4949 0
M  V30 4090 N 379.872 -1.04064 1.18357 0
M  V30 4091 C 380.822 -2.10393 0.878561 0
M  V30 4092 C 381.806 -1.60183 -0.151713 0
M  V30 4093 O 382.998 -1.76923 0.0523303 0
M  V30 4094 C 380.127 -3.4089 0.406096 0
M  V30 4095 C 379.213 -3.97866 1.46844 0
M  V30 4096 N 379.604 -4.28657 2.68489 0
M  V30 4097 C 377.902 -4.2574 1.32896 0
M  V30 4098 C 378.603 -4.74253 3.36836 0
M  V30 4099 N 377.579 -4.75068 2.64219 0
M  V30 4100 H 381.381 -2.32076 1.80327 0
M  V30 4101 H 378.895 -1.21818 1.07397 0
M  V30 4102 H 380.892 -4.16557 0.169088 0
M  V30 4103 H 379.552 -3.20633 -0.512275 0
M  V30 4104 H 380.563 -4.18304 3.05356 0
M  V30 4105 H 377.24 -4.1481 0.473134 0
M  V30 4106 H 378.63 -5.07096 4.40798 0
M  V30 4107 N 381.35 -0.985608 -1.22978 0
M  V30 4108 C 382.3 -0.50118 -2.22423 0
M  V30 4109 C 383.284 0.426649 -1.5514 0
M  V30 4110 O 384.476 0.254656 -1.75159 0
M  V30 4111 C 381.605 0.190003 -3.42774 0
M  V30 4112 C 380.691 -0.757703 -4.17276 0
M  V30 4113 N 381.082 -1.90251 -4.68656 0
M  V30 4114 C 379.38 -0.57209 -4.42316 0
M  V30 4115 C 380.081 -2.49676 -5.25392 0
M  V30 4116 N 379.057 -1.78013 -5.13627 0
M  V30 4117 H 382.859 -1.37441 -2.59783 0
M  V30 4118 H 380.373 -0.846941 -1.38567 0
M  V30 4119 H 382.37 0.55439 -4.13197 0
M  V30 4120 H 381.03 1.05946 -3.06929 0
M  V30 4121 H 382.041 -2.28354 -4.64839 0
M  V30 4122 H 378.718 0.251909 -4.16739 0
M  V30 4123 H 380.108 -3.46384 -5.75732 0
M  V30 4124 N 382.828 1.3818 -0.7579 0
M  V30 4125 C 383.758 2.33027 -0.148597 0
M  V30 4126 C 384.739 1.55085 0.69875 0
M  V30 4127 O 385.924 1.83384 0.639053 0
M  V30 4128 C 383.054 3.3928 0.742034 0
M  V30 4129 C 382.008 4.28 -0.00291946 0
M  V30 4130 C 381.334 5.25146 1.00625 0
M  V30 4131 C 382.634 5.08938 -1.17385 0
M  V30 4132 H 384.328 2.84231 -0.940909 0
M  V30 4133 H 381.874 1.36659 -0.453908 0
M  V30 4134 H 383.827 4.046 1.17799 0
M  V30 4135 H 382.551 2.86569 1.56671 0
M  V30 4136 H 381.21 3.64192 -0.419504 0
M  V30 4137 H 380.858 4.68721 1.8251 0
M  V30 4138 H 380.558 5.85361 0.512428 0
M  V30 4139 H 382.082 5.93342 1.44143 0
M  V30 4140 H 383.496 5.67474 -0.815224 0
M  V30 4141 H 381.893 5.7841 -1.59882 0
M  V30 4142 H 382.963 4.42424 -1.98468 0
M  V30 4143 N 384.306 0.507319 1.49211 0
M  V30 4144 C 385.554 -0.0348839 2.0207 0
M  V30 4145 C 385.875 -1.36898 1.38866 0
M  V30 4146 O 385.145 -1.88133 0.546151 0
M  V30 4147 H 383.725 -0.0158812 0.746831 0
M  V30 4148 H 386.387 0.665998 1.83168 0
M  V30 4149 H 385.483 -0.159917 3.1169 0
M  V30 4150 N 385.784 -1.5574 0.241426 0
M  V30 4151 C 386.731 -2.21149 -0.660432 0
M  V30 4152 C 387.701 -1.17356 -1.17545 0
M  V30 4153 O 388.886 -1.45784 -1.23093 0
M  V30 4154 C 386.026 -2.91059 -1.85414 0
M  V30 4155 C 385.139 -4.09495 -1.37616 0
M  V30 4156 C 384.274 -4.67135 -2.529 0
M  V30 4157 C 383.313 -5.77831 -2.01936 0
M  V30 4158 N 382.45 -6.29677 -3.10566 0
M  V30 4159 H 387.29 -2.97845 -0.095955 0
M  V30 4160 H 384.827 -1.47057 -0.0356024 0
M  V30 4161 H 386.785 -3.29788 -2.5553 0
M  V30 4162 H 385.415 -2.16846 -2.39118 0
M  V30 4163 H 384.467 -3.76117 -0.569235 0
M  V30 4164 H 385.779 -4.89423 -0.962618 0
M  V30 4165 H 384.933 -5.08409 -3.31067 0
M  V30 4166 H 383.672 -3.86411 -2.97553 0
M  V30 4167 H 382.677 -5.36039 -1.22238 0
M  V30 4168 H 383.902 -6.60402 -1.58259 0
M  V30 4169 H 381.848 -5.5186 -3.54664 0
M  V30 4170 H 381.765 -7.04783 -2.73526 0
M  V30 4171 H 383.033 -6.75609 -3.88809 0
M  V30 4172 N 387.262 0.0317525 -1.57568 0
M  V30 4173 C 388.487 0.738664 -1.938 0
M  V30 4174 C 388.912 1.68242 -0.841208 0
M  V30 4175 O 388.27 1.80157 0.203267 0
M  V30 4176 C 388.318 1.47417 -3.29091 0
M  V30 4177 O 387.422 2.5872 -3.2115 0
M  V30 4178 H 386.763 0.198856 -0.633524 0
M  V30 4179 H 389.293 -0.0119713 -2.04596 0
M  V30 4180 H 389.303 1.84468 -3.63917 0
M  V30 4181 H 387.978 0.781988 -4.08482 0
M  V30 4182 H 386.555 2.24231 -2.97951 0
M  V30 4183 N 388.74 1.54641 0.303973 0
M  V30 4184 C 389.989 1.7299 1.03717 0
M  V30 4185 C 390.302 0.521168 1.88529 0
M  V30 4186 O 391.508 0.586408 2.65092 0
M  V30 4187 C 389.964 3.06051 1.89369 0
M  V30 4188 C 389.572 4.34393 1.09574 0
M  V30 4189 C 391.316 3.3376 2.62306 0
M  V30 4190 C 389.223 5.58506 1.94486 0
M  V30 4191 H 388.153 0.64473 0.390947 0
M  V30 4192 H 390.804 1.81124 0.294328 0
M  V30 4193 H 389.186 2.91874 2.67629 0
M  V30 4194 H 390.36 4.59396 0.359485 0
M  V30 4195 H 388.675 4.13597 0.482324 0
M  V30 4196 H 391.272 4.23687 3.26181 0
M  V30 4197 H 391.615 2.52503 3.3098 0
M  V30 4198 H 392.148 3.48894 1.91097 0
M  V30 4199 H 388.887 6.42422 1.30287 0
M  V30 4200 H 388.407 5.37694 2.65792 0
M  V30 4201 H 390.086 5.95651 2.52605 0
M  V30 4202 N 390.218 -0.567019 1.47046 0
M  V30 4203 C 391.629 -1.14916 1.47143 0
M  V30 4204 C 391.98 -1.94954 0.220767 0
M  V30 4205 O 391.105 -2.05602 -0.67505 0
M  V30 4206 C 391.7 -2.09069 2.666 0
M  V30 4207 C 390.259 -2.62575 2.69687 0
M  V30 4208 C 389.406 -1.38755 2.40088 0
M  V30 4209 H 392.357 -0.354126 1.54699 0
M  V30 4210 H 392.378 -2.92789 2.43011 0
M  V30 4211 H 391.89 -1.50789 3.57609 0
M  V30 4212 H 389.991 -3.24681 1.82792 0
M  V30 4213 H 390.104 -3.04239 3.70102 0
M  V30 4214 H 388.468 -1.69098 1.90468 0
M  V30 4215 H 389.251 -0.822822 3.33293 0
M  V30 4216 N 391.696 -1.35014 -0.812953 0
M  V30 4217 C 392.924 -1.31031 -1.6012 0
M  V30 4218 C 393.339 0.113558 -1.88458 0
M  V30 4219 O 392.696 1.06363 -1.48301 0
M  V30 4220 C 392.747 -2.10872 -2.93624 0
M  V30 4221 O 392.468 -3.47706 -2.66518 0
M  V30 4222 C 393.969 -2.14401 -3.88004 0
M  V30 4223 H 391.189 -0.45037 -0.497401 0
M  V30 4224 H 393.733 -1.77775 -1.01076 0
M  V30 4225 H 391.888 -1.67744 -3.492 0
M  V30 4226 H 392.302 -3.89097 -3.51715 0
M  V30 4227 H 393.776 -2.74669 -4.78812 0
M  V30 4228 H 394.253 -1.14105 -4.24119 0
M  V30 4229 H 394.859 -2.57662 -3.38364 0
M  V30 4230 N 393.175 1.03435 -1.18907 0
M  V30 4231 C 394.452 1.73778 -0.89781 0
M  V30 4232 C 394.832 2.02458 0.597832 0
M  V30 4233 O 394.18 1.67482 1.55441 0
M  V30 4234 C 394.39 3.01845 -1.75187 0
M  V30 4235 C 395.738 3.7546 -1.9828 0
M  V30 4236 O 396.762 3.11759 -1.72293 0
M  V30 4237 O 395.621 4.89966 -2.42065 0
M  V30 4238 H 392.715 0.75651 -0.334098 0
M  V30 4239 H 395.261 1.09444 -1.29693 0
M  V30 4240 H 394.033 2.76836 -2.76545 0
M  V30 4241 H 393.656 3.73919 -1.35167 0
M  V30 4242 N 394.653 0.992116 1.22453 0
M  V30 4243 C 395.601 0.534644 2.26372 0
M  V30 4244 C 396.595 -0.414293 1.64256 0
M  V30 4245 O 397.801 -0.286899 1.77699 0
M  V30 4246 H 394.176 0.154502 0.735957 0
M  V30 4247 H 396.147 1.42256 2.62309 0
M  V30 4248 C 394.896 -0.135815 3.47435 0
M  V30 4249 H 394.219 0.585311 3.95492 0
M  V30 4250 H 395.659 -0.419374 4.21921 0
M  V30 4251 C 394.118 -1.37089 3.07747 0
M  V30 4252 O 394.648 -2.46629 3.17076 0
M  V30 4253 N 392.854 -1.24585 2.62539 0
M  V30 4254 H 392.401 -0.354542 2.55149 0
M  V30 4255 H 392.359 -2.07327 2.36353 0
M  V30 4256 N 396.131 -1.37776 0.765217 0
M  V30 4257 C 397.063 -2.28958 0.105361 0
M  V30 4258 C 398.076 -1.48316 -0.67128 0
M  V30 4259 O 399.265 -1.71046 -0.51045 0
M  V30 4260 C 396.365 -3.27421 -0.874569 0
M  V30 4261 C 395.538 -4.37132 -0.153123 0
M  V30 4262 C 394.597 -5.1571 -1.04547 0
M  V30 4263 O 393.623 -5.66896 -0.511672 0
M  V30 4264 N 394.825 -5.29808 -2.37243 0
M  V30 4265 H 397.59 -2.86227 0.888495 0
M  V30 4266 H 395.151 -1.49682 0.617 0
M  V30 4267 H 397.143 -3.7687 -1.47483 0
M  V30 4268 H 395.713 -2.70967 -1.55871 0
M  V30 4269 H 394.933 -3.89166 0.627975 0
M  V30 4270 H 396.221 -5.07625 0.345643 0
M  V30 4271 H 395.619 -4.89793 -2.83054 0
M  V30 4272 H 394.176 -5.82589 -2.9229 0
M  V30 4273 N 397.609 -0.515225 -1.4894 0
M  V30 4274 C 398.858 0.0261361 -2.01683 0
M  V30 4275 C 399.171 1.36719 -1.39883 0
M  V30 4276 O 400.377 1.99606 -1.84037 0
M  V30 4277 C 398.833 0.0970111 -3.59769 0
M  V30 4278 C 398.441 -1.23825 -4.30548 0
M  V30 4279 C 400.185 0.587981 -4.20408 0
M  V30 4280 C 398.092 -1.12877 -5.80528 0
M  V30 4281 H 397.022 0.0135398 -0.753878 0
M  V30 4282 H 399.673 -0.656787 -1.71343 0
M  V30 4283 H 398.055 0.844694 -3.86886 0
M  V30 4284 H 399.229 -2.00034 -4.15118 0
M  V30 4285 H 397.544 -1.66379 -3.81716 0
M  V30 4286 H 400.141 0.68763 -5.3026 0
M  V30 4287 H 400.484 1.59026 -3.84729 0
M  V30 4288 H 401.017 -0.103582 -3.97665 0
M  V30 4289 H 397.756 -2.10575 -6.20756 0
M  V30 4290 H 397.276 -0.407799 -5.98412 0
M  V30 4291 H 398.955 -0.813332 -6.41868 0
M  V30 4292 N 399.087 1.5561 -0.249682 0
M  V30 4293 C 400.034 2.21496 0.648694 0
M  V30 4294 C 401.004 1.17977 1.16921 0
M  V30 4295 O 402.189 1.46434 1.22318 0
M  V30 4296 C 399.329 2.92039 1.83868 0
M  V30 4297 C 398.442 4.10219 1.35442 0
M  V30 4298 C 397.577 4.6847 2.50419 0
M  V30 4299 C 396.616 5.78893 1.98869 0
M  V30 4300 N 395.753 6.31315 3.07223 0
M  V30 4301 H 400.593 2.97892 0.0801582 0
M  V30 4302 H 398.13 1.47074 0.0278031 0
M  V30 4303 H 400.088 3.31138 2.53778 0
M  V30 4304 H 398.718 2.18111 2.37965 0
M  V30 4305 H 397.77 3.76413 0.54928 0
M  V30 4306 H 399.082 4.89927 0.936649 0
M  V30 4307 H 398.236 5.10158 3.28366 0
M  V30 4308 H 396.975 3.87984 2.95499 0
M  V30 4309 H 395.98 5.3668 1.19393 0
M  V30 4310 H 397.205 6.61232 1.54755 0
M  V30 4311 H 395.151 5.53733 3.51732 0
M  V30 4312 H 395.068 7.06224 2.69784 0
M  V30 4313 H 396.336 6.77662 3.8522 0
M  V30 4314 N 400.565 -0.0233959 1.57583 0
M  V30 4315 C 401.528 -1.00693 2.05897 0
M  V30 4316 C 402.528 -1.28693 0.964092 0
M  V30 4317 O 403.718 -1.23602 1.22753 0
M  V30 4318 C 400.85 -2.33825 2.4807 0
M  V30 4319 H 402.043 -0.589476 2.9405 0
M  V30 4320 H 399.596 -0.270354 1.53944 0
M  V30 4321 H 400.331 -2.80307 1.6309 0
M  V30 4322 H 400.116 -2.1483 3.2801 0
M  V30 4323 H 401.606 -3.04426 2.85857 0
M  V30 4324 N 402.043 -1.548 -0.295768 0
M  V30 4325 C 403.459 -1.4613 -0.641722 0
M  V30 4326 C 403.659 -0.656771 -1.90496 0
M  V30 4327 O 402.715 -0.166547 -2.5195 0
M  V30 4328 C 404.028 -2.90141 -0.789852 0
M  V30 4329 C 405.576 -3.00216 -0.885396 0
M  V30 4330 C 406.051 -4.45434 -1.06548 0
M  V30 4331 N 407.542 -4.49166 -1.13156 0
M  V30 4332 C 408.277 -5.58717 -1.28929 0
M  V30 4333 N 407.773 -6.78182 -1.41567 0
M  V30 4334 N 409.566 -5.46415 -1.31859 0
M  V30 4335 H 401.717 -2.05574 0.534147 0
M  V30 4336 H 403.98 -0.931259 0.177372 0
M  V30 4337 H 403.686 -3.51635 0.0675598 0
M  V30 4338 H 403.56 -3.37859 -1.67724 0
M  V30 4339 H 405.947 -2.38833 -1.73329 0
M  V30 4340 H 406.028 -2.55787 0.0261185 0
M  V30 4341 H 405.672 -5.07413 -0.222335 0
M  V30 4342 H 405.602 -4.87499 -1.9913 0
M  V30 4343 H 408.093 -3.631 -1.04721 0
M  V30 4344 H 408.406 -7.57428 -1.53372 0
M  V30 4345 H 406.751 -6.81037 -1.38613 0
M  V30 4346 H 409.942 -4.5203 -1.21601 0
M  V30 4347 H 410.115 -6.31841 -1.43808 0
M  V30 4348 N 403.521 0.559213 -1.47345 0
M  V30 4349 C 404.468 1.66645 -1.59682 0
M  V30 4350 C 405.438 1.60168 -0.43994 0
M  V30 4351 O 406.623 1.79031 -0.659736 0
M  V30 4352 C 403.763 3.04969 -1.61518 0
M  V30 4353 C 402.876 3.21897 -2.88108 0
M  V30 4354 C 402.011 4.50608 -2.81294 0
M  V30 4355 C 401.05 4.60961 -4.02717 0
M  V30 4356 N 400.187 5.81024 -3.94151 0
M  V30 4357 H 405.027 1.55439 -2.54249 0
M  V30 4358 H 402.564 0.757219 -1.26113 0
M  V30 4359 H 404.522 3.85064 -1.60566 0
M  V30 4360 H 403.152 3.15015 -0.704645 0
M  V30 4361 H 402.204 2.35248 -2.98936 0
M  V30 4362 H 403.516 3.25412 -3.78032 0
M  V30 4363 H 402.67 5.3896 -2.7858 0
M  V30 4364 H 401.409 4.49568 -1.89049 0
M  V30 4365 H 400.414 3.71021 -4.05738 0
M  V30 4366 H 401.639 4.63761 -4.96087 0
M  V30 4367 H 399.585 5.80938 -3.04708 0
M  V30 4368 H 399.502 5.85909 -4.77752 0
M  V30 4369 H 400.77 6.71744 -3.9545 0
M  V30 4370 O 405.038 1.45356 0.703831 0
M  V30 4371 H 405.729 1.38392 1.35526 0
M  V30 END ATOM
M  V30 BEGIN BOND
M  V30 END BOND
M  V30 END CTAB
M  END
$$$$
