drugbank_target|P9WNX1 Dihydrofolate reductase (DB00951; DB04007)
 OpenBabel12092120023D

  0  0  0     0  0            999 V3000
M  V30 BEGIN CTAB
M  V30 COUNTS 2498 2529 0 0 0
M  V30 BEGIN ATOM
M  V30 1 H -0.908 1.98254 -0.117106 0
M  V30 2 N 0 1.576 0 0
M  V30 3 C 0.933 2.03868 1.02534 0
M  V30 4 C 1.911 0.928543 1.3348 0
M  V30 5 O 3.095 1.19667 1.45644 0
M  V30 6 C 0.222 2.43627 2.35294 0
M  V30 7 C -0.732 3.65373 2.2001 0
M  V30 8 S 0.101 5.13292 1.52614 0
M  V30 9 C 1.257 5.56322 2.86805 0
M  V30 10 H 1.49 2.90518 0.631377 0
M  V30 11 H -0.977 1.52953 0.210867 0
M  V30 12 H 0.981 2.67203 3.11629 0
M  V30 13 H -0.358 1.57376 2.7183 0
M  V30 14 H -1.165 3.90944 3.18086 0
M  V30 15 H -1.563 3.418 1.51819 0
M  V30 16 H 0.729 5.58782 3.83104 0
M  V30 17 H 1.672 6.56266 2.65933 0
M  V30 18 H 2.08 4.83886 2.90714 0
M  V30 19 N 1.4781 -0.272755 1.55222 0
M  V30 20 C 2.7061 -1.02255 1.79865 0
M  V30 21 C 3.1211 -1.79924 0.572088 0
M  V30 22 O 2.4781 -1.76638 -0.458842 0
M  V30 23 C 2.5291 -1.98094 3.02392 0
M  V30 24 O 2.2501 -1.23572 4.20311 0
M  V30 25 C 3.7511 -2.84884 3.39641 0
M  V30 26 H 0.9711 -0.302057 0.599168 0
M  V30 27 H 3.5151 -0.303465 2.02236 0
M  V30 28 H 1.6701 -2.65465 2.82147 0
M  V30 29 H 2.0841 -1.88172 4.89583 0
M  V30 30 H 3.5581 -3.47927 4.28545 0
M  V30 31 H 4.0351 -3.54665 2.59055 0
M  V30 32 H 4.6411 -2.23003 3.62146 0
M  V30 33 N 2.9562 -1.48159 -0.537278 0
M  V30 34 C 3.8892 -1.567 -1.65893 0
M  V30 35 C 4.8672 -0.41787 -1.57139 0
M  V30 36 O 6.0512 -0.628461 -1.77715 0
M  V30 37 C 3.1782 -1.48818 -3.04255 0
M  V30 38 C 2.2242 -2.68482 -3.31391 0
M  V30 39 S 3.0572 -4.30516 -3.1846 0
M  V30 40 C 4.2132 -4.2522 -4.59281 0
M  V30 41 H 4.4462 -2.5159 -1.58397 0
M  V30 42 H 1.9792 -1.36602 -0.719672 0
M  V30 43 H 3.9372 -1.44958 -3.84054 0
M  V30 44 H 2.5982 -0.552777 -3.09198 0
M  V30 45 H 1.7912 -2.59085 -4.32309 0
M  V30 46 H 1.3932 -2.69567 -2.59248 0
M  V30 47 H 3.6852 -3.94703 -5.5065 0
M  V30 48 H 4.6282 -5.26292 -4.73732 0
M  V30 49 H 5.0362 -3.55791 -4.38261 0
M  V30 50 N 4.4343 0.785586 -1.36625 0
M  V30 51 C 5.6803 1.54591 -1.31261 0
M  V30 52 C 6.0133 1.93906 0.106823 0
M  V30 53 O 5.2883 1.63007 1.06108 0
M  V30 54 C 5.5713 2.82038 -2.23889 0
M  V30 55 C 5.4243 2.49066 -3.74548 0
M  V30 56 C 6.7433 3.83887 -2.15217 0
M  V30 57 H 3.8623 0.560846 -0.478143 0
M  V30 58 H 6.5043 0.902278 -1.67209 0
M  V30 59 H 4.6543 3.36961 -1.93363 0
M  V30 60 H 6.3263 2.00164 -4.15611 0
M  V30 61 H 4.5693 1.81954 -3.93796 0
M  V30 62 H 5.2403 3.40109 -4.34776 0
M  V30 63 H 7.7163 3.38421 -2.42096 0
M  V30 64 H 6.5923 4.70806 -2.82193 0
M  V30 65 H 6.8533 4.27131 -1.14068 0
M  V30 66 N 5.9124 1.20967 1.01018 0
M  V30 67 C 7.1604 1.02172 1.74371 0
M  V30 68 C 7.4814 -0.446414 1.89821 0
M  V30 69 O 6.7514 -1.32234 1.44537 0
M  V30 70 H 5.3314 0.375066 0.646014 0
M  V30 71 H 7.9934 1.52187 1.21758 0
M  V30 72 H 7.0894 1.48538 2.74487 0
M  V30 73 N 7.3905 -1.2043 1.01659 0
M  V30 74 C 8.3205 -2.25466 0.607226 0
M  V30 75 C 9.3015 -1.65853 -0.377716 0
M  V30 76 O 10.4865 -1.92409 -0.263149 0
M  V30 77 C 7.6165 -3.47256 -0.0552949 0
M  V30 78 C 6.5705 -4.19462 0.850632 0
M  V30 79 C 5.8965 -5.34673 0.0538859 0
M  V30 80 C 7.1965 -4.75603 2.15868 0
M  V30 81 H 8.8905 -2.59962 1.48526 0
M  V30 82 H 6.4365 -1.2496 0.715605 0
M  V30 83 H 8.3895 -4.19917 -0.353233 0
M  V30 84 H 7.1135 -3.11924 -0.968045 0
M  V30 85 H 5.7725 -3.48667 1.13257 0
M  V30 86 H 5.4205 -4.95585 -0.860514 0
M  V30 87 H 5.1205 -5.83913 0.657192 0
M  V30 88 H 6.6445 -6.10138 -0.237598 0
M  V30 89 H 8.0585 -5.40083 1.92311 0
M  V30 90 H 6.4555 -5.3528 2.71284 0
M  V30 91 H 7.5255 -3.94346 2.82169 0
M  V30 92 N 8.8686 -0.792821 -1.36206 0
M  V30 93 C 10.1176 -0.363353 -1.984 0
M  V30 94 C 10.4306 1.07172 -1.63626 0
M  V30 95 O 11.6366 1.60362 -2.19081 0
M  V30 96 C 10.0926 -0.59872 -3.54885 0
M  V30 97 C 9.7006 -2.04543 -3.9858 0
M  V30 98 C 11.4446 -0.233926 -4.23855 0
M  V30 99 C 9.3516 -2.22727 -5.47856 0
M  V30 100 H 8.2816 -0.13212 -0.742334 0
M  V30 101 H 10.9326 -0.974935 -1.55458 0
M  V30 102 H 9.3146 0.0826222 -3.95914 0
M  V30 103 H 10.4886 -2.76345 -3.68741 0
M  V30 104 H 8.8036 -2.36879 -3.42458 0
M  V30 105 H 11.4006 -0.348027 -5.33566 0
M  V30 106 H 11.7436 0.818351 -4.08177 0
M  V30 107 H 12.2766 -0.868639 -3.882 0
M  V30 108 H 9.0156 -3.2635 -5.68486 0
M  V30 109 H 8.5356 -1.55434 -5.7931 0
M  V30 110 H 10.2146 -2.03607 -6.14128 0
M  V30 111 N 10.3467 1.47872 -0.545128 0
M  V30 112 C 11.5927 2.03385 -0.0247951 0
M  V30 113 C 11.9477 1.41325 1.30556 0
M  V30 114 O 11.2407 0.5552 1.8338 0
M  V30 115 C 11.4347 3.57131 0.13867 0
M  V30 116 C 11.2637 4.34097 -1.17429 0
M  V30 117 C 10.0337 4.74458 -1.73831 0
M  V30 118 C 12.2317 4.6998 -2.08861 0
M  V30 119 N 10.2137 5.3602 -2.99258 0
M  V30 120 C 11.5847 5.31719 -3.18866 0
M  V30 121 C 13.6397 4.5191 -2.09003 0
M  V30 122 C 12.3427 5.77295 -4.29096 0
M  V30 123 C 14.3687 4.98477 -3.18237 0
M  V30 124 C 13.7307 5.60253 -4.26961 0
M  V30 125 H 9.8297 0.780339 -0.050943 0
M  V30 126 H 12.4137 1.80507 -0.729753 0
M  V30 127 H 10.5847 3.79802 0.812733 0
M  V30 128 H 12.3167 3.99282 0.659976 0
M  V30 129 H 9.0717 4.56037 -1.2778 0
M  V30 130 H 9.4957 5.71355 -3.63157 0
M  V30 131 H 14.1377 4.03516 -1.26234 0
M  V30 132 H 11.8557 6.24687 -5.12633 0
M  V30 133 H 15.4417 4.86274 -3.1942 0
M  V30 134 H 14.3217 5.95631 -5.10091 0
M  V30 135 N 11.8248 0.280983 1.55075 0
M  V30 136 C 12.7878 -0.590896 2.21452 0
M  V30 137 C 13.7878 -1.07682 1.19421 0
M  V30 138 O 14.9778 -0.97605 1.44288 0
M  V30 139 C 12.1098 -1.81587 2.88511 0
M  V30 140 H 13.3028 -0.0112554 2.99898 0
M  V30 141 H 10.8558 0.0316438 1.56268 0
M  V30 142 H 11.5908 -2.43587 2.14093 0
M  V30 143 H 11.3758 -1.4753 3.63287 0
M  V30 144 H 12.8658 -2.43575 3.39206 0
M  V30 145 N 13.3029 -1.57598 0.00835791 0
M  V30 146 C 14.2349 -2.05811 -1.00868 0
M  V30 147 C 15.2479 -0.977579 -1.30182 0
M  V30 148 O 16.4369 -1.25421 -1.27011 0
M  V30 149 C 13.5369 -2.45016 -2.34137 0
M  V30 150 C 12.7099 -3.75903 -2.23643 0
M  V30 151 C 11.7689 -4.01884 -3.3967 0
M  V30 152 O 10.7949 -4.72433 -3.17483 0
M  V30 153 N 11.9969 -3.50432 -4.62793 0
M  V30 154 H 14.7619 -2.93684 -0.597458 0
M  V30 155 H 12.3229 -1.60909 -0.178852 0
M  V30 156 H 14.3149 -2.59506 -3.10546 0
M  V30 157 H 12.8849 -1.62618 -2.66972 0
M  V30 158 H 12.1049 -3.7141 -1.32091 0
M  V30 159 H 13.3929 -4.61695 -2.13812 0
M  V30 160 H 12.7909 -2.93317 -4.83716 0
M  V30 161 H 11.3479 -3.70236 -5.3644 0
M  V30 162 N 14.781 0.264519 -1.55364 0
M  V30 163 C 15.744 1.31046 -1.88042 0
M  V30 164 C 16.744 1.41943 -0.755569 0
M  V30 165 O 17.934 1.40947 -1.02369 0
M  V30 166 C 15.066 2.69067 -2.09323 0
M  V30 167 H 16.259 1.03297 -2.81549 0
M  V30 168 H 13.812 0.502989 -1.47986 0
M  V30 169 H 14.547 3.01982 -1.18226 0
M  V30 170 H 14.332 2.62542 -2.91229 0
M  V30 171 H 15.822 3.44623 -2.35848 0
M  V30 172 N 16.2591 1.48442 0.529413 0
M  V30 173 C 17.4871 1.60151 1.30994 0
M  V30 174 C 17.9021 0.261985 1.86973 0
M  V30 175 O 17.2591 -0.748805 1.66431 0
M  V30 176 C 17.3101 2.64854 2.46038 0
M  V30 177 O 17.0311 3.93608 1.92365 0
M  V30 178 C 18.5321 2.87007 3.37849 0
M  V30 179 H 15.7521 0.539971 0.398338 0
M  V30 180 H 18.2961 1.94273 0.638597 0
M  V30 181 H 16.4511 2.33589 3.09055 0
M  V30 182 H 16.8651 4.51055 2.67675 0
M  V30 183 H 18.3391 3.64068 4.14919 0
M  V30 184 H 18.8161 1.95852 3.93114 0
M  V30 185 H 19.4221 3.19579 2.80623 0
M  V30 186 N 17.7372 -0.778329 1.37039 0
M  V30 187 C 18.9622 -1.57248 1.35233 0
M  V30 188 C 19.3872 -1.87999 -0.0615568 0
M  V30 189 O 18.7452 -1.48734 -1.03672 0
M  V30 190 C 18.7932 -2.86353 2.19167 0
M  V30 191 O 17.8972 -3.80442 1.59178 0
M  V30 192 H 17.2382 -0.476569 0.462362 0
M  V30 193 H 19.7682 -0.963853 1.80474 0
M  V30 194 H 19.7782 -3.35519 2.32145 0
M  V30 195 H 18.4532 -2.63299 3.21942 0
M  V30 196 H 17.0302 -3.39067 1.55203 0
M  V30 197 N 19.2153 -1.21501 -1.00376 0
M  V30 198 C 20.4633 -1.03095 -1.73827 0
M  V30 199 C 20.7843 0.436341 -1.90055 0
M  V30 200 O 20.0543 1.31466 -1.45236 0
M  V30 201 H 18.6343 -0.378487 -0.644016 0
M  V30 202 H 21.2963 -1.52831 -1.20949 0
M  V30 203 H 20.3923 -1.49991 -2.73695 0
M  V30 204 N 20.6934 1.19889 -1.02296 0
M  V30 205 C 21.9394 1.89701 -0.717033 0
M  V30 206 C 22.2724 1.7905 0.751989 0
M  V30 207 O 21.5474 1.17891 1.547 0
M  V30 208 C 21.8304 3.40858 -1.16136 0
M  V30 209 C 21.6834 3.60411 -2.69117 0
M  V30 210 C 23.0024 4.33876 -0.737549 0
M  V30 211 H 20.1214 0.688874 -0.261957 0
M  V30 212 H 22.7634 1.41154 -1.27183 0
M  V30 213 H 20.9134 3.82335 -0.689342 0
M  V30 214 H 22.5854 3.28145 -3.2422 0
M  V30 215 H 20.8284 3.03665 -3.0979 0
M  V30 216 H 21.4994 4.66396 -2.95261 0
M  V30 217 H 23.9754 4.00081 -1.14344 0
M  V30 218 H 22.8514 5.38242 -1.0764 0
M  V30 219 H 23.1124 4.40628 0.360436 0
M  V30 220 N 22.1715 0.800033 1.35784 0
M  V30 221 C 23.4205 0.37387 1.98205 0
M  V30 222 C 23.7335 -1.06302 1.64193 0
M  V30 223 O 24.9395 -1.59198 2.19928 0
M  V30 224 C 23.3955 0.617532 3.54562 0
M  V30 225 C 23.0035 2.06654 3.9749 0
M  V30 226 C 24.7475 0.256401 4.23725 0
M  V30 227 C 22.6545 2.2563 5.46667 0
M  V30 228 H 21.5845 0.136055 0.741623 0
M  V30 229 H 24.2355 0.983166 1.54939 0
M  V30 230 H 22.6175 -0.0616248 3.95952 0
M  V30 231 H 23.7915 2.78296 3.67271 0
M  V30 232 H 22.1065 2.38691 3.41197 0
M  V30 233 H 24.7035 0.376318 5.33374 0
M  V30 234 H 25.0465 -0.796692 4.08606 0
M  V30 235 H 25.5795 0.889214 3.87734 0
M  V30 236 H 22.3185 3.2936 5.66747 0
M  V30 237 H 21.8385 1.58504 5.78478 0
M  V30 238 H 23.5175 2.06861 6.1304 0
M  V30 239 N 23.6496 -1.47581 0.552962 0
M  V30 240 C 24.8976 -2.02082 0.0272703 0
M  V30 241 C 25.2186 -1.4301 -1.32563 0
M  V30 242 O 24.4886 -0.603745 -1.86365 0
M  V30 243 H 23.0686 -0.746966 0.00709182 0
M  V30 244 H 25.7306 -1.81033 0.722008 0
M  V30 245 H 24.8266 -3.12034 -0.0639951 0
M  V30 246 N 25.1277 -0.289203 -1.54924 0
M  V30 247 C 26.5437 0.0645403 -1.59469 0
M  V30 248 C 26.7437 1.53419 -1.30632 0
M  V30 249 O 25.7997 2.2852 -1.074 0
M  V30 250 C 27.1127 -0.32278 -2.98963 0
M  V30 251 C 28.6607 -0.270564 -3.11828 0
M  V30 252 C 29.1357 -0.632532 -4.53611 0
M  V30 253 N 30.6267 -0.584617 -4.59496 0
M  V30 254 C 31.3617 -0.837314 -5.67254 0
M  V30 255 N 30.8577 -1.15536 -6.83098 0
M  V30 256 N 32.6507 -0.765166 -5.56868 0
M  V30 257 H 24.8017 -1.24714 -1.71931 0
M  V30 258 H 27.0647 -0.504809 -0.802416 0
M  V30 259 H 26.7707 -1.34541 -3.24948 0
M  V30 260 H 26.6447 0.32944 -3.75759 0
M  V30 261 H 29.0317 0.742805 -2.85598 0
M  V30 262 H 29.1127 -0.957242 -2.37214 0
M  V30 263 H 28.7567 -1.64365 -4.80569 0
M  V30 264 H 28.6867 0.07609 -5.26545 0
M  V30 265 H 31.1777 -0.349248 -3.76283 0
M  V30 266 H 31.4907 -1.33447 -7.61191 0
M  V30 267 H 29.8357 -1.19328 -6.84679 0
M  V30 268 H 33.0267 -0.516432 -4.65243 0
M  V30 269 H 33.1997 -0.965477 -6.40767 0
M  V30 270 N 26.6058 1.57591 -0.0167156 0
M  V30 271 C 27.8538 1.90906 0.663285 0
M  V30 272 C 28.1748 0.892509 1.73376 0
M  V30 273 O 27.4448 -0.0677623 1.95783 0
M  V30 274 H 26.0248 0.704637 0.247983 0
M  V30 275 H 28.6868 1.94803 -0.0615909 0
M  V30 276 H 27.7828 2.9116 1.12393 0
M  V30 277 N 28.0839 -0.256276 1.55502 0
M  V30 278 C 29.3319 -0.983672 1.76545 0
M  V30 279 C 29.6529 -1.86206 0.578982 0
M  V30 280 O 28.9229 -1.91656 -0.405577 0
M  V30 281 H 27.5029 -0.366191 0.651086 0
M  V30 282 H 30.1649 -0.276479 1.92929 0
M  V30 283 H 29.2609 -1.61087 2.67315 0
M  V30 284 N 29.562 -1.4872 -0.521534 0
M  V30 285 C 30.839 -1.4766 -1.2828 0
M  V30 286 C 31.219 -0.19292 -2.10217 0
M  V30 287 O 30.567 0.825193 -2.13079 0
M  V30 288 C 30.777 -2.74358 -2.15705 0
M  V30 289 C 32.125 -3.23028 -2.75569 0
M  V30 290 O 33.149 -2.75333 -2.25987 0
M  V30 291 O 32.008 -4.0604 -3.65778 0
M  V30 292 H 29.102 -0.590085 -0.579421 0
M  V30 293 H 31.648 -1.60963 -0.537492 0
M  V30 294 H 30.42 -3.59292 -1.54999 0
M  V30 295 H 30.043 -2.63816 -2.97467 0
M  V30 296 N 31.0401 0.771051 -1.3745 0
M  V30 297 C 32.2891 1.52491 -1.3202 0
M  V30 298 C 32.6021 1.9538 0.0927347 0
M  V30 299 O 33.8081 2.70159 0.269503 0
M  V30 300 C 32.2641 2.75366 -2.31736 0
M  V30 301 C 31.8721 2.39573 -3.78562 0
M  V30 302 C 33.6161 3.53307 -2.35318 0
M  V30 303 C 31.5231 3.58954 -4.70007 0
M  V30 304 H 30.4531 0.572506 -0.490666 0
M  V30 305 H 33.1041 0.844474 -1.62914 0
M  V30 306 H 31.4861 3.45303 -1.93861 0
M  V30 307 H 32.6601 1.77415 -4.25277 0
M  V30 308 H 30.9751 1.74805 -3.77932 0
M  V30 309 H 33.5721 4.42039 -3.00842 0
M  V30 310 H 33.9151 3.93217 -1.36698 0
M  V30 311 H 34.4481 2.90367 -2.71904 0
M  V30 312 H 31.1871 3.24125 -5.69757 0
M  V30 313 H 30.7071 4.20214 -4.27996 0
M  V30 314 H 32.3861 4.25758 -4.87175 0
M  V30 315 N 32.5182 1.22032 0.997298 0
M  V30 316 C 33.9292 1.0397 1.55071 0
M  V30 317 C 34.2802 -0.398192 1.92117 0
M  V30 318 O 33.4052 -1.28254 1.74298 0
M  V30 319 C 34.0002 1.88109 2.81781 0
M  V30 320 C 32.5592 1.74357 3.33581 0
M  V30 321 C 31.7062 1.84846 2.06706 0
M  V30 322 H 34.6572 1.35941 0.818883 0
M  V30 323 H 34.6782 1.39589 3.53971 0
M  V30 324 H 34.1902 2.92754 2.54787 0
M  V30 325 H 32.2912 0.72427 3.65493 0
M  V30 326 H 32.4042 2.56772 4.04481 0
M  V30 327 H 30.7682 1.28238 2.20062 0
M  V30 328 H 31.5512 2.91014 1.82114 0
M  V30 329 N 33.9963 -1.19345 1.0293 0
M  V30 330 C 35.2423 -1.89585 0.736824 0
M  V30 331 C 35.5973 -1.78148 -0.726703 0
M  V30 332 O 34.8903 -1.16332 -1.52242 0
M  V30 333 C 35.0843 -3.39292 1.12319 0
M  V30 334 C 34.9133 -3.65298 2.62273 0
M  V30 335 C 33.6833 -3.83304 3.29251 0
M  V30 336 C 35.8813 -3.6682 3.60482 0
M  V30 337 N 33.8633 -3.96944 4.68304 0
M  V30 338 C 35.2343 -3.86037 4.85155 0
M  V30 339 C 37.2893 -3.49848 3.54275 0
M  V30 340 C 35.9923 -3.9004 6.04369 0
M  V30 341 C 38.0183 -3.55129 4.72903 0
M  V30 342 C 37.3803 -3.74831 5.9639 0
M  V30 343 H 33.4793 -0.712856 0.321497 0
M  V30 344 H 36.0633 -1.43427 1.31669 0
M  V30 345 H 34.2343 -3.84172 0.571524 0
M  V30 346 H 35.9663 -3.97055 0.78292 0
M  V30 347 H 32.7213 -3.82211 2.79663 0
M  V30 348 H 33.1453 -4.07613 5.40538 0
M  V30 349 H 37.7873 -3.33572 2.59788 0
M  V30 350 H 35.5053 -4.05108 6.99223 0
M  V30 351 H 39.0913 -3.43287 4.69729 0
M  V30 352 H 37.9713 -3.78792 6.86649 0
M  V30 353 N 35.4744 -0.807222 -1.35358 0
M  V30 354 C 36.8904 -0.491038 -1.51858 0
M  V30 355 C 37.0904 0.987648 -1.75635 0
M  V30 356 O 36.1464 1.77265 -1.79815 0
M  V30 357 C 37.4594 -1.33695 -2.69344 0
M  V30 358 C 39.0074 -1.33246 -2.83222 0
M  V30 359 C 39.4824 -2.1625 -4.03733 0
M  V30 360 N 40.9734 -2.1379 -4.10911 0
M  V30 361 C 41.7084 -2.74772 -5.03277 0
M  V30 362 N 41.2044 -3.44684 -6.0097 0
M  V30 363 N 42.9974 -2.6441 -4.96028 0
M  V30 364 H 35.1484 -1.76485 -1.18181 0
M  V30 365 H 37.4114 -0.751199 -0.578276 0
M  V30 366 H 37.1174 -2.38634 -2.58354 0
M  V30 367 H 36.9914 -0.990618 -3.6396 0
M  V30 368 H 39.3784 -0.290911 -2.93663 0
M  V30 369 H 39.4594 -1.71866 -1.89461 0
M  V30 370 H 39.1034 -3.20445 -3.94052 0
M  V30 371 H 39.0334 -1.74989 -4.96675 0
M  V30 372 H 41.5244 -1.62923 -3.40976 0
M  V30 373 H 41.8374 -3.88501 -6.68047 0
M  V30 374 H 40.1824 -3.48788 -6.01142 0
M  V30 375 H 43.3734 -2.0938 -4.18662 0
M  V30 376 H 43.5464 -3.12225 -5.6782 0
M  V30 377 N 36.9525 1.47285 -0.560781 0
M  V30 378 C 37.8825 2.32857 0.173105 0
M  V30 379 C 38.8635 1.44009 0.905281 0
M  V30 380 O 40.0485 1.7286 0.885046 0
M  V30 381 C 37.1785 3.25861 1.20133 0
M  V30 382 C 36.1325 4.23978 0.585388 0
M  V30 383 C 35.4585 5.06332 1.7185 0
M  V30 384 C 36.7585 5.20242 -0.463178 0
M  V30 385 H 38.4525 2.94466 -0.541307 0
M  V30 386 H 35.9985 1.41601 -0.261764 0
M  V30 387 H 37.9515 3.84569 1.72293 0
M  V30 388 H 36.6755 2.62315 1.94573 0
M  V30 389 H 35.3345 3.66501 0.085054 0
M  V30 390 H 34.9825 4.39186 2.45203 0
M  V30 391 H 34.6825 5.72762 1.31213 0
M  V30 392 H 36.2065 5.67899 2.24329 0
M  V30 393 H 37.6205 5.73293 -0.027502 0
M  V30 394 H 36.0175 5.94896 -0.788627 0
M  V30 395 H 37.0875 4.65504 -1.35773 0
M  V30 396 N 38.4306 0.297415 1.54768 0
M  V30 397 C 39.8416 -0.195947 1.85669 0
M  V30 398 C 40.1926 -1.53707 1.21937 0
M  V30 399 O 39.3176 -2.10164 0.515754 0
M  V30 400 C 39.9126 -0.362318 3.36857 0
M  V30 401 C 38.4716 -0.799901 3.67802 0
M  V30 402 C 37.6186 0.0938578 2.77141 0
M  V30 403 H 40.5696 0.518538 1.4999 0
M  V30 404 H 40.5906 -1.19745 3.61167 0
M  V30 405 H 40.1026 0.613921 3.83214 0
M  V30 406 H 38.2036 -1.78682 3.26961 0
M  V30 407 H 38.3166 -0.621773 4.75048 0
M  V30 408 H 36.6806 -0.426254 2.51108 0
M  V30 409 H 37.4636 1.06639 3.26318 0
M  V30 410 N 39.9087 -1.5758 0.0250728 0
M  V30 411 C 40.8187 -2.1343 -0.973905 0
M  V30 412 C 41.8347 -1.08556 -1.35984 0
M  V30 413 O 43.0107 -1.40592 -1.44207 0
M  V30 414 C 40.0757 -2.64703 -2.23904 0
M  V30 415 C 39.1367 -3.84276 -1.91391 0
M  V30 416 C 38.3697 -4.33095 -3.11873 0
M  V30 417 O 38.5927 -3.81107 -4.24398 0
M  V30 418 O 37.5267 -5.24984 -2.94406 0
M  V30 419 H 41.3527 -2.99057 -0.529036 0
M  V30 420 H 38.9377 -1.48118 -0.195288 0
M  V30 421 H 40.8197 -2.97769 -2.98181 0
M  V30 422 H 39.4947 -1.82161 -2.6758 0
M  V30 423 H 38.4017 -3.56143 -1.14511 0
M  V30 424 H 39.7347 -4.67968 -1.52534 0
M  V30 425 N 41.3868 0.248026 -1.55636 0
M  V30 426 C 42.6638 0.998988 -1.68165 0
M  V30 427 C 43.0438 2.03409 -0.564621 0
M  V30 428 O 42.3918 2.24378 0.432076 0
M  V30 429 C 42.6018 1.63334 -3.0842 0
M  V30 430 C 43.9498 2.13562 -3.66983 0
M  V30 431 O 44.9738 1.73277 -3.11213 0
M  V30 432 O 43.8328 2.87526 -4.64749 0
M  V30 433 H 40.9268 0.464933 -0.683935 0
M  V30 434 H 43.4728 0.241902 -1.67967 0
M  V30 435 H 42.2448 0.884583 -3.8117 0
M  V30 436 H 41.8678 2.45666 -3.12624 0
M  V30 437 N 42.8649 1.48995 0.513639 0
M  V30 438 C 43.7969 1.60836 1.63293 0
M  V30 439 C 44.8099 0.491701 1.55197 0
M  V30 440 O 45.9989 0.763238 1.6136 0
M  V30 441 C 43.0989 1.53731 3.02027 0
M  V30 442 C 42.2719 2.80715 3.35437 0
M  V30 443 C 41.3309 2.66837 4.53525 0
M  V30 444 O 40.3569 3.40753 4.55934 0
M  V30 445 N 41.5589 1.77539 5.52684 0
M  V30 446 H 44.3239 2.57366 1.53566 0
M  V30 447 H 41.8849 1.45925 0.701259 0
M  V30 448 H 43.8769 1.42118 3.78926 0
M  V30 449 H 42.4469 0.651092 3.05744 0
M  V30 450 H 41.6669 3.06772 2.47557 0
M  V30 451 H 42.9549 3.64927 3.54551 0
M  V30 452 H 42.3529 1.16719 5.53528 0
M  V30 453 H 40.9099 1.71856 6.28736 0
M  V30 454 N 44.343 -0.763751 1.37857 0
M  V30 455 C 45.306 -1.85889 1.34081 0
M  V30 456 C 46.306 -1.58949 0.243277 0
M  V30 457 O 47.496 -1.66882 0.499589 0
M  V30 458 C 44.628 -3.23176 1.08489 0
M  V30 459 H 45.821 -1.90648 2.31502 0
M  V30 460 H 43.374 -0.964367 1.23003 0
M  V30 461 H 44.109 -3.24091 0.116318 0
M  V30 462 H 43.894 -3.44124 1.8794 0
M  V30 463 H 45.384 -4.03254 1.08517 0
M  V30 464 N 45.8211 -1.22559 -0.990812 0
M  V30 465 C 46.7711 -0.964807 -2.0658 0
M  V30 466 C 47.7551 0.0853472 -1.60673 0
M  V30 467 O 48.9471 -0.125443 -1.76555 0
M  V30 468 C 46.0761 -0.546707 -3.38919 0
M  V30 469 C 45.1621 -1.6317 -3.91454 0
M  V30 470 N 45.5531 -2.85985 -4.17189 0
M  V30 471 C 43.8511 -1.50387 -4.19881 0
M  V30 472 C 44.5521 -3.56159 -4.59919 0
M  V30 473 N 43.5281 -2.83637 -4.63736 0
M  V30 474 H 47.3301 -1.89769 -2.24421 0
M  V30 475 H 44.8441 -1.12343 -1.17273 0
M  V30 476 H 46.8411 -0.34119 -4.15502 0
M  V30 477 H 45.5011 0.379254 -3.22478 0
M  V30 478 H 46.5121 -3.22392 -4.05319 0
M  V30 479 H 43.1891 -0.644254 -4.12499 0
M  V30 480 H 44.5791 -4.6139 -4.88435 0
M  V30 481 N 47.2992 1.18797 -1.03562 0
M  V30 482 C 48.5462 1.8865 -0.736023 0
M  V30 483 C 48.8742 1.80041 0.735889 0
M  V30 484 O 48.1292 1.19179 1.55225 0
M  V30 485 C 48.4282 3.38692 -1.14117 0
M  V30 486 C 48.0942 3.67504 -2.6125 0
M  V30 487 C 46.7562 3.75078 -3.01447 0
M  V30 488 C 49.1082 3.80293 -3.56408 0
M  V30 489 C 46.4362 3.92915 -4.35701 0
M  V30 490 C 48.7882 3.99645 -4.90374 0
M  V30 491 C 47.4522 4.05453 -5.30249 0
M  V30 492 H 46.7222 0.690321 -0.26933 0
M  V30 493 H 49.3692 1.40641 -1.29971 0
M  V30 494 H 47.6742 3.88645 -0.496202 0
M  V30 495 H 49.3712 3.91072 -0.886789 0
M  V30 496 H 45.9612 3.62223 -2.29113 0
M  V30 497 H 50.1452 3.73779 -3.26501 0
M  V30 498 H 45.4012 3.95653 -4.66121 0
M  V30 499 H 49.5752 4.08482 -5.64017 0
M  V30 500 H 47.2022 4.19027 -6.34288 0
M  V30 501 N 48.7773 0.814389 1.34928 0
M  V30 502 C 50.1933 0.499084 1.51596 0
M  V30 503 C 50.3933 -0.978319 1.76157 0
M  V30 504 O 49.4493 -1.76309 1.80752 0
M  V30 505 C 50.7623 1.35121 2.68631 0
M  V30 506 C 52.3103 1.34746 2.82511 0
M  V30 507 C 52.7853 2.18388 4.0258 0
M  V30 508 N 54.2763 2.15966 4.09772 0
M  V30 509 C 55.0113 2.77437 5.01813 0
M  V30 510 N 54.5073 3.47866 5.99134 0
M  V30 511 N 56.3003 2.67037 4.94619 0
M  V30 512 H 48.4513 1.7711 1.17243 0
M  V30 513 H 50.7143 0.754256 0.574284 0
M  V30 514 H 50.4203 2.40001 2.57085 0
M  V30 515 H 50.2943 1.00991 3.63429 0
M  V30 516 H 52.6813 0.30648 2.93504 0
M  V30 517 H 52.7623 1.72869 1.88547 0
M  V30 518 H 52.4063 3.2253 3.92347 0
M  V30 519 H 52.3363 1.77621 4.9574 0
M  V30 520 H 54.8273 1.64729 3.40107 0
M  V30 521 H 55.1403 3.92038 6.65977 0
M  V30 522 H 53.4853 3.51972 5.99284 0
M  V30 523 H 56.6763 2.11597 4.17546 0
M  V30 524 H 56.8493 3.15232 5.66156 0
M  V30 525 N 50.2554 -1.46986 0.568584 0
M  V30 526 C 51.1654 -2.33942 -0.17555 0
M  V30 527 C 52.1814 -1.48891 -0.90041 0
M  V30 528 O 53.3574 -1.81794 -0.86676 0
M  V30 529 C 50.4224 -3.25811 -1.18524 0
M  V30 530 C 49.4834 -4.26757 -0.466582 0
M  V30 531 C 48.7164 -5.14236 -1.42817 0
M  V30 532 O 48.9394 -5.04379 -2.66379 0
M  V30 533 O 47.8734 -5.94412 -0.946453 0
M  V30 534 H 51.6994 -2.98896 0.538036 0
M  V30 535 H 49.2844 -1.4573 0.329097 0
M  V30 536 H 51.1664 -3.82527 -1.76779 0
M  V30 537 H 49.8414 -2.63471 -1.88055 0
M  V30 538 H 48.7484 -3.73769 0.157451 0
M  V30 539 H 50.0814 -4.91843 0.187485 0
M  V30 540 N 51.7335 -0.305618 -1.54608 0
M  V30 541 C 52.9825 0.303098 -1.9941 0
M  V30 542 C 53.2955 1.54648 -1.19764 0
M  V30 543 O 54.5015 2.23007 -1.54855 0
M  V30 544 C 52.9575 0.590588 -3.55021 0
M  V30 545 C 52.5655 -0.634719 -4.43481 0
M  V30 546 C 54.3095 1.16025 -4.08336 0
M  V30 547 C 52.2165 -0.320126 -5.90533 0
M  V30 548 H 51.1465 0.117031 -0.744862 0
M  V30 549 H 53.7975 -0.415045 -1.78745 0
M  V30 550 H 52.1795 1.36845 -3.71604 0
M  V30 551 H 53.3535 -1.41079 -4.38672 0
M  V30 552 H 51.6685 -1.12333 -4.00962 0
M  V30 553 H 54.2655 1.40994 -5.15776 0
M  V30 554 H 54.6085 2.10397 -3.5922 0
M  V30 555 H 55.1415 0.443985 -3.95315 0
M  V30 556 H 51.8805 -1.23254 -6.43808 0
M  V30 557 H 51.4005 0.418579 -5.98338 0
M  V30 558 H 53.0795 0.0766241 -6.46955 0
M  V30 559 N 53.2116 1.57565 -0.0334293 0
M  V30 560 C 54.4396 1.9628 0.654347 0
M  V30 561 C 54.8546 0.910138 1.65414 0
M  V30 562 O 54.2116 -0.107595 1.82183 0
M  V30 563 C 54.2626 3.35067 1.35693 0
M  V30 564 O 53.9836 4.36296 0.397191 0
M  V30 565 C 55.4846 3.88439 2.13613 0
M  V30 566 H 52.7046 0.646369 0.180132 0
M  V30 567 H 55.2486 2.04282 -0.0944721 0
M  V30 568 H 53.4036 3.2827 2.05712 0
M  V30 569 H 53.8176 5.1678 0.896597 0
M  V30 570 H 55.2916 4.8788 2.58219 0
M  V30 571 H 55.7686 3.22914 2.97696 0
M  V30 572 H 56.3746 3.98516 1.48543 0
M  V30 573 N 54.6897 -0.239769 1.55765 0
M  V30 574 C 55.6227 -1.32356 1.85895 0
M  V30 575 C 56.6007 -1.46053 0.714662 0
M  V30 576 O 57.7847 -1.62154 0.961157 0
M  V30 577 C 54.9117 -2.6962 2.04994 0
M  V30 578 C 53.9577 -2.73036 3.27648 0
M  V30 579 S 54.7907 -2.28929 4.84099 0
M  V30 580 C 55.9467 -3.68103 5.06212 0
M  V30 581 H 56.1797 -1.06601 2.77531 0
M  V30 582 H 53.7127 -0.441112 1.47965 0
M  V30 583 H 55.6707 -3.48653 2.16682 0
M  V30 584 H 54.3317 -2.92609 1.14188 0
M  V30 585 H 53.5247 -3.7386 3.38 0
M  V30 586 H 53.1267 -2.02052 3.14723 0
M  V30 587 H 55.4187 -4.63656 4.93993 0
M  V30 588 H 56.3617 -3.6268 6.08168 0
M  V30 589 H 56.7697 -3.60947 4.34025 0
M  V30 590 N 56.1678 -1.49265 -0.50573 0
M  V30 591 C 57.4158 -1.582 -1.25766 0
M  V30 592 C 57.7368 -0.268482 -1.93143 0
M  V30 593 O 57.0068 0.711833 -1.8251 0
M  V30 594 H 55.5868 -0.582873 -0.467191 0
M  V30 595 H 58.2488 -1.85865 -0.586525 0
M  V30 596 H 57.3448 -2.37563 -2.02412 0
M  V30 597 N 57.6459 0.756429 -1.3826 0
M  V30 598 C 58.5959 1.86069 -1.31766 0
M  V30 599 C 59.5799 1.59621 -0.202483 0
M  V30 600 O 60.7719 1.7149 -0.438211 0
M  V30 601 C 57.9009 3.23742 -1.1422 0
M  V30 602 C 56.9869 3.56091 -2.30348 0
M  V30 603 N 57.3779 3.59517 -3.55783 0
M  V30 604 C 55.6759 3.86341 -2.22838 0
M  V30 605 C 56.3769 3.89052 -4.32451 0
M  V30 606 N 55.3529 4.05736 -3.61772 0
M  V30 607 H 59.1549 1.86992 -2.26741 0
M  V30 608 H 56.6689 0.953643 -1.31451 0
M  V30 609 H 58.6659 4.02761 -1.07652 0
M  V30 610 H 57.3259 3.24073 -0.201763 0
M  V30 611 H 58.3369 3.41347 -3.89491 0
M  V30 612 H 55.0139 3.94404 -1.36937 0
M  V30 613 H 56.4039 3.98349 -5.4108 0
M  V30 614 N 59.124 1.23083 0.984299 0
M  V30 615 C 60.352 1.08714 1.76037 0
M  V30 616 C 60.767 -0.361691 1.85303 0
M  V30 617 O 60.124 -1.25034 1.32939 0
M  V30 618 C 60.175 1.70206 3.18923 0
M  V30 619 O 59.896 3.09423 3.10144 0
M  V30 620 C 61.397 1.61227 4.12941 0
M  V30 621 H 58.617 0.380664 0.552572 0
M  V30 622 H 61.161 1.62853 1.23689 0
M  V30 623 H 59.316 1.20109 3.6831 0
M  V30 624 H 59.73 3.39188 4.00065 0
M  V30 625 H 61.204 2.08962 5.10919 0
M  V30 626 H 61.681 0.570375 4.35481 0
M  V30 627 H 62.287 2.10671 3.69456 0
M  V30 628 N 60.6021 -1.18246 1.0419 0
M  V30 629 C 61.8511 -1.87588 0.741194 0
M  V30 630 C 62.1641 -1.81303 -0.734066 0
M  V30 631 O 63.3701 -2.46019 -1.14834 0
M  V30 632 C 61.8261 -3.36538 1.27555 0
M  V30 633 C 61.4341 -3.51349 2.77953 0
M  V30 634 C 63.1781 -4.11273 1.05143 0
M  V30 635 C 61.0851 -4.94265 3.2474 0
M  V30 636 H 60.0151 -0.702622 0.273565 0
M  V30 637 H 62.6661 -1.33601 1.25789 0
M  V30 638 H 61.0481 -3.9 0.686703 0
M  V30 639 H 62.2221 -3.08153 3.42605 0
M  V30 640 H 60.5371 -2.90022 2.98791 0
M  V30 641 H 63.1341 -5.16689 1.37611 0
M  V30 642 H 63.4771 -4.16298 -0.0112774 0
M  V30 643 H 64.0101 -3.63987 1.60495 0
M  V30 644 H 60.7491 -4.94408 4.30396 0
M  V30 645 H 60.2691 -5.38172 2.64823 0
M  V30 646 H 61.9481 -5.62987 3.18834 0
M  V30 647 N 62.0802 -0.821533 -1.34494 0
M  V30 648 C 63.3262 -0.409552 -1.98622 0
M  V30 649 C 63.6592 1.0244 -1.64984 0
M  V30 650 O 62.9342 1.71325 -0.920758 0
M  V30 651 C 63.2172 -0.610458 -3.54888 0
M  V30 652 C 63.0702 -2.09043 -3.98273 0
M  V30 653 C 64.3892 -0.0455379 -4.40076 0
M  V30 654 H 61.5082 -0.15028 -0.721516 0
M  V30 655 H 64.1502 -1.03384 -1.59411 0
M  V30 656 H 62.3002 -0.079044 -3.8842 0
M  V30 657 H 63.9722 -2.68537 -3.75081 0
M  V30 658 H 62.2152 -2.58139 -3.48635 0
M  V30 659 H 62.8862 -2.18182 -5.07051 0
M  V30 660 H 65.3622 -0.499557 -4.1309 0
M  V30 661 H 64.2382 -0.215922 -5.48475 0
M  V30 662 H 64.4992 1.04939 -4.29465 0
M  V30 663 N 63.5583 1.46682 -0.576371 0
M  V30 664 C 64.4913 2.27243 0.208731 0
M  V30 665 C 65.4693 1.35238 0.902746 0
M  V30 666 O 66.6533 1.64641 0.917904 0
M  V30 667 C 63.7803 3.12802 1.29896 0
M  V30 668 C 62.8263 4.20524 0.711457 0
M  V30 669 S 63.6593 5.33548 -0.456781 0
M  V30 670 C 64.8153 6.22673 0.634798 0
M  V30 671 H 65.0483 2.93484 -0.474838 0
M  V30 672 H 62.5813 1.50069 -0.363118 0
M  V30 673 H 64.5393 3.62661 1.92321 0
M  V30 674 H 63.2003 2.45887 1.95444 0
M  V30 675 H 62.3933 4.80191 1.53076 0
M  V30 676 H 61.9953 3.73645 0.162999 0
M  V30 677 H 64.2873 6.60181 1.52209 0
M  V30 678 H 65.2303 7.0806 0.0750311 0
M  V30 679 H 65.6383 5.56684 0.936092 0
M  V30 680 N 65.0364 0.313813 1.54444 0
M  V30 681 C 66.2844 -0.291099 1.99993 0
M  V30 682 C 66.6054 -1.53418 1.20366 0
M  V30 683 O 65.8754 -1.93544 0.302927 0
M  V30 684 H 64.4554 -0.110552 0.738774 0
M  V30 685 H 67.1174 0.428106 1.9014 0
M  V30 686 H 66.2134 -0.554268 3.07139 0
M  V30 687 N 66.5145 -1.57545 0.0417849 0
M  V30 688 C 67.9305 -1.56467 -0.314704 0
M  V30 689 C 68.1305 -1.04859 -1.72066 0
M  V30 690 O 67.1865 -0.700983 -2.42575 0
M  V30 691 C 68.4995 -3.00317 -0.15174 0
M  V30 692 C 70.0475 -3.12201 -0.223553 0
M  V30 693 C 70.5225 -4.57913 -0.0892295 0
M  V30 694 N 72.0135 -4.6297 -0.145808 0
M  V30 695 C 72.7485 -5.73362 -0.0658459 0
M  V30 696 N 72.2445 -6.92769 0.0659282 0
M  V30 697 N 74.0375 -5.6197 -0.12075 0
M  V30 698 H 66.1885 -1.89416 0.961014 0
M  V30 699 H 68.4515 -0.871862 0.372237 0
M  V30 700 H 68.1575 -3.42073 0.817254 0
M  V30 701 H 68.0315 -3.65892 -0.916692 0
M  V30 702 H 70.4185 -2.70349 -1.18301 0
M  V30 703 H 70.4995 -2.49323 0.571994 0
M  V30 704 H 70.1435 -5.00448 0.866867 0
M  V30 705 H 70.0735 -5.18786 -0.903802 0
M  V30 706 H 72.5645 -3.7709 -0.247286 0
M  V30 707 H 72.8775 -7.72707 0.119905 0
M  V30 708 H 71.2225 -6.94927 0.100885 0
M  V30 709 H 74.4135 -4.67572 -0.222187 0
M  V30 710 H 74.5865 -6.47977 -0.0549735 0
M  V30 711 N 67.9926 0.231505 -1.5589 0
M  V30 712 C 69.4086 0.580748 -1.48659 0
M  V30 713 C 69.6086 1.87617 -0.73498 0
M  V30 714 O 68.6646 2.51046 -0.270586 0
M  V30 715 C 69.9776 0.669202 -2.93159 0
M  V30 716 C 71.5256 0.760499 -3.03621 0
M  V30 717 C 72.0006 0.880383 -4.49459 0
M  V30 718 N 73.4916 0.944861 -4.53461 0
M  V30 719 C 74.2266 1.05716 -5.63571 0
M  V30 720 N 73.7226 1.13403 -6.83456 0
M  V30 721 N 75.5156 1.09152 -5.514 0
M  V30 722 H 67.6666 -0.618695 -2.03189 0
M  V30 723 H 69.9296 -0.215728 -0.923128 0
M  V30 724 H 69.6356 -0.212904 -3.51055 0
M  V30 725 H 69.5096 1.5361 -3.44505 0
M  V30 726 H 71.8966 1.63305 -2.45796 0
M  V30 727 H 71.9776 -0.131864 -2.5546 0
M  V30 728 H 71.6216 0.0123284 -5.07899 0
M  V30 729 H 71.5516 1.78802 -4.95316 0
M  V30 730 H 74.0426 0.896176 -3.6712 0
M  V30 731 H 74.3556 1.21921 -7.63122 0
M  V30 732 H 72.7006 1.10333 -6.86186 0
M  V30 733 H 75.8916 1.02805 -4.56671 0
M  V30 734 H 76.0646 1.17558 -6.37247 0
M  V30 735 N 69.4707 1.49531 0.497807 0
M  V30 736 C 70.6987 1.62893 1.27567 0
M  V30 737 C 71.1137 0.301585 1.86376 0
M  V30 738 O 70.4707 -0.713335 1.67982 0
M  V30 739 C 70.5217 2.70013 2.40364 0
M  V30 740 O 70.2427 3.976 1.83972 0
M  V30 741 C 71.7437 2.94109 3.31685 0
M  V30 742 H 68.9637 0.548298 0.386794 0
M  V30 743 H 71.5077 1.95584 0.597245 0
M  V30 744 H 69.6627 2.40092 3.04031 0
M  V30 745 H 70.0767 4.56631 2.58047 0
M  V30 746 H 71.5507 3.72788 4.07104 0
M  V30 747 H 72.0277 2.04147 3.88871 0
M  V30 748 H 72.6337 3.2546 2.73781 0
M  V30 749 N 70.9488 -0.749086 1.3866 0
M  V30 750 C 72.1948 -1.50959 1.36319 0
M  V30 751 C 72.5498 -1.92347 -0.0452451 0
M  V30 752 O 71.8428 -1.6289 -1.00884 0
M  V30 753 C 72.0368 -2.7712 2.25697 0
M  V30 754 C 71.8658 -2.48067 3.7509 0
M  V30 755 C 70.6358 -2.41062 4.44091 0
M  V30 756 C 72.8338 -2.14544 4.67414 0
M  V30 757 N 70.8158 -2.04331 5.78897 0
M  V30 758 C 72.1868 -1.88141 5.90765 0
M  V30 759 C 74.2418 -2.00892 4.55573 0
M  V30 760 C 72.9448 -1.49463 7.036 0
M  V30 761 C 74.9708 -1.63616 5.68317 0
M  V30 762 C 74.3328 -1.38088 6.90732 0
M  V30 763 H 70.4318 -0.551804 0.554108 0
M  V30 764 H 73.0158 -0.871886 1.74087 0
M  V30 765 H 71.1868 -3.38693 1.9011 0
M  V30 766 H 72.9188 -3.4321 2.1445 0
M  V30 767 H 69.6738 -2.57685 3.9736 0
M  V30 768 H 70.0978 -1.88598 6.502 0
M  V30 769 H 74.7398 -2.19301 3.61479 0
M  V30 770 H 72.4578 -1.29794 7.97608 0
M  V30 771 H 76.0438 -1.53678 5.61137 0
M  V30 772 H 74.9238 -1.09674 7.76493 0
M  V30 773 N 72.4269 -1.23603 -0.977757 0
M  V30 774 C 73.7039 -0.977897 -1.69401 0
M  V30 775 C 74.0839 0.502738 -2.05026 0
M  V30 776 O 73.4319 1.47459 -1.74551 0
M  V30 777 C 73.6419 -1.89077 -2.93345 0
M  V30 778 C 74.9899 -2.15579 -3.65802 0
M  V30 779 O 76.0139 -1.86648 -3.03383 0
M  V30 780 O 74.8729 -2.64658 -4.78141 0
M  V30 781 H 71.9669 -0.369025 -0.740101 0
M  V30 782 H 74.5129 -1.34657 -1.03274 0
M  V30 783 H 73.2849 -2.89158 -2.63634 0
M  V30 784 H 72.9079 -1.52463 -3.67207 0
M  V30 785 N 73.905 1.17692 -1.04816 0
M  V30 786 C 75.13 1.92327 -0.776207 0
M  V30 787 C 75.555 1.76082 0.661581 0
M  V30 788 O 74.913 1.076 1.45917 0
M  V30 789 C 74.961 3.41539 -1.15687 0
M  V30 790 O 74.065 4.11402 -0.286775 0
M  V30 791 H 73.406 0.599735 -0.284981 0
M  V30 792 H 75.936 1.49201 -1.4 0
M  V30 793 H 75.946 3.92269 -1.12202 0
M  V30 794 H 74.621 3.52684 -2.20425 0
M  V30 795 H 73.198 3.70939 -0.381903 0
M  V30 796 N 75.3831 0.828654 1.34056 0
M  V30 797 C 76.3131 0.269443 2.3194 0
M  V30 798 C 77.2941 -0.617247 1.58506 0
M  V30 799 O 78.4791 -0.542931 1.86456 0
M  V30 800 C 75.6091 -0.564793 3.42677 0
M  V30 801 C 74.5631 0.225241 4.27407 0
M  V30 802 C 73.8891 -0.7321 5.29664 0
M  V30 803 C 75.1891 1.43663 5.02154 0
M  V30 804 H 76.8831 1.08728 2.7896 0
M  V30 805 H 74.4291 0.524283 1.34117 0
M  V30 806 H 76.3821 -0.966233 4.10173 0
M  V30 807 H 75.1061 -1.41574 2.9432 0
M  V30 808 H 73.7651 0.608117 3.61521 0
M  V30 809 H 73.4131 -1.57916 4.77568 0
M  V30 810 H 73.1131 -0.20767 5.87233 0
M  V30 811 H 74.6371 -1.13128 6.00029 0
M  V30 812 H 76.0511 1.1089 5.62473 0
M  V30 813 H 74.4481 1.89711 5.69324 0
M  V30 814 H 75.5181 2.21181 4.31517 0
M  V30 815 N 76.8612 -1.46375 0.584142 0
M  V30 816 C 78.2722 -1.86031 0.157959 0
M  V30 817 C 78.6232 -1.48753 -1.27933 0
M  V30 818 O 77.7482 -0.903098 -1.96655 0
M  V30 819 C 78.3432 -3.37642 0.279892 0
M  V30 820 C 76.9022 -3.76289 -0.09143 0
M  V30 821 C 76.0492 -2.7039 0.615178 0
M  V30 822 H 79.0002 -1.37509 0.792274 0
M  V30 823 H 79.0212 -3.77275 -0.494364 0
M  V30 824 H 78.5332 -3.64742 1.32607 0
M  V30 825 H 76.6342 -3.54806 -1.13769 0
M  V30 826 H 76.7472 -4.78246 0.285886 0
M  V30 827 H 75.1112 -2.5464 0.0552833 0
M  V30 828 H 75.8942 -3.0033 1.66303 0
M  V30 829 N 78.3393 -0.321999 -1.54275 0
M  V30 830 C 79.3023 0.531975 -2.22941 0
M  V30 831 C 80.3023 1.04478 -1.22234 0
M  V30 832 O 81.4923 0.937452 -1.46825 0
M  V30 833 C 78.6243 1.73874 -2.93224 0
M  V30 834 H 79.8173 -0.0682612 -2.99822 0
M  V30 835 H 77.3703 -0.0730644 -1.56129 0
M  V30 836 H 78.1053 2.37825 -2.20476 0
M  V30 837 H 77.8903 1.37847 -3.6707 0
M  V30 838 H 79.3803 2.34496 -3.45545 0
M  V30 839 N 79.8174 1.5752 -0.0501392 0
M  V30 840 C 80.7644 2.1147 0.924603 0
M  V30 841 C 81.7344 1.02182 1.30951 0
M  V30 842 O 82.9194 1.29723 1.39916 0
M  V30 843 C 80.0594 2.66337 2.19451 0
M  V30 844 C 79.1724 3.89708 1.86418 0
M  V30 845 C 78.3074 4.32893 3.07859 0
M  V30 846 C 77.3464 5.48967 2.70742 0
M  V30 847 N 76.4834 5.87211 3.84874 0
M  V30 848 H 81.3234 2.94465 0.457639 0
M  V30 849 H 78.8604 1.45531 0.214266 0
M  V30 850 H 80.8184 2.96247 2.93758 0
M  V30 851 H 79.4484 1.86141 2.63726 0
M  V30 852 H 78.5004 3.66396 1.02264 0
M  V30 853 H 79.8124 4.74074 1.55096 0
M  V30 854 H 78.9664 4.6435 3.90466 0
M  V30 855 H 77.7054 3.47336 3.42358 0
M  V30 856 H 76.7104 5.17183 1.86551 0
M  V30 857 H 77.9354 6.3624 2.37436 0
M  V30 858 H 75.8814 5.04607 4.19175 0
M  V30 859 H 75.7984 6.66266 3.57247 0
M  V30 860 H 77.0664 6.23282 4.68123 0
M  V30 861 N 81.2955 -0.223234 1.56011 0
M  V30 862 C 82.5415 -0.949279 1.79211 0
M  V30 863 C 82.8745 -1.84054 0.619494 0
M  V30 864 O 82.1495 -1.90726 -0.381317 0
M  V30 865 C 82.4325 -1.78965 3.12479 0
M  V30 866 C 82.2855 -0.924997 4.40186 0
M  V30 867 C 83.6045 -2.76774 3.42175 0
M  V30 868 H 80.7235 -0.343676 0.651963 0
M  V30 869 H 83.3655 -0.218253 1.88742 0
M  V30 870 H 81.5155 -2.41291 3.04485 0
M  V30 871 H 83.1875 -0.318615 4.60198 0
M  V30 872 H 81.4305 -0.230344 4.33188 0
M  V30 873 H 82.1015 -1.54735 5.29869 0
M  V30 874 H 84.5775 -2.24584 3.50287 0
M  V30 875 H 83.4535 -3.32678 4.36597 0
M  V30 876 H 83.7145 -3.54429 2.64258 0
M  V30 877 N 82.7736 -1.49793 -0.48987 0
M  V30 878 C 84.1896 -1.36803 -0.822022 0
M  V30 879 C 84.3896 -0.409652 -1.97292 0
M  V30 880 O 83.4456 0.154614 -2.52026 0
M  V30 881 C 84.7586 -2.77768 -1.15175 0
M  V30 882 C 86.3066 -2.86549 -1.25931 0
M  V30 883 C 86.7816 -4.28306 -1.62228 0
M  V30 884 N 88.2726 -4.31169 -1.69256 0
M  V30 885 C 89.0076 -5.37832 -1.98807 0
M  V30 886 N 88.5036 -6.54726 -2.26507 0
M  V30 887 N 90.2966 -5.25258 -2.00152 0
M  V30 888 H 82.4476 -2.10691 0.268881 0
M  V30 889 H 84.7106 -0.946241 0.057728 0
M  V30 890 H 84.4166 -3.49648 -0.379335 0
M  V30 891 H 84.2906 -3.13836 -2.09253 0
M  V30 892 H 86.6776 -2.14899 -2.02243 0
M  V30 893 H 86.7586 -2.54049 -0.298776 0
M  V30 894 H 86.4026 -5.00486 -0.864622 0
M  V30 895 H 86.3326 -4.58279 -2.594 0
M  V30 896 H 88.8236 -3.4687 -1.49965 0
M  V30 897 H 89.1366 -7.31833 -2.48276 0
M  V30 898 H 87.4816 -6.57933 -2.23939 0
M  V30 899 H 90.6726 -4.32938 -1.77996 0
M  V30 900 H 90.8456 -6.08476 -2.22848 0
M  V30 901 N 84.2517 0.741722 -1.39055 0
M  V30 902 C 85.6627 1.31966 -1.32068 0
M  V30 903 C 86.0137 1.96192 0.0180797 0
M  V30 904 O 85.1387 1.95861 0.920196 0
M  V30 905 C 85.7337 2.39954 -2.39181 0
M  V30 906 C 84.2927 2.93438 -2.35735 0
M  V30 907 C 83.4397 1.66936 -2.21422 0
M  V30 908 H 86.3907 0.539721 -1.4924 0
M  V30 909 H 86.4117 3.20182 -2.05581 0
M  V30 910 H 85.9237 1.9318 -3.36605 0
M  V30 911 H 84.0247 3.4451 -1.41929 0
M  V30 912 H 84.1377 3.4701 -3.30335 0
M  V30 913 H 82.5017 1.91016 -1.68478 0
M  V30 914 H 83.2847 1.22224 -3.20806 0
M  V30 915 N 85.7298 1.2412 0.971189 0
M  V30 916 C 86.6598 1.05508 2.08304 0
M  V30 917 C 87.6408 -0.0308864 1.70072 0
M  V30 918 O 88.8258 0.135521 1.93727 0
M  V30 919 C 85.9558 0.655365 3.4106 0
M  V30 920 C 84.9098 1.68971 3.93234 0
M  V30 921 C 84.2358 1.14516 5.22293 0
M  V30 922 C 85.5358 3.08487 4.21465 0
M  V30 923 H 87.2298 1.98507 2.24132 0
M  V30 924 H 84.7758 0.955821 1.07704 0
M  V30 925 H 86.7288 0.51217 4.18276 0
M  V30 926 H 85.4528 -0.31032 3.25122 0
M  V30 927 H 84.1118 1.82106 3.18171 0
M  V30 928 H 83.7598 0.170189 5.02712 0
M  V30 929 H 83.4598 1.83635 5.58168 0
M  V30 930 H 84.9838 1.01401 6.02121 0
M  V30 931 H 86.3978 2.98601 4.89398 0
M  V30 932 H 84.7948 3.74926 4.68562 0
M  V30 933 H 85.8648 3.56787 3.28376 0
M  V30 934 N 87.2079 -1.17134 1.05439 0
M  V30 935 C 88.6189 -1.69084 0.791676 0
M  V30 936 C 88.9699 -1.83822 -0.685839 0
M  V30 937 O 88.0949 -1.52757 -1.53278 0
M  V30 938 C 88.6899 -3.07119 1.4305 0
M  V30 939 C 87.2489 -3.56225 1.21577 0
M  V30 940 C 86.3959 -2.32421 1.51247 0
M  V30 941 H 89.3469 -1.01617 1.219 0
M  V30 942 H 89.3679 -3.71087 0.84112 0
M  V30 943 H 88.8799 -2.9636 2.50584 0
M  V30 944 H 86.9809 -3.72257 0.159787 0
M  V30 945 H 87.0939 -4.38837 1.92246 0
M  V30 946 H 85.4579 -2.3701 0.932653 0
M  V30 947 H 86.2409 -2.24268 2.5992 0
M  V30 948 N 88.686 -0.835752 -1.33615 0
M  V30 949 C 89.934 -0.429109 -1.97492 0
M  V30 950 C 90.255 1.01433 -1.66543 0
M  V30 951 O 89.525 1.70611 -0.962744 0
M  V30 952 H 88.105 -0.155686 -0.730596 0
M  V30 953 H 90.767 -1.06802 -1.63031 0
M  V30 954 H 89.863 -0.55861 -3.0706 0
M  V30 955 N 90.1641 1.46063 -0.591896 0
M  V30 956 C 91.5801 1.57561 -0.254288 0
M  V30 957 C 91.7801 1.58565 1.24336 0
M  V30 958 O 90.8361 1.50753 2.02558 0
M  V30 959 C 92.1491 2.86549 -0.911611 0
M  V30 960 C 93.6971 3.00197 -0.886059 0
M  V30 961 C 94.1721 4.31933 -1.5231 0
M  V30 962 N 95.6631 4.38654 -1.48786 0
M  V30 963 C 96.3981 5.39222 -1.95006 0
M  V30 964 N 95.8941 6.46414 -2.49241 0
M  V30 965 N 97.6871 5.3048 -1.85868 0
M  V30 966 H 89.8381 1.43655 -1.56451 0
M  V30 967 H 92.1011 0.68583 -0.654478 0
M  V30 968 H 91.8071 2.91651 -1.96551 0
M  V30 969 H 91.6811 3.74794 -0.425368 0
M  V30 970 H 94.0681 2.9467 0.159246 0
M  V30 971 H 94.1491 2.13403 -1.41041 0
M  V30 972 H 93.7931 4.38217 -2.56765 0
M  V30 973 H 93.7231 5.17516 -0.973891 0
M  V30 974 H 96.2141 3.61793 -1.09151 0
M  V30 975 H 96.5271 7.19376 -2.82344 0
M  V30 976 H 94.8721 6.47208 -2.53272 0
M  V30 977 H 98.0631 4.45643 -1.43248 0
M  V30 978 H 98.2361 6.08711 -2.22204 0
M  V30 979 N 91.6422 0.330177 1.54103 0
M  V30 980 C 93.0582 -0.0222371 1.59585 0
M  V30 981 C 93.2582 -1.49902 1.34654 0
M  V30 982 O 92.3142 -2.25592 1.13421 0
M  V30 983 C 93.6272 0.401932 2.98002 0
M  V30 984 C 95.1752 0.353145 3.11001 0
M  V30 985 C 95.6502 0.752576 4.51775 0
M  V30 986 N 97.1412 0.706239 4.57784 0
M  V30 987 C 97.8762 0.987417 5.64834 0
M  V30 988 N 97.3722 1.33607 6.79795 0
M  V30 989 N 99.1652 0.91254 5.54643 0
M  V30 990 H 91.3162 1.29228 1.68564 0
M  V30 991 H 93.5792 0.525906 0.78875 0
M  V30 992 H 93.2852 1.4311 3.21267 0
M  V30 993 H 93.1592 -0.229699 3.765 0
M  V30 994 H 95.5462 -0.666822 2.87467 0
M  V30 995 H 95.6272 1.0198 2.34593 0
M  V30 996 H 95.2712 1.77049 4.76042 0
M  V30 997 H 95.2012 0.0635409 5.26562 0
M  V30 998 H 97.6922 0.44889 3.75224 0
M  V30 999 H 98.0052 1.53582 7.57385 0
M  V30 1000 H 96.3502 1.37439 6.81275 0
M  V30 1001 H 99.5412 0.639601 4.6371 0
M  V30 1002 H 99.7142 1.13503 6.37982 0
M  V30 1003 N 93.1203 -1.57491 0.0584922 0
M  V30 1004 C 94.0683 -2.13148 -0.931168 0
M  V30 1005 C 95.0623 -1.06507 -1.31729 0
M  V30 1006 O 96.2683 -1.24906 -1.29609 0
M  V30 1007 H 92.6433 -0.68137 -0.31818 0
M  V30 1008 H 94.6143 -2.95187 -0.436707 0
M  V30 1009 C 93.3633 -2.69732 -2.19408 0
M  V30 1010 H 92.6863 -3.51454 -1.90578 0
M  V30 1011 H 94.1263 -3.12287 -2.86798 0
M  V30 1012 C 92.5853 -1.63855 -2.94369 0
M  V30 1013 O 93.1153 -1.05565 -3.87581 0
M  V30 1014 N 91.3213 -1.35202 -2.57233 0
M  V30 1015 H 90.8683 -1.82791 -1.81508 0
M  V30 1016 H 90.8263 -0.645922 -3.07693 0
M  V30 1017 N 94.5984 0.214957 -1.56127 0
M  V30 1018 C 95.8444 0.939762 -1.79712 0
M  V30 1019 C 96.1774 1.83723 -0.629247 0
M  V30 1020 O 95.4524 1.90925 0.371197 0
M  V30 1021 C 95.7354 1.77306 -3.13424 0
M  V30 1022 C 95.5884 0.90164 -4.40671 0
M  V30 1023 C 96.9074 2.74956 -3.43638 0
M  V30 1024 H 94.0264 0.340214 -0.653776 0
M  V30 1025 H 96.6684 0.20824 -1.88855 0
M  V30 1026 H 94.8184 2.39673 -3.0576 0
M  V30 1027 H 96.4904 0.294206 -4.60361 0
M  V30 1028 H 94.7334 0.207368 -4.33304 0
M  V30 1029 H 95.4044 1.51923 -5.30682 0
M  V30 1030 H 97.8804 2.22724 -3.51473 0
M  V30 1031 H 96.7564 3.30358 -4.38355 0
M  V30 1032 H 97.0174 3.53023 -2.66134 0
M  V30 1033 N 96.0765 1.50051 0.48192 0
M  V30 1034 C 97.3225 1.60736 1.2366 0
M  V30 1035 C 97.6555 0.301786 1.91841 0
M  V30 1036 O 96.9305 -0.696025 1.8162 0
M  V30 1037 C 97.2135 2.78009 2.28874 0
M  V30 1038 C 97.0665 4.18416 1.65069 0
M  V30 1039 C 98.3855 2.90867 3.30279 0
M  V30 1040 H 95.5045 0.585031 0.448228 0
M  V30 1041 H 98.1465 1.82402 0.531946 0
M  V30 1042 H 96.2965 2.59667 2.88973 0
M  V30 1043 H 97.9685 4.48322 1.0865 0
M  V30 1044 H 96.2115 4.23177 0.954148 0
M  V30 1045 H 96.8825 4.96381 2.41474 0
M  V30 1046 H 99.3585 3.07623 2.80191 0
M  V30 1047 H 98.2345 3.74566 4.01238 0
M  V30 1048 H 98.4955 2.01021 3.93755 0
M  V30 1049 N 97.5546 -0.734337 1.39446 0
M  V30 1050 C 98.4846 -1.86155 1.40955 0
M  V30 1051 C 99.4656 -1.67898 0.272827 0
M  V30 1052 O 100.651 -1.88207 0.478743 0
M  V30 1053 C 97.7806 -3.23912 1.25294 0
M  V30 1054 C 96.7346 -3.56808 2.36373 0
M  V30 1055 C 96.0606 -4.93508 2.058 0
M  V30 1056 C 97.3606 -3.59713 3.78687 0
M  V30 1057 H 99.0546 -1.8515 2.35287 0
M  V30 1058 H 96.6006 -0.889367 1.13253 0
M  V30 1059 H 98.5536 -4.02443 1.2497 0
M  V30 1060 H 97.2776 -3.25446 0.274308 0
M  V30 1061 H 95.9366 -2.80606 2.35914 0
M  V30 1062 H 95.5846 -4.91623 1.06374 0
M  V30 1063 H 95.2846 -5.16486 2.80208 0
M  V30 1064 H 96.8086 -5.74396 2.07128 0
M  V30 1065 H 98.2226 -4.2832 3.81071 0
M  V30 1066 H 96.6196 -3.94209 4.52459 0
M  V30 1067 H 97.6896 -2.59504 4.09617 0
M  V30 1068 N 99.0327 -1.24633 -0.964593 0
M  V30 1069 C 100.258 -1.11596 -1.74818 0
M  V30 1070 C 100.683 0.32723 -1.85232 0
M  V30 1071 O 100.041 1.23695 -1.32549 0
M  V30 1072 C 100.089 -1.76397 -3.1451 0
M  V30 1073 O 99.1927 -1.03685 -3.99153 0
M  V30 1074 H 98.5337 -0.390196 -0.537255 0
M  V30 1075 H 101.064 -1.65002 -1.20977 0
M  V30 1076 H 101.074 -1.8228 -3.65018 0
M  V30 1077 H 99.7487 -2.81401 -3.06246 0
M  V30 1078 H 98.3257 -1.05611 -3.57632 0
M  V30 1079 N 100.511 1.16574 -1.06058 0
M  V30 1080 C 101.927 1.3904 -0.783585 0
M  V30 1081 C 102.127 1.91784 0.618145 0
M  V30 1082 O 101.183 2.11511 1.37911 0
M  V30 1083 C 102.496 2.37329 -1.84649 0
M  V30 1084 C 104.044 2.51018 -1.86973 0
M  V30 1085 C 104.519 3.52588 -2.92311 0
M  V30 1086 N 106.01 3.60113 -2.91329 0
M  V30 1087 C 106.745 4.38486 -3.69482 0
M  V30 1088 N 106.241 5.20302 -4.57447 0
M  V30 1089 N 108.034 4.33446 -3.57885 0
M  V30 1090 H 100.185 0.806725 -1.96483 0
M  V30 1091 H 102.448 0.417117 -0.851303 0
M  V30 1092 H 102.154 2.05663 -2.85299 0
M  V30 1093 H 102.028 3.36946 -1.6955 0
M  V30 1094 H 104.415 2.81989 -0.869827 0
M  V30 1095 H 104.496 1.51445 -2.0615 0
M  V30 1096 H 104.14 3.22354 -3.92492 0
M  V30 1097 H 104.07 4.51886 -2.70383 0
M  V30 1098 H 106.561 3.01707 -2.27555 0
M  V30 1099 H 106.874 5.77311 -5.13743 0
M  V30 1100 H 105.219 5.19653 -4.61503 0
M  V30 1101 H 108.41 3.68586 -2.88551 0
M  V30 1102 H 108.583 4.94279 -4.19037 0
M  V30 1103 N 101.989 0.842826 1.3317 0
M  V30 1104 C 102.921 0.236245 2.27979 0
M  V30 1105 C 103.934 -0.585282 1.51915 0
M  V30 1106 O 105.123 -0.411705 1.73687 0
M  V30 1107 C 102.223 -0.685717 3.3189 0
M  V30 1108 C 101.396 0.0973448 4.37292 0
M  V30 1109 C 100.455 -0.748565 5.20848 0
M  V30 1110 O 99.4809 -0.186339 5.68895 0
M  V30 1111 N 100.683 -2.06527 5.42519 0
M  V30 1112 H 103.448 1.05088 2.80672 0
M  V30 1113 H 101.009 0.701667 1.45905 0
M  V30 1114 H 103.001 -1.25669 3.84694 0
M  V30 1115 H 101.571 -1.40105 2.79445 0
M  V30 1116 H 100.791 0.849706 3.84933 0
M  V30 1117 H 102.079 0.635643 5.04814 0
M  V30 1118 H 101.477 -2.54554 5.05192 0
M  V30 1119 H 100.034 -2.58464 5.98364 0
M  V30 1120 N 103.467 -1.45747 0.599634 0
M  V30 1121 C 104.43 -2.28917 -0.113835 0
M  V30 1122 C 105.43 -1.3933 -0.802729 0
M  V30 1123 O 106.62 -1.61534 -0.652103 0
M  V30 1124 C 103.752 -3.20152 -1.17114 0
M  V30 1125 H 104.945 -2.93478 0.617289 0
M  V30 1126 H 102.498 -1.52137 0.358327 0
M  V30 1127 H 103.233 -2.60374 -1.93329 0
M  V30 1128 H 103.018 -3.86133 -0.681468 0
M  V30 1129 H 104.508 -3.82708 -1.67105 0
M  V30 1130 N 104.945 -0.338344 -1.53925 0
M  V30 1131 C 106.222 0.314774 -1.93051 0
M  V30 1132 C 106.602 1.68669 -1.26941 0
M  V30 1133 O 105.95 2.24636 -0.418445 0
M  V30 1134 C 106.16 0.392249 -3.46789 0
M  V30 1135 C 107.508 0.645554 -4.19664 0
M  V30 1136 O 108.532 0.474575 -3.53024 0
M  V30 1137 O 107.391 0.976408 -5.37707 0
M  V30 1138 H 104.485 0.182598 -0.80659 0
M  V30 1139 H 107.031 -0.389141 -1.65178 0
M  V30 1140 H 105.803 -0.570702 -3.87116 0
M  V30 1141 H 105.426 1.14316 -3.80812 0
M  V30 1142 N 106.423 1.57458 -0.0668435 0
M  V30 1143 C 107.67 1.93301 0.603406 0
M  V30 1144 C 107.998 0.946486 1.69917 0
M  V30 1145 O 107.253 -0.0387021 1.95662 0
M  V30 1146 C 107.552 3.35784 1.22409 0
M  V30 1147 C 107.218 4.50179 0.254955 0
M  V30 1148 C 105.88 4.81199 -0.0116746 0
M  V30 1149 C 108.232 5.19598 -0.408338 0
M  V30 1150 C 105.56 5.78978 -0.94877 0
M  V30 1151 C 107.912 6.18381 -1.33372 0
M  V30 1152 C 106.576 6.47821 -1.60887 0
M  V30 1153 H 105.846 0.707338 0.220802 0
M  V30 1154 H 108.493 1.91012 -0.136665 0
M  V30 1155 H 106.798 3.34515 2.03978 0
M  V30 1156 H 108.495 3.60804 1.74989 0
M  V30 1157 H 105.085 4.25983 0.472954 0
M  V30 1158 H 109.269 4.95832 -0.215456 0
M  V30 1159 H 104.525 6.00115 -1.16925 0
M  V30 1160 H 108.699 6.71277 -1.85367 0
M  V30 1161 H 106.326 7.23399 -2.33661 0
M  V30 1162 N 107.901 -0.206675 1.56239 0
M  V30 1163 C 108.834 -1.28383 1.88661 0
M  V30 1164 C 109.812 -1.44504 0.745481 0
M  V30 1165 O 110.996 -1.60079 0.995336 0
M  V30 1166 C 108.123 -2.65211 2.10667 0
M  V30 1167 C 107.169 -2.66025 3.33366 0
M  V30 1168 S 108.002 -2.18609 4.88846 0
M  V30 1169 C 109.158 -3.57283 5.13906 0
M  V30 1170 H 109.391 -1.00691 2.7973 0
M  V30 1171 H 106.924 -0.409627 1.48867 0
M  V30 1172 H 108.882 -3.43979 2.24029 0
M  V30 1173 H 107.543 -2.90121 1.20369 0
M  V30 1174 H 106.736 -3.66607 3.45855 0
M  V30 1175 H 106.338 -1.95331 3.18938 0
M  V30 1176 H 108.63 -4.53074 5.03717 0
M  V30 1177 H 109.573 -3.49699 6.15724 0
M  V30 1178 H 109.981 -3.51659 4.41583 0
M  V30 1179 N 109.379 -1.50304 -0.473955 0
M  V30 1180 C 110.342 -1.6841 -1.55469 0
M  V30 1181 C 111.342 -0.554905 -1.50922 0
M  V30 1182 O 112.532 -0.821882 -1.53593 0
M  V30 1183 C 109.664 -1.70667 -2.95102 0
M  V30 1184 H 110.857 -2.64828 -1.40733 0
M  V30 1185 H 108.41 -1.39742 -0.700132 0
M  V30 1186 H 109.145 -0.75932 -3.15285 0
M  V30 1187 H 108.93 -2.52698 -2.9981 0
M  V30 1188 H 110.42 -1.8664 -3.73571 0
M  V30 1189 N 110.857 0.726932 -1.39834 0
M  V30 1190 C 112.082 1.52121 -1.40976 0
M  V30 1191 C 112.507 1.88098 -0.00826029 0
M  V30 1192 O 111.865 1.52479 0.980807 0
M  V30 1193 C 111.913 2.78021 -2.29644 0
M  V30 1194 O 111.017 3.74272 -1.73188 0
M  V30 1195 H 110.358 0.45908 -0.479731 0
M  V30 1196 H 112.888 0.896207 -1.83927 0
M  V30 1197 H 112.898 3.26671 -2.44438 0
M  V30 1198 H 111.573 2.51169 -3.31492 0
M  V30 1199 H 110.15 3.33073 -1.6768 0
M  V30 1200 N 112.336 1.25143 0.95797 0
M  V30 1201 C 113.584 1.09476 1.69881 0
M  V30 1202 C 113.905 -0.365502 1.91544 0
M  V30 1203 O 113.175 -1.25985 1.50015 0
M  V30 1204 H 111.755 0.402128 0.629525 0
M  V30 1205 H 114.417 1.57214 1.15194 0
M  V30 1206 H 113.513 1.60046 2.6794 0
M  V30 1207 N 113.814 -1.1601 1.06675 0
M  V30 1208 C 114.777 -2.18724 0.685001 0
M  V30 1209 C 115.777 -1.58496 -0.271246 0
M  V30 1210 O 116.967 -1.74119 -0.0531156 0
M  V30 1211 C 114.099 -3.40899 0.00853648 0
M  V30 1212 H 115.292 -2.54011 1.59431 0
M  V30 1213 H 112.845 -1.30352 0.862441 0
M  V30 1214 H 113.58 -3.11173 -0.913337 0
M  V30 1215 H 113.365 -3.8587 0.696204 0
M  V30 1216 H 114.855 -4.16886 -0.24414 0
M  V30 1217 N 115.292 -0.849877 -1.32721 0
M  V30 1218 C 116.202 -0.293791 -2.32753 0
M  V30 1219 C 117.218 0.585906 -1.63839 0
M  V30 1220 O 118.394 0.487413 -1.95413 0
M  V30 1221 C 115.459 0.512752 -3.42887 0
M  V30 1222 C 114.52 -0.39252 -4.27502 0
M  V30 1223 C 113.753 0.375625 -5.32377 0
M  V30 1224 O 113.976 1.60613 -5.4732 0
M  V30 1225 O 112.91 -0.256094 -6.01355 0
M  V30 1226 H 116.736 -1.12242 -2.82197 0
M  V30 1227 H 114.321 -0.612685 -1.36259 0
M  V30 1228 H 116.203 0.970704 -4.10067 0
M  V30 1229 H 114.878 1.31826 -2.95641 0
M  V30 1230 H 113.785 -0.898547 -3.63149 0
M  V30 1231 H 115.118 -1.16309 -4.7826 0
M  V30 1232 N 116.77 1.45427 -0.607355 0
M  V30 1233 C 118.016 2.0254 -0.102607 0
M  V30 1234 C 118.349 1.47478 1.26348 0
M  V30 1235 O 117.624 0.64939 1.83339 0
M  V30 1236 C 117.907 3.60044 -0.0634347 0
M  V30 1237 C 117.76 4.2544 -1.46017 0
M  V30 1238 C 119.079 4.35646 0.624514 0
M  V30 1239 H 116.198 0.73598 -0.0387607 0
M  V30 1240 H 118.84 1.73284 -0.779282 0
M  V30 1241 H 116.99 3.85101 0.512808 0
M  V30 1242 H 118.662 4.11569 -2.08347 0
M  V30 1243 H 116.905 3.83849 -2.02094 0
M  V30 1244 H 117.576 5.34342 -1.385 0
M  V30 1245 H 120.052 4.15882 0.134723 0
M  V30 1246 H 118.928 5.45376 0.621028 0
M  V30 1247 H 119.189 4.08501 1.69055 0
M  V30 1248 N 118.248 0.346503 1.53744 0
M  V30 1249 C 119.494 -0.249473 2.0126 0
M  V30 1250 C 119.827 -1.49965 1.23386 0
M  V30 1251 O 119.102 -1.91811 0.32229 0
M  V30 1252 C 119.385 -0.560643 3.55709 0
M  V30 1253 C 119.238 0.701836 4.44291 0
M  V30 1254 C 120.557 -1.36905 4.18264 0
M  V30 1255 H 117.676 -0.0891987 0.731582 0
M  V30 1256 H 120.318 0.467624 1.84156 0
M  V30 1257 H 118.468 -1.17156 3.70414 0
M  V30 1258 H 120.14 1.33974 4.41417 0
M  V30 1259 H 118.383 1.32612 4.13033 0
M  V30 1260 H 119.054 0.43933 5.50249 0
M  V30 1261 H 121.53 -0.852448 4.07275 0
M  V30 1262 H 120.406 -1.55553 5.26398 0
M  V30 1263 H 120.667 -2.37203 3.73078 0
M  V30 1264 N 119.726 -1.57421 0.075193 0
M  V30 1265 C 120.974 -1.93236 -0.591974 0
M  V30 1266 C 121.295 -0.956241 -1.69944 0
M  V30 1267 O 120.565 -0.00494792 -1.95899 0
M  V30 1268 H 119.145 -0.713355 -0.22166 0
M  V30 1269 H 121.807 -1.9444 0.133848 0
M  V30 1270 H 120.903 -2.95131 -1.01509 0
M  V30 1271 N 121.204 0.198386 -1.56346 0
M  V30 1272 C 122.429 0.939682 -1.84891 0
M  V30 1273 C 122.854 1.76202 -0.658369 0
M  V30 1274 O 122.212 1.76993 0.392851 0
M  V30 1275 C 122.26 1.81428 -3.11635 0
M  V30 1276 O 121.364 2.91265 -2.91956 0
M  V30 1277 H 120.705 0.264807 -0.608912 0
M  V30 1278 H 123.235 0.204695 -2.03573 0
M  V30 1279 H 123.245 2.21958 -3.42343 0
M  V30 1280 H 121.92 1.21004 -3.97908 0
M  V30 1281 H 120.497 2.54514 -2.72538 0
M  V30 1282 N 122.682 1.50554 0.465978 0
M  V30 1283 C 123.612 1.72722 1.57128 0
M  V30 1284 C 124.593 0.576294 1.6004 0
M  V30 1285 O 125.778 0.81598 1.76225 0
M  V30 1286 C 122.908 1.82605 2.95419 0
M  V30 1287 C 121.862 2.97835 3.07373 0
M  V30 1288 C 121.188 2.92867 4.47363 0
M  V30 1289 C 122.488 4.38265 2.84114 0
M  V30 1290 H 124.182 2.65267 1.38829 0
M  V30 1291 H 121.728 1.2765 0.666441 0
M  V30 1292 H 123.681 1.96698 3.72677 0
M  V30 1293 H 122.405 0.866858 3.14886 0
M  V30 1294 H 121.064 2.83401 2.3255 0
M  V30 1295 H 120.712 1.94783 4.63755 0
M  V30 1296 H 120.412 3.70227 4.56296 0
M  V30 1297 H 121.936 3.09015 5.26633 0
M  V30 1298 H 123.35 4.53198 3.51118 0
M  V30 1299 H 121.747 5.17115 3.04487 0
M  V30 1300 H 122.817 4.50281 1.7993 0
M  V30 1301 N 124.16 -0.719506 1.40217 0
M  V30 1302 C 125.07 -1.86378 1.42479 0
M  V30 1303 C 126.086 -1.71073 0.317834 0
M  V30 1304 O 127.262 -1.93406 0.561794 0
M  V30 1305 C 124.327 -3.22136 1.28178 0
M  V30 1306 C 123.388 -3.49723 2.48982 0
M  V30 1307 C 122.621 -4.79004 2.35353 0
M  V30 1308 O 122.844 -5.53821 1.36524 0
M  V30 1309 O 121.778 -5.06839 3.2465 0
M  V30 1310 H 125.604 -1.87425 2.38968 0
M  V30 1311 H 123.189 -0.869405 1.21498 0
M  V30 1312 H 125.071 -4.03234 1.22395 0
M  V30 1313 H 123.746 -3.21825 0.347934 0
M  V30 1314 H 122.653 -2.6865 2.60342 0
M  V30 1315 H 123.986 -3.54828 3.41113 0
M  V30 1316 N 125.638 -1.25649 -0.95132 0
M  V30 1317 C 126.548 -1.08073 -2.08224 0
M  V30 1318 C 127.564 -0.0169666 -1.73992 0
M  V30 1319 O 128.74 -0.218593 -2.0021 0
M  V30 1320 C 125.805 -0.704922 -3.39458 0
M  V30 1321 C 124.866 -1.84699 -3.87537 0
M  V30 1322 C 124.099 -1.48902 -5.12508 0
M  V30 1323 O 124.322 -0.386156 -5.69091 0
M  V30 1324 O 123.256 -2.32033 -5.55378 0
M  V30 1325 H 127.082 -2.02924 -2.25954 0
M  V30 1326 H 124.667 -1.04618 -1.06656 0
M  V30 1327 H 126.549 -0.507609 -4.18332 0
M  V30 1328 H 125.224 0.214291 -3.2299 0
M  V30 1329 H 124.131 -2.09919 -3.09653 0
M  V30 1330 H 125.464 -2.74557 -4.08509 0
M  V30 1331 N 127.117 1.15442 -1.07289 0
M  V30 1332 C 128.08 2.18358 -0.696591 0
M  V30 1333 C 129.08 1.58637 0.262837 0
M  V30 1334 O 130.27 1.74145 0.0438809 0
M  V30 1335 C 127.402 3.4089 -0.0266151 0
M  V30 1336 H 128.595 2.53162 -1.60776 0
M  V30 1337 H 126.148 1.29893 -0.869342 0
M  V30 1338 H 126.883 3.11653 0.896822 0
M  V30 1339 H 126.668 3.85495 -0.716657 0
M  V30 1340 H 128.158 4.17009 0.222028 0
M  V30 1341 N 128.595 0.856903 1.32268 0
M  V30 1342 C 129.525 0.31858 2.31316 0
M  V30 1343 C 130.506 -0.583487 1.59779 0
M  V30 1344 O 131.691 -0.503259 1.87566 0
M  V30 1345 C 128.821 -0.491979 3.43798 0
M  V30 1346 C 127.775 0.315849 4.26833 0
M  V30 1347 C 127.101 -0.619586 5.31098 0
M  V30 1348 C 128.401 1.54282 4.98993 0
M  V30 1349 H 130.095 1.14621 2.76591 0
M  V30 1350 H 127.641 0.552613 1.32974 0
M  V30 1351 H 129.594 -0.879012 4.1213 0
M  V30 1352 H 128.318 -1.35299 2.97257 0
M  V30 1353 H 126.977 0.684664 3.6015 0
M  V30 1354 H 126.625 -1.47751 4.8081 0
M  V30 1355 H 126.325 -0.0830621 5.87541 0
M  V30 1356 H 127.849 -1.00375 6.02293 0
M  V30 1357 H 129.263 1.22796 5.59995 0
M  V30 1358 H 127.66 2.01745 5.65172 0
M  V30 1359 H 128.73 2.30285 4.26728 0
M  V30 1360 N 130.073 -1.45103 0.615059 0
M  V30 1361 C 131.301 -2.06553 0.11977 0
M  V30 1362 C 131.716 -1.45842 -1.19898 0
M  V30 1363 O 131.073 -0.575325 -1.73194 0
M  V30 1364 C 131.124 -3.61495 -0.018364 0
M  V30 1365 O 130.845 -4.19942 1.24822 0
M  V30 1366 C 132.346 -4.39947 -0.544237 0
M  V30 1367 H 129.566 -0.667096 0.0722739 0
M  V30 1368 H 132.11 -1.8623 0.84491 0
M  V30 1369 H 130.265 -3.81135 -0.693865 0
M  V30 1370 H 130.679 -5.13204 1.0827 0
M  V30 1371 H 132.153 -5.48838 -0.589953 0
M  V30 1372 H 132.63 -4.10255 -1.56805 0
M  V30 1373 H 133.236 -4.25188 0.0974703 0
M  V30 1374 N 131.551 -0.354651 -1.53558 0
M  V30 1375 C 132.776 0.242153 -2.05981 0
M  V30 1376 C 133.201 1.42553 -1.2272 0
M  V30 1377 O 132.559 1.79656 -0.243604 0
M  V30 1378 C 132.607 0.624367 -3.55154 0
M  V30 1379 O 131.711 1.72301 -3.74681 0
M  V30 1380 H 131.052 0.0378432 -0.662921 0
M  V30 1381 H 133.582 -0.512087 -1.98088 0
M  V30 1382 H 133.592 0.898433 -3.97985 0
M  V30 1383 H 132.267 -0.240989 -4.15201 0
M  V30 1384 H 130.844 1.44535 -3.4375 0
M  V30 1385 N 133.029 1.57378 -0.0835403 0
M  V30 1386 C 134.44 1.81261 0.447358 0
M  V30 1387 C 134.791 0.998331 1.68902 0
M  V30 1388 O 133.916 0.224282 2.15235 0
M  V30 1389 C 134.511 3.28767 0.818386 0
M  V30 1390 C 133.07 3.53455 1.29409 0
M  V30 1391 C 132.217 2.75831 0.285024 0
M  V30 1392 H 135.168 1.5566 -0.309115 0
M  V30 1393 H 135.189 3.41459 1.67887 0
M  V30 1394 H 134.701 3.88006 -0.0855019 0
M  V30 1395 H 132.802 2.99534 2.21608 0
M  V30 1396 H 132.915 4.62128 1.2639 0
M  V30 1397 H 131.279 2.42947 0.764767 0
M  V30 1398 H 132.062 3.37813 -0.611341 0
M  V30 1399 N 134.507 -0.190092 1.56449 0
M  V30 1400 C 135.417 -1.25591 1.98152 0
M  V30 1401 C 136.433 -1.49519 0.889944 0
M  V30 1402 O 137.609 -1.62036 1.19609 0
M  V30 1403 C 134.674 -2.57916 2.3169 0
M  V30 1404 C 133.735 -2.42015 3.5458 0
M  V30 1405 C 132.968 -3.6803 3.8651 0
M  V30 1406 O 133.191 -4.72413 3.1966 0
M  V30 1407 O 132.125 -3.6326 4.79923 0
M  V30 1408 H 135.951 -0.931988 2.89046 0
M  V30 1409 H 133.536 -0.395488 1.4407 0
M  V30 1410 H 135.418 -3.36008 2.54316 0
M  V30 1411 H 134.093 -2.89925 1.43963 0
M  V30 1412 H 133 -1.62017 3.37196 0
M  V30 1413 H 134.333 -2.14937 4.4279 0
M  V30 1414 N 135.985 -1.50799 -0.457987 0
M  V30 1415 C 137.213 -1.66218 -1.23203 0
M  V30 1416 C 137.628 -0.350894 -1.85511 0
M  V30 1417 O 136.985 0.668546 -1.69814 0
M  V30 1418 C 137.036 -2.76291 -2.33121 0
M  V30 1419 O 136.757 -4.02338 -1.73366 0
M  V30 1420 C 138.258 -3.028 -3.2377 0
M  V30 1421 H 135.478 -0.558361 -0.372121 0
M  V30 1422 H 138.022 -1.97099 -0.545179 0
M  V30 1423 H 136.177 -2.48068 -2.97558 0
M  V30 1424 H 136.591 -4.63312 -2.4585 0
M  V30 1425 H 138.065 -3.8345 -3.97077 0
M  V30 1426 H 138.542 -2.14385 -3.83322 0
M  V30 1427 H 139.148 -3.32604 -2.65056 0
M  V30 1428 N 137.463 0.71206 -1.40597 0
M  V30 1429 C 138.709 1.47292 -1.40274 0
M  V30 1430 C 139.064 1.92399 -0.00576812 0
M  V30 1431 O 138.357 1.65507 0.965297 0
M  V30 1432 C 138.551 2.71039 -2.32965 0
M  V30 1433 C 138.38 2.38035 -3.81536 0
M  V30 1434 C 137.15 2.29203 -4.50327 0
M  V30 1435 C 139.348 2.02076 -4.72938 0
M  V30 1436 N 137.33 1.88911 -5.84111 0
M  V30 1437 C 138.701 1.72412 -5.95545 0
M  V30 1438 C 140.756 1.88742 -4.60739 0
M  V30 1439 C 139.459 1.30756 -7.07316 0
M  V30 1440 C 141.485 1.4849 -5.72455 0
M  V30 1441 C 140.847 1.19726 -6.94151 0
M  V30 1442 H 136.946 0.536919 -0.568544 0
M  V30 1443 H 139.53 0.825424 -1.76337 0
M  V30 1444 H 137.701 3.33533 -1.99023 0
M  V30 1445 H 139.433 3.37404 -2.23474 0
M  V30 1446 H 136.188 2.47059 -4.04053 0
M  V30 1447 H 136.612 1.71293 -6.54972 0
M  V30 1448 H 141.254 2.0964 -3.67166 0
M  V30 1449 H 138.972 1.08601 -8.00769 0
M  V30 1450 H 142.558 1.38747 -5.65014 0
M  V30 1451 H 141.438 0.890482 -7.79128 0
M  V30 1452 N 138.941 1.26152 0.944643 0
M  V30 1453 C 140.187 1.11657 1.69294 0
M  V30 1454 C 140.52 -0.339926 1.91202 0
M  V30 1455 O 139.795 -1.24994 1.49019 0
M  V30 1456 C 140.078 1.88236 3.06984 0
M  V30 1457 C 139.931 3.41772 2.92424 0
M  V30 1458 C 141.25 1.67343 4.07043 0
M  V30 1459 H 138.369 0.407004 0.614424 0
M  V30 1460 H 141.011 1.55106 1.09737 0
M  V30 1461 H 139.161 1.51308 3.57824 0
M  V30 1462 H 140.833 3.88433 2.48832 0
M  V30 1463 H 139.076 3.68974 2.28124 0
M  V30 1464 H 139.747 3.90579 3.90067 0
M  V30 1465 H 142.223 1.99509 3.65151 0
M  V30 1466 H 141.099 2.23346 5.01406 0
M  V30 1467 H 141.36 0.617158 4.37771 0
M  V30 1468 N 140.419 -1.14872 1.07899 0
M  V30 1469 C 141.668 -1.85135 0.800499 0
M  V30 1470 C 141.981 -1.83547 -0.676014 0
M  V30 1471 O 143.187 -2.49548 -1.06948 0
M  V30 1472 C 141.643 -3.3231 1.38197 0
M  V30 1473 C 141.251 -3.42329 2.8899 0
M  V30 1474 C 142.995 -4.0772 1.18174 0
M  V30 1475 C 140.902 -4.83684 3.403 0
M  V30 1476 H 139.832 -0.693563 0.29578 0
M  V30 1477 H 142.483 -1.29532 1.29976 0
M  V30 1478 H 140.865 -3.87618 0.810431 0
M  V30 1479 H 142.039 -2.97097 3.52236 0
M  V30 1480 H 140.354 -2.80369 3.07867 0
M  V30 1481 H 142.951 -5.12049 1.5398 0
M  V30 1482 H 143.294 -4.16124 0.12117 0
M  V30 1483 H 143.827 -3.58696 1.71994 0
M  V30 1484 H 140.566 -4.80465 4.45907 0
M  V30 1485 H 140.086 -5.29474 2.81811 0
M  V30 1486 H 141.765 -5.52558 3.36584 0
M  V30 1487 N 141.898 -0.863906 -1.31812 0
M  V30 1488 C 143.146 -0.470904 -1.96537 0
M  V30 1489 C 143.467 0.978771 -1.68657 0
M  V30 1490 O 142.737 1.6853 -0.998717 0
M  V30 1491 H 141.317 -0.171148 -0.72713 0
M  V30 1492 H 143.979 -1.10236 -1.60729 0
M  V30 1493 H 143.075 -0.623616 -3.05806 0
M  V30 1494 N 143.376 1.44774 -0.622745 0
M  V30 1495 C 144.624 2.01721 -0.123655 0
M  V30 1496 C 144.945 1.49172 1.25589 0
M  V30 1497 O 144.215 0.691974 1.83272 0
M  V30 1498 H 142.795 0.745777 -0.0427225 0
M  V30 1499 H 145.457 1.77382 -0.807559 0
M  V30 1500 H 144.553 3.11984 -0.0849534 0
M  V30 1501 N 144.854 0.36279 1.53368 0
M  V30 1502 C 146.102 -0.227326 2.00817 0
M  V30 1503 C 146.423 -1.49511 1.25186 0
M  V30 1504 O 145.693 -1.92482 0.364348 0
M  V30 1505 H 144.273 -0.0869923 0.741917 0
M  V30 1506 H 146.935 0.488381 1.88682 0
M  V30 1507 H 146.031 -0.456273 3.08747 0
M  V30 1508 N 146.332 -1.57332 0.0918853 0
M  V30 1509 C 147.264 -2.10869 -0.898168 0
M  V30 1510 C 148.277 -1.04521 -1.24817 0
M  V30 1511 O 149.466 -1.31977 -1.20184 0
M  V30 1512 C 146.566 -2.57083 -2.2082 0
M  V30 1513 C 145.739 -3.87229 -2.03402 0
M  V30 1514 C 144.798 -4.19324 -3.17889 0
M  V30 1515 O 143.824 -4.88598 -2.91994 0
M  V30 1516 N 145.026 -3.74471 -4.43567 0
M  V30 1517 H 147.791 -2.96439 -0.440943 0
M  V30 1518 H 145.352 -1.61631 -0.0933064 0
M  V30 1519 H 147.344 -2.75602 -2.96354 0
M  V30 1520 H 145.914 -1.76541 -2.57977 0
M  V30 1521 H 145.134 -3.7789 -1.12218 0
M  V30 1522 H 146.422 -4.72379 -1.89038 0
M  V30 1523 H 145.82 -3.18546 -4.67488 0
M  V30 1524 H 144.377 -3.98151 -5.16061 0
M  V30 1525 N 147.81 0.181792 -1.56548 0
M  V30 1526 C 149.056 0.901431 -1.81665 0
M  V30 1527 C 149.389 1.82347 -0.668075 0
M  V30 1528 O 148.664 1.91669 0.330615 0
M  V30 1529 C 148.947 1.70618 -3.17115 0
M  V30 1530 C 148.8 0.807964 -4.42484 0
M  V30 1531 C 150.119 2.67605 -3.49393 0
M  V30 1532 H 147.238 0.32627 -0.660846 0
M  V30 1533 H 149.88 0.168134 -1.89255 0
M  V30 1534 H 148.03 2.33133 -3.10775 0
M  V30 1535 H 149.702 0.19649 -4.60881 0
M  V30 1536 H 147.945 0.115411 -4.33646 0
M  V30 1537 H 148.616 1.40632 -5.33785 0
M  V30 1538 H 151.092 2.15218 -3.56118 0
M  V30 1539 H 149.968 3.20985 -4.45264 0
M  V30 1540 H 150.229 3.47298 -2.73563 0
M  V30 1541 N 149.288 1.51039 0.449983 0
M  V30 1542 C 150.518 1.66627 1.22143 0
M  V30 1543 C 150.926 0.357776 1.85786 0
M  V30 1544 O 150.269 -0.672424 1.70951 0
M  V30 1545 C 150.331 2.71562 2.35573 0
M  V30 1546 C 149.995 4.14526 1.92399 0
M  V30 1547 C 150.992 4.99717 1.43453 0
M  V30 1548 C 148.677 4.60559 2.00475 0
M  V30 1549 C 150.671 6.28998 1.03155 0
M  V30 1550 C 148.358 5.8984 1.59788 0
M  V30 1551 C 149.356 6.73886 1.11208 0
M  V30 1552 O 149.044 8.0075 0.710935 0
M  V30 1553 H 148.776 0.562635 0.374724 0
M  V30 1554 H 151.33 1.98146 0.541036 0
M  V30 1555 H 149.56 2.3533 3.06849 0
M  V30 1556 H 151.249 2.76156 2.97478 0
M  V30 1557 H 152.015 4.65361 1.36618 0
M  V30 1558 H 147.894 3.95273 2.37235 0
M  V30 1559 H 151.438 6.9455 0.651663 0
M  V30 1560 H 147.335 6.23713 1.66289 0
M  V30 1561 H 148.103 8.142 0.837913 0
M  V30 1562 N 150.766 -0.704594 1.40972 0
M  V30 1563 C 151.729 -1.80035 1.41845 0
M  V30 1564 C 152.729 -1.57774 0.310474 0
M  V30 1565 O 153.919 -1.64613 0.56992 0
M  V30 1566 C 151.051 -3.18284 1.22098 0
M  V30 1567 H 152.244 -1.80658 2.3938 0
M  V30 1568 H 149.797 -0.911329 1.26982 0
M  V30 1569 H 150.532 -3.23306 0.253672 0
M  V30 1570 H 150.317 -3.35843 2.02366 0
M  V30 1571 H 151.807 -3.98289 1.25522 0
M  V30 1572 N 152.244 -1.26651 -0.937939 0
M  V30 1573 C 153.174 -1.10993 -2.05433 0
M  V30 1574 C 154.155 -0.0142161 -1.70094 0
M  V30 1575 O 155.34 -0.186837 -1.93299 0
M  V30 1576 C 152.47 -0.745561 -3.39203 0
M  V30 1577 C 151.424 -1.79337 -3.88616 0
M  V30 1578 C 150.75 -1.28324 -5.19073 0
M  V30 1579 C 152.05 -3.19553 -4.13138 0
M  V30 1580 H 153.744 -2.0438 -2.1879 0
M  V30 1581 H 151.29 -0.984041 -1.05131 0
M  V30 1582 H 153.243 -0.622888 -4.16771 0
M  V30 1583 H 151.967 0.22401 -3.25831 0
M  V30 1584 H 150.626 -1.90477 -3.13231 0
M  V30 1585 H 150.274 -0.303414 -5.02084 0
M  V30 1586 H 149.974 -1.98369 -5.53103 0
M  V30 1587 H 151.498 -1.1733 -5.99221 0
M  V30 1588 H 152.912 -3.11471 -4.81309 0
M  V30 1589 H 151.309 -3.87218 -4.58457 0
M  V30 1590 H 152.379 -3.65368 -3.18801 0
M  V30 1591 N 153.722 1.14298 -1.08507 0
M  V30 1592 C 154.685 2.17607 -0.719711 0
M  V30 1593 C 155.685 1.58907 0.245997 0
M  V30 1594 O 156.875 1.74181 0.0254081 0
M  V30 1595 C 154.007 3.40842 -0.0627695 0
M  V30 1596 H 155.2 2.51443 -1.63452 0
M  V30 1597 H 152.753 1.28963 -0.88307 0
M  V30 1598 H 153.488 3.12587 0.863716 0
M  V30 1599 H 153.273 3.84713 -0.757504 0
M  V30 1600 H 154.763 4.17221 0.177786 0
M  V30 1601 N 155.201 0.870884 1.31352 0
M  V30 1602 C 156.131 0.343096 2.30966 0
M  V30 1603 C 157.112 -0.566507 1.60389 0
M  V30 1604 O 158.297 -0.483336 1.88089 0
M  V30 1605 C 155.427 -0.455487 3.443 0
M  V30 1606 C 154.381 0.361103 4.26474 0
M  V30 1607 C 153.707 -0.563221 5.31725 0
M  V30 1608 C 155.007 1.59566 4.97329 0
M  V30 1609 H 156.701 1.17548 2.75359 0
M  V30 1610 H 154.247 0.566686 1.32381 0
M  V30 1611 H 156.2 -0.83525 4.13039 0
M  V30 1612 H 154.924 -1.32139 2.98675 0
M  V30 1613 H 153.583 0.722825 3.59403 0
M  V30 1614 H 153.231 -1.42643 4.82351 0
M  V30 1615 H 152.931 -0.0207409 5.87596 0
M  V30 1616 H 154.455 -0.939808 6.03324 0
M  V30 1617 H 155.869 1.28728 5.58661 0
M  V30 1618 H 154.266 2.07728 5.63 0
M  V30 1619 H 155.336 2.34798 4.24262 0
M  V30 1620 N 156.679 -1.44442 0.630414 0
M  V30 1621 C 158.09 -1.85434 0.217063 0
M  V30 1622 C 158.441 -1.52748 -1.23136 0
M  V30 1623 O 157.566 -0.965205 -1.93682 0
M  V30 1624 C 158.161 -3.36581 0.387168 0
M  V30 1625 C 156.72 -3.76389 0.0283297 0
M  V30 1626 C 155.867 -2.68296 0.700889 0
M  V30 1627 H 158.818 -1.34919 0.83562 0
M  V30 1628 H 158.839 -3.78657 -0.374086 0
M  V30 1629 H 158.351 -3.60339 1.44144 0
M  V30 1630 H 156.452 -3.58246 -1.02423 0
M  V30 1631 H 156.565 -4.77095 0.437892 0
M  V30 1632 H 154.929 -2.54335 0.136267 0
M  V30 1633 H 155.712 -2.94887 1.75774 0
M  V30 1634 N 158.157 -0.370918 -1.53173 0
M  V30 1635 C 159.387 0.217389 -2.05453 0
M  V30 1636 C 159.795 1.42568 -1.24382 0
M  V30 1637 O 159.138 1.81571 -0.278839 0
M  V30 1638 C 159.2 0.669827 -3.53205 0
M  V30 1639 C 158.864 -0.4225 -4.55043 0
M  V30 1640 C 159.861 -1.27407 -5.04047 0
M  V30 1641 C 157.546 -0.58427 -4.9889 0
M  V30 1642 C 159.54 -2.27271 -5.95505 0
M  V30 1643 C 157.227 -1.58627 -5.90153 0
M  V30 1644 C 158.225 -2.42892 -6.38351 0
M  V30 1645 O 157.913 -3.41382 -7.27814 0
M  V30 1646 H 157.645 0.0408171 -0.674767 0
M  V30 1647 H 160.199 -0.5292 -1.98466 0
M  V30 1648 H 158.429 1.4681 -3.57748 0
M  V30 1649 H 160.118 1.18173 -3.88317 0
M  V30 1650 H 160.884 -1.16031 -4.70916 0
M  V30 1651 H 156.763 0.061851 -4.60959 0
M  V30 1652 H 160.307 -2.93079 -6.33049 0
M  V30 1653 H 156.204 -1.70048 -6.22699 0
M  V30 1654 H 156.972 -3.37173 -7.45826 0
M  V30 1655 N 159.635 1.57281 -0.100228 0
M  V30 1656 C 160.598 2.13158 0.842398 0
M  V30 1657 C 161.598 1.06202 1.20738 0
M  V30 1658 O 162.788 1.32066 1.13597 0
M  V30 1659 C 159.92 2.65639 2.13655 0
M  V30 1660 H 161.113 2.97766 0.357114 0
M  V30 1661 H 158.666 1.5559 0.148823 0
M  V30 1662 H 159.401 1.84566 2.66657 0
M  V30 1663 H 159.186 3.43844 1.88451 0
M  V30 1664 H 160.676 3.08846 2.81077 0
M  V30 1665 N 161.113 -0.173488 1.56642 0
M  V30 1666 C 162.341 -0.906095 1.86004 0
M  V30 1667 C 162.756 -1.75921 0.685355 0
M  V30 1668 O 162.113 -1.79198 -0.345578 0
M  V30 1669 C 162.164 -1.78462 3.14378 0
M  V30 1670 O 161.885 -0.965914 4.27319 0
M  V30 1671 C 163.386 -2.62707 3.57071 0
M  V30 1672 H 160.606 -0.263341 0.617165 0
M  V30 1673 H 163.15 -0.174236 2.03756 0
M  V30 1674 H 161.305 -2.46984 2.98459 0
M  V30 1675 H 161.719 -1.56655 5.00559 0
M  V30 1676 H 163.193 -3.19969 4.49804 0
M  V30 1677 H 163.67 -3.37472 2.81086 0
M  V30 1678 H 164.276 -1.99521 3.75595 0
M  V30 1679 N 162.591 -1.51276 -0.441967 0
M  V30 1680 C 164.007 -1.39349 -0.778083 0
M  V30 1681 C 164.207 -0.472212 -1.95889 0
M  V30 1682 O 163.263 0.0743551 -2.5239 0
M  V30 1683 C 164.576 -2.81292 -1.0628 0
M  V30 1684 C 166.124 -2.9041 -1.16751 0
M  V30 1685 C 166.599 -4.33251 -1.48519 0
M  V30 1686 N 168.09 -4.36336 -1.55453 0
M  V30 1687 C 168.825 -5.43885 -1.81596 0
M  V30 1688 N 168.321 -6.61601 -2.05562 0
M  V30 1689 N 170.114 -5.3136 -1.8334 0
M  V30 1690 H 162.265 -2.09729 0.335774 0
M  V30 1691 H 164.528 -0.943925 0.0878028 0
M  V30 1692 H 164.234 -3.50678 -0.267905 0
M  V30 1693 H 164.108 -3.20334 -1.99163 0
M  V30 1694 H 166.495 -2.21225 -1.95304 0
M  V30 1695 H 166.576 -2.54871 -0.217801 0
M  V30 1696 H 166.22 -5.02984 -0.704958 0
M  V30 1697 H 166.15 -4.66299 -2.44689 0
M  V30 1698 H 168.641 -3.51466 -1.38853 0
M  V30 1699 H 168.954 -7.39361 -2.24867 0
M  V30 1700 H 167.299 -6.64725 -2.02894 0
M  V30 1701 H 170.49 -4.38382 -1.64132 0
M  V30 1702 H 170.663 -6.15258 -2.03377 0
M  V30 1703 N 164.069 0.697108 -1.41344 0
M  V30 1704 C 165.309 1.46939 -1.42085 0
M  V30 1705 C 165.673 1.9198 -0.0280397 0
M  V30 1706 O 166.874 2.6865 0.0897504 0
M  V30 1707 C 165.145 2.64985 -2.39828 0
M  V30 1708 S 166.704 3.54147 -2.59085 0
M  V30 1709 H 163.522 0.502146 -0.503359 0
M  V30 1710 H 166.124 0.813546 -1.77769 0
M  V30 1711 H 164.828 2.30098 -3.39828 0
M  V30 1712 H 164.359 3.35464 -2.05493 0
M  V30 1713 H 166.374 4.60137 -1.85711 0
M  V30 1714 N 165.547 1.27147 0.931209 0
M  V30 1715 C 166.457 1.11372 2.06478 0
M  V30 1716 C 167.473 0.044645 1.73943 0
M  V30 1717 O 168.649 0.250417 1.99837 0
M  V30 1718 C 165.714 0.758838 3.38294 0
M  V30 1719 C 164.775 1.90841 3.84549 0
M  V30 1720 C 164.008 1.57036 5.10074 0
M  V30 1721 O 164.231 0.476645 5.68405 0
M  V30 1722 O 163.165 2.40839 5.51616 0
M  V30 1723 H 166.991 2.06493 2.22698 0
M  V30 1724 H 164.576 1.06301 1.04978 0
M  V30 1725 H 166.458 0.574098 4.17471 0
M  V30 1726 H 165.133 -0.162879 3.2329 0
M  V30 1727 H 164.04 2.14819 3.06274 0
M  V30 1728 H 165.373 2.81021 4.04089 0
M  V30 1729 N 167.025 -1.13721 1.09112 0
M  V30 1730 C 168.271 -1.85198 0.826414 0
M  V30 1731 C 168.604 -1.83129 -0.646319 0
M  V30 1732 O 167.879 -1.2671 -1.47563 0
M  V30 1733 C 168.162 -3.33507 1.35812 0
M  V30 1734 C 168.015 -3.44108 2.89672 0
M  V30 1735 C 169.334 -4.28838 0.989256 0
M  V30 1736 H 166.453 -0.67243 0.301675 0
M  V30 1737 H 169.095 -1.33499 1.35197 0
M  V30 1738 H 167.245 -3.77666 0.911082 0
M  V30 1739 H 168.917 -3.08684 3.428 0
M  V30 1740 H 167.16 -2.85087 3.26967 0
M  V30 1741 H 167.831 -4.48388 3.21951 0
M  V30 1742 H 170.307 -3.92734 1.37475 0
M  V30 1743 H 169.183 -5.31051 1.38838 0
M  V30 1744 H 169.444 -4.4198 -0.102924 0
M  V30 1745 N 168.503 -0.877838 -1.30888 0
M  V30 1746 C 169.731 -0.507414 -2.00581 0
M  V30 1747 C 170.146 0.902216 -1.65848 0
M  V30 1748 O 169.503 1.59225 -0.891831 0
M  V30 1749 C 169.554 -0.664162 -3.55347 0
M  V30 1750 O 169.275 -2.01829 -3.8884 0
M  V30 1751 C 170.776 -0.295787 -4.42312 0
M  V30 1752 H 167.996 -0.196866 -0.641471 0
M  V30 1753 H 170.54 -1.18117 -1.66939 0
M  V30 1754 H 168.695 -0.0378619 -3.87381 0
M  V30 1755 H 169.109 -2.03174 -4.8355 0
M  V30 1756 H 170.583 -0.456388 -5.5011 0
M  V30 1757 H 171.06 0.765663 -4.32475 0
M  V30 1758 H 171.666 -0.898113 -4.15709 0
M  V30 1759 N 169.982 1.44106 -0.638065 0
M  V30 1760 C 170.892 2.34513 0.0637334 0
M  V30 1761 C 171.908 1.53018 0.828346 0
M  V30 1762 O 173.084 1.85723 0.779036 0
M  V30 1763 C 170.149 3.31095 1.02844 0
M  V30 1764 C 169.21 4.28497 0.26244 0
M  V30 1765 C 168.443 5.20465 1.1812 0
M  V30 1766 O 168.666 5.16514 2.42011 0
M  V30 1767 O 167.6 5.98251 0.661774 0
M  V30 1768 H 171.426 2.95989 -0.68003 0
M  V30 1769 H 169.011 1.43994 -0.398252 0
M  V30 1770 H 170.893 3.90526 1.58327 0
M  V30 1771 H 169.568 2.72144 1.7527 0
M  V30 1772 H 168.475 3.72592 -0.335602 0
M  V30 1773 H 169.808 4.90388 -0.421936 0
M  V30 1774 N 171.46 0.379036 1.52974 0
M  V30 1775 C 172.706 -0.206727 2.01744 0
M  V30 1776 C 173.039 -1.47314 1.26539 0
M  V30 1777 O 172.314 -1.91084 0.362903 0
M  V30 1778 C 172.597 -0.485066 3.56818 0
M  V30 1779 C 172.45 0.795919 4.42702 0
M  V30 1780 C 173.769 -1.28003 4.21074 0
M  V30 1781 H 170.888 -0.0736607 0.73331 0
M  V30 1782 H 173.53 0.506581 1.83122 0
M  V30 1783 H 171.68 -1.09272 3.72816 0
M  V30 1784 H 173.352 1.43307 4.38476 0
M  V30 1785 H 171.595 1.41344 4.10127 0
M  V30 1786 H 172.266 0.555947 5.49193 0
M  V30 1787 H 174.742 -0.765867 4.08991 0
M  V30 1788 H 173.618 -1.44352 5.29579 0
M  V30 1789 H 173.879 -2.29236 3.78026 0
M  V30 1790 N 172.938 -1.57226 0.108567 0
M  V30 1791 C 174.215 -1.86333 -0.594939 0
M  V30 1792 C 174.595 -1.00788 -1.85486 0
M  V30 1793 O 173.943 -0.0839293 -2.28346 0
M  V30 1794 C 174.153 -3.37265 -0.897405 0
M  V30 1795 C 175.501 -4.05629 -1.25501 0
M  V30 1796 O 176.525 -3.42224 -0.987998 0
M  V30 1797 O 175.384 -5.17531 -1.75567 0
M  V30 1798 H 172.478 -0.771018 -0.2991 0
M  V30 1799 H 175.024 -1.69102 0.142283 0
M  V30 1800 H 173.796 -3.913 -0.00413806 0
M  V30 1801 H 173.419 -3.59889 -1.69014 0
M  V30 1802 N 174.416 0.165178 -1.56732 0
M  V30 1803 C 175.665 0.879143 -1.81532 0
M  V30 1804 C 175.978 1.83144 -0.686842 0
M  V30 1805 O 177.184 2.58823 -0.819944 0
M  V30 1806 C 175.64 1.61388 -3.21686 0
M  V30 1807 C 175.248 0.704904 -4.4242 0
M  V30 1808 C 176.992 2.3157 -3.55774 0
M  V30 1809 C 174.899 1.44022 -5.73595 0
M  V30 1810 H 173.829 0.332033 -0.676957 0
M  V30 1811 H 176.48 0.132008 -1.83025 0
M  V30 1812 H 174.862 2.40599 -3.14529 0
M  V30 1813 H 176.036 -0.0506815 -4.60772 0
M  V30 1814 H 174.351 0.112419 -4.16248 0
M  V30 1815 H 176.948 2.8719 -4.51028 0
M  V30 1816 H 177.291 3.07201 -2.8095 0
M  V30 1817 H 177.824 1.59297 -3.64513 0
M  V30 1818 H 174.563 0.72612 -6.51466 0
M  V30 1819 H 174.083 2.16898 -5.5921 0
M  V30 1820 H 175.762 1.98606 -6.15764 0
M  V30 1821 N 175.894 1.51508 0.433938 0
M  V30 1822 C 177.142 1.6402 1.18075 0
M  V30 1823 C 177.463 0.360328 1.91642 0
M  V30 1824 O 176.733 -0.623945 1.85698 0
M  V30 1825 H 175.313 0.6045 0.43885 0
M  V30 1826 H 177.975 1.88452 0.497178 0
M  V30 1827 H 177.071 2.46949 1.90847 0
M  V30 1828 N 177.372 -0.689602 1.41712 0
M  V30 1829 C 178.302 -1.81577 1.46806 0
M  V30 1830 C 179.283 -1.66945 0.326105 0
M  V30 1831 O 180.468 -1.86588 0.538377 0
M  V30 1832 C 177.598 -3.19762 1.35535 0
M  V30 1833 C 176.552 -3.49107 2.47605 0
M  V30 1834 C 175.878 -4.86711 2.21397 0
M  V30 1835 C 177.178 -3.47483 3.89939 0
M  V30 1836 H 178.872 -1.7757 2.41058 0
M  V30 1837 H 176.418 -0.852887 1.16025 0
M  V30 1838 H 178.371 -3.98263 1.3771 0
M  V30 1839 H 177.095 -3.24409 0.377708 0
M  V30 1840 H 175.754 -2.72959 2.44722 0
M  V30 1841 H 175.402 -4.8799 1.21961 0
M  V30 1842 H 175.102 -5.0731 2.96497 0
M  V30 1843 H 176.626 -5.67515 2.25297 0
M  V30 1844 H 178.04 -4.1598 3.94505 0
M  V30 1845 H 176.437 -3.79615 4.64771 0
M  V30 1846 H 177.507 -2.46341 4.17665 0
M  V30 1847 N 178.85 -1.27639 -0.924453 0
M  V30 1848 C 180.261 -1.12834 -1.48746 0
M  V30 1849 C 180.612 0.285505 -1.94112 0
M  V30 1850 O 179.737 1.17874 -1.81479 0
M  V30 1851 C 180.332 -2.04217 -2.70334 0
M  V30 1852 C 178.891 -1.93509 -3.22848 0
M  V30 1853 C 178.038 -1.96583 -1.95577 0
M  V30 1854 H 180.989 -1.40484 -0.738233 0
M  V30 1855 H 181.01 -1.59989 -3.4523 0
M  V30 1856 H 180.522 -3.07111 -2.37285 0
M  V30 1857 H 178.623 -0.936131 -3.60649 0
M  V30 1858 H 178.736 -2.79917 -3.88823 0
M  V30 1859 H 177.1 -1.4085 -2.12211 0
M  V30 1860 H 177.883 -3.01137 -1.64837 0
M  V30 1861 N 180.328 1.1314 -1.09713 0
M  V30 1862 C 181.744 1.36477 -0.827423 0
M  V30 1863 C 181.944 1.93654 0.556817 0
M  V30 1864 O 181 2.15791 1.31112 0
M  V30 1865 C 182.313 2.31334 -1.92106 0
M  V30 1866 C 183.861 2.44943 -1.94864 0
M  V30 1867 C 184.336 3.4311 -3.0338 0
M  V30 1868 N 185.827 3.50662 -3.02639 0
M  V30 1869 C 186.562 4.2651 -3.83246 0
M  V30 1870 N 186.058 5.05485 -4.73768 0
M  V30 1871 N 187.851 4.2184 -3.71493 0
M  V30 1872 H 180.002 0.743807 -1.9895 0
M  V30 1873 H 182.265 0.389823 -0.864143 0
M  V30 1874 H 181.971 1.96483 -2.91698 0
M  V30 1875 H 181.845 3.31381 -1.80184 0
M  V30 1876 H 184.232 2.79079 -0.959099 0
M  V30 1877 H 184.313 1.4481 -2.10864 0
M  V30 1878 H 183.957 3.09704 -4.02549 0
M  V30 1879 H 183.887 4.43055 -2.84622 0
M  V30 1880 H 186.378 2.94315 -2.37039 0
M  V30 1881 H 186.691 5.60675 -5.3185 0
M  V30 1882 H 185.036 5.04708 -4.77802 0
M  V30 1883 H 188.227 3.5922 -3.00131 0
M  V30 1884 H 188.4 4.80697 -4.3455 0
M  V30 1885 N 181.806 0.884767 1.30421 0
M  V30 1886 C 182.716 0.355398 2.31892 0
M  V30 1887 C 183.732 -0.542261 1.65335 0
M  V30 1888 O 184.908 -0.435432 1.96637 0
M  V30 1889 C 181.973 -0.421661 3.44126 0
M  V30 1890 C 181.034 0.505727 4.26311 0
M  V30 1891 C 180.267 -0.234343 5.33185 0
M  V30 1892 O 180.49 -1.46045 5.51386 0
M  V30 1893 O 179.424 0.415443 6.00465 0
M  V30 1894 H 183.25 1.19685 2.79122 0
M  V30 1895 H 180.835 0.648596 1.34587 0
M  V30 1896 H 182.717 -0.861641 4.12497 0
M  V30 1897 H 181.392 -1.23942 2.99032 0
M  V30 1898 H 180.299 0.994513 3.60639 0
M  V30 1899 H 181.632 1.28948 4.75009 0
M  V30 1900 N 183.284 -1.43765 0.645699 0
M  V30 1901 C 184.247 -2.29163 -0.0409488 0
M  V30 1902 C 185.247 -1.41813 -0.757996 0
M  V30 1903 O 186.437 -1.63527 -0.600382 0
M  V30 1904 C 183.569 -3.23716 -1.06869 0
M  V30 1905 H 184.762 -2.91366 0.710345 0
M  V30 1906 H 182.315 -1.5092 0.406547 0
M  V30 1907 H 183.05 -2.66393 -1.84947 0
M  V30 1908 H 182.835 -3.88105 -0.558277 0
M  V30 1909 H 184.325 -3.87831 -1.54845 0
M  V30 1910 N 184.763 -0.387143 -1.52771 0
M  V30 1911 C 186.011 0.195349 -2.01154 0
M  V30 1912 C 186.332 1.475 -1.27549 0
M  V30 1913 O 185.602 1.91878 -0.394924 0
M  V30 1914 H 184.182 0.075178 -0.743207 0
M  V30 1915 H 186.844 -0.518337 -1.87881 0
M  V30 1916 H 185.94 0.407096 -3.09434 0
M  V30 1917 N 186.241 1.57166 -0.116904 0
M  V30 1918 C 187.518 1.86645 0.585049 0
M  V30 1919 C 187.898 1.0177 1.84949 0
M  V30 1920 O 187.246 0.0960379 2.28298 0
M  V30 1921 C 187.456 3.37736 0.879507 0
M  V30 1922 C 188.804 4.06289 1.23348 0
M  V30 1923 O 189.828 3.42743 0.969836 0
M  V30 1924 O 188.687 5.18455 1.7282 0
M  V30 1925 H 185.781 0.772593 0.295007 0
M  V30 1926 H 188.327 1.69025 -0.151249 0
M  V30 1927 H 187.099 3.91296 -0.0166136 0
M  V30 1928 H 186.722 3.6078 1.67103 0
M  V30 1929 N 187.719 -0.156864 1.56817 0
M  V30 1930 C 188.682 -1.17781 1.96622 0
M  V30 1931 C 189.682 -1.36401 0.851555 0
M  V30 1932 O 190.872 -1.33561 1.11836 0
M  V30 1933 C 188.004 -2.54008 2.27361 0
M  V30 1934 H 189.197 -0.836564 2.87996 0
M  V30 1935 H 186.75 -0.39985 1.51099 0
M  V30 1936 H 187.485 -2.9312 1.38748 0
M  V30 1937 H 187.27 -2.41856 3.08623 0
M  V30 1938 H 188.76 -3.27558 2.59029 0
M  V30 1939 N 189.197 -1.51736 -0.425897 0
M  V30 1940 C 190.127 -1.76827 -1.52494 0
M  V30 1941 C 191.108 -0.618524 -1.58456 0
M  V30 1942 O 192.293 -0.862416 -1.74 0
M  V30 1943 C 189.423 -1.90374 -2.90474 0
M  V30 1944 C 188.377 -3.0588 -2.99369 0
M  V30 1945 C 187.703 -3.04625 -4.3944 0
M  V30 1946 C 189.003 -4.45644 -2.72394 0
M  V30 1947 H 190.697 -2.68855 -1.31748 0
M  V30 1948 H 188.243 -1.29372 -0.632362 0
M  V30 1949 H 190.196 -2.0651 -3.6733 0
M  V30 1950 H 188.92 -0.95004 -3.12477 0
M  V30 1951 H 187.579 -2.89467 -2.24954 0
M  V30 1952 H 187.227 -2.0701 -4.58428 0
M  V30 1953 H 186.927 -3.82195 -4.46319 0
M  V30 1954 H 188.451 -3.22869 -5.18255 0
M  V30 1955 H 189.865 -4.62348 -3.38979 0
M  V30 1956 H 188.262 -5.25006 -2.9067 0
M  V30 1957 H 189.332 -4.54893 -1.67929 0
M  V30 1958 N 190.675 0.682077 -1.42076 0
M  V30 1959 C 191.638 1.77756 -1.44691 0
M  V30 1960 C 192.638 1.5726 -0.335535 0
M  V30 1961 O 193.828 1.63686 -0.596037 0
M  V30 1962 C 190.96 3.16301 -1.27146 0
M  V30 1963 H 192.153 1.76826 -2.42224 0
M  V30 1964 H 189.706 0.891012 -1.28416 0
M  V30 1965 H 190.441 3.22862 -0.305075 0
M  V30 1966 H 190.226 3.32581 -2.07683 0
M  V30 1967 H 191.716 3.96241 -1.31843 0
M  V30 1968 N 192.153 1.28127 0.917671 0
M  V30 1969 C 193.564 1.13622 1.48145 0
M  V30 1970 C 193.915 -0.275207 1.9426 0
M  V30 1971 O 193.04 -1.1691 1.82102 0
M  V30 1972 C 193.635 2.05648 2.69248 0
M  V30 1973 C 192.194 1.95219 3.21818 0
M  V30 1974 C 191.341 1.97618 1.94532 0
M  V30 1975 H 194.292 1.40874 0.730772 0
M  V30 1976 H 194.313 1.61818 3.44377 0
M  V30 1977 H 193.825 3.08365 2.35653 0
M  V30 1978 H 191.926 0.955244 3.60147 0
M  V30 1979 H 192.039 2.81976 3.87333 0
M  V30 1980 H 190.403 1.41973 2.11461 0
M  V30 1981 H 191.186 3.02007 1.63238 0
M  V30 1982 N 193.631 -1.12557 1.10312 0
M  V30 1983 C 194.877 -1.84311 0.846011 0
M  V30 1984 C 195.21 -1.83805 -0.626859 0
M  V30 1985 O 194.485 -1.28268 -1.46211 0
M  V30 1986 C 194.768 -3.32048 1.39341 0
M  V30 1987 C 194.621 -3.41016 2.93305 0
M  V30 1988 C 195.94 -4.27764 1.03468 0
M  V30 1989 H 193.059 -0.669192 0.30879 0
M  V30 1990 H 195.701 -1.32057 1.36605 0
M  V30 1991 H 193.851 -3.76678 0.951087 0
M  V30 1992 H 195.523 -3.05031 3.46055 0
M  V30 1993 H 193.766 -2.81603 3.29973 0
M  V30 1994 H 194.437 -4.44948 3.26689 0
M  V30 1995 H 196.913 -3.91253 1.41633 0
M  V30 1996 H 195.789 -5.29549 1.44463 0
M  V30 1997 H 196.05 -4.42064 -0.0560404 0
M  V30 1998 N 195.109 -0.891671 -1.2995 0
M  V30 1999 C 196.039 -0.379797 -2.30391 0
M  V30 2000 C 197.02 0.540919 -1.6127 0
M  V30 2001 O 198.205 0.453352 -1.88834 0
M  V30 2002 C 195.335 0.400654 -3.44981 0
M  V30 2003 C 194.289 -0.428905 -4.25846 0
M  V30 2004 C 193.615 0.478557 -5.32554 0
M  V30 2005 C 194.915 -1.67458 -4.94727 0
M  V30 2006 H 196.609 -1.21914 -2.73454 0
M  V30 2007 H 194.155 -0.587675 -1.31462 0
M  V30 2008 H 196.108 0.769434 -4.14316 0
M  V30 2009 H 194.832 1.27371 -3.0074 0
M  V30 2010 H 193.491 -0.779911 -3.58208 0
M  V30 2011 H 193.139 1.34951 -4.84559 0
M  V30 2012 H 192.839 -0.0727433 -5.87555 0
M  V30 2013 H 194.363 0.843705 -6.04743 0
M  V30 2014 H 195.777 -1.376 -5.56542 0
M  V30 2015 H 194.174 -2.16659 -5.59624 0
M  V30 2016 H 195.244 -2.41518 -4.20473 0
M  V30 2017 N 196.587 1.43421 -0.653314 0
M  V30 2018 C 197.864 1.95361 -0.0966581 0
M  V30 2019 C 198.244 1.59461 1.38331 0
M  V30 2020 O 197.592 0.879777 2.10884 0
M  V30 2021 C 197.802 3.47311 -0.342988 0
M  V30 2022 C 199.15 4.23875 -0.24798 0
M  V30 2023 O 200.174 3.55133 -0.275553 0
M  V30 2024 O 199.033 5.4623 -0.171771 0
M  V30 2025 H 196.127 0.826945 0.00956291 0
M  V30 2026 H 198.673 1.5336 -0.726558 0
M  V30 2027 H 197.445 3.66569 -1.36906 0
M  V30 2028 H 197.068 3.9631 0.319975 0
M  V30 2029 N 198.065 0.39524 1.52563 0
M  V30 2030 C 198.975 -0.444232 2.30356 0
M  V30 2031 C 199.991 -1.06615 1.37511 0
M  V30 2032 O 201.167 -1.07067 1.70583 0
M  V30 2033 C 198.232 -1.55315 3.09964 0
M  V30 2034 C 197.293 -0.955734 4.18526 0
M  V30 2035 C 196.526 -2.01181 4.9433 0
M  V30 2036 O 196.749 -3.22781 4.70285 0
M  V30 2037 O 195.683 -1.62579 5.79527 0
M  V30 2038 H 199.509 0.189667 3.03107 0
M  V30 2039 H 197.094 0.1588 1.48554 0
M  V30 2040 H 198.976 -2.19724 3.59582 0
M  V30 2041 H 197.651 -2.17191 2.4002 0
M  V30 2042 H 196.558 -0.274743 3.7309 0
M  V30 2043 H 197.891 -0.381109 4.90722 0
M  V30 2044 N 199.544 -1.57102 0.125237 0
M  V30 2045 C 200.772 -1.99761 -0.538797 0
M  V30 2046 C 201.187 -1.00503 -1.59827 0
M  V30 2047 O 200.544 0.00119474 -1.825 0
M  V30 2048 C 200.595 -3.42408 -1.15927 0
M  V30 2049 O 200.316 -4.37869 -0.142143 0
M  V30 2050 C 201.817 -4.00232 -1.90602 0
M  V30 2051 H 199.037 -0.655772 -0.14214 0
M  V30 2052 H 201.581 -2.03383 0.213413 0
M  V30 2053 H 199.736 -3.39706 -1.86223 0
M  V30 2054 H 200.15 -5.21128 -0.593775 0
M  V30 2055 H 201.624 -5.02105 -2.29335 0
M  V30 2056 H 202.101 -3.39721 -2.78363 0
M  V30 2057 H 202.707 -4.06499 -1.25055 0
M  V30 2058 N 201.022 0.148545 -1.56898 0
M  V30 2059 C 202.268 0.857877 -1.84424 0
M  V30 2060 C 202.623 1.7886 -0.709006 0
M  V30 2061 O 201.916 1.89344 0.293139 0
M  V30 2062 C 202.11 1.67064 -3.1595 0
M  V30 2063 C 201.939 0.82011 -4.42159 0
M  V30 2064 C 200.709 0.486328 -5.02954 0
M  V30 2065 C 202.907 0.151155 -5.14078 0
M  V30 2066 N 200.889 -0.377956 -6.12735 0
M  V30 2067 C 202.26 -0.573333 -6.17343 0
M  V30 2068 C 204.315 0.0716685 -4.97848 0
M  V30 2069 C 203.018 -1.3698 -7.06137 0
M  V30 2070 C 205.044 -0.711532 -5.87104 0
M  V30 2071 C 204.406 -1.42431 -6.8985 0
M  V30 2072 H 200.505 0.291798 -0.725519 0
M  V30 2073 H 203.089 0.123347 -1.94309 0
M  V30 2074 H 201.26 2.37642 -3.07215 0
M  V30 2075 H 202.992 2.32302 -3.31388 0
M  V30 2076 H 199.747 0.821753 -4.66416 0
M  V30 2077 H 200.171 -0.801077 -6.72244 0
M  V30 2078 H 204.813 0.608381 -4.184 0
M  V30 2079 H 202.531 -1.91778 -7.85014 0
M  V30 2080 H 206.117 -0.775005 -5.76615 0
M  V30 2081 H 204.997 -2.02061 -7.57721 0
M  V30 2082 N 202.5 1.5196 0.417844 0
M  V30 2083 C 203.916 1.40569 0.755816 0
M  V30 2084 C 204.116 0.503316 1.95113 0
M  V30 2085 O 203.172 -0.0341925 2.52477 0
M  V30 2086 C 204.485 2.82947 1.01791 0
M  V30 2087 C 206.033 2.92231 1.12116 0
M  V30 2088 C 206.508 4.35559 1.41608 0
M  V30 2089 N 207.999 4.38753 1.48491 0
M  V30 2090 C 208.734 5.46705 1.7292 0
M  V30 2091 N 208.23 6.64788 1.95011 0
M  V30 2092 N 210.023 5.34209 1.74863 0
M  V30 2093 H 202.174 2.09168 -0.369098 0
M  V30 2094 H 204.437 0.942409 -0.102809 0
M  V30 2095 H 204.143 3.5106 0.212081 0
M  V30 2096 H 204.017 3.23462 1.94042 0
M  V30 2097 H 206.404 2.24304 1.9176 0
M  V30 2098 H 206.485 2.55185 0.177225 0
M  V30 2099 H 206.129 5.04042 0.624848 0
M  V30 2100 H 206.059 4.70133 2.37239 0
M  V30 2101 H 208.55 3.5363 1.33244 0
M  V30 2102 H 208.863 7.42845 2.13076 0
M  V30 2103 H 207.208 6.67869 1.92293 0
M  V30 2104 H 210.399 4.40937 1.57137 0
M  V30 2105 H 210.572 6.18415 1.93563 0
M  V30 2106 N 203.978 -0.674533 1.42435 0
M  V30 2107 C 205.226 -1.43175 1.42637 0
M  V30 2108 C 205.547 -1.94951 0.0438992 0
M  V30 2109 O 204.817 -1.7308 -0.917607 0
M  V30 2110 H 203.397 -0.531307 0.525092 0
M  V30 2111 H 206.059 -0.797006 1.77859 0
M  V30 2112 H 205.155 -2.28463 2.12629 0
M  V30 2113 N 205.456 -1.28612 -0.910864 0
M  V30 2114 C 206.366 -1.14643 -2.0468 0
M  V30 2115 C 207.382 -0.0723121 -1.7385 0
M  V30 2116 O 208.558 -0.282178 -1.99413 0
M  V30 2117 C 205.623 -0.812561 -3.37044 0
M  V30 2118 C 204.684 -1.96935 -3.81465 0
M  V30 2119 C 203.917 -1.65131 -5.07511 0
M  V30 2120 O 204.14 -0.567013 -5.67575 0
M  V30 2121 O 203.074 -2.49585 -5.47714 0
M  V30 2122 H 206.9 -2.1001 -2.19384 0
M  V30 2123 H 204.485 -1.07958 -1.03274 0
M  V30 2124 H 206.367 -0.640441 -4.16505 0
M  V30 2125 H 205.042 0.111426 -3.23508 0
M  V30 2126 H 203.949 -2.19664 -3.02818 0
M  V30 2127 H 205.282 -2.87414 -3.99567 0
M  V30 2128 N 206.934 1.1197 -1.10907 0
M  V30 2129 C 208.162 1.87402 -0.876824 0
M  V30 2130 C 208.577 1.79894 0.573025 0
M  V30 2131 O 207.934 1.17629 1.39534 0
M  V30 2132 C 207.985 3.36428 -1.32282 0
M  V30 2133 O 207.706 3.43765 -2.71582 0
M  V30 2134 C 209.207 4.28783 -1.12518 0
M  V30 2135 H 206.427 0.592793 -0.314384 0
M  V30 2136 H 208.971 1.41649 -1.47499 0
M  V30 2137 H 207.126 3.79706 -0.768229 0
M  V30 2138 H 207.54 4.3652 -2.90776 0
M  V30 2139 H 209.014 5.31613 -1.48633 0
M  V30 2140 H 209.491 4.39153 -0.0642394 0
M  V30 2141 H 210.097 3.91291 -1.66648 0
M  V30 2142 N 208.412 0.89855 1.29475 0
M  V30 2143 C 209.66 0.522847 1.9522 0
M  V30 2144 C 209.981 -0.93371 1.71192 0
M  V30 2145 O 209.251 -1.65823 1.04305 0
M  V30 2146 H 207.831 0.190366 0.722336 0
M  V30 2147 H 210.493 1.14459 1.5775 0
M  V30 2148 H 209.589 0.704476 3.04045 0
M  V30 2149 N 209.89 -1.43072 0.660911 0
M  V30 2150 C 210.8 -2.34585 -0.0264163 0
M  V30 2151 C 211.816 -1.54316 -0.803898 0
M  V30 2152 O 212.992 -1.86939 -0.749391 0
M  V30 2153 C 210.057 -3.32689 -0.975639 0
M  V30 2154 C 209.118 -4.2886 -0.194236 0
M  V30 2155 C 208.351 -5.22278 -1.09825 0
M  V30 2156 O 208.574 -5.20299 -2.33763 0
M  V30 2157 O 207.508 -5.99228 -0.566513 0
M  V30 2158 H 211.334 -2.94869 0.727034 0
M  V30 2159 H 208.919 -1.43342 0.42111 0
M  V30 2160 H 210.801 -3.92995 -1.52094 0
M  V30 2161 H 209.476 -2.74898 -1.70918 0
M  V30 2162 H 208.383 -3.72011 0.394835 0
M  V30 2163 H 209.716 -4.89655 0.499899 0
M  V30 2164 N 211.368 -0.403325 -1.52352 0
M  V30 2165 C 212.614 0.167015 -2.02713 0
M  V30 2166 C 212.969 1.43296 -1.28391 0
M  V30 2167 O 212.262 1.87796 -0.379885 0
M  V30 2168 C 212.456 0.474665 -3.54234 0
M  V30 2169 C 212.285 -0.759909 -4.43233 0
M  V30 2170 C 211.055 -1.28338 -4.88731 0
M  V30 2171 C 213.253 -1.63634 -4.87574 0
M  V30 2172 N 211.235 -2.47404 -5.6184 0
M  V30 2173 C 212.606 -2.67329 -5.59406 0
M  V30 2174 C 214.661 -1.65478 -4.69597 0
M  V30 2175 C 213.364 -3.72773 -6.15169 0
M  V30 2176 C 215.39 -2.69837 -5.26253 0
M  V30 2177 C 214.752 -3.72253 -5.98002 0
M  V30 2178 H 210.851 0.0228343 -0.781667 0
M  V30 2179 H 213.435 -0.556368 -1.86581 0
M  V30 2180 H 211.606 1.16709 -3.7045 0
M  V30 2181 H 213.338 1.03338 -3.91284 0
M  V30 2182 H 210.093 -0.842273 -4.6605 0
M  V30 2183 H 210.517 -3.07688 -6.0304 0
M  V30 2184 H 215.159 -0.876389 -4.13617 0
M  V30 2185 H 212.877 -4.51471 -6.70223 0
M  V30 2186 H 216.463 -2.72164 -5.14216 0
M  V30 2187 H 215.343 -4.51679 -6.41058 0
M  V30 2188 N 212.846 1.57033 -0.133567 0
M  V30 2189 C 214.262 1.58035 0.222944 0
M  V30 2190 C 214.462 1.14713 1.6566 0
M  V30 2191 O 213.518 0.841218 2.38075 0
M  V30 2192 C 214.831 3.00691 -0.0236116 0
M  V30 2193 C 216.379 3.12973 0.0411512 0
M  V30 2194 C 216.854 4.57654 -0.177899 0
M  V30 2195 N 218.345 4.63033 -0.124365 0
M  V30 2196 C 219.08 5.72771 -0.268553 0
M  V30 2197 N 218.576 6.91206 -0.46972 0
M  V30 2198 N 220.369 5.61718 -0.2071 0
M  V30 2199 H 212.52 1.8349 -1.06981 0
M  V30 2200 H 214.783 0.848677 -0.422436 0
M  V30 2201 H 214.489 3.36726 -1.0153 0
M  V30 2202 H 214.363 3.70614 0.701808 0
M  V30 2203 H 216.75 2.76787 1.02338 0
M  V30 2204 H 216.831 2.45564 -0.716383 0
M  V30 2205 H 216.475 4.94542 -1.15717 0
M  V30 2206 H 216.405 5.23173 0.599797 0
M  V30 2207 H 218.896 3.7789 0.027011 0
M  V30 2208 H 219.209 7.70693 -0.570212 0
M  V30 2209 H 217.554 6.93156 -0.505876 0
M  V30 2210 H 220.745 4.68072 -0.0507986 0
M  V30 2211 H 220.918 6.47195 -0.322909 0
M  V30 2212 N 214.325 -0.140222 1.56975 0
M  V30 2213 C 215.572 -0.851687 1.83719 0
M  V30 2214 C 215.9 -1.80862 0.715485 0
M  V30 2215 O 215.155 -1.93464 -0.294956 0
M  V30 2216 C 215.454 -1.65386 3.16832 0
M  V30 2217 C 215.12 -0.843112 4.42947 0
M  V30 2218 C 213.782 -0.619464 4.77196 0
M  V30 2219 C 216.134 -0.276582 5.20466 0
M  V30 2220 C 213.462 0.181312 5.8642 0
M  V30 2221 C 215.814 0.51127 6.30531 0
M  V30 2222 C 214.478 0.745432 6.63325 0
M  V30 2223 H 213.748 -0.311654 0.672274 0
M  V30 2224 H 216.395 -0.115006 1.91154 0
M  V30 2225 H 214.7 -2.46084 3.04877 0
M  V30 2226 H 216.397 -2.20793 3.34741 0
M  V30 2227 H 212.987 -1.0275 4.16101 0
M  V30 2228 H 217.171 -0.436632 4.94376 0
M  V30 2229 H 212.427 0.372165 6.10266 0
M  V30 2230 H 216.601 0.957354 6.89788 0
M  V30 2231 H 214.228 1.36778 7.47794 0
M  V30 2232 N 215.803 -1.52179 -0.40978 0
M  V30 2233 C 217.028 -1.70347 -1.18308 0
M  V30 2234 C 217.453 -0.411887 -1.83535 0
M  V30 2235 O 216.811 0.630587 -1.6998 0
M  V30 2236 C 216.859 -2.83977 -2.22238 0
M  V30 2237 O 215.963 -2.495 -3.28365 0
M  V30 2238 H 215.304 -0.567103 -0.345384 0
M  V30 2239 H 217.834 -1.98879 -0.480445 0
M  V30 2240 H 217.844 -3.0887 -2.66577 0
M  V30 2241 H 216.519 -3.77685 -1.74146 0
M  V30 2242 H 215.096 -2.35277 -2.89308 0
M  V30 2243 N 217.281 0.66697 -1.42791 0
M  V30 2244 C 218.697 0.981027 -1.25889 0
M  V30 2245 C 218.897 2.00793 -0.168695 0
M  V30 2246 O 217.953 2.48321 0.45747 0
M  V30 2247 C 219.266 1.47838 -2.61848 0
M  V30 2248 C 220.814 1.59575 -2.69267 0
M  V30 2249 C 221.289 2.12704 -4.05612 0
M  V30 2250 N 222.78 2.20026 -4.07606 0
M  V30 2251 C 223.515 2.62227 -5.09926 0
M  V30 2252 N 223.011 3.03824 -6.22626 0
M  V30 2253 N 224.804 2.62045 -4.97281 0
M  V30 2254 H 216.955 -0.0127891 -2.12396 0
M  V30 2255 H 219.218 0.0568258 -0.946295 0
M  V30 2256 H 218.924 0.798299 -3.4252 0
M  V30 2257 H 218.798 2.45579 -2.86305 0
M  V30 2258 H 221.185 2.26687 -1.88936 0
M  V30 2259 H 221.266 0.60302 -2.48591 0
M  V30 2260 H 220.91 1.46198 -4.86404 0
M  V30 2261 H 220.84 3.12782 -4.23645 0
M  V30 2262 H 223.331 1.90708 -3.2625 0
M  V30 2263 H 223.644 3.34734 -6.96544 0
M  V30 2264 H 221.989 3.01662 -6.26119 0
M  V30 2265 H 225.18 2.28916 -4.08308 0
M  V30 2266 H 225.353 2.94613 -5.77154 0
M  V30 2267 N 218.759 1.29093 0.90403 0
M  V30 2268 C 219.984 1.19809 1.69294 0
M  V30 2269 C 220.409 -0.238481 1.86582 0
M  V30 2270 O 219.767 -1.1723 1.383 0
M  V30 2271 C 219.815 1.91202 3.05736 0
M  V30 2272 O 218.919 1.22611 3.93752 0
M  V30 2273 H 218.26 0.415385 0.518027 0
M  V30 2274 H 220.79 1.70586 1.12967 0
M  V30 2275 H 220.8 1.99487 3.55906 0
M  V30 2276 H 219.475 2.95692 2.92471 0
M  V30 2277 H 218.052 1.22554 3.52186 0
M  V30 2278 N 220.237 -1.11381 1.11499 0
M  V30 2279 C 221.485 -1.8277 0.862524 0
M  V30 2280 C 221.806 -1.85097 -0.613534 0
M  V30 2281 O 221.076 -1.32198 -1.4457 0
M  V30 2282 H 219.656 -0.676823 0.316101 0
M  V30 2283 H 222.318 -1.34816 1.4075 0
M  V30 2284 H 221.414 -2.86614 1.23527 0
M  V30 2285 N 221.715 -0.905404 -1.28997 0
M  V30 2286 C 222.645 -0.404212 -2.29975 0
M  V30 2287 C 223.626 0.523784 -1.61835 0
M  V30 2288 O 224.811 0.433298 -1.89304 0
M  V30 2289 C 221.941 0.364042 -3.45387 0
M  V30 2290 C 220.895 -0.474048 -4.25367 0
M  V30 2291 C 220.221 0.422045 -5.33032 0
M  V30 2292 C 221.521 -1.72696 -4.92923 0
M  V30 2293 H 223.215 -1.24807 -2.72146 0
M  V30 2294 H 220.761 -0.601585 -1.30832 0
M  V30 2295 H 222.714 0.725447 -4.15109 0
M  V30 2296 H 221.438 1.24174 -3.02074 0
M  V30 2297 H 220.097 -0.81786 -3.57361 0
M  V30 2298 H 219.745 1.29804 -4.85963 0
M  V30 2299 H 219.445 -0.135057 -5.87445 0
M  V30 2300 H 220.969 0.779517 -6.05604 0
M  V30 2301 H 222.383 -1.43495 -5.55051 0
M  V30 2302 H 220.78 -2.22582 -5.57295 0
M  V30 2303 H 221.85 -2.45964 -4.17887 0
M  V30 2304 N 223.193 1.4272 -0.668489 0
M  V30 2305 C 224.609 1.55992 -0.33745 0
M  V30 2306 C 224.809 1.64933 1.15756 0
M  V30 2307 O 223.865 1.61278 1.94282 0
M  V30 2308 C 225.178 2.81314 -1.06222 0
M  V30 2309 C 226.726 2.95078 -1.04394 0
M  V30 2310 C 227.201 4.23252 -1.74991 0
M  V30 2311 N 228.692 4.3015 -1.71829 0
M  V30 2312 C 229.427 5.28127 -2.23315 0
M  V30 2313 N 228.923 6.32293 -2.83156 0
M  V30 2314 N 230.716 5.19882 -2.13726 0
M  V30 2315 H 222.867 1.3516 -1.63846 0
M  V30 2316 H 225.13 0.650174 -0.689912 0
M  V30 2317 H 224.836 2.80823 -2.11734 0
M  V30 2318 H 224.71 3.72012 -0.62344 0
M  V30 2319 H 227.097 2.951 0.0028244 0
M  V30 2320 H 227.178 2.05627 -1.52155 0
M  V30 2321 H 226.822 4.2399 -2.79633 0
M  V30 2322 H 226.752 5.11626 -1.24685 0
M  V30 2323 H 229.243 3.55499 -1.28175 0
M  V30 2324 H 229.556 7.03398 -3.20079 0
M  V30 2325 H 227.901 6.32873 -2.87223 0
M  V30 2326 H 231.092 4.37423 -1.66669 0
M  V30 2327 H 231.265 5.96077 -2.54158 0
M  V30 2328 N 224.671 0.411399 1.52136 0
M  V30 2329 C 225.901 -0.16284 2.05957 0
M  V30 2330 C 226.309 -1.3922 1.28119 0
M  V30 2331 O 225.652 -1.80768 0.326881 0
M  V30 2332 C 225.714 -0.575946 3.54856 0
M  V30 2333 C 225.378 0.542998 4.53763 0
M  V30 2334 C 226.375 1.40726 5.00492 0
M  V30 2335 C 224.06 0.716337 4.97166 0
M  V30 2336 C 226.054 2.4298 5.8927 0
M  V30 2337 C 223.741 1.74218 5.8574 0
M  V30 2338 C 224.739 2.59731 6.31687 0
M  V30 2339 O 224.427 3.60558 7.18507 0
M  V30 2340 H 224.159 -0.0229125 0.675612 0
M  V30 2341 H 226.713 0.581634 1.96993 0
M  V30 2342 H 224.943 -1.37274 3.61515 0
M  V30 2343 H 226.632 -1.07836 3.91313 0
M  V30 2344 H 227.398 1.28476 4.67674 0
M  V30 2345 H 223.277 0.0603857 4.6096 0
M  V30 2346 H 226.821 3.0976 6.25055 0
M  V30 2347 H 222.718 1.86498 6.17971 0
M  V30 2348 H 223.486 3.56829 7.36624 0
M  V30 2349 N 226.149 -1.5696 0.141893 0
M  V30 2350 C 227.565 -1.58151 -0.21456 0
M  V30 2351 C 227.765 -1.1559 -1.65049 0
M  V30 2352 O 226.821 -0.853832 -2.37626 0
M  V30 2353 C 228.134 -3.00674 0.0395576 0
M  V30 2354 C 229.682 -3.1299 -0.0245529 0
M  V30 2355 C 230.157 -4.57554 0.202167 0
M  V30 2356 N 231.648 -4.62961 0.148919 0
M  V30 2357 C 232.383 -5.7262 0.298924 0
M  V30 2358 N 231.879 -6.90947 0.50637 0
M  V30 2359 N 233.672 -5.61601 0.236886 0
M  V30 2360 H 225.823 -1.8292 1.07953 0
M  V30 2361 H 228.086 -0.846425 0.42693 0
M  V30 2362 H 227.792 -3.36183 1.03315 0
M  V30 2363 H 227.666 -3.70981 -0.682143 0
M  V30 2364 H 230.053 -2.77326 -1.00869 0
M  V30 2365 H 230.134 -2.4518 0.729396 0
M  V30 2366 H 229.778 -4.93922 1.18338 0
M  V30 2367 H 229.708 -5.23484 -0.572044 0
M  V30 2368 H 232.199 -3.77899 -0.00697015 0
M  V30 2369 H 232.512 -7.7038 0.611076 0
M  V30 2370 H 230.857 -6.92878 0.542628 0
M  V30 2371 H 234.048 -4.68039 0.0756209 0
M  V30 2372 H 234.221 -6.47015 0.357227 0
M  V30 2373 N 227.627 0.131896 -1.57047 0
M  V30 2374 C 228.557 1.16384 -2.02428 0
M  V30 2375 C 229.538 1.43936 -0.90644 0
M  V30 2376 O 230.723 1.54599 -1.17528 0
M  V30 2377 C 227.853 2.49328 -2.4177 0
M  V30 2378 C 226.807 2.36266 -3.56879 0
M  V30 2379 C 226.133 3.74057 -3.8208 0
M  V30 2380 C 227.433 1.834 -4.89042 0
M  V30 2381 H 229.127 0.786433 -2.88887 0
M  V30 2382 H 226.673 0.376855 -1.38981 0
M  V30 2383 H 228.626 3.21759 -2.7212 0
M  V30 2384 H 227.35 2.88934 -1.52266 0
M  V30 2385 H 226.009 1.66286 -3.26718 0
M  V30 2386 H 225.657 4.11125 -2.89803 0
M  V30 2387 H 225.357 3.66174 -4.59554 0
M  V30 2388 H 226.881 4.48012 -4.1487 0
M  V30 2389 H 228.295 2.45636 -5.18011 0
M  V30 2390 H 226.692 1.8637 -5.70426 0
M  V30 2391 H 227.762 0.790662 -4.7841 0
M  V30 2392 N 229.106 1.52395 0.401703 0
M  V30 2393 C 230.336 1.70429 1.1678 0
M  V30 2394 C 230.744 0.416702 1.84554 0
M  V30 2395 O 230.087 -0.617697 1.73003 0
M  V30 2396 C 230.149 2.78919 2.26814 0
M  V30 2397 C 229.813 4.20437 1.79113 0
M  V30 2398 C 230.81 5.04028 1.27482 0
M  V30 2399 C 228.495 4.66704 1.85722 0
M  V30 2400 C 230.489 6.31961 0.830913 0
M  V30 2401 C 228.176 5.94625 1.40942 0
M  V30 2402 C 229.174 6.77082 0.897128 0
M  V30 2403 O 228.862 8.02607 0.455822 0
M  V30 2404 H 228.594 0.574272 0.356634 0
M  V30 2405 H 231.148 1.99767 0.477724 0
M  V30 2406 H 229.378 2.44973 2.99207 0
M  V30 2407 H 231.067 2.8548 2.88541 0
M  V30 2408 H 231.833 4.69471 1.21744 0
M  V30 2409 H 227.712 4.0262 2.24539 0
M  V30 2410 H 231.256 6.96271 0.430368 0
M  V30 2411 H 227.153 6.28688 1.46362 0
M  V30 2412 H 227.921 8.16453 0.578457 0
M  V30 2413 N 230.584 -0.659388 1.43143 0
M  V30 2414 C 231.809 -1.45221 1.48073 0
M  V30 2415 C 232.234 -1.87845 0.097995 0
M  V30 2416 O 231.592 -1.56985 -0.90694 0
M  V30 2417 C 231.64 -2.66748 2.42647 0
M  V30 2418 O 230.744 -3.65583 1.90848 0
M  V30 2419 H 230.085 -0.435669 0.501088 0
M  V30 2420 H 232.615 -0.807432 1.87994 0
M  V30 2421 H 232.625 -3.14637 2.59745 0
M  V30 2422 H 231.3 -2.35067 3.43098 0
M  V30 2423 H 229.877 -3.24693 1.83381 0
M  V30 2424 N 232.062 -1.29571 -0.897171 0
M  V30 2425 C 233.292 -1.20408 -1.67886 0
M  V30 2426 C 233.7 0.237429 -1.87704 0
M  V30 2427 O 233.043 1.17048 -1.41582 0
M  V30 2428 C 233.105 -1.84887 -3.08314 0
M  V30 2429 C 232.769 -3.34189 -3.11716 0
M  V30 2430 C 233.766 -4.30374 -2.91675 0
M  V30 2431 C 231.451 -3.75431 -3.33701 0
M  V30 2432 C 233.445 -5.65776 -2.93557 0
M  V30 2433 C 231.132 -5.10955 -3.35214 0
M  V30 2434 C 232.13 -6.05938 -3.15164 0
M  V30 2435 O 231.818 -7.38987 -3.1647 0
M  V30 2436 H 231.55 -0.418289 -0.531046 0
M  V30 2437 H 234.104 -1.71514 -1.13014 0
M  V30 2438 H 232.334 -1.28295 -3.64798 0
M  V30 2439 H 234.023 -1.70011 -3.6858 0
M  V30 2440 H 234.789 -3.99844 -2.74499 0
M  V30 2441 H 230.668 -3.01953 -3.48347 0
M  V30 2442 H 234.212 -6.39889 -2.77826 0
M  V30 2443 H 230.109 -5.4113 -3.51922 0
M  V30 2444 H 230.877 -7.47823 -3.3272 0
M  V30 2445 N 233.54 1.10788 -1.12088 0
M  V30 2446 C 234.49 2.15158 -0.754401 0
M  V30 2447 C 235.474 1.59026 0.244846 0
M  V30 2448 O 236.666 1.76927 0.0509097 0
M  V30 2449 C 233.795 3.42677 -0.206657 0
M  V30 2450 C 232.881 4.05751 -1.23398 0
M  V30 2451 N 233.272 4.43582 -2.43041 0
M  V30 2452 C 231.57 4.32764 -1.07848 0
M  V30 2453 C 232.271 4.93085 -3.08613 0
M  V30 2454 N 231.247 4.89664 -2.36072 0
M  V30 2455 H 235.049 2.42195 -1.6649 0
M  V30 2456 H 232.563 1.27872 -1.00112 0
M  V30 2457 H 234.56 4.16834 0.0740646 0
M  V30 2458 H 233.22 3.17101 0.698342 0
M  V30 2459 H 234.231 4.35395 -2.80449 0
M  V30 2460 H 230.908 4.16863 -0.230483 0
M  V30 2461 H 232.298 5.31933 -4.10483 0
M  V30 2462 N 235.018 0.912232 1.28515 0
M  V30 2463 C 236.434 0.610159 1.47476 0
M  V30 2464 C 236.634 -0.844955 1.82928 0
M  V30 2465 O 235.69 -1.62416 1.93332 0
M  V30 2466 C 237.003 1.54675 2.57868 0
M  V30 2467 C 238.551 1.55331 2.71738 0
M  V30 2468 C 239.026 2.47649 3.85272 0
M  V30 2469 N 240.517 2.45767 3.92623 0
M  V30 2470 C 241.252 3.13896 4.79851 0
M  V30 2471 N 240.748 3.9135 5.71679 0
M  V30 2472 N 242.541 3.02991 4.73448 0
M  V30 2473 H 234.692 1.85318 1.03783 0
M  V30 2474 H 236.955 0.794777 0.516753 0
M  V30 2475 H 236.661 2.5841 2.38574 0
M  V30 2476 H 236.535 1.27671 3.54937 0
M  V30 2477 H 238.922 0.52335 2.90422 0
M  V30 2478 H 239.003 1.86378 1.75205 0
M  V30 2479 H 238.647 3.50745 3.67342 0
M  V30 2480 H 238.577 2.13904 4.81199 0
M  V30 2481 H 241.068 1.89503 3.26951 0
M  V30 2482 H 241.381 4.40359 6.35062 0
M  V30 2483 H 239.726 3.95455 5.71524 0
M  V30 2484 H 242.917 2.41987 4.007 0
M  V30 2485 H 243.09 3.5636 5.41213 0
M  V30 2486 N 236.496 -1.42363 0.676048 0
M  V30 2487 C 237.721 -2.06377 0.205705 0
M  V30 2488 C 238.146 -1.50463 -1.12883 0
M  V30 2489 O 237.504 -0.623619 -1.70237 0
M  V30 2490 C 237.552 -3.60277 0.152655 0
M  V30 2491 O 236.656 -4.02935 -0.87845 0
M  V30 2492 H 235.997 -0.655588 0.105359 0
M  V30 2493 H 238.527 -1.82475 0.925412 0
M  V30 2494 H 238.537 -4.07993 -0.0230675 0
M  V30 2495 H 237.212 -4.00346 1.12675 0
M  V30 2496 H 235.789 -3.66764 -0.673668 0
M  V30 2497 O 238.013 -0.561574 -1.51422 0
M  V30 2498 H 238.704 -0.0603133 -1.93606 0
M  V30 END ATOM
M  V30 BEGIN BOND
M  V30 END BOND
M  V30 END CTAB
M  END
$$$$
