drugbank_target|Q9ZEU2 Amylosucrase (DB02379; DB02772; DB04447)
 OpenBabel12092120253D

  0  0  0     0  0            999 V3000
M  V30 BEGIN CTAB
M  V30 COUNTS 10018 10156 0 0 0
M  V30 BEGIN ATOM
M  V30 1 H -0.908 1.98254 -0.117106 0
M  V30 2 N 0 1.576 0 0
M  V30 3 C 0.933 2.03868 1.02534 0
M  V30 4 C 1.911 0.928543 1.3348 0
M  V30 5 O 3.095 1.19667 1.45644 0
M  V30 6 C 0.222 2.43627 2.35294 0
M  V30 7 C -0.732 3.65373 2.2001 0
M  V30 8 S 0.101 5.13292 1.52614 0
M  V30 9 C 1.257 5.56322 2.86805 0
M  V30 10 H 1.49 2.90518 0.631377 0
M  V30 11 H -0.977 1.52953 0.210867 0
M  V30 12 H 0.981 2.67203 3.11629 0
M  V30 13 H -0.358 1.57376 2.7183 0
M  V30 14 H -1.165 3.90944 3.18086 0
M  V30 15 H -1.563 3.418 1.51819 0
M  V30 16 H 0.729 5.58782 3.83104 0
M  V30 17 H 1.672 6.56266 2.65933 0
M  V30 18 H 2.08 4.83886 2.90714 0
M  V30 19 N 1.4781 -0.272755 1.55222 0
M  V30 20 C 2.4081 -1.34136 1.91127 0
M  V30 21 C 3.3891 -1.51513 0.773168 0
M  V30 22 O 4.5741 -1.64552 1.03132 0
M  V30 23 C 1.7041 -2.70083 2.1834 0
M  V30 24 C 0.6581 -2.67437 3.34158 0
M  V30 25 C -0.0159 -4.06938 3.46851 0
M  V30 26 C 1.2841 -2.26686 4.70543 0
M  V30 27 H 2.9781 -1.04333 2.80633 0
M  V30 28 H 0.5241 -0.500454 1.35024 0
M  V30 29 H 2.4771 -3.44952 2.42046 0
M  V30 30 H 1.2011 -3.01469 1.25634 0
M  V30 31 H -0.1399 -1.95026 3.1042 0
M  V30 32 H -0.4919 -4.35547 2.51611 0
M  V30 33 H -0.7919 -4.06062 4.2472 0
M  V30 34 H 0.7321 -4.83545 3.72849 0
M  V30 35 H 2.1461 -2.91277 4.93792 0
M  V30 36 H 0.5431 -2.36971 5.5133 0
M  V30 37 H 1.6131 -1.21818 4.69349 0
M  V30 38 N 2.9562 -1.48159 -0.537278 0
M  V30 39 C 4.1842 -1.59454 -1.31841 0
M  V30 40 C 4.5992 -0.252065 -1.8711 0
M  V30 41 O 3.9562 0.757621 -1.66031 0
M  V30 42 C 4.0072 -2.63546 -2.47439 0
M  V30 43 O 3.7282 -3.92583 -1.94449 0
M  V30 44 C 5.2292 -2.85212 -3.39366 0
M  V30 45 H 2.4492 -0.53785 -0.401196 0
M  V30 46 H 4.9932 -1.93932 -0.648891 0
M  V30 47 H 3.1482 -2.31946 -3.1029 0
M  V30 48 H 3.5622 -4.49629 -2.70063 0
M  V30 49 H 5.0362 -3.61863 -4.16844 0
M  V30 50 H 5.5132 -1.93765 -3.94147 0
M  V30 51 H 6.1192 -3.18086 -2.82314 0
M  V30 52 N 4.4343 0.785586 -1.36625 0
M  V30 53 C 5.8453 1.36101 -1.27803 0
M  V30 54 C 6.1963 1.96035 0.0804875 0
M  V30 55 O 5.3213 1.92834 0.982042 0
M  V30 56 C 5.9163 2.47442 -2.31426 0
M  V30 57 C 4.4753 3.00789 -2.26281 0
M  V30 58 C 3.6223 1.73896 -2.15999 0
M  V30 59 H 6.5733 0.586928 -1.47448 0
M  V30 60 H 6.5943 3.2656 -1.95291 0
M  V30 61 H 6.1063 2.03791 -3.30289 0
M  V30 62 H 4.2073 3.48851 -1.30896 0
M  V30 63 H 4.3203 3.57343 -3.19128 0
M  V30 64 H 2.6843 1.9628 -1.62316 0
M  V30 65 H 3.4673 1.32368 -3.16755 0
M  V30 66 N 5.9124 1.20967 1.01018 0
M  V30 67 C 7.1404 1.04956 1.78303 0
M  V30 68 C 7.5554 -0.400915 1.84494 0
M  V30 69 O 6.9124 -1.27826 1.30257 0
M  V30 70 C 6.9634 1.63403 3.22462 0
M  V30 71 O 6.6844 3.02775 3.16637 0
M  V30 72 C 8.1854 1.52432 4.16268 0
M  V30 73 H 5.4054 0.368858 0.560522 0
M  V30 74 H 7.9494 1.60193 1.27116 0
M  V30 75 H 6.1044 1.1227 3.70775 0
M  V30 76 H 6.5184 3.30626 4.07169 0
M  V30 77 H 7.9924 1.98078 5.15237 0
M  V30 78 H 8.4694 0.477875 4.36592 0
M  V30 79 H 9.0754 2.02787 3.73841 0
M  V30 80 N 7.3905 -1.2043 1.01659 0
M  V30 81 C 8.3225 -2.22626 0.544988 0
M  V30 82 C 9.3355 -1.58479 -0.372609 0
M  V30 83 O 10.5245 -1.77679 -0.170958 0
M  V30 84 C 7.6245 -3.38141 -0.22663 0
M  V30 85 C 6.7975 -4.31877 0.692876 0
M  V30 86 C 5.8565 -5.26191 -0.0311616 0
M  V30 87 O 4.8825 -5.6612 0.591343 0
M  V30 88 N 6.0845 -5.65618 -1.30601 0
M  V30 89 H 8.8495 -2.63716 1.42388 0
M  V30 90 H 6.4105 -1.34971 0.894116 0
M  V30 91 H 8.4025 -3.98239 -0.72024 0
M  V30 92 H 6.9725 -2.95943 -1.00681 0
M  V30 93 H 6.1925 -3.69746 1.36679 0
M  V30 94 H 7.4805 -4.91426 1.31824 0
M  V30 95 H 6.8785 -5.3519 -1.83269 0
M  V30 96 H 5.4355 -6.28025 -1.74435 0
M  V30 97 N 8.8686 -0.792821 -1.36206 0
M  V30 98 C 9.8006 -0.151469 -2.28699 0
M  V30 99 C 10.8136 0.641262 -1.49638 0
M  V30 100 O 12.0026 0.475885 -1.72039 0
M  V30 101 C 9.1026 0.808424 -3.29117 0
M  V30 102 C 8.2756 0.0650202 -4.37352 0
M  V30 103 C 7.3346 0.941358 -5.17711 0
M  V30 104 O 6.3606 0.397352 -5.67811 0
M  V30 105 N 7.5626 2.2652 -5.3448 0
M  V30 106 H 10.3276 -0.945982 -2.84379 0
M  V30 107 H 7.8886 -0.647032 -1.48409 0
M  V30 108 H 9.8806 1.3986 -3.79765 0
M  V30 109 H 8.4506 1.5038 -2.74052 0
M  V30 110 H 7.6706 -0.706255 -3.87822 0
M  V30 111 H 8.9586 -0.447847 -5.06825 0
M  V30 112 H 8.3566 2.73128 -4.95396 0
M  V30 113 H 6.9136 2.80493 -5.88359 0
M  V30 114 N 10.3467 1.47872 -0.545128 0
M  V30 115 C 11.5927 2.02793 -0.0166104 0
M  V30 116 C 11.9257 1.41987 1.32489 0
M  V30 117 O 11.2007 0.571045 1.85928 0
M  V30 118 C 11.4837 3.59989 0.0893294 0
M  V30 119 C 11.3367 4.3125 -1.27841 0
M  V30 120 C 12.6557 4.32606 0.808724 0
M  V30 121 H 9.7747 0.736962 -0.00751035 0
M  V30 122 H 12.4167 1.76433 -0.705085 0
M  V30 123 H 10.5667 3.82579 0.675681 0
M  V30 124 H 12.2387 4.20035 -1.90704 0
M  V30 125 H 10.4817 3.92076 -1.85632 0
M  V30 126 H 11.1527 5.39736 -1.15713 0
M  V30 127 H 13.6287 4.14936 0.310992 0
M  V30 128 H 12.5047 5.42251 0.851782 0
M  V30 129 H 12.7657 4.00963 1.86229 0
M  V30 130 N 11.8248 0.280983 1.55075 0
M  V30 131 C 13.0728 -0.333455 1.9933 0
M  V30 132 C 13.3938 -1.55937 1.17085 0
M  V30 133 O 12.6638 -1.94143 0.261805 0
M  V30 134 H 11.2438 -0.126197 0.736263 0
M  V30 135 H 13.9058 0.387678 1.91005 0
M  V30 136 H 13.0018 -0.619292 3.05894 0
M  V30 137 N 13.3029 -1.57598 0.00835791 0
M  V30 138 C 14.2329 -2.1198 -0.979113 0
M  V30 139 C 15.2139 -1.03091 -1.35301 0
M  V30 140 O 16.3989 -1.30818 -1.43528 0
M  V30 141 C 13.5289 -2.62995 -2.26828 0
M  V30 142 C 12.4829 -3.76485 -2.03576 0
M  V30 143 C 11.8089 -4.13846 -3.38579 0
M  V30 144 C 13.1089 -5.0342 -1.39161 0
M  V30 145 H 14.8029 -2.94738 -0.526281 0
M  V30 146 H 12.3489 -1.41783 -0.251704 0
M  V30 147 H 14.3019 -2.99669 -2.96271 0
M  V30 148 H 13.0259 -1.7737 -2.7424 0
M  V30 149 H 11.6849 -3.40217 -1.36557 0
M  V30 150 H 11.3329 -3.25232 -3.83709 0
M  V30 151 H 11.0329 -4.90312 -3.23834 0
M  V30 152 H 12.5569 -4.53086 -4.09323 0
M  V30 153 H 13.9709 -5.37812 -1.98573 0
M  V30 154 H 12.3679 -5.84746 -1.34878 0
M  V30 155 H 13.4379 -4.83548 -0.361868 0
M  V30 156 N 14.781 0.264519 -1.55364 0
M  V30 157 C 16.03 0.992812 -1.75574 0
M  V30 158 C 16.343 1.87142 -0.568979 0
M  V30 159 O 17.549 2.63513 -0.653682 0
M  V30 160 C 16.005 1.81519 -3.10771 0
M  V30 161 C 15.613 0.984839 -4.37041 0
M  V30 162 C 17.357 2.53727 -3.40327 0
M  V30 163 C 15.264 1.80209 -5.63275 0
M  V30 164 H 14.194 0.374412 -0.65447 0
M  V30 165 H 16.845 0.248138 -1.81815 0
M  V30 166 H 15.227 2.60115 -2.98591 0
M  V30 167 H 16.401 0.242455 -4.60162 0
M  V30 168 H 14.716 0.37691 -4.14691 0
M  V30 169 H 17.313 3.15292 -4.3185 0
M  V30 170 H 17.656 3.24447 -2.60845 0
M  V30 171 H 18.189 1.82156 -3.53644 0
M  V30 172 H 14.928 1.13896 -6.45529 0
M  V30 173 H 14.448 2.52022 -5.44284 0
M  V30 174 H 16.127 2.37364 -6.01887 0
M  V30 175 N 16.2591 1.48442 0.529413 0
M  V30 176 C 17.1891 1.65902 1.64313 0
M  V30 177 C 18.1701 0.507897 1.6234 0
M  V30 178 O 19.3551 0.740503 1.79528 0
M  V30 179 C 16.4851 1.69911 3.02898 0
M  V30 180 C 15.4391 2.8453 3.19729 0
M  V30 181 C 14.7651 2.73629 4.59381 0
M  V30 182 C 16.0651 4.25821 3.02447 0
M  V30 183 H 17.7591 2.5914 1.49955 0
M  V30 184 H 15.3051 1.24709 0.719982 0
M  V30 185 H 17.2581 1.80715 3.80684 0
M  V30 186 H 15.9821 0.732524 3.18279 0
M  V30 187 H 14.6411 2.73283 2.44361 0
M  V30 188 H 14.2891 1.74938 4.71599 0
M  V30 189 H 13.9891 3.50541 4.71588 0
M  V30 190 H 15.5131 2.86401 5.39265 0
M  V30 191 H 16.9271 4.37898 3.70024 0
M  V30 192 H 15.3241 5.03735 3.26146 0
M  V30 193 H 16.3941 4.42244 1.98867 0
M  V30 194 N 17.7372 -0.778329 1.37039 0
M  V30 195 C 18.6692 -1.90034 1.2814 0
M  V30 196 C 19.6822 -1.61585 0.198558 0
M  V30 197 O 20.8712 -1.72625 0.454175 0
M  V30 198 C 17.9712 -3.25108 0.956968 0
M  V30 199 C 17.1442 -3.81253 2.14394 0
M  V30 200 C 16.2032 -4.94789 1.79082 0
M  V30 201 O 15.2292 -5.10721 2.51301 0
M  V30 202 N 16.4312 -5.75878 0.731043 0
M  V30 203 H 19.1962 -1.98186 2.24816 0
M  V30 204 H 16.7572 -0.957129 1.30578 0
M  V30 205 H 18.7492 -3.9857 0.701701 0
M  V30 206 H 17.3192 -3.125 0.0789812 0
M  V30 207 H 16.5392 -2.99647 2.56135 0
M  V30 208 H 17.8272 -4.15495 2.93668 0
M  V30 209 H 17.2252 -5.65547 0.131618 0
M  V30 210 H 15.7822 -6.49596 0.535622 0
M  V30 211 N 19.2153 -1.21501 -1.00376 0
M  V30 212 C 20.4453 -1.05746 -1.77486 0
M  V30 213 C 20.8533 0.395655 -1.85017 0
M  V30 214 O 20.1963 1.28626 -1.31152 0
M  V30 215 C 20.2583 -1.58092 -3.22873 0
M  V30 216 C 19.9223 -3.06568 -3.38917 0
M  V30 217 C 20.9193 -4.04106 -3.271 0
M  V30 218 C 18.6043 -3.45799 -3.64319 0
M  V30 219 C 20.5983 -5.38862 -3.40451 0
M  V30 220 C 18.2853 -4.80707 -3.77311 0
M  V30 221 C 19.2833 -5.77047 -3.65384 0
M  V30 222 O 18.9713 -7.09507 -3.77961 0
M  V30 223 H 18.7033 -0.371778 -0.564586 0
M  V30 224 H 21.2573 -1.61319 -1.27143 0
M  V30 225 H 19.4873 -0.969163 -3.74358 0
M  V30 226 H 21.1763 -1.38162 -3.81662 0
M  V30 227 H 21.9423 -3.75141 -3.07399 0
M  V30 228 H 17.8213 -2.71344 -3.72684 0
M  V30 229 H 21.3653 -6.14041 -3.31058 0
M  V30 230 H 17.2623 -5.09357 -3.96517 0
M  V30 231 H 18.0303 -7.16935 -3.94901 0
M  V30 232 N 20.6934 1.19889 -1.02296 0
M  V30 233 C 21.6234 2.25141 -0.619174 0
M  V30 234 C 22.6044 1.66051 0.368915 0
M  V30 235 O 23.7894 1.92546 0.252941 0
M  V30 236 C 20.9194 3.4728 0.0368783 0
M  V30 237 C 19.8734 4.19005 -0.872865 0
M  V30 238 C 19.1994 5.34637 -0.0822402 0
M  V30 239 C 20.4994 4.74452 -2.18387 0
M  V30 240 H 22.1934 2.59171 -1.49903 0
M  V30 241 H 19.7394 1.24579 -0.722222 0
M  V30 242 H 21.6924 4.20098 0.330958 0
M  V30 243 H 20.4164 3.12433 0.95149 0
M  V30 244 H 19.0754 3.48061 -1.15105 0
M  V30 245 H 18.7234 4.96034 0.83422 0
M  V30 246 H 18.4234 5.83557 -0.688149 0
M  V30 247 H 19.9474 6.10255 0.205238 0
M  V30 248 H 21.3614 5.39055 -1.95172 0
M  V30 249 H 19.7584 5.33834 -2.74119 0
M  V30 250 H 20.8284 3.92844 -2.84257 0
M  V30 251 N 22.1715 0.800033 1.35784 0
M  V30 252 C 23.1185 0.203848 2.29898 0
M  V30 253 C 24.0885 -0.658375 1.52495 0
M  V30 254 O 25.2735 -0.604832 1.8096 0
M  V30 255 C 22.4135 -0.64688 3.38983 0
M  V30 256 C 21.5265 0.235054 4.3136 0
M  V30 257 C 20.6615 -0.623054 5.27533 0
M  V30 258 C 19.7005 0.259682 6.11549 0
M  V30 259 N 18.8375 -0.558019 6.99879 0
M  V30 260 H 23.6775 1.01186 2.80295 0
M  V30 261 H 21.2145 0.51053 1.37957 0
M  V30 262 H 23.1725 -1.15521 4.00887 0
M  V30 263 H 21.8025 -1.42021 2.89879 0
M  V30 264 H 20.8545 0.861438 3.70518 0
M  V30 265 H 22.1665 0.914768 4.9034 0
M  V30 266 H 21.3205 -1.19678 5.94779 0
M  V30 267 H 20.0595 -1.33636 4.69034 0
M  V30 268 H 19.0645 0.845726 5.43256 0
M  V30 269 H 20.2895 0.970748 6.72126 0
M  V30 270 H 18.2355 -1.25542 6.43875 0
M  V30 271 H 18.1525 0.0637872 7.55973 0
M  V30 272 H 19.4205 -1.11523 7.71481 0
M  V30 273 N 23.6496 -1.47581 0.552962 0
M  V30 274 C 24.8776 -2.06875 0.0320556 0
M  V30 275 C 25.2926 -1.40625 -1.25976 0
M  V30 276 O 24.6496 -0.501349 -1.75479 0
M  V30 277 C 24.7006 -3.61092 -0.17167 0
M  V30 278 O 24.4216 -4.24858 1.06899 0
M  V30 279 C 25.9226 -4.37242 -0.730344 0
M  V30 280 H 23.1426 -0.669561 0.043915 0
M  V30 281 H 25.6866 -1.89646 0.765163 0
M  V30 282 H 23.8416 -3.7785 -0.854894 0
M  V30 283 H 24.2556 -5.17334 0.864059 0
M  V30 284 H 25.7296 -5.45842 -0.822203 0
M  V30 285 H 26.2066 -4.03235 -1.74064 0
M  V30 286 H 26.8126 -4.25219 -0.0829543 0
M  V30 287 N 25.1277 -0.289203 -1.54924 0
M  V30 288 C 26.5437 0.0645403 -1.59469 0
M  V30 289 C 26.7437 1.53419 -1.30632 0
M  V30 290 O 25.7997 2.2852 -1.074 0
M  V30 291 C 27.1127 -0.32278 -2.98963 0
M  V30 292 C 28.6607 -0.270564 -3.11828 0
M  V30 293 C 29.1357 -0.632532 -4.53611 0
M  V30 294 N 30.6267 -0.584617 -4.59496 0
M  V30 295 C 31.3617 -0.837314 -5.67254 0
M  V30 296 N 30.8577 -1.15536 -6.83098 0
M  V30 297 N 32.6507 -0.765166 -5.56868 0
M  V30 298 H 24.8017 -1.24714 -1.71931 0
M  V30 299 H 27.0647 -0.504809 -0.802416 0
M  V30 300 H 26.7707 -1.34541 -3.24948 0
M  V30 301 H 26.6447 0.32944 -3.75759 0
M  V30 302 H 29.0317 0.742805 -2.85598 0
M  V30 303 H 29.1127 -0.957242 -2.37214 0
M  V30 304 H 28.7567 -1.64365 -4.80569 0
M  V30 305 H 28.6867 0.07609 -5.26545 0
M  V30 306 H 31.1777 -0.349248 -3.76283 0
M  V30 307 H 31.4907 -1.33447 -7.61191 0
M  V30 308 H 29.8357 -1.19328 -6.84679 0
M  V30 309 H 33.0267 -0.516432 -4.65243 0
M  V30 310 H 33.1997 -0.965477 -6.40767 0
M  V30 311 N 26.6058 1.57591 -0.0167156 0
M  V30 312 C 27.8548 1.90461 0.663877 0
M  V30 313 C 28.1678 0.893515 1.73999 0
M  V30 314 O 29.3738 1.11302 2.47637 0
M  V30 315 C 27.8298 3.38155 1.23204 0
M  V30 316 C 27.4378 4.47597 0.189866 0
M  V30 317 C 29.1818 3.80111 1.88986 0
M  V30 318 C 27.0888 5.86379 0.768964 0
M  V30 319 H 26.0188 0.710738 0.251729 0
M  V30 320 H 28.6698 1.83326 -0.0799926 0
M  V30 321 H 27.0518 3.40182 2.02712 0
M  V30 322 H 28.2258 4.57112 -0.581846 0
M  V30 323 H 26.5408 4.14766 -0.368475 0
M  V30 324 H 29.1378 4.81145 2.33247 0
M  V30 325 H 29.4808 3.14511 2.72743 0
M  V30 326 H 30.0138 3.80454 1.16187 0
M  V30 327 H 26.7528 6.55493 -0.0301957 0
M  V30 328 H 26.2728 5.80496 1.50945 0
M  V30 329 H 27.9518 6.34563 1.26251 0
M  V30 330 N 28.0839 -0.256276 1.55502 0
M  V30 331 C 29.0139 -1.32102 1.92539 0
M  V30 332 C 29.9949 -1.50684 0.789194 0
M  V30 333 O 31.1799 -1.63449 1.04872 0
M  V30 334 C 28.3099 -2.67752 2.21192 0
M  V30 335 C 27.2639 -2.63878 3.36975 0
M  V30 336 C 26.5899 -4.03236 3.51147 0
M  V30 337 C 27.8899 -2.21682 4.72921 0
M  V30 338 H 29.5839 -1.01351 2.81724 0
M  V30 339 H 27.1299 -0.486105 1.35547 0
M  V30 340 H 29.0829 -3.42365 2.45691 0
M  V30 341 H 27.8069 -3.0012 1.28824 0
M  V30 342 H 26.4659 -1.91722 3.12471 0
M  V30 343 H 26.1139 -4.32854 2.56216 0
M  V30 344 H 25.8139 -4.01535 4.29003 0
M  V30 345 H 27.3379 -4.79563 3.77957 0
M  V30 346 H 28.7519 -2.86023 4.96854 0
M  V30 347 H 27.1489 -2.3111 5.53812 0
M  V30 348 H 28.2189 -1.16833 4.70615 0
M  V30 349 N 29.562 -1.4872 -0.521534 0
M  V30 350 C 30.839 -1.4766 -1.2828 0
M  V30 351 C 31.219 -0.19292 -2.10217 0
M  V30 352 O 30.567 0.825193 -2.13079 0
M  V30 353 C 30.777 -2.74358 -2.15705 0
M  V30 354 C 32.125 -3.23028 -2.75569 0
M  V30 355 O 33.149 -2.75333 -2.25987 0
M  V30 356 O 32.008 -4.0604 -3.65778 0
M  V30 357 H 29.102 -0.590085 -0.579421 0
M  V30 358 H 31.648 -1.60963 -0.537492 0
M  V30 359 H 30.42 -3.59292 -1.54999 0
M  V30 360 H 30.043 -2.63816 -2.97467 0
M  V30 361 N 31.0401 0.771051 -1.3745 0
M  V30 362 C 32.2891 1.52491 -1.3202 0
M  V30 363 C 32.6021 1.9538 0.0927347 0
M  V30 364 O 33.8081 2.70159 0.269503 0
M  V30 365 C 32.2641 2.75366 -2.31736 0
M  V30 366 C 31.8721 2.39573 -3.78562 0
M  V30 367 C 33.6161 3.53307 -2.35318 0
M  V30 368 C 31.5231 3.58954 -4.70007 0
M  V30 369 H 30.4531 0.572506 -0.490666 0
M  V30 370 H 33.1041 0.844474 -1.62914 0
M  V30 371 H 31.4861 3.45303 -1.93861 0
M  V30 372 H 32.6601 1.77415 -4.25277 0
M  V30 373 H 30.9751 1.74805 -3.77932 0
M  V30 374 H 33.5721 4.42039 -3.00842 0
M  V30 375 H 33.9151 3.93217 -1.36698 0
M  V30 376 H 34.4481 2.90367 -2.71904 0
M  V30 377 H 31.1871 3.24125 -5.69757 0
M  V30 378 H 30.7071 4.20214 -4.27996 0
M  V30 379 H 32.3861 4.25758 -4.87175 0
M  V30 380 N 32.5182 1.22032 0.997298 0
M  V30 381 C 33.7482 1.06686 1.76923 0
M  V30 382 C 34.1562 -0.385838 1.85224 0
M  V30 383 O 33.4992 -1.27929 1.31833 0
M  V30 384 C 33.5612 1.59802 3.22031 0
M  V30 385 C 33.2252 3.08362 3.37286 0
M  V30 386 C 34.2222 4.05835 3.24952 0
M  V30 387 C 31.9072 3.47727 3.6248 0
M  V30 388 C 33.9012 5.4066 3.37588 0
M  V30 389 C 31.5882 4.82701 3.74757 0
M  V30 390 C 32.5862 5.78977 3.62319 0
M  V30 391 O 32.2742 7.11502 3.74193 0
M  V30 392 H 32.0062 0.374767 0.562606 0
M  V30 393 H 34.5602 1.61991 1.26286 0
M  V30 394 H 32.7902 0.989003 3.73839 0
M  V30 395 H 34.4792 1.40184 3.80924 0
M  V30 396 H 35.2452 3.76766 3.05405 0
M  V30 397 H 31.1242 2.73317 3.7124 0
M  V30 398 H 34.6682 6.15788 3.27796 0
M  V30 399 H 30.5652 5.11453 3.9381 0
M  V30 400 H 31.3332 7.19019 3.91093 0
M  V30 401 N 33.9963 -1.19345 1.0293 0
M  V30 402 C 35.2243 -1.92997 0.745644 0
M  V30 403 C 35.6393 -1.75519 -0.695589 0
M  V30 404 O 34.9963 -1.07737 -1.47306 0
M  V30 405 C 35.0473 -3.44741 1.08792 0
M  V30 406 O 34.7683 -3.61658 2.47256 0
M  V30 407 C 36.2693 -4.35515 0.827129 0
M  V30 408 H 33.4893 -0.613042 0.272801 0
M  V30 409 H 36.0333 -1.51473 1.3739 0
M  V30 410 H 34.1883 -3.84097 0.504832 0
M  V30 411 H 34.6023 -4.55514 2.60015 0
M  V30 412 H 36.0763 -5.40589 1.11658 0
M  V30 413 H 36.5533 -4.38552 -0.238436 0
M  V30 414 H 37.1593 -4.01841 1.39297 0
M  V30 415 N 35.4744 -0.807222 -1.35358 0
M  V30 416 C 36.8854 -0.44876 -1.81226 0
M  V30 417 C 37.2364 1.02929 -1.67033 0
M  V30 418 O 36.3614 1.79991 -1.20133 0
M  V30 419 C 36.9564 -0.807774 -3.2903 0
M  V30 420 C 35.5154 -0.501901 -3.73039 0
M  V30 421 C 34.6624 -1.03304 -2.57339 0
M  V30 422 H 37.6134 -0.998808 -1.23327 0
M  V30 423 H 37.6344 -0.10554 -3.80354 0
M  V30 424 H 37.1464 -1.88357 -3.39328 0
M  V30 425 H 35.2474 0.565128 -3.68289 0
M  V30 426 H 35.3604 -1.03497 -4.67787 0
M  V30 427 H 33.7244 -0.455339 -2.50597 0
M  V30 428 H 34.5074 -2.11496 -2.70415 0
M  V30 429 N 36.9525 1.47285 -0.560781 0
M  V30 430 C 37.8625 2.33846 0.187954 0
M  V30 431 C 38.8785 1.48412 0.908293 0
M  V30 432 O 40.0545 1.81332 0.876388 0
M  V30 433 C 37.1195 3.25178 1.2025 0
M  V30 434 C 36.1805 4.26504 0.489208 0
M  V30 435 C 35.4135 5.13472 1.45542 0
M  V30 436 O 35.6365 5.02959 2.6905 0
M  V30 437 O 34.5705 5.93902 0.977963 0
M  V30 438 H 38.3965 2.99177 -0.522177 0
M  V30 439 H 35.9815 1.45903 -0.321364 0
M  V30 440 H 37.8635 3.81584 1.78805 0
M  V30 441 H 36.5385 2.6247 1.89449 0
M  V30 442 H 35.4455 3.73847 -0.137627 0
M  V30 443 H 36.7785 4.91935 -0.161399 0
M  V30 444 N 38.4306 0.297415 1.54768 0
M  V30 445 C 39.3626 -0.613881 2.20826 0
M  V30 446 C 40.3756 -1.10032 1.19987 0
M  V30 447 O 41.5646 -1.01839 1.46598 0
M  V30 448 C 38.6646 -1.852 2.83821 0
M  V30 449 C 37.8376 -1.50865 4.10559 0
M  V30 450 C 36.8966 -2.60154 4.57391 0
M  V30 451 O 35.9226 -2.25398 5.2267 0
M  V30 452 N 37.1246 -3.90629 4.29406 0
M  V30 453 H 39.8896 -0.048389 2.99661 0
M  V30 454 H 37.4506 0.11946 1.61459 0
M  V30 455 H 39.4426 -2.57652 3.12086 0
M  V30 456 H 38.0126 -2.32597 2.08847 0
M  V30 457 H 37.2326 -0.616925 3.89343 0
M  V30 458 H 38.5206 -1.25458 4.9309 0
M  V30 459 H 37.9186 -4.21677 3.77101 0
M  V30 460 H 36.4756 -4.59391 4.62388 0
M  V30 461 N 39.9087 -1.5758 0.0250728 0
M  V30 462 C 41.3247 -1.56124 -0.331282 0
M  V30 463 C 41.5247 -1.03029 -1.73169 0
M  V30 464 O 40.5807 -0.675215 -2.43305 0
M  V30 465 C 41.8937 -3.00139 -0.183584 0
M  V30 466 C 43.4417 -3.11946 -0.256654 0
M  V30 467 C 43.9167 -4.57793 -0.137792 0
M  V30 468 N 45.4077 -4.6279 -0.194904 0
M  V30 469 C 46.1427 -5.7326 -0.126655 0
M  V30 470 N 45.6387 -6.928 -0.00755288 0
M  V30 471 N 47.4317 -5.61811 -0.180348 0
M  V30 472 H 39.5827 -1.90424 0.94087 0
M  V30 473 H 41.8457 -0.875761 0.362968 0
M  V30 474 H 41.5517 -3.4292 0.780927 0
M  V30 475 H 41.4257 -3.64899 -0.955448 0
M  V30 476 H 43.8127 -2.69079 -1.21162 0
M  V30 477 H 43.8937 -2.49915 0.545517 0
M  V30 478 H 43.5377 -5.01339 0.813739 0
M  V30 479 H 43.4677 -5.17798 -0.958775 0
M  V30 480 H 45.9587 -3.76807 -0.287267 0
M  V30 481 H 46.2717 -7.72791 0.0379428 0
M  V30 482 H 44.6167 -6.94995 0.0271731 0
M  V30 483 H 47.8077 -4.6731 -0.271767 0
M  V30 484 H 47.9807 -6.47882 -0.123697 0
M  V30 485 N 41.3868 0.248026 -1.55636 0
M  V30 486 C 42.3498 1.29044 -1.89421 0
M  V30 487 C 43.3498 1.41134 -0.770581 0
M  V30 488 O 44.5398 1.39854 -1.03858 0
M  V30 489 C 41.6718 2.66831 -2.12165 0
M  V30 490 H 42.8648 1.00305 -2.82629 0
M  V30 491 H 40.4178 0.487265 -1.48511 0
M  V30 492 H 41.1528 3.00711 -1.21422 0
M  V30 493 H 40.9378 2.59438 -2.93997 0
M  V30 494 H 42.4278 3.42103 -2.3949 0
M  V30 495 N 42.8649 1.48995 0.513639 0
M  V30 496 C 44.1129 1.57531 1.26604 0
M  V30 497 C 44.4339 0.258236 1.93283 0
M  V30 498 O 43.7039 -0.721502 1.8213 0
M  V30 499 H 42.2839 0.580387 0.470276 0
M  V30 500 H 44.9459 1.85552 0.596373 0
M  V30 501 H 44.0419 2.36486 2.03669 0
M  V30 502 N 44.343 -0.763751 1.37857 0
M  V30 503 C 45.592 -1.51789 1.32827 0
M  V30 504 C 45.905 -1.95426 -0.0823719 0
M  V30 505 O 47.111 -2.70298 -0.255172 0
M  V30 506 C 45.567 -2.74133 2.33193 0
M  V30 507 C 45.175 -2.37562 3.79827 0
M  V30 508 C 46.919 -3.52054 2.37188 0
M  V30 509 C 44.826 -3.56456 4.71904 0
M  V30 510 H 43.756 -0.569896 0.493695 0
M  V30 511 H 46.407 -0.835822 1.63359 0
M  V30 512 H 44.789 -3.4427 1.9569 0
M  V30 513 H 45.963 -1.75157 4.26212 0
M  V30 514 H 44.278 -1.72798 3.78853 0
M  V30 515 H 46.875 -4.40437 3.03182 0
M  V30 516 H 47.218 -3.92486 1.38782 0
M  V30 517 H 47.751 -2.88921 2.7344 0
M  V30 518 H 44.49 -3.21099 5.71468 0
M  V30 519 H 44.01 -4.17938 4.30218 0
M  V30 520 H 45.689 -4.23168 4.89426 0
M  V30 521 N 45.8211 -1.22559 -0.990812 0
M  V30 522 C 46.7311 -1.01394 -2.11557 0
M  V30 523 C 47.7471 0.0383962 -1.73958 0
M  V30 524 O 48.9231 -0.154787 -2.00804 0
M  V30 525 C 45.9881 -0.596569 -3.41529 0
M  V30 526 C 45.0491 -1.72276 -3.93217 0
M  V30 527 C 44.2821 -1.32521 -5.16985 0
M  V30 528 O 44.5051 -0.204909 -5.70032 0
M  V30 529 O 43.4391 -2.14247 -5.62478 0
M  V30 530 H 47.2651 -1.95633 -2.32296 0
M  V30 531 H 44.8501 -1.01172 -1.0993 0
M  V30 532 H 46.7321 -0.374263 -4.19735 0
M  V30 533 H 45.4071 0.316939 -3.22145 0
M  V30 534 H 44.3141 -1.99961 -3.16174 0
M  V30 535 H 45.6471 -2.61421 -4.17037 0
M  V30 536 N 47.2992 1.18797 -1.03562 0
M  V30 537 C 48.2462 2.22253 -0.622259 0
M  V30 538 C 49.2162 1.61987 0.36736 0
M  V30 539 O 50.4012 1.88986 0.262492 0
M  V30 540 C 47.5412 3.45097 0.0138462 0
M  V30 541 C 46.6542 4.19722 -1.02263 0
M  V30 542 C 45.7892 5.30009 -0.355573 0
M  V30 543 C 44.8282 5.96399 -1.37749 0
M  V30 544 N 43.9652 6.98234 -0.735766 0
M  V30 545 H 48.8052 2.56968 -1.50903 0
M  V30 546 H 46.3422 1.26245 -0.755017 0
M  V30 547 H 48.3002 4.15279 0.399948 0
M  V30 548 H 46.9302 3.11018 0.864158 0
M  V30 549 H 45.9822 3.48418 -1.52673 0
M  V30 550 H 47.2942 4.65227 -1.79903 0
M  V30 551 H 46.4482 6.0664 0.0850095 0
M  V30 552 H 45.1872 4.85592 0.452967 0
M  V30 553 H 44.1922 5.18512 -1.82826 0
M  V30 554 H 45.4172 6.42899 -2.18764 0
M  V30 555 H 43.3632 6.55979 0.0525597 0
M  V30 556 H 43.2802 7.41965 -1.44995 0
M  V30 557 H 44.5482 7.78845 -0.31941 0
M  V30 558 N 48.7773 0.814389 1.34928 0
M  V30 559 C 50.0023 0.410097 2.03305 0
M  V30 560 C 50.4273 -0.973464 1.60951 0
M  V30 561 O 49.7853 -1.63185 0.789964 0
M  V30 562 C 49.8333 0.51049 3.56968 0
M  V30 563 O 48.9373 -0.473035 4.09678 0
M  V30 564 H 48.2783 0.170088 0.641846 0
M  V30 565 H 50.8083 1.10244 1.72358 0
M  V30 566 H 50.8183 0.383135 4.06197 0
M  V30 567 H 49.4933 1.51963 3.87144 0
M  V30 568 H 48.0703 -0.305272 3.71648 0
M  V30 569 N 50.2554 -1.46986 0.568584 0
M  V30 570 C 51.1654 -2.33942 -0.17555 0
M  V30 571 C 52.1814 -1.48891 -0.90041 0
M  V30 572 O 53.3574 -1.81794 -0.86676 0
M  V30 573 C 50.4224 -3.25811 -1.18524 0
M  V30 574 C 49.4834 -4.26757 -0.466582 0
M  V30 575 C 48.7164 -5.14236 -1.42817 0
M  V30 576 O 48.9394 -5.04379 -2.66379 0
M  V30 577 O 47.8734 -5.94412 -0.946453 0
M  V30 578 H 51.6994 -2.98896 0.538036 0
M  V30 579 H 49.2844 -1.4573 0.329097 0
M  V30 580 H 51.1664 -3.82527 -1.76779 0
M  V30 581 H 49.8414 -2.63471 -1.88055 0
M  V30 582 H 48.7484 -3.73769 0.157451 0
M  V30 583 H 50.0814 -4.91843 0.187485 0
M  V30 584 N 51.7335 -0.305618 -1.54608 0
M  V30 585 C 53.0105 0.355652 -1.92339 0
M  V30 586 C 53.3905 1.71324 -1.23335 0
M  V30 587 O 52.7385 2.25473 -0.370702 0
M  V30 588 C 52.9485 0.46572 -3.45879 0
M  V30 589 C 54.2965 0.734426 -4.182 0
M  V30 590 O 55.3205 0.54935 -3.51938 0
M  V30 591 O 54.1795 1.09024 -5.35515 0
M  V30 592 H 51.2735 0.199666 -0.802535 0
M  V30 593 H 53.8195 -0.354017 -1.65966 0
M  V30 594 H 52.5915 -0.488461 -3.88239 0
M  V30 595 H 52.2145 1.22367 -3.78301 0
M  V30 596 N 53.2116 1.57565 -0.0334293 0
M  V30 597 C 54.4576 1.93088 0.639417 0
M  V30 598 C 54.8126 0.910589 1.69488 0
M  V30 599 O 54.1056 -0.0727725 1.91462 0
M  V30 600 C 54.2996 3.33112 1.29504 0
M  V30 601 C 54.1286 4.48667 0.304604 0
M  V30 602 C 52.8986 5.05207 -0.0970777 0
M  V30 603 C 55.0966 5.1239 -0.442845 0
M  V30 604 N 53.0786 6.04286 -1.08223 0
M  V30 605 C 54.4496 6.06609 -1.28161 0
M  V30 606 C 56.5046 4.95352 -0.50308 0
M  V30 607 C 55.2076 6.85622 -2.17519 0
M  V30 608 C 57.2336 5.74978 -1.38401 0
M  V30 609 C 56.5956 6.68816 -2.21054 0
M  V30 610 H 52.6946 0.754335 0.206161 0
M  V30 611 H 55.2786 1.94435 -0.101613 0
M  V30 612 H 53.4496 3.32576 2.00618 0
M  V30 613 H 55.1816 3.55972 1.92525 0
M  V30 614 H 51.9366 4.72782 0.278255 0
M  V30 615 H 52.3606 6.58516 -1.57117 0
M  V30 616 H 57.0026 4.22625 0.121694 0
M  V30 617 H 54.7206 7.57652 -2.81049 0
M  V30 618 H 58.3066 5.63826 -1.43496 0
M  V30 619 H 57.1866 7.29355 -2.88116 0
M  V30 620 N 54.6897 -0.239769 1.55765 0
M  V30 621 C 56.1057 -0.588624 1.48349 0
M  V30 622 C 56.3057 -1.88005 0.72502 0
M  V30 623 O 55.3617 -2.51186 0.257269 0
M  V30 624 C 56.6747 -0.68474 2.928 0
M  V30 625 C 58.2227 -0.77659 3.03213 0
M  V30 626 C 58.6977 -0.904207 4.48986 0
M  V30 627 N 60.1887 -0.968896 4.52953 0
M  V30 628 C 60.9237 -1.08703 5.63002 0
M  V30 629 N 60.4197 -1.17026 6.82845 0
M  V30 630 N 62.2127 -1.12074 5.50814 0
M  V30 631 H 54.3637 0.607911 2.03515 0
M  V30 632 H 56.6267 0.21083 0.924259 0
M  V30 633 H 56.3327 0.194284 3.51163 0
M  V30 634 H 56.2067 -1.55435 3.43686 0
M  V30 635 H 58.5937 -1.64606 2.44926 0
M  V30 636 H 58.6747 0.118315 2.55526 0
M  V30 637 H 58.3187 -0.0392633 5.07885 0
M  V30 638 H 58.2487 -1.81426 4.9436 0
M  V30 639 H 60.7397 -0.915633 3.6664 0
M  V30 640 H 61.0527 -1.25966 7.62465 0
M  V30 641 H 59.3977 -1.13971 6.85591 0
M  V30 642 H 62.5887 -1.05226 4.5612 0
M  V30 643 H 62.7617 -1.20936 6.36615 0
M  V30 644 N 56.1678 -1.49265 -0.50573 0
M  V30 645 C 57.0998 -1.617 -1.62437 0
M  V30 646 C 58.1128 -0.499924 -1.54934 0
M  V30 647 O 59.3018 -0.771785 -1.60953 0
M  V30 648 C 56.4018 -1.5533 -3.01207 0
M  V30 649 C 55.5748 -2.8249 -3.33943 0
M  V30 650 C 54.6338 -2.69238 -4.52103 0
M  V30 651 O 53.6598 -3.43167 -4.5412 0
M  V30 652 N 54.8618 -1.80468 -5.51735 0
M  V30 653 H 57.6268 -2.58177 -1.52199 0
M  V30 654 H 55.1878 -1.46294 -0.693511 0
M  V30 655 H 57.1798 -1.44125 -3.78167 0
M  V30 656 H 55.7498 -0.667297 -3.05395 0
M  V30 657 H 54.9698 -3.08081 -2.45926 0
M  V30 658 H 56.2578 -3.66802 -3.5261 0
M  V30 659 H 55.6558 -1.19653 -5.52901 0
M  V30 660 H 54.2128 -1.75188 -6.27816 0
M  V30 661 N 57.6459 0.756429 -1.3826 0
M  V30 662 C 58.8929 1.51547 -1.34312 0
M  V30 663 C 59.2209 1.94382 0.0677144 0
M  V30 664 O 58.4759 1.65514 1.04421 0
M  V30 665 C 58.7749 2.78313 -2.24224 0
M  V30 666 C 58.4409 2.54455 -3.72241 0
M  V30 667 C 57.1029 2.47657 -4.12576 0
M  V30 668 C 59.4549 2.3354 -4.65949 0
M  V30 669 C 56.7829 2.17956 -5.44713 0
M  V30 670 C 59.1349 2.05359 -5.9834 0
M  V30 671 C 57.7989 1.97016 -6.37762 0
M  V30 672 H 57.0689 0.55455 -0.491482 0
M  V30 673 H 59.7159 0.870039 -1.70595 0
M  V30 674 H 58.0209 3.47492 -1.80987 0
M  V30 675 H 59.7179 3.36259 -2.18474 0
M  V30 676 H 56.3079 2.60616 -3.40261 0
M  V30 677 H 60.4919 2.37772 -4.35635 0
M  V30 678 H 55.7479 2.10003 -5.74203 0
M  V30 679 H 59.9219 1.88179 -6.70494 0
M  V30 680 H 57.5489 1.73766 -7.40074 0
M  V30 681 N 59.124 1.23083 0.984299 0
M  V30 682 C 60.349 1.088 1.76571 0
M  V30 683 C 60.774 -0.356657 1.84688 0
M  V30 684 O 60.132 -1.25788 1.30565 0
M  V30 685 C 60.18 1.71371 3.17277 0
M  V30 686 O 59.284 0.973213 4.00752 0
M  V30 687 H 58.625 0.381599 0.543395 0
M  V30 688 H 61.155 1.63057 1.23587 0
M  V30 689 H 61.165 1.76449 3.67872 0
M  V30 690 H 59.84 2.76493 3.10684 0
M  V30 691 H 58.417 0.999078 3.59267 0
M  V30 692 N 60.6021 -1.18246 1.0419 0
M  V30 693 C 62.0181 -1.40269 0.761366 0
M  V30 694 C 62.2181 -1.90777 -0.648578 0
M  V30 695 O 61.2741 -2.0929 -1.41258 0
M  V30 696 C 62.5871 -2.40237 1.8085 0
M  V30 697 C 64.1351 -2.53961 1.82955 0
M  V30 698 C 64.6101 -3.57194 2.86664 0
M  V30 699 N 66.1011 -3.64702 2.85563 0
M  V30 700 C 66.8361 -4.44309 3.6246 0
M  V30 701 N 66.3321 -5.27514 4.49111 0
M  V30 702 N 68.1251 -4.39084 3.50944 0
M  V30 703 H 60.2761 -0.837882 1.95175 0
M  V30 704 H 62.5391 -0.430608 0.84456 0
M  V30 705 H 62.2451 -2.10176 2.81991 0
M  V30 706 H 62.1191 -3.39601 1.64168 0
M  V30 707 H 64.5061 -2.83338 0.824855 0
M  V30 708 H 64.5871 -1.54706 2.03715 0
M  V30 709 H 64.2311 -3.28558 3.87314 0
M  V30 710 H 64.1611 -4.5613 2.6316 0
M  V30 711 H 66.6521 -3.05289 2.22727 0
M  V30 712 H 66.9651 -5.85411 5.04493 0
M  V30 713 H 65.3101 -5.2693 4.53178 0
M  V30 714 H 68.5011 -3.7313 2.82651 0
M  V30 715 H 68.6741 -5.00883 4.11121 0
M  V30 716 N 62.0802 -0.821533 -1.34494 0
M  V30 717 C 63.4962 -0.507117 -1.51329 0
M  V30 718 C 63.6962 0.968964 -1.76673 0
M  V30 719 O 62.7522 1.75348 -1.81685 0
M  V30 720 C 64.0652 -1.36544 -2.67911 0
M  V30 721 C 65.6132 -1.36242 -2.81793 0
M  V30 722 C 66.0882 -2.2052 -4.01416 0
M  V30 723 N 67.5792 -2.18136 -4.08621 0
M  V30 724 C 68.3142 -2.80095 -5.00334 0
M  V30 725 N 67.8102 -3.51039 -5.9728 0
M  V30 726 N 69.6032 -2.69656 -4.93196 0
M  V30 727 H 61.7542 -1.77729 -1.16302 0
M  V30 728 H 64.0172 -0.757291 -0.570276 0
M  V30 729 H 63.7232 -2.41361 -2.55808 0
M  V30 730 H 63.5972 -1.02917 -3.62888 0
M  V30 731 H 65.9842 -0.322041 -2.93338 0
M  V30 732 H 66.0652 -1.73866 -1.87628 0
M  V30 733 H 65.7092 -3.24607 -3.90631 0
M  V30 734 H 65.6392 -1.80247 -4.94791 0
M  V30 735 H 68.1302 -1.6653 -3.39229 0
M  V30 736 H 68.4432 -3.95565 -6.63889 0
M  V30 737 H 66.7882 -3.55145 -5.97409 0
M  V30 738 H 69.9792 -2.13808 -4.16418 0
M  V30 739 H 70.1522 -3.1823 -5.64476 0
M  V30 740 N 63.5583 1.46682 -0.576371 0
M  V30 741 C 64.4913 2.27243 0.208731 0
M  V30 742 C 65.4693 1.35238 0.902746 0
M  V30 743 O 66.6533 1.64641 0.917904 0
M  V30 744 C 63.7803 3.12802 1.29896 0
M  V30 745 C 62.8263 4.20524 0.711457 0
M  V30 746 S 63.6593 5.33548 -0.456781 0
M  V30 747 C 64.8153 6.22673 0.634798 0
M  V30 748 H 65.0483 2.93484 -0.474838 0
M  V30 749 H 62.5813 1.50069 -0.363118 0
M  V30 750 H 64.5393 3.62661 1.92321 0
M  V30 751 H 63.2003 2.45887 1.95444 0
M  V30 752 H 62.3933 4.80191 1.53076 0
M  V30 753 H 61.9953 3.73645 0.162999 0
M  V30 754 H 64.2873 6.60181 1.52209 0
M  V30 755 H 65.2303 7.0806 0.0750311 0
M  V30 756 H 65.6383 5.56684 0.936092 0
M  V30 757 N 65.0364 0.313813 1.54444 0
M  V30 758 C 66.3134 -0.345447 1.92525 0
M  V30 759 C 66.6934 -1.70667 1.24242 0
M  V30 760 O 66.0414 -2.25273 0.382654 0
M  V30 761 C 66.2514 -0.44737 3.46121 0
M  V30 762 C 67.5994 -0.712238 4.18584 0
M  V30 763 O 68.6234 -0.530678 3.52225 0
M  V30 764 O 67.4824 -1.06183 5.36085 0
M  V30 765 H 64.5764 -0.195407 0.803583 0
M  V30 766 H 67.1224 0.362813 1.65776 0
M  V30 767 H 65.8944 0.509043 3.87975 0
M  V30 768 H 65.5174 -1.20359 3.78945 0
M  V30 769 N 66.5145 -1.57545 0.0417849 0
M  V30 770 C 67.7425 -1.96624 -0.643928 0
M  V30 771 C 68.1575 -0.918897 -1.64929 0
M  V30 772 O 67.5145 0.0979323 -1.82237 0
M  V30 773 C 67.5655 -3.35781 -1.33914 0
M  V30 774 O 67.2865 -4.365 -0.374048 0
M  V30 775 C 68.7875 -3.89566 -2.1155 0
M  V30 776 H 66.0075 -0.647316 -0.176702 0
M  V30 777 H 68.5515 -2.04229 0.105304 0
M  V30 778 H 66.7065 -3.29357 -2.03968 0
M  V30 779 H 67.1205 -5.17248 -0.869179 0
M  V30 780 H 68.5945 -4.89242 -2.55628 0
M  V30 781 H 69.0715 -3.24488 -2.9598 0
M  V30 782 H 69.6775 -3.99298 -1.46427 0
M  V30 783 N 67.9926 0.231505 -1.5589 0
M  V30 784 C 68.9426 1.29007 -1.87993 0
M  V30 785 C 69.9266 1.42764 -0.742102 0
M  V30 786 O 71.1186 1.45747 -1.00433 0
M  V30 787 C 68.2476 2.6425 -2.1915 0
M  V30 788 C 67.3336 2.54435 -3.39299 0
M  V30 789 N 67.7246 2.14262 -4.58176 0
M  V30 790 C 66.0226 2.85416 -3.42715 0
M  V30 791 C 66.7236 2.15455 -5.40328 0
M  V30 792 N 65.6996 2.55558 -4.79783 0
M  V30 793 H 69.5016 0.970213 -2.77424 0
M  V30 794 H 67.0156 0.440097 -1.56323 0
M  V30 795 H 69.0126 3.40665 -2.40319 0
M  V30 796 H 67.6726 2.9709 -1.31025 0
M  V30 797 H 68.6836 1.85554 -4.83518 0
M  V30 798 H 65.3606 3.22693 -2.64906 0
M  V30 799 H 66.7506 1.86605 -6.45467 0
M  V30 800 N 69.4707 1.49531 0.497807 0
M  V30 801 C 70.7177 1.59179 1.25173 0
M  V30 802 C 71.0457 0.279932 1.92475 0
M  V30 803 O 70.3007 -0.732383 1.81479 0
M  V30 804 C 70.5997 2.70252 2.33878 0
M  V30 805 C 70.2657 4.11644 1.84012 0
M  V30 806 C 68.9277 4.50121 1.70132 0
M  V30 807 C 71.2797 5.00121 1.46725 0
M  V30 808 C 68.6077 5.74845 1.17348 0
M  V30 809 C 70.9597 6.25366 0.95392 0
M  V30 810 C 69.6237 6.6267 0.801538 0
M  V30 811 H 68.8937 0.582478 0.45804 0
M  V30 812 H 71.5407 1.83373 0.551948 0
M  V30 813 H 69.8457 2.40041 3.09657 0
M  V30 814 H 71.5427 2.74925 2.9192 0
M  V30 815 H 68.1327 3.81274 1.95775 0
M  V30 816 H 72.3167 4.71048 1.56294 0
M  V30 817 H 67.5727 6.02444 1.04264 0
M  V30 818 H 71.7467 6.93301 0.656225 0
M  V30 819 H 69.3737 7.59197 0.390351 0
M  V30 820 N 70.9488 -0.749086 1.3866 0
M  V30 821 C 72.3598 -1.32664 1.31366 0
M  V30 822 C 72.7108 -1.96179 -0.028484 0
M  V30 823 O 71.8358 -1.9537 -0.93057 0
M  V30 824 C 72.4308 -2.41219 2.37905 0
M  V30 825 C 70.9898 -2.94684 2.34176 0
M  V30 826 C 70.1368 -1.68108 2.20533 0
M  V30 827 H 73.0878 -0.547628 1.48952 0
M  V30 828 H 73.1088 -3.21268 2.0388 0
M  V30 829 H 72.6208 -1.94962 3.35576 0
M  V30 830 H 70.7218 -3.45258 1.401 0
M  V30 831 H 70.8348 -3.48757 3.2849 0
M  V30 832 H 69.1988 -1.91907 1.67463 0
M  V30 833 H 69.9818 -1.23923 3.20153 0
M  V30 834 N 72.4269 -1.23603 -0.977757 0
M  V30 835 C 73.3739 -1.01954 -2.07061 0
M  V30 836 C 74.3439 0.0638697 -1.65977 0
M  V30 837 O 75.5289 -0.0887624 -1.90593 0
M  V30 838 C 72.6689 -0.619658 -3.39491 0
M  V30 839 C 71.7819 -1.77547 -3.93829 0
M  V30 840 C 70.9169 -1.32212 -5.14484 0
M  V30 841 C 69.9559 -2.44852 -5.60994 0
M  V30 842 N 69.0929 -2.00456 -6.72876 0
M  V30 843 H 73.9329 -1.95495 -2.24913 0
M  V30 844 H 71.4699 -0.973861 -1.10247 0
M  V30 845 H 73.4279 -0.368898 -4.15566 0
M  V30 846 H 72.0579 0.278752 -3.21594 0
M  V30 847 H 71.1099 -2.14016 -3.14486 0
M  V30 848 H 72.4219 -2.62219 -4.24314 0
M  V30 849 H 71.5759 -1.02965 -5.97899 0
M  V30 850 H 70.3149 -0.445808 -4.85658 0
M  V30 851 H 69.3199 -2.74871 -4.76157 0
M  V30 852 H 70.5449 -3.33024 -5.91837 0
M  V30 853 H 68.4909 -1.15208 -6.45804 0
M  V30 854 H 68.4079 -2.78687 -7.02759 0
M  V30 855 H 69.6759 -1.7432 -7.59758 0
M  V30 856 N 73.905 1.17692 -1.04816 0
M  V30 857 C 74.835 2.23777 -0.666791 0
M  V30 858 C 75.816 1.66796 0.33361 0
M  V30 859 O 77.001 1.93039 0.212042 0
M  V30 860 C 74.131 3.47281 -0.0367933 0
M  V30 861 C 73.085 4.17059 -0.961546 0
M  V30 862 C 72.411 5.34342 -0.195626 0
M  V30 863 C 73.711 4.69713 -2.28402 0
M  V30 864 H 75.405 2.55933 -1.55367 0
M  V30 865 H 72.951 1.23019 -0.748484 0
M  V30 866 H 74.904 4.20706 0.241775 0
M  V30 867 H 73.628 3.14381 0.885004 0
M  V30 868 H 72.287 3.45541 -1.22462 0
M  V30 869 H 71.935 4.97692 0.728816 0
M  V30 870 H 71.635 5.81966 -0.811775 0
M  V30 871 H 73.159 6.10553 0.0757473 0
M  V30 872 H 74.573 5.34794 -2.06563 0
M  V30 873 H 72.97 5.279 -2.8538 0
M  V30 874 H 74.04 3.86726 -2.92525 0
M  V30 875 N 75.3831 0.828654 1.34056 0
M  V30 876 C 76.3161 0.199763 2.27324 0
M  V30 877 C 77.2941 -0.647168 1.49166 0
M  V30 878 O 78.4781 -0.609661 1.78369 0
M  V30 879 C 75.6051 -0.720455 3.30949 0
M  V30 880 C 74.6511 0.0496888 4.26471 0
M  V30 881 S 75.4841 1.40072 5.16856 0
M  V30 882 C 76.6401 0.485527 6.24014 0
M  V30 883 H 76.8731 0.990478 2.80316 0
M  V30 884 H 74.4061 0.624857 1.41191 0
M  V30 885 H 76.3641 -1.24581 3.91139 0
M  V30 886 H 75.0251 -1.48474 2.76793 0
M  V30 887 H 74.2181 -0.650104 4.9979 0
M  V30 888 H 73.8201 0.505779 3.70564 0
M  V30 889 H 76.1121 -0.320672 6.76741 0
M  V30 890 H 77.0551 1.18856 6.98054 0
M  V30 891 H 77.4631 0.0714109 5.64455 0
M  V30 892 N 76.8612 -1.46375 0.584142 0
M  V30 893 C 77.8092 -2.32042 -0.161047 0
M  V30 894 C 78.8032 -1.44569 -0.882966 0
M  V30 895 O 80.0092 -1.61186 -0.801191 0
M  V30 896 H 76.3842 -0.748659 -0.0708033 0
M  V30 897 H 78.3552 -2.92704 0.580269 0
M  V30 898 C 77.1042 -3.27762 -1.1605 0
M  V30 899 H 76.4272 -3.95051 -0.614419 0
M  V30 900 H 77.8672 -3.90481 -1.65228 0
M  V30 901 C 76.3262 -2.53218 -2.22221 0
M  V30 902 O 76.8562 -2.29628 -3.29597 0
M  V30 903 N 75.0622 -2.13756 -1.96868 0
M  V30 904 H 74.6092 -2.33142 -1.09557 0
M  V30 905 H 74.5672 -1.642 -2.68115 0
M  V30 906 N 78.3393 -0.321999 -1.54275 0
M  V30 907 C 79.2493 0.553631 -2.27974 0
M  V30 908 C 80.2653 1.13054 -1.32268 0
M  V30 909 O 81.4413 1.15084 -1.6528 0
M  V30 910 C 78.5063 1.69927 -3.02201 0
M  V30 911 C 77.5673 1.15433 -4.1349 0
M  V30 912 C 76.8003 2.24537 -4.84168 0
M  V30 913 O 77.0233 3.44852 -4.5435 0
M  V30 914 O 75.9573 1.90044 -5.7111 0
M  V30 915 H 79.7833 -0.0448345 -3.03667 0
M  V30 916 H 77.3683 -0.0877418 -1.49142 0
M  V30 917 H 79.2503 2.3663 -3.48689 0
M  V30 918 H 77.9253 2.28395 -2.29385 0
M  V30 919 H 76.8323 0.452436 -3.71354 0
M  V30 920 H 78.1653 0.614805 -4.88345 0
M  V30 921 N 79.8174 1.5752 -0.0501392 0
M  V30 922 C 80.7474 2.14502 0.922566 0
M  V30 923 C 81.7284 1.06642 1.3252 0
M  V30 924 O 82.9134 1.34577 1.4001 0
M  V30 925 C 80.0434 2.68916 2.19776 0
M  V30 926 C 78.9974 3.8175 1.93523 0
M  V30 927 C 78.3234 4.22677 3.27487 0
M  V30 928 C 79.6234 5.06932 1.25765 0
M  V30 929 H 81.3174 2.9603 0.447952 0
M  V30 930 H 78.8634 1.42401 0.214024 0
M  V30 931 H 80.8164 3.07419 2.88222 0
M  V30 932 H 79.5404 1.84578 2.69441 0
M  V30 933 H 78.1994 3.43718 1.27489 0
M  V30 934 H 77.8474 3.35291 3.74952 0
M  V30 935 H 77.5474 4.98725 3.1072 0
M  V30 936 H 79.0714 4.63779 3.97166 0
M  V30 937 H 80.4854 5.42888 1.84244 0
M  V30 938 H 78.8824 5.88116 1.19328 0
M  V30 939 H 79.9524 4.84337 0.233536 0
M  V30 940 N 81.2955 -0.223234 1.56011 0
M  V30 941 C 82.5725 -0.972108 1.69733 0
M  V30 942 C 82.9525 -2.02485 0.59691 0
M  V30 943 O 82.3005 -2.25037 -0.396324 0
M  V30 944 C 82.5105 -1.58407 3.10979 0
M  V30 945 C 83.8585 -2.07696 3.70334 0
M  V30 946 O 84.8825 -1.68304 3.1393 0
M  V30 947 O 83.7415 -2.80096 4.69264 0
M  V30 948 H 80.8355 -0.453993 0.691245 0
M  V30 949 H 83.3815 -0.215149 1.68331 0
M  V30 950 H 82.1535 -0.823831 3.82529 0
M  V30 951 H 81.7765 -2.40661 3.16493 0
M  V30 952 N 82.7736 -1.49793 -0.48987 0
M  V30 953 C 83.9986 -1.63836 -1.27172 0
M  V30 954 C 84.4236 -0.31402 -1.8546 0
M  V30 955 O 83.7816 0.719803 -1.66399 0
M  V30 956 C 83.8296 -2.71797 -2.36978 0
M  V30 957 O 82.9336 -2.31744 -3.41128 0
M  V30 958 H 82.2746 -0.547997 -0.37496 0
M  V30 959 H 84.8046 -1.96053 -0.585191 0
M  V30 960 H 84.8146 -2.94305 -2.82575 0
M  V30 961 H 83.4896 -3.67923 -1.93921 0
M  V30 962 H 82.0666 -2.1961 -3.01373 0
M  V30 963 N 84.2517 0.741722 -1.39055 0
M  V30 964 C 85.4977 1.50336 -1.36113 0
M  V30 965 C 85.8307 1.94148 0.0450796 0
M  V30 966 O 85.1057 1.66301 1.00868 0
M  V30 967 C 85.3887 2.74773 -2.32749 0
M  V30 968 C 85.2417 2.37023 -3.82283 0
M  V30 969 C 86.5607 3.76846 -2.27322 0
M  V30 970 H 83.6797 0.545351 -0.495743 0
M  V30 971 H 86.3217 0.848624 -1.69995 0
M  V30 972 H 84.4717 3.30639 -2.03986 0
M  V30 973 H 86.1437 1.8684 -4.21768 0
M  V30 974 H 84.3867 1.69334 -3.99385 0
M  V30 975 H 85.0577 3.26104 -4.45376 0
M  V30 976 H 87.5337 3.30548 -2.5274 0
M  V30 977 H 86.4097 4.6159 -2.97028 0
M  V30 978 H 86.6707 4.23286 -1.27599 0
M  V30 979 N 85.7298 1.2412 0.971189 0
M  V30 980 C 86.9598 1.10415 1.7462 0
M  V30 981 C 87.3678 -0.346462 1.86001 0
M  V30 982 O 86.7108 -1.25104 1.34517 0
M  V30 983 C 86.7728 1.66596 3.18568 0
M  V30 984 C 86.4368 3.15446 3.3067 0
M  V30 985 C 87.4338 4.12636 3.16271 0
M  V30 986 C 85.1188 3.55337 3.55022 0
M  V30 987 C 87.1128 5.47699 3.26044 0
M  V30 988 C 84.7998 4.90542 3.64434 0
M  V30 989 C 85.7978 5.86532 3.49956 0
M  V30 990 O 85.4858 7.19279 3.59017 0
M  V30 991 H 85.2178 0.386616 0.55453 0
M  V30 992 H 87.7718 1.64633 1.22821 0
M  V30 993 H 86.0018 1.06808 3.71657 0
M  V30 994 H 87.6908 1.48232 3.77865 0
M  V30 995 H 88.4568 3.8316 2.97344 0
M  V30 996 H 84.3358 2.8113 3.65359 0
M  V30 997 H 87.8798 6.22603 3.14661 0
M  V30 998 H 83.7768 5.19691 3.82873 0
M  V30 999 H 84.5448 7.27153 3.75754 0
M  V30 1000 N 87.2079 -1.17134 1.05439 0
M  V30 1001 C 88.4559 -1.87085 0.764429 0
M  V30 1002 C 88.7769 -1.81584 -0.710787 0
M  V30 1003 O 88.0469 -1.24349 -1.51374 0
M  V30 1004 H 86.6269 -0.692627 0.279779 0
M  V30 1005 H 89.2889 -1.42087 1.33406 0
M  V30 1006 H 88.3849 -2.92759 1.0816 0
M  V30 1007 N 88.686 -0.835752 -1.33615 0
M  V30 1008 C 89.634 -0.255238 -2.31195 0
M  V30 1009 C 90.628 0.61107 -1.57995 0
M  V30 1010 O 91.834 0.500979 -1.72888 0
M  V30 1011 H 88.209 -0.0638085 -0.749288 0
M  V30 1012 H 90.18 -1.09283 -2.77669 0
M  V30 1013 C 88.929 0.55754 -3.43201 0
M  V30 1014 H 88.252 -0.0997553 -3.99676 0
M  V30 1015 H 89.692 0.929622 -4.13683 0
M  V30 1016 C 88.151 1.73515 -2.88781 0
M  V30 1017 O 88.681 2.83376 -2.84712 0
M  V30 1018 N 86.887 1.55603 -2.4543 0
M  V30 1019 H 86.434 0.662354 -2.48939 0
M  V30 1020 H 86.392 2.34545 -2.09371 0
M  V30 1021 N 90.1641 1.46063 -0.591896 0
M  V30 1022 C 91.1121 2.32124 0.148739 0
M  V30 1023 C 92.1061 1.45035 0.875286 0
M  V30 1024 O 93.3121 1.61609 0.792632 0
M  V30 1025 H 89.6871 0.749024 0.066832 0
M  V30 1026 H 91.6581 2.92392 -0.595783 0
M  V30 1027 C 90.4071 3.28373 1.1431 0
M  V30 1028 H 89.7301 3.95371 0.59346 0
M  V30 1029 H 91.1701 3.91352 1.63155 0
M  V30 1030 C 89.6291 2.54393 2.20875 0
M  V30 1031 O 90.1591 2.31373 3.28374 0
M  V30 1032 N 88.3651 2.14797 1.95731 0
M  V30 1033 H 87.9121 2.33719 1.08319 0
M  V30 1034 H 87.8701 1.65619 2.67241 0
M  V30 1035 N 91.6422 0.330177 1.54103 0
M  V30 1036 C 92.5522 -0.541534 2.28264 0
M  V30 1037 C 93.5682 -1.12351 1.32866 0
M  V30 1038 O 94.7442 -1.14206 1.65888 0
M  V30 1039 C 91.8092 -1.68322 3.03098 0
M  V30 1040 C 90.8702 -1.13238 4.14096 0
M  V30 1041 C 90.1032 -2.21966 4.85352 0
M  V30 1042 O 90.3262 -3.42437 4.56172 0
M  V30 1043 O 89.2602 -1.87013 5.7211 0
M  V30 1044 H 93.0862 0.060938 3.03639 0
M  V30 1045 H 90.6712 0.09565 1.49093 0
M  V30 1046 H 92.5532 -2.34777 3.49939 0
M  V30 1047 H 91.2282 -2.27176 2.30593 0
M  V30 1048 H 90.1352 -0.432736 3.71589 0
M  V30 1049 H 91.4682 -0.588898 4.88664 0
M  V30 1050 N 93.1203 -1.57491 0.0584922 0
M  V30 1051 C 94.0833 -2.1085 -0.898617 0
M  V30 1052 C 95.0833 -1.02964 -1.23511 0
M  V30 1053 O 96.2733 -1.29007 -1.17059 0
M  V30 1054 C 93.4053 -2.59881 -2.20623 0
M  V30 1055 H 94.5983 -2.96715 -0.435936 0
M  V30 1056 H 92.1513 -1.55141 -0.190023 0
M  V30 1057 H 92.8863 -1.77431 -2.71457 0
M  V30 1058 H 92.6713 -3.38727 -1.97501 0
M  V30 1059 H 94.1613 -3.01285 -2.89166 0
M  V30 1060 N 94.5984 0.214957 -1.56127 0
M  V30 1061 C 95.5284 1.2695 -1.95974 0
M  V30 1062 C 96.5094 1.48539 -0.828868 0
M  V30 1063 O 97.6944 1.60611 -1.09168 0
M  V30 1064 C 94.8244 2.61794 -2.28214 0
M  V30 1065 C 93.7784 2.54851 -3.43853 0
M  V30 1066 C 93.1044 3.93785 -3.61715 0
M  V30 1067 C 94.4044 2.09065 -4.78632 0
M  V30 1068 H 96.0984 0.93846 -2.84312 0
M  V30 1069 H 93.6444 0.449996 -1.36788 0
M  V30 1070 H 95.5974 3.35731 -2.54682 0
M  V30 1071 H 94.3214 2.96599 -1.36736 0
M  V30 1072 H 92.9804 1.8337 -3.17444 0
M  V30 1073 H 92.6284 4.25908 -2.67602 0
M  V30 1074 H 92.3284 3.90019 -4.39498 0
M  V30 1075 H 93.8524 4.69374 -3.90539 0
M  V30 1076 H 95.2664 2.7275 -5.04262 0
M  V30 1077 H 93.6634 2.16346 -5.59745 0
M  V30 1078 H 94.7334 1.04315 -4.73547 0
M  V30 1079 N 96.0765 1.50051 0.48192 0
M  V30 1080 C 97.0065 1.71046 1.58951 0
M  V30 1081 C 97.9875 0.559288 1.60642 0
M  V30 1082 O 99.1725 0.797243 1.77081 0
M  V30 1083 C 96.3025 1.79462 2.97339 0
M  V30 1084 C 95.2565 2.94558 3.10515 0
M  V30 1085 C 94.5825 2.88105 4.50444 0
M  V30 1086 C 95.8825 4.35227 2.88747 0
M  V30 1087 H 97.5765 2.6378 1.41635 0
M  V30 1088 H 95.1225 1.26936 0.679942 0
M  V30 1089 H 97.0755 1.92734 3.74742 0
M  V30 1090 H 95.7995 0.833412 3.15788 0
M  V30 1091 H 94.4585 2.80918 2.35543 0
M  V30 1092 H 94.1065 1.89853 4.65795 0
M  V30 1093 H 93.8065 3.65366 4.60197 0
M  V30 1094 H 95.3305 3.03412 5.29881 0
M  V30 1095 H 96.7445 4.49449 3.55905 0
M  V30 1096 H 95.1415 5.13856 3.09955 0
M  V30 1097 H 96.2115 4.48347 1.84696 0
M  V30 1098 N 97.5546 -0.734337 1.39446 0
M  V30 1099 C 98.9656 -1.31264 1.32766 0
M  V30 1100 C 99.3166 -1.96198 -0.00767497 0
M  V30 1101 O 98.4416 -1.96346 -0.909796 0
M  V30 1102 C 99.0366 -2.38682 2.4045 0
M  V30 1103 C 97.5956 -2.92184 2.37288 0
M  V30 1104 C 96.7426 -1.6576 2.22304 0
M  V30 1105 H 99.6936 -0.531799 1.49525 0
M  V30 1106 H 99.7146 -3.19087 2.07276 0
M  V30 1107 H 99.2266 -1.91392 3.37625 0
M  V30 1108 H 97.3276 -3.43752 1.43754 0
M  V30 1109 H 97.4406 -3.45253 3.3217 0
M  V30 1110 H 95.8046 -1.9012 1.69489 0
M  V30 1111 H 96.5876 -1.20521 3.21449 0
M  V30 1112 N 99.0327 -1.24633 -0.964593 0
M  V30 1113 C 99.9657 -0.984662 -2.05863 0
M  V30 1114 C 100.944 0.0826554 -1.6239 0
M  V30 1115 O 102.128 -0.0549296 -1.8842 0
M  V30 1116 C 99.2547 -0.486529 -3.35187 0
M  V30 1117 C 98.3007 -1.54286 -3.97615 0
M  V30 1118 S 99.1337 -3.12513 -4.34851 0
M  V30 1119 C 100.29 -2.6441 -5.67308 0
M  V30 1120 H 100.523 -1.91104 -2.27743 0
M  V30 1121 H 98.0557 -1.08052 -1.10291 0
M  V30 1122 H 100.014 -0.205757 -4.09984 0
M  V30 1123 H 98.6747 0.419186 -3.1129 0
M  V30 1124 H 97.8677 -1.14481 -4.90826 0
M  V30 1125 H 97.4697 -1.7738 -3.2926 0
M  V30 1126 H 99.7617 -2.07416 -6.44969 0
M  V30 1127 H 100.705 -3.56222 -6.11973 0
M  V30 1128 H 101.113 -2.04734 -5.26065 0
M  V30 1129 N 100.511 1.16574 -1.06058 0
M  V30 1130 C 101.441 2.23057 -0.690488 0
M  V30 1131 C 102.422 1.67141 0.315901 0
M  V30 1132 O 103.607 1.93253 0.191556 0
M  V30 1133 C 100.737 3.47222 -0.073625 0
M  V30 1134 C 99.6908 4.16016 -1.00573 0
M  V30 1135 C 99.0168 5.34104 -0.252289 0
M  V30 1136 C 100.317 4.67264 -2.33371 0
M  V30 1137 H 102.011 2.54271 -1.58072 0
M  V30 1138 H 99.5568 1.22218 -0.76149 0
M  V30 1139 H 101.51 4.20939 0.19714 0
M  V30 1140 H 100.234 3.15302 0.85161 0
M  V30 1141 H 98.8928 3.44223 -1.2612 0
M  V30 1142 H 98.5408 4.98437 0.675988 0
M  V30 1143 H 98.2408 5.81072 -0.873455 0
M  V30 1144 H 99.7648 6.10599 0.0109857 0
M  V30 1145 H 101.179 5.32573 -2.12223 0
M  V30 1146 H 99.5758 5.24843 -2.90963 0
M  V30 1147 H 100.646 3.83602 -2.96611 0
M  V30 1148 N 101.989 0.842826 1.3317 0
M  V30 1149 C 102.899 0.281444 2.32906 0
M  V30 1150 C 103.915 -0.594587 1.63526 0
M  V30 1151 O 105.091 -0.49777 1.95152 0
M  V30 1152 C 102.156 -0.530929 3.42611 0
M  V30 1153 C 101.217 0.369843 4.27704 0
M  V30 1154 C 100.45 -0.403853 5.3217 0
M  V30 1155 O 100.673 -1.63513 5.46461 0
M  V30 1156 O 99.6069 0.224199 6.01482 0
M  V30 1157 H 103.433 1.10744 2.82789 0
M  V30 1158 H 101.018 0.60545 1.36582 0
M  V30 1159 H 102.9 -0.992437 4.09547 0
M  V30 1160 H 101.575 -1.33392 2.94938 0
M  V30 1161 H 100.482 0.879275 3.6362 0
M  V30 1162 H 101.815 1.13771 4.78871 0
M  V30 1163 N 103.467 -1.45747 0.599634 0
M  V30 1164 C 104.4 -2.27547 -0.172552 0
M  V30 1165 C 105.378 -1.36657 -0.881116 0
M  V30 1166 O 106.562 -1.66081 -0.891595 0
M  V30 1167 C 103.689 -3.14829 -1.24903 0
M  V30 1168 C 102.735 -4.21603 -0.644465 0
M  V30 1169 S 103.568 -5.32754 0.541606 0
M  V30 1170 C 104.724 -6.23604 -0.535656 0
M  V30 1171 H 104.957 -2.92691 0.521468 0
M  V30 1172 H 102.49 -1.49473 0.386947 0
M  V30 1173 H 104.448 -3.65675 -1.86527 0
M  V30 1174 H 103.109 -2.48965 -1.91508 0
M  V30 1175 H 102.302 -4.82566 -1.45417 0
M  V30 1176 H 101.904 -3.73857 -0.103534 0
M  V30 1177 H 104.196 -6.62519 -1.41686 0
M  V30 1178 H 105.139 -7.0809 0.0376246 0
M  V30 1179 H 105.547 -5.58103 -0.84741 0
M  V30 1180 N 104.945 -0.338344 -1.53925 0
M  V30 1181 C 105.875 0.51328 -2.27789 0
M  V30 1182 C 106.856 1.107 -1.29149 0
M  V30 1183 O 108.041 1.12937 -1.57984 0
M  V30 1184 C 105.171 1.66697 -3.04679 0
M  V30 1185 C 104.125 1.20183 -4.1078 0
M  V30 1186 C 103.451 2.44363 -4.75595 0
M  V30 1187 C 104.751 0.30605 -5.21403 0
M  V30 1188 H 106.445 -0.102883 -2.99223 0
M  V30 1189 H 103.991 -0.0509219 -1.4391 0
M  V30 1190 H 105.944 2.26915 -3.55088 0
M  V30 1191 H 104.668 2.30995 -2.30887 0
M  V30 1192 H 103.327 0.622499 -3.61276 0
M  V30 1193 H 102.975 3.07057 -3.98403 0
M  V30 1194 H 102.675 2.13925 -5.47275 0
M  V30 1195 H 104.199 3.05317 -5.28786 0
M  V30 1196 H 105.613 0.814929 -5.67478 0
M  V30 1197 H 104.01 0.0937929 -6.00027 0
M  V30 1198 H 105.08 -0.65921 -4.80398 0
M  V30 1199 N 106.423 1.57458 -0.0668435 0
M  V30 1200 C 107.353 2.15468 0.899764 0
M  V30 1201 C 108.334 1.08042 1.31381 0
M  V30 1202 O 109.519 1.36054 1.38574 0
M  V30 1203 C 106.649 2.71232 2.16911 0
M  V30 1204 C 105.603 3.83781 1.89463 0
M  V30 1205 C 104.929 4.26127 3.22986 0
M  V30 1206 C 106.229 5.08238 1.20381 0
M  V30 1207 H 107.923 2.96488 0.416529 0
M  V30 1208 H 105.469 1.4262 0.198908 0
M  V30 1209 H 107.422 3.10458 2.84945 0
M  V30 1210 H 106.146 1.87426 2.67468 0
M  V30 1211 H 104.805 3.45051 1.23836 0
M  V30 1212 H 104.453 3.39249 3.71374 0
M  V30 1213 H 104.153 5.01993 3.05413 0
M  V30 1214 H 105.677 4.67966 3.92225 0
M  V30 1215 H 107.091 5.44811 1.78475 0
M  V30 1216 H 105.488 5.89349 1.13083 0
M  V30 1217 H 106.558 4.84558 0.182153 0
M  V30 1218 N 107.901 -0.206675 1.56239 0
M  V30 1219 C 108.864 -1.23976 1.92776 0
M  V30 1220 C 109.864 -1.39041 0.807729 0
M  V30 1221 O 111.054 -1.37051 1.0753 0
M  V30 1222 C 108.186 -2.61112 2.19165 0
M  V30 1223 H 109.379 -0.927764 2.85189 0
M  V30 1224 H 106.932 -0.447718 1.4975 0
M  V30 1225 H 107.667 -2.97386 1.29352 0
M  V30 1226 H 107.452 -2.51552 3.00772 0
M  V30 1227 H 108.942 -3.35633 2.48476 0
M  V30 1228 N 109.379 -1.50304 -0.473955 0
M  V30 1229 C 110.311 -1.65109 -1.58971 0
M  V30 1230 C 111.324 -0.532676 -1.53839 0
M  V30 1231 O 112.513 -0.805751 -1.59279 0
M  V30 1232 C 109.613 -1.61684 -2.97845 0
M  V30 1233 C 108.786 -2.8951 -3.27876 0
M  V30 1234 C 107.845 -2.78768 -4.4629 0
M  V30 1235 O 106.871 -3.52722 -4.46739 0
M  V30 1236 N 108.073 -1.9213 -5.47783 0
M  V30 1237 H 110.838 -2.61347 -1.46689 0
M  V30 1238 H 108.399 -1.47732 -0.662324 0
M  V30 1239 H 110.391 -1.52114 -3.75024 0
M  V30 1240 H 108.961 -0.731925 -3.03911 0
M  V30 1241 H 108.181 -3.13228 -2.39336 0
M  V30 1242 H 109.469 -3.74199 -3.4475 0
M  V30 1243 H 108.867 -1.31353 -5.50239 0
M  V30 1244 H 107.424 -1.88466 -6.23958 0
M  V30 1245 N 110.857 0.726932 -1.39834 0
M  V30 1246 C 111.82 1.82269 -1.38962 0
M  V30 1247 C 112.82 1.58248 -0.285334 0
M  V30 1248 O 114.01 1.65499 -0.54366 0
M  V30 1249 C 111.142 3.20186 -1.17019 0
M  V30 1250 H 112.335 1.84443 -2.36476 0
M  V30 1251 H 109.888 0.931416 -1.25516 0
M  V30 1252 H 110.623 3.23669 -0.202204 0
M  V30 1253 H 110.408 3.3902 -1.96998 0
M  V30 1254 H 111.898 4.00235 -1.1917 0
M  V30 1255 N 112.336 1.25143 0.95797 0
M  V30 1256 C 113.582 1.10863 1.70531 0
M  V30 1257 C 113.937 -0.347391 1.89238 0
M  V30 1258 O 113.23 -1.25262 1.44983 0
M  V30 1259 C 113.424 1.79272 3.09187 0
M  V30 1260 C 113.253 3.31376 3.04006 0
M  V30 1261 C 112.023 4.0062 3.07948 0
M  V30 1262 C 114.221 4.27825 2.8543 0
M  V30 1263 N 112.203 5.39526 2.9289 0
M  V30 1264 C 113.574 5.53794 2.78769 0
M  V30 1265 C 115.629 4.1828 2.70085 0
M  V30 1266 C 114.332 6.7131 2.58331 0
M  V30 1267 C 116.358 5.35485 2.51017 0
M  V30 1268 C 115.72 6.60393 2.45073 0
M  V30 1269 H 111.819 0.460362 0.632132 0
M  V30 1270 H 114.403 1.58196 1.13499 0
M  V30 1271 H 112.574 1.34439 3.64391 0
M  V30 1272 H 114.306 1.57764 3.72683 0
M  V30 1273 H 111.061 3.51855 3.17009 0
M  V30 1274 H 111.485 6.12416 2.88574 0
M  V30 1275 H 116.127 3.22461 2.73457 0
M  V30 1276 H 113.845 7.67243 2.53701 0
M  V30 1277 H 117.431 5.29959 2.40073 0
M  V30 1278 H 116.311 7.49557 2.30509 0
M  V30 1279 N 113.814 -1.1601 1.06675 0
M  V30 1280 C 114.746 -2.20115 0.638921 0
M  V30 1281 C 115.759 -1.59916 -0.305057 0
M  V30 1282 O 116.948 -1.78245 -0.0954446 0
M  V30 1283 C 114.048 -3.38798 -0.0830083 0
M  V30 1284 C 113.221 -4.2855 0.875426 0
M  V30 1285 C 112.28 -5.25849 0.192042 0
M  V30 1286 O 111.306 -5.63102 0.830921 0
M  V30 1287 N 112.508 -5.70648 -1.06493 0
M  V30 1288 H 115.273 -2.57439 1.53444 0
M  V30 1289 H 112.834 -1.31057 0.950557 0
M  V30 1290 H 114.826 -4.00936 -0.550685 0
M  V30 1291 H 113.396 -2.99947 -0.880386 0
M  V30 1292 H 112.616 -3.63617 1.52238 0
M  V30 1293 H 113.904 -4.85393 1.52548 0
M  V30 1294 H 113.302 -5.42482 -1.60405 0
M  V30 1295 H 111.859 -6.34859 -1.47641 0
M  V30 1296 N 115.292 -0.849877 -1.32721 0
M  V30 1297 C 116.517 -0.463856 -2.02146 0
M  V30 1298 C 116.942 0.930449 -1.63476 0
M  V30 1299 O 116.3 1.61033 -0.832952 0
M  V30 1300 C 116.348 -0.604955 -3.55489 0
M  V30 1301 O 115.452 0.36425 -4.10788 0
M  V30 1302 H 114.793 -0.187046 -0.637111 0
M  V30 1303 H 117.323 -1.14775 -1.69375 0
M  V30 1304 H 117.333 -0.490696 -4.05038 0
M  V30 1305 H 116.008 -1.62174 -3.82978 0
M  V30 1306 H 114.585 0.206628 -3.72327 0
M  V30 1307 N 116.77 1.45427 -0.607355 0
M  V30 1308 C 118 2.06314 -0.108656 0
M  V30 1309 C 118.408 1.45269 1.21217 0
M  V30 1310 O 117.751 0.561115 1.74921 0
M  V30 1311 C 117.813 3.59345 0.105618 0
M  V30 1312 C 117.477 4.42723 -1.13337 0
M  V30 1313 C 118.474 4.77715 -2.05145 0
M  V30 1314 C 116.159 4.83478 -1.36213 0
M  V30 1315 C 118.153 5.52317 -3.18158 0
M  V30 1316 C 115.84 5.57835 -2.49527 0
M  V30 1317 C 116.838 5.92171 -3.40327 0
M  V30 1318 O 116.526 6.65019 -4.51669 0
M  V30 1319 H 116.258 0.672782 -0.0658842 0
M  V30 1320 H 118.812 1.87664 -0.834945 0
M  V30 1321 H 117.042 3.76394 0.886796 0
M  V30 1322 H 118.731 4.02076 0.555886 0
M  V30 1323 H 119.497 4.46787 -1.88697 0
M  V30 1324 H 115.376 4.56188 -0.664362 0
M  V30 1325 H 118.92 5.79036 -3.89054 0
M  V30 1326 H 114.817 5.88177 -2.65928 0
M  V30 1327 H 115.585 6.83469 -4.50348 0
M  V30 1328 N 118.248 0.346503 1.53744 0
M  V30 1329 C 119.473 -0.253074 2.0585 0
M  V30 1330 C 119.898 -1.43202 1.21962 0
M  V30 1331 O 119.256 -1.79783 0.234073 0
M  V30 1332 C 119.304 -0.643193 3.54817 0
M  V30 1333 O 118.408 -1.74286 3.73762 0
M  V30 1334 H 117.749 -0.0413583 0.662711 0
M  V30 1335 H 120.279 0.501574 1.98357 0
M  V30 1336 H 120.289 -0.919526 3.97503 0
M  V30 1337 H 118.964 0.218966 4.15323 0
M  V30 1338 H 117.541 -1.46356 3.42979 0
M  V30 1339 N 119.726 -1.57421 0.075193 0
M  V30 1340 C 120.658 -2.09904 -0.920483 0
M  V30 1341 C 121.671 -1.03191 -1.25918 0
M  V30 1342 O 122.86 -1.30695 -1.21577 0
M  V30 1343 C 119.96 -2.54726 -2.23534 0
M  V30 1344 C 119.133 -3.8505 -2.07498 0
M  V30 1345 C 118.192 -4.15929 -3.22319 0
M  V30 1346 O 117.218 -4.85474 -2.9716 0
M  V30 1347 N 118.42 -3.69745 -4.47514 0
M  V30 1348 H 121.185 -2.95954 -0.472359 0
M  V30 1349 H 118.746 -1.61523 -0.110444 0
M  V30 1350 H 120.738 -2.72443 -2.9926 0
M  V30 1351 H 119.308 -1.73795 -2.59835 0
M  V30 1352 H 118.528 -3.76679 -1.16219 0
M  V30 1353 H 119.816 -4.70348 -1.94038 0
M  V30 1354 H 119.214 -3.13569 -4.7084 0
M  V30 1355 H 117.771 -3.92655 -5.20255 0
M  V30 1356 N 121.204 0.198386 -1.56346 0
M  V30 1357 C 122.62 0.549085 -1.49857 0
M  V30 1358 C 122.82 1.86016 -0.774611 0
M  V30 1359 O 121.876 2.50416 -0.323776 0
M  V30 1360 C 123.189 0.606868 -2.94512 0
M  V30 1361 C 124.737 0.695925 -3.05165 0
M  V30 1362 C 125.212 0.784848 -4.51225 0
M  V30 1363 N 126.703 0.848463 -4.55363 0
M  V30 1364 C 127.438 0.937378 -5.65686 0
M  V30 1365 N 126.934 0.9888 -6.85707 0
M  V30 1366 N 128.727 0.974312 -5.53592 0
M  V30 1367 H 120.878 -0.661655 -2.01831 0
M  V30 1368 H 123.141 -0.235261 -0.918344 0
M  V30 1369 H 122.847 -0.28732 -3.50524 0
M  V30 1370 H 122.721 1.46268 -3.47686 0
M  V30 1371 H 125.108 1.58055 -2.49204 0
M  V30 1372 H 125.189 -0.186022 -2.55123 0
M  V30 1373 H 124.833 -0.0954072 -5.0781 0
M  V30 1374 H 124.763 1.68255 -4.98997 0
M  V30 1375 H 127.254 0.818103 -3.68938 0
M  V30 1376 H 127.567 1.05707 -7.65536 0
M  V30 1377 H 125.912 0.957534 -6.88372 0
M  V30 1378 H 129.103 0.930954 -4.58749 0
M  V30 1379 H 129.276 1.04015 -6.39597 0
M  V30 1380 N 122.682 1.50554 0.465978 0
M  V30 1381 C 123.63 1.70324 1.58406 0
M  V30 1382 C 124.624 0.569139 1.59553 0
M  V30 1383 O 125.83 0.749776 1.63641 0
M  V30 1384 H 122.205 0.537688 0.525734 0
M  V30 1385 H 124.176 2.64104 1.38894 0
M  V30 1386 C 122.925 1.81928 2.96307 0
M  V30 1387 H 122.248 2.68586 2.96144 0
M  V30 1388 H 123.688 1.99784 3.73982 0
M  V30 1389 C 122.147 0.572095 3.32007 0
M  V30 1390 O 122.677 -0.286416 4.00678 0
M  V30 1391 N 120.883 0.424606 2.87481 0
M  V30 1392 H 120.43 1.12427 2.31771 0
M  V30 1393 H 120.388 -0.408697 3.11732 0
M  V30 1394 N 124.16 -0.719506 1.40217 0
M  V30 1395 C 125.385 -1.51371 1.4178 0
M  V30 1396 C 125.81 -1.88091 0.0182355 0
M  V30 1397 O 125.168 -1.52997 -0.972707 0
M  V30 1398 C 125.216 -2.768 2.31115 0
M  V30 1399 O 124.32 -3.73349 1.7517 0
M  V30 1400 H 123.661 -0.456529 0.482159 0
M  V30 1401 H 126.191 -0.88644 1.844 0
M  V30 1402 H 126.201 -3.25371 2.46167 0
M  V30 1403 H 124.876 -2.49407 3.3282 0
M  V30 1404 H 123.453 -3.32179 1.69444 0
M  V30 1405 N 125.638 -1.25649 -0.95132 0
M  V30 1406 C 126.863 -1.13443 -1.73624 0
M  V30 1407 C 127.288 0.307565 -1.85568 0
M  V30 1408 O 126.646 1.22282 -1.33854 0
M  V30 1409 C 126.694 -1.79723 -3.12621 0
M  V30 1410 O 125.798 -1.07912 -3.98031 0
M  V30 1411 H 125.139 -0.395872 -0.533086 0
M  V30 1412 H 127.669 -1.66276 -1.1922 0
M  V30 1413 H 127.679 -1.86141 -3.63064 0
M  V30 1414 H 126.354 -2.84633 -3.03244 0
M  V30 1415 H 124.931 -1.09398 -3.56492 0
M  V30 1416 N 127.117 1.15442 -1.07289 0
M  V30 1417 C 128.047 2.22312 -0.714107 0
M  V30 1418 C 129.028 1.67467 0.298155 0
M  V30 1419 O 130.213 1.93445 0.171048 0
M  V30 1420 C 127.343 3.47124 -0.110448 0
M  V30 1421 C 126.297 4.14926 -1.04979 0
M  V30 1422 C 125.623 5.33807 -0.308924 0
M  V30 1423 C 126.923 4.64762 -2.38314 0
M  V30 1424 H 128.617 2.5258 -1.6076 0
M  V30 1425 H 126.163 1.21404 -0.77441 0
M  V30 1426 H 128.116 4.21124 0.152482 0
M  V30 1427 H 126.84 3.16187 0.81812 0
M  V30 1428 H 125.499 3.42866 -1.29764 0
M  V30 1429 H 125.147 4.99126 0.623084 0
M  V30 1430 H 124.847 5.80113 -0.935036 0
M  V30 1431 H 126.371 6.10576 -0.0537771 0
M  V30 1432 H 127.785 5.30292 -2.1786 0
M  V30 1433 H 126.182 5.21728 -2.96514 0
M  V30 1434 H 127.252 3.80434 -3.00663 0
M  V30 1435 N 128.595 0.856903 1.32268 0
M  V30 1436 C 129.542 0.301172 2.28827 0
M  V30 1437 C 130.512 -0.593104 1.5515 0
M  V30 1438 O 131.697 -0.527537 1.83362 0
M  V30 1439 C 128.837 -0.502523 3.41422 0
M  V30 1440 C 127.95 0.417797 4.29975 0
M  V30 1441 C 127.085 -0.398749 5.29701 0
M  V30 1442 C 126.124 0.518827 6.09897 0
M  V30 1443 N 125.261 -0.260674 7.01616 0
M  V30 1444 H 130.101 1.12983 2.75751 0
M  V30 1445 H 127.638 0.568582 1.35667 0
M  V30 1446 H 129.596 -0.984141 4.05426 0
M  V30 1447 H 128.226 -1.29599 2.95642 0
M  V30 1448 H 127.278 1.01781 3.66531 0
M  V30 1449 H 128.59 1.12191 4.86019 0
M  V30 1450 H 127.744 -0.943435 5.9932 0
M  V30 1451 H 126.483 -1.13622 4.7428 0
M  V30 1452 H 125.488 1.07538 5.39181 0
M  V30 1453 H 126.713 1.25495 6.67404 0
M  V30 1454 H 124.659 -0.981198 6.4862 0
M  V30 1455 H 124.576 0.384364 7.55022 0
M  V30 1456 H 125.844 -0.787014 7.75517 0
M  V30 1457 N 130.073 -1.45103 0.615059 0
M  V30 1458 C 131.35 -1.95549 0.0448276 0
M  V30 1459 C 131.73 -1.55737 -1.4251 0
M  V30 1460 O 131.078 -0.823556 -2.13143 0
M  V30 1461 C 131.288 -3.48098 0.250785 0
M  V30 1462 C 132.636 -4.24384 0.135509 0
M  V30 1463 O 133.66 -3.55738 0.181299 0
M  V30 1464 O 132.519 -5.46493 0.0268878 0
M  V30 1465 H 129.613 -0.8264 -0.0314845 0
M  V30 1466 H 132.159 -1.55232 0.685642 0
M  V30 1467 H 130.931 -3.7007 1.27139 0
M  V30 1468 H 130.554 -3.95323 -0.424937 0
M  V30 1469 N 131.551 -0.354651 -1.53558 0
M  V30 1470 C 132.8 0.239504 -2.00273 0
M  V30 1471 C 133.113 1.50759 -1.24623 0
M  V30 1472 O 134.319 2.17968 -1.61871 0
M  V30 1473 C 132.775 0.477341 -3.5672 0
M  V30 1474 C 132.383 -0.775488 -4.41237 0
M  V30 1475 C 134.127 1.02975 -4.11821 0
M  V30 1476 C 132.034 -0.507838 -5.89216 0
M  V30 1477 H 130.964 0.0932743 -0.748208 0
M  V30 1478 H 133.615 -0.471701 -1.77334 0
M  V30 1479 H 131.997 1.24953 -3.7577 0
M  V30 1480 H 133.171 -1.54963 -4.33962 0
M  V30 1481 H 131.486 -1.25033 -3.97185 0
M  V30 1482 H 134.083 1.24513 -5.2 0
M  V30 1483 H 134.426 1.98862 -3.65731 0
M  V30 1484 H 134.959 0.317994 -3.96527 0
M  V30 1485 H 131.698 -1.43674 -6.39561 0
M  V30 1486 H 131.218 0.228011 -5.99366 0
M  V30 1487 H 132.897 -0.129238 -6.46871 0
M  V30 1488 N 133.029 1.57378 -0.0835403 0
M  V30 1489 C 134.306 1.85363 0.624507 0
M  V30 1490 C 134.686 0.978239 1.87066 0
M  V30 1491 O 134.034 0.0475908 2.2845 0
M  V30 1492 C 134.244 3.35795 0.950947 0
M  V30 1493 C 135.592 4.03581 1.31939 0
M  V30 1494 O 136.616 3.40609 1.04232 0
M  V30 1495 O 135.475 5.14672 1.83779 0
M  V30 1496 H 132.569 0.766162 0.311329 0
M  V30 1497 H 135.115 1.69307 -0.115362 0
M  V30 1498 H 133.887 3.91244 0.0663899 0
M  V30 1499 H 133.51 3.57154 1.74719 0
M  V30 1500 N 134.507 -0.190092 1.56449 0
M  V30 1501 C 135.756 -0.907912 1.80111 0
M  V30 1502 C 136.069 -1.84214 0.657619 0
M  V30 1503 O 137.275 -2.60094 0.778663 0
M  V30 1504 C 135.731 -1.66485 3.19078 0
M  V30 1505 C 135.339 -0.7752 4.41242 0
M  V30 1506 C 137.083 -2.37201 3.52045 0
M  V30 1507 C 134.99 -1.53129 5.71231 0
M  V30 1508 H 133.92 -0.34276 0.671589 0
M  V30 1509 H 136.571 -0.161109 1.82791 0
M  V30 1510 H 134.953 -2.45572 3.10661 0
M  V30 1511 H 136.127 -0.0226298 4.60794 0
M  V30 1512 H 134.442 -0.178627 4.16017 0
M  V30 1513 H 137.039 -2.94329 4.46402 0
M  V30 1514 H 137.382 -3.11632 2.76028 0
M  V30 1515 H 137.915 -1.65075 3.61932 0
M  V30 1516 H 134.654 -0.82967 6.50228 0
M  V30 1517 H 134.174 -2.25767 5.55688 0
M  V30 1518 H 135.853 -2.08377 6.12526 0
M  V30 1519 N 135.985 -1.50799 -0.457987 0
M  V30 1520 C 136.948 -1.7005 -1.53674 0
M  V30 1521 C 137.948 -0.570881 -1.50325 0
M  V30 1522 O 139.138 -0.838126 -1.52712 0
M  V30 1523 C 136.27 -1.73788 -2.93276 0
M  V30 1524 H 137.463 -2.66306 -1.37917 0
M  V30 1525 H 135.016 -1.40477 -0.685271 0
M  V30 1526 H 135.751 -0.792717 -3.14462 0
M  V30 1527 H 135.536 -2.55864 -2.97113 0
M  V30 1528 H 137.026 -1.90591 -3.71571 0
M  V30 1529 N 137.463 0.71206 -1.40597 0
M  V30 1530 C 138.879 1.02058 -1.22704 0
M  V30 1531 C 139.079 2.01228 -0.104729 0
M  V30 1532 O 138.135 2.4674 0.53624 0
M  V30 1533 C 139.448 1.56094 -2.57012 0
M  V30 1534 C 140.996 1.6806 -2.64054 0
M  V30 1535 C 141.471 2.25501 -3.9864 0
M  V30 1536 N 142.962 2.32882 -4.004 0
M  V30 1537 C 143.697 2.78317 -5.01325 0
M  V30 1538 N 143.193 3.23478 -6.12645 0
M  V30 1539 N 144.986 2.77733 -4.88693 0
M  V30 1540 H 137.137 0.0547896 -2.12329 0
M  V30 1541 H 139.4 0.0869027 -0.944008 0
M  V30 1542 H 139.106 0.906865 -3.39807 0
M  V30 1543 H 138.98 2.54564 -2.78347 0
M  V30 1544 H 141.367 2.32583 -1.81629 0
M  V30 1545 H 141.448 0.681802 -2.46546 0
M  V30 1546 H 141.092 1.61598 -4.81506 0
M  V30 1547 H 141.022 3.26102 -4.13479 0
M  V30 1548 H 143.513 2.00991 -3.20017 0
M  V30 1549 H 143.826 3.56725 -6.85542 0
M  V30 1550 H 142.171 3.21429 -6.16205 0
M  V30 1551 H 145.362 2.4179 -4.00818 0
M  V30 1552 H 145.535 3.12826 -5.67489 0
M  V30 1553 N 138.941 1.26152 0.944643 0
M  V30 1554 C 139.851 1.09176 2.07648 0
M  V30 1555 C 140.867 0.0261935 1.7398 0
M  V30 1556 O 142.043 0.229208 2.00091 0
M  V30 1557 C 139.108 0.722915 3.39079 0
M  V30 1558 C 138.169 1.86752 3.86552 0
M  V30 1559 C 137.402 1.51617 5.11711 0
M  V30 1560 O 137.625 0.416331 5.68879 0
M  V30 1561 O 136.559 2.34975 5.54139 0
M  V30 1562 H 140.385 2.0412 2.24875 0
M  V30 1563 H 137.97 1.05182 1.061 0
M  V30 1564 H 139.852 0.529787 4.18056 0
M  V30 1565 H 138.527 -0.197159 3.23099 0
M  V30 1566 H 137.434 2.11558 3.08535 0
M  V30 1567 H 138.767 2.76719 4.07047 0
M  V30 1568 N 140.419 -1.14872 1.07899 0
M  V30 1569 C 141.367 -2.21857 0.698727 0
M  V30 1570 C 142.361 -1.66845 -0.293086 0
M  V30 1571 O 143.567 -1.79321 -0.156204 0
M  V30 1572 H 139.942 -0.722691 0.207899 0
M  V30 1573 H 141.913 -2.51205 1.61054 0
M  V30 1574 C 140.662 -3.47498 0.11858 0
M  V30 1575 H 139.985 -3.90154 0.872914 0
M  V30 1576 H 141.425 -4.23858 -0.109759 0
M  V30 1577 C 139.884 -3.16947 -1.1422 0
M  V30 1578 O 140.414 -3.3426 -2.22785 0
M  V30 1579 N 138.62 -2.70946 -1.05055 0
M  V30 1580 H 138.167 -2.57058 -0.167038 0
M  V30 1581 H 138.125 -2.50879 -1.89491 0
M  V30 1582 N 141.898 -0.863906 -1.31812 0
M  V30 1583 C 142.846 -0.30422 -2.30602 0
M  V30 1584 C 143.84 0.577419 -1.59255 0
M  V30 1585 O 145.046 0.464194 -1.73912 0
M  V30 1586 H 141.421 -0.0796877 -0.747766 0
M  V30 1587 H 143.392 -1.15148 -2.75288 0
M  V30 1588 C 142.141 0.484617 -3.44306 0
M  V30 1589 H 141.464 -0.18451 -3.99374 0
M  V30 1590 H 142.904 0.841664 -4.15562 0
M  V30 1591 C 141.363 1.6735 -2.92396 0
M  V30 1592 O 141.893 2.77273 -2.90659 0
M  V30 1593 N 140.099 1.50362 -2.48676 0
M  V30 1594 H 139.646 0.609402 -2.50288 0
M  V30 1595 H 139.604 2.30051 -2.14299 0
M  V30 1596 N 143.376 1.44774 -0.622745 0
M  V30 1597 C 144.787 1.85546 -0.207226 0
M  V30 1598 C 145.138 1.52093 1.23944 0
M  V30 1599 O 144.263 0.95492 1.94191 0
M  V30 1600 C 144.858 3.36781 -0.369313 0
M  V30 1601 C 143.417 3.76399 -0.00836847 0
M  V30 1602 C 142.564 2.68664 -0.686651 0
M  V30 1603 H 145.515 1.3536 -0.828454 0
M  V30 1604 H 145.536 3.78453 0.394162 0
M  V30 1605 H 145.048 3.61098 -1.42231 0
M  V30 1606 H 143.149 3.57698 1.04322 0
M  V30 1607 H 143.262 4.7732 -0.412584 0
M  V30 1608 H 141.626 2.54404 -0.122777 0
M  V30 1609 H 142.409 2.95815 -1.74208 0
M  V30 1610 N 144.854 0.36279 1.53368 0
M  V30 1611 C 146.131 -0.284021 1.93527 0
M  V30 1612 C 146.511 -1.66628 1.29608 0
M  V30 1613 O 145.859 -2.23942 0.45413 0
M  V30 1614 C 146.069 -0.337028 3.47369 0
M  V30 1615 C 147.417 -0.578708 4.20638 0
M  V30 1616 O 148.441 -0.418352 3.53735 0
M  V30 1617 O 147.3 -0.89074 5.39192 0
M  V30 1618 H 144.394 -0.169743 0.809393 0
M  V30 1619 H 146.94 0.41537 1.64538 0
M  V30 1620 H 145.712 0.632217 3.86159 0
M  V30 1621 H 145.335 -1.08243 3.82582 0
M  V30 1622 N 146.332 -1.57332 0.0918853 0
M  V30 1623 C 147.578 -1.95328 -0.567313 0
M  V30 1624 C 147.933 -0.972866 -1.65991 0
M  V30 1625 O 147.226 0.00166256 -1.916 0
M  V30 1626 C 147.42 -3.37689 -1.17051 0
M  V30 1627 C 147.249 -4.49489 -0.137875 0
M  V30 1628 C 146.019 -5.04498 0.284515 0
M  V30 1629 C 148.217 -5.10393 0.63271 0
M  V30 1630 N 146.199 -5.99853 1.30576 0
M  V30 1631 C 147.57 -6.01435 1.50587 0
M  V30 1632 C 149.625 -4.93143 0.68658 0
M  V30 1633 C 148.328 -6.77077 2.42815 0
M  V30 1634 C 150.354 -5.69445 1.59645 0
M  V30 1635 C 149.716 -6.60151 2.45725 0
M  V30 1636 H 145.815 -0.761467 -0.178023 0
M  V30 1637 H 148.399 -1.93924 0.173706 0
M  V30 1638 H 146.57 -3.39793 -1.88136 0
M  V30 1639 H 148.302 -3.62872 -1.79181 0
M  V30 1640 H 145.057 -4.73489 -0.102593 0
M  V30 1641 H 145.481 -6.52231 1.81449 0
M  V30 1642 H 150.123 -4.22785 0.035244 0
M  V30 1643 H 147.841 -7.46699 3.08975 0
M  V30 1644 H 151.427 -5.58112 1.64323 0
M  V30 1645 H 150.307 -7.18159 3.14987 0
M  V30 1646 N 147.81 0.181792 -1.56548 0
M  V30 1647 C 149.059 0.898348 -1.8059 0
M  V30 1648 C 149.372 1.83862 -0.667379 0
M  V30 1649 O 150.578 2.59678 -0.792446 0
M  V30 1650 C 149.034 1.64791 -3.19956 0
M  V30 1651 C 148.642 0.751789 -4.41647 0
M  V30 1652 C 150.386 2.35331 -3.53298 0
M  V30 1653 C 148.293 1.50098 -5.72035 0
M  V30 1654 H 147.223 0.339194 -0.673397 0
M  V30 1655 H 149.874 0.151413 -1.82874 0
M  V30 1656 H 148.256 2.43921 -3.11959 0
M  V30 1657 H 149.43 -0.0018076 -4.608 0
M  V30 1658 H 147.745 0.156562 -4.16106 0
M  V30 1659 H 150.342 2.91958 -4.47956 0
M  V30 1660 H 150.685 3.10164 -2.77676 0
M  V30 1661 H 151.218 1.63154 -3.62803 0
M  V30 1662 H 147.957 0.795175 -6.50659 0
M  V30 1663 H 147.477 2.22817 -5.56878 0
M  V30 1664 H 149.156 2.05125 -6.13622 0
M  V30 1665 N 149.288 1.51039 0.449983 0
M  V30 1666 C 150.218 1.74379 1.55288 0
M  V30 1667 C 151.199 0.593236 1.5942 0
M  V30 1668 O 152.384 0.834625 1.7535 0
M  V30 1669 C 149.514 1.85728 2.93466 0
M  V30 1670 C 148.468 3.01078 3.04197 0
M  V30 1671 C 147.794 2.97595 4.44231 0
M  V30 1672 C 149.094 4.41254 2.7945 0
M  V30 1673 H 150.788 2.66725 1.36008 0
M  V30 1674 H 148.334 1.2835 0.652864 0
M  V30 1675 H 150.287 2.0064 3.70569 0
M  V30 1676 H 149.011 0.900207 3.13949 0
M  V30 1677 H 147.67 2.85851 2.29531 0
M  V30 1678 H 147.318 1.99691 4.61663 0
M  V30 1679 H 147.018 3.75046 4.52343 0
M  V30 1680 H 148.542 3.14583 5.23326 0
M  V30 1681 H 149.956 4.56897 3.46292 0
M  V30 1682 H 148.353 5.20315 2.98985 0
M  V30 1683 H 149.423 4.52164 1.75144 0
M  V30 1684 N 150.766 -0.704594 1.40972 0
M  V30 1685 C 151.991 -1.49858 1.43378 0
M  V30 1686 C 152.416 -1.88061 0.038184 0
M  V30 1687 O 151.774 -1.5402 -0.956425 0
M  V30 1688 C 151.822 -2.74333 2.34038 0
M  V30 1689 O 150.926 -3.7147 1.7912 0
M  V30 1690 H 150.267 -0.45139 0.486974 0
M  V30 1691 H 152.797 -0.866832 1.8533 0
M  V30 1692 H 152.807 -3.22741 2.49604 0
M  V30 1693 H 151.482 -2.45863 3.35446 0
M  V30 1694 H 150.059 -3.30363 1.72958 0
M  V30 1695 N 152.244 -1.26651 -0.937939 0
M  V30 1696 C 153.192 -1.08308 -2.05845 0
M  V30 1697 C 154.186 -0.0090757 -1.69398 0
M  V30 1698 O 155.392 -0.166007 -1.79233 0
M  V30 1699 H 151.767 -0.333416 -0.674046 0
M  V30 1700 H 153.738 -2.03261 -2.18467 0
M  V30 1701 C 152.487 -0.736229 -3.39816 0
M  V30 1702 H 151.81 -1.55453 -3.6834 0
M  V30 1703 H 153.25 -0.64769 -4.19024 0
M  V30 1704 C 151.709 0.558824 -3.32233 0
M  V30 1705 O 152.239 1.59621 -3.68624 0
M  V30 1706 N 150.445 0.550657 -2.85335 0
M  V30 1707 H 149.992 -0.293943 -2.55917 0
M  V30 1708 H 149.95 1.41726 -2.80644 0
M  V30 1709 N 153.722 1.14298 -1.08507 0
M  V30 1710 C 154.669 2.19414 -0.715965 0
M  V30 1711 C 155.639 1.63399 0.298326 0
M  V30 1712 O 156.824 1.89929 0.182101 0
M  V30 1713 C 153.964 3.44845 -0.132534 0
M  V30 1714 C 153.077 4.15007 -1.19973 0
M  V30 1715 C 152.212 5.28024 -0.580048 0
M  V30 1716 C 151.251 5.9002 -1.62921 0
M  V30 1717 N 150.388 6.94485 -1.03125 0
M  V30 1718 H 155.228 2.50336 -1.61666 0
M  V30 1719 H 152.765 1.2293 -0.807882 0
M  V30 1720 H 154.723 4.16601 0.223454 0
M  V30 1721 H 153.353 3.14403 0.731467 0
M  V30 1722 H 152.405 3.41629 -1.67313 0
M  V30 1723 H 153.717 4.57178 -1.99473 0
M  V30 1724 H 152.871 6.06455 -0.172364 0
M  V30 1725 H 151.61 4.87076 0.246603 0
M  V30 1726 H 150.615 5.10291 -2.04654 0
M  V30 1727 H 151.84 6.33042 -2.45835 0
M  V30 1728 H 149.786 6.55612 -0.225711 0
M  V30 1729 H 149.703 7.35148 -1.76334 0
M  V30 1730 H 150.971 7.7679 -0.649458 0
M  V30 1731 N 155.201 0.870884 1.31352 0
M  V30 1732 C 156.133 0.28455 2.27427 0
M  V30 1733 C 157.146 -0.552927 1.53123 0
M  V30 1734 O 158.335 -0.374771 1.74521 0
M  V30 1735 C 155.435 -0.615164 3.3327 0
M  V30 1736 C 154.608 0.190079 4.36987 0
M  V30 1737 C 153.667 -0.637917 5.22319 0
M  V30 1738 O 152.693 -0.065626 5.69162 0
M  V30 1739 N 153.895 -1.94973 5.46778 0
M  V30 1740 H 156.66 1.11017 2.7838 0
M  V30 1741 H 154.221 0.732458 1.44384 0
M  V30 1742 H 156.213 -1.1748 3.87273 0
M  V30 1743 H 154.783 -1.34146 2.82354 0
M  V30 1744 H 154.003 0.931165 3.83044 0
M  V30 1745 H 155.291 0.742579 5.03352 0
M  V30 1746 H 154.689 -2.4378 5.10478 0
M  V30 1747 H 153.246 -2.45713 6.03712 0
M  V30 1748 N 156.679 -1.44442 0.630414 0
M  V30 1749 C 157.925 -2.02351 0.134816 0
M  V30 1750 C 158.258 -1.4947 -1.23986 0
M  V30 1751 O 157.533 -0.678475 -1.82283 0
M  V30 1752 C 157.816 -3.59898 0.120707 0
M  V30 1753 C 157.669 -4.23063 1.52767 0
M  V30 1754 C 158.988 -4.36585 -0.555127 0
M  V30 1755 H 156.107 -0.73527 0.0504646 0
M  V30 1756 H 158.749 -1.72022 0.806751 0
M  V30 1757 H 156.899 -3.85868 -0.451477 0
M  V30 1758 H 158.571 -4.08202 2.14869 0
M  V30 1759 H 156.814 -3.80586 2.08175 0
M  V30 1760 H 157.485 -5.32071 1.46984 0
M  V30 1761 H 159.961 -4.16044 -0.0685429 0
M  V30 1762 H 158.837 -5.46294 -0.534185 0
M  V30 1763 H 159.098 -4.11138 -1.62535 0
M  V30 1764 N 158.157 -0.370918 -1.53173 0
M  V30 1765 C 159.405 0.216673 -2.00935 0
M  V30 1766 C 159.726 1.48845 -1.25977 0
M  V30 1767 O 158.996 1.92286 -0.374551 0
M  V30 1768 H 157.576 0.0830565 -0.742368 0
M  V30 1769 H 160.238 -0.49838 -1.8842 0
M  V30 1770 H 159.334 0.439893 -3.08984 0
M  V30 1771 N 159.635 1.57281 -0.100228 0
M  V30 1772 C 160.883 1.94153 0.561157 0
M  V30 1773 C 161.204 0.983157 1.68401 0
M  V30 1774 O 160.474 0.0361132 1.95867 0
M  V30 1775 H 159.054 0.716791 0.210283 0
M  V30 1776 H 161.716 1.94202 -0.164765 0
M  V30 1777 H 160.812 2.96709 0.968008 0
M  V30 1778 N 161.113 -0.173488 1.56642 0
M  V30 1779 C 162.359 -0.891784 1.8214 0
M  V30 1780 C 162.692 -1.8199 0.677736 0
M  V30 1781 O 161.967 -1.91842 -0.320446 0
M  V30 1782 C 162.25 -1.68933 3.18015 0
M  V30 1783 C 162.103 -0.784487 4.42906 0
M  V30 1784 C 163.422 -2.65748 3.50808 0
M  V30 1785 H 160.541 -0.322761 0.662567 0
M  V30 1786 H 163.183 -0.158095 1.89341 0
M  V30 1787 H 161.333 -2.31482 3.12007 0
M  V30 1788 H 163.005 -0.172046 4.60979 0
M  V30 1789 H 161.248 -0.0924117 4.33702 0
M  V30 1790 H 161.919 -1.37799 5.34524 0
M  V30 1791 H 164.395 -2.13327 3.57255 0
M  V30 1792 H 163.271 -3.18619 4.4696 0
M  V30 1793 H 163.532 -3.45842 2.75401 0
M  V30 1794 N 162.591 -1.51276 -0.441967 0
M  V30 1795 C 163.831 -1.65372 -1.20132 0
M  V30 1796 C 164.195 -0.359871 -1.88597 0
M  V30 1797 O 165.396 -0.376551 -2.66149 0
M  V30 1798 C 163.667 -2.8207 -2.1948 0
M  V30 1799 S 165.226 -3.16467 -3.03964 0
M  V30 1800 H 162.044 -0.582669 -0.407453 0
M  V30 1801 H 164.646 -1.89166 -0.493609 0
M  V30 1802 H 163.35 -3.74523 -1.67812 0
M  V30 1803 H 162.881 -2.6045 -2.94838 0
M  V30 1804 H 164.896 -2.62543 -4.21053 0
M  V30 1805 N 164.069 0.697108 -1.41344 0
M  V30 1806 C 165.299 1.48377 -1.43763 0
M  V30 1807 C 165.707 1.89156 -0.0408726 0
M  V30 1808 O 165.05 1.57239 0.949812 0
M  V30 1809 C 165.112 2.7781 -2.2817 0
M  V30 1810 C 164.776 2.59244 -3.76353 0
M  V30 1811 C 165.773 2.25292 -4.68551 0
M  V30 1812 C 163.458 2.74933 -4.20378 0
M  V30 1813 C 165.452 2.07264 -6.02761 0
M  V30 1814 C 163.139 2.56521 -5.54653 0
M  V30 1815 C 164.137 2.22737 -6.4566 0
M  V30 1816 O 163.825 2.04485 -7.77458 0
M  V30 1817 H 163.557 0.463842 -0.491759 0
M  V30 1818 H 166.111 0.865934 -1.86255 0
M  V30 1819 H 164.341 3.41995 -1.8049 0
M  V30 1820 H 166.03 3.39608 -2.22309 0
M  V30 1821 H 166.796 2.12787 -4.35829 0
M  V30 1822 H 162.675 3.00213 -3.49848 0
M  V30 1823 H 166.219 1.80817 -6.73759 0
M  V30 1824 H 162.116 2.68616 -5.86955 0
M  V30 1825 H 162.884 2.1926 -7.88586 0
M  V30 1826 N 165.547 1.27147 0.931209 0
M  V30 1827 C 166.793 1.13446 1.68101 0
M  V30 1828 C 167.126 -0.319628 1.91552 0
M  V30 1829 O 166.401 -1.23407 1.50336 0
M  V30 1830 C 166.684 1.91482 3.0497 0
M  V30 1831 C 166.537 3.44855 2.88782 0
M  V30 1832 C 167.856 1.71651 4.05246 0
M  V30 1833 H 164.975 0.413498 0.610072 0
M  V30 1834 H 167.617 1.56261 1.08086 0
M  V30 1835 H 165.767 1.55095 3.56199 0
M  V30 1836 H 167.439 3.9105 2.44698 0
M  V30 1837 H 165.682 3.71373 2.24198 0
M  V30 1838 H 166.353 3.94694 3.85902 0
M  V30 1839 H 168.829 2.0337 3.63015 0
M  V30 1840 H 167.705 2.28651 4.99009 0
M  V30 1841 H 167.966 0.663555 4.37092 0
M  V30 1842 N 167.025 -1.13721 1.09112 0
M  V30 1843 C 168.302 -1.81155 0.737706 0
M  V30 1844 C 168.682 -1.96253 -0.777683 0
M  V30 1845 O 168.03 -1.52807 -1.69889 0
M  V30 1846 C 168.24 -3.16392 1.47299 0
M  V30 1847 C 169.588 -3.91787 1.63671 0
M  V30 1848 O 170.612 -3.26005 1.43524 0
M  V30 1849 O 169.471 -5.0977 1.96969 0
M  V30 1850 H 166.565 -0.783518 0.26463 0
M  V30 1851 H 169.111 -1.20676 1.19312 0
M  V30 1852 H 167.883 -3.0061 2.50498 0
M  V30 1853 H 167.506 -3.8457 1.00953 0
M  V30 1854 N 168.503 -0.877838 -1.30888 0
M  V30 1855 C 169.433 -0.35534 -2.3078 0
M  V30 1856 C 170.414 0.557994 -1.60687 0
M  V30 1857 O 171.599 0.473355 -1.88343 0
M  V30 1858 C 168.729 0.437221 -3.44537 0
M  V30 1859 C 167.683 -0.383715 -4.26276 0
M  V30 1860 C 167.009 0.535014 -5.32017 0
M  V30 1861 C 168.309 -1.62201 -4.96476 0
M  V30 1862 H 170.003 -1.19007 -2.74732 0
M  V30 1863 H 167.549 -0.573698 -1.32078 0
M  V30 1864 H 169.502 0.813334 -4.13477 0
M  V30 1865 H 168.226 1.30553 -2.99372 0
M  V30 1866 H 166.885 -0.741874 -3.59015 0
M  V30 1867 H 166.533 1.40083 -4.831 0
M  V30 1868 H 166.233 -0.0104211 -5.87599 0
M  V30 1869 H 167.757 0.907799 -6.03814 0
M  V30 1870 H 169.171 -1.31689 -5.5797 0
M  V30 1871 H 167.568 -2.10711 -5.61891 0
M  V30 1872 H 168.638 -2.37044 -4.23011 0
M  V30 1873 N 169.982 1.44106 -0.638065 0
M  V30 1874 C 171.229 2.01978 -0.14533 0
M  V30 1875 C 171.557 1.50234 1.23532 0
M  V30 1876 O 170.812 0.679548 1.83523 0
M  V30 1877 C 171.111 3.5729 -0.0887327 0
M  V30 1878 C 170.777 4.28317 -1.40909 0
M  V30 1879 C 169.439 4.47437 -1.77069 0
M  V30 1880 C 171.791 4.6867 -2.28031 0
M  V30 1881 C 169.119 5.04171 -3.00047 0
M  V30 1882 C 171.471 5.26766 -3.50286 0
M  V30 1883 C 170.135 5.44104 -3.86661 0
M  V30 1884 H 169.405 0.739089 -0.0531801 0
M  V30 1885 H 172.052 1.72781 -0.825761 0
M  V30 1886 H 170.357 3.8594 0.675095 0
M  V30 1887 H 172.054 3.99807 0.309145 0
M  V30 1888 H 168.644 4.1377 -1.1177 0
M  V30 1889 H 172.828 4.53604 -2.01388 0
M  V30 1890 H 168.084 5.15782 -3.28298 0
M  V30 1891 H 172.258 5.56983 -4.18023 0
M  V30 1892 H 169.885 5.87832 -4.82034 0
M  V30 1893 N 171.46 0.379036 1.52974 0
M  V30 1894 C 172.423 -0.448865 2.24762 0
M  V30 1895 C 173.423 -0.998689 1.26027 0
M  V30 1896 O 174.613 -0.882313 1.50203 0
M  V30 1897 C 171.745 -1.62872 2.99476 0
M  V30 1898 H 172.938 0.179491 2.99362 0
M  V30 1899 H 170.491 0.13096 1.5575 0
M  V30 1900 H 171.226 -2.29479 2.29151 0
M  V30 1901 H 171.011 -1.24128 3.71934 0
M  V30 1902 H 172.501 -2.2151 3.5401 0
M  V30 1903 N 172.938 -1.57226 0.108567 0
M  V30 1904 C 174.186 -1.94448 -0.550853 0
M  V30 1905 C 174.507 -0.992074 -1.67878 0
M  V30 1906 O 173.777 -0.0465 -1.95845 0
M  V30 1907 H 172.357 -0.717897 -0.206479 0
M  V30 1908 H 175.019 -1.94112 0.175062 0
M  V30 1909 H 174.115 -2.97218 -0.952259 0
M  V30 1910 N 174.416 0.165178 -1.56732 0
M  V30 1911 C 175.693 0.908443 -1.73224 0
M  V30 1912 C 176.073 2.0013 -0.67165 0
M  V30 1913 O 175.421 2.26353 0.31253 0
M  V30 1914 C 175.631 1.46756 -3.16644 0
M  V30 1915 C 176.979 1.93809 -3.77787 0
M  V30 1916 O 178.003 1.56537 -3.1996 0
M  V30 1917 O 176.862 2.62486 -4.79336 0
M  V30 1918 H 173.956 0.428025 -0.707618 0
M  V30 1919 H 176.502 0.152526 -1.69013 0
M  V30 1920 H 175.274 0.68129 -3.85323 0
M  V30 1921 H 174.897 2.28749 -3.25207 0
M  V30 1922 N 175.894 1.51508 0.433938 0
M  V30 1923 C 176.824 1.76016 1.53429 0
M  V30 1924 C 177.805 0.610112 1.58782 0
M  V30 1925 O 178.99 0.853177 1.74455 0
M  V30 1926 C 176.12 1.88831 2.9148 0
M  V30 1927 C 175.074 3.04288 3.00987 0
M  V30 1928 C 174.4 3.0229 4.4105 0
M  V30 1929 C 175.7 4.44193 2.74754 0
M  V30 1930 H 177.394 2.68152 1.33171 0
M  V30 1931 H 174.94 1.29035 0.639214 0
M  V30 1932 H 176.893 2.04559 3.6842 0
M  V30 1933 H 175.617 0.933455 3.12976 0
M  V30 1934 H 174.276 2.8827 2.26486 0
M  V30 1935 H 173.924 2.04576 4.59519 0
M  V30 1936 H 173.624 3.79822 4.4834 0
M  V30 1937 H 175.148 3.20116 5.1996 0
M  V30 1938 H 176.562 4.60544 3.41426 0
M  V30 1939 H 174.959 5.23457 2.9345 0
M  V30 1940 H 176.029 4.53996 1.70339 0
M  V30 1941 N 177.372 -0.689602 1.41712 0
M  V30 1942 C 178.319 -1.80345 1.44029 0
M  V30 1943 C 179.289 -1.63478 0.293948 0
M  V30 1944 O 180.474 -1.84244 0.495869 0
M  V30 1945 C 177.614 -3.18272 1.33405 0
M  V30 1946 C 176.727 -3.46529 2.57956 0
M  V30 1947 C 175.862 -4.74103 2.39582 0
M  V30 1948 C 174.901 -4.95347 3.5958 0
M  V30 1949 N 174.038 -6.14151 3.40239 0
M  V30 1950 H 178.878 -1.77698 2.39222 0
M  V30 1951 H 176.415 -0.867688 1.18784 0
M  V30 1952 H 178.373 -3.97956 1.25246 0
M  V30 1953 H 177.003 -3.2008 0.418164 0
M  V30 1954 H 176.055 -2.61207 2.76542 0
M  V30 1955 H 177.367 -3.58126 3.47199 0
M  V30 1956 H 176.521 -5.61853 2.28924 0
M  V30 1957 H 175.26 -4.64763 1.47805 0
M  V30 1958 H 174.265 -4.06044 3.70686 0
M  V30 1959 H 175.49 -5.06542 4.52318 0
M  V30 1960 H 173.436 -6.06013 2.51167 0
M  V30 1961 H 173.353 -6.26543 4.23061 0
M  V30 1962 H 174.621 -7.04619 3.33365 0
M  V30 1963 N 178.85 -1.27639 -0.924453 0
M  V30 1964 C 180.098 -1.13941 -1.66918 0
M  V30 1965 C 180.419 0.314589 -1.92446 0
M  V30 1966 O 179.689 1.21964 -1.53303 0
M  V30 1967 H 178.269 -0.418678 -0.618642 0
M  V30 1968 H 180.931 -1.60213 -1.10985 0
M  V30 1969 H 180.027 -1.67094 -2.63602 0
M  V30 1970 N 180.328 1.1314 -1.09713 0
M  V30 1971 C 181.258 2.20748 -0.761102 0
M  V30 1972 C 182.239 1.68061 0.262566 0
M  V30 1973 O 183.424 1.93765 0.129977 0
M  V30 1974 C 180.554 3.46812 -0.184054 0
M  V30 1975 C 179.508 4.12606 -1.13757 0
M  V30 1976 C 178.834 5.33031 -0.422083 0
M  V30 1977 C 180.134 4.59603 -2.48118 0
M  V30 1978 H 181.828 2.49113 -1.66082 0
M  V30 1979 H 179.374 1.19734 -0.799987 0
M  V30 1980 H 181.327 4.21353 0.0631215 0
M  V30 1981 H 180.051 3.17851 0.750868 0
M  V30 1982 H 178.71 3.40036 -1.37007 0
M  V30 1983 H 178.358 5.00335 0.517072 0
M  V30 1984 H 178.058 5.77999 -1.05788 0
M  V30 1985 H 179.582 6.10325 -0.183277 0
M  V30 1986 H 180.996 5.25552 -2.29059 0
M  V30 1987 H 179.393 5.15321 -3.07514 0
M  V30 1988 H 180.463 3.73971 -3.08665 0
M  V30 1989 N 181.806 0.884767 1.30421 0
M  V30 1990 C 182.753 0.349642 2.28136 0
M  V30 1991 C 183.723 -0.560061 1.56373 0
M  V30 1992 O 184.908 -0.488524 1.8444 0
M  V30 1993 C 182.048 -0.42999 3.42411 0
M  V30 1994 C 181.161 0.508907 4.28992 0
M  V30 1995 C 180.296 -0.286301 5.30428 0
M  V30 1996 C 179.335 0.648079 6.08659 0
M  V30 1997 N 178.472 -0.111792 7.02011 0
M  V30 1998 H 183.312 1.18807 2.73293 0
M  V30 1999 H 180.849 0.597231 1.3443 0
M  V30 2000 H 182.807 -0.897923 4.07423 0
M  V30 2001 H 181.437 -1.23299 2.98324 0
M  V30 2002 H 180.489 1.09533 3.64289 0
M  V30 2003 H 181.801 1.22475 4.8353 0
M  V30 2004 H 180.955 -0.816098 6.01186 0
M  V30 2005 H 179.694 -1.03536 4.76583 0
M  V30 2006 H 178.699 1.18951 5.36778 0
M  V30 2007 H 179.924 1.39623 6.64592 0
M  V30 2008 H 177.87 -0.843395 6.50556 0
M  V30 2009 H 177.787 0.544429 7.54037 0
M  V30 2010 H 179.055 -0.622339 7.77012 0
M  V30 2011 N 183.284 -1.43765 0.645699 0
M  V30 2012 C 184.561 -1.9541 0.0862963 0
M  V30 2013 C 184.941 -1.58725 -1.39175 0
M  V30 2014 O 184.289 -0.868581 -2.11348 0
M  V30 2015 C 184.499 -3.47488 0.324565 0
M  V30 2016 C 185.847 -4.24001 0.225497 0
M  V30 2017 O 186.871 -3.55274 0.256715 0
M  V30 2018 O 185.73 -5.46313 0.142801 0
M  V30 2019 H 182.824 -0.826882 -0.0139483 0
M  V30 2020 H 185.37 -1.53743 0.718415 0
M  V30 2021 H 184.142 -3.67289 1.3496 0
M  V30 2022 H 183.765 -3.96135 -0.340987 0
M  V30 2023 N 184.763 -0.387143 -1.52771 0
M  V30 2024 C 185.71 0.449048 -2.26389 0
M  V30 2025 C 186.68 1.05961 -1.27912 0
M  V30 2026 O 187.865 1.08804 -1.56737 0
M  V30 2027 C 185.005 1.57155 -3.0724 0
M  V30 2028 C 184.118 0.984066 -4.20643 0
M  V30 2029 C 183.253 2.07745 -4.88892 0
M  V30 2030 C 182.292 1.46574 -5.94292 0
M  V30 2031 N 181.429 2.49834 -6.56146 0
M  V30 2032 H 186.269 -0.185205 -2.97424 0
M  V30 2033 H 183.806 -0.103164 -1.46738 0
M  V30 2034 H 185.764 2.23309 -3.52405 0
M  V30 2035 H 184.394 2.17615 -2.38419 0
M  V30 2036 H 183.446 0.212193 -3.79808 0
M  V30 2037 H 184.758 0.497029 -4.96318 0
M  V30 2038 H 183.912 2.81673 -5.3735 0
M  V30 2039 H 182.651 2.59807 -4.12737 0
M  V30 2040 H 181.656 0.711696 -5.45174 0
M  V30 2041 H 182.881 0.953088 -6.72379 0
M  V30 2042 H 180.827 3.0107 -5.82832 0
M  V30 2043 H 180.744 2.05879 -7.27427 0
M  V30 2044 H 182.012 3.23399 -7.09249 0
M  V30 2045 N 186.241 1.57166 -0.116904 0
M  V30 2046 C 187.49 1.94298 0.541407 0
M  V30 2047 C 187.803 1.00236 1.67964 0
M  V30 2048 O 189.009 1.26826 2.40057 0
M  V30 2049 C 187.465 3.45306 1.01449 0
M  V30 2050 C 187.073 4.47899 -0.0951738 0
M  V30 2051 C 188.817 3.91361 1.6443 0
M  V30 2052 C 186.724 5.90083 0.394491 0
M  V30 2053 H 185.654 0.725308 0.206019 0
M  V30 2054 H 188.305 1.82446 -0.196419 0
M  V30 2055 H 186.687 3.52385 1.80667 0
M  V30 2056 H 187.861 4.52486 -0.871374 0
M  V30 2057 H 186.176 4.11583 -0.631505 0
M  V30 2058 H 188.773 4.95004 2.02176 0
M  V30 2059 H 189.116 3.3122 2.52189 0
M  V30 2060 H 189.649 3.87073 0.917559 0
M  V30 2061 H 186.388 6.53974 -0.447004 0
M  V30 2062 H 185.908 5.88921 1.13722 0
M  V30 2063 H 187.587 6.41307 0.856399 0
M  V30 2064 N 187.719 -0.156864 1.56817 0
M  V30 2065 C 189.13 -0.717916 1.72345 0
M  V30 2066 C 189.481 -1.82124 0.729747 0
M  V30 2067 O 188.606 -2.16141 -0.105781 0
M  V30 2068 C 189.201 -1.30904 3.12489 0
M  V30 2069 C 187.76 -1.81676 3.29653 0
M  V30 2070 C 186.907 -0.701349 2.68284 0
M  V30 2071 H 189.858 0.0686989 1.58551 0
M  V30 2072 H 189.879 -2.17882 3.11942 0
M  V30 2073 H 189.391 -0.505796 3.8479 0
M  V30 2074 H 187.492 -2.64598 2.62333 0
M  V30 2075 H 187.605 -1.95226 4.3752 0
M  V30 2076 H 185.969 -1.12548 2.28484 0
M  V30 2077 H 186.752 0.0902846 3.43181 0
M  V30 2078 N 189.197 -1.51736 -0.425897 0
M  V30 2079 C 190.427 -1.68549 -1.19476 0
M  V30 2080 C 190.835 -0.387288 -1.85194 0
M  V30 2081 O 190.178 0.645142 -1.71999 0
M  V30 2082 C 190.24 -2.75275 -2.31223 0
M  V30 2083 C 189.904 -4.17534 -1.8578 0
M  V30 2084 C 190.901 -5.01936 -1.35485 0
M  V30 2085 C 188.586 -4.6369 -1.93123 0
M  V30 2086 C 190.58 -6.30559 -0.931347 0
M  V30 2087 C 188.267 -5.92307 -1.50384 0
M  V30 2088 C 189.265 -6.75569 -1.00473 0
M  V30 2089 O 188.953 -8.0178 -0.583452 0
M  V30 2090 H 188.685 -0.568525 -0.365725 0
M  V30 2091 H 191.239 -1.98982 -0.509444 0
M  V30 2092 H 189.469 -2.40182 -3.03067 0
M  V30 2093 H 191.158 -2.80853 -2.93047 0
M  V30 2094 H 191.924 -4.67475 -1.29197 0
M  V30 2095 H 187.803 -3.98997 -2.30916 0
M  V30 2096 H 191.347 -6.95498 -0.541084 0
M  V30 2097 H 187.244 -6.2628 -1.56346 0
M  V30 2098 H 188.012 -8.1543 -0.708275 0
M  V30 2099 N 190.675 0.682077 -1.42076 0
M  V30 2100 C 191.922 1.44215 -1.42156 0
M  V30 2101 C 192.25 1.94468 -0.0354186 0
M  V30 2102 O 191.505 1.70816 0.955002 0
M  V30 2103 C 191.804 2.66036 -2.38662 0
M  V30 2104 C 191.47 2.34366 -3.85206 0
M  V30 2105 C 190.132 2.25439 -4.25124 0
M  V30 2106 C 192.484 2.08513 -4.77673 0
M  V30 2107 C 189.812 1.88775 -5.55501 0
M  V30 2108 C 192.164 1.73354 -6.08384 0
M  V30 2109 C 190.828 1.62933 -6.47309 0
M  V30 2110 H 190.098 0.527718 -0.520187 0
M  V30 2111 H 192.745 0.778387 -1.74967 0
M  V30 2112 H 191.05 3.3741 -1.99152 0
M  V30 2113 H 192.747 3.24205 -2.35991 0
M  V30 2114 H 189.337 2.42213 -3.53597 0
M  V30 2115 H 193.521 2.14346 -4.47626 0
M  V30 2116 H 188.777 1.7927 -5.84527 0
M  V30 2117 H 192.951 1.52373 -6.79526 0
M  V30 2118 H 190.578 1.34292 -7.48244 0
M  V30 2119 N 192.153 1.28127 0.917671 0
M  V30 2120 C 193.085 1.07517 2.02417 0
M  V30 2121 C 194.098 0.0281099 1.62776 0
M  V30 2122 O 195.287 0.270748 1.76435 0
M  V30 2123 C 192.387 0.610957 3.33347 0
M  V30 2124 C 191.56 1.73255 4.01624 0
M  V30 2125 C 190.619 1.26238 5.10833 0
M  V30 2126 O 189.645 1.96389 5.34247 0
M  V30 2127 N 190.847 0.123448 5.80369 0
M  V30 2128 H 193.612 2.02806 2.20658 0
M  V30 2129 H 191.173 1.19827 1.08871 0
M  V30 2130 H 193.165 0.280101 4.0373 0
M  V30 2131 H 191.735 -0.24898 3.11607 0
M  V30 2132 H 190.955 2.23319 3.24842 0
M  V30 2133 H 192.243 2.48503 4.43986 0
M  V30 2134 H 191.641 -0.461847 5.63812 0
M  V30 2135 H 190.198 -0.148158 6.51632 0
M  V30 2136 N 193.631 -1.12557 1.10312 0
M  V30 2137 C 194.541 -2.21841 0.763142 0
M  V30 2138 C 195.557 -1.72354 -0.238801 0
M  V30 2139 O 196.733 -2.01249 -0.0778746 0
M  V30 2140 C 193.798 -3.46131 0.198632 0
M  V30 2141 C 192.859 -4.10464 1.25769 0
M  V30 2142 C 192.092 -5.28821 0.72002 0
M  V30 2143 O 192.315 -5.6859 -0.453993 0
M  V30 2144 O 191.249 -5.83437 1.47935 0
M  V30 2145 H 195.075 -2.53312 1.67532 0
M  V30 2146 H 192.66 -1.20867 0.878157 0
M  V30 2147 H 194.542 -4.2125 -0.112401 0
M  V30 2148 H 193.217 -3.16338 -0.686419 0
M  V30 2149 H 192.124 -3.3713 1.62156 0
M  V30 2150 H 193.457 -4.44408 2.11571 0
M  V30 2151 N 195.109 -0.891671 -1.2995 0
M  V30 2152 C 196.039 -0.379797 -2.30391 0
M  V30 2153 C 197.02 0.540919 -1.6127 0
M  V30 2154 O 198.205 0.453352 -1.88834 0
M  V30 2155 C 195.335 0.400654 -3.44981 0
M  V30 2156 C 194.289 -0.428905 -4.25846 0
M  V30 2157 C 193.615 0.478557 -5.32554 0
M  V30 2158 C 194.915 -1.67458 -4.94727 0
M  V30 2159 H 196.609 -1.21914 -2.73454 0
M  V30 2160 H 194.155 -0.587675 -1.31462 0
M  V30 2161 H 196.108 0.769434 -4.14316 0
M  V30 2162 H 194.832 1.27371 -3.0074 0
M  V30 2163 H 193.491 -0.779911 -3.58208 0
M  V30 2164 H 193.139 1.34951 -4.84559 0
M  V30 2165 H 192.839 -0.0727433 -5.87555 0
M  V30 2166 H 194.363 0.843705 -6.04743 0
M  V30 2167 H 195.777 -1.376 -5.56542 0
M  V30 2168 H 194.174 -2.16659 -5.59624 0
M  V30 2169 H 195.244 -2.41518 -4.20473 0
M  V30 2170 N 196.587 1.43421 -0.653314 0
M  V30 2171 C 197.835 2.01414 -0.166415 0
M  V30 2172 C 198.156 1.51803 1.22397 0
M  V30 2173 O 197.426 0.730693 1.81763 0
M  V30 2174 H 196.006 0.744703 -0.0585319 0
M  V30 2175 H 198.668 1.75629 -0.845003 0
M  V30 2176 H 197.764 3.11734 -0.151111 0
M  V30 2177 N 198.065 0.39524 1.52563 0
M  V30 2178 C 198.995 -0.428384 2.29537 0
M  V30 2179 C 199.976 -1.05831 1.33169 0
M  V30 2180 O 201.161 -1.06995 1.62067 0
M  V30 2181 C 198.291 -1.55274 3.10656 0
M  V30 2182 C 197.245 -1.04855 4.14957 0
M  V30 2183 C 196.571 -2.26543 4.84337 0
M  V30 2184 C 197.871 -0.112324 5.22179 0
M  V30 2185 H 199.565 0.213867 2.98635 0
M  V30 2186 H 197.111 0.104298 1.43622 0
M  V30 2187 H 199.064 -2.1358 3.63265 0
M  V30 2188 H 197.788 -2.22266 2.39302 0
M  V30 2189 H 196.447 -0.487985 3.63338 0
M  V30 2190 H 196.095 -2.92059 4.09525 0
M  V30 2191 H 195.795 -1.93466 5.54837 0
M  V30 2192 H 197.319 -2.85481 5.39753 0
M  V30 2193 H 198.733 -0.603752 5.70112 0
M  V30 2194 H 197.13 0.128968 5.99961 0
M  V30 2195 H 198.2 0.837052 4.77621 0
M  V30 2196 N 199.544 -1.57102 0.125237 0
M  V30 2197 C 200.772 -1.99761 -0.538797 0
M  V30 2198 C 201.187 -1.00503 -1.59827 0
M  V30 2199 O 200.544 0.00119474 -1.825 0
M  V30 2200 C 200.595 -3.42408 -1.15927 0
M  V30 2201 O 200.316 -4.37869 -0.142143 0
M  V30 2202 C 201.817 -4.00232 -1.90602 0
M  V30 2203 H 199.037 -0.655772 -0.14214 0
M  V30 2204 H 201.581 -2.03383 0.213413 0
M  V30 2205 H 199.736 -3.39706 -1.86223 0
M  V30 2206 H 200.15 -5.21128 -0.593775 0
M  V30 2207 H 201.624 -5.02105 -2.29335 0
M  V30 2208 H 202.101 -3.39721 -2.78363 0
M  V30 2209 H 202.707 -4.06499 -1.25055 0
M  V30 2210 N 201.022 0.148545 -1.56898 0
M  V30 2211 C 202.252 0.875118 -1.8715 0
M  V30 2212 C 202.66 1.75322 -0.711262 0
M  V30 2213 O 202.003 1.80745 0.328151 0
M  V30 2214 C 202.065 1.7844 -3.12089 0
M  V30 2215 C 201.729 1.08361 -4.43967 0
M  V30 2216 C 202.726 0.438247 -5.1805 0
M  V30 2217 C 200.411 1.07358 -4.90693 0
M  V30 2218 C 202.405 -0.20779 -6.37061 0
M  V30 2219 C 200.092 0.42373 -6.09629 0
M  V30 2220 C 201.09 -0.215829 -6.82659 0
M  V30 2221 O 200.778 -0.855378 -7.99336 0
M  V30 2222 H 200.51 0.258504 -0.624621 0
M  V30 2223 H 203.064 0.14652 -2.04877 0
M  V30 2224 H 201.294 2.55389 -2.90367 0
M  V30 2225 H 202.983 2.38279 -3.286 0
M  V30 2226 H 203.749 0.437817 -4.8302 0
M  V30 2227 H 199.628 1.5608 -4.33774 0
M  V30 2228 H 203.172 -0.70758 -6.94002 0
M  V30 2229 H 199.069 0.421822 -6.4412 0
M  V30 2230 H 199.837 -0.756892 -8.14993 0
M  V30 2231 N 202.5 1.5196 0.417844 0
M  V30 2232 C 203.43 1.77634 1.51554 0
M  V30 2233 C 204.411 0.626918 1.58126 0
M  V30 2234 O 205.596 0.871632 1.7354 0
M  V30 2235 C 202.726 1.91911 2.8946 0
M  V30 2236 C 201.68 3.07463 2.97743 0
M  V30 2237 C 201.006 3.06951 4.37819 0
M  V30 2238 C 202.306 4.47082 2.70027 0
M  V30 2239 H 204 2.6955 1.3032 0
M  V30 2240 H 201.546 1.29706 0.625492 0
M  V30 2241 H 203.499 2.08455 3.6623 0
M  V30 2242 H 202.223 0.966598 3.11969 0
M  V30 2243 H 200.882 2.90656 2.23416 0
M  V30 2244 H 200.53 2.09438 4.57323 0
M  V30 2245 H 200.23 3.84556 4.44286 0
M  V30 2246 H 201.754 3.25613 5.16535 0
M  V30 2247 H 203.168 4.6414 3.36522 0
M  V30 2248 H 201.565 5.2654 2.87881 0
M  V30 2249 H 202.635 4.55777 1.65514 0
M  V30 2250 N 203.978 -0.674533 1.42435 0
M  V30 2251 C 204.928 -1.7807 1.4239 0
M  V30 2252 C 205.912 -1.58169 0.295202 0
M  V30 2253 O 207.104 -1.68643 0.537449 0
M  V30 2254 C 204.233 -3.16532 1.32901 0
M  V30 2255 C 203.319 -3.42055 2.50717 0
M  V30 2256 N 203.71 -3.38162 3.76139 0
M  V30 2257 C 202.008 -3.72692 2.44983 0
M  V30 2258 C 202.709 -3.63177 4.54398 0
M  V30 2259 N 201.685 -3.83954 3.84812 0
M  V30 2260 H 205.487 -1.73454 2.37257 0
M  V30 2261 H 203.001 -0.875381 1.36788 0
M  V30 2262 H 204.998 -3.958 1.30951 0
M  V30 2263 H 203.658 -3.22345 0.390363 0
M  V30 2264 H 204.669 -3.18057 4.0873 0
M  V30 2265 H 201.346 -3.85749 1.59699 0
M  V30 2266 H 202.736 -3.66125 5.63384 0
M  V30 2267 N 205.456 -1.28612 -0.910864 0
M  V30 2268 C 206.386 -1.15326 -2.03032 0
M  V30 2269 C 207.367 -0.0502924 -1.70026 0
M  V30 2270 O 208.552 -0.227797 -1.92859 0
M  V30 2271 C 205.682 -0.817343 -3.37545 0
M  V30 2272 C 204.636 -1.8754 -3.84724 0
M  V30 2273 C 203.962 -1.39305 -5.16235 0
M  V30 2274 C 205.262 -3.28244 -4.06267 0
M  V30 2275 H 206.956 -2.08975 -2.14406 0
M  V30 2276 H 204.502 -1.00612 -1.03021 0
M  V30 2277 H 206.455 -0.711151 -4.15356 0
M  V30 2278 H 205.179 0.154846 -3.26233 0
M  V30 2279 H 203.838 -1.97079 -3.09121 0
M  V30 2280 H 203.486 -0.409846 -5.01328 0
M  V30 2281 H 203.186 -2.10057 -5.48771 0
M  V30 2282 H 204.71 -1.30014 -5.96598 0
M  V30 2283 H 206.124 -3.21611 -4.74594 0
M  V30 2284 H 204.521 -3.96855 -4.5014 0
M  V30 2285 H 205.591 -3.72048 -3.10979 0
M  V30 2286 N 206.934 1.1197 -1.10907 0
M  V30 2287 C 207.867 2.16998 -0.706192 0
M  V30 2288 C 208.845 1.59903 0.294897 0
M  V30 2289 O 210.029 1.87513 0.192636 0
M  V30 2290 C 207.156 3.38673 -0.0427664 0
M  V30 2291 C 206.202 4.14414 -1.00811 0
M  V30 2292 S 207.035 4.72079 -2.52789 0
M  V30 2293 C 208.191 5.97083 -1.87731 0
M  V30 2294 H 208.424 2.50837 -1.59587 0
M  V30 2295 H 205.957 1.23508 -0.926555 0
M  V30 2296 H 207.915 4.09142 0.333668 0
M  V30 2297 H 206.576 3.03105 0.823788 0
M  V30 2298 H 205.769 5.016 -0.491259 0
M  V30 2299 H 205.371 3.49678 -1.3267 0
M  V30 2300 H 207.663 6.66599 -1.21044 0
M  V30 2301 H 208.606 6.53403 -2.72892 0
M  V30 2302 H 209.014 5.4837 -1.33979 0
M  V30 2303 N 208.412 0.89855 1.29475 0
M  V30 2304 C 209.823 0.572537 1.77705 0
M  V30 2305 C 210.174 -0.911778 1.73727 0
M  V30 2306 O 209.299 -1.71288 1.32247 0
M  V30 2307 C 209.894 1.03252 3.22683 0
M  V30 2308 C 208.453 0.757687 3.68695 0
M  V30 2309 C 207.6 1.20787 2.49612 0
M  V30 2310 H 210.551 1.08139 1.16153 0
M  V30 2311 H 210.572 0.367307 3.78723 0
M  V30 2312 H 210.084 2.11285 3.25546 0
M  V30 2313 H 208.185 -0.310079 3.71308 0
M  V30 2314 H 208.298 1.35476 4.59547 0
M  V30 2315 H 206.662 0.626888 2.46865 0
M  V30 2316 H 207.445 2.29622 2.55203 0
M  V30 2317 N 209.89 -1.43072 0.660911 0
M  V30 2318 C 210.82 -2.33497 -0.0122829 0
M  V30 2319 C 211.801 -1.49903 -0.803925 0
M  V30 2320 O 212.986 -1.78546 -0.763864 0
M  V30 2321 C 210.116 -3.33363 -0.973994 0
M  V30 2322 C 209.07 -4.27003 -0.291928 0
M  V30 2323 C 208.396 -5.16967 -1.36562 0
M  V30 2324 C 209.696 -5.15816 0.820462 0
M  V30 2325 H 211.39 -2.90038 0.742873 0
M  V30 2326 H 208.936 -1.39461 0.358688 0
M  V30 2327 H 210.889 -3.95524 -1.45392 0
M  V30 2328 H 209.613 -2.75095 -1.7604 0
M  V30 2329 H 208.272 -3.66217 0.167623 0
M  V30 2330 H 207.92 -4.55034 -2.14366 0
M  V30 2331 H 207.62 -5.80441 -0.914454 0
M  V30 2332 H 209.144 -5.82003 -1.84675 0
M  V30 2333 H 210.558 -5.71742 0.422366 0
M  V30 2334 H 208.955 -5.8805 1.19656 0
M  V30 2335 H 210.025 -4.55045 1.67518 0
M  V30 2336 N 211.368 -0.403325 -1.52352 0
M  V30 2337 C 212.615 0.174347 -2.01748 0
M  V30 2338 C 212.943 1.45636 -1.2892 0
M  V30 2339 O 212.198 1.9193 -0.382258 0
M  V30 2340 C 212.497 0.474665 -3.54234 0
M  V30 2341 C 212.163 -0.717458 -4.45155 0
M  V30 2342 C 210.825 -1.04447 -4.69728 0
M  V30 2343 C 213.177 -1.51432 -4.98716 0
M  V30 2344 C 210.505 -2.16963 -5.45109 0
M  V30 2345 C 212.857 -2.6302 -5.75329 0
M  V30 2346 C 211.521 -2.96213 -5.98175 0
M  V30 2347 H 210.791 0.0637981 -0.738248 0
M  V30 2348 H 213.438 -0.543553 -1.83624 0
M  V30 2349 H 211.743 1.27406 -3.70506 0
M  V30 2350 H 213.44 0.934496 -3.89959 0
M  V30 2351 H 210.03 -0.452596 -4.26204 0
M  V30 2352 H 214.214 -1.27491 -4.79645 0
M  V30 2353 H 209.47 -2.43034 -5.61021 0
M  V30 2354 H 213.644 -3.25158 -6.15829 0
M  V30 2355 H 211.271 -3.83516 -6.56368 0
M  V30 2356 N 212.846 1.57033 -0.133567 0
M  V30 2357 C 213.793 2.16074 0.811208 0
M  V30 2358 C 214.763 1.08979 1.2535 0
M  V30 2359 O 215.948 1.36958 1.32843 0
M  V30 2360 C 213.088 2.77595 2.05024 0
M  V30 2361 C 212.201 3.99042 1.65498 0
M  V30 2362 C 211.336 4.48603 2.84479 0
M  V30 2363 C 210.375 5.62547 2.41262 0
M  V30 2364 N 209.512 6.06787 3.53206 0
M  V30 2365 H 214.352 2.96477 0.300906 0
M  V30 2366 H 211.889 1.46462 0.136822 0
M  V30 2367 H 213.847 3.11402 2.77642 0
M  V30 2368 H 212.477 1.99859 2.53488 0
M  V30 2369 H 211.529 3.71302 0.826981 0
M  V30 2370 H 212.841 4.81629 1.29748 0
M  V30 2371 H 211.995 4.84395 3.65303 0
M  V30 2372 H 210.734 3.64995 3.23465 0
M  V30 2373 H 209.739 5.26345 1.58874 0
M  V30 2374 H 210.964 6.47931 2.03377 0
M  V30 2375 H 208.91 5.26117 3.91838 0
M  V30 2376 H 208.827 6.84266 3.21427 0
M  V30 2377 H 210.095 6.4722 4.34427 0
M  V30 2378 N 214.325 -0.140222 1.56975 0
M  V30 2379 C 215.565 -0.857823 1.85528 0
M  V30 2380 C 215.929 -1.78039 0.718768 0
M  V30 2381 O 217.13 -2.53795 0.885521 0
M  V30 2382 C 215.401 -1.60615 3.19277 0
M  V30 2383 S 216.96 -2.36824 3.69405 0
M  V30 2384 H 213.778 -0.286727 0.650622 0
M  V30 2385 H 216.38 -0.117408 1.95147 0
M  V30 2386 H 215.084 -0.919994 3.99955 0
M  V30 2387 H 214.615 -2.38735 3.12681 0
M  V30 2388 H 216.63 -3.62148 3.3921 0
M  V30 2389 N 215.803 -1.52179 -0.40978 0
M  V30 2390 C 217.214 -1.58377 -0.988615 0
M  V30 2391 C 217.565 -0.423879 -1.91566 0
M  V30 2392 O 216.69 0.455844 -2.11544 0
M  V30 2393 C 217.285 -2.87044 -1.79976 0
M  V30 2394 C 215.844 -2.95722 -2.32863 0
M  V30 2395 C 214.991 -2.53309 -1.12828 0
M  V30 2396 H 217.942 -1.57558 -0.190039 0
M  V30 2397 H 217.963 -2.7236 -2.65707 0
M  V30 2398 H 217.475 -3.71444 -1.12478 0
M  V30 2399 H 215.576 -2.15814 -3.03735 0
M  V30 2400 H 215.689 -3.99951 -2.63773 0
M  V30 2401 H 214.053 -2.07142 -1.48204 0
M  V30 2402 H 214.836 -3.40082 -0.46897 0
M  V30 2403 N 217.281 0.66697 -1.42791 0
M  V30 2404 C 218.191 1.80962 -1.49299 0
M  V30 2405 C 219.207 1.69775 -0.381108 0
M  V30 2406 O 220.383 1.91188 -0.633188 0
M  V30 2407 C 217.448 3.17156 -1.40045 0
M  V30 2408 C 216.509 3.40242 -2.6179 0
M  V30 2409 C 215.742 4.69939 -2.52969 0
M  V30 2410 O 215.965 5.48372 -1.56985 0
M  V30 2411 O 214.899 4.94441 -3.43237 0
M  V30 2412 H 218.725 1.78427 -2.45759 0
M  V30 2413 H 216.31 0.823713 -1.24641 0
M  V30 2414 H 218.192 3.98413 -1.37276 0
M  V30 2415 H 216.867 3.20312 -0.467138 0
M  V30 2416 H 215.774 2.58802 -2.70134 0
M  V30 2417 H 217.107 3.41923 -3.54047 0
M  V30 2418 N 218.759 1.29093 0.90403 0
M  V30 2419 C 220.007 1.16583 1.65085 0
M  V30 2420 C 220.328 -0.283933 1.92922 0
M  V30 2421 O 219.598 -1.19509 1.55224 0
M  V30 2422 H 218.178 0.428467 0.611903 0
M  V30 2423 H 220.84 1.61959 1.08422 0
M  V30 2424 H 219.936 1.71266 2.6091 0
M  V30 2425 N 220.237 -1.11381 1.11499 0
M  V30 2426 C 221.184 -2.17439 0.773887 0
M  V30 2427 C 222.154 -1.64132 -0.254899 0
M  V30 2428 O 223.339 -1.90345 -0.13168 0
M  V30 2429 C 220.479 -3.44373 0.223917 0
M  V30 2430 C 219.592 -4.1168 1.30934 0
M  V30 2431 C 218.727 -5.263 0.71984 0
M  V30 2432 C 217.766 -5.85493 1.78507 0
M  V30 2433 N 216.903 -6.91507 1.21502 0
M  V30 2434 H 221.743 -2.45962 1.68246 0
M  V30 2435 H 219.28 -1.20744 0.840191 0
M  V30 2436 H 221.238 -4.17047 -0.112921 0
M  V30 2437 H 219.868 -3.16232 -0.647851 0
M  V30 2438 H 218.92 -3.37073 1.76312 0
M  V30 2439 H 220.232 -4.51729 2.11524 0
M  V30 2440 H 219.386 -6.05785 0.333094 0
M  V30 2441 H 218.125 -4.87559 -0.117377 0
M  V30 2442 H 217.13 -5.04686 2.18111 0
M  V30 2443 H 218.355 -6.26301 2.62533 0
M  V30 2444 H 216.301 -6.54783 0.399455 0
M  V30 2445 H 216.218 -7.30214 1.95763 0
M  V30 2446 H 217.486 -7.74795 0.855181 0
M  V30 2447 N 221.715 -0.905404 -1.28997 0
M  V30 2448 C 222.94 -0.549175 -1.99997 0
M  V30 2449 C 223.365 0.860276 -1.67275 0
M  V30 2450 O 222.723 1.57355 -0.900502 0
M  V30 2451 C 222.771 -0.755185 -3.52604 0
M  V30 2452 O 221.875 0.189692 -4.11964 0
M  V30 2453 H 221.216 -0.213899 -0.628604 0
M  V30 2454 H 223.746 -1.21856 -1.64354 0
M  V30 2455 H 223.756 -0.662045 -4.02593 0
M  V30 2456 H 222.431 -1.78271 -3.75755 0
M  V30 2457 H 221.008 0.0485257 -3.72868 0
M  V30 2458 N 223.193 1.4272 -0.668489 0
M  V30 2459 C 224.47 1.95248 -0.117373 0
M  V30 2460 C 224.85 1.60919 1.36632 0
M  V30 2461 O 224.198 0.902095 2.09939 0
M  V30 2462 C 224.408 3.46927 -0.379806 0
M  V30 2463 C 225.756 4.23588 -0.292923 0
M  V30 2464 O 226.78 3.5482 -0.313204 0
M  V30 2465 O 225.639 5.46017 -0.229697 0
M  V30 2466 H 222.733 0.827 0.00079152 0
M  V30 2467 H 225.279 1.52581 -0.742783 0
M  V30 2468 H 224.051 3.65096 -1.40786 0
M  V30 2469 H 223.674 3.96627 0.277923 0
M  V30 2470 N 224.671 0.411399 1.52136 0
M  V30 2471 C 225.919 -0.163322 2.01439 0
M  V30 2472 C 226.24 -1.45453 1.29879 0
M  V30 2473 O 225.51 -1.91225 0.4254 0
M  V30 2474 H 224.09 -0.0633447 0.744309 0
M  V30 2475 H 226.752 0.548161 1.87033 0
M  V30 2476 H 225.848 -0.357817 3.10042 0
M  V30 2477 N 226.149 -1.5696 0.141893 0
M  V30 2478 C 227.397 -1.95573 -0.509484 0
M  V30 2479 C 227.718 -1.02746 -1.65736 0
M  V30 2480 O 226.988 -0.0880311 -1.95702 0
M  V30 2481 H 225.568 -0.722115 -0.191205 0
M  V30 2482 H 228.23 -1.93697 0.216196 0
M  V30 2483 H 227.326 -2.99171 -0.889 0
M  V30 2484 N 227.627 0.131896 -1.57047 0
M  V30 2485 C 228.857 0.855219 -1.88068 0
M  V30 2486 C 229.265 1.74557 -0.729817 0
M  V30 2487 O 228.608 1.81083 0.308962 0
M  V30 2488 C 228.67 1.75119 -3.13964 0
M  V30 2489 C 228.334 1.03646 -4.45091 0
M  V30 2490 C 229.331 0.383276 -5.18485 0
M  V30 2491 C 227.016 1.02148 -4.91804 0
M  V30 2492 C 229.01 -0.275347 -6.36805 0
M  V30 2493 C 226.697 0.359047 -6.10044 0
M  V30 2494 C 227.695 -0.288222 -6.82392 0
M  V30 2495 O 227.383 -0.94011 -7.98384 0
M  V30 2496 H 227.115 0.251864 -0.627328 0
M  V30 2497 H 229.669 0.124782 -2.05021 0
M  V30 2498 H 227.899 2.52295 -2.9306 0
M  V30 2499 H 229.588 2.3478 -3.31109 0
M  V30 2500 H 230.354 0.386562 -4.83457 0
M  V30 2501 H 226.233 1.5147 -4.35405 0
M  V30 2502 H 229.777 -0.781148 -6.93213 0
M  V30 2503 H 225.674 0.35348 -6.44531 0
M  V30 2504 H 226.442 -0.84329 -8.14144 0
M  V30 2505 N 229.106 1.52395 0.401703 0
M  V30 2506 C 230.069 1.75636 1.47257 0
M  V30 2507 C 231.069 0.62628 1.48103 0
M  V30 2508 O 232.259 0.894227 1.49497 0
M  V30 2509 C 229.391 1.84553 2.86624 0
M  V30 2510 H 230.584 2.71241 1.27938 0
M  V30 2511 H 228.137 1.42923 0.632662 0
M  V30 2512 H 228.872 0.908882 3.11303 0
M  V30 2513 H 228.657 2.66715 2.87412 0
M  V30 2514 H 230.147 2.04251 3.64241 0
M  V30 2515 N 230.584 -0.659388 1.43143 0
M  V30 2516 C 231.83 -1.42145 1.44647 0
M  V30 2517 C 232.163 -1.9408 0.0681907 0
M  V30 2518 O 231.438 -1.71899 -0.910007 0
M  V30 2519 C 231.721 -2.60735 2.48373 0
M  V30 2520 C 231.574 -2.14332 3.95451 0
M  V30 2521 C 232.893 -3.62951 2.48906 0
M  V30 2522 H 230.012 -0.51552 0.526696 0
M  V30 2523 H 232.654 -0.748069 1.74654 0
M  V30 2524 H 230.804 -3.18184 2.22916 0
M  V30 2525 H 232.476 -1.61932 4.31944 0
M  V30 2526 H 230.719 -1.4576 4.08578 0
M  V30 2527 H 231.39 -2.99583 4.63631 0
M  V30 2528 H 233.866 -3.1525 2.71582 0
M  V30 2529 H 232.742 -4.43487 3.23435 0
M  V30 2530 H 233.003 -4.15126 1.52061 0
M  V30 2531 N 232.062 -1.29571 -0.897171 0
M  V30 2532 C 233.287 -1.20705 -1.68656 0
M  V30 2533 C 233.712 0.228582 -1.86706 0
M  V30 2534 O 233.07 1.16494 -1.3892 0
M  V30 2535 C 233.118 -1.9282 -3.04717 0
M  V30 2536 O 232.222 -1.24697 -3.93096 0
M  V30 2537 H 231.563 -0.418126 -0.515816 0
M  V30 2538 H 234.093 -1.71183 -1.12061 0
M  V30 2539 H 234.103 -2.01372 -3.54843 0
M  V30 2540 H 232.778 -2.97239 -2.90899 0
M  V30 2541 H 231.355 -1.2442 -3.51531 0
M  V30 2542 N 233.54 1.10788 -1.12088 0
M  V30 2543 C 234.765 1.87002 -0.896949 0
M  V30 2544 C 235.19 1.79933 0.548261 0
M  V30 2545 O 234.548 1.16662 1.38779 0
M  V30 2546 C 234.596 3.3349 -1.37174 0
M  V30 2547 O 233.7 4.08745 -0.547831 0
M  V30 2548 H 233.041 0.580397 -0.322545 0
M  V30 2549 H 235.571 1.39996 -1.49206 0
M  V30 2550 H 235.581 3.84339 -1.36922 0
M  V30 2551 H 234.256 3.37951 -2.42408 0
M  V30 2552 H 232.833 3.6776 -0.617034 0
M  V30 2553 N 235.018 0.912232 1.28515 0
M  V30 2554 C 236.248 0.559604 1.98877 0
M  V30 2555 C 236.656 -0.863113 1.68366 0
M  V30 2556 O 235.999 -1.58304 0.931969 0
M  V30 2557 C 236.061 0.68703 3.52874 0
M  V30 2558 C 235.725 2.07901 4.06972 0
M  V30 2559 C 236.722 3.05157 4.20922 0
M  V30 2560 C 234.407 2.39178 4.417 0
M  V30 2561 C 236.401 4.31806 4.68852 0
M  V30 2562 C 234.088 3.66068 4.89324 0
M  V30 2563 C 235.086 4.62195 5.02856 0
M  V30 2564 O 234.774 5.86829 5.49442 0
M  V30 2565 H 234.506 0.212191 0.641834 0
M  V30 2566 H 237.06 1.22712 1.64715 0
M  V30 2567 H 235.29 -0.0375486 3.86682 0
M  V30 2568 H 236.979 0.341727 4.04459 0
M  V30 2569 H 237.745 2.82311 3.94367 0
M  V30 2570 H 233.624 1.65109 4.30418 0
M  V30 2571 H 237.168 5.06842 4.79329 0
M  V30 2572 H 233.065 3.88739 5.15318 0
M  V30 2573 H 233.833 5.89597 5.6773 0
M  V30 2574 N 236.496 -1.42363 0.676048 0
M  V30 2575 C 237.912 -1.55811 0.345718 0
M  V30 2576 C 238.112 -1.65544 -1.14879 0
M  V30 2577 O 237.168 -1.62306 -1.93424 0
M  V30 2578 C 238.481 -2.80746 1.07713 0
M  V30 2579 C 240.029 -2.9452 1.05958 0
M  V30 2580 C 240.504 -4.22318 1.77233 0
M  V30 2581 N 241.995 -4.29233 1.74108 0
M  V30 2582 C 242.73 -5.26935 2.26113 0
M  V30 2583 N 242.226 -6.30783 2.86505 0
M  V30 2584 N 244.019 -5.18741 2.1648 0
M  V30 2585 H 236.17 -1.34289 1.6456 0
M  V30 2586 H 238.433 -0.646506 0.69335 0
M  V30 2587 H 238.139 -2.79696 2.13221 0
M  V30 2588 H 238.013 -3.71676 0.64316 0
M  V30 2589 H 240.4 -2.95097 0.0128255 0
M  V30 2590 H 240.481 -2.04817 1.53244 0
M  V30 2591 H 240.125 -4.22502 2.81877 0
M  V30 2592 H 240.055 -5.10958 1.27396 0
M  V30 2593 H 242.546 -3.54814 1.30059 0
M  V30 2594 H 242.859 -7.01691 3.23805 0
M  V30 2595 H 241.204 -6.31341 2.90575 0
M  V30 2596 H 244.395 -4.36533 1.68987 0
M  V30 2597 H 244.568 -5.94721 2.57316 0
M  V30 2598 N 237.974 -0.419461 -1.51915 0
M  V30 2599 C 239.251 0.211999 -1.94448 0
M  V30 2600 C 239.631 1.61703 -1.35703 0
M  V30 2601 O 238.979 2.22102 -0.536931 0
M  V30 2602 C 239.189 0.207872 -3.4838 0
M  V30 2603 C 240.537 0.422192 -4.22496 0
M  V30 2604 O 241.561 0.286778 -3.55044 0
M  V30 2605 O 240.42 0.690009 -5.42126 0
M  V30 2606 H 237.514 0.139586 -0.815135 0
M  V30 2607 H 240.06 -0.476151 -1.62883 0
M  V30 2608 H 238.832 -0.775102 -3.83546 0
M  V30 2609 H 238.455 0.939688 -3.86336 0
M  V30 2610 N 239.452 1.56882 -0.150215 0
M  V30 2611 C 240.698 1.96518 0.500834 0
M  V30 2612 C 241.031 1.03527 1.64304 0
M  V30 2613 O 240.306 0.0782751 1.94342 0
M  V30 2614 C 240.589 3.45822 1.00395 0
M  V30 2615 C 240.442 4.49591 -0.136983 0
M  V30 2616 C 241.761 3.97704 1.88467 0
M  V30 2617 H 238.88 0.714535 0.18058 0
M  V30 2618 H 241.522 1.88577 -0.232091 0
M  V30 2619 H 239.672 3.5272 1.62851 0
M  V30 2620 H 241.344 4.5477 -0.77343 0
M  V30 2621 H 239.587 4.26441 -0.795652 0
M  V30 2622 H 240.258 5.51402 0.256815 0
M  V30 2623 H 242.734 3.93304 1.35834 0
M  V30 2624 H 241.61 5.0263 2.20578 0
M  V30 2625 H 241.871 3.40252 2.82279 0
M  V30 2626 N 240.93 -0.123565 1.57115 0
M  V30 2627 C 241.878 -1.17082 2.00984 0
M  V30 2628 C 242.872 -1.43136 0.906009 0
M  V30 2629 O 244.078 -1.43152 1.09121 0
M  V30 2630 H 240.453 -0.394653 0.64012 0
M  V30 2631 H 242.424 -0.774292 2.88179 0
M  V30 2632 C 241.173 -2.49057 2.42623 0
M  V30 2633 H 240.496 -2.29846 3.27125 0
M  V30 2634 H 241.936 -3.20906 2.7712 0
M  V30 2635 C 240.395 -3.11305 1.28805 0
M  V30 2636 O 240.925 -3.97171 0.60153 0
M  V30 2637 N 239.131 -2.71111 1.04628 0
M  V30 2638 H 238.678 -2.01382 1.60634 0
M  V30 2639 H 238.636 -3.1309 0.286685 0
M  V30 2640 N 242.408 -1.52605 -0.393616 0
M  V30 2641 C 243.819 -1.59417 -0.971761 0
M  V30 2642 C 244.17 -0.444173 -1.91106 0
M  V30 2643 O 243.295 0.433382 -2.12016 0
M  V30 2644 C 243.89 -2.88936 -1.76921 0
M  V30 2645 C 242.449 -2.98175 -2.29714 0
M  V30 2646 C 241.596 -2.54491 -1.10135 0
M  V30 2647 H 244.547 -1.57751 -0.173317 0
M  V30 2648 H 244.568 -2.75163 -2.62804 0
M  V30 2649 H 244.08 -3.72616 -1.08532 0
M  V30 2650 H 242.181 -2.19024 -3.01429 0
M  V30 2651 H 242.294 -4.02726 -2.59517 0
M  V30 2652 H 240.658 -2.08702 -1.45999 0
M  V30 2653 H 241.441 -3.4056 -0.432874 0
M  V30 2654 N 243.887 0.651787 -1.4349 0
M  V30 2655 C 244.85 1.74647 -1.48429 0
M  V30 2656 C 245.85 1.56513 -0.368817 0
M  V30 2657 O 247.04 1.62385 -0.630623 0
M  V30 2658 C 244.172 3.13533 -1.33827 0
M  V30 2659 H 245.365 1.71649 -2.4592 0
M  V30 2660 H 242.918 0.863573 -1.30277 0
M  V30 2661 H 243.653 3.22142 -0.37349 0
M  V30 2662 H 243.438 3.28101 -2.14691 0
M  V30 2663 H 244.928 3.93356 -1.40218 0
M  V30 2664 N 245.365 1.30045 0.890287 0
M  V30 2665 C 246.295 1.18541 2.01172 0
M  V30 2666 C 247.276 0.0773356 1.69924 0
M  V30 2667 O 248.461 0.25845 1.92473 0
M  V30 2668 C 245.591 0.870941 3.36202 0
M  V30 2669 C 244.545 1.93637 3.81692 0
M  V30 2670 C 243.871 1.475 5.13953 0
M  V30 2671 C 245.171 3.34666 4.00994 0
M  V30 2672 H 246.865 2.12359 2.11054 0
M  V30 2673 H 244.411 1.02238 1.01407 0
M  V30 2674 H 246.364 0.777141 4.14172 0
M  V30 2675 H 245.088 -0.102926 3.26438 0
M  V30 2676 H 243.747 2.01972 3.05946 0
M  V30 2677 H 243.395 0.489551 5.00612 0
M  V30 2678 H 243.095 2.1876 5.4536 0
M  V30 2679 H 244.619 1.39489 5.94454 0
M  V30 2680 H 246.033 3.2912 4.69417 0
M  V30 2681 H 244.43 4.03966 4.43769 0
M  V30 2682 H 245.5 3.76949 3.05021 0
M  V30 2683 N 246.843 -1.10192 1.12674 0
M  V30 2684 C 248.091 -1.81845 0.881861 0
M  V30 2685 C 248.412 -1.85737 -0.593867 0
M  V30 2686 O 247.682 -1.33724 -1.4316 0
M  V30 2687 H 246.262 -0.673432 0.323261 0
M  V30 2688 H 248.924 -1.33316 1.42172 0
M  V30 2689 H 248.02 -2.85288 1.2656 0
M  V30 2690 N 248.321 -0.919034 -1.28029 0
M  V30 2691 C 249.549 -0.570971 -1.98866 0
M  V30 2692 C 249.964 0.848996 -1.68634 0
M  V30 2693 O 249.321 1.56307 -0.942036 0
M  V30 2694 C 249.372 -0.776876 -3.53054 0
M  V30 2695 O 249.093 -2.14097 -3.82222 0
M  V30 2696 C 250.594 -0.436356 -4.41147 0
M  V30 2697 H 247.814 -0.217175 -0.634883 0
M  V30 2698 H 250.358 -1.23368 -1.63097 0
M  V30 2699 H 248.513 -0.161085 -3.87065 0
M  V30 2700 H 248.927 -2.18455 -4.76841 0
M  V30 2701 H 250.401 -0.63117 -5.4838 0
M  V30 2702 H 250.878 0.627686 -4.34692 0
M  V30 2703 H 251.484 -1.02991 -4.12641 0
M  V30 2704 N 249.799 1.42003 -0.683588 0
M  V30 2705 C 251.048 2.00638 -0.206681 0
M  V30 2706 C 251.361 1.5472 1.19671 0
M  V30 2707 O 252.567 2.05833 1.77045 0
M  V30 2708 C 251.023 3.58487 -0.318632 0
M  V30 2709 C 250.631 4.1339 -1.72663 0
M  V30 2710 C 252.375 4.24384 0.0991141 0
M  V30 2711 C 250.282 5.63633 -1.79087 0
M  V30 2712 H 249.212 0.750408 -0.0735107 0
M  V30 2713 H 251.863 1.62624 -0.850048 0
M  V30 2714 H 250.245 3.94047 0.392781 0
M  V30 2715 H 251.419 3.89273 -2.46583 0
M  V30 2716 H 249.734 3.59976 -2.09299 0
M  V30 2717 H 252.331 5.34652 0.0713833 0
M  V30 2718 H 252.674 4.00505 1.13586 0
M  V30 2719 H 253.207 3.93816 -0.561599 0
M  V30 2720 H 249.946 5.92323 -2.80774 0
M  V30 2721 H 249.466 5.89714 -1.09535 0
M  V30 2722 H 251.145 6.28201 -1.5483 0
M  V30 2723 N 251.277 0.427512 1.51691 0
M  V30 2724 C 252.525 -0.141948 2.01601 0
M  V30 2725 C 252.846 -1.44067 1.31414 0
M  V30 2726 O 252.116 -1.90763 0.445658 0
M  V30 2727 H 250.696 -0.0554468 0.744939 0
M  V30 2728 H 253.358 0.567968 1.86441 0
M  V30 2729 H 252.454 -0.324913 3.10404 0
M  V30 2730 N 252.755 -1.56801 0.158532 0
M  V30 2731 C 254.032 -1.88131 -0.535357 0
M  V30 2732 C 254.412 -1.06638 -1.82186 0
M  V30 2733 O 253.76 -0.156533 -2.27963 0
M  V30 2734 C 253.97 -3.39949 -0.789653 0
M  V30 2735 C 255.318 -4.09416 -1.12533 0
M  V30 2736 O 256.342 -3.45194 -0.878622 0
M  V30 2737 O 255.201 -5.22855 -1.59014 0
M  V30 2738 H 252.295 -0.780143 -0.27442 0
M  V30 2739 H 254.841 -1.68564 0.19601 0
M  V30 2740 H 253.613 -3.91115 0.120353 0
M  V30 2741 H 253.236 -3.65084 -1.57479 0
M  V30 2742 N 254.233 0.115231 -1.57178 0
M  V30 2743 C 255.163 1.1423 -2.03651 0
M  V30 2744 C 256.144 1.42967 -0.921655 0
M  V30 2745 O 257.329 1.53343 -1.19162 0
M  V30 2746 C 254.459 2.4675 -2.44401 0
M  V30 2747 C 253.413 2.32467 -3.59365 0
M  V30 2748 C 252.739 3.69984 -3.86026 0
M  V30 2749 C 254.039 1.78203 -4.90959 0
M  V30 2750 H 255.733 0.755749 -2.89705 0
M  V30 2751 H 253.279 0.362093 -1.39373 0
M  V30 2752 H 255.232 3.18854 -2.75517 0
M  V30 2753 H 253.956 2.87302 -1.55322 0
M  V30 2754 H 252.615 1.62811 -3.28463 0
M  V30 2755 H 252.263 4.08028 -2.94147 0
M  V30 2756 H 251.963 3.61279 -4.63412 0
M  V30 2757 H 253.487 4.43587 -4.19599 0
M  V30 2758 H 254.901 2.40128 -5.20587 0
M  V30 2759 H 253.298 1.8031 -5.72371 0
M  V30 2760 H 254.368 0.739876 -4.79222 0
M  V30 2761 N 255.711 1.52812 0.385517 0
M  V30 2762 C 257.127 1.4214 0.725829 0
M  V30 2763 C 257.327 0.544589 1.94001 0
M  V30 2764 O 256.383 0.0193693 2.52493 0
M  V30 2765 C 257.696 2.85042 0.957668 0
M  V30 2766 C 259.244 2.94543 1.05892 0
M  V30 2767 C 259.719 4.38464 1.32337 0
M  V30 2768 N 261.21 4.41804 1.39151 0
M  V30 2769 C 261.945 5.5025 1.61285 0
M  V30 2770 N 261.441 6.68775 1.80866 0
M  V30 2771 N 263.234 5.37798 1.63492 0
M  V30 2772 H 255.385 2.08338 -0.413383 0
M  V30 2773 H 257.648 0.940016 -0.122775 0
M  V30 2774 H 257.354 3.51431 0.137568 0
M  V30 2775 H 257.228 3.27505 1.87137 0
M  V30 2776 H 259.615 2.28321 1.86959 0
M  V30 2777 H 259.696 2.55504 0.123057 0
M  V30 2778 H 259.34 5.05254 0.517793 0
M  V30 2779 H 259.27 4.75059 2.27214 0
M  V30 2780 H 261.761 3.56377 1.25713 0
M  V30 2781 H 262.074 7.47197 1.97271 0
M  V30 2782 H 260.419 6.71797 1.78083 0
M  V30 2783 H 263.61 4.44171 1.47749 0
M  V30 2784 H 263.783 6.22382 1.80402 0
M  V30 2785 N 257.189 -0.644168 1.43834 0
M  V30 2786 C 258.099 -1.78563 1.52159 0
M  V30 2787 C 259.115 -1.69147 0.408069 0
M  V30 2788 O 260.291 -1.90156 0.663524 0
M  V30 2789 C 257.356 -3.14888 1.45073 0
M  V30 2790 C 256.417 -3.36034 2.6717 0
M  V30 2791 C 255.65 -4.65855 2.60413 0
M  V30 2792 O 255.873 -5.45805 1.65689 0
M  V30 2793 O 254.807 -4.88918 3.5106 0
M  V30 2794 H 258.633 -1.74494 2.48567 0
M  V30 2795 H 256.218 -0.80378 1.25935 0
M  V30 2796 H 258.1 -3.96179 1.43597 0
M  V30 2797 H 256.775 -3.19528 0.518037 0
M  V30 2798 H 255.682 -2.54472 2.74217 0
M  V30 2799 H 257.015 -3.36247 3.59442 0
M  V30 2800 N 258.668 -1.30515 -0.883378 0
M  V30 2801 C 259.914 -1.19607 -1.63774 0
M  V30 2802 C 260.247 0.248314 -1.92606 0
M  V30 2803 O 259.522 1.17742 -1.54813 0
M  V30 2804 C 259.805 -2.02669 -2.97653 0
M  V30 2805 C 259.658 -3.55335 -2.75784 0
M  V30 2806 C 260.977 -1.86573 -3.98596 0
M  V30 2807 H 258.096 -0.435856 -0.594305 0
M  V30 2808 H 260.738 -1.60165 -1.02212 0
M  V30 2809 H 258.888 -1.68208 -3.50197 0
M  V30 2810 H 260.56 -3.99863 -2.30016 0
M  V30 2811 H 258.803 -3.79438 -2.1026 0
M  V30 2812 H 259.474 -4.08745 -3.70988 0
M  V30 2813 H 261.95 -2.16703 -3.55217 0
M  V30 2814 H 260.826 -2.47014 -4.90179 0
M  V30 2815 H 261.087 -0.825321 -4.34328 0
M  V30 2816 N 260.146 1.09593 -1.13257 0
M  V30 2817 C 261.395 1.81105 -0.887917 0
M  V30 2818 C 261.708 1.86563 0.587672 0
M  V30 2819 O 262.914 2.54367 0.949204 0
M  V30 2820 C 261.37 3.25338 -1.53895 0
M  V30 2821 C 260.978 3.28151 -3.04994 0
M  V30 2822 C 262.722 4.01617 -1.37492 0
M  V30 2823 C 260.629 4.66897 -3.6299 0
M  V30 2824 H 259.559 0.678661 -0.328534 0
M  V30 2825 H 262.21 1.23183 -1.36008 0
M  V30 2826 H 260.592 3.8331 -0.994446 0
M  V30 2827 H 261.766 2.79953 -3.66009 0
M  V30 2828 H 260.081 2.65361 -3.20893 0
M  V30 2829 H 262.678 5.04119 -1.78235 0
M  V30 2830 H 263.021 4.15072 -0.31957 0
M  V30 2831 H 263.554 3.50082 -1.88912 0
M  V30 2832 H 260.293 4.58643 -4.68323 0
M  V30 2833 H 259.813 5.15426 -3.06752 0
M  V30 2834 H 261.492 5.3587 -3.62563 0
M  V30 2835 N 261.624 0.925811 1.2754 0
M  V30 2836 C 262.587 0.428129 2.25166 0
M  V30 2837 C 263.587 -0.452261 1.54309 0
M  V30 2838 O 264.777 -0.253608 1.72344 0
M  V30 2839 C 261.909 -0.384749 3.38722 0
M  V30 2840 H 263.102 1.29066 2.70706 0
M  V30 2841 H 260.655 0.706323 1.3943 0
M  V30 2842 H 261.39 -1.26618 2.98561 0
M  V30 2843 H 261.175 0.246454 3.91325 0
M  V30 2844 H 262.665 -0.723389 4.11287 0
M  V30 2845 N 263.102 -1.41638 0.69111 0
M  V30 2846 C 264.065 -2.29178 0.0319786 0
M  V30 2847 C 265.065 -1.44153 -0.712496 0
M  V30 2848 O 266.255 -1.65354 -0.548053 0
M  V30 2849 C 263.387 -3.26952 -0.965161 0
M  V30 2850 H 264.58 -2.88959 0.802681 0
M  V30 2851 H 262.133 -1.4955 0.454356 0
M  V30 2852 H 262.868 -2.72142 -1.76378 0
M  V30 2853 H 262.653 -3.89685 -0.434522 0
M  V30 2854 H 264.143 -3.92561 -1.42428 0
M  V30 2855 N 264.58 -0.43555 -1.51462 0
M  V30 2856 C 265.51 0.367376 -2.30592 0
M  V30 2857 C 266.491 1.02263 -1.35928 0
M  V30 2858 O 267.676 1.02661 -1.64847 0
M  V30 2859 C 264.806 1.46983 -3.14664 0
M  V30 2860 C 263.76 0.938161 -4.17591 0
M  V30 2861 C 263.086 2.13622 -4.90173 0
M  V30 2862 C 264.386 -0.0261621 -5.22293 0
M  V30 2863 H 266.08 -0.292969 -2.97963 0
M  V30 2864 H 263.626 -0.14234 -1.43295 0
M  V30 2865 H 265.579 2.03873 -3.688 0
M  V30 2866 H 264.303 2.15843 -2.4511 0
M  V30 2867 H 262.962 0.391481 -3.64504 0
M  V30 2868 H 262.61 2.81098 -4.17124 0
M  V30 2869 H 262.31 1.78688 -5.59772 0
M  V30 2870 H 263.834 2.7107 -5.47132 0
M  V30 2871 H 265.248 0.452384 -5.71512 0
M  V30 2872 H 263.645 -0.287992 -5.99409 0
M  V30 2873 H 264.715 -0.963391 -4.75233 0
M  V30 2874 N 266.058 1.56714 -0.166846 0
M  V30 2875 C 267.008 2.14338 0.777382 0
M  V30 2876 C 267.992 1.07642 1.19591 0
M  V30 2877 O 269.184 1.33775 1.15902 0
M  V30 2878 C 266.313 2.78417 2.00846 0
M  V30 2879 C 265.399 3.92264 1.61212 0
M  V30 2880 N 265.79 4.97268 0.925104 0
M  V30 2881 C 264.088 4.03342 1.90346 0
M  V30 2882 C 264.789 5.77093 0.730627 0
M  V30 2883 N 263.765 5.2854 1.27067 0
M  V30 2884 H 267.567 2.9289 0.243466 0
M  V30 2885 H 265.081 1.62364 0.0339954 0
M  V30 2886 H 267.078 3.18073 2.69509 0
M  V30 2887 H 265.738 2.01344 2.54736 0
M  V30 2888 H 266.749 5.14601 0.583646 0
M  V30 2889 H 263.426 3.37368 2.45946 0
M  V30 2890 H 264.816 6.71638 0.187668 0
M  V30 2891 N 267.536 -0.106894 1.57237 0
M  V30 2892 C 268.446 -1.14911 2.0453 0
M  V30 2893 C 269.462 -1.44592 0.96795 0
M  V30 2894 O 270.638 -1.55468 1.2803 0
M  V30 2895 C 267.703 -2.45272 2.45036 0
M  V30 2896 C 266.764 -2.22879 3.66911 0
M  V30 2897 C 265.997 -3.47024 4.05475 0
M  V30 2898 O 266.22 -4.54804 3.44252 0
M  V30 2899 O 265.154 -3.3731 4.98504 0
M  V30 2900 H 268.98 -0.777461 2.9358 0
M  V30 2901 H 266.565 -0.318563 1.45964 0
M  V30 2902 H 268.447 -3.22055 2.71769 0
M  V30 2903 H 267.122 -2.81886 1.59129 0
M  V30 2904 H 266.029 -1.43915 3.45311 0
M  V30 2905 H 267.362 -1.91163 4.53561 0
M  V30 2906 N 269.014 -1.53014 -0.377408 0
M  V30 2907 C 269.977 -1.77957 -1.44444 0
M  V30 2908 C 270.977 -0.649763 -1.47087 0
M  V30 2909 O 272.167 -0.917897 -1.48055 0
M  V30 2910 C 269.299 -1.89089 -2.83651 0
M  V30 2911 H 270.492 -2.73243 -1.23606 0
M  V30 2912 H 268.045 -1.43912 -0.609844 0
M  V30 2913 H 268.78 -0.958293 -3.09818 0
M  V30 2914 H 268.565 -2.71254 -2.83132 0
M  V30 2915 H 270.055 -2.1002 -3.60945 0
M  V30 2916 N 270.492 0.636531 -1.44174 0
M  V30 2917 C 271.74 1.39343 -1.46383 0
M  V30 2918 C 272.061 1.94766 -0.0955715 0
M  V30 2919 O 271.331 1.75452 0.871395 0
M  V30 2920 H 269.911 0.517199 -0.538994 0
M  V30 2921 H 272.573 0.74957 -1.7991 0
M  V30 2922 H 271.669 2.22746 -2.18611 0
M  V30 2923 N 271.97 1.30982 0.876444 0
M  V30 2924 C 273.219 1.19658 1.62373 0
M  V30 2925 C 273.532 -0.245636 1.94052 0
M  V30 2926 O 274.738 -0.48049 2.67214 0
M  V30 2927 C 273.194 2.09433 2.92687 0
M  V30 2928 C 272.802 3.58613 2.68516 0
M  V30 2929 C 274.546 2.06893 3.70669 0
M  V30 2930 C 272.453 4.40416 3.94699 0
M  V30 2931 H 271.383 0.444268 0.609214 0
M  V30 2932 H 274.034 1.55791 0.969605 0
M  V30 2933 H 272.416 1.66191 3.59439 0
M  V30 2934 H 273.59 4.10058 2.10212 0
M  V30 2935 H 271.905 3.63063 2.03898 0
M  V30 2936 H 274.502 2.65258 4.64265 0
M  V30 2937 H 274.845 1.05448 4.02724 0
M  V30 2938 H 275.378 2.48301 3.10792 0
M  V30 2939 H 272.117 5.42591 3.67798 0
M  V30 2940 H 271.637 3.93731 4.52477 0
M  V30 2941 H 273.316 4.52294 4.62644 0
M  V30 2942 N 273.449 -1.08991 1.13837 0
M  V30 2943 C 274.674 -1.85551 0.926585 0
M  V30 2944 C 275.099 -1.80782 -0.519566 0
M  V30 2945 O 274.457 -1.18855 -1.36906 0
M  V30 2946 C 274.505 -3.31266 1.42462 0
M  V30 2947 O 273.609 -4.07822 0.612789 0
M  V30 2948 H 272.95 -0.575192 0.331738 0
M  V30 2949 H 275.48 -1.37604 1.51414 0
M  V30 2950 H 275.49 -3.82112 1.43019 0
M  V30 2951 H 274.165 -3.34052 2.47754 0
M  V30 2952 H 272.742 -3.66731 0.675463 0
M  V30 2953 N 274.927 -0.932562 -1.27047 0
M  V30 2954 C 275.89 -0.440064 -2.24936 0
M  V30 2955 C 276.89 0.444071 -1.54547 0
M  V30 2956 O 278.08 0.244465 -1.72476 0
M  V30 2957 C 275.212 0.36678 -3.38921 0
M  V30 2958 H 276.405 -1.305 -2.70018 0
M  V30 2959 H 273.958 -0.713707 -1.39054 0
M  V30 2960 H 274.693 1.25033 -2.99228 0
M  V30 2961 H 274.478 -0.267204 -3.91188 0
M  V30 2962 H 275.968 0.701567 -4.11665 0
M  V30 2963 N 276.405 1.4127 -0.698611 0
M  V30 2964 C 277.651 2.01478 -0.231207 0
M  V30 2965 C 277.984 1.55215 1.16713 0
M  V30 2966 O 277.259 0.764672 1.78838 0
M  V30 2967 C 277.542 3.58912 -0.292281 0
M  V30 2968 C 277.395 4.15293 -1.72778 0
M  V30 2969 C 278.714 4.38736 0.346194 0
M  V30 2970 H 275.833 0.732025 -0.0854878 0
M  V30 2971 H 278.475 1.67977 -0.887906 0
M  V30 2972 H 276.625 3.87582 0.26686 0
M  V30 2973 H 278.297 3.97486 -2.341 0
M  V30 2974 H 276.54 3.7022 -2.26096 0
M  V30 2975 H 277.211 5.24452 -1.72202 0
M  V30 2976 H 279.687 4.15897 -0.130035 0
M  V30 2977 H 278.563 5.48221 0.272932 0
M  V30 2978 H 278.824 4.18425 1.42734 0
M  V30 2979 N 277.883 0.443576 1.51229 0
M  V30 2980 C 279.129 -0.120975 2.02439 0
M  V30 2981 C 279.462 -1.41815 1.32674 0
M  V30 2982 O 278.737 -1.89373 0.443622 0
M  V30 2983 C 279.02 -0.333291 3.58554 0
M  V30 2984 C 278.873 0.982968 4.38928 0
M  V30 2985 C 280.192 -1.10028 4.26124 0
M  V30 2986 H 277.311 -0.0424923 0.735774 0
M  V30 2987 H 279.953 0.583794 1.80809 0
M  V30 2988 H 278.103 -0.933614 3.77115 0
M  V30 2989 H 279.775 1.61775 4.32003 0
M  V30 2990 H 278.018 1.58611 4.03763 0
M  V30 2991 H 278.689 0.788379 5.46341 0
M  V30 2992 H 281.165 -0.591711 4.11871 0
M  V30 2993 H 280.041 -1.21761 5.35225 0
M  V30 2994 H 280.302 -2.12996 3.87408 0
M  V30 2995 N 279.361 -1.56624 0.175154 0
M  V30 2996 C 280.638 -1.88688 -0.515373 0
M  V30 2997 C 281.018 -1.08564 -1.81044 0
M  V30 2998 O 280.366 -0.180703 -2.27784 0
M  V30 2999 C 280.576 -3.40768 -0.753552 0
M  V30 3000 C 281.924 -4.10587 -1.08184 0
M  V30 3001 O 282.948 -3.46106 -0.841961 0
M  V30 3002 O 281.807 -5.24512 -1.53459 0
M  V30 3003 H 278.901 -0.78301 -0.26613 0
M  V30 3004 H 281.447 -1.68347 0.213877 0
M  V30 3005 H 280.219 -3.90965 0.161829 0
M  V30 3006 H 279.842 -3.66733 -1.53598 0
M  V30 3007 N 280.839 0.0985539 -1.57292 0
M  V30 3008 C 282.086 0.802678 -1.85912 0
M  V30 3009 C 282.414 1.78901 -0.763186 0
M  V30 3010 O 281.669 1.94178 0.243559 0
M  V30 3011 C 281.968 1.56927 -3.21105 0
M  V30 3012 C 281.634 0.725376 -4.45027 0
M  V30 3013 C 280.296 0.492726 -4.78671 0
M  V30 3014 C 282.648 0.138493 -5.21016 0
M  V30 3015 C 279.976 -0.336727 -5.85733 0
M  V30 3016 C 282.328 -0.678264 -6.28953 0
M  V30 3017 C 280.992 -0.921039 -6.61115 0
M  V30 3018 H 280.262 0.293721 -0.680301 0
M  V30 3019 H 282.909 0.0642841 -1.91392 0
M  V30 3020 H 281.214 2.37914 -3.11294 0
M  V30 3021 H 282.911 2.11841 -3.40477 0
M  V30 3022 H 279.501 0.916815 -4.18679 0
M  V30 3023 H 283.685 0.305404 -4.95359 0
M  V30 3024 H 278.941 -0.533836 -6.09065 0
M  V30 3025 H 283.115 -1.1399 -6.87007 0
M  V30 3026 H 280.742 -1.56556 -7.43905 0
M  V30 3027 N 282.317 1.53212 0.369288 0
M  V30 3028 C 283.566 1.68436 1.10961 0
M  V30 3029 C 283.879 0.440738 1.9057 0
M  V30 3030 O 285.085 0.473446 2.6734 0
M  V30 3031 C 283.541 2.97744 2.0218 0
M  V30 3032 C 283.149 4.29355 1.279 0
M  V30 3033 C 284.893 3.22334 2.76226 0
M  V30 3034 C 282.8 5.49755 2.17999 0
M  V30 3035 H 281.73 0.627568 0.41794 0
M  V30 3036 H 284.381 1.79713 0.370884 0
M  V30 3037 H 282.763 2.8026 2.79768 0
M  V30 3038 H 283.937 4.57458 0.554007 0
M  V30 3039 H 282.252 4.11179 0.657311 0
M  V30 3040 H 284.849 4.09471 3.43857 0
M  V30 3041 H 285.192 2.38238 3.41392 0
M  V30 3042 H 285.725 3.40475 2.05723 0
M  V30 3043 H 282.464 6.36318 1.57417 0
M  V30 3044 H 281.984 5.25937 2.88359 0
M  V30 3045 H 283.663 5.84401 2.77641 0
M  V30 3046 N 283.795 -0.628877 1.44509 0
M  V30 3047 C 285.042 -1.38839 1.47411 0
M  V30 3048 C 285.37 -1.94202 0.10757 0
M  V30 3049 O 284.625 -1.74243 -0.890947 0
M  V30 3050 C 284.924 -2.56995 2.48371 0
M  V30 3051 C 284.59 -2.19908 3.93639 0
M  V30 3052 C 283.252 -2.09506 4.33198 0
M  V30 3053 C 285.604 -1.9064 4.85083 0
M  V30 3054 C 282.932 -1.68028 5.62124 0
M  V30 3055 C 285.284 -1.50655 6.14399 0
M  V30 3056 C 283.948 -1.38796 6.5291 0
M  V30 3057 H 283.218 -0.508048 0.539414 0
M  V30 3058 H 285.865 -0.712913 1.77735 0
M  V30 3059 H 284.17 -3.29786 2.11538 0
M  V30 3060 H 285.867 -3.15223 2.47861 0
M  V30 3061 H 282.457 -2.28922 3.62343 0
M  V30 3062 H 286.641 -1.97585 4.55273 0
M  V30 3063 H 281.897 -1.57452 5.90778 0
M  V30 3064 H 286.071 -1.27048 6.84713 0
M  V30 3065 H 283.698 -1.06429 7.52713 0
M  V30 3066 N 285.273 -1.31445 -0.869486 0
M  V30 3067 C 286.221 -1.19067 -1.99814 0
M  V30 3068 C 287.215 -0.0988569 -1.69111 0
M  V30 3069 O 288.421 -0.260781 -1.78101 0
M  V30 3070 H 284.796 -0.368677 -0.655425 0
M  V30 3071 H 286.767 -2.14555 -2.07385 0
M  V30 3072 C 285.516 -0.915323 -3.35436 0
M  V30 3073 H 284.839 -1.74759 -3.59582 0
M  V30 3074 H 286.279 -0.868895 -4.15001 0
M  V30 3075 C 284.738 0.381928 -3.34728 0
M  V30 3076 O 285.268 1.39857 -3.76567 0
M  V30 3077 N 283.474 0.398633 -2.87853 0
M  V30 3078 H 283.021 -0.429186 -2.54 0
M  V30 3079 H 282.979 1.26651 -2.87762 0
M  V30 3080 N 286.751 1.08385 -1.14413 0
M  V30 3081 C 287.701 2.13509 -0.79987 0
M  V30 3082 C 288.685 1.5951 0.211059 0
M  V30 3083 O 289.877 1.76995 0.0133694 0
M  V30 3084 C 287.006 3.42162 -0.279297 0
M  V30 3085 C 286.092 4.03042 -1.31976 0
M  V30 3086 N 286.483 4.38327 -2.52395 0
M  V30 3087 C 284.781 4.30379 -1.17004 0
M  V30 3088 C 285.482 4.86428 -3.19003 0
M  V30 3089 N 284.458 4.84547 -2.46405 0
M  V30 3090 H 288.26 2.38609 -1.7159 0
M  V30 3091 H 285.774 1.2572 -1.02802 0
M  V30 3092 H 287.771 4.16898 -0.0143688 0
M  V30 3093 H 286.431 3.18511 0.630923 0
M  V30 3094 H 287.442 4.29349 -2.89621 0
M  V30 3095 H 284.119 4.16281 -0.318854 0
M  V30 3096 H 285.509 5.23107 -4.21674 0
M  V30 3097 N 288.23 0.939286 1.26551 0
M  V30 3098 C 289.458 0.602536 1.97932 0
M  V30 3099 C 289.873 -0.82206 1.69964 0
M  V30 3100 O 289.23 -1.54789 0.966784 0
M  V30 3101 C 289.281 0.832946 3.51773 0
M  V30 3102 O 289.002 2.20151 3.78768 0
M  V30 3103 C 290.503 0.506483 4.40397 0
M  V30 3104 H 287.723 0.227248 0.631347 0
M  V30 3105 H 290.267 1.25948 1.61113 0
M  V30 3106 H 288.422 0.222644 3.8676 0
M  V30 3107 H 288.836 2.26013 4.73306 0
M  V30 3108 H 290.31 0.718333 5.47306 0
M  V30 3109 H 290.787 -0.558451 4.35635 0
M  V30 3110 H 291.393 1.09543 4.10951 0
M  V30 3111 N 289.708 -1.40897 0.706093 0
M  V30 3112 C 290.933 -2.05895 0.249435 0
M  V30 3113 C 291.358 -1.52823 -1.09666 0
M  V30 3114 O 290.716 -0.659589 -1.68876 0
M  V30 3115 C 290.764 -3.59872 0.22904 0
M  V30 3116 O 289.868 -4.04708 -0.792784 0
M  V30 3117 H 289.209 -0.653206 0.119241 0
M  V30 3118 H 291.739 -1.80471 0.96391 0
M  V30 3119 H 291.749 -4.07951 0.0634791 0
M  V30 3120 H 290.424 -3.97866 1.21141 0
M  V30 3121 H 289.001 -3.68111 -0.59572 0
M  V30 3122 N 291.186 -0.45159 -1.50991 0
M  V30 3123 C 292.134 0.366864 -2.29689 0
M  V30 3124 C 293.128 1.00809 -1.36139 0
M  V30 3125 O 294.334 0.941427 -1.53418 0
M  V30 3126 H 290.709 0.137133 -0.739391 0
M  V30 3127 H 292.68 -0.317538 -2.96706 0
M  V30 3128 C 291.429 1.44751 -3.16137 0
M  V30 3129 H 290.752 0.963473 -3.88017 0
M  V30 3130 H 292.192 1.99315 -3.74232 0
M  V30 3131 C 290.651 2.43869 -2.32442 0
M  V30 3132 O 291.181 3.4872 -1.99392 0
M  V30 3133 N 289.387 2.15105 -1.95392 0
M  V30 3134 H 288.934 1.29866 -2.22469 0
M  V30 3135 H 288.892 2.81661 -1.39693 0
M  V30 3136 N 292.664 1.56529 -0.183458 0
M  V30 3137 C 293.574 2.22144 0.754272 0
M  V30 3138 C 294.59 1.21684 1.24374 0
M  V30 3139 O 295.766 1.54385 1.29333 0
M  V30 3140 C 292.831 2.85884 1.96141 0
M  V30 3141 C 291.892 4.01579 1.51765 0
M  V30 3142 C 291.125 4.6227 2.66725 0
M  V30 3143 O 291.348 4.21865 3.83909 0
M  V30 3144 O 290.282 5.51936 2.40104 0
M  V30 3145 H 294.108 3.02861 0.225527 0
M  V30 3146 H 291.693 1.49331 0.0453032 0
M  V30 3147 H 293.575 3.26253 2.66715 0
M  V30 3148 H 292.25 2.08154 2.47899 0
M  V30 3149 H 291.157 3.65856 0.781049 0
M  V30 3150 H 292.49 4.80938 1.04686 0
M  V30 3151 N 294.142 -0.090211 1.57342 0
M  V30 3152 C 295.092 -1.11557 1.98844 0
M  V30 3153 C 296.076 -1.35503 0.867624 0
M  V30 3154 O 297.268 -1.36113 1.13148 0
M  V30 3155 C 294.397 -2.43446 2.42051 0
M  V30 3156 C 293.483 -2.22853 3.60828 0
M  V30 3157 N 293.874 -1.72141 4.75606 0
M  V30 3158 C 292.172 -2.53401 3.67021 0
M  V30 3159 C 292.873 -1.65932 5.57531 0
M  V30 3160 N 291.849 -2.11323 5.00843 0
M  V30 3161 H 295.651 -0.716499 2.85032 0
M  V30 3162 H 293.165 -0.297567 1.59651 0
M  V30 3163 H 295.162 -3.17644 2.70014 0
M  V30 3164 H 293.822 -2.84087 1.57241 0
M  V30 3165 H 294.833 -1.41268 4.98261 0
M  V30 3166 H 291.51 -2.97532 2.92884 0
M  V30 3167 H 292.9 -1.27733 6.59647 0
M  V30 3168 N 295.62 -1.53406 -0.361157 0
M  V30 3169 C 296.53 -1.83122 -1.4664 0
M  V30 3170 C 297.546 -0.719943 -1.58407 0
M  V30 3171 O 298.722 -1.01046 -1.74218 0
M  V30 3172 C 295.787 -2.01891 -2.81853 0
M  V30 3173 C 294.848 -3.25784 -2.79577 0
M  V30 3174 C 294.081 -3.43648 -4.0834 0
M  V30 3175 O 294.304 -2.65714 -5.0473 0
M  V30 3176 O 293.238 -4.37018 -4.13883 0
M  V30 3177 H 297.064 -2.7703 -1.24451 0
M  V30 3178 H 294.649 -1.38841 -0.551678 0
M  V30 3179 H 296.531 -2.15782 -3.61962 0
M  V30 3180 H 295.206 -1.11173 -3.0401 0
M  V30 3181 H 294.113 -3.17312 -1.98151 0
M  V30 3182 H 295.446 -4.16439 -2.62373 0
M  V30 3183 N 297.098 0.621204 -1.44841 0
M  V30 3184 C 298.344 1.38073 -1.49357 0
M  V30 3185 C 298.699 1.91973 -0.128115 0
M  V30 3186 O 297.992 1.71311 0.858087 0
M  V30 3187 C 298.186 2.55675 -2.4973 0
M  V30 3188 C 298.015 2.13289 -3.95901 0
M  V30 3189 C 296.785 2.001 -4.63991 0
M  V30 3190 C 298.983 1.7159 -4.84831 0
M  V30 3191 N 296.965 1.51381 -5.94943 0
M  V30 3192 C 298.336 1.34188 -6.05304 0
M  V30 3193 C 300.391 1.59059 -4.7181 0
M  V30 3194 C 299.094 0.855085 -7.14199 0
M  V30 3195 C 301.12 1.11784 -5.8074 0
M  V30 3196 C 300.482 0.753385 -7.0036 0
M  V30 3197 H 296.581 0.499675 -0.601539 0
M  V30 3198 H 299.165 0.711609 -1.8123 0
M  V30 3199 H 297.336 3.20201 -2.19832 0
M  V30 3200 H 299.068 3.22509 -2.4448 0
M  V30 3201 H 295.823 2.20863 -4.18947 0
M  V30 3202 H 296.247 1.29293 -6.64539 0
M  V30 3203 H 300.889 1.85865 -3.79755 0
M  V30 3204 H 298.607 0.574552 -8.06055 0
M  V30 3205 H 302.193 1.02533 -5.72694 0
M  V30 3206 H 301.073 0.393183 -7.83214 0
M  V30 3207 N 298.576 1.31904 0.862503 0
M  V30 3208 C 299.539 1.20131 1.95195 0
M  V30 3209 C 300.539 0.126409 1.60302 0
M  V30 3210 O 301.729 0.376234 1.70089 0
M  V30 3211 C 298.861 0.845691 3.30244 0
M  V30 3212 H 300.054 2.16943 2.07064 0
M  V30 3213 H 297.607 1.15622 1.05172 0
M  V30 3214 H 298.342 -0.120957 3.24074 0
M  V30 3215 H 298.127 1.62276 3.56944 0
M  V30 3216 H 299.617 0.787418 4.10109 0
M  V30 3217 N 300.054 -1.07777 1.14986 0
M  V30 3218 C 300.986 -2.14769 0.800436 0
M  V30 3219 C 301.999 -1.61739 -0.185595 0
M  V30 3220 O 303.188 -1.78462 0.0370358 0
M  V30 3221 C 300.288 -3.38481 0.168533 0
M  V30 3222 C 299.461 -4.20876 1.1909 0
M  V30 3223 C 298.52 -5.22976 0.581575 0
M  V30 3224 O 297.546 -5.55388 1.24633 0
M  V30 3225 N 298.748 -5.76976 -0.638706 0
M  V30 3226 H 301.513 -2.45348 1.72118 0
M  V30 3227 H 299.074 -1.23645 1.04515 0
M  V30 3228 H 301.066 -4.03916 -0.251764 0
M  V30 3229 H 299.636 -3.05651 -0.655467 0
M  V30 3230 H 298.856 -3.51322 1.78791 0
M  V30 3231 H 300.144 -4.7274 1.88133 0
M  V30 3232 H 299.542 -5.52886 -1.19723 0
M  V30 3233 H 298.099 -6.44061 -1.00142 0
M  V30 3234 N 301.532 -0.945985 -1.26051 0
M  V30 3235 C 302.948 -0.649045 -1.45807 0
M  V30 3236 C 303.148 0.796158 -1.85104 0
M  V30 3237 O 302.204 1.57233 -1.97571 0
M  V30 3238 C 303.517 -1.61458 -2.53677 0
M  V30 3239 C 305.065 -1.62481 -2.67524 0
M  V30 3240 C 305.54 -2.57776 -3.7857 0
M  V30 3241 N 307.031 -2.5609 -3.85969 0
M  V30 3242 C 307.766 -3.26508 -4.7136 0
M  V30 3243 N 307.262 -4.0637 -5.61102 0
M  V30 3244 N 309.055 -3.15437 -4.65248 0
M  V30 3245 H 301.206 -1.88005 -0.988328 0
M  V30 3246 H 303.469 -0.808198 -0.4955 0
M  V30 3247 H 303.175 -2.64644 -2.31638 0
M  V30 3248 H 303.049 -1.37036 -3.51427 0
M  V30 3249 H 305.436 -0.600167 -2.88933 0
M  V30 3250 H 305.517 -1.90958 -1.70202 0
M  V30 3251 H 305.161 -3.60361 -3.57913 0
M  V30 3252 H 305.091 -2.26587 -4.75359 0
M  V30 3253 H 307.582 -1.98105 -3.21812 0
M  V30 3254 H 307.895 -4.57042 -6.23164 0
M  V30 3255 H 306.24 -4.10469 -5.60839 0
M  V30 3256 H 309.431 -2.52525 -3.94143 0
M  V30 3257 H 309.604 -3.70584 -5.31575 0
M  V30 3258 N 303.011 1.40521 -0.713556 0
M  V30 3259 C 304.251 2.02783 -0.256584 0
M  V30 3260 C 304.615 1.55352 1.12827 0
M  V30 3261 O 305.816 2.09663 1.68211 0
M  V30 3262 C 304.087 3.5586 -0.331414 0
M  V30 3263 S 305.646 4.38773 0.0488703 0
M  V30 3264 H 302.464 0.703655 -0.101934 0
M  V30 3265 H 305.066 1.71674 -0.935325 0
M  V30 3266 H 303.77 3.87874 -1.34098 0
M  V30 3267 H 303.301 3.91695 0.365873 0
M  V30 3268 H 305.316 4.79633 1.2715 0
M  V30 3269 N 304.489 0.459591 1.5075 0
M  V30 3270 C 305.452 -0.329093 2.26825 0
M  V30 3271 C 306.452 -0.930481 1.31144 0
M  V30 3272 O 307.642 -0.801453 1.54669 0
M  V30 3273 C 304.774 -1.46768 3.07688 0
M  V30 3274 H 305.967 0.337924 2.9799 0
M  V30 3275 H 303.52 0.213336 1.54837 0
M  V30 3276 H 304.255 -2.17009 2.40993 0
M  V30 3277 H 304.04 -1.04238 3.77991 0
M  V30 3278 H 305.53 -2.02433 3.65254 0
M  V30 3279 N 305.967 -1.56429 0.191757 0
M  V30 3280 C 306.93 -2.17707 -0.716688 0
M  V30 3281 C 307.93 -1.13061 -1.14341 0
M  V30 3282 O 309.12 -1.38464 -1.05704 0
M  V30 3283 C 306.252 -2.77644 -1.97804 0
M  V30 3284 H 307.445 -2.99342 -0.1829 0
M  V30 3285 H 304.998 -1.56193 -0.0578566 0
M  V30 3286 H 305.733 -1.99799 -2.55443 0
M  V30 3287 H 305.518 -3.54246 -1.68083 0
M  V30 3288 H 307.008 -3.24708 -2.62592 0
M  V30 3289 N 307.445 0.0818655 -1.57387 0
M  V30 3290 C 308.693 0.781368 -1.86384 0
M  V30 3291 C 309.014 1.78618 -0.782342 0
M  V30 3292 O 308.284 1.94976 0.190061 0
M  V30 3293 H 306.864 0.291562 -0.687751 0
M  V30 3294 H 309.526 0.060348 -1.94807 0
M  V30 3295 H 308.622 1.3038 -2.83562 0
M  V30 3296 N 308.923 1.53595 0.353017 0
M  V30 3297 C 310.2 1.61002 1.11075 0
M  V30 3298 C 310.58 0.425356 2.0677 0
M  V30 3299 O 309.928 -0.583267 2.2093 0
M  V30 3300 C 310.138 2.96631 1.83877 0
M  V30 3301 C 311.486 3.51653 2.37961 0
M  V30 3302 O 312.51 2.98743 1.93987 0
M  V30 3303 O 311.369 4.44177 3.18386 0
M  V30 3304 H 308.463 0.650825 0.510251 0
M  V30 3305 H 311.009 1.6594 0.35527 0
M  V30 3306 H 309.781 3.74293 1.14108 0
M  V30 3307 H 309.404 2.95242 2.66304 0
M  V30 3308 N 310.401 -0.613514 1.45168 0
M  V30 3309 C 311.812 -1.19539 1.43413 0
M  V30 3310 C 312.163 -1.95558 0.158632 0
M  V30 3311 O 311.288 -2.0335 -0.740119 0
M  V30 3312 C 311.883 -2.17445 2.59813 0
M  V30 3313 C 310.442 -2.71022 2.61197 0
M  V30 3314 C 309.589 -1.46323 2.35552 0
M  V30 3315 H 312.54 -0.403163 1.53494 0
M  V30 3316 H 312.561 -3.00373 2.33574 0
M  V30 3317 H 312.073 -1.62089 3.52631 0
M  V30 3318 H 310.174 -3.30332 1.7237 0
M  V30 3319 H 310.287 -3.15859 3.60236 0
M  V30 3320 H 308.651 -1.75072 1.84992 0
M  V30 3321 H 309.434 -0.92844 3.30507 0
M  V30 3322 N 311.879 -1.3236 -0.855495 0
M  V30 3323 C 312.809 -1.23833 -1.97958 0
M  V30 3324 C 313.79 -0.122361 -1.69659 0
M  V30 3325 O 314.975 -0.30939 -1.9172 0
M  V30 3326 C 312.105 -0.959772 -3.33775 0
M  V30 3327 C 311.059 -2.03689 -3.76424 0
M  V30 3328 C 310.385 -1.61075 -5.09862 0
M  V30 3329 C 311.685 -3.4518 -3.9198 0
M  V30 3330 H 313.379 -2.1788 -2.0535 0
M  V30 3331 H 310.925 -1.04891 -0.986605 0
M  V30 3332 H 312.878 -0.886678 -4.11966 0
M  V30 3333 H 311.602 0.0163404 -3.26596 0
M  V30 3334 H 310.261 -2.10012 -3.00484 0
M  V30 3335 H 309.909 -0.622107 -4.99138 0
M  V30 3336 H 309.609 -2.33143 -5.39368 0
M  V30 3337 H 311.133 -1.55201 -5.90546 0
M  V30 3338 H 312.547 -3.4145 -4.60526 0
M  V30 3339 H 310.944 -4.1559 -4.32903 0
M  V30 3340 H 312.014 -3.84903 -2.94919 0
M  V30 3341 N 313.357 1.07166 -1.15556 0
M  V30 3342 C 314.604 1.79798 -0.931604 0
M  V30 3343 C 314.932 1.8682 0.54115 0
M  V30 3344 O 314.187 1.34942 1.41736 0
M  V30 3345 C 314.486 3.24707 -1.49332 0
M  V30 3346 C 314.152 3.37781 -2.98688 0
M  V30 3347 C 312.814 3.41057 -3.39461 0
M  V30 3348 C 315.166 3.40424 -3.94665 0
M  V30 3349 C 312.494 3.4458 -4.74849 0
M  V30 3350 C 314.846 3.45485 -5.29927 0
M  V30 3351 C 313.51 3.47039 -5.70193 0
M  V30 3352 H 312.78 0.657928 -0.340898 0
M  V30 3353 H 315.427 1.26091 -1.44129 0
M  V30 3354 H 313.732 3.81208 -0.904859 0
M  V30 3355 H 315.429 3.79486 -1.29582 0
M  V30 3356 H 312.019 3.35932 -2.66172 0
M  V30 3357 H 316.203 3.37113 -3.64237 0
M  V30 3358 H 311.459 3.44083 -5.05388 0
M  V30 3359 H 315.633 3.46476 -6.04092 0
M  V30 3360 H 313.26 3.49522 -6.75084 0
M  V30 3361 N 314.835 0.952656 1.25548 0
M  V30 3362 C 316.112 0.523818 1.88456 0
M  V30 3363 C 316.492 -0.998871 1.85973 0
M  V30 3364 O 315.84 -1.86381 1.3219 0
M  V30 3365 C 316.05 1.0982 3.31271 0
M  V30 3366 C 317.398 1.17385 4.08051 0
M  V30 3367 O 318.422 1.04961 3.40384 0
M  V30 3368 O 317.281 1.36852 5.29088 0
M  V30 3369 H 314.375 0.172485 0.808813 0
M  V30 3370 H 316.921 1.04596 1.33633 0
M  V30 3371 H 315.693 2.1415 3.27499 0
M  V30 3372 H 315.316 0.559191 3.93648 0
M  V30 3373 N 316.313 -1.40141 0.720998 0
M  V30 3374 C 317.261 -2.3252 0.0608547 0
M  V30 3375 C 318.255 -1.52326 -0.741152 0
M  V30 3376 O 319.461 -1.68089 -0.643911 0
M  V30 3377 H 315.836 -0.751999 0.000876664 0
M  V30 3378 H 317.807 -2.8584 0.856614 0
M  V30 3379 C 316.556 -3.37331 -0.842809 0
M  V30 3380 H 315.879 -3.99108 -0.235084 0
M  V30 3381 H 317.319 -4.04452 -1.27257 0
M  V30 3382 C 315.778 -2.73246 -1.97074 0
M  V30 3383 O 316.308 -2.59998 -3.06209 0
M  V30 3384 N 314.514 -2.31547 -1.75597 0
M  V30 3385 H 314.061 -2.42522 -0.868368 0
M  V30 3386 H 314.019 -1.89007 -2.51244 0
M  V30 3387 N 317.792 -0.46758 -1.50504 0
M  V30 3388 C 319.039 0.0886219 -2.02306 0
M  V30 3389 C 319.367 1.40037 -1.34981 0
M  V30 3390 O 318.622 1.90136 -0.463318 0
M  V30 3391 C 318.921 0.323995 -3.55928 0
M  V30 3392 C 318.587 -0.905618 -4.41712 0
M  V30 3393 C 317.249 -1.24275 -4.64875 0
M  V30 3394 C 319.601 -1.72448 -4.91845 0
M  V30 3395 C 316.929 -2.39888 -5.35417 0
M  V30 3396 C 319.281 -2.87185 -5.63656 0
M  V30 3397 C 317.945 -3.21317 -5.85074 0
M  V30 3398 H 317.215 0.0324291 -0.74029 0
M  V30 3399 H 319.862 -0.620945 -1.81153 0
M  V30 3400 H 318.167 1.11577 -3.75577 0
M  V30 3401 H 319.864 0.76826 -3.93572 0
M  V30 3402 H 316.454 -0.632956 -4.239 0
M  V30 3403 H 320.638 -1.4772 -4.73806 0
M  V30 3404 H 315.894 -2.66611 -5.50208 0
M  V30 3405 H 320.068 -3.50985 -6.01484 0
M  V30 3406 H 317.695 -4.1101 -6.39511 0
M  V30 3407 N 319.27 1.56325 -0.20005 0
M  V30 3408 C 320.5 2.01811 0.442232 0
M  V30 3409 C 320.908 1.07932 1.55394 0
M  V30 3410 O 320.251 0.0772685 1.83537 0
M  V30 3411 C 320.313 3.43685 1.05457 0
M  V30 3412 C 319.977 4.56928 0.0809833 0
M  V30 3413 C 320.974 5.15009 -0.711471 0
M  V30 3414 C 318.659 5.0229 -0.0315364 0
M  V30 3415 C 320.653 6.16904 -1.60336 0
M  V30 3416 C 318.34 6.04028 -0.926981 0
M  V30 3417 C 319.338 6.6121 -1.71146 0
M  V30 3418 O 319.026 7.60971 -2.59189 0
M  V30 3419 H 318.758 0.666173 0.114848 0
M  V30 3420 H 321.312 2.03085 -0.307511 0
M  V30 3421 H 319.542 3.39413 1.85299 0
M  V30 3422 H 321.231 3.72948 1.60201 0
M  V30 3423 H 321.997 4.80827 -0.634873 0
M  V30 3424 H 317.876 4.57476 0.568902 0
M  V30 3425 H 321.42 6.61464 -2.21611 0
M  V30 3426 H 317.317 6.37634 -1.00468 0
M  V30 3427 H 318.085 7.7841 -2.53023 0
M  V30 3428 N 320.748 -0.0735177 1.57428 0
M  V30 3429 C 321.978 -0.78483 1.91112 0
M  V30 3430 C 322.386 -1.71729 0.7941 0
M  V30 3431 O 321.729 -1.82105 -0.241542 0
M  V30 3432 C 321.791 -1.63346 3.20247 0
M  V30 3433 C 321.455 -0.870557 4.48632 0
M  V30 3434 C 322.452 -0.19058 5.19551 0
M  V30 3435 C 320.137 -0.838242 4.95256 0
M  V30 3436 C 322.131 0.511503 6.35344 0
M  V30 3437 C 319.818 -0.132386 6.10957 0
M  V30 3438 C 320.816 0.541288 6.80852 0
M  V30 3439 O 320.504 1.23578 7.94345 0
M  V30 3440 H 320.236 -0.228408 0.636244 0
M  V30 3441 H 322.79 -0.0486039 2.05342 0
M  V30 3442 H 321.02 -2.41245 3.02222 0
M  V30 3443 H 322.709 -2.22329 3.39595 0
M  V30 3444 H 323.475 -0.206864 4.84559 0
M  V30 3445 H 319.354 -1.35206 4.40727 0
M  V30 3446 H 322.898 1.03789 6.89836 0
M  V30 3447 H 318.795 -0.114023 6.45399 0
M  V30 3448 H 319.563 1.14487 8.10454 0
M  V30 3449 N 322.226 -1.5378 -0.344866 0
M  V30 3450 C 323.475 -1.7018 -1.08267 0
M  V30 3451 C 323.788 -0.471 -1.89845 0
M  V30 3452 O 324.994 -0.515917 -2.66553 0
M  V30 3453 C 323.45 -3.00923 -1.97417 0
M  V30 3454 C 323.058 -4.31335 -1.21053 0
M  V30 3455 C 324.802 -3.26688 -2.71063 0
M  V30 3456 C 322.709 -5.53153 -2.09225 0
M  V30 3457 H 321.639 -0.634138 -0.407903 0
M  V30 3458 H 324.29 -1.8028 -0.342246 0
M  V30 3459 H 322.672 -2.84676 -2.75274 0
M  V30 3460 H 323.846 -4.58281 -0.481159 0
M  V30 3461 H 322.161 -4.12173 -0.591813 0
M  V30 3462 H 324.758 -4.1489 -3.37299 0
M  V30 3463 H 325.101 -2.43639 -3.37558 0
M  V30 3464 H 325.634 -3.43705 -2.0028 0
M  V30 3465 H 322.373 -6.38741 -1.47274 0
M  V30 3466 H 321.893 -5.30458 -2.79955 0
M  V30 3467 H 323.572 -5.88744 -2.68308 0
M  V30 3468 N 323.704 0.605807 -1.45491 0
M  V30 3469 C 324.951 1.36476 -1.49601 0
M  V30 3470 C 325.279 1.94007 -0.138452 0
M  V30 3471 O 324.534 1.75638 0.863114 0
M  V30 3472 C 324.833 2.53012 -2.52428 0
M  V30 3473 C 324.499 2.13617 -3.97087 0
M  V30 3474 C 323.161 2.02587 -4.36477 0
M  V30 3475 C 325.513 1.82899 -4.88055 0
M  V30 3476 C 322.841 1.59064 -5.64726 0
M  V30 3477 C 325.193 1.40861 -6.16718 0
M  V30 3478 C 323.857 1.28391 -6.55036 0
M  V30 3479 H 323.127 0.499402 -0.547429 0
M  V30 3480 H 325.774 0.684546 -1.78847 0
M  V30 3481 H 324.079 3.26379 -2.16758 0
M  V30 3482 H 325.776 3.1124 -2.52845 0
M  V30 3483 H 322.366 2.23129 -3.65939 0
M  V30 3484 H 326.55 1.90317 -4.58359 0
M  V30 3485 H 321.806 1.48034 -5.93208 0
M  V30 3486 H 325.98 1.16138 -6.86648 0
M  V30 3487 H 323.607 0.944403 -7.54311 0
M  V30 3488 N 325.182 1.32811 0.848464 0
M  V30 3489 C 326.593 1.21315 1.41914 0
M  V30 3490 C 326.944 -0.171847 1.95446 0
M  V30 3491 O 326.069 -1.07093 1.88043 0
M  V30 3492 C 326.664 2.19631 2.57968 0
M  V30 3493 C 325.223 2.12003 3.11017 0
M  V30 3494 C 324.37 2.07651 1.83783 0
M  V30 3495 H 327.321 1.44549 0.655071 0
M  V30 3496 H 327.342 1.79845 3.35315 0
M  V30 3497 H 326.854 3.20423 2.18976 0
M  V30 3498 H 324.955 1.14481 3.54577 0
M  V30 3499 H 325.068 3.02111 3.71841 0
M  V30 3500 H 323.432 1.52983 2.03638 0
M  V30 3501 H 324.215 3.10235 1.47 0
M  V30 3502 N 326.66 -1.06551 1.16123 0
M  V30 3503 C 327.937 -1.76097 0.85142 0
M  V30 3504 C 328.317 -2.00802 -0.6513 0
M  V30 3505 O 327.665 -1.63302 -1.59827 0
M  V30 3506 C 327.875 -3.06384 1.67122 0
M  V30 3507 C 329.223 -3.80585 1.88255 0
M  V30 3508 O 330.247 -3.16218 1.63966 0
M  V30 3509 O 329.106 -4.96212 2.2899 0
M  V30 3510 H 326.2 -0.765102 0.313923 0
M  V30 3511 H 328.746 -1.12844 1.26745 0
M  V30 3512 H 327.518 -2.84071 2.69108 0
M  V30 3513 H 327.141 -3.77371 1.25206 0
M  V30 3514 N 328.138 -0.959301 -1.25041 0
M  V30 3515 C 329.554 -0.664474 -1.4511 0
M  V30 3516 C 329.754 0.776481 -1.85938 0
M  V30 3517 O 328.81 1.55128 -1.99227 0
M  V30 3518 C 330.123 -1.64139 -2.5195 0
M  V30 3519 C 331.671 -1.65309 -2.65786 0
M  V30 3520 C 332.146 -2.61777 -3.75815 0
M  V30 3521 N 333.637 -2.60169 -3.83231 0
M  V30 3522 C 334.372 -3.31489 -4.6787 0
M  V30 3523 N 333.868 -4.12298 -5.56761 0
M  V30 3524 N 335.661 -3.20354 -4.61876 0
M  V30 3525 H 327.812 -1.89043 -0.968332 0
M  V30 3526 H 330.075 -0.813408 -0.4869 0
M  V30 3527 H 329.781 -2.67086 -2.28819 0
M  V30 3528 H 329.655 -1.40756 -3.49954 0
M  V30 3529 H 332.042 -0.630778 -2.8828 0
M  V30 3530 H 332.123 -1.92753 -1.68167 0
M  V30 3531 H 331.767 -3.64137 -3.54071 0
M  V30 3532 H 331.697 -2.31616 -4.72929 0
M  V30 3533 H 334.188 -2.01507 -3.19692 0
M  V30 3534 H 334.501 -4.63625 -6.18281 0
M  V30 3535 H 332.846 -4.16395 -5.56454 0
M  V30 3536 H 336.037 -2.56692 -3.91442 0
M  V30 3537 H 336.21 -3.76201 -5.27614 0
M  V30 3538 N 329.616 1.39756 -0.72842 0
M  V30 3539 C 331.032 1.5442 -0.403308 0
M  V30 3540 C 331.232 1.69694 1.08656 0
M  V30 3541 O 330.288 1.69373 1.87267 0
M  V30 3542 C 331.601 2.76555 -1.18058 0
M  V30 3543 C 333.149 2.90384 -1.16815 0
M  V30 3544 C 333.624 4.15449 -1.92785 0
M  V30 3545 N 335.115 4.22475 -1.89918 0
M  V30 3546 C 335.85 5.1818 -2.45514 0
M  V30 3547 N 335.346 6.19714 -3.09719 0
M  V30 3548 N 337.139 5.1035 -2.35584 0
M  V30 3549 H 329.29 1.28089 -1.69431 0
M  V30 3550 H 331.553 0.620327 -0.716867 0
M  V30 3551 H 331.259 2.7159 -2.23455 0
M  V30 3552 H 331.133 3.69033 -0.780662 0
M  V30 3553 H 333.52 2.94846 -0.12234 0
M  V30 3554 H 333.601 1.98988 -1.6074 0
M  V30 3555 H 333.245 4.11749 -2.97364 0
M  V30 3556 H 333.175 5.05877 -1.46272 0
M  V30 3557 H 335.666 3.49743 -1.43138 0
M  V30 3558 H 335.979 6.8919 -3.49625 0
M  V30 3559 H 334.324 6.20121 -3.13807 0
M  V30 3560 H 337.515 4.2996 -1.85072 0
M  V30 3561 H 337.688 5.84761 -2.79211 0
M  V30 3562 N 331.094 0.475555 1.50254 0
M  V30 3563 C 332.027 -0.362381 2.25304 0
M  V30 3564 C 333.005 -0.992393 1.28803 0
M  V30 3565 O 334.189 -1.02746 1.58036 0
M  V30 3566 C 331.316 -1.50813 3.03271 0
M  V30 3567 C 330.362 -0.995044 4.1473 0
M  V30 3568 S 331.195 0.0938436 5.35418 0
M  V30 3569 C 332.351 -1.05567 6.16933 0
M  V30 3570 H 332.584 0.274686 2.96028 0
M  V30 3571 H 330.117 0.260495 1.52187 0
M  V30 3572 H 332.075 -2.16476 3.48781 0
M  V30 3573 H 330.736 -2.11672 2.32064 0
M  V30 3574 H 329.929 -1.85293 4.68703 0
M  V30 3575 H 329.531 -0.416052 3.71679 0
M  V30 3576 H 331.823 -1.96636 6.48337 0
M  V30 3577 H 332.766 -0.555109 7.05921 0
M  V30 3578 H 333.174 -1.31151 5.49053 0
M  V30 3579 N 332.573 -1.56217 0.208337 0
M  V30 3580 C 333.984 -1.84243 -0.301904 0
M  V30 3581 C 334.335 -1.12939 -1.60434 0
M  V30 3582 O 333.46 -0.39461 -2.12772 0
M  V30 3583 C 334.055 -3.34231 -0.554543 0
M  V30 3584 C 332.614 -3.62621 -1.00912 0
M  V30 3585 C 331.761 -2.77224 -0.064933 0
M  V30 3586 H 334.712 -1.52712 0.431833 0
M  V30 3587 H 334.733 -3.5372 -1.40223 0
M  V30 3588 H 334.245 -3.86099 0.393561 0
M  V30 3589 H 332.346 -3.16197 -1.97104 0
M  V30 3590 H 332.459 -4.7071 -0.892674 0
M  V30 3591 H 330.823 -2.48256 -0.56929 0
M  V30 3592 H 331.606 -3.31887 0.877851 0
M  V30 3593 N 334.051 0.0651679 -1.57465 0
M  V30 3594 C 335.328 0.79644 -1.78651 0
M  V30 3595 C 335.708 1.95454 -0.797566 0
M  V30 3596 O 335.056 2.27882 0.167946 0
M  V30 3597 C 335.266 1.26322 -3.25337 0
M  V30 3598 C 336.614 1.6939 -3.89348 0
M  V30 3599 O 337.638 1.35872 -3.29268 0
M  V30 3600 O 336.497 2.31471 -4.95059 0
M  V30 3601 H 333.591 0.382157 -0.733407 0
M  V30 3602 H 336.137 0.0447311 -1.69641 0
M  V30 3603 H 334.909 0.434859 -3.88876 0
M  V30 3604 H 334.532 2.07604 -3.39096 0
M  V30 3605 N 335.529 1.53961 0.336706 0
M  V30 3606 C 336.461 1.78751 1.4346 0
M  V30 3607 C 337.474 0.669019 1.48418 0
M  V30 3608 O 338.663 0.945884 1.51378 0
M  V30 3609 C 335.763 1.87844 2.82078 0
M  V30 3610 C 334.936 3.17854 3.00479 0
M  V30 3611 C 333.995 3.17816 4.19379 0
M  V30 3612 O 333.021 3.91511 4.13168 0
M  V30 3613 N 334.223 2.40669 5.2826 0
M  V30 3614 H 336.988 2.73493 1.22563 0
M  V30 3615 H 334.549 1.53096 0.526625 0
M  V30 3616 H 336.541 1.85261 3.59806 0
M  V30 3617 H 335.111 1.00257 2.96086 0
M  V30 3618 H 334.331 3.33504 2.10163 0
M  V30 3619 H 335.619 4.03718 3.0966 0
M  V30 3620 H 335.017 1.8036 5.36178 0
M  V30 3621 H 333.574 2.43877 6.04456 0
M  V30 3622 N 337.007 -0.598083 1.45811 0
M  V30 3623 C 338.237 -1.38121 1.53643 0
M  V30 3624 C 338.645 -1.88425 0.171081 0
M  V30 3625 O 337.988 -1.63409 -0.839237 0
M  V30 3626 C 338.05 -2.61432 2.46766 0
M  V30 3627 C 337.714 -2.32702 3.93318 0
M  V30 3628 C 338.711 -1.92479 4.82957 0
M  V30 3629 C 336.396 -2.45321 4.38318 0
M  V30 3630 C 338.39 -1.65248 6.15607 0
M  V30 3631 C 336.077 -2.17703 5.71007 0
M  V30 3632 C 337.075 -1.7773 6.5947 0
M  V30 3633 O 336.763 -1.50441 7.89698 0
M  V30 3634 H 336.495 -0.428863 0.522544 0
M  V30 3635 H 339.049 -0.73557 1.91777 0
M  V30 3636 H 337.279 -3.28749 2.0362 0
M  V30 3637 H 338.968 -3.23487 2.45175 0
M  V30 3638 H 339.734 -1.82258 4.49452 0
M  V30 3639 H 335.613 -2.75399 3.69697 0
M  V30 3640 H 339.157 -1.33973 6.84614 0
M  V30 3641 H 335.054 -2.27544 6.04065 0
M  V30 3642 H 335.822 -1.64415 8.01817 0
M  V30 3643 N 338.485 -1.33259 -0.841409 0
M  V30 3644 C 339.762 -1.15174 -1.58096 0
M  V30 3645 C 340.142 0.282858 -2.09196 0
M  V30 3646 O 339.49 1.28151 -1.89181 0
M  V30 3647 C 339.7 -2.1907 -2.71679 0
M  V30 3648 C 341.048 -2.53093 -3.40924 0
M  V30 3649 O 342.072 -2.17717 -2.81918 0
M  V30 3650 O 340.931 -3.1379 -4.47435 0
M  V30 3651 H 338.025 -0.445303 -0.696875 0
M  V30 3652 H 340.571 -1.44833 -0.884385 0
M  V30 3653 H 339.343 -3.15443 -2.31541 0
M  V30 3654 H 338.966 -1.90481 -3.49002 0
M  V30 3655 N 339.963 1.05934 -1.16686 0
M  V30 3656 C 341.379 1.30938 -0.912542 0
M  V30 3657 C 341.579 1.96803 0.432533 0
M  V30 3658 O 340.635 2.23693 1.17123 0
M  V30 3659 C 341.948 2.18649 -2.06429 0
M  V30 3660 C 343.496 2.32055 -2.10047 0
M  V30 3661 C 343.971 3.23122 -3.24586 0
M  V30 3662 N 345.462 3.30706 -3.24327 0
M  V30 3663 C 346.197 4.01273 -4.09594 0
M  V30 3664 N 345.693 4.74332 -5.04956 0
M  V30 3665 N 347.486 3.97361 -3.97569 0
M  V30 3666 H 339.637 0.615777 -2.03278 0
M  V30 3667 H 341.9 0.334077 -0.887185 0
M  V30 3668 H 341.606 1.77534 -3.03603 0
M  V30 3669 H 341.48 3.19252 -2.00894 0
M  V30 3670 H 343.867 2.72415 -1.13464 0
M  V30 3671 H 343.948 1.31107 -2.19647 0
M  V30 3672 H 343.592 2.83477 -4.2143 0
M  V30 3673 H 343.522 4.24057 -3.12223 0
M  V30 3674 H 346.013 2.78644 -2.55276 0
M  V30 3675 H 346.326 5.25716 -5.6643 0
M  V30 3676 H 344.671 4.733 -5.08933 0
M  V30 3677 H 347.862 3.39405 -3.22369 0
M  V30 3678 H 348.035 4.52089 -4.64241 0
M  V30 3679 N 341.441 0.965919 1.2453 0
M  V30 3680 C 342.669 0.644385 1.96609 0
M  V30 3681 C 343.084 -0.785823 1.71669 0
M  V30 3682 O 342.441 -1.52703 0.999399 0
M  V30 3683 C 342.492 0.907375 3.49927 0
M  V30 3684 O 342.213 2.28136 3.74013 0
M  V30 3685 C 343.714 0.599784 4.39224 0
M  V30 3686 H 340.934 0.240588 0.626385 0
M  V30 3687 H 343.478 1.29337 1.58405 0
M  V30 3688 H 341.633 0.304631 3.862 0
M  V30 3689 H 342.047 2.36002 4.68405 0
M  V30 3690 H 343.521 0.834263 5.45659 0
M  V30 3691 H 343.998 -0.465921 4.36722 0
M  V30 3692 H 344.604 1.18235 4.08535 0
M  V30 3693 N 342.919 -1.39368 0.735821 0
M  V30 3694 C 343.849 -2.33234 0.111506 0
M  V30 3695 C 344.83 -1.53954 -0.723334 0
M  V30 3696 O 346.015 -1.82344 -0.668147 0
M  V30 3697 C 343.145 -3.38057 -0.795917 0
M  V30 3698 C 342.099 -4.2795 -0.065172 0
M  V30 3699 C 341.425 -5.23479 -1.08967 0
M  V30 3700 C 342.725 -5.10741 1.09273 0
M  V30 3701 H 344.419 -2.85692 0.895571 0
M  V30 3702 H 341.965 -1.37364 0.432109 0
M  V30 3703 H 343.918 -4.02675 -1.24221 0
M  V30 3704 H 342.642 -2.8404 -1.61211 0
M  V30 3705 H 341.301 -3.64813 0.361511 0
M  V30 3706 H 340.949 -4.65758 -1.89944 0
M  V30 3707 H 340.649 -5.84472 -0.605489 0
M  V30 3708 H 342.173 -5.90974 -1.53565 0
M  V30 3709 H 343.587 -5.68699 0.724841 0
M  V30 3710 H 341.984 -5.8088 1.50659 0
M  V30 3711 H 343.054 -4.45525 1.91404 0
M  V30 3712 N 344.397 -0.483516 -1.5 0
M  V30 3713 C 345.813 -0.138404 -1.58999 0
M  V30 3714 C 346.013 1.35597 -1.4905 0
M  V30 3715 O 345.069 2.13039 -1.35539 0
M  V30 3716 C 346.382 -0.699658 -2.92447 0
M  V30 3717 C 347.93 -0.664195 -3.05872 0
M  V30 3718 C 348.405 -1.20321 -4.41913 0
M  V30 3719 N 349.896 -1.16315 -4.48358 0
M  V30 3720 C 350.631 -1.55058 -5.52037 0
M  V30 3721 N 350.127 -2.01311 -6.62907 0
M  V30 3722 N 351.92 -1.46584 -5.42651 0
M  V30 3723 H 344.071 -1.45529 -1.5471 0
M  V30 3724 H 346.334 -0.60258 -0.731848 0
M  V30 3725 H 346.04 -1.747 -3.05242 0
M  V30 3726 H 345.914 -0.150194 -3.76901 0
M  V30 3727 H 348.301 0.374272 -2.92717 0
M  V30 3728 H 348.382 -1.25061 -2.23144 0
M  V30 3729 H 348.026 -2.24037 -4.55818 0
M  V30 3730 H 347.956 -0.592896 -5.23252 0
M  V30 3731 H 350.447 -0.824058 -3.68806 0
M  V30 3732 H 350.76 -2.2899 -7.38095 0
M  V30 3733 H 349.105 -2.05273 -6.63994 0
M  V30 3734 H 352.296 -1.10281 -4.54924 0
M  V30 3735 H 352.469 -1.77103 -6.23329 0
M  V30 3736 N 345.875 1.56104 -0.216619 0
M  V30 3737 C 346.785 2.23694 0.706982 0
M  V30 3738 C 347.801 1.24295 1.21765 0
M  V30 3739 O 348.977 1.57094 1.2603 0
M  V30 3740 C 346.042 2.8998 1.90033 0
M  V30 3741 C 345.103 4.04708 1.43213 0
M  V30 3742 C 344.336 4.67824 2.56859 0
M  V30 3743 O 344.559 4.29913 3.74874 0
M  V30 3744 O 343.493 5.56905 2.28343 0
M  V30 3745 H 347.319 3.03272 0.161235 0
M  V30 3746 H 344.904 1.49394 0.0136177 0
M  V30 3747 H 346.786 3.31837 2.59735 0
M  V30 3748 H 345.461 2.13365 2.43428 0
M  V30 3749 H 344.368 3.6743 0.70327 0
M  V30 3750 H 345.701 4.83051 0.944615 0
M  V30 3751 N 347.353 -0.0568162 1.57498 0
M  V30 3752 C 348.602 -0.752001 1.87157 0
M  V30 3753 C 348.915 -1.77978 0.811375 0
M  V30 3754 O 350.121 -2.52559 0.996293 0
M  V30 3755 C 348.577 -1.38844 3.3204 0
M  V30 3756 C 348.185 -0.398456 4.46225 0
M  V30 3757 C 349.929 -2.06512 3.70882 0
M  V30 3758 C 347.836 -1.04166 5.82154 0
M  V30 3759 H 346.766 -0.28461 0.698222 0
M  V30 3760 H 349.417 -0.00561272 1.83499 0
M  V30 3761 H 347.799 -2.1836 3.30356 0
M  V30 3762 H 348.973 0.367977 4.59328 0
M  V30 3763 H 347.288 0.174592 4.16034 0
M  V30 3764 H 349.885 -2.55437 4.6974 0
M  V30 3765 H 350.228 -2.87117 3.01445 0
M  V30 3766 H 350.761 -1.33808 3.7462 0
M  V30 3767 H 347.5 -0.275614 6.5492 0
M  V30 3768 H 347.02 -1.7786 5.72823 0
M  V30 3769 H 348.699 -1.55715 6.27982 0
M  V30 3770 N 348.832 -1.54138 -0.328536 0
M  V30 3771 C 350.079 -1.72105 -1.06706 0
M  V30 3772 C 350.407 -0.492111 -1.88171 0
M  V30 3773 O 349.662 0.526153 -1.88494 0
M  V30 3774 C 349.961 -2.9457 -2.02393 0
M  V30 3775 C 349.627 -4.29544 -1.37122 0
M  V30 3776 C 348.289 -4.6624 -1.19052 0
M  V30 3777 C 350.641 -5.1333 -0.902331 0
M  V30 3778 C 347.969 -5.84325 -0.527331 0
M  V30 3779 C 350.321 -6.32094 -0.252988 0
M  V30 3780 C 348.985 -6.67473 -0.0600901 0
M  V30 3781 H 348.255 -0.629775 -0.390466 0
M  V30 3782 H 350.902 -1.88372 -0.34473 0
M  V30 3783 H 349.207 -2.72969 -2.81061 0
M  V30 3784 H 350.904 -3.05665 -2.59557 0
M  V30 3785 H 347.494 -4.0067 -1.52188 0
M  V30 3786 H 351.678 -4.855 -1.02974 0
M  V30 3787 H 346.934 -6.103 -0.366634 0
M  V30 3788 H 351.108 -6.96299 0.118366 0
M  V30 3789 H 348.735 -7.58832 0.455828 0
M  V30 3790 N 350.31 0.590341 -1.46126 0
M  V30 3791 C 351.721 1.17243 -1.45296 0
M  V30 3792 C 352.072 1.95281 -0.189723 0
M  V30 3793 O 351.197 2.04502 0.707674 0
M  V30 3794 C 351.792 2.13284 -2.6324 0
M  V30 3795 C 350.351 2.66832 -2.65476 0
M  V30 3796 C 349.498 1.42557 -2.3785 0
M  V30 3797 H 352.449 0.378692 -1.54116 0
M  V30 3798 H 352.47 2.96619 -2.38323 0
M  V30 3799 H 351.982 1.56459 -3.55165 0
M  V30 3800 H 350.083 3.27548 -1.77603 0
M  V30 3801 H 350.196 3.10088 -3.65215 0
M  V30 3802 H 348.56 1.72107 -1.87753 0
M  V30 3803 H 349.343 0.875741 -3.31942 0
M  V30 3804 N 351.788 1.33704 0.83433 0
M  V30 3805 C 353.065 1.16011 1.57483 0
M  V30 3806 C 353.445 -0.27176 2.09343 0
M  V30 3807 O 352.793 -1.27146 1.89858 0
M  V30 3808 C 353.003 2.20507 2.70514 0
M  V30 3809 C 354.351 2.54898 3.39577 0
M  V30 3810 O 355.375 2.19209 2.80759 0
M  V30 3811 O 354.234 3.16158 4.45765 0
M  V30 3812 H 351.328 0.448992 0.694503 0
M  V30 3813 H 353.874 1.453 0.876691 0
M  V30 3814 H 352.646 3.16667 2.29865 0
M  V30 3815 H 352.269 1.92329 3.47987 0
M  V30 3816 N 353.266 -1.05314 1.17247 0
M  V30 3817 C 354.198 -2.13023 0.845812 0
M  V30 3818 C 355.211 -1.62096 -0.151246 0
M  V30 3819 O 356.4 -1.78343 0.0748818 0
M  V30 3820 C 353.5 -3.38047 0.240292 0
M  V30 3821 C 352.673 -4.18255 1.27991 0
M  V30 3822 C 351.732 -5.21625 0.692375 0
M  V30 3823 O 350.758 -5.52619 1.36385 0
M  V30 3824 N 351.96 -5.78201 -0.516178 0
M  V30 3825 H 354.725 -2.41642 1.77283 0
M  V30 3826 H 352.286 -1.21401 1.07115 0
M  V30 3827 H 354.278 -4.04359 -0.16603 0
M  V30 3828 H 352.848 -3.06972 -0.590487 0
M  V30 3829 H 352.068 -3.47451 1.86203 0
M  V30 3830 H 353.356 -4.68643 1.98119 0
M  V30 3831 H 352.754 -5.55301 -1.07969 0
M  V30 3832 H 351.311 -6.4604 -0.86458 0
M  V30 3833 N 354.744 -0.972509 -1.24016 0
M  V30 3834 C 355.694 -0.477561 -2.22942 0
M  V30 3835 C 356.678 0.44308 -1.54679 0
M  V30 3836 O 357.87 0.273219 -1.74879 0
M  V30 3837 C 354.999 0.226348 -3.42553 0
M  V30 3838 C 354.085 -0.713403 -4.18057 0
M  V30 3839 N 354.476 -1.8527 -4.70647 0
M  V30 3840 C 352.774 -0.525145 -4.42898 0
M  V30 3841 C 353.475 -2.44089 -5.28011 0
M  V30 3842 N 352.451 -1.72556 -5.15486 0
M  V30 3843 H 356.253 -1.34678 -2.61226 0
M  V30 3844 H 353.767 -0.832196 -1.39457 0
M  V30 3845 H 355.764 0.598184 -4.12586 0
M  V30 3846 H 354.424 1.09195 -3.05788 0
M  V30 3847 H 355.435 -2.2341 -4.67235 0
M  V30 3848 H 352.112 0.296096 -4.16449 0
M  V30 3849 H 353.502 -3.40259 -5.79374 0
M  V30 3850 N 356.222 1.38976 -0.743202 0
M  V30 3851 C 357.633 1.83123 -0.363732 0
M  V30 3852 C 357.984 1.6205 1.10609 0
M  V30 3853 O 357.109 1.11606 1.854 0
M  V30 3854 C 357.704 3.32439 -0.653408 0
M  V30 3855 C 356.263 3.74974 -0.327338 0
M  V30 3856 C 355.41 2.61878 -0.911875 0
M  V30 3857 H 358.361 1.27852 -0.940191 0
M  V30 3858 H 358.382 3.80432 0.0720031 0
M  V30 3859 H 357.894 3.47745 -1.72323 0
M  V30 3860 H 355.995 3.65252 0.736314 0
M  V30 3861 H 356.108 4.72106 -0.815631 0
M  V30 3862 H 354.472 2.52448 -0.337944 0
M  V30 3863 H 355.255 2.79987 -1.98651 0
M  V30 3864 N 357.7 0.491464 1.49741 0
M  V30 3865 C 358.948 -0.0563141 2.02022 0
M  V30 3866 C 359.269 -1.38363 1.37407 0
M  V30 3867 O 358.539 -1.88702 0.526166 0
M  V30 3868 H 357.119 -0.0238014 0.746621 0
M  V30 3869 H 359.781 0.646533 1.83864 0
M  V30 3870 H 358.877 -0.192967 3.11503 0
M  V30 3871 N 359.178 -1.55987 0.224894 0
M  V30 3872 C 360.426 -1.97998 -0.405099 0
M  V30 3873 C 360.747 -1.11387 -1.60056 0
M  V30 3874 O 360.017 -0.191645 -1.9496 0
M  V30 3875 H 358.597 -0.731235 -0.152658 0
M  V30 3876 H 361.259 -1.92279 0.318567 0
M  V30 3877 H 360.355 -3.03463 -0.729167 0
M  V30 3878 N 360.656 0.0484629 -1.57525 0
M  V30 3879 C 361.903 0.743125 -1.88372 0
M  V30 3880 C 362.231 1.76383 -0.819715 0
M  V30 3881 O 361.486 1.94855 0.181659 0
M  V30 3882 C 361.785 1.46632 -3.25935 0
M  V30 3883 C 361.451 0.583427 -4.4711 0
M  V30 3884 C 360.113 0.340191 -4.79996 0
M  V30 3885 C 362.465 -0.0273345 -5.21193 0
M  V30 3886 C 359.793 -0.522903 -5.84365 0
M  V30 3887 C 362.145 -0.878017 -6.26477 0
M  V30 3888 C 360.809 -1.1309 -6.5785 0
M  V30 3889 H 360.079 0.271929 -0.689301 0
M  V30 3890 H 362.726 0.00336166 -1.915 0
M  V30 3891 H 361.031 2.2789 -3.18706 0
M  V30 3892 H 362.728 2.00902 -3.47044 0
M  V30 3893 H 359.318 0.783151 -4.21384 0
M  V30 3894 H 363.502 0.147654 -4.9608 0
M  V30 3895 H 358.758 -0.727335 -6.07058 0
M  V30 3896 H 362.932 -1.35789 -6.83033 0
M  V30 3897 H 360.559 -1.80144 -7.38547 0
M  V30 3898 N 362.134 1.5431 0.320358 0
M  V30 3899 C 363.359 1.76954 1.08175 0
M  V30 3900 C 363.784 0.518193 1.80821 0
M  V30 3901 O 363.142 -0.530411 1.73368 0
M  V30 3902 C 363.19 2.96451 2.05303 0
M  V30 3903 O 362.294 2.68221 3.13259 0
M  V30 3904 H 361.635 0.586275 0.311733 0
M  V30 3905 H 364.165 2.01342 0.363676 0
M  V30 3906 H 364.175 3.23887 2.48116 0
M  V30 3907 H 362.85 3.87196 1.51829 0
M  V30 3908 H 361.427 2.51744 2.75099 0
M  V30 3909 N 363.613 -0.582584 1.46437 0
M  V30 3910 C 364.545 -1.70618 1.53043 0
M  V30 3911 C 365.558 -1.57322 0.418769 0
M  V30 3912 O 366.747 -1.64744 0.687136 0
M  V30 3913 C 363.847 -3.08869 1.39474 0
M  V30 3914 C 363.02 -3.48166 2.64762 0
M  V30 3915 C 362.079 -4.65478 2.4539 0
M  V30 3916 O 361.105 -4.71333 3.19114 0
M  V30 3917 N 362.307 -5.60365 1.51564 0
M  V30 3918 H 365.072 -1.65405 2.49923 0
M  V30 3919 H 362.633 -0.768567 1.42494 0
M  V30 3920 H 364.625 -3.85143 1.24287 0
M  V30 3921 H 363.195 -3.08449 0.507758 0
M  V30 3922 H 362.415 -2.61598 2.9489 0
M  V30 3923 H 363.703 -3.71188 3.4799 0
M  V30 3924 H 363.101 -5.5837 0.907705 0
M  V30 3925 H 361.658 -6.36068 1.4234 0
M  V30 3926 N 365.091 -1.34144 -0.827227 0
M  V30 3927 C 366.021 -1.28005 -1.95287 0
M  V30 3928 C 367.002 -0.158321 -1.69362 0
M  V30 3929 O 368.187 -0.349987 -1.9102 0
M  V30 3930 C 365.317 -1.03036 -3.31664 0
M  V30 3931 C 364.271 -2.11628 -3.72019 0
M  V30 3932 C 363.597 -1.71854 -5.0633 0
M  V30 3933 C 364.897 -3.53417 -3.8457 0
M  V30 3934 H 366.591 -2.22187 -2.00682 0
M  V30 3935 H 364.137 -1.0696 -0.964135 0
M  V30 3936 H 366.09 -0.973863 -4.09993 0
M  V30 3937 H 364.814 -0.0529391 -3.26557 0
M  V30 3938 H 363.473 -2.16339 -2.95961 0
M  V30 3939 H 363.121 -0.727841 -4.97706 0
M  V30 3940 H 362.821 -2.44531 -5.34302 0
M  V30 3941 H 364.345 -1.67692 -5.87122 0
M  V30 3942 H 365.759 -3.51142 -4.5318 0
M  V30 3943 H 364.156 -4.24679 -4.2399 0
M  V30 3944 H 365.226 -3.91072 -2.86689 0
M  V30 3945 N 366.569 1.04691 -1.17803 0
M  V30 3946 C 367.479 2.16057 -0.914151 0
M  V30 3947 C 368.495 1.73589 0.119503 0
M  V30 3948 O 369.671 2.01308 -0.0609468 0
M  V30 3949 C 366.736 3.4394 -0.436603 0
M  V30 3950 C 365.797 4.00825 -1.53746 0
M  V30 3951 C 365.03 5.22604 -1.0826 0
M  V30 3952 O 365.253 5.70367 0.0612244 0
M  V30 3953 O 364.187 5.7186 -1.87775 0
M  V30 3954 H 368.013 2.41169 -1.84584 0
M  V30 3955 H 365.598 1.1453 -0.959334 0
M  V30 3956 H 367.48 4.21024 -0.178057 0
M  V30 3957 H 366.155 3.20316 0.466869 0
M  V30 3958 H 365.062 3.25158 -1.84995 0
M  V30 3959 H 366.395 4.28778 -2.41683 0
M  V30 3960 N 368.047 0.979072 1.23499 0
M  V30 3961 C 369.324 0.563674 1.87302 0
M  V30 3962 C 369.704 -0.959199 1.88049 0
M  V30 3963 O 369.052 -1.83535 1.36114 0
M  V30 3964 C 369.262 1.16822 3.28867 0
M  V30 3965 C 370.61 1.26014 4.0547 0
M  V30 3966 O 371.634 1.12158 3.38082 0
M  V30 3967 O 370.493 1.48044 5.26066 0
M  V30 3968 H 367.587 0.189602 0.804972 0
M  V30 3969 H 370.133 1.07407 1.31384 0
M  V30 3970 H 368.905 2.21049 3.22883 0
M  V30 3971 H 368.528 0.642564 3.92373 0
M  V30 3972 N 369.525 -1.3858 0.750561 0
M  V30 3973 C 370.773 -1.99789 0.30477 0
M  V30 3974 C 371.094 -1.59874 -1.11649 0
M  V30 3975 O 370.364 -0.85417 -1.76297 0
M  V30 3976 H 368.944 -0.738902 0.109694 0
M  V30 3977 H 371.606 -1.69391 0.963983 0
M  V30 3978 H 370.702 -3.09952 0.365499 0
M  V30 3979 N 371.003 -0.499398 -1.49478 0
M  V30 3980 C 372.419 -0.155261 -1.58843 0
M  V30 3981 C 372.619 1.34008 -1.50479 0
M  V30 3982 O 371.675 2.11589 -1.37791 0
M  V30 3983 C 372.988 -0.730636 -2.91689 0
M  V30 3984 C 374.536 -0.696599 -3.0515 0
M  V30 3985 C 375.011 -1.25001 -4.40612 0
M  V30 3986 N 376.502 -1.21064 -4.47099 0
M  V30 3987 C 377.237 -1.60905 -5.50361 0
M  V30 3988 N 376.733 -2.08331 -6.60735 0
M  V30 3989 N 378.526 -1.52331 -5.41065 0
M  V30 3990 H 370.677 -1.47162 -1.53158 0
M  V30 3991 H 372.94 -0.610309 -0.725415 0
M  V30 3992 H 372.646 -1.77928 -3.03372 0
M  V30 3993 H 372.52 -0.190161 -3.7672 0
M  V30 3994 H 374.907 0.343204 -2.93097 0
M  V30 3995 H 374.988 -1.2742 -2.21806 0
M  V30 3996 H 374.632 -2.28859 -4.53416 0
M  V30 3997 H 374.562 -0.64836 -5.22593 0
M  V30 3998 H 377.053 -0.863128 -3.67911 0
M  V30 3999 H 377.366 -2.36805 -7.35624 0
M  V30 4000 H 375.711 -2.12304 -6.6178 0
M  V30 4001 H 378.902 -1.151 -4.53729 0
M  V30 4002 H 379.075 -1.83704 -6.21415 0
M  V30 4003 N 372.481 1.55866 -0.233164 0
M  V30 4004 C 373.727 1.99643 0.389148 0
M  V30 4005 C 374.082 1.11836 1.56558 0
M  V30 4006 O 373.375 0.170848 1.90837 0
M  V30 4007 C 373.569 3.46856 0.861724 0
M  V30 4008 C 373.398 4.48904 -0.267376 0
M  V30 4009 C 372.168 4.99888 -0.737577 0
M  V30 4010 C 374.366 5.02624 -1.08966 0
M  V30 4011 N 372.348 5.8566 -1.84052 0
M  V30 4012 C 373.719 5.85434 -2.04125 0
M  V30 4013 C 375.774 4.84959 -1.12779 0
M  V30 4014 C 374.477 6.52466 -3.02789 0
M  V30 4015 C 376.503 5.52759 -2.10266 0
M  V30 4016 C 375.865 6.35346 -3.04162 0
M  V30 4017 H 371.964 0.774402 0.108742 0
M  V30 4018 H 374.548 1.91572 -0.347596 0
M  V30 4019 H 372.719 3.55352 1.5678 0
M  V30 4020 H 374.451 3.77531 1.45783 0
M  V30 4021 H 371.206 4.7249 -0.324122 0
M  V30 4022 H 371.63 6.33246 -2.39434 0
M  V30 4023 H 376.272 4.20751 -0.415749 0
M  V30 4024 H 373.99 7.15849 -3.74948 0
M  V30 4025 H 377.576 5.41051 -2.13905 0
M  V30 4026 H 376.456 6.86883 -3.78366 0
M  V30 4027 N 373.959 -0.0401083 1.57549 0
M  V30 4028 C 375.205 -0.734211 1.89043 0
M  V30 4029 C 375.538 -1.75591 0.829535 0
M  V30 4030 O 374.813 -1.93868 -0.156706 0
M  V30 4031 C 375.096 -1.41374 3.31188 0
M  V30 4032 C 374.949 -0.406299 4.47961 0
M  V30 4033 C 376.268 -2.35061 3.72068 0
M  V30 4034 H 373.387 -0.265447 0.687537 0
M  V30 4035 H 376.029 0.00294087 1.9 0
M  V30 4036 H 374.179 -2.04206 3.30503 0
M  V30 4037 H 375.851 0.219255 4.60779 0
M  V30 4038 H 374.094 0.275485 4.32924 0
M  V30 4039 H 374.765 -0.920022 5.44279 0
M  V30 4040 H 377.241 -1.82282 3.74049 0
M  V30 4041 H 376.117 -2.79593 4.72355 0
M  V30 4042 H 376.378 -3.21258 3.0372 0
M  V30 4043 N 375.437 -1.54477 -0.31217 0
M  V30 4044 C 376.683 -1.74417 -1.04644 0
M  V30 4045 C 377.038 -0.517641 -1.85306 0
M  V30 4046 O 376.331 0.489973 -1.85229 0
M  V30 4047 C 376.525 -2.967 -1.99258 0
M  V30 4048 C 376.354 -4.31128 -1.27901 0
M  V30 4049 C 375.124 -4.95087 -1.01079 0
M  V30 4050 C 377.322 -5.09662 -0.689119 0
M  V30 4051 N 375.304 -6.13322 -0.266323 0
M  V30 4052 C 376.675 -6.19952 -0.0768523 0
M  V30 4053 C 378.73 -4.94355 -0.593061 0
M  V30 4054 C 377.433 -7.16604 0.622165 0
M  V30 4055 C 379.459 -5.91328 0.0922792 0
M  V30 4056 C 378.821 -7.00978 0.693443 0
M  V30 4057 H 374.92 -0.69094 -0.366231 0
M  V30 4058 H 377.504 -1.91946 -0.326319 0
M  V30 4059 H 375.675 -2.80616 -2.68532 0
M  V30 4060 H 377.407 -3.05216 -2.65755 0
M  V30 4061 H 374.162 -4.55235 -1.30607 0
M  V30 4062 H 374.586 -6.76937 0.0920973 0
M  V30 4063 H 379.228 -4.09719 -1.04355 0
M  V30 4064 H 376.946 -8.0079 1.08445 0
M  V30 4065 H 380.532 -5.81562 0.166396 0
M  V30 4066 H 379.412 -7.74725 1.21533 0
M  V30 4067 N 376.915 0.57481 -1.46744 0
M  V30 4068 C 378.143 1.35856 -1.56047 0
M  V30 4069 C 378.558 1.87691 -0.204365 0
M  V30 4070 O 377.915 1.64049 0.79963 0
M  V30 4071 C 377.966 2.54066 -2.57163 0
M  V30 4072 O 377.687 2.04377 -3.87507 0
M  V30 4073 C 379.188 3.46514 -2.76483 0
M  V30 4074 H 376.408 0.414754 -0.527466 0
M  V30 4075 H 378.952 0.698035 -1.92218 0
M  V30 4076 H 377.107 3.16092 -2.23974 0
M  V30 4077 H 377.521 2.81419 -4.4261 0
M  V30 4078 H 378.995 4.25919 -3.51137 0
M  V30 4079 H 379.472 3.98951 -1.83671 0
M  V30 4080 H 380.078 2.90318 -3.10799 0
M  V30 4081 N 378.394 1.34581 0.820102 0
M  V30 4082 C 379.622 1.3018 1.60813 0
M  V30 4083 C 380.037 -0.123551 1.88395 0
M  V30 4084 O 379.394 -1.07148 1.47735 0
M  V30 4085 C 379.445 2.09312 2.94739 0
M  V30 4086 O 379.166 3.46288 2.68358 0
M  V30 4087 C 380.667 2.1234 3.89136 0
M  V30 4088 H 377.887 0.447726 0.499782 0
M  V30 4089 H 380.431 1.77237 1.02017 0
M  V30 4090 H 378.586 1.65889 3.50085 0
M  V30 4091 H 379 3.87227 3.53774 0
M  V30 4092 H 380.474 2.72126 4.80262 0
M  V30 4093 H 380.951 1.11854 4.24718 0
M  V30 4094 H 381.557 2.55864 3.39726 0
M  V30 4095 N 379.872 -1.04064 1.18357 0
M  V30 4096 C 381.119 -1.77265 0.978947 0
M  V30 4097 C 381.447 -1.88189 -0.491428 0
M  V30 4098 O 380.702 -1.38653 -1.38108 0
M  V30 4099 C 381.001 -3.20634 1.57888 0
M  V30 4100 C 380.667 -3.29743 3.07539 0
M  V30 4101 C 379.329 -3.31937 3.48384 0
M  V30 4102 C 381.681 -3.29841 4.03552 0
M  V30 4103 C 379.009 -3.3187 4.83818 0
M  V30 4104 C 381.361 -3.31313 5.38901 0
M  V30 4105 C 380.025 -3.31799 5.79194 0
M  V30 4106 H 379.295 -0.648659 0.358222 0
M  V30 4107 H 381.942 -1.22225 1.47422 0
M  V30 4108 H 380.247 -3.78675 1.00561 0
M  V30 4109 H 381.944 -3.75917 1.39598 0
M  V30 4110 H 378.534 -3.28757 2.74986 0
M  V30 4111 H 382.718 -3.27337 3.73047 0
M  V30 4112 H 377.974 -3.30562 5.14333 0
M  V30 4113 H 382.148 -3.30338 6.13066 0
M  V30 4114 H 379.775 -3.315 6.84114 0
M  V30 4115 N 381.35 -0.985608 -1.22978 0
M  V30 4116 C 382.298 -0.522631 -2.26652 0
M  V30 4117 C 383.292 0.422998 -1.64034 0
M  V30 4118 O 384.498 0.296319 -1.77544 0
M  V30 4119 H 380.873 -0.150597 -0.736766 0
M  V30 4120 H 382.844 -1.40863 -2.63059 0
M  V30 4121 C 381.593 0.154238 -3.47358 0
M  V30 4122 H 380.916 -0.564329 -3.95797 0
M  V30 4123 H 382.356 0.441744 -4.21693 0
M  V30 4124 C 380.815 1.38719 -3.07016 0
M  V30 4125 O 381.345 2.48307 -3.15764 0
M  V30 4126 N 379.551 1.25975 -2.61875 0
M  V30 4127 H 379.098 0.368068 -2.54957 0
M  V30 4128 H 379.056 2.08578 -2.3525 0
M  V30 4129 N 382.828 1.3818 -0.7579 0
M  V30 4130 C 384.053 2.04827 -0.325679 0
M  V30 4131 C 384.478 1.56788 1.03919 0
M  V30 4132 O 383.836 0.721811 1.66312 0
M  V30 4133 C 383.884 3.58774 -0.362447 0
M  V30 4134 O 382.988 4.07372 0.642033 0
M  V30 4135 H 382.329 0.64833 -0.143402 0
M  V30 4136 H 384.859 1.7677 -1.03023 0
M  V30 4137 H 384.869 4.07434 -0.214844 0
M  V30 4138 H 383.544 3.93096 -1.35824 0
M  V30 4139 H 382.121 3.70068 0.458688 0
M  V30 4140 N 384.306 0.507319 1.49211 0
M  V30 4141 C 385.553 -0.0349529 2.0247 0
M  V30 4142 C 385.881 -1.36409 1.38647 0
M  V30 4143 O 385.136 -1.88841 0.513566 0
M  V30 4144 C 385.435 -0.229513 3.56662 0
M  V30 4145 C 385.101 1.02241 4.39156 0
M  V30 4146 C 383.763 1.36557 4.61417 0
M  V30 4147 C 386.115 1.85428 4.871 0
M  V30 4148 C 383.443 2.53999 5.28868 0
M  V30 4149 C 385.795 3.02028 5.55843 0
M  V30 4150 C 384.459 3.36717 5.76349 0
M  V30 4151 H 383.729 -0.0127902 0.74089 0
M  V30 4152 H 386.376 0.668756 1.79443 0
M  V30 4153 H 384.681 -1.0158 3.78403 0
M  V30 4154 H 386.378 -0.663641 3.9547 0
M  V30 4155 H 382.968 0.745124 4.22073 0
M  V30 4156 H 387.152 1.6023 4.69723 0
M  V30 4157 H 382.408 2.81105 5.42946 0
M  V30 4158 H 386.582 3.66808 5.91967 0
M  V30 4159 H 384.209 4.27821 6.28389 0
M  V30 4160 N 385.784 -1.5574 0.241426 0
M  V30 4161 C 386.716 -2.18469 -0.693091 0
M  V30 4162 C 387.729 -1.15942 -1.14286 0
M  V30 4163 O 388.918 -1.42832 -1.07058 0
M  V30 4164 C 386.018 -2.7696 -1.95311 0
M  V30 4165 C 385.191 -4.04853 -1.65568 0
M  V30 4166 C 384.25 -4.47715 -2.76474 0
M  V30 4167 O 383.276 -5.14205 -2.44094 0
M  V30 4168 N 384.478 -4.15044 -4.05855 0
M  V30 4169 H 387.243 -2.99292 -0.156388 0
M  V30 4170 H 384.804 -1.61784 0.0611752 0
M  V30 4171 H 386.796 -3.02594 -2.68736 0
M  V30 4172 H 385.366 -2.00326 -2.39975 0
M  V30 4173 H 384.586 -3.86865 -0.756886 0
M  V30 4174 H 385.874 -4.88246 -1.43153 0
M  V30 4175 H 385.272 -3.61654 -4.34998 0
M  V30 4176 H 383.829 -4.45526 -4.75762 0
M  V30 4177 N 387.262 0.0317525 -1.57568 0
M  V30 4178 C 388.508 0.718712 -1.90279 0
M  V30 4179 C 388.863 1.73108 -0.839727 0
M  V30 4180 O 388.156 1.90997 0.15188 0
M  V30 4181 C 388.35 1.43167 -3.27472 0
M  V30 4182 C 388.179 0.489869 -4.47024 0
M  V30 4183 C 386.949 0.111909 -5.05176 0
M  V30 4184 C 389.147 -0.230592 -5.13783 0
M  V30 4185 N 387.129 -0.831427 -6.08244 0
M  V30 4186 C 388.5 -1.02968 -6.1139 0
M  V30 4187 C 390.555 -0.297821 -4.97008 0
M  V30 4188 C 389.258 -1.88982 -6.9403 0
M  V30 4189 C 391.284 -1.14507 -5.80209 0
M  V30 4190 C 390.646 -1.9321 -6.77384 0
M  V30 4191 H 386.745 0.237177 -0.745165 0
M  V30 4192 H 389.329 -0.0211267 -1.94689 0
M  V30 4193 H 387.5 2.14199 -3.23996 0
M  V30 4194 H 389.232 2.0708 -3.47707 0
M  V30 4195 H 385.987 0.473513 -4.71227 0
M  V30 4196 H 386.411 -1.29752 -6.6445 0
M  V30 4197 H 391.053 0.296346 -4.2176 0
M  V30 4198 H 388.771 -2.4948 -7.68626 0
M  V30 4199 H 392.357 -1.20059 -5.69278 0
M  V30 4200 H 391.237 -2.57711 -7.40645 0
M  V30 4201 N 388.74 1.54641 0.303973 0
M  V30 4202 C 390.017 1.64455 1.05896 0
M  V30 4203 C 390.397 0.490923 2.05312 0
M  V30 4204 O 389.745 -0.512685 2.22674 0
M  V30 4205 C 389.955 3.02331 1.74347 0
M  V30 4206 C 391.303 3.59045 2.26653 0
M  V30 4207 O 392.327 3.04764 1.84384 0
M  V30 4208 O 391.186 4.54081 3.04093 0
M  V30 4209 H 388.28 0.666729 0.489287 0
M  V30 4210 H 390.826 1.66986 0.302298 0
M  V30 4211 H 389.598 3.77734 1.02142 0
M  V30 4212 H 389.221 3.03565 2.56777 0
M  V30 4213 N 390.218 -0.567019 1.47046 0
M  V30 4214 C 391.148 -1.68482 1.61667 0
M  V30 4215 C 392.129 -1.6358 0.466418 0
M  V30 4216 O 393.314 -1.81354 0.694574 0
M  V30 4217 C 390.444 -3.07124 1.62148 0
M  V30 4218 C 389.398 -3.26867 2.76301 0
M  V30 4219 C 388.724 -4.66196 2.61849 0
M  V30 4220 C 390.024 -3.13186 4.17986 0
M  V30 4221 H 391.718 -1.56502 2.5524 0
M  V30 4222 H 389.264 -0.751486 1.22836 0
M  V30 4223 H 391.217 -3.8516 1.70968 0
M  V30 4224 H 389.941 -3.2004 0.651287 0
M  V30 4225 H 388.6 -2.51237 2.66975 0
M  V30 4226 H 388.248 -4.75898 1.62879 0
M  V30 4227 H 387.948 -4.80356 3.38425 0
M  V30 4228 H 389.472 -5.46379 2.72584 0
M  V30 4229 H 390.886 -3.81049 4.2834 0
M  V30 4230 H 389.283 -3.3886 4.95272 0
M  V30 4231 H 390.353 -2.10057 4.3704 0
M  V30 4232 N 391.696 -1.35014 -0.812953 0
M  V30 4233 C 392.644 -1.27435 -1.94585 0
M  V30 4234 C 393.638 -0.170494 -1.6854 0
M  V30 4235 O 394.844 -0.336085 -1.76835 0
M  V30 4236 H 391.219 -0.396144 -0.639198 0
M  V30 4237 H 393.19 -2.23158 -1.98098 0
M  V30 4238 C 391.939 -1.05677 -3.31252 0
M  V30 4239 H 391.262 -1.89853 -3.51846 0
M  V30 4240 H 392.702 -1.04413 -4.10943 0
M  V30 4241 C 391.161 0.239615 -3.36047 0
M  V30 4242 O 391.691 1.23759 -3.8216 0
M  V30 4243 N 389.897 0.276186 -2.89285 0
M  V30 4244 H 389.444 -0.53653 -2.51951 0
M  V30 4245 H 389.402 1.14332 -2.92875 0
M  V30 4246 N 393.175 1.03435 -1.18907 0
M  V30 4247 C 394.405 1.8012 -1.01195 0
M  V30 4248 C 394.813 1.8395 0.442613 0
M  V30 4249 O 394.156 1.27836 1.31923 0
M  V30 4250 C 394.218 3.26792 -1.49823 0
M  V30 4251 C 393.882 3.46609 -2.97844 0
M  V30 4252 C 394.879 3.37278 -3.95651 0
M  V30 4253 C 392.564 3.73001 -3.36416 0
M  V30 4254 C 394.558 3.54054 -5.30023 0
M  V30 4255 C 392.245 3.89423 -4.70949 0
M  V30 4256 C 393.243 3.79951 -5.67562 0
M  V30 4257 O 392.931 3.95895 -6.99659 0
M  V30 4258 H 392.663 0.573865 -0.357289 0
M  V30 4259 H 395.217 1.31207 -1.58031 0
M  V30 4260 H 393.447 3.76703 -0.873578 0
M  V30 4261 H 395.136 3.85055 -1.28404 0
M  V30 4262 H 395.902 3.16846 -3.67197 0
M  V30 4263 H 391.781 3.79469 -2.61772 0
M  V30 4264 H 395.325 3.46577 -6.05417 0
M  V30 4265 H 391.222 4.09351 -4.99101 0
M  V30 4266 H 391.99 4.13019 -7.06653 0
M  V30 4267 N 394.653 0.992116 1.22453 0
M  V30 4268 C 395.878 0.685644 1.95739 0
M  V30 4269 C 396.303 -0.743 1.72804 0
M  V30 4270 O 395.661 -1.50778 1.00676 0
M  V30 4271 C 395.709 0.996293 3.46564 0
M  V30 4272 O 394.813 0.0945512 4.12292 0
M  V30 4273 H 394.154 0.256694 0.612376 0
M  V30 4274 H 396.684 1.32888 1.5557 0
M  V30 4275 H 396.694 0.93781 3.97076 0
M  V30 4276 H 395.369 2.03733 3.62582 0
M  V30 4277 H 393.946 0.208451 3.72317 0
M  V30 4278 N 396.131 -1.37776 0.765217 0
M  V30 4279 C 397.079 -2.32209 0.134798 0
M  V30 4280 C 398.073 -1.54607 -0.692315 0
M  V30 4281 O 399.279 -1.70052 -0.590109 0
M  V30 4282 H 395.654 -0.751591 0.0248005 0
M  V30 4283 H 397.625 -2.8297 0.947119 0
M  V30 4284 C 396.374 -3.39841 -0.735063 0
M  V30 4285 H 395.697 -3.99654 -0.107991 0
M  V30 4286 H 397.137 -4.08296 -1.14326 0
M  V30 4287 C 395.596 -2.79378 -1.88281 0
M  V30 4288 O 396.126 -2.69608 -2.97783 0
M  V30 4289 N 394.332 -2.37016 -1.68142 0
M  V30 4290 H 393.879 -2.45162 -0.790772 0
M  V30 4291 H 393.837 -1.96905 -2.45104 0
M  V30 4292 N 397.609 -0.515225 -1.4894 0
M  V30 4293 C 399.02 -0.0710067 -1.86565 0
M  V30 4294 C 399.371 1.34733 -1.42623 0
M  V30 4295 O 398.496 2.00653 -0.810379 0
M  V30 4296 C 399.091 -0.122083 -3.3858 0
M  V30 4297 C 397.65 0.266863 -3.75453 0
M  V30 4298 C 396.797 -0.488376 -2.72966 0
M  V30 4299 H 399.748 -0.727266 -1.41055 0
M  V30 4300 H 399.769 0.669818 -3.74558 0
M  V30 4301 H 399.281 -1.15448 -3.70531 0
M  V30 4302 H 397.382 1.30196 -3.49113 0
M  V30 4303 H 397.495 -0.0624811 -4.79059 0
M  V30 4304 H 395.859 0.0635622 -2.54621 0
M  V30 4305 H 396.642 -1.52113 -3.07761 0
M  V30 4306 N 399.087 1.5561 -0.249682 0
M  V30 4307 C 400.333 2.00044 0.367952 0
M  V30 4308 C 400.688 1.1349 1.55363 0
M  V30 4309 O 399.981 0.191079 1.90645 0
M  V30 4310 C 400.175 3.4775 0.824887 0
M  V30 4311 C 400.004 4.48596 -0.314973 0
M  V30 4312 C 398.774 4.99077 -0.790555 0
M  V30 4313 C 400.972 5.0144 -1.14291 0
M  V30 4314 N 398.954 5.83675 -1.90254 0
M  V30 4315 C 400.325 5.83236 -2.10322 0
M  V30 4316 C 402.38 4.83736 -1.17916 0
M  V30 4317 C 401.083 6.49217 -3.09692 0
M  V30 4318 C 403.109 5.50497 -2.16117 0
M  V30 4319 C 402.471 6.32084 -3.10884 0
M  V30 4320 H 398.57 0.775512 0.100522 0
M  V30 4321 H 401.154 1.91193 -0.367896 0
M  V30 4322 H 399.325 3.56994 1.53002 0
M  V30 4323 H 401.057 3.79056 1.4177 0
M  V30 4324 H 397.812 4.72119 -0.374218 0
M  V30 4325 H 398.236 6.30671 -2.46137 0
M  V30 4326 H 402.878 4.20286 -0.460352 0
M  V30 4327 H 400.596 7.11832 -3.8252 0
M  V30 4328 H 404.182 5.38752 -2.19631 0
M  V30 4329 H 403.062 6.82832 -3.8563 0
M  V30 4330 N 400.565 -0.0233959 1.57583 0
M  V30 4331 C 401.811 -0.714119 1.89811 0
M  V30 4332 C 402.144 -1.74702 0.848113 0
M  V30 4333 O 401.419 -1.94023 -0.136135 0
M  V30 4334 C 401.702 -1.37853 3.32669 0
M  V30 4335 C 401.555 -0.358764 4.48367 0
M  V30 4336 C 402.874 -2.31101 3.7454 0
M  V30 4337 H 399.993 -0.25814 0.690314 0
M  V30 4338 H 402.635 0.0230927 1.89986 0
M  V30 4339 H 400.785 -2.00689 3.3265 0
M  V30 4340 H 402.457 0.268115 4.6052 0
M  V30 4341 H 400.7 0.321387 4.32608 0
M  V30 4342 H 401.371 -0.862242 5.45224 0
M  V30 4343 H 403.847 -1.78304 3.75961 0
M  V30 4344 H 402.723 -2.74567 4.75294 0
M  V30 4345 H 402.984 -3.18018 3.0711 0
M  V30 4346 N 402.043 -1.548 -0.295768 0
M  V30 4347 C 403.29 -1.74329 -1.03032 0
M  V30 4348 C 403.618 -0.531915 -1.87085 0
M  V30 4349 O 402.873 0.486052 -1.89568 0
M  V30 4350 C 403.172 -2.98797 -1.961 0
M  V30 4351 C 402.838 -4.32356 -1.2798 0
M  V30 4352 C 401.5 -4.68661 -1.09135 0
M  V30 4353 C 403.852 -5.15128 -0.793243 0
M  V30 4354 C 401.18 -5.85312 -0.403269 0
M  V30 4355 C 403.532 -6.32488 -0.118854 0
M  V30 4356 C 402.196 -6.6745 0.0815043 0
M  V30 4357 H 401.466 -0.637916 -0.37702 0
M  V30 4358 H 404.113 -1.8906 -0.304696 0
M  V30 4359 H 402.418 -2.78869 -2.75207 0
M  V30 4360 H 404.115 -3.11102 -2.53015 0
M  V30 4361 H 400.705 -4.03808 -1.43655 0
M  V30 4362 H 404.889 -4.87575 -0.92653 0
M  V30 4363 H 400.145 -6.1094 -0.237098 0
M  V30 4364 H 404.319 -6.95892 0.266035 0
M  V30 4365 H 401.946 -7.57695 0.616685 0
M  V30 4366 N 403.521 0.559213 -1.47345 0
M  V30 4367 C 404.937 0.884943 -1.32819 0
M  V30 4368 C 405.137 1.98988 -0.317173 0
M  V30 4369 O 404.193 2.51031 0.272011 0
M  V30 4370 C 405.506 1.28007 -2.72093 0
M  V30 4371 C 407.054 1.39161 -2.80363 0
M  V30 4372 C 407.529 1.82031 -4.20272 0
M  V30 4373 N 409.02 1.89185 -4.22804 0
M  V30 4374 C 409.755 2.2368 -5.27973 0
M  V30 4375 N 409.251 2.56802 -6.43447 0
M  V30 4376 N 411.044 2.24436 -5.15349 0
M  V30 4377 H 403.195 -0.170304 -2.11716 0
M  V30 4378 H 405.458 -0.0135247 -0.947904 0
M  V30 4379 H 405.164 0.542027 -3.47498 0
M  V30 4380 H 405.038 2.23665 -3.03733 0
M  V30 4381 H 407.425 2.12048 -2.05231 0
M  V30 4382 H 407.506 0.41696 -2.52379 0
M  V30 4383 H 407.15 1.09715 -4.95908 0
M  V30 4384 H 407.08 2.80495 -4.45679 0
M  V30 4385 H 409.571 1.65982 -3.39497 0
M  V30 4386 H 409.884 2.82144 -7.19454 0
M  V30 4387 H 408.229 2.54387 -6.46771 0
M  V30 4388 H 411.42 1.97998 -4.24163 0
M  V30 4389 H 411.593 2.50989 -5.97418 0
M  V30 4390 N 404.999 1.35443 0.805782 0
M  V30 4391 C 405.962 1.28301 1.89925 0
M  V30 4392 C 406.962 0.194285 1.59622 0
M  V30 4393 O 408.152 0.448036 1.6834 0
M  V30 4394 C 405.284 0.984997 3.2636 0
M  V30 4395 H 406.477 2.2553 1.97677 0
M  V30 4396 H 404.03 1.19979 1.00173 0
M  V30 4397 H 404.765 0.016603 3.24296 0
M  V30 4398 H 404.55 1.77269 3.4974 0
M  V30 4399 H 406.04 0.960651 4.064 0
M  V30 4400 N 406.477 -1.02803 1.19454 0
M  V30 4401 C 407.41 -2.107 0.876396 0
M  V30 4402 C 408.388 -1.61741 -0.166897 0
M  V30 4403 O 409.572 -1.88451 -0.0430195 0
M  V30 4404 C 406.699 -3.37262 0.311758 0
M  V30 4405 C 405.745 -4.05093 1.33424 0
M  V30 4406 S 406.578 -4.50498 2.89503 0
M  V30 4407 C 407.734 -5.80277 2.34584 0
M  V30 4408 H 407.967 -2.37362 1.79016 0
M  V30 4409 H 405.5 -1.15755 1.02177 0
M  V30 4410 H 407.458 -4.10499 -0.00748752 0
M  V30 4411 H 406.119 -3.08693 -0.58032 0
M  V30 4412 H 405.312 -4.9611 0.888302 0
M  V30 4413 H 404.914 -3.3803 1.60037 0
M  V30 4414 H 407.206 -6.54873 1.73633 0
M  V30 4415 H 408.149 -6.29651 3.23952 0
M  V30 4416 H 408.557 -5.3599 1.77131 0
M  V30 4417 N 407.956 -0.998596 -1.21925 0
M  V30 4418 C 408.919 -0.558679 -2.22287 0
M  V30 4419 C 409.919 0.361525 -1.56683 0
M  V30 4420 O 411.109 0.152695 -1.73529 0
M  V30 4421 C 408.241 0.18661 -3.40389 0
M  V30 4422 H 409.434 -1.4463 -2.62721 0
M  V30 4423 H 406.987 -0.786413 -1.35075 0
M  V30 4424 H 407.722 1.08996 -3.05435 0
M  V30 4425 H 407.507 -0.474188 -3.89222 0
M  V30 4426 H 408.997 0.482367 -4.14805 0
M  V30 4427 N 409.434 1.37368 -0.772513 0
M  V30 4428 C 410.682 1.99279 -0.336516 0
M  V30 4429 C 411.003 1.6163 1.09091 0
M  V30 4430 O 410.273 0.882109 1.74916 0
M  V30 4431 H 408.853 0.737063 -0.121435 0
M  V30 4432 H 411.515 1.67836 -0.990809 0
M  V30 4433 H 410.611 3.09332 -0.414763 0
M  V30 4434 N 410.912 0.523116 1.48665 0
M  V30 4435 C 411.822 -0.247406 2.33292 0
M  V30 4436 C 412.838 -0.945769 1.46052 0
M  V30 4437 O 414.014 -0.922253 1.79043 0
M  V30 4438 C 411.079 -1.28487 3.22012 0
M  V30 4439 C 410.14 -0.597592 4.2512 0
M  V30 4440 C 409.373 -1.58563 5.09601 0
M  V30 4441 O 409.596 -2.81763 4.95949 0
M  V30 4442 O 408.53 -1.12879 5.91221 0
M  V30 4443 H 412.356 0.445869 3.00409 0
M  V30 4444 H 409.941 0.284128 1.46673 0
M  V30 4445 H 411.823 -1.88459 3.7691 0
M  V30 4446 H 410.498 -1.96068 2.57564 0
M  V30 4447 H 409.405 0.0424407 3.74076 0
M  V30 4448 H 410.738 0.0361517 4.92187 0
M  V30 4449 N 412.39 -1.55475 0.257931 0
M  V30 4450 C 413.323 -2.179 -0.677862 0
M  V30 4451 C 414.301 -1.13448 -1.16483 0
M  V30 4452 O 415.485 -1.41889 -1.24095 0
M  V30 4453 C 412.612 -2.78851 -1.92249 0
M  V30 4454 C 411.658 -3.96454 -1.57246 0
M  V30 4455 S 412.491 -5.31349 -0.665501 0
M  V30 4456 C 413.647 -5.9576 -1.91889 0
M  V30 4457 H 413.88 -2.96934 -0.147396 0
M  V30 4458 H 411.413 -1.54342 0.0423023 0
M  V30 4459 H 413.371 -3.14602 -2.63697 0
M  V30 4460 H 412.032 -1.99742 -2.42409 0
M  V30 4461 H 411.225 -4.37731 -2.49814 0
M  V30 4462 H 410.827 -3.62038 -0.938325 0
M  V30 4463 H 413.119 -6.13947 -2.86487 0
M  V30 4464 H 414.062 -6.9094 -1.54942 0
M  V30 4465 H 414.47 -5.2494 -2.076 0
M  V30 4466 N 413.868 0.0150385 -1.57593 0
M  V30 4467 C 414.798 1.01047 -2.10503 0
M  V30 4468 C 415.779 1.36816 -1.01071 0
M  V30 4469 O 416.964 1.45455 -1.28672 0
M  V30 4470 C 414.094 2.30708 -2.59598 0
M  V30 4471 C 413.048 2.09142 -3.73421 0
M  V30 4472 C 412.374 3.44685 -4.08774 0
M  V30 4473 C 413.674 1.46619 -5.01298 0
M  V30 4474 H 415.368 0.569978 -2.93925 0
M  V30 4475 H 412.914 0.272724 -1.41394 0
M  V30 4476 H 414.867 3.00687 -2.95238 0
M  V30 4477 H 413.591 2.76843 -1.73279 0
M  V30 4478 H 412.25 1.41592 -3.38153 0
M  V30 4479 H 411.898 3.88495 -3.195 0
M  V30 4480 H 411.598 3.31077 -4.8545 0
M  V30 4481 H 413.122 4.16004 -4.4696 0
M  V30 4482 H 414.536 2.06535 -5.34805 0
M  V30 4483 H 412.933 1.43544 -5.82679 0
M  V30 4484 H 414.003 0.433611 -4.82957 0
M  V30 4485 N 415.346 1.54954 0.287554 0
M  V30 4486 C 416.593 1.74873 1.02106 0
M  V30 4487 C 416.921 0.541829 1.86801 0
M  V30 4488 O 416.176 -0.475992 1.89823 0
M  V30 4489 C 416.475 2.99833 1.94512 0
M  V30 4490 C 416.141 4.33029 1.25686 0
M  V30 4491 C 414.803 4.69233 1.06649 0
M  V30 4492 C 417.155 5.15542 0.765913 0
M  V30 4493 C 414.483 5.85518 0.372222 0
M  V30 4494 C 416.835 6.32542 0.0853101 0
M  V30 4495 C 415.499 6.67398 -0.1169 0
M  V30 4496 H 414.769 0.639906 0.373632 0
M  V30 4497 H 417.416 1.89219 0.294665 0
M  V30 4498 H 415.721 2.80325 2.73725 0
M  V30 4499 H 417.418 3.1244 2.51361 0
M  V30 4500 H 414.008 4.04564 1.41512 0
M  V30 4501 H 418.192 4.88059 0.90066 0
M  V30 4502 H 413.448 6.11057 0.204695 0
M  V30 4503 H 417.622 6.95741 -0.302936 0
M  V30 4504 H 415.249 7.57357 -0.656859 0
M  V30 4505 N 416.824 -0.551391 1.4764 0
M  V30 4506 C 417.754 -1.66757 1.63445 0
M  V30 4507 C 418.735 -1.63077 0.483742 0
M  V30 4508 O 419.92 -1.80607 0.71377 0
M  V30 4509 C 417.05 -3.05387 1.65396 0
M  V30 4510 C 416.004 -3.23918 2.79752 0
M  V30 4511 C 415.33 -4.63393 2.66779 0
M  V30 4512 C 416.63 -3.08735 4.21284 0
M  V30 4513 H 418.324 -1.53786 2.56886 0
M  V30 4514 H 415.87 -0.738415 1.23626 0
M  V30 4515 H 417.823 -3.83325 1.75043 0
M  V30 4516 H 416.547 -3.19332 0.685195 0
M  V30 4517 H 415.206 -2.48391 2.69625 0
M  V30 4518 H 414.854 -4.74144 1.67918 0
M  V30 4519 H 414.554 -4.7674 3.43501 0
M  V30 4520 H 416.078 -5.43458 2.78364 0
M  V30 4521 H 417.492 -3.76484 4.32357 0
M  V30 4522 H 415.889 -3.33588 4.98838 0
M  V30 4523 H 416.959 -2.0541 4.39243 0
M  V30 4524 N 418.302 -1.35869 -0.798587 0
M  V30 4525 C 419.265 -1.29307 -1.89242 0
M  V30 4526 C 420.265 -0.202747 -1.59517 0
M  V30 4527 O 421.455 -0.456957 -1.681 0
M  V30 4528 C 418.587 -1.00229 -3.25833 0
M  V30 4529 H 419.78 -2.26576 -1.96478 0
M  V30 4530 H 417.333 -1.20509 -0.995358 0
M  V30 4531 H 418.068 -0.033801 -3.24282 0
M  V30 4532 H 417.853 -1.79121 -3.48795 0
M  V30 4533 H 419.343 -0.98219 -4.05885 0
M  V30 4534 N 419.78 1.02168 -1.19998 0
M  V30 4535 C 420.728 2.12717 -0.940967 0
M  V30 4536 C 421.722 1.69069 0.105841 0
M  V30 4537 O 422.928 1.79946 -0.0440583 0
M  V30 4538 H 419.303 0.695108 -0.28693 0
M  V30 4539 H 421.274 2.3175 -1.87975 0
M  V30 4540 C 420.023 3.44027 -0.504049 0
M  V30 4541 H 419.346 3.78036 -1.30112 0
M  V30 4542 H 420.786 4.22452 -0.361991 0
M  V30 4543 C 419.245 3.27678 0.782878 0
M  V30 4544 O 419.775 3.56949 1.84256 0
M  V30 4545 N 417.981 2.80943 0.742921 0
M  V30 4546 H 417.528 2.57322 -0.119687 0
M  V30 4547 H 417.486 2.70385 1.60435 0
M  V30 4548 N 421.258 1.00505 1.21394 0
M  V30 4549 C 422.188 0.585684 2.26035 0
M  V30 4550 C 423.169 -0.393525 1.65485 0
M  V30 4551 O 424.354 -0.281497 1.92149 0
M  V30 4552 C 421.484 -0.0884283 3.47187 0
M  V30 4553 C 420.438 0.810567 4.20254 0
M  V30 4554 C 419.764 0.00286382 5.347 0
M  V30 4555 C 421.064 2.1132 4.77641 0
M  V30 4556 H 422.758 1.46039 2.61368 0
M  V30 4557 H 420.304 0.703648 1.25638 0
M  V30 4558 H 422.257 -0.393286 4.19561 0
M  V30 4559 H 420.981 -0.997766 3.10986 0
M  V30 4560 H 419.64 1.09925 3.49731 0
M  V30 4561 H 419.288 -0.907765 4.94741 0
M  V30 4562 H 418.988 0.601444 5.84514 0
M  V30 4563 H 420.512 -0.295808 6.09883 0
M  V30 4564 H 421.926 1.87148 5.41893 0
M  V30 4565 H 420.323 2.66164 5.37845 0
M  V30 4566 H 421.393 2.78393 3.9702 0
M  V30 4567 N 422.737 -1.36956 0.779787 0
M  V30 4568 C 423.985 -1.99097 0.347079 0
M  V30 4569 C 424.306 -1.62206 -1.08232 0
M  V30 4570 O 423.576 -0.891373 -1.74446 0
M  V30 4571 H 422.156 -0.736409 0.125342 0
M  V30 4572 H 424.818 -1.67308 0.999696 0
M  V30 4573 H 423.914 -3.09107 0.431162 0
M  V30 4574 N 424.215 -0.530993 -1.48385 0
M  V30 4575 C 425.461 0.00274135 -2.028 0
M  V30 4576 C 425.794 1.33838 -1.40716 0
M  V30 4577 O 425.069 1.86465 -0.553277 0
M  V30 4578 C 425.352 0.123676 -3.59888 0
M  V30 4579 C 425.205 -1.2372 -4.3245 0
M  V30 4580 C 426.524 0.849967 -4.31814 0
M  V30 4581 H 423.643 -0.000477758 -0.737 0
M  V30 4582 H 426.285 -0.688217 -1.77098 0
M  V30 4583 H 424.435 0.712157 -3.81917 0
M  V30 4584 H 426.107 -1.86687 -4.21836 0
M  V30 4585 H 424.35 -1.81882 -3.93829 0
M  V30 4586 H 425.021 -1.10557 -5.40815 0
M  V30 4587 H 427.497 0.350572 -4.14621 0
M  V30 4588 H 426.373 0.903486 -5.41413 0
M  V30 4589 H 426.634 1.90047 -3.99167 0
M  V30 4590 N 425.693 1.55336 -0.266172 0
M  V30 4591 C 426.97 1.91372 0.404486 0
M  V30 4592 C 427.35 1.18935 1.74407 0
M  V30 4593 O 426.698 0.3132 2.26343 0
M  V30 4594 C 426.908 3.44581 0.553593 0
M  V30 4595 C 428.256 4.16196 0.840618 0
M  V30 4596 O 429.28 3.50426 0.638739 0
M  V30 4597 O 428.139 5.32567 1.22618 0
M  V30 4598 H 425.233 0.797194 0.220025 0
M  V30 4599 H 427.779 1.66813 -0.311664 0
M  V30 4600 H 426.551 3.89357 -0.389498 0
M  V30 4601 H 426.174 3.75065 1.31955 0
M  V30 4602 N 427.171 -0.0066808 1.57599 0
M  V30 4603 C 428.42 -0.692078 1.89455 0
M  V30 4604 C 428.733 -1.75306 0.867586 0
M  V30 4605 O 429.939 -2.49262 1.07614 0
M  V30 4606 C 428.395 -1.2821 3.36289 0
M  V30 4607 C 428.003 -0.256291 4.47266 0
M  V30 4608 C 429.747 -1.94608 3.77264 0
M  V30 4609 C 427.654 -0.855927 5.85173 0
M  V30 4610 H 426.584 -0.262252 0.706923 0
M  V30 4611 H 429.235 0.052769 1.83424 0
M  V30 4612 H 427.617 -2.0774 3.37135 0
M  V30 4613 H 428.791 0.513923 4.57925 0
M  V30 4614 H 427.106 0.306862 4.15268 0
M  V30 4615 H 429.703 -2.40364 4.77629 0
M  V30 4616 H 430.046 -2.77382 3.10427 0
M  V30 4617 H 430.579 -1.21822 3.78688 0
M  V30 4618 H 427.318 -0.0671161 6.55466 0
M  V30 4619 H 426.838 -1.59546 5.78191 0
M  V30 4620 H 428.517 -1.35658 6.32618 0
M  V30 4621 N 428.649 -1.55105 -0.279332 0
M  V30 4622 C 429.579 -1.90557 -1.34945 0
M  V30 4623 C 430.56 -0.766738 -1.51839 0
M  V30 4624 O 431.745 -1.02434 -1.64988 0
M  V30 4625 C 428.875 -2.17193 -2.71006 0
M  V30 4626 C 427.829 -3.33021 -2.68851 0
M  V30 4627 C 427.155 -3.45123 -4.08405 0
M  V30 4628 C 428.455 -4.69578 -2.28678 0
M  V30 4629 H 430.149 -2.80188 -1.05522 0
M  V30 4630 H 427.695 -1.34811 -0.506173 0
M  V30 4631 H 429.648 -2.40581 -3.45975 0
M  V30 4632 H 428.372 -1.24355 -3.01999 0
M  V30 4633 H 427.031 -3.0959 -1.9634 0
M  V30 4634 H 426.679 -2.49762 -4.3661 0
M  V30 4635 H 426.379 -4.22995 -4.07859 0
M  V30 4636 H 427.903 -3.70796 -4.85121 0
M  V30 4637 H 429.317 -4.92553 -2.93368 0
M  V30 4638 H 427.714 -5.5032 -2.39306 0
M  V30 4639 H 428.784 -4.68828 -1.23807 0
M  V30 4640 N 430.127 0.543554 -1.4793 0
M  V30 4641 C 431.543 0.870806 -1.3375 0
M  V30 4642 C 431.743 1.9864 -0.338261 0
M  V30 4643 O 430.799 2.51305 0.245371 0
M  V30 4644 C 432.112 1.25114 -2.73435 0
M  V30 4645 C 433.66 1.3618 -2.81823 0
M  V30 4646 C 434.135 1.77563 -4.22179 0
M  V30 4647 N 435.626 1.8469 -4.24787 0
M  V30 4648 C 436.361 2.18067 -5.30315 0
M  V30 4649 N 435.857 2.49963 -6.46135 0
M  V30 4650 N 437.65 2.18958 -5.17701 0
M  V30 4651 H 429.801 -0.19275 -2.11524 0
M  V30 4652 H 432.064 -0.0235777 -0.947707 0
M  V30 4653 H 431.77 0.50514 -3.48053 0
M  V30 4654 H 431.644 2.20431 -3.06088 0
M  V30 4655 H 434.031 2.09859 -2.07468 0
M  V30 4656 H 434.112 0.390169 -2.52807 0
M  V30 4657 H 433.756 1.04449 -4.97044 0
M  V30 4658 H 433.686 2.75753 -4.48629 0
M  V30 4659 H 436.177 1.62372 -3.41239 0
M  V30 4660 H 436.49 2.74497 -7.22406 0
M  V30 4661 H 434.835 2.47513 -6.49432 0
M  V30 4662 H 438.026 1.93488 -4.2624 0
M  V30 4663 H 438.199 2.44639 -6.00047 0
M  V30 4664 N 431.605 1.3629 0.791371 0
M  V30 4665 C 432.538 1.24816 1.9104 0
M  V30 4666 C 433.516 0.132739 1.62057 0
M  V30 4667 O 434.7 0.303527 1.8604 0
M  V30 4668 C 431.827 0.925355 3.25814 0
M  V30 4669 C 430.873 2.05495 3.7373 0
M  V30 4670 S 431.706 3.67255 3.89723 0
M  V30 4671 C 432.862 3.37084 5.27376 0
M  V30 4672 H 433.095 2.19533 2.00481 0
M  V30 4673 H 430.628 1.21684 0.950393 0
M  V30 4674 H 432.586 0.745924 4.03666 0
M  V30 4675 H 431.247 -0.00400098 3.141 0
M  V30 4676 H 430.44 1.7836 4.71385 0
M  V30 4677 H 430.042 2.1935 3.02922 0
M  V30 4678 H 432.334 2.90856 6.1189 0
M  V30 4679 H 433.277 4.33995 5.59512 0
M  V30 4680 H 433.685 2.7248 4.94383 0
M  V30 4681 N 433.083 -1.0153 1.20538 0
M  V30 4682 C 434.36 -1.72327 0.925343 0
M  V30 4683 C 434.74 -2.03383 -0.565547 0
M  V30 4684 O 434.088 -1.69934 -1.52757 0
M  V30 4685 C 434.298 -2.9902 1.79967 0
M  V30 4686 C 435.646 -3.72258 2.04228 0
M  V30 4687 O 436.67 -3.08979 1.77231 0
M  V30 4688 O 435.529 -4.86053 2.4983 0
M  V30 4689 H 432.623 -0.751099 0.346092 0
M  V30 4690 H 435.169 -1.07366 1.31417 0
M  V30 4691 H 433.941 -2.72402 2.80915 0
M  V30 4692 H 433.564 -3.71721 1.41099 0
M  V30 4693 N 434.561 -1.01147 -1.20859 0
M  V30 4694 C 435.524 -0.582224 -2.21682 0
M  V30 4695 C 436.524 0.344887 -1.57058 0
M  V30 4696 O 437.714 0.134281 -1.73682 0
M  V30 4697 C 434.846 0.150496 -3.40568 0
M  V30 4698 H 436.039 -1.47408 -2.61172 0
M  V30 4699 H 433.592 -0.800695 -1.34233 0
M  V30 4700 H 434.327 1.0575 -3.06574 0
M  V30 4701 H 434.112 -0.515444 -3.88697 0
M  V30 4702 H 435.602 0.438344 -4.15293 0
M  V30 4703 N 436.039 1.36541 -0.78704 0
M  V30 4704 C 437.285 1.99599 -0.358872 0
M  V30 4705 C 437.618 1.62323 1.06606 0
M  V30 4706 O 436.893 0.876858 1.73613 0
M  V30 4707 C 437.176 3.56327 -0.519944 0
M  V30 4708 C 437.029 4.03464 -1.98839 0
M  V30 4709 C 438.348 4.4005 0.0664737 0
M  V30 4710 H 435.467 0.725107 -0.131869 0
M  V30 4711 H 438.109 1.6199 -0.992936 0
M  V30 4712 H 436.259 3.88495 0.0198321 0
M  V30 4713 H 437.931 3.81793 -2.58905 0
M  V30 4714 H 436.174 3.55092 -2.49183 0
M  V30 4715 H 436.845 5.12439 -2.05207 0
M  V30 4716 H 439.321 4.14228 -0.394267 0
M  V30 4717 H 438.197 5.48847 -0.0762682 0
M  V30 4718 H 438.458 4.26655 1.15835 0
M  V30 4719 N 437.518 0.538854 1.48102 0
M  V30 4720 C 438.481 -0.208395 2.28251 0
M  V30 4721 C 439.481 -0.859656 1.35892 0
M  V30 4722 O 440.671 -0.71834 1.58699 0
M  V30 4723 C 437.803 -1.30252 3.15035 0
M  V30 4724 H 438.996 0.495407 2.9578 0
M  V30 4725 H 436.549 0.295112 1.53489 0
M  V30 4726 H 437.284 -2.0393 2.52157 0
M  V30 4727 H 437.069 -0.840551 3.82985 0
M  V30 4728 H 438.559 -1.82787 3.75471 0
M  V30 4729 N 438.996 -1.55193 0.274407 0
M  V30 4730 C 440.243 -1.99581 -0.342579 0
M  V30 4731 C 440.571 -1.1628 -1.55914 0
M  V30 4732 O 439.826 -0.22029 -1.94456 0
M  V30 4733 C 440.125 -3.49019 -0.769458 0
M  V30 4734 C 439.791 -4.49598 0.342389 0
M  V30 4735 C 438.453 -4.76821 0.647686 0
M  V30 4736 C 440.805 -5.0964 1.09163 0
M  V30 4737 C 438.133 -5.61354 1.70581 0
M  V30 4738 C 440.485 -5.95323 2.13948 0
M  V30 4739 C 439.149 -6.20867 2.45113 0
M  V30 4740 H 438.419 -0.730319 -0.125358 0
M  V30 4741 H 441.066 -1.87529 0.387971 0
M  V30 4742 H 439.371 -3.58544 -1.57967 0
M  V30 4743 H 441.068 -3.8077 -1.25757 0
M  V30 4744 H 437.658 -4.28496 0.094318 0
M  V30 4745 H 441.842 -4.88632 0.869024 0
M  V30 4746 H 437.098 -5.79392 1.9523 0
M  V30 4747 H 441.272 -6.40881 2.72478 0
M  V30 4748 H 438.899 -6.86162 3.27239 0
M  V30 4749 N 440.474 -0.00167713 -1.576 0
M  V30 4750 C 441.723 0.682021 -1.89819 0
M  V30 4751 C 442.036 1.74844 -0.876871 0
M  V30 4752 O 443.242 2.48688 -1.08934 0
M  V30 4753 C 441.698 1.26425 -3.36964 0
M  V30 4754 C 441.306 0.232568 -4.47396 0
M  V30 4755 C 443.05 1.92604 -3.78291 0
M  V30 4756 C 440.957 0.824882 -5.85619 0
M  V30 4757 H 439.887 0.258499 -0.708304 0
M  V30 4758 H 442.538 -0.0624957 -1.83394 0
M  V30 4759 H 440.92 2.05949 -3.38232 0
M  V30 4760 H 442.094 -0.5382 -4.57646 0
M  V30 4761 H 440.409 -0.32888 -4.15099 0
M  V30 4762 H 443.006 2.37827 -4.78897 0
M  V30 4763 H 443.349 2.75732 -3.11894 0
M  V30 4764 H 443.882 1.19812 -3.79328 0
M  V30 4765 H 440.621 0.0323542 -6.55492 0
M  V30 4766 H 440.141 1.56477 -5.79029 0
M  V30 4767 H 441.82 1.32301 -6.33329 0
M  V30 4768 N 441.952 1.55251 0.271103 0
M  V30 4769 C 443.198 1.7713 0.999832 0
M  V30 4770 C 443.553 0.56659 1.83868 0
M  V30 4771 O 442.846 -0.44069 1.86463 0
M  V30 4772 C 443.04 3.01879 1.91321 0
M  V30 4773 C 442.869 4.34368 1.16426 0
M  V30 4774 C 441.639 4.97593 0.879169 0
M  V30 4775 C 443.837 5.1131 0.553749 0
M  V30 4776 N 441.819 6.13813 0.103618 0
M  V30 4777 C 443.19 6.19938 -0.0875442 0
M  V30 4778 C 445.245 4.95754 0.461782 0
M  V30 4779 C 443.948 7.14703 -0.811942 0
M  V30 4780 C 445.974 5.90875 -0.249027 0
M  V30 4781 C 445.336 6.98893 -0.879051 0
M  V30 4782 H 441.435 0.700407 0.347784 0
M  V30 4783 H 444.019 1.92744 0.275314 0
M  V30 4784 H 442.19 2.87637 2.60997 0
M  V30 4785 H 443.922 3.12154 2.57569 0
M  V30 4786 H 440.677 4.58538 1.18491 0
M  V30 4787 H 441.101 6.76455 -0.271543 0
M  V30 4788 H 445.743 4.12342 0.934552 0
M  V30 4789 H 443.461 7.97634 -1.29639 0
M  V30 4790 H 447.047 5.80916 -0.320529 0
M  V30 4791 H 445.927 7.71231 -1.42031 0
M  V30 4792 N 443.43 -0.535701 1.48216 0
M  V30 4793 C 444.377 -1.64083 1.62312 0
M  V30 4794 C 445.347 -1.59448 0.465365 0
M  V30 4795 O 446.532 -1.77959 0.688135 0
M  V30 4796 C 443.672 -3.0236 1.66349 0
M  V30 4797 C 442.785 -3.17273 2.93193 0
M  V30 4798 C 441.92 -4.46075 2.88427 0
M  V30 4799 C 440.959 -4.54496 4.1 0
M  V30 4800 N 440.096 -5.7468 4.03345 0
M  V30 4801 H 444.936 -1.51374 2.5669 0
M  V30 4802 H 442.473 -0.737059 1.27302 0
M  V30 4803 H 444.431 -3.82461 1.66672 0
M  V30 4804 H 443.061 -3.13854 0.754672 0
M  V30 4805 H 442.113 -2.30462 3.02641 0
M  V30 4806 H 443.425 -3.19357 3.83162 0
M  V30 4807 H 442.579 -5.3446 2.87119 0
M  V30 4808 H 441.318 -4.46504 1.96177 0
M  V30 4809 H 440.323 -3.64519 4.11589 0
M  V30 4810 H 441.548 -4.5581 5.03402 0
M  V30 4811 H 439.494 -5.76017 3.13912 0
M  V30 4812 H 439.411 -5.78234 4.87013 0
M  V30 4813 H 440.679 -6.65367 4.06087 0
M  V30 4814 N 444.908 -1.36708 -0.784132 0
M  V30 4815 C 445.84 -1.27333 -1.90575 0
M  V30 4816 C 446.853 -0.191706 -1.61667 0
M  V30 4817 O 448.042 -0.446854 -1.72816 0
M  V30 4818 C 445.142 -0.943177 -3.25511 0
M  V30 4819 C 444.315 -2.12776 -3.82158 0
M  V30 4820 C 443.374 -1.76983 -4.95544 0
M  V30 4821 O 442.4 -2.49134 -5.11782 0
M  V30 4822 N 443.602 -0.706624 -5.76183 0
M  V30 4823 H 446.367 -2.23974 -1.99138 0
M  V30 4824 H 443.928 -1.30171 -0.962656 0
M  V30 4825 H 445.92 -0.684799 -3.98864 0
M  V30 4826 H 444.49 -0.0657333 -3.12531 0
M  V30 4827 H 443.71 -2.54863 -3.0073 0
M  V30 4828 H 444.998 -2.91904 -4.16737 0
M  V30 4829 H 444.396 -0.107643 -5.65598 0
M  V30 4830 H 442.953 -0.50808 -6.49817 0
M  V30 4831 N 446.386 1.0089 -1.21074 0
M  V30 4832 C 447.319 2.09279 -0.909806 0
M  V30 4833 C 448.297 1.61986 0.141145 0
M  V30 4834 O 449.481 1.88495 0.0130332 0
M  V30 4835 C 446.608 3.36723 -0.365374 0
M  V30 4836 C 445.654 4.02919 -1.39852 0
M  V30 4837 S 446.487 4.45835 -2.96633 0
M  V30 4838 C 447.643 5.76471 -2.43786 0
M  V30 4839 H 447.876 2.34484 -1.82769 0
M  V30 4840 H 445.409 1.14115 -1.04006 0
M  V30 4841 H 447.367 4.10459 -0.0578203 0
M  V30 4842 H 446.028 3.09577 0.531136 0
M  V30 4843 H 445.221 4.94634 -0.967117 0
M  V30 4844 H 444.823 3.35441 -1.65395 0
M  V30 4845 H 447.115 6.52027 -1.84029 0
M  V30 4846 H 448.058 6.24418 -3.33928 0
M  V30 4847 H 448.466 5.33104 -1.85636 0
M  V30 4848 N 447.864 1.01787 1.20321 0
M  V30 4849 C 449.112 0.706538 1.89347 0
M  V30 4850 C 449.433 -0.766289 1.79313 0
M  V30 4851 O 448.703 -1.55126 1.19635 0
M  V30 4852 H 447.283 0.258348 0.700903 0
M  V30 4853 H 449.945 1.28974 1.46122 0
M  V30 4854 H 449.041 0.991066 2.95946 0
M  V30 4855 N 449.342 -1.36122 0.79427 0
M  V30 4856 C 450.57 -2.03362 0.380989 0
M  V30 4857 C 450.985 -1.59881 -1.00416 0
M  V30 4858 O 450.342 -0.790515 -1.6449 0
M  V30 4859 C 450.393 -3.58804 0.440649 0
M  V30 4860 O 450.114 -4.007 1.77118 0
M  V30 4861 C 451.615 -4.43296 0.0186117 0
M  V30 4862 H 448.835 -0.652526 0.156367 0
M  V30 4863 H 451.379 -1.73998 1.07447 0
M  V30 4864 H 449.534 -3.8686 -0.204458 0
M  V30 4865 H 449.948 -4.95309 1.72538 0
M  V30 4866 H 451.422 -5.51887 0.111488 0
M  V30 4867 H 451.899 -4.2684 -1.03461 0
M  V30 4868 H 452.505 -4.20512 0.636395 0
M  V30 4869 N 450.82 -0.546701 -1.47814 0
M  V30 4870 C 452.045 -0.021268 -2.07389 0
M  V30 4871 C 452.47 1.25822 -1.39822 0
M  V30 4872 O 451.828 1.75111 -0.46968 0
M  V30 4873 C 451.876 0.168502 -3.60206 0
M  V30 4874 O 450.98 1.23347 -3.93522 0
M  V30 4875 H 450.321 -0.0466108 -0.662362 0
M  V30 4876 H 452.851 -0.759387 -1.89985 0
M  V30 4877 H 452.861 0.385982 -4.0617 0
M  V30 4878 H 451.536 -0.766075 -4.08784 0
M  V30 4879 H 450.113 0.997319 -3.59316 0
M  V30 4880 N 452.299 1.55045 -0.282633 0
M  V30 4881 C 453.539 2.01668 0.333088 0
M  V30 4882 C 453.903 1.1667 1.52486 0
M  V30 4883 O 455.104 1.52907 2.21072 0
M  V30 4884 C 453.375 3.50509 0.698442 0
M  V30 4885 S 454.934 4.19112 1.29963 0
M  V30 4886 H 451.752 0.703468 0.103219 0
M  V30 4887 H 454.354 1.91233 -0.406222 0
M  V30 4888 H 453.058 4.10015 -0.177693 0
M  V30 4889 H 452.589 3.64943 1.46902 0
M  V30 4890 H 454.604 4.23362 2.58803 0
M  V30 4891 N 453.777 0.010035 1.57597 0
M  V30 4892 C 454.687 -0.994226 2.12491 0
M  V30 4893 C 455.703 -1.37013 1.07254 0
M  V30 4894 O 456.879 -1.45542 1.3921 0
M  V30 4895 C 453.944 -2.2642 2.62555 0
M  V30 4896 C 453.005 -1.95049 3.82432 0
M  V30 4897 C 452.238 -3.15991 4.30099 0
M  V30 4898 O 452.461 -4.28015 3.7704 0
M  V30 4899 O 451.395 -2.99403 5.22151 0
M  V30 4900 H 455.221 -0.557549 2.98538 0
M  V30 4901 H 452.806 -0.209413 1.47925 0
M  V30 4902 H 454.688 -3.01009 2.9491 0
M  V30 4903 H 453.363 -2.69306 1.796 0
M  V30 4904 H 452.27 -1.17904 3.55034 0
M  V30 4905 H 453.603 -1.56992 4.66491 0
M  V30 4906 N 455.255 -1.55392 -0.262866 0
M  V30 4907 C 456.203 -1.8977 -1.345 0
M  V30 4908 C 457.197 -0.775063 -1.50629 0
M  V30 4909 O 458.403 -0.959519 -1.52293 0
M  V30 4910 H 454.778 -0.602467 -0.450041 0
M  V30 4911 H 456.749 -2.80147 -1.02762 0
M  V30 4912 C 455.498 -2.19501 -2.69657 0
M  V30 4913 H 454.821 -3.05378 -2.5804 0
M  V30 4914 H 456.261 -2.47469 -3.44289 0
M  V30 4915 C 454.72 -1.00597 -3.21531 0
M  V30 4916 O 455.25 -0.245768 -4.00947 0
M  V30 4917 N 453.456 -0.800911 -2.79345 0
M  V30 4918 H 453.003 -1.42079 -2.14875 0
M  V30 4919 H 452.961 -0.00697996 -3.14399 0
M  V30 4920 N 456.733 0.527833 -1.48498 0
M  V30 4921 C 457.663 1.64136 -1.66077 0
M  V30 4922 C 458.644 1.62286 -0.509625 0
M  V30 4923 O 459.829 1.79449 -0.742413 0
M  V30 4924 C 456.959 3.02717 -1.70234 0
M  V30 4925 C 455.913 3.19426 -2.8487 0
M  V30 4926 C 455.239 4.5909 -2.74118 0
M  V30 4927 C 456.539 3.01993 -4.26142 0
M  V30 4928 H 458.233 1.4968 -2.593 0
M  V30 4929 H 455.779 0.718654 -1.24785 0
M  V30 4930 H 457.732 3.80491 -1.8112 0
M  V30 4931 H 456.456 3.18201 -0.735911 0
M  V30 4932 H 455.115 2.4407 -2.73542 0
M  V30 4933 H 454.763 4.71413 -1.7544 0
M  V30 4934 H 454.463 4.71214 -3.51042 0
M  V30 4935 H 455.987 5.3896 -2.86974 0
M  V30 4936 H 457.401 3.69558 -4.38292 0
M  V30 4937 H 455.798 3.2561 -5.04082 0
M  V30 4938 H 456.868 1.98396 -4.42456 0
M  V30 4939 N 458.211 1.37122 0.776871 0
M  V30 4940 C 459.622 1.28667 1.35284 0
M  V30 4941 C 459.973 -0.0680035 1.96082 0
M  V30 4942 O 459.098 -0.969743 1.93455 0
M  V30 4943 C 459.693 2.32997 2.45963 0
M  V30 4944 C 458.252 2.28191 2.99342 0
M  V30 4945 C 457.399 2.17101 1.72517 0
M  V30 4946 H 460.35 1.47819 0.577527 0
M  V30 4947 H 460.371 1.97366 3.2531 0
M  V30 4948 H 459.883 3.3158 2.01684 0
M  V30 4949 H 457.984 1.33115 3.4801 0
M  V30 4950 H 458.097 3.21397 3.55304 0
M  V30 4951 H 456.461 1.63562 1.95242 0
M  V30 4952 H 457.244 3.17591 1.30348 0
M  V30 4953 N 459.689 -1.00246 1.21608 0
M  V30 4954 C 460.621 -2.09244 0.935401 0
M  V30 4955 C 461.634 -1.62592 -0.0823594 0
M  V30 4956 O 462.823 -1.77865 0.150456 0
M  V30 4957 C 459.923 -3.36724 0.383453 0
M  V30 4958 C 459.096 -4.1245 1.45615 0
M  V30 4959 C 458.155 -5.18219 0.912991 0
M  V30 4960 O 457.181 -5.46337 1.59701 0
M  V30 4961 N 458.383 -5.7987 -0.270478 0
M  V30 4962 H 461.148 -2.33905 1.87373 0
M  V30 4963 H 458.709 -1.16748 1.12167 0
M  V30 4964 H 460.701 -4.047 0.00562157 0
M  V30 4965 H 459.271 -3.09201 -0.459758 0
M  V30 4966 H 458.491 -3.39241 2.00772 0
M  V30 4967 H 459.779 -4.59819 2.17817 0
M  V30 4968 H 459.177 -5.59381 -0.843195 0
M  V30 4969 H 457.734 -6.49126 -0.589794 0
M  V30 4970 N 461.167 -1.02423 -1.1978 0
M  V30 4971 C 462.13 -0.605703 -2.21052 0
M  V30 4972 C 463.13 0.328209 -1.57415 0
M  V30 4973 O 464.32 0.115853 -1.73814 0
M  V30 4974 C 461.452 0.114366 -3.40708 0
M  V30 4975 H 462.645 -1.5017 -2.59594 0
M  V30 4976 H 460.198 -0.814888 -1.33376 0
M  V30 4977 H 460.933 1.02492 -3.07678 0
M  V30 4978 H 460.718 -0.556641 -3.88129 0
M  V30 4979 H 462.208 0.394272 -4.15735 0
M  V30 4980 N 462.645 1.35699 -0.801477 0
M  V30 4981 C 463.595 2.2728 -0.181073 0
M  V30 4982 C 464.579 1.47533 0.642098 0
M  V30 4983 O 465.771 1.69785 0.500193 0
M  V30 4984 C 462.9 3.36626 0.673612 0
M  V30 4985 C 461.986 4.23802 -0.159008 0
M  V30 4986 N 462.377 4.90879 -1.2195 0
M  V30 4987 C 460.675 4.45959 0.0602005 0
M  V30 4988 C 461.376 5.5546 -1.72738 0
M  V30 4989 N 460.352 5.33663 -1.03465 0
M  V30 4990 H 464.154 2.76632 -0.992582 0
M  V30 4991 H 461.668 1.49166 -0.642127 0
M  V30 4992 H 463.665 4.01179 1.13408 0
M  V30 4993 H 462.325 2.88828 1.48353 0
M  V30 4994 H 463.336 4.92497 -1.60209 0
M  V30 4995 H 460.013 4.08969 0.839664 0
M  V30 4996 H 461.403 6.18991 -2.61342 0
M  V30 4997 N 464.123 0.554532 1.47522 0
M  V30 4998 C 465.086 -0.184174 2.28459 0
M  V30 4999 C 466.086 -0.845195 1.36796 0
M  V30 5000 O 467.276 -0.701467 1.59452 0
M  V30 5001 C 464.408 -1.26903 3.16399 0
M  V30 5002 H 465.601 0.526751 2.95238 0
M  V30 5003 H 463.154 0.311375 1.53167 0
M  V30 5004 H 463.889 -2.01244 2.54306 0
M  V30 5005 H 463.674 -0.799883 3.83854 0
M  V30 5006 H 465.164 -1.78794 3.77389 0
M  V30 5007 N 465.601 -1.54893 0.290851 0
M  V30 5008 C 466.531 -2.26103 -0.583084 0
M  V30 5009 C 467.512 -1.25684 -1.14619 0
M  V30 5010 O 468.697 -1.54436 -1.17741 0
M  V30 5011 C 465.827 -2.99409 -1.75987 0
M  V30 5012 C 464.781 -4.0689 -1.32758 0
M  V30 5013 C 464.107 -4.67856 -2.58872 0
M  V30 5014 C 465.407 -5.20215 -0.46624 0
M  V30 5015 H 467.101 -2.99398 0.0108214 0
M  V30 5016 H 464.647 -1.43998 0.00664468 0
M  V30 5017 H 466.6 -3.47943 -2.37727 0
M  V30 5018 H 465.324 -2.23675 -2.37985 0
M  V30 5019 H 463.983 -3.59191 -0.733299 0
M  V30 5020 H 463.631 -3.88772 -3.19163 0
M  V30 5021 H 463.331 -5.40438 -2.30653 0
M  V30 5022 H 464.855 -5.19147 -3.21433 0
M  V30 5023 H 466.269 -5.64704 -0.989047 0
M  V30 5024 H 464.666 -5.99455 -0.27826 0
M  V30 5025 H 465.736 -4.82198 0.511173 0
M  V30 5026 N 467.08 -0.0183926 -1.57589 0
M  V30 5027 C 468.329 0.66185 -1.90532 0
M  V30 5028 C 468.642 1.73904 -0.895366 0
M  V30 5029 O 469.848 2.47518 -1.11566 0
M  V30 5030 C 468.304 1.22844 -3.38286 0
M  V30 5031 C 467.912 0.185103 -4.47617 0
M  V30 5032 C 469.656 1.88581 -3.80312 0
M  V30 5033 C 467.563 0.762723 -5.86461 0
M  V30 5034 H 466.493 0.250972 -0.711006 0
M  V30 5035 H 469.144 -0.0819435 -1.83317 0
M  V30 5036 H 467.526 2.0235 -3.40398 0
M  V30 5037 H 468.7 -0.58671 -4.5705 0
M  V30 5038 H 467.015 -0.372889 -4.14727 0
M  V30 5039 H 469.612 2.32735 -4.81392 0
M  V30 5040 H 469.955 2.72408 -3.14801 0
M  V30 5041 H 470.488 1.15782 -3.80578 0
M  V30 5042 H 467.227 -0.0371713 -6.55489 0
M  V30 5043 H 466.747 1.50327 -5.80656 0
M  V30 5044 H 468.426 1.25576 -6.34697 0
M  V30 5045 N 468.558 1.5553 0.254621 0
M  V30 5046 C 469.974 1.4778 0.602753 0
M  V30 5047 C 470.174 0.707047 1.88688 0
M  V30 5048 O 469.23 0.233288 2.5142 0
M  V30 5049 C 470.543 2.92133 0.712648 0
M  V30 5050 C 472.091 3.02458 0.805488 0
M  V30 5051 C 472.566 4.48102 0.947009 0
M  V30 5052 N 474.057 4.52008 1.01207 0
M  V30 5053 C 474.792 5.61939 1.1407 0
M  V30 5054 N 474.288 6.81697 1.23536 0
M  V30 5055 N 476.081 5.49719 1.17325 0
M  V30 5056 H 468.232 2.04085 -0.588463 0
M  V30 5057 H 470.495 0.926229 -0.202001 0
M  V30 5058 H 470.201 3.51332 -0.160766 0
M  V30 5059 H 470.075 3.42187 1.58707 0
M  V30 5060 H 472.462 2.43344 1.66936 0
M  V30 5061 H 472.543 2.55627 -0.0939266 0
M  V30 5062 H 472.187 5.07824 0.087725 0
M  V30 5063 H 472.117 4.92607 1.86135 0
M  V30 5064 H 474.608 3.65749 0.950577 0
M  V30 5065 H 474.921 7.61228 1.33236 0
M  V30 5066 H 473.266 6.84473 1.20508 0
M  V30 5067 H 476.457 4.55095 1.09573 0
M  V30 5068 H 476.63 6.35432 1.27005 0
M  V30 5069 N 470.036 -0.519951 1.48776 0
M  V30 5070 C 470.999 -1.60574 1.6355 0
M  V30 5071 C 471.999 -1.52557 0.508234 0
M  V30 5072 O 473.189 -1.56047 0.774262 0
M  V30 5073 C 470.321 -3.00211 1.61512 0
M  V30 5074 H 471.514 -1.4881 2.60376 0
M  V30 5075 H 469.067 -0.742772 1.37523 0
M  V30 5076 H 469.802 -3.17471 0.662009 0
M  V30 5077 H 469.587 -3.07439 2.43359 0
M  V30 5078 H 471.077 -3.79134 1.75064 0
M  V30 5079 N 471.514 -1.37532 -0.769588 0
M  V30 5080 C 472.761 -1.3286 -1.52822 0
M  V30 5081 C 473.089 0.0862597 -1.94309 0
M  V30 5082 O 472.344 1.05995 -1.6451 0
M  V30 5083 C 472.643 -2.21558 -2.8044 0
M  V30 5084 C 472.309 -3.69796 -2.57996 0
M  V30 5085 C 470.971 -4.10194 -2.51583 0
M  V30 5086 C 473.323 -4.63699 -2.37976 0
M  V30 5087 C 470.651 -5.42608 -2.23144 0
M  V30 5088 C 473.003 -5.96353 -2.1106 0
M  V30 5089 C 471.667 -6.35853 -2.03093 0
M  V30 5090 H 470.937 -0.486168 -0.559215 0
M  V30 5091 H 473.584 -1.69757 -0.886277 0
M  V30 5092 H 471.889 -1.77663 -3.49204 0
M  V30 5093 H 473.586 -2.15256 -3.38328 0
M  V30 5094 H 470.176 -3.37759 -2.63851 0
M  V30 5095 H 474.36 -4.33346 -2.41919 0
M  V30 5096 H 469.616 -5.72173 -2.15472 0
M  V30 5097 H 473.79 -6.68667 -1.94568 0
M  V30 5098 H 471.417 -7.38382 -1.8082 0
M  V30 5099 N 472.992 0.995999 -1.22138 0
M  V30 5100 C 473.94 2.10673 -0.985876 0
M  V30 5101 C 474.934 1.69255 0.0699553 0
M  V30 5102 O 476.14 1.79812 -0.0822176 0
M  V30 5103 H 472.515 0.688865 -0.30161 0
M  V30 5104 H 474.486 2.27711 -1.92848 0
M  V30 5105 C 473.235 3.42881 -0.576909 0
M  V30 5106 H 472.558 3.75191 -1.38101 0
M  V30 5107 H 473.998 4.21589 -0.451518 0
M  V30 5108 C 472.457 3.29265 0.713196 0
M  V30 5109 O 472.987 3.60777 1.76643 0
M  V30 5110 N 471.193 2.82456 0.683162 0
M  V30 5111 H 470.74 2.5701 -0.174242 0
M  V30 5112 H 470.698 2.73727 1.54663 0
M  V30 5113 N 474.47 1.03057 1.19235 0
M  V30 5114 C 475.433 0.617418 2.20727 0
M  V30 5115 C 476.433 -0.319856 1.57587 0
M  V30 5116 O 477.623 -0.106633 1.73873 0
M  V30 5117 C 474.755 -0.096296 3.40764 0
M  V30 5118 H 475.948 1.51544 2.58794 0
M  V30 5119 H 473.501 0.821949 1.32942 0
M  V30 5120 H 474.236 -1.00859 3.08217 0
M  V30 5121 H 474.021 0.577217 3.87828 0
M  V30 5122 H 475.511 -0.372219 4.15938 0
M  V30 5123 N 475.948 -1.35272 0.808662 0
M  V30 5124 C 477.194 -1.99003 0.390581 0
M  V30 5125 C 477.527 -1.63999 -1.0401 0
M  V30 5126 O 476.802 -0.904368 -1.72196 0
M  V30 5127 C 477.085 -3.55454 0.576566 0
M  V30 5128 C 476.938 -4.00249 2.05233 0
M  V30 5129 C 478.257 -4.401 0.00354277 0
M  V30 5130 H 475.376 -0.722917 0.143388 0
M  V30 5131 H 478.018 -1.6039 1.01858 0
M  V30 5132 H 476.168 -3.88477 0.0419766 0
M  V30 5133 H 477.84 -3.77626 2.64946 0
M  V30 5134 H 476.083 -3.51082 2.54801 0
M  V30 5135 H 476.754 -5.0911 2.13333 0
M  V30 5136 H 479.23 -4.13548 0.460117 0
M  V30 5137 H 478.106 -5.48656 0.163575 0
M  V30 5138 H 478.367 -4.28444 -1.09032 0
M  V30 5139 N 477.426 -0.562348 -1.47226 0
M  V30 5140 C 478.359 0.230405 -2.27034 0
M  V30 5141 C 479.337 0.915609 -1.3437 0
M  V30 5142 O 480.521 0.933573 -1.63758 0
M  V30 5143 C 477.648 1.32874 -3.11548 0
M  V30 5144 C 476.694 0.751552 -4.19826 0
M  V30 5145 S 477.527 -0.405848 -5.3396 0
M  V30 5146 C 478.683 0.694186 -6.22038 0
M  V30 5147 H 478.916 -0.446811 -2.93923 0
M  V30 5148 H 476.449 -0.348781 -1.50409 0
M  V30 5149 H 478.407 1.95773 -3.60809 0
M  V30 5150 H 477.068 1.97782 -2.44011 0
M  V30 5151 H 476.261 1.57651 -4.78709 0
M  V30 5152 H 475.863 0.198645 -3.73472 0
M  V30 5153 H 478.155 1.58501 -6.58698 0
M  V30 5154 H 479.098 0.142592 -7.07956 0
M  V30 5155 H 479.506 0.989169 -5.55766 0
M  V30 5156 N 478.904 1.54736 -0.299062 0
M  V30 5157 C 480.32 1.59507 0.0543849 0
M  V30 5158 C 480.52 1.31606 1.52585 0
M  V30 5159 O 479.576 1.08853 2.27832 0
M  V30 5160 C 480.889 2.98751 -0.34181 0
M  V30 5161 C 482.437 3.1165 -0.290414 0
M  V30 5162 C 482.912 4.53199 -0.661402 0
M  V30 5163 N 484.403 4.59114 -0.613863 0
M  V30 5164 C 485.138 5.66709 -0.873417 0
M  V30 5165 N 484.634 6.82349 -1.19884 0
M  V30 5166 N 486.427 5.56369 -0.800608 0
M  V30 5167 H 478.578 1.71133 -1.25806 0
M  V30 5168 H 480.841 0.799186 -0.509908 0
M  V30 5169 H 480.547 3.24085 -1.36608 0
M  V30 5170 H 480.421 3.75961 0.305508 0
M  V30 5171 H 482.808 2.86066 0.724605 0
M  V30 5172 H 482.889 2.366 -0.972327 0
M  V30 5173 H 482.533 4.79513 -1.67422 0
M  V30 5174 H 482.463 5.26583 0.0425612 0
M  V30 5175 H 484.954 3.76053 -0.3732 0
M  V30 5176 H 485.267 7.60326 -1.38291 0
M  V30 5177 H 483.612 6.83906 -1.23685 0
M  V30 5178 H 486.803 4.64904 -0.546045 0
M  V30 5179 H 486.976 6.40139 -1.00626 0
M  V30 5180 N 480.382 0.0267497 1.57577 0
M  V30 5181 C 481.631 -0.651736 1.9088 0
M  V30 5182 C 481.944 -1.73427 0.904576 0
M  V30 5183 O 483.15 -2.46923 1.12877 0
M  V30 5184 C 481.606 -1.21048 3.38933 0
M  V30 5185 C 481.214 -0.161362 4.47709 0
M  V30 5186 C 482.958 -1.86562 3.81307 0
M  V30 5187 C 480.865 -0.731611 5.86857 0
M  V30 5188 H 479.795 -0.247198 0.712326 0
M  V30 5189 H 482.446 0.0916641 1.83271 0
M  V30 5190 H 480.828 -2.00542 3.41466 0
M  V30 5191 H 482.002 0.61094 4.56732 0
M  V30 5192 H 480.317 0.394877 4.14523 0
M  V30 5193 H 482.914 -2.30178 4.8262 0
M  V30 5194 H 483.257 -2.70735 3.16241 0
M  V30 5195 H 483.79 -1.13762 3.81186 0
M  V30 5196 H 480.529 0.0719329 6.55461 0
M  V30 5197 H 480.049 -1.47245 5.81445 0
M  V30 5198 H 481.728 -1.22208 6.35354 0
M  V30 5199 N 481.861 -1.55662 -0.24637 0
M  V30 5200 C 482.824 -1.89558 -1.28842 0
M  V30 5201 C 483.824 -0.772082 -1.41052 0
M  V30 5202 O 485.014 -1.04007 -1.39743 0
M  V30 5203 C 482.146 -2.12449 -2.66605 0
M  V30 5204 H 483.339 -2.82735 -1.00004 0
M  V30 5205 H 480.892 -1.48562 -0.485684 0
M  V30 5206 H 481.627 -1.21742 -3.00582 0
M  V30 5207 H 481.412 -2.94273 -2.59125 0
M  V30 5208 H 482.902 -2.39854 -3.41847 0
M  V30 5209 N 483.339 0.512053 -1.4905 0
M  V30 5210 C 484.302 1.59704 -1.64399 0
M  V30 5211 C 485.302 1.52285 -0.516317 0
M  V30 5212 O 486.492 1.55635 -0.782527 0
M  V30 5213 C 483.624 2.9935 -1.63102 0
M  V30 5214 H 484.817 1.47428 -2.61161 0
M  V30 5215 H 482.37 0.735469 -1.37915 0
M  V30 5216 H 483.105 3.17116 -0.678836 0
M  V30 5217 H 482.89 3.06144 -2.44986 0
M  V30 5218 H 484.38 3.782 -1.77072 0
M  V30 5219 N 484.817 1.37938 0.762283 0
M  V30 5220 C 486.228 1.30094 1.33912 0
M  V30 5221 C 486.579 -0.0472026 1.96143 0
M  V30 5222 O 485.704 -0.94917 1.94473 0
M  V30 5223 C 486.299 2.35592 2.43478 0
M  V30 5224 C 484.858 2.31353 2.96905 0
M  V30 5225 C 484.005 2.18919 1.70205 0
M  V30 5226 H 486.956 1.48423 0.561816 0
M  V30 5227 H 486.977 2.00806 3.23199 0
M  V30 5228 H 486.489 3.33701 1.98155 0
M  V30 5229 H 484.59 1.36799 3.46579 0
M  V30 5230 H 484.703 3.25147 3.51875 0
M  V30 5231 H 483.067 1.65624 1.93496 0
M  V30 5232 H 483.85 3.18956 1.26973 0
M  V30 5233 N 486.295 -0.989507 1.22664 0
M  V30 5234 C 487.258 -2.06183 1.00106 0
M  V30 5235 C 488.258 -1.60765 -0.0337726 0
M  V30 5236 O 489.448 -1.72989 0.205072 0
M  V30 5237 C 486.58 -3.37021 0.51279 0
M  V30 5238 H 487.773 -2.27629 1.95256 0
M  V30 5239 H 485.326 -1.16158 1.0458 0
M  V30 5240 H 486.061 -3.21261 -0.442917 0
M  V30 5241 H 485.846 -3.71323 1.25942 0
M  V30 5242 H 487.336 -4.1591 0.375315 0
M  V30 5243 N 487.773 -1.03688 -1.18687 0
M  V30 5244 C 489.019 -0.739123 -1.88851 0
M  V30 5245 C 489.352 0.731042 -1.79915 0
M  V30 5246 O 488.627 1.53313 -1.19688 0
M  V30 5247 C 488.91 -1.20106 -3.3948 0
M  V30 5248 C 488.763 -2.73304 -3.57246 0
M  V30 5249 C 490.082 -0.788134 -4.32986 0
M  V30 5250 H 487.201 -0.269978 -0.68577 0
M  V30 5251 H 489.843 -1.28822 -1.3966 0
M  V30 5252 H 487.993 -0.733915 -3.81505 0
M  V30 5253 H 489.665 -3.28027 -3.24339 0
M  V30 5254 H 487.908 -3.13313 -3.00029 0
M  V30 5255 H 488.579 -3.00684 -4.62918 0
M  V30 5256 H 491.055 -1.19005 -3.98719 0
M  V30 5257 H 489.931 -1.13915 -5.36949 0
M  V30 5258 H 490.192 0.308988 -4.41019 0
M  V30 5259 N 489.251 1.34841 -0.815825 0
M  V30 5260 C 490.498 1.98499 -0.400535 0
M  V30 5261 C 490.826 1.64699 1.03463 0
M  V30 5262 O 490.081 0.907006 1.73412 0
M  V30 5263 C 490.38 3.53273 -0.541541 0
M  V30 5264 C 490.046 4.06966 -1.94138 0
M  V30 5265 C 488.708 4.21341 -2.32433 0
M  V30 5266 C 491.06 4.35933 -2.85677 0
M  V30 5267 C 488.388 4.62007 -3.61617 0
M  V30 5268 C 490.74 4.78042 -4.14317 0
M  V30 5269 C 489.404 4.90622 -4.52599 0
M  V30 5270 H 488.674 0.72636 -0.146566 0
M  V30 5271 H 491.321 1.60902 -1.0384 0
M  V30 5272 H 489.626 3.91387 0.179741 0
M  V30 5273 H 491.323 4.00497 -0.20085 0
M  V30 5274 H 487.913 3.96235 -1.63388 0
M  V30 5275 H 492.097 4.24372 -2.57337 0
M  V30 5276 H 487.353 4.69937 -3.91113 0
M  V30 5277 H 491.527 4.99415 -4.85342 0
M  V30 5278 H 489.154 5.2189 -5.52752 0
M  V30 5279 N 490.729 0.570148 1.46925 0
M  V30 5280 C 491.976 0.0509529 2.02436 0
M  V30 5281 C 492.304 -1.30405 1.44308 0
M  V30 5282 O 491.559 -1.86493 0.593198 0
M  V30 5283 C 491.858 -0.0780336 3.57315 0
M  V30 5284 C 491.524 1.20775 4.34424 0
M  V30 5285 C 490.186 1.56004 4.5521 0
M  V30 5286 C 492.538 2.0592 4.78797 0
M  V30 5287 C 489.866 2.76201 5.17619 0
M  V30 5288 C 492.218 3.25332 5.42533 0
M  V30 5289 C 490.882 3.60859 5.61549 0
M  V30 5290 H 490.152 0.018645 0.740765 0
M  V30 5291 H 492.799 0.744262 1.76445 0
M  V30 5292 H 491.104 -0.854394 3.82371 0
M  V30 5293 H 492.801 -0.495312 3.97929 0
M  V30 5294 H 489.391 0.923469 4.18533 0
M  V30 5295 H 493.575 1.80008 4.62505 0
M  V30 5296 H 488.831 3.0388 5.30535 0
M  V30 5297 H 493.005 3.91586 5.75876 0
M  V30 5298 H 490.632 4.54088 6.09678 0
M  V30 5299 N 492.207 -1.54576 0.307264 0
M  V30 5300 C 493.154 -2.23751 -0.56604 0
M  V30 5301 C 494.124 -1.22235 -1.12462 0
M  V30 5302 O 495.309 -1.50873 -1.16799 0
M  V30 5303 C 492.449 -2.98661 -1.72903 0
M  V30 5304 C 491.562 -4.14963 -1.20124 0
M  V30 5305 C 490.697 -4.77441 -2.3286 0
M  V30 5306 C 489.736 -5.85875 -1.77247 0
M  V30 5307 N 488.873 -6.42282 -2.8358 0
M  V30 5308 H 493.713 -2.97984 0.0304578 0
M  V30 5309 H 491.25 -1.47076 0.0268015 0
M  V30 5310 H 493.208 -3.40329 -2.41313 0
M  V30 5311 H 491.838 -2.26793 -2.29706 0
M  V30 5312 H 490.89 -3.78193 -0.409198 0
M  V30 5313 H 492.202 -4.93066 -0.754171 0
M  V30 5314 H 491.356 -5.21993 -3.09205 0
M  V30 5315 H 490.095 -3.98684 -2.80896 0
M  V30 5316 H 489.1 -5.40741 -0.993926 0
M  V30 5317 H 490.325 -6.6652 -1.30107 0
M  V30 5318 H 488.271 -5.66406 -3.30939 0
M  V30 5319 H 488.188 -7.1575 -2.43388 0
M  V30 5320 H 489.456 -6.91492 -3.59804 0
M  V30 5321 N 493.685 -0.035106 -1.57561 0
M  V30 5322 C 494.91 0.655802 -1.96759 0
M  V30 5323 C 495.335 1.64523 -0.911809 0
M  V30 5324 O 494.693 1.80857 0.126673 0
M  V30 5325 C 494.741 1.33326 -3.35047 0
M  V30 5326 O 493.845 2.44866 -3.31835 0
M  V30 5327 H 493.186 0.171807 -0.641388 0
M  V30 5328 H 495.716 -0.0987369 -2.04362 0
M  V30 5329 H 495.726 1.68867 -3.71413 0
M  V30 5330 H 494.401 0.608033 -4.11431 0
M  V30 5331 H 492.978 2.11392 -3.07193 0
M  V30 5332 N 495.163 1.55791 0.238111 0
M  V30 5333 C 496.073 1.94196 1.31625 0
M  V30 5334 C 497.089 0.843545 1.52185 0
M  V30 5335 O 498.265 1.1457 1.65637 0
M  V30 5336 C 495.33 2.2365 2.64918 0
M  V30 5337 C 494.391 3.46971 2.52804 0
M  V30 5338 C 493.624 3.7501 3.79741 0
M  V30 5339 O 493.847 3.04982 4.82019 0
M  V30 5340 O 492.781 4.68525 3.77846 0
M  V30 5341 H 496.607 2.86044 1.02043 0
M  V30 5342 H 494.192 1.42786 0.439603 0
M  V30 5343 H 496.074 2.43863 3.4367 0
M  V30 5344 H 494.749 1.34979 2.94215 0
M  V30 5345 H 493.656 3.32055 1.72309 0
M  V30 5346 H 494.989 4.35971 2.28451 0
M  V30 5347 N 496.642 -0.504142 1.49319 0
M  V30 5348 C 497.605 -1.5883 1.65244 0
M  V30 5349 C 498.605 -1.52009 0.524386 0
M  V30 5350 O 499.795 -1.55218 0.79077 0
M  V30 5351 C 496.927 -2.98481 1.64687 0
M  V30 5352 H 498.12 -1.4604 2.61939 0
M  V30 5353 H 495.673 -0.728144 1.38303 0
M  V30 5354 H 496.408 -3.16751 0.695644 0
M  V30 5355 H 496.193 -3.0484 2.46607 0
M  V30 5356 H 497.683 -3.77256 1.79075 0
M  V30 5357 N 498.12 -1.38341 -0.754957 0
M  V30 5358 C 499.369 -1.33791 -1.5094 0
M  V30 5359 C 499.682 0.0699267 -1.95475 0
M  V30 5360 O 500.888 0.237956 -2.70455 0
M  V30 5361 C 499.344 -2.34934 -2.72643 0
M  V30 5362 C 498.952 -3.81332 -2.35138 0
M  V30 5363 C 500.696 -2.39425 -3.50536 0
M  V30 5364 C 498.603 -4.74164 -3.53444 0
M  V30 5365 H 497.533 -0.497314 -0.566741 0
M  V30 5366 H 500.184 -1.63888 -0.825403 0
M  V30 5367 H 498.566 -1.97878 -3.43017 0
M  V30 5368 H 499.74 -4.27319 -1.7244 0
M  V30 5369 H 498.055 -3.79946 -1.70382 0
M  V30 5370 H 500.652 -3.0598 -4.38498 0
M  V30 5371 H 500.995 -1.41278 -3.91594 0
M  V30 5372 H 501.528 -2.75274 -2.87174 0
M  V30 5373 H 498.267 -5.73501 -3.17453 0
M  V30 5374 H 497.787 -4.3287 -4.15191 0
M  V30 5375 H 499.466 -4.92111 -4.20043 0
M  V30 5376 N 499.598 0.982988 -1.23187 0
M  V30 5377 C 500.844 1.72648 -1.06398 0
M  V30 5378 C 501.177 1.90066 0.398561 0
M  V30 5379 O 500.452 1.45105 1.29518 0
M  V30 5380 C 500.735 3.12627 -1.78707 0
M  V30 5381 C 500.588 3.02795 -3.32618 0
M  V30 5382 C 501.907 4.11997 -1.54747 0
M  V30 5383 H 499.026 0.626649 -0.387918 0
M  V30 5384 H 501.668 1.14455 -1.51658 0
M  V30 5385 H 499.818 3.62308 -1.40234 0
M  V30 5386 H 501.49 2.60659 -3.80598 0
M  V30 5387 H 499.733 2.39362 -3.61785 0
M  V30 5388 H 500.404 4.01893 -3.78399 0
M  V30 5389 H 502.88 3.71114 -1.88186 0
M  V30 5390 H 501.756 5.08037 -2.07821 0
M  V30 5391 H 502.017 4.39462 -0.482249 0
M  V30 5392 N 501.076 1.04316 1.18135 0
M  V30 5393 C 502.026 0.606731 2.19779 0
M  V30 5394 C 503.01 -0.352144 1.56999 0
M  V30 5395 O 504.202 -0.170795 1.76174 0
M  V30 5396 C 501.331 -0.0262443 3.4329 0
M  V30 5397 C 500.417 0.955928 4.13186 0
M  V30 5398 N 500.808 2.12395 4.59045 0
M  V30 5399 C 499.106 0.782473 4.39082 0
M  V30 5400 C 499.807 2.74458 5.12882 0
M  V30 5401 N 498.783 2.02316 5.04548 0
M  V30 5402 H 502.585 1.49679 2.5293 0
M  V30 5403 H 500.099 0.912088 1.34368 0
M  V30 5404 H 502.096 -0.356617 4.15372 0
M  V30 5405 H 500.756 -0.911811 3.11635 0
M  V30 5406 H 501.767 2.50272 4.53414 0
M  V30 5407 H 498.444 -0.0527906 4.17467 0
M  V30 5408 H 499.834 3.73459 5.5855 0
M  V30 5409 N 502.554 -1.34406 0.822964 0
M  V30 5410 C 503.965 -1.8069 0.469879 0
M  V30 5411 C 504.316 -1.68223 -1.00972 0
M  V30 5412 O 503.441 -1.22226 -1.78577 0
M  V30 5413 C 504.036 -3.28064 0.846118 0
M  V30 5414 C 502.595 -3.72428 0.545402 0
M  V30 5415 C 501.742 -2.56116 1.06301 0
M  V30 5416 H 504.693 -1.22153 1.01313 0
M  V30 5417 H 504.714 -3.80205 0.149922 0
M  V30 5418 H 504.226 -3.37107 1.92304 0
M  V30 5419 H 502.327 -3.68924 -0.522109 0
M  V30 5420 H 502.44 -4.66548 1.0895 0
M  V30 5421 H 500.804 -2.50048 0.484554 0
M  V30 5422 H 501.587 -2.67928 2.14638 0
M  V30 5423 N 504.032 -0.577932 -1.46621 0
M  V30 5424 C 505.309 0.00495287 -1.95599 0
M  V30 5425 C 505.689 1.46428 -1.5206 0
M  V30 5426 O 505.037 2.1517 -0.769046 0
M  V30 5427 C 505.247 -0.162114 -3.48623 0
M  V30 5428 C 506.595 -0.0274623 -4.24591 0
M  V30 5429 O 507.619 -0.0907067 -3.56084 0
M  V30 5430 O 506.478 0.1122 -5.46385 0
M  V30 5431 H 503.572 0.0525057 -0.825332 0
M  V30 5432 H 506.118 -0.645914 -1.56927 0
M  V30 5433 H 504.89 -1.17679 -3.73185 0
M  V30 5434 H 504.513 0.525407 -3.94113 0
M  V30 5435 N 505.51 1.54411 -0.315457 0
M  V30 5436 C 506.442 2.21527 0.588067 0
M  V30 5437 C 507.455 1.21263 1.08624 0
M  V30 5438 O 508.644 1.47777 1.00121 0
M  V30 5439 C 505.744 2.85963 1.81875 0
M  V30 5440 C 504.917 4.12291 1.46063 0
M  V30 5441 C 503.976 4.60396 2.54799 0
M  V30 5442 O 503.002 5.25265 2.19283 0
M  V30 5443 N 504.204 4.33935 3.85591 0
M  V30 5444 H 506.969 2.99697 0.013414 0
M  V30 5445 H 504.53 1.61308 -0.138295 0
M  V30 5446 H 506.522 3.15071 2.53993 0
M  V30 5447 H 505.092 2.11548 2.30144 0
M  V30 5448 H 504.312 3.90036 0.571445 0
M  V30 5449 H 505.6 4.9452 1.19695 0
M  V30 5450 H 504.998 3.81996 4.17248 0
M  V30 5451 H 503.555 4.67718 4.53964 0
M  V30 5452 N 506.988 0.0434614 1.5754 0
M  V30 5453 C 508.234 -0.632971 1.92669 0
M  V30 5454 C 508.567 -1.70947 0.921446 0
M  V30 5455 O 507.842 -1.94426 -0.0537202 0
M  V30 5456 C 508.125 -1.23619 3.38216 0
M  V30 5457 C 507.978 -0.168274 4.49485 0
M  V30 5458 C 509.297 -2.15008 3.84005 0
M  V30 5459 H 506.416 -0.228629 0.700641 0
M  V30 5460 H 509.058 0.103651 1.89717 0
M  V30 5461 H 507.208 -1.864 3.40863 0
M  V30 5462 H 508.88 0.463196 4.58969 0
M  V30 5463 H 507.123 0.504581 4.30855 0
M  V30 5464 H 507.794 -0.630218 5.48391 0
M  V30 5465 H 510.27 -1.62198 3.83185 0
M  V30 5466 H 509.146 -2.54161 4.86511 0
M  V30 5467 H 509.407 -3.04707 3.20322 0
M  V30 5468 N 508.466 -1.55915 -0.229846 0
M  V30 5469 C 509.712 -1.78807 -0.956868 0
M  V30 5470 C 510.045 -0.611687 -1.84315 0
M  V30 5471 O 509.32 0.389398 -1.90562 0
M  V30 5472 C 509.603 -3.11718 -1.80288 0
M  V30 5473 C 509.456 -4.3979 -0.943649 0
M  V30 5474 C 510.775 -3.40999 -2.78222 0
M  V30 5475 H 507.894 -0.6505 -0.346437 0
M  V30 5476 H 510.536 -1.88648 -0.226252 0
M  V30 5477 H 508.686 -3.03459 -2.42579 0
M  V30 5478 H 510.358 -4.60059 -0.338121 0
M  V30 5479 H 508.601 -4.33086 -0.248705 0
M  V30 5480 H 509.272 -5.29208 -1.5698 0
M  V30 5481 H 511.748 -3.49332 -2.26067 0
M  V30 5482 H 510.624 -4.35183 -3.34526 0
M  V30 5483 H 510.885 -2.62754 -3.55546 0
M  V30 5484 N 509.944 0.496216 -1.49584 0
M  V30 5485 C 510.876 1.61404 -1.62731 0
M  V30 5486 C 511.889 1.54613 -0.50978 0
M  V30 5487 O 513.078 1.60458 -0.782017 0
M  V30 5488 C 510.178 3.00212 -1.57245 0
M  V30 5489 C 509.351 3.32138 -2.84611 0
M  V30 5490 C 508.41 4.5038 -2.72112 0
M  V30 5491 O 507.436 4.51926 -3.46051 0
M  V30 5492 N 508.638 5.50575 -1.83977 0
M  V30 5493 H 511.403 1.50552 -2.59141 0
M  V30 5494 H 508.964 0.684182 -1.46733 0
M  V30 5495 H 510.956 3.77241 -1.4653 0
M  V30 5496 H 509.526 3.04964 -0.686729 0
M  V30 5497 H 508.746 2.4396 -3.09641 0
M  V30 5498 H 510.034 3.50268 -3.69039 0
M  V30 5499 H 509.432 5.52128 -1.23171 0
M  V30 5500 H 507.989 6.26687 -1.79182 0
M  V30 5501 N 511.423 1.38739 0.74761 0
M  V30 5502 C 512.653 1.3832 1.53464 0
M  V30 5503 C 513.061 -0.0273464 1.8918 0
M  V30 5504 O 512.404 -1.00588 1.53713 0
M  V30 5505 C 512.466 2.18007 2.85855 0
M  V30 5506 C 512.13 3.66762 2.72644 0
M  V30 5507 C 513.127 4.60124 2.42037 0
M  V30 5508 C 510.812 4.10193 2.89909 0
M  V30 5509 C 512.806 5.94897 2.28859 0
M  V30 5510 C 510.493 5.45045 2.7635 0
M  V30 5511 C 511.491 6.37211 2.45869 0
M  V30 5512 O 511.179 7.69581 2.3238 0
M  V30 5513 H 510.911 0.474718 0.481268 0
M  V30 5514 H 513.465 1.83012 0.932518 0
M  V30 5515 H 511.695 1.68043 3.48279 0
M  V30 5516 H 513.384 2.09921 3.47402 0
M  V30 5517 H 514.15 4.27874 2.28361 0
M  V30 5518 H 510.029 3.38797 3.1263 0
M  V30 5519 H 513.573 6.66802 2.04989 0
M  V30 5520 H 509.47 5.76889 2.89601 0
M  V30 5521 H 510.238 7.80169 2.47546 0
M  V30 5522 N 512.901 -0.976442 1.23707 0
M  V30 5523 C 514.15 -1.71254 1.06559 0
M  V30 5524 C 514.463 -1.91528 -0.397024 0
M  V30 5525 O 515.669 -2.62625 -0.688518 0
M  V30 5526 C 514.125 -3.08207 1.8584 0
M  V30 5527 C 513.733 -2.95806 3.36456 0
M  V30 5528 C 515.477 -3.85749 1.77194 0
M  V30 5529 C 513.384 -4.28015 4.08114 0
M  V30 5530 H 512.314 -0.642171 0.395136 0
M  V30 5531 H 514.965 -1.08877 1.4771 0
M  V30 5532 H 513.347 -3.71363 1.37498 0
M  V30 5533 H 514.521 -2.41716 3.92314 0
M  V30 5534 H 512.836 -2.31736 3.45959 0
M  V30 5535 H 515.433 -4.83633 2.28041 0
M  V30 5536 H 515.776 -4.09752 0.735477 0
M  V30 5537 H 516.309 -3.29303 2.23169 0
M  V30 5538 H 513.048 -4.09208 5.12083 0
M  V30 5539 H 512.568 -4.81955 3.57043 0
M  V30 5540 H 514.247 -4.96681 4.14629 0
M  V30 5541 N 514.379 -1.04941 -1.1758 0
M  V30 5542 C 515.627 -0.756492 -1.87408 0
M  V30 5543 C 515.948 0.718478 -1.81281 0
M  V30 5544 O 515.218 1.519 -1.23706 0
M  V30 5545 H 513.798 -0.276841 -0.693807 0
M  V30 5546 H 516.46 -1.32803 -1.42652 0
M  V30 5547 H 515.556 -1.06918 -2.93215 0
M  V30 5548 N 515.857 1.33968 -0.830081 0
M  V30 5549 C 516.789 2.28194 -0.21448 0
M  V30 5550 C 517.802 1.5135 0.599752 0
M  V30 5551 O 518.991 1.73286 0.42826 0
M  V30 5552 C 516.091 3.31221 0.717356 0
M  V30 5553 C 515.264 4.37365 -0.055613 0
M  V30 5554 C 514.323 5.2011 0.798231 0
M  V30 5555 O 513.349 5.68691 0.240616 0
M  V30 5556 N 514.551 5.40523 2.11695 0
M  V30 5557 H 517.316 2.81662 -1.02405 0
M  V30 5558 H 514.877 1.46568 -0.687713 0
M  V30 5559 H 516.869 3.83477 1.29334 0
M  V30 5560 H 515.439 2.78095 1.42765 0
M  V30 5561 H 514.659 3.85727 -0.812936 0
M  V30 5562 H 515.947 5.05397 -0.587444 0
M  V30 5563 H 515.345 5.0274 2.59363 0
M  V30 5564 H 513.902 5.95871 2.64162 0
M  V30 5565 N 517.335 0.585699 1.46312 0
M  V30 5566 C 518.612 0.00542031 1.95599 0
M  V30 5567 C 518.992 -1.45619 1.52834 0
M  V30 5568 O 518.34 -2.14759 0.780446 0
M  V30 5569 C 518.55 0.180601 3.48532 0
M  V30 5570 C 519.898 0.049979 4.24571 0
M  V30 5571 O 520.922 0.109589 3.56031 0
M  V30 5572 O 519.781 -0.0832226 5.46437 0
M  V30 5573 H 516.875 -0.0481281 0.825598 0
M  V30 5574 H 519.421 0.654227 1.56582 0
M  V30 5575 H 518.193 1.19657 3.72556 0
M  V30 5576 H 517.816 -0.504498 3.94386 0
M  V30 5577 N 518.813 -1.54241 0.323641 0
M  V30 5578 C 519.723 -2.28033 -0.551205 0
M  V30 5579 C 520.739 -1.32388 -1.12913 0
M  V30 5580 O 521.915 -1.65403 -1.14908 0
M  V30 5581 C 518.98 -3.02382 -1.69606 0
M  V30 5582 C 518.041 -4.13612 -1.14993 0
M  V30 5583 C 517.274 -4.84407 -2.24022 0
M  V30 5584 O 517.497 -4.54716 -3.44368 0
M  V30 5585 O 516.431 -5.71312 -1.89436 0
M  V30 5586 H 520.257 -3.03662 0.048066 0
M  V30 5587 H 517.842 -1.49133 0.0893289 0
M  V30 5588 H 519.724 -3.48941 -2.36259 0
M  V30 5589 H 518.399 -2.29628 -2.28151 0
M  V30 5590 H 517.306 -3.71402 -0.448484 0
M  V30 5591 H 518.639 -4.8841 -0.609608 0
M  V30 5592 N 520.291 -0.0518155 -1.57515 0
M  V30 5593 C 521.531 0.625712 -1.94587 0
M  V30 5594 C 521.895 1.6797 -0.930053 0
M  V30 5595 O 523.096 2.41135 -1.18774 0
M  V30 5596 C 521.367 1.20574 -3.36447 0
M  V30 5597 S 522.926 1.90118 -3.95475 0
M  V30 5598 H 519.744 0.205434 -0.680675 0
M  V30 5599 H 522.346 -0.120906 -1.95126 0
M  V30 5600 H 521.05 0.426521 -4.08178 0
M  V30 5601 H 520.581 1.98916 -3.39405 0
M  V30 5602 H 522.596 3.18184 -3.80753 0
M  V30 5603 N 521.769 1.56035 0.221574 0
M  V30 5604 C 522.701 1.889 1.29805 0
M  V30 5605 C 523.714 0.777269 1.43047 0
M  V30 5606 O 524.903 1.05557 1.43945 0
M  V30 5607 C 522.003 2.0825 2.67367 0
M  V30 5608 C 521.176 3.39267 2.76073 0
M  V30 5609 C 520.235 3.48049 3.94649 0
M  V30 5610 O 519.261 4.2108 3.82988 0
M  V30 5611 N 520.463 2.79191 5.08953 0
M  V30 5612 H 523.228 2.81831 1.01938 0
M  V30 5613 H 520.789 1.5658 0.411612 0
M  V30 5614 H 522.781 2.11441 3.45072 0
M  V30 5615 H 521.351 1.21944 2.87834 0
M  V30 5616 H 520.571 3.48175 1.84846 0
M  V30 5617 H 521.859 4.25575 2.7886 0
M  V30 5618 H 521.257 2.19635 5.21322 0
M  V30 5619 H 519.814 2.88043 5.84701 0
M  V30 5620 N 523.247 -0.488276 1.49845 0
M  V30 5621 C 524.496 -1.23826 1.59217 0
M  V30 5622 C 524.809 -1.93439 0.289966 0
M  V30 5623 O 526.015 -2.70229 0.262382 0
M  V30 5624 C 524.471 -2.24902 2.80976 0
M  V30 5625 C 524.079 -1.6117 4.18005 0
M  V30 5626 C 525.823 -3.00648 2.99685 0
M  V30 5627 C 523.73 -2.60431 5.3097 0
M  V30 5628 H 522.66 -0.465858 0.592868 0
M  V30 5629 H 525.311 -0.510645 1.76252 0
M  V30 5630 H 523.693 -3.0088 2.57463 0
M  V30 5631 H 524.867 -0.910968 4.51706 0
M  V30 5632 H 523.182 -0.97767 4.0476 0
M  V30 5633 H 525.779 -3.74903 3.81251 0
M  V30 5634 H 526.122 -3.5902 2.10738 0
M  V30 5635 H 526.655 -2.31784 3.23297 0
M  V30 5636 H 523.394 -2.06823 6.22017 0
M  V30 5637 H 522.914 -3.28707 5.01709 0
M  V30 5638 H 524.593 -3.22606 5.60834 0
M  V30 5639 N 524.725 -1.39134 -0.740242 0
M  V30 5640 C 525.973 -1.35803 -1.49673 0
M  V30 5641 C 526.294 0.0470897 -1.94943 0
M  V30 5642 O 525.564 0.997347 -1.68611 0
M  V30 5643 H 524.144 -0.499736 -0.555224 0
M  V30 5644 H 526.806 -1.73947 -0.879107 0
M  V30 5645 H 525.902 -2.0174 -2.38133 0
M  V30 5646 N 526.204 0.969867 -1.24223 0
M  V30 5647 C 527.434 1.74502 -1.106 0
M  V30 5648 C 527.842 1.86038 0.344483 0
M  V30 5649 O 527.185 1.3465 1.24961 0
M  V30 5650 C 527.247 3.18391 -1.66935 0
M  V30 5651 C 526.911 3.30334 -3.15798 0
M  V30 5652 C 527.908 3.15832 -4.12973 0
M  V30 5653 C 525.593 3.54644 -3.55715 0
M  V30 5654 C 527.587 3.25461 -5.48045 0
M  V30 5655 C 525.274 3.63912 -4.90929 0
M  V30 5656 C 526.272 3.49332 -5.86904 0
M  V30 5657 O 525.96 3.58251 -7.1966 0
M  V30 5658 H 525.692 0.554119 -0.387206 0
M  V30 5659 H 528.246 1.22646 -1.64764 0
M  V30 5660 H 526.476 3.71543 -1.07203 0
M  V30 5661 H 528.165 3.77707 -1.48634 0
M  V30 5662 H 528.931 2.96937 -3.83476 0
M  V30 5663 H 524.81 3.65059 -2.81519 0
M  V30 5664 H 528.354 3.13998 -6.22937 0
M  V30 5665 H 524.251 3.82319 -5.20098 0
M  V30 5666 H 525.019 3.7498 -7.27552 0
M  V30 5667 N 527.682 1.05563 1.17022 0
M  V30 5668 C 528.63 0.653887 2.2322 0
M  V30 5669 C 529.624 -0.326642 1.66221 0
M  V30 5670 O 530.83 -0.192301 1.7897 0
M  V30 5671 H 527.205 0.193297 0.726733 0
M  V30 5672 H 529.176 1.5596 2.54399 0
M  V30 5673 C 527.925 0.0485434 3.47666 0
M  V30 5674 H 527.248 0.79413 3.91834 0
M  V30 5675 H 528.688 -0.195133 4.23551 0
M  V30 5676 C 527.147 -1.20583 3.14581 0
M  V30 5677 O 527.677 -2.29475 3.29703 0
M  V30 5678 N 525.883 -1.10493 2.68774 0
M  V30 5679 H 525.43 -0.218795 2.56669 0
M  V30 5680 H 525.388 -1.94507 2.47011 0
M  V30 5681 N 529.16 -1.33526 0.837174 0
M  V30 5682 C 530.571 -1.80182 0.489017 0
M  V30 5683 C 530.922 -1.69285 -0.991826 0
M  V30 5684 O 530.047 -1.24113 -1.77271 0
M  V30 5685 C 530.642 -3.27149 0.880866 0
M  V30 5686 C 529.201 -3.71828 0.584872 0
M  V30 5687 C 528.348 -2.54974 1.09011 0
M  V30 5688 H 531.299 -1.21071 1.02603 0
M  V30 5689 H 531.32 -3.80024 0.190239 0
M  V30 5690 H 530.832 -3.35048 1.95869 0
M  V30 5691 H 528.933 -3.69457 -0.48295 0
M  V30 5692 H 529.046 -4.65366 1.13892 0
M  V30 5693 H 527.41 -2.4952 0.511047 0
M  V30 5694 H 528.193 -2.65637 2.17467 0
M  V30 5695 N 530.638 -0.59345 -1.46 0
M  V30 5696 C 531.568 0.121192 -2.33185 0
M  V30 5697 C 532.549 0.872977 -1.4599 0
M  V30 5698 O 533.734 0.846321 -1.74789 0
M  V30 5699 C 530.864 1.12844 -3.28456 0
M  V30 5700 C 529.818 0.4908 -4.25177 0
M  V30 5701 C 529.144 1.60529 -5.10034 0
M  V30 5702 C 530.444 -0.578949 -5.19081 0
M  V30 5703 H 532.138 -0.606767 -2.93187 0
M  V30 5704 H 529.684 -0.293242 -1.40983 0
M  V30 5705 H 531.637 1.63684 -3.88311 0
M  V30 5706 H 530.361 1.88681 -2.66584 0
M  V30 5707 H 529.02 0.00339328 -3.666 0
M  V30 5708 H 528.668 2.35359 -4.44539 0
M  V30 5709 H 528.368 1.18422 -5.75543 0
M  V30 5710 H 529.892 2.11623 -5.72755 0
M  V30 5711 H 531.306 -0.155199 -5.7309 0
M  V30 5712 H 529.703 -0.920947 -5.92991 0
M  V30 5713 H 530.773 -1.46109 -4.62364 0
M  V30 5714 N 532.116 1.54067 -0.331816 0
M  V30 5715 C 533.048 2.22139 0.564538 0
M  V30 5716 C 534.061 1.22408 1.07332 0
M  V30 5717 O 535.25 1.4883 0.985481 0
M  V30 5718 C 532.35 2.87876 1.78831 0
M  V30 5719 C 531.523 4.13817 1.41682 0
M  V30 5720 C 530.582 4.63072 2.49901 0
M  V30 5721 O 529.608 5.27562 2.13699 0
M  V30 5722 N 530.81 4.38001 3.80967 0
M  V30 5723 H 533.575 2.99694 -0.0183736 0
M  V30 5724 H 531.136 1.61153 -0.155396 0
M  V30 5725 H 533.128 3.17747 2.50637 0
M  V30 5726 H 531.698 2.13977 2.27887 0
M  V30 5727 H 530.918 3.9062 0.530044 0
M  V30 5728 H 532.206 4.95762 1.14443 0
M  V30 5729 H 531.604 3.864 4.13173 0
M  V30 5730 H 530.161 4.72507 4.48977 0
M  V30 5731 N 533.594 0.0601682 1.57485 0
M  V30 5732 C 534.527 -0.94676 2.07634 0
M  V30 5733 C 535.505 -1.29837 0.978826 0
M  V30 5734 O 536.689 -1.40969 1.2514 0
M  V30 5735 C 533.816 -2.25822 2.52433 0
M  V30 5736 C 532.862 -2.05901 3.73507 0
M  V30 5737 S 533.695 -1.32907 5.18745 0
M  V30 5738 C 534.851 -2.65356 5.66866 0
M  V30 5739 H 535.084 -0.520003 2.92717 0
M  V30 5740 H 532.617 -0.152319 1.53647 0
M  V30 5741 H 534.575 -3.01201 2.78905 0
M  V30 5742 H 533.236 -2.65624 1.67639 0
M  V30 5743 H 532.429 -3.02929 4.02803 0
M  V30 5744 H 532.031 -1.38659 3.47347 0
M  V30 5745 H 534.323 -3.61492 5.73001 0
M  V30 5746 H 535.266 -2.40685 6.6594 0
M  V30 5747 H 535.674 -2.72028 4.94632 0
M  V30 5748 N 535.072 -1.5615 -0.213296 0
M  V30 5749 C 536.035 -1.92249 -1.24792 0
M  V30 5750 C 537.035 -0.801828 -1.39382 0
M  V30 5751 O 538.225 -1.06948 -1.37506 0
M  V30 5752 C 535.357 -2.18056 -2.62039 0
M  V30 5753 H 536.55 -2.84793 -0.939845 0
M  V30 5754 H 534.103 -1.49559 -0.454062 0
M  V30 5755 H 534.838 -1.2809 -2.97932 0
M  V30 5756 H 534.623 -2.99703 -2.52825 0
M  V30 5757 H 536.113 -2.47051 -3.36683 0
M  V30 5758 N 536.55 0.480323 -1.50102 0
M  V30 5759 C 537.48 1.58769 -1.71215 0
M  V30 5760 C 538.461 1.60583 -0.560997 0
M  V30 5761 O 539.646 1.76996 -0.799127 0
M  V30 5762 C 536.776 2.97148 -1.79778 0
M  V30 5763 C 535.73 3.10201 -2.94888 0
M  V30 5764 C 535.056 4.50137 -2.88584 0
M  V30 5765 C 536.356 2.88283 -4.35534 0
M  V30 5766 H 538.05 1.41354 -2.6393 0
M  V30 5767 H 535.596 0.678591 -1.27008 0
M  V30 5768 H 537.549 3.74536 -1.93133 0
M  V30 5769 H 536.273 3.15699 -0.836772 0
M  V30 5770 H 534.932 2.35244 -2.81169 0
M  V30 5771 H 534.58 4.65593 -1.90349 0
M  V30 5772 H 534.28 4.59808 -3.65856 0
M  V30 5773 H 535.804 5.29558 -3.03976 0
M  V30 5774 H 537.218 3.55427 -4.49827 0
M  V30 5775 H 535.615 3.09408 -5.14186 0
M  V30 5776 H 536.685 1.84219 -4.48544 0
M  V30 5777 N 538.028 1.39524 0.732853 0
M  V30 5778 C 538.958 1.41153 1.86005 0
M  V30 5779 C 539.939 0.274614 1.67869 0
M  V30 5780 O 541.124 0.480745 1.88155 0
M  V30 5781 C 538.254 1.25638 3.23778 0
M  V30 5782 C 537.208 2.36752 3.56556 0
M  V30 5783 C 536.534 2.06326 4.93289 0
M  V30 5784 C 537.834 3.79069 3.5931 0
M  V30 5785 H 539.528 2.35484 1.84899 0
M  V30 5786 H 537.074 1.13348 0.888162 0
M  V30 5787 H 539.027 1.25398 4.0231 0
M  V30 5788 H 537.751 0.277772 3.25417 0
M  V30 5789 H 536.41 2.36213 2.80355 0
M  V30 5790 H 536.058 1.06897 4.9151 0
M  V30 5791 H 535.758 2.80757 5.16187 0
M  V30 5792 H 537.282 2.07739 5.74175 0
M  V30 5793 H 538.696 3.81526 4.27914 0
M  V30 5794 H 537.093 4.52878 3.93728 0
M  V30 5795 H 538.163 4.09893 2.59068 0
M  V30 5796 N 539.506 -0.963266 1.24736 0
M  V30 5797 C 540.752 -1.71 1.10139 0
M  V30 5798 C 541.107 -1.89089 -0.35541 0
M  V30 5799 O 540.4 -1.44451 -1.25875 0
M  V30 5800 C 540.594 -3.09944 1.7796 0
M  V30 5801 C 540.423 -3.05408 3.30085 0
M  V30 5802 C 539.193 -3.09643 3.99311 0
M  V30 5803 C 541.391 -2.87241 4.26611 0
M  V30 5804 N 539.373 -2.95174 5.3828 0
M  V30 5805 C 540.744 -2.81114 5.52607 0
M  V30 5806 C 542.799 -2.71856 4.17132 0
M  V30 5807 C 541.502 -2.61174 6.70209 0
M  V30 5808 C 543.528 -2.53284 5.34417 0
M  V30 5809 C 542.89 -2.4787 6.59348 0
M  V30 5810 H 538.989 -0.634078 0.457678 0
M  V30 5811 H 541.573 -1.14169 1.57713 0
M  V30 5812 H 539.744 -3.64958 1.32893 0
M  V30 5813 H 541.476 -3.73348 1.56183 0
M  V30 5814 H 538.231 -3.18498 3.50508 0
M  V30 5815 H 538.655 -2.91168 6.11188 0
M  V30 5816 H 543.297 -2.74821 3.21299 0
M  V30 5817 H 541.015 -2.56952 7.6616 0
M  V30 5818 H 544.601 -2.42317 5.28936 0
M  V30 5819 H 543.481 -2.33685 7.48573 0
M  V30 5820 N 540.985 -1.06182 -1.16461 0
M  V30 5821 C 541.933 -0.665716 -2.2287 0
M  V30 5822 C 542.927 0.317822 -1.66392 0
M  V30 5823 O 544.133 0.182807 -1.79069 0
M  V30 5824 H 540.508 -0.197148 -0.725697 0
M  V30 5825 H 542.479 -1.57307 -2.53569 0
M  V30 5826 C 541.228 -0.0669803 -3.47635 0
M  V30 5827 H 540.551 -0.814899 -3.91407 0
M  V30 5828 H 541.991 0.172669 -4.23648 0
M  V30 5829 C 540.45 1.18913 -3.15216 0
M  V30 5830 O 540.98 2.27723 -3.30916 0
M  V30 5831 N 539.186 1.09066 -2.69357 0
M  V30 5832 H 538.733 0.20518 -2.56782 0
M  V30 5833 H 538.691 1.93195 -2.48039 0
M  V30 5834 N 542.463 1.3308 -0.844243 0
M  V30 5835 C 543.691 2.01808 -0.456203 0
M  V30 5836 C 544.106 1.63498 0.944131 0
M  V30 5837 O 543.463 0.85102 1.61443 0
M  V30 5838 C 543.514 3.56922 -0.573513 0
M  V30 5839 O 543.235 3.93851 -1.91868 0
M  V30 5840 C 544.736 4.42922 -0.183125 0
M  V30 5841 H 541.956 0.646273 -0.180477 0
M  V30 5842 H 544.5 1.69891 -1.1383 0
M  V30 5843 H 542.655 3.87352 0.0607367 0
M  V30 5844 H 543.069 4.88564 -1.90802 0
M  V30 5845 H 544.543 5.51093 -0.316241 0
M  V30 5846 H 545.02 4.30386 0.875477 0
M  V30 5847 H 545.626 4.1786 -0.792027 0
M  V30 5848 N 543.941 0.601185 1.45683 0
M  V30 5849 C 544.871 -0.108824 2.33246 0
M  V30 5850 C 545.852 -0.865223 1.46451 0
M  V30 5851 O 547.037 -0.83704 1.75235 0
M  V30 5852 C 544.167 -1.11101 3.2905 0
M  V30 5853 C 543.121 -0.468244 4.25431 0
M  V30 5854 C 542.447 -1.57822 5.10878 0
M  V30 5855 C 543.747 0.606469 5.18767 0
M  V30 5856 H 545.441 0.622306 2.92861 0
M  V30 5857 H 542.987 0.300714 1.40825 0
M  V30 5858 H 544.94 -1.61622 3.89174 0
M  V30 5859 H 543.664 -1.87265 2.67581 0
M  V30 5860 H 542.323 0.0160484 3.66596 0
M  V30 5861 H 541.971 -2.32998 4.45781 0
M  V30 5862 H 541.671 -1.15369 5.76163 0
M  V30 5863 H 543.195 -2.08583 5.73869 0
M  V30 5864 H 544.609 0.185589 5.73 0
M  V30 5865 H 543.006 0.952381 5.92494 0
M  V30 5866 H 544.076 1.48559 4.61582 0
M  V30 5867 N 545.419 -1.53889 0.339982 0
M  V30 5868 C 546.382 -2.23547 -0.50592 0
M  V30 5869 C 547.382 -1.23445 -1.03044 0
M  V30 5870 O 548.572 -1.47909 -0.920253 0
M  V30 5871 C 545.704 -2.95234 -1.7044 0
M  V30 5872 H 546.897 -2.99722 0.103247 0
M  V30 5873 H 544.45 -1.56033 0.0912804 0
M  V30 5874 H 545.185 -2.23236 -2.35236 0
M  V30 5875 H 544.97 -3.68654 -1.33553 0
M  V30 5876 H 546.46 -3.48258 -2.30447 0
M  V30 5877 N 546.897 -0.0685191 -1.57451 0
M  V30 5878 C 548.125 0.610462 -1.97689 0
M  V30 5879 C 548.54 1.63346 -0.946758 0
M  V30 5880 O 547.897 1.82377 0.0669868 0
M  V30 5881 C 547.948 1.28196 -3.38006 0
M  V30 5882 O 547.669 0.299906 -4.37072 0
M  V30 5883 C 549.17 2.04907 -3.931 0
M  V30 5884 H 546.39 0.165689 -0.650222 0
M  V30 5885 H 548.934 -0.139953 -2.04021 0
M  V30 5886 H 547.089 1.98348 -3.32771 0
M  V30 5887 H 547.503 0.78126 -5.18649 0
M  V30 5888 H 548.977 2.47287 -4.93511 0
M  V30 5889 H 549.454 2.9043 -3.29465 0
M  V30 5890 H 550.06 1.39629 -4.01726 0
M  V30 5891 N 548.375 1.56261 0.205012 0
M  V30 5892 C 549.791 1.49623 0.555433 0
M  V30 5893 C 549.991 0.766719 1.86343 0
M  V30 5894 O 549.047 0.313158 2.50551 0
M  V30 5895 C 550.36 2.94253 0.619347 0
M  V30 5896 C 551.908 3.04868 0.708855 0
M  V30 5897 C 552.383 4.50888 0.803969 0
M  V30 5898 N 553.874 4.54999 0.867758 0
M  V30 5899 C 554.609 5.65284 0.96135 0
M  V30 5900 N 554.105 6.85282 1.01786 0
M  V30 5901 N 555.898 5.53174 0.997771 0
M  V30 5902 H 548.049 2.0211 -0.653094 0
M  V30 5903 H 550.312 0.919333 -0.231366 0
M  V30 5904 H 550.018 3.50643 -0.272458 0
M  V30 5905 H 549.892 3.47063 1.47741 0
M  V30 5906 H 552.279 2.48532 1.5911 0
M  V30 5907 H 552.36 2.55199 -0.175205 0
M  V30 5908 H 552.004 5.07846 -0.0738798 0
M  V30 5909 H 551.934 4.98279 1.70369 0
M  V30 5910 H 554.425 3.68588 0.833735 0
M  V30 5911 H 554.738 7.65081 1.08951 0
M  V30 5912 H 553.083 6.8796 0.986706 0
M  V30 5913 H 556.274 4.5835 0.950392 0
M  V30 5914 H 556.447 6.39151 1.06725 0
M  V30 5915 N 549.853 -0.472356 1.50355 0
M  V30 5916 C 550.763 -1.59637 1.7191 0
M  V30 5917 C 551.779 -1.63247 0.602195 0
M  V30 5918 O 552.955 -1.81139 0.880369 0
M  V30 5919 C 550.02 -2.9586 1.80742 0
M  V30 5920 C 549.081 -3.02649 3.04471 0
M  V30 5921 C 548.314 -4.32374 3.12872 0
M  V30 5922 O 548.537 -5.22807 2.28099 0
M  V30 5923 O 547.471 -4.44728 4.05587 0
M  V30 5924 H 551.297 -1.44373 2.67189 0
M  V30 5925 H 548.882 -0.651717 1.34436 0
M  V30 5926 H 550.764 -3.7677 1.88739 0
M  V30 5927 H 549.439 -3.11325 0.88647 0
M  V30 5928 H 548.346 -2.20821 3.01975 0
M  V30 5929 H 549.679 -2.92119 3.9614 0
M  V30 5930 N 551.331 -1.39911 -0.725443 0
M  V30 5931 C 552.577 -1.37858 -1.48738 0
M  V30 5932 C 552.91 0.0224187 -1.94187 0
M  V30 5933 O 552.185 0.989204 -1.67466 0
M  V30 5934 C 552.468 -2.3594 -2.72038 0
M  V30 5935 C 552.321 -3.85023 -2.32546 0
M  V30 5936 C 553.64 -2.31704 -3.74167 0
M  V30 5937 H 550.759 -0.502074 -0.539528 0
M  V30 5938 H 553.401 -1.70974 -0.828728 0
M  V30 5939 H 551.551 -2.0783 -3.28236 0
M  V30 5940 H 553.223 -4.2392 -1.81905 0
M  V30 5941 H 551.466 -4.01334 -1.64661 0
M  V30 5942 H 552.137 -4.49152 -3.20884 0
M  V30 5943 H 554.613 -2.5658 -3.27576 0
M  V30 5944 H 553.489 -3.02395 -4.58092 0
M  V30 5945 H 553.75 -1.3253 -4.21768 0
M  V30 5946 N 552.809 0.956637 -1.25245 0
M  V30 5947 C 553.757 2.0743 -1.0524 0
M  V30 5948 C 554.751 1.69392 0.0160725 0
M  V30 5949 O 555.957 1.7946 -0.139382 0
M  V30 5950 H 552.332 0.678921 -0.323373 0
M  V30 5951 H 554.303 2.2146 -1.99995 0
M  V30 5952 C 553.052 3.40872 -0.685702 0
M  V30 5953 H 552.375 3.70607 -1.49968 0
M  V30 5954 H 553.815 4.19939 -0.585415 0
M  V30 5955 C 552.274 3.31367 0.608082 0
M  V30 5956 O 552.804 3.66214 1.65076 0
M  V30 5957 N 551.01 2.84486 0.592955 0
M  V30 5958 H 550.557 2.56326 -0.25592 0
M  V30 5959 H 550.515 2.78509 1.45877 0
M  V30 5960 N 554.287 1.06798 1.15896 0
M  V30 5961 C 555.217 0.704677 2.22613 0
M  V30 5962 C 556.198 -0.305252 1.67339 0
M  V30 5963 O 557.383 -0.179247 1.93371 0
M  V30 5964 C 554.513 0.0957325 3.47168 0
M  V30 5965 C 553.467 1.0322 4.15367 0
M  V30 5966 C 552.793 0.286293 5.33933 0
M  V30 5967 C 554.093 2.36341 4.65768 0
M  V30 5968 H 555.787 1.59688 2.53259 0
M  V30 5969 H 553.333 0.769257 1.21731 0
M  V30 5970 H 555.286 -0.170333 4.21056 0
M  V30 5971 H 554.01 -0.831516 3.15838 0
M  V30 5972 H 552.669 1.28309 3.43413 0
M  V30 5973 H 552.317 -0.644237 4.98857 0
M  V30 5974 H 552.017 0.910436 5.80504 0
M  V30 5975 H 553.541 0.0278938 6.10594 0
M  V30 5976 H 554.955 2.1561 5.31211 0
M  V30 5977 H 553.352 2.94299 5.2298 0
M  V30 5978 H 554.422 2.99047 3.81705 0
M  V30 5979 N 555.766 -1.3263 0.851289 0
M  V30 5980 C 556.696 -2.31449 0.308771 0
M  V30 5981 C 557.677 -1.59531 -0.590255 0
M  V30 5982 O 558.862 -1.87351 -0.511205 0
M  V30 5983 C 555.992 -3.43586 -0.506548 0
M  V30 5984 C 554.946 -4.26963 0.297753 0
M  V30 5985 C 554.272 -5.30831 -0.642094 0
M  V30 5986 C 555.572 -4.99643 1.52166 0
M  V30 5987 H 557.266 -2.77074 1.13447 0
M  V30 5988 H 554.812 -1.33207 0.546971 0
M  V30 5989 H 556.765 -4.11754 -0.896474 0
M  V30 5990 H 555.489 -2.96681 -1.36558 0
M  V30 5991 H 554.148 -3.60437 0.669391 0
M  V30 5992 H 553.796 -4.8018 -1.49788 0
M  V30 5993 H 553.496 -5.87501 -0.107968 0
M  V30 5994 H 555.02 -6.01862 -1.02927 0
M  V30 5995 H 556.434 -5.6051 1.20421 0
M  V30 5996 H 554.831 -5.66022 1.99347 0
M  V30 5997 H 555.901 -4.27701 2.28474 0
M  V30 5998 N 557.244 -0.608902 -1.45362 0
M  V30 5999 C 558.194 0.130616 -2.27626 0
M  V30 6000 C 559.178 0.837323 -1.37396 0
M  V30 6001 O 560.37 0.727096 -1.61376 0
M  V30 6002 C 557.499 1.12646 -3.24293 0
M  V30 6003 C 556.585 0.42052 -4.2201 0
M  V30 6004 N 556.976 -0.538569 -5.02925 0
M  V30 6005 C 555.274 0.667901 -4.40971 0
M  V30 6006 C 555.975 -0.953625 -5.7383 0
M  V30 6007 N 554.951 -0.297097 -5.42788 0
M  V30 6008 H 558.753 -0.605996 -2.87585 0
M  V30 6009 H 556.267 -0.432672 -1.5653 0
M  V30 6010 H 558.264 1.67066 -3.81961 0
M  V30 6011 H 556.924 1.86361 -2.65894 0
M  V30 6012 H 557.935 -0.915375 -5.09746 0
M  V30 6013 H 554.612 1.38963 -3.93695 0
M  V30 6014 H 556.002 -1.74473 -6.48852 0
M  V30 6015 N 558.722 1.53707 -0.348139 0
M  V30 6016 C 559.654 2.22725 0.540946 0
M  V30 6017 C 560.667 1.2354 1.06027 0
M  V30 6018 O 561.856 1.49867 0.96964 0
M  V30 6019 C 558.956 2.89756 1.75768 0
M  V30 6020 C 558.129 4.15297 1.37285 0
M  V30 6021 C 557.188 4.65697 2.44976 0
M  V30 6022 O 556.214 5.29798 2.08092 0
M  V30 6023 N 557.416 4.42017 3.763 0
M  V30 6024 H 560.181 2.99658 -0.0501592 0
M  V30 6025 H 557.742 1.60979 -0.17248 0
M  V30 6026 H 559.734 3.20388 2.47252 0
M  V30 6027 H 558.304 2.16382 2.25605 0
M  V30 6028 H 557.524 3.9116 0.488584 0
M  V30 6029 H 558.812 4.96948 1.09179 0
M  V30 6030 H 558.21 3.9076 4.09051 0
M  V30 6031 H 556.767 4.77242 4.4394 0
M  V30 6032 N 560.2 0.0768682 1.57412 0
M  V30 6033 C 561.163 -0.873949 2.11884 0
M  V30 6034 C 562.163 -1.22301 1.04398 0
M  V30 6035 O 563.353 -1.15545 1.30365 0
M  V30 6036 C 560.485 -2.17575 2.62438 0
M  V30 6037 H 561.678 -0.401278 2.97203 0
M  V30 6038 H 559.231 -0.171904 1.55352 0
M  V30 6039 H 559.966 -2.69368 1.80587 0
M  V30 6040 H 559.751 -1.93534 3.41009 0
M  V30 6041 H 561.241 -2.85631 3.04639 0
M  V30 6042 N 561.678 -1.56367 -0.196722 0
M  V30 6043 C 562.608 -1.97442 -1.24655 0
M  V30 6044 C 563.589 -0.846147 -1.47561 0
M  V30 6045 O 564.774 -1.11035 -1.59326 0
M  V30 6046 C 561.904 -2.31253 -2.59112 0
M  V30 6047 C 560.858 -3.46804 -2.50821 0
M  V30 6048 C 560.184 -3.66286 -3.89536 0
M  V30 6049 C 561.484 -4.8104 -2.03465 0
M  V30 6050 H 563.178 -2.85388 -0.905216 0
M  V30 6051 H 560.724 -1.37304 -0.434002 0
M  V30 6052 H 562.677 -2.58583 -3.32736 0
M  V30 6053 H 561.401 -1.40188 -2.94983 0
M  V30 6054 H 560.06 -3.19563 -1.79653 0
M  V30 6055 H 559.708 -2.72555 -4.22756 0
M  V30 6056 H 559.408 -4.4402 -3.84864 0
M  V30 6057 H 560.932 -3.9599 -4.64784 0
M  V30 6058 H 562.346 -5.07411 -2.66846 0
M  V30 6059 H 560.743 -5.62232 -2.09798 0
M  V30 6060 H 561.813 -4.74732 -0.98781 0
M  V30 6061 N 563.156 0.464375 -1.50603 0
M  V30 6062 C 564.384 1.23907 -1.65695 0
M  V30 6063 C 564.799 1.85658 -0.343027 0
M  V30 6064 O 564.156 1.69529 0.675739 0
M  V30 6065 C 564.207 2.3429 -2.75301 0
M  V30 6066 O 563.928 1.7507 -4.01599 0
M  V30 6067 C 565.429 3.25051 -3.01424 0
M  V30 6068 H 562.649 0.374485 -0.556778 0
M  V30 6069 H 565.193 0.55353 -1.96866 0
M  V30 6070 H 563.348 2.98607 -2.46804 0
M  V30 6071 H 563.762 2.47812 -4.62266 0
M  V30 6072 H 565.236 3.98699 -3.81763 0
M  V30 6073 H 565.713 3.84227 -2.12758 0
M  V30 6074 H 566.319 2.66463 -3.31477 0
M  V30 6075 N 564.634 1.40294 0.718013 0
M  V30 6076 C 565.864 1.41544 1.50495 0
M  V30 6077 C 566.272 0.0127877 1.89196 0
M  V30 6078 O 565.615 -0.97305 1.55812 0
M  V30 6079 C 565.677 2.24021 2.81167 0
M  V30 6080 C 565.341 3.72463 2.64803 0
M  V30 6081 C 566.338 4.65154 2.32223 0
M  V30 6082 C 564.023 4.1625 2.81143 0
M  V30 6083 C 566.017 5.99618 2.16189 0
M  V30 6084 C 563.704 5.50784 2.64727 0
M  V30 6085 C 564.702 6.42283 2.32297 0
M  V30 6086 O 564.39 7.74337 2.16004 0
M  V30 6087 H 564.122 0.484819 0.471091 0
M  V30 6088 H 566.676 1.84948 0.893488 0
M  V30 6089 H 564.906 1.75393 3.44636 0
M  V30 6090 H 566.595 2.17243 3.42871 0
M  V30 6091 H 567.361 4.32622 2.19234 0
M  V30 6092 H 563.24 3.45352 3.05373 0
M  V30 6093 H 566.784 6.71 1.90799 0
M  V30 6094 H 562.681 5.82902 2.773 0
M  V30 6095 H 563.449 7.85244 2.30942 0
M  V30 6096 N 566.112 -0.949982 1.2575 0
M  V30 6097 C 567.528 -1.22191 1.02672 0
M  V30 6098 C 567.728 -1.99898 -0.253588 0
M  V30 6099 O 566.784 -2.33329 -0.965076 0
M  V30 6100 C 568.097 -1.99175 2.25277 0
M  V30 6101 C 569.645 -2.12201 2.30087 0
M  V30 6102 C 570.12 -2.92586 3.5236 0
M  V30 6103 N 571.611 -3.00163 3.52784 0
M  V30 6104 C 572.346 -3.62766 4.44059 0
M  V30 6105 N 571.842 -4.26943 5.45611 0
M  V30 6106 N 573.635 -3.59953 4.3173 0
M  V30 6107 H 565.786 -0.430258 2.07996 0
M  V30 6108 H 568.049 -0.252844 0.91366 0
M  V30 6109 H 567.755 -1.49479 3.18354 0
M  V30 6110 H 567.629 -2.99868 2.28821 0
M  V30 6111 H 570.016 -2.61093 1.3753 0
M  V30 6112 H 570.097 -1.10799 2.30559 0
M  V30 6113 H 569.741 -2.44383 4.45241 0
M  V30 6114 H 569.671 -3.94224 3.49134 0
M  V30 6115 H 572.162 -2.54529 2.79327 0
M  V30 6116 H 572.475 -4.72583 6.11461 0
M  V30 6117 H 570.82 -4.25557 5.49478 0
M  V30 6118 H 574.011 -3.09003 3.51617 0
M  V30 6119 H 574.184 -4.08455 5.03059 0
M  V30 6120 N 567.59 -1.07411 -1.15328 0
M  V30 6121 C 568.54 -0.664788 -2.18093 0
M  V30 6122 C 569.524 0.310395 -1.57878 0
M  V30 6123 O 570.716 0.124026 -1.76565 0
M  V30 6124 C 567.845 -0.0647822 -3.43239 0
M  V30 6125 C 566.931 -1.06514 -4.10506 0
M  V30 6126 N 567.322 -2.24491 -4.53252 0
M  V30 6127 C 565.62 -0.898613 -4.36853 0
M  V30 6128 C 566.321 -2.8796 -5.05424 0
M  V30 6129 N 565.297 -2.15622 -4.99007 0
M  V30 6130 H 569.099 -1.56333 -2.48872 0
M  V30 6131 H 566.613 -0.947393 -1.31902 0
M  V30 6132 H 568.61 0.246363 -4.16171 0
M  V30 6133 H 567.27 0.828866 -3.13943 0
M  V30 6134 H 568.281 -2.62205 -4.46619 0
M  V30 6135 H 564.958 -0.0579118 -4.1746 0
M  V30 6136 H 566.348 -3.88137 -5.48452 0
M  V30 6137 N 569.068 1.32177 -0.85831 0
M  V30 6138 C 570.016 2.30729 -0.294442 0
M  V30 6139 C 571.01 1.59009 0.584165 0
M  V30 6140 O 572.216 1.73713 0.471562 0
M  V30 6141 H 568.591 0.748097 -0.0765171 0
M  V30 6142 H 570.562 2.75774 -1.1398 0
M  V30 6143 C 569.311 3.44098 0.499208 0
M  V30 6144 H 568.634 3.99449 -0.167579 0
M  V30 6145 H 570.074 4.15202 0.859273 0
M  V30 6146 C 568.533 2.91684 1.68588 0
M  V30 6147 O 569.063 2.89481 2.78503 0
M  V30 6148 N 567.269 2.48036 1.51415 0
M  V30 6149 H 566.816 2.50027 0.620006 0
M  V30 6150 H 566.774 2.13322 2.30957 0
M  V30 6151 N 570.547 0.616602 1.45037 0
M  V30 6152 C 571.477 -0.0840787 2.33349 0
M  V30 6153 C 572.458 -0.849641 1.4736 0
M  V30 6154 O 573.643 -0.818407 1.76113 0
M  V30 6155 C 570.773 -1.07604 3.3021 0
M  V30 6156 C 569.727 -0.423096 4.25904 0
M  V30 6157 C 569.053 -1.52394 5.12523 0
M  V30 6158 C 570.353 0.661457 5.18095 0
M  V30 6159 H 572.047 0.653333 2.92185 0
M  V30 6160 H 569.593 0.315634 1.40498 0
M  V30 6161 H 571.546 -1.57485 3.90866 0
M  V30 6162 H 570.27 -1.84416 2.69552 0
M  V30 6163 H 568.929 0.05493 3.66559 0
M  V30 6164 H 568.577 -2.28257 4.48227 0
M  V30 6165 H 568.277 -1.09251 5.77354 0
M  V30 6166 H 569.801 -2.02485 5.76049 0
M  V30 6167 H 571.215 0.246353 5.7277 0
M  V30 6168 H 569.612 1.01517 5.91451 0
M  V30 6169 H 570.682 1.53446 4.59981 0
M  V30 6170 N 572.025 -1.5352 0.356285 0
M  V30 6171 C 573.436 -1.86282 -0.12492 0
M  V30 6172 C 573.787 -1.27717 -1.48939 0
M  V30 6173 O 572.912 -0.595614 -2.08042 0
M  V30 6174 C 573.507 -3.37995 -0.23345 0
M  V30 6175 C 572.066 -3.70588 -0.658899 0
M  V30 6176 C 571.213 -2.76581 0.199596 0
M  V30 6177 H 574.164 -1.47901 0.575423 0
M  V30 6178 H 574.185 -3.65475 -1.0587 0
M  V30 6179 H 573.697 -3.8059 0.759776 0
M  V30 6180 H 571.798 -3.33544 -1.66069 0
M  V30 6181 H 571.911 -4.77076 -0.439957 0
M  V30 6182 H 570.275 -2.52552 -0.330076 0
M  V30 6183 H 571.058 -3.22008 1.19019 0
M  V30 6184 N 573.503 -0.0852151 -1.57369 0
M  V30 6185 C 574.413 0.891712 -2.16992 0
M  V30 6186 C 575.429 1.3174 -1.13669 0
M  V30 6187 O 576.605 1.38735 -1.45995 0
M  V30 6188 C 573.67 2.13635 -2.73059 0
M  V30 6189 C 572.731 1.7658 -3.91303 0
M  V30 6190 C 571.964 2.95111 -4.44686 0
M  V30 6191 O 572.187 4.09539 -3.97032 0
M  V30 6192 O 571.121 2.74149 -5.35841 0
M  V30 6193 H 574.947 0.414477 -3.00858 0
M  V30 6194 H 572.532 0.138598 -1.48756 0
M  V30 6195 H 574.414 2.86595 -3.08935 0
M  V30 6196 H 573.089 2.6043 -1.92244 0
M  V30 6197 H 571.996 1.00831 -3.60255 0
M  V30 6198 H 573.329 1.34557 -4.7345 0
M  V30 6199 N 574.981 1.5647 0.188427 0
M  V30 6200 C 575.931 1.91479 1.23774 0
M  V30 6201 C 576.915 0.78119 1.40664 0
M  V30 6202 O 578.107 1.04414 1.42922 0
M  V30 6203 C 575.236 2.26354 2.58106 0
M  V30 6204 C 574.322 3.46186 2.44981 0
M  V30 6205 N 574.713 4.63911 2.01546 0
M  V30 6206 C 573.011 3.50456 2.75856 0
M  V30 6207 C 573.712 5.46064 2.00472 0
M  V30 6208 N 572.688 4.86648 2.42229 0
M  V30 6209 H 576.49 2.79994 0.893339 0
M  V30 6210 H 574.004 1.57477 0.39682 0
M  V30 6211 H 576.001 2.49622 3.33908 0
M  V30 6212 H 574.661 1.39168 2.93364 0
M  V30 6213 H 575.672 4.88451 1.7215 0
M  V30 6214 H 572.349 2.73704 3.15265 0
M  V30 6215 H 573.739 6.50368 1.68734 0
M  V30 6216 N 576.459 -0.456382 1.50847 0
M  V30 6217 C 577.687 -1.23026 1.66349 0
M  V30 6218 C 578.102 -1.85473 0.352868 0
M  V30 6219 O 577.459 -1.69885 -0.666739 0
M  V30 6220 C 577.51 -2.32827 2.76539 0
M  V30 6221 O 577.231 -1.72938 4.02522 0
M  V30 6222 C 578.732 -3.23448 3.03144 0
M  V30 6223 H 575.952 -0.371527 0.558756 0
M  V30 6224 H 578.496 -0.543082 1.97157 0
M  V30 6225 H 576.651 -2.97294 2.48384 0
M  V30 6226 H 577.065 -2.45357 4.63573 0
M  V30 6227 H 578.539 -3.96669 3.83872 0
M  V30 6228 H 579.016 -3.83094 2.14793 0
M  V30 6229 H 579.622 -2.64702 3.32886 0
M  V30 6230 N 577.937 -1.40673 -0.710563 0
M  V30 6231 C 578.9 -1.4108 -1.80635 0
M  V30 6232 C 579.9 -0.303783 -1.57904 0
M  V30 6233 O 581.09 -0.562937 -1.64853 0
M  V30 6234 C 578.222 -1.20748 -3.18799 0
M  V30 6235 H 579.415 -2.38612 -1.81671 0
M  V30 6236 H 576.968 -1.26595 -0.916704 0
M  V30 6237 H 577.703 -0.239964 -3.23411 0
M  V30 6238 H 577.488 -2.00941 -3.36698 0
M  V30 6239 H 578.978 -1.23833 -3.98817 0
M  V30 6240 N 579.415 0.9433 -1.26252 0
M  V30 6241 C 580.661 1.69226 -1.12846 0
M  V30 6242 C 581.016 1.8963 0.325282 0
M  V30 6243 O 580.309 1.46435 1.23561 0
M  V30 6244 C 580.503 3.07073 -1.82868 0
M  V30 6245 C 580.332 3.00118 -3.34902 0
M  V30 6246 C 579.102 3.03251 -4.04186 0
M  V30 6247 C 581.3 2.80418 -4.31127 0
M  V30 6248 N 579.282 2.86573 -5.42908 0
M  V30 6249 C 580.653 2.72287 -5.5701 0
M  V30 6250 C 582.708 2.65185 -4.21404 0
M  V30 6251 C 581.411 2.50479 -6.74279 0
M  V30 6252 C 583.437 2.4475 -5.38378 0
M  V30 6253 C 582.799 2.37349 -6.63208 0
M  V30 6254 H 578.898 0.626716 -0.467708 0
M  V30 6255 H 581.482 1.11645 -1.5951 0
M  V30 6256 H 579.653 3.62797 -1.38682 0
M  V30 6257 H 581.385 3.70816 -1.62103 0
M  V30 6258 H 578.14 3.12882 -3.55531 0
M  V30 6259 H 578.564 2.81408 -6.15742 0
M  V30 6260 H 583.206 2.69675 -3.25631 0
M  V30 6261 H 580.924 2.4473 -7.70151 0
M  V30 6262 H 584.51 2.33872 -5.32724 0
M  V30 6263 H 583.39 2.21746 -7.52196 0
M  V30 6264 N 580.893 1.08022 1.14757 0
M  V30 6265 C 582.139 0.808705 1.85978 0
M  V30 6266 C 582.472 -0.663764 1.82504 0
M  V30 6267 O 581.747 -1.48765 1.25296 0
M  V30 6268 C 582.03 1.32623 3.34788 0
M  V30 6269 C 581.883 2.86375 3.46856 0
M  V30 6270 C 583.202 0.948291 4.29762 0
M  V30 6271 H 580.321 0.295244 0.675278 0
M  V30 6272 H 582.963 1.33917 1.34783 0
M  V30 6273 H 581.113 0.875002 3.78518 0
M  V30 6274 H 582.785 3.39839 3.11941 0
M  V30 6275 H 581.028 3.24232 2.88194 0
M  V30 6276 H 581.699 3.17658 4.51439 0
M  V30 6277 H 584.175 1.33722 3.94028 0
M  V30 6278 H 583.051 1.33765 5.32352 0
M  V30 6279 H 583.312 -0.145094 4.41862 0
M  V30 6280 N 582.371 -1.3172 0.865308 0
M  V30 6281 C 583.319 -2.30569 0.306674 0
M  V30 6282 C 584.313 -1.59317 -0.575724 0
M  V30 6283 O 585.519 -1.73961 -0.462343 0
M  V30 6284 H 581.894 -0.747681 0.0804834 0
M  V30 6285 H 583.865 -2.75165 1.15441 0
M  V30 6286 C 582.614 -3.44358 -0.480952 0
M  V30 6287 H 581.937 -3.99354 0.18876 0
M  V30 6288 H 583.377 -4.15652 -0.837241 0
M  V30 6289 C 581.836 -2.92574 -1.67039 0
M  V30 6290 O 582.366 -2.90954 -2.76964 0
M  V30 6291 N 580.572 -2.48835 -1.50097 0
M  V30 6292 H 580.119 -2.50353 -0.606738 0
M  V30 6293 H 580.077 -2.14543 -2.29823 0
M  V30 6294 N 583.85 -0.624285 -1.44708 0
M  V30 6295 C 585.08 -0.132726 -2.06173 0
M  V30 6296 C 585.488 1.19513 -1.46674 0
M  V30 6297 O 584.831 1.74254 -0.581491 0
M  V30 6298 C 584.893 0.0636732 -3.59444 0
M  V30 6299 C 584.557 -1.18496 -4.4137 0
M  V30 6300 C 585.553 -2.10706 -4.75288 0
M  V30 6301 C 583.239 -1.41846 -4.81856 0
M  V30 6302 C 585.233 -3.24582 -5.48567 0
M  V30 6303 C 582.92 -2.5602 -5.54885 0
M  V30 6304 C 583.918 -3.47215 -5.88159 0
M  V30 6305 O 583.606 -4.59399 -6.59703 0
M  V30 6306 H 583.338 -0.0737313 -0.671967 0
M  V30 6307 H 585.892 -0.856789 -1.86677 0
M  V30 6308 H 584.122 0.842809 -3.77404 0
M  V30 6309 H 585.811 0.508924 -4.02697 0
M  V30 6310 H 586.577 -1.93898 -4.44554 0
M  V30 6311 H 582.456 -0.717556 -4.55381 0
M  V30 6312 H 586 -3.95785 -5.74456 0
M  V30 6313 H 581.897 -2.72774 -5.85034 0
M  V30 6314 H 582.665 -4.58293 -6.78166 0
M  V30 6315 N 585.328 1.53329 -0.364422 0
M  V30 6316 C 586.574 2.01537 0.225969 0
M  V30 6317 C 586.907 1.25128 1.48515 0
M  V30 6318 O 586.182 0.344653 1.91422 0
M  V30 6319 C 586.465 3.56339 0.519092 0
M  V30 6320 C 586.318 4.43441 -0.753639 0
M  V30 6321 C 587.637 4.19833 1.32015 0
M  V30 6322 H 584.756 0.732573 0.0806548 0
M  V30 6323 H 587.398 1.83597 -0.489084 0
M  V30 6324 H 585.548 3.71756 1.12825 0
M  V30 6325 H 587.22 4.39823 -1.39116 0
M  V30 6326 H 585.463 4.11457 -1.37424 0
M  V30 6327 H 586.134 5.49699 -0.503517 0
M  V30 6328 H 588.61 4.08242 0.804859 0
M  V30 6329 H 587.486 5.28177 1.49399 0
M  V30 6330 H 587.747 3.75821 2.32832 0
M  V30 6331 N 586.806 0.0935595 1.57322 0
M  V30 6332 C 588.222 -0.263091 1.57417 0
M  V30 6333 C 588.422 -1.68526 1.1046 0
M  V30 6334 O 587.478 -2.40139 0.780357 0
M  V30 6335 C 588.791 -0.0529201 3.00653 0
M  V30 6336 C 590.339 -0.120788 3.12767 0
M  V30 6337 C 590.814 0.0613707 4.57959 0
M  V30 6338 N 592.305 0.00648534 4.632 0
M  V30 6339 C 593.04 0.122699 5.73269 0
M  V30 6340 N 592.536 0.29366 6.92177 0
M  V30 6341 N 594.329 0.0640787 5.62063 0
M  V30 6342 H 586.48 1.02277 1.86154 0
M  V30 6343 H 588.743 0.4007 0.859153 0
M  V30 6344 H 588.449 0.929279 3.39201 0
M  V30 6345 H 588.323 -0.795899 3.68708 0
M  V30 6346 H 590.71 -1.09349 2.74093 0
M  V30 6347 H 590.791 0.653656 2.47307 0
M  V30 6348 H 590.435 1.03093 4.97327 0
M  V30 6349 H 590.365 -0.732748 5.21477 0
M  V30 6350 H 592.856 -0.123173 3.77699 0
M  V30 6351 H 593.169 0.37389 7.71895 0
M  V30 6352 H 591.514 0.329307 6.94219 0
M  V30 6353 H 594.705 -0.0683396 4.6805 0
M  V30 6354 H 594.878 0.158097 6.47807 0
M  V30 6355 N 588.284 -1.56567 -0.180126 0
M  V30 6356 C 589.509 -1.85975 -0.918041 0
M  V30 6357 C 589.934 -0.678888 -1.75422 0
M  V30 6358 O 589.292 0.372168 -1.77439 0
M  V30 6359 C 589.34 -3.13731 -1.77779 0
M  V30 6360 O 588.444 -2.95335 -2.87838 0
M  V30 6361 H 587.785 -0.61196 -0.257683 0
M  V30 6362 H 590.315 -2.03798 -0.180923 0
M  V30 6363 H 590.325 -3.4491 -2.17948 0
M  V30 6364 H 589 -3.99293 -1.16352 0
M  V30 6365 H 587.577 -2.7549 -2.51316 0
M  V30 6366 N 589.762 0.448376 -1.51087 0
M  V30 6367 C 590.712 1.54156 -1.67988 0
M  V30 6368 C 591.696 1.5178 -0.534015 0
M  V30 6369 O 592.888 1.58419 -0.789448 0
M  V30 6370 C 590.017 2.92437 -1.79822 0
M  V30 6371 C 589.103 2.99611 -3.00157 0
M  V30 6372 N 589.494 2.7655 -4.23502 0
M  V30 6373 C 587.792 3.30764 -2.99184 0
M  V30 6374 C 588.493 2.89281 -5.0467 0
M  V30 6375 N 587.469 3.20473 -4.39088 0
M  V30 6376 H 591.271 1.35061 -2.61028 0
M  V30 6377 H 588.785 0.655504 -1.48583 0
M  V30 6378 H 590.782 3.71068 -1.90037 0
M  V30 6379 H 589.442 3.1256 -0.879554 0
M  V30 6380 H 590.453 2.5169 -4.52628 0
M  V30 6381 H 587.13 3.56732 -2.16907 0
M  V30 6382 H 588.52 2.75499 -6.12821 0
M  V30 6383 N 591.24 1.41047 0.703093 0
M  V30 6384 C 592.517 1.30493 1.45708 0
M  V30 6385 C 592.897 -0.0709892 2.10981 0
M  V30 6386 O 592.245 -1.08471 2.01113 0
M  V30 6387 C 592.455 2.45287 2.48265 0
M  V30 6388 C 593.803 2.86104 3.13735 0
M  V30 6389 O 594.827 2.44971 2.58587 0
M  V30 6390 O 593.686 3.57206 4.13601 0
M  V30 6391 H 590.78 0.513144 0.648546 0
M  V30 6392 H 593.326 1.52995 0.734208 0
M  V30 6393 H 592.098 3.37135 1.98635 0
M  V30 6394 H 591.721 2.24622 3.28071 0
M  V30 6395 N 592.718 -0.936591 1.26751 0
M  V30 6396 C 593.995 -1.66094 1.03306 0
M  V30 6397 C 594.375 -2.06568 -0.435058 0
M  V30 6398 O 593.723 -1.79305 -1.41641 0
M  V30 6399 C 593.933 -2.86969 1.98619 0
M  V30 6400 C 595.281 -3.58516 2.27489 0
M  V30 6401 O 596.305 -2.97082 1.96522 0
M  V30 6402 O 595.164 -4.69181 2.80235 0
M  V30 6403 H 592.258 -0.727568 0.393158 0
M  V30 6404 H 594.804 -0.987914 1.3798 0
M  V30 6405 H 593.576 -2.53985 2.9767 0
M  V30 6406 H 593.199 -3.61996 1.64454 0
M  V30 6407 N 594.196 -1.08629 -1.14182 0
M  V30 6408 C 595.445 -0.812271 -1.84621 0
M  V30 6409 C 595.758 0.664313 -1.83973 0
M  V30 6410 O 596.964 1.05357 -2.50224 0
M  V30 6411 C 595.42 -1.4031 -3.31423 0
M  V30 6412 C 595.028 -2.91164 -3.40481 0
M  V30 6413 C 596.772 -1.20767 -4.06959 0
M  V30 6414 C 594.679 -3.43373 -4.81507 0
M  V30 6415 H 593.609 -0.30019 -0.691666 0
M  V30 6416 H 596.26 -1.30798 -1.28701 0
M  V30 6417 H 594.642 -0.835096 -3.87094 0
M  V30 6418 H 595.816 -3.5412 -2.94848 0
M  V30 6419 H 594.131 -3.09646 -2.78403 0
M  V30 6420 H 596.728 -1.57237 -5.11058 0
M  V30 6421 H 597.071 -0.147664 -4.16038 0
M  V30 6422 H 597.604 -1.74274 -3.57594 0
M  V30 6423 H 594.343 -4.48958 -4.77616 0
M  V30 6424 H 593.863 -2.85176 -5.27669 0
M  V30 6425 H 595.542 -3.40095 -5.50404 0
M  V30 6426 N 595.674 1.31259 -0.872281 0
M  V30 6427 C 596.922 1.96233 -0.483409 0
M  V30 6428 C 597.243 1.69276 0.968012 0
M  V30 6429 O 596.513 1.00943 1.67891 0
M  V30 6430 H 595.093 0.726025 -0.175774 0
M  V30 6431 H 597.755 1.60024 -1.11258 0
M  V30 6432 H 596.851 3.05403 -0.643075 0
M  V30 6433 N 597.152 0.631951 1.44375 0
M  V30 6434 C 598.398 0.145491 2.02879 0
M  V30 6435 C 598.753 -1.21936 1.48827 0
M  V30 6436 O 598.046 -1.7976 0.663085 0
M  V30 6437 C 598.24 0.0735861 3.57324 0
M  V30 6438 C 598.069 1.42992 4.2636 0
M  V30 6439 C 596.839 2.01691 4.63302 0
M  V30 6440 C 599.037 2.36393 4.56752 0
M  V30 6441 N 597.019 3.30551 5.17309 0
M  V30 6442 C 598.39 3.49869 5.11851 0
M  V30 6443 C 600.445 2.35462 4.38705 0
M  V30 6444 C 599.148 4.6261 5.50803 0
M  V30 6445 C 601.174 3.47268 4.78706 0
M  V30 6446 C 600.536 4.59467 5.33919 0
M  V30 6447 H 596.635 0.0971781 0.775938 0
M  V30 6448 H 599.219 0.835624 1.75856 0
M  V30 6449 H 597.39 -0.585829 3.83957 0
M  V30 6450 H 599.122 -0.421777 4.02496 0
M  V30 6451 H 595.877 1.54627 4.47647 0
M  V30 6452 H 596.301 3.96435 5.48788 0
M  V30 6453 H 600.943 1.49966 3.9531 0
M  V30 6454 H 598.661 5.48813 5.93152 0
M  V30 6455 H 602.247 3.47724 4.66454 0
M  V30 6456 H 601.127 5.44551 5.64299 0
M  V30 6457 N 598.631 -1.53133 0.372548 0
M  V30 6458 C 599.859 -2.05774 -0.215515 0
M  V30 6459 C 600.274 -1.24555 -1.41886 0
M  V30 6460 O 599.631 -0.287951 -1.80214 0
M  V30 6461 C 599.682 -3.5645 -0.602161 0
M  V30 6462 O 599.403 -4.34591 0.553359 0
M  V30 6463 C 600.904 -4.25374 -1.24787 0
M  V30 6464 H 598.124 -0.670009 -0.0364529 0
M  V30 6465 H 600.668 -1.97434 0.532934 0
M  V30 6466 H 598.823 -3.64918 -1.30052 0
M  V30 6467 H 599.237 -5.23954 0.239336 0
M  V30 6468 H 600.711 -5.32097 -1.46891 0
M  V30 6469 H 601.188 -3.79531 -2.21026 0
M  V30 6470 H 601.794 -4.21177 -0.590752 0
M  V30 6471 N 600.109 -0.101901 -1.5727 0
M  V30 6472 C 601.356 0.560197 -1.94597 0
M  V30 6473 C 601.684 1.67767 -0.984101 0
M  V30 6474 O 600.939 1.95699 -0.00489193 0
M  V30 6475 C 601.238 1.14898 -3.38427 0
M  V30 6476 C 600.904 0.154613 -4.50635 0
M  V30 6477 C 599.566 -0.118861 -4.81053 0
M  V30 6478 C 601.918 -0.523979 -5.18559 0
M  V30 6479 C 599.246 -1.0775 -5.76721 0
M  V30 6480 C 601.598 -1.47114 -6.15256 0
M  V30 6481 C 600.262 -1.75278 -6.44076 0
M  V30 6482 H 599.532 0.204991 -0.712081 0
M  V30 6483 H 602.179 -0.17918 -1.9066 0
M  V30 6484 H 600.484 1.96476 -3.38976 0
M  V30 6485 H 602.181 1.66909 -3.64613 0
M  V30 6486 H 598.771 0.377948 -4.2693 0
M  V30 6487 H 602.955 -0.325851 -4.95229 0
M  V30 6488 H 598.211 -1.30263 -5.97362 0
M  V30 6489 H 602.385 -2.00274 -6.66981 0
M  V30 6490 H 600.012 -2.49717 -7.18015 0
M  V30 6491 N 601.587 1.56661 0.17182 0
M  V30 6492 C 602.55 1.9549 1.19651 0
M  V30 6493 C 603.55 0.838501 1.37207 0
M  V30 6494 O 604.74 1.10556 1.34622 0
M  V30 6495 C 601.872 2.24927 2.56166 0
M  V30 6496 H 603.065 2.87184 0.864007 0
M  V30 6497 H 600.618 1.50711 0.41425 0
M  V30 6498 H 601.353 1.35944 2.94431 0
M  V30 6499 H 601.138 3.06301 2.4479 0
M  V30 6500 H 602.628 2.55891 3.30014 0
M  V30 6501 N 603.065 -0.440357 1.51323 0
M  V30 6502 C 604.342 -1.20109 1.5438 0
M  V30 6503 C 604.722 -2.08866 0.306303 0
M  V30 6504 O 604.07 -2.1723 -0.708773 0
M  V30 6505 C 604.28 -2.00555 2.8562 0
M  V30 6506 C 605.628 -2.577 3.37455 0
M  V30 6507 O 606.652 -2.10769 2.8715 0
M  V30 6508 O 605.511 -3.43289 4.25224 0
M  V30 6509 H 602.605 -0.546668 0.620551 0
M  V30 6510 H 605.151 -0.449672 1.63634 0
M  V30 6511 H 603.923 -1.35346 3.67147 0
M  V30 6512 H 603.546 -2.82768 2.79514 0
M  V30 6513 N 604.543 -1.41418 -0.695603 0
M  V30 6514 C 605.453 -1.45622 -1.83933 0
M  V30 6515 C 606.469 -0.346825 -1.70508 0
M  V30 6516 O 607.645 -0.59454 -1.92424 0
M  V30 6517 C 604.71 -1.33627 -3.19914 0
M  V30 6518 C 603.771 -2.54882 -3.45447 0
M  V30 6519 C 603.004 -2.43449 -4.7494 0
M  V30 6520 O 603.227 -1.45905 -5.51424 0
M  V30 6521 O 602.161 -3.33206 -5.01256 0
M  V30 6522 H 605.987 -2.42114 -1.83342 0
M  V30 6523 H 603.572 -1.22956 -0.848658 0
M  V30 6524 H 605.454 -1.29221 -4.01098 0
M  V30 6525 H 604.129 -0.402508 -3.21188 0
M  V30 6526 H 603.036 -2.64865 -2.64192 0
M  V30 6527 H 604.369 -3.47087 -3.48987 0
M  V30 6528 N 606.021 0.929856 -1.27246 0
M  V30 6529 C 607.298 1.65544 -1.04186 0
M  V30 6530 C 607.678 2.06796 0.424097 0
M  V30 6531 O 607.026 1.80053 1.40688 0
M  V30 6532 C 607.236 2.85912 -2.00138 0
M  V30 6533 C 608.584 3.57305 -2.29387 0
M  V30 6534 O 609.608 2.96036 -1.98094 0
M  V30 6535 O 608.467 4.67688 -2.82719 0
M  V30 6536 H 605.561 0.725473 -0.397011 0
M  V30 6537 H 608.107 0.980583 -1.38501 0
M  V30 6538 H 606.879 2.52403 -2.99013 0
M  V30 6539 H 606.502 3.61118 -1.66371 0
M  V30 6540 N 607.499 1.09233 1.13605 0
M  V30 6541 C 608.462 0.733553 2.17144 0
M  V30 6542 C 609.462 -0.235873 1.59061 0
M  V30 6543 O 610.652 -0.0143167 1.74194 0
M  V30 6544 C 607.784 0.084471 3.40795 0
M  V30 6545 H 608.977 1.65049 2.50397 0
M  V30 6546 H 606.53 0.891264 1.28399 0
M  V30 6547 H 607.265 -0.843795 3.1313 0
M  V30 6548 H 607.05 0.781985 3.84223 0
M  V30 6549 H 608.54 -0.151216 4.17326 0
M  V30 6550 N 608.977 -1.30795 0.87923 0
M  V30 6551 C 609.94 -2.26563 0.346676 0
M  V30 6552 C 610.94 -1.52578 -0.507597 0
M  V30 6553 O 612.13 -1.71318 -0.315575 0
M  V30 6554 C 609.262 -3.37115 -0.506611 0
M  V30 6555 H 610.455 -2.75183 1.19223 0
M  V30 6556 H 608.008 -1.41886 0.655598 0
M  V30 6557 H 608.743 -2.93802 -1.37299 0
M  V30 6558 H 608.528 -3.91959 0.105218 0
M  V30 6559 H 610.018 -4.08412 -0.871192 0
M  V30 6560 N 610.455 -0.639598 -1.44038 0
M  V30 6561 C 611.685 -0.154586 -2.06021 0
M  V30 6562 C 612.093 1.17951 -1.47933 0
M  V30 6563 O 611.436 1.73627 -0.59994 0
M  V30 6564 C 611.498 0.0255459 -3.59491 0
M  V30 6565 C 611.162 -1.2317 -4.40089 0
M  V30 6566 C 612.159 -2.15735 -4.73027 0
M  V30 6567 C 609.844 -1.46949 -4.80324 0
M  V30 6568 C 611.838 -3.30382 -5.45093 0
M  V30 6569 C 609.525 -2.61891 -5.52138 0
M  V30 6570 C 610.523 -3.53433 -5.84443 0
M  V30 6571 O 610.211 -4.6637 -6.54793 0
M  V30 6572 H 609.943 -0.0808543 -0.671147 0
M  V30 6573 H 612.497 -0.876541 -1.85758 0
M  V30 6574 H 610.727 0.802733 -3.78276 0
M  V30 6575 H 612.416 0.466184 -4.03214 0
M  V30 6576 H 613.182 -1.98602 -4.42473 0
M  V30 6577 H 609.061 -0.765815 -4.54595 0
M  V30 6578 H 612.605 -4.01856 -5.70226 0
M  V30 6579 H 608.502 -2.78964 -5.82108 0
M  V30 6580 H 609.27 -4.6546 -6.73267 0
M  V30 6581 N 611.933 1.52934 -0.380664 0
M  V30 6582 C 612.863 2.29118 0.450268 0
M  V30 6583 C 613.844 1.32153 1.07096 0
M  V30 6584 O 615.029 1.61038 1.08537 0
M  V30 6585 C 612.159 3.09161 1.58231 0
M  V30 6586 C 611.113 4.13938 1.0881 0
M  V30 6587 C 610.439 4.82153 2.31155 0
M  V30 6588 C 611.739 5.22048 0.162146 0
M  V30 6589 H 613.433 2.98826 -0.185361 0
M  V30 6590 H 610.979 1.43715 -0.0905886 0
M  V30 6591 H 612.932 3.61211 2.17036 0
M  V30 6592 H 611.656 2.3717 2.2454 0
M  V30 6593 H 610.315 3.62855 0.522633 0
M  V30 6594 H 609.963 4.06719 2.95953 0
M  V30 6595 H 609.663 5.52966 1.98752 0
M  V30 6596 H 611.187 5.37004 2.90618 0
M  V30 6597 H 612.601 5.6951 0.658126 0
M  V30 6598 H 610.998 6.00057 -0.0717122 0
M  V30 6599 H 612.068 4.78398 -0.791438 0
M  V30 6600 N 613.412 0.11024 1.57214 0
M  V30 6601 C 614.66 -0.548783 1.94506 0
M  V30 6602 C 614.981 -1.67772 0.99386 0
M  V30 6603 O 614.251 -1.9584 0.0485841 0
M  V30 6604 H 612.831 -0.205715 0.718116 0
M  V30 6605 H 615.493 0.177127 1.94093 0
M  V30 6606 H 614.589 -0.949096 2.97319 0
M  V30 6607 N 614.89 -1.56749 -0.16351 0
M  V30 6608 C 616.139 -1.81626 -0.877211 0
M  V30 6609 C 616.452 -0.688791 -1.83071 0
M  V30 6610 O 617.658 -0.822697 -2.58735 0
M  V30 6611 C 616.114 -3.21858 -1.61045 0
M  V30 6612 C 615.722 -4.42494 -0.700195 0
M  V30 6613 C 617.466 -3.56021 -2.31192 0
M  V30 6614 C 615.373 -5.73748 -1.43412 0
M  V30 6615 H 614.303 -0.67731 -0.331312 0
M  V30 6616 H 616.954 -1.83039 -0.13006 0
M  V30 6617 H 615.336 -3.14784 -2.40264 0
M  V30 6618 H 616.51 -4.60766 0.0555849 0
M  V30 6619 H 614.825 -4.1626 -0.10799 0
M  V30 6620 H 617.422 -4.51333 -2.8671 0
M  V30 6621 H 617.765 -2.81277 -3.06902 0
M  V30 6622 H 618.298 -3.64682 -1.58909 0
M  V30 6623 H 615.037 -6.51543 -0.719186 0
M  V30 6624 H 614.557 -5.5944 -2.16302 0
M  V30 6625 H 616.236 -6.15975 -1.9795 0
M  V30 6626 N 616.368 0.432326 -1.51554 0
M  V30 6627 C 617.593 1.20824 -1.68571 0
M  V30 6628 C 618.018 1.84126 -0.384596 0
M  V30 6629 O 617.376 1.69025 0.655751 0
M  V30 6630 C 617.424 2.26429 -2.80646 0
M  V30 6631 O 616.528 3.32032 -2.44598 0
M  V30 6632 H 615.869 0.353765 -0.561913 0
M  V30 6633 H 618.399 0.509916 -1.98144 0
M  V30 6634 H 618.409 2.71133 -3.04878 0
M  V30 6635 H 617.084 1.79733 -3.75058 0
M  V30 6636 H 615.661 2.92769 -2.30956 0
M  V30 6637 N 617.846 1.41785 0.688094 0
M  V30 6638 C 619.094 1.41264 1.4453 0
M  V30 6639 C 619.415 0.0252946 1.94984 0
M  V30 6640 O 618.685 -0.934081 1.72197 0
M  V30 6641 H 617.265 0.519998 0.536294 0
M  V30 6642 H 619.927 1.7709 0.813941 0
M  V30 6643 H 619.023 2.10439 2.30482 0
M  V30 6644 N 619.324 -0.923095 1.27737 0
M  V30 6645 C 620.554 -1.70277 1.17001 0
M  V30 6646 C 620.962 -1.87188 -0.275199 0
M  V30 6647 O 620.305 -1.39195 -1.19877 0
M  V30 6648 C 620.367 -3.11976 1.78637 0
M  V30 6649 C 620.031 -3.18386 3.27841 0
M  V30 6650 C 621.028 -3.00287 4.2441 0
M  V30 6651 C 618.713 -3.41198 3.68632 0
M  V30 6652 C 620.707 -3.04896 5.59747 0
M  V30 6653 C 618.394 -3.4544 5.04097 0
M  V30 6654 C 619.392 -3.27309 5.99465 0
M  V30 6655 O 619.08 -3.31295 7.32461 0
M  V30 6656 H 618.812 -0.539366 0.407505 0
M  V30 6657 H 621.366 -1.16446 1.69202 0
M  V30 6658 H 619.596 -3.67308 1.20919 0
M  V30 6659 H 621.285 -3.7193 1.6255 0
M  V30 6660 H 622.051 -2.825 3.94232 0
M  V30 6661 H 617.93 -3.54359 2.94873 0
M  V30 6662 H 621.474 -2.90662 6.34162 0
M  V30 6663 H 617.371 -3.62753 5.33929 0
M  V30 6664 H 618.139 -3.47719 7.40968 0
M  V30 6665 N 620.802 -1.09834 -1.13024 0
M  V30 6666 C 622.079 -0.749225 -1.80682 0
M  V30 6667 C 622.459 0.765171 -1.96744 0
M  V30 6668 O 621.807 1.68912 -1.53886 0
M  V30 6669 C 622.017 -1.49311 -3.15448 0
M  V30 6670 C 623.365 -1.66162 -3.90737 0
M  V30 6671 O 624.389 -1.45597 -3.25085 0
M  V30 6672 O 623.248 -2.00211 -5.08505 0
M  V30 6673 H 620.342 -0.269614 -0.781817 0
M  V30 6674 H 622.888 -1.20078 -1.19914 0
M  V30 6675 H 621.66 -2.52407 -2.99009 0
M  V30 6676 H 621.283 -1.034 -3.8392 0
M  V30 6677 N 622.28 1.30327 -0.886154 0
M  V30 6678 C 623.23 2.25668 -0.325248 0
M  V30 6679 C 624.214 1.51318 0.546972 0
M  V30 6680 O 625.406 1.72623 0.391203 0
M  V30 6681 C 622.535 3.40229 0.458167 0
M  V30 6682 C 621.621 4.21933 -0.428208 0
M  V30 6683 N 622.012 4.82129 -1.52921 0
M  V30 6684 C 620.31 4.45439 -0.223535 0
M  V30 6685 C 621.011 5.43351 -2.07714 0
M  V30 6686 N 619.987 5.26002 -1.37195 0
M  V30 6687 H 623.789 2.69759 -1.1665 0
M  V30 6688 H 621.303 1.4478 -0.735691 0
M  V30 6689 H 623.3 4.07579 0.876648 0
M  V30 6690 H 621.96 2.97678 1.29684 0
M  V30 6691 H 622.971 4.81312 -1.91205 0
M  V30 6692 H 619.648 4.13481 0.577875 0
M  V30 6693 H 621.038 6.01118 -3.00178 0
M  V30 6694 N 623.758 0.647228 1.43697 0
M  V30 6695 C 625.174 0.314256 1.56476 0
M  V30 6696 C 625.374 -1.18191 1.63196 0
M  V30 6697 O 624.43 -1.96655 1.58376 0
M  V30 6698 C 625.743 1.02034 2.82859 0
M  V30 6699 C 627.291 1.00002 2.96595 0
M  V30 6700 C 627.766 1.68689 4.25803 0
M  V30 6701 N 629.257 1.65424 4.32654 0
M  V30 6702 C 629.992 2.1545 5.31384 0
M  V30 6703 N 629.488 2.73738 6.36427 0
M  V30 6704 N 631.281 2.05985 5.22998 0
M  V30 6705 H 623.432 1.61821 1.37578 0
M  V30 6706 H 625.695 0.680184 0.660344 0
M  V30 6707 H 625.401 2.07542 2.83935 0
M  V30 6708 H 625.275 0.568146 3.72897 0
M  V30 6709 H 627.662 -0.0466319 2.95063 0
M  V30 6710 H 627.743 1.49086 2.07863 0
M  V30 6711 H 627.387 2.73308 4.28095 0
M  V30 6712 H 627.317 1.17076 5.13421 0
M  V30 6713 H 629.808 1.22884 3.57363 0
M  V30 6714 H 630.121 3.09602 7.08072 0
M  V30 6715 H 628.466 2.77796 6.37067 0
M  V30 6716 H 631.657 1.60157 4.39849 0
M  V30 6717 H 631.83 2.45281 5.99784 0
M  V30 6718 N 625.236 -1.5273 0.388769 0
M  V30 6719 C 626.168 -2.24081 -0.481704 0
M  V30 6720 C 627.181 -1.26307 -1.02715 0
M  V30 6721 O 628.37 -1.52386 -0.929565 0
M  V30 6722 C 625.47 -2.94315 -1.68024 0
M  V30 6723 C 624.643 -4.18791 -1.26226 0
M  V30 6724 C 623.702 -4.72028 -2.32542 0
M  V30 6725 O 622.728 -5.35129 -1.93972 0
M  V30 6726 N 623.93 -4.51838 -3.64448 0
M  V30 6727 H 626.695 -2.9942 0.129591 0
M  V30 6728 H 624.256 -1.60465 0.2151 0
M  V30 6729 H 626.248 -3.26831 -2.38671 0
M  V30 6730 H 624.818 -2.22287 -2.19789 0
M  V30 6731 H 624.038 -3.92318 -0.384703 0
M  V30 6732 H 625.326 -4.99668 -0.959647 0
M  V30 6733 H 624.724 -4.01468 -3.98547 0
M  V30 6734 H 623.281 -4.88845 -4.31131 0
M  V30 6735 N 626.714 -0.118576 -1.57153 0
M  V30 6736 C 627.961 0.539526 -1.9518 0
M  V30 6737 C 628.289 1.66714 -1.00184 0
M  V30 6738 O 627.544 1.95683 -0.0256482 0
M  V30 6739 C 627.843 1.11303 -3.39627 0
M  V30 6740 C 627.509 0.106809 -4.50773 0
M  V30 6741 C 626.171 -0.169876 -4.809 0
M  V30 6742 C 628.523 -0.57895 -5.17975 0
M  V30 6743 C 625.851 -1.13861 -5.75545 0
M  V30 6744 C 628.203 -1.53631 -6.13661 0
M  V30 6745 C 626.867 -1.82099 -6.42181 0
M  V30 6746 H 626.137 0.197427 -0.714215 0
M  V30 6747 H 628.784 -0.199391 -1.90459 0
M  V30 6748 H 627.089 1.92869 -3.4104 0
M  V30 6749 H 628.786 1.63032 -3.66363 0
M  V30 6750 H 625.376 0.332645 -4.27307 0
M  V30 6751 H 629.56 -0.378359 -4.94856 0
M  V30 6752 H 624.816 -1.36592 -5.95947 0
M  V30 6753 H 628.99 -2.07337 -6.64819 0
M  V30 6754 H 626.617 -2.57319 -7.15326 0
M  V30 6755 N 628.193 1.56834 0.155195 0
M  V30 6756 C 629.123 2.00678 1.19376 0
M  V30 6757 C 630.104 0.884973 1.45266 0
M  V30 6758 O 631.289 1.1522 1.56326 0
M  V30 6759 C 628.419 2.38042 2.5289 0
M  V30 6760 C 627.373 3.53332 2.41538 0
M  V30 6761 C 626.699 3.76485 3.79688 0
M  V30 6762 C 627.999 4.86265 1.9064 0
M  V30 6763 H 629.693 2.87688 0.829232 0
M  V30 6764 H 627.239 1.38407 0.397445 0
M  V30 6765 H 629.192 2.67314 3.25763 0
M  V30 6766 H 627.916 1.4796 2.91162 0
M  V30 6767 H 626.575 3.24213 1.71117 0
M  V30 6768 H 626.223 2.83667 4.15382 0
M  V30 6769 H 625.923 4.54068 3.72956 0
M  V30 6770 H 627.447 4.08174 4.54122 0
M  V30 6771 H 628.861 5.14308 2.53299 0
M  V30 6772 H 627.258 5.67597 1.94818 0
M  V30 6773 H 628.328 4.77184 0.861596 0
M  V30 6774 N 629.671 -0.424282 1.51781 0
M  V30 6775 C 630.619 -1.53649 1.74628 0
M  V30 6776 C 631.613 -1.57923 0.612922 0
M  V30 6777 O 632.819 -1.61511 0.794618 0
M  V30 6778 H 629.194 -0.510706 0.551981 0
M  V30 6779 H 631.165 -1.31558 2.67834 0
M  V30 6780 C 629.914 -2.91177 1.9003 0
M  V30 6781 H 629.237 -2.88625 2.76651 0
M  V30 6782 H 630.677 -3.6833 2.10021 0
M  V30 6783 C 629.136 -3.30303 0.663435 0
M  V30 6784 O 629.666 -4.01315 -0.175812 0
M  V30 6785 N 627.872 -2.86201 0.503723 0
M  V30 6786 H 627.419 -2.28583 1.18776 0
M  V30 6787 H 627.377 -3.12741 -0.322575 0
M  V30 6788 N 631.149 -1.42148 -0.680565 0
M  V30 6789 C 632.565 -1.24947 -0.992995 0
M  V30 6790 C 632.765 -0.149527 -2.00944 0
M  V30 6791 O 631.821 0.481145 -2.47873 0
M  V30 6792 C 633.134 -2.60426 -1.5033 0
M  V30 6793 C 634.682 -2.67733 -1.62137 0
M  V30 6794 C 635.157 -4.03564 -2.16565 0
M  V30 6795 N 636.648 -4.05488 -2.23905 0
M  V30 6796 C 637.383 -5.07401 -2.67081 0
M  V30 6797 N 636.879 -6.19698 -3.09751 0
M  V30 6798 N 638.672 -4.94758 -2.66778 0
M  V30 6799 H 630.823 -2.12399 -0.0074788 0
M  V30 6800 H 633.086 -0.94571 -0.0658529 0
M  V30 6801 H 632.792 -3.41743 -0.830947 0
M  V30 6802 H 632.666 -2.83949 -2.483 0
M  V30 6803 H 635.053 -1.86765 -2.2848 0
M  V30 6804 H 635.134 -2.48004 -0.626713 0
M  V30 6805 H 634.778 -4.84987 -1.50833 0
M  V30 6806 H 634.708 -4.20641 -3.1681 0
M  V30 6807 H 637.199 -3.24415 -1.93812 0
M  V30 6808 H 637.512 -6.93318 -3.41365 0
M  V30 6809 H 635.857 -6.23212 -3.07623 0
M  V30 6810 H 639.048 -4.06105 -2.32801 0
M  V30 6811 H 639.221 -5.74317 -3.00107 0
M  V30 6812 N 632.627 0.916307 -1.28225 0
M  V30 6813 C 633.874 1.66518 -1.1523 0
M  V30 6814 C 634.202 1.92178 0.299632 0
M  V30 6815 O 633.457 1.51842 1.2346 0
M  V30 6816 C 633.756 3.03125 -1.8934 0
M  V30 6817 C 633.422 2.97135 -3.39148 0
M  V30 6818 C 632.084 2.95208 -3.80007 0
M  V30 6819 C 634.436 2.87574 -4.34685 0
M  V30 6820 C 631.764 2.81518 -5.14747 0
M  V30 6821 C 634.116 2.75424 -5.69495 0
M  V30 6822 C 632.78 2.71854 -6.09632 0
M  V30 6823 H 632.05 0.609334 -0.421655 0
M  V30 6824 H 634.697 1.06776 -1.58969 0
M  V30 6825 H 633.002 3.66639 -1.38143 0
M  V30 6826 H 634.699 3.59968 -1.76704 0
M  V30 6827 H 631.289 2.99428 -3.06661 0
M  V30 6828 H 635.473 2.88152 -4.04082 0
M  V30 6829 H 630.729 2.77148 -5.44976 0
M  V30 6830 H 634.903 2.66993 -6.43185 0
M  V30 6831 H 632.53 2.61003 -7.1399 0
M  V30 6832 N 634.105 1.10431 1.1244 0
M  V30 6833 C 635.352 0.846717 1.83948 0
M  V30 6834 C 635.68 -0.627709 1.84093 0
M  V30 6835 O 634.935 -1.47876 1.28184 0
M  V30 6836 C 635.234 1.34022 3.3132 0
M  V30 6837 C 634.9 2.82606 3.51347 0
M  V30 6838 C 633.562 3.23182 3.56521 0
M  V30 6839 C 635.914 3.78356 3.58464 0
M  V30 6840 C 633.242 4.58258 3.66356 0
M  V30 6841 C 635.594 5.13234 3.69829 0
M  V30 6842 C 634.258 5.53384 3.73259 0
M  V30 6843 H 633.528 0.309836 0.673114 0
M  V30 6844 H 636.175 1.38091 1.32677 0
M  V30 6845 H 634.48 0.726047 3.85014 0
M  V30 6846 H 636.177 1.11739 3.85118 0
M  V30 6847 H 632.767 2.50212 3.47983 0
M  V30 6848 H 636.951 3.48115 3.53737 0
M  V30 6849 H 632.207 4.88787 3.67284 0
M  V30 6850 H 636.381 5.87272 3.74279 0
M  V30 6851 H 634.008 6.58045 3.80633 0
M  V30 6852 N 635.583 -1.29855 0.893053 0
M  V30 6853 C 636.829 -1.96116 0.516349 0
M  V30 6854 C 637.162 -1.70281 -0.933695 0
M  V30 6855 O 636.437 -1.01205 -1.66096 0
M  V30 6856 C 636.72 -3.51068 0.801455 0
M  V30 6857 C 636.573 -3.86387 2.30272 0
M  V30 6858 C 637.892 -4.39186 0.283423 0
M  V30 6859 H 635.011 -0.712335 0.189072 0
M  V30 6860 H 637.653 -1.53587 1.11852 0
M  V30 6861 H 635.803 -3.87424 0.288949 0
M  V30 6862 H 637.475 -3.60012 2.88425 0
M  V30 6863 H 635.718 -3.34167 2.76613 0
M  V30 6864 H 636.389 -4.94512 2.45279 0
M  V30 6865 H 638.865 -4.09785 0.722187 0
M  V30 6866 H 637.741 -5.46505 0.512169 0
M  V30 6867 H 638.002 -4.34511 -0.815643 0
M  V30 6868 N 637.061 -0.65484 -1.43351 0
M  V30 6869 C 638.009 0.0476784 -2.32551 0
M  V30 6870 C 639.003 0.811403 -1.48703 0
M  V30 6871 O 640.209 0.721621 -1.64902 0
M  V30 6872 H 636.584 0.0342038 -0.751222 0
M  V30 6873 H 638.555 -0.722342 -2.89525 0
M  V30 6874 C 637.304 0.999251 -3.33032 0
M  V30 6875 H 636.627 0.421005 -3.97577 0
M  V30 6876 H 638.067 1.45986 -3.98076 0
M  V30 6877 C 636.526 2.09606 -2.63756 0
M  V30 6878 O 637.056 3.18004 -2.4543 0
M  V30 6879 N 635.262 1.86207 -2.23103 0
M  V30 6880 H 634.809 0.980555 -2.38208 0
M  V30 6881 H 634.767 2.59787 -1.77081 0
M  V30 6882 N 638.539 1.52521 -0.396863 0
M  V30 6883 C 639.955 1.5953 -0.0471659 0
M  V30 6884 C 640.155 1.41044 1.43906 0
M  V30 6885 O 639.211 1.23122 2.20448 0
M  V30 6886 C 640.524 2.95972 -0.531113 0
M  V30 6887 C 642.072 3.09172 -0.488024 0
M  V30 6888 C 642.547 4.48075 -0.948281 0
M  V30 6889 N 644.038 4.54281 -0.9046 0
M  V30 6890 C 644.773 5.60007 -1.23205 0
M  V30 6891 N 644.269 6.73343 -1.63036 0
M  V30 6892 N 646.062 5.50151 -1.15282 0
M  V30 6893 H 638.213 1.62786 -1.36435 0
M  V30 6894 H 640.476 0.76514 -0.559701 0
M  V30 6895 H 640.182 3.14741 -1.56942 0
M  V30 6896 H 640.056 3.77143 0.0657922 0
M  V30 6897 H 642.443 2.90095 0.541211 0
M  V30 6898 H 642.524 2.29937 -1.12083 0
M  V30 6899 H 642.168 4.67894 -1.97578 0
M  V30 6900 H 642.098 5.25788 -0.292412 0
M  V30 6901 H 644.589 3.72918 -0.6116 0
M  V30 6902 H 644.902 7.49992 -1.86365 0
M  V30 6903 H 643.247 6.74655 -1.66929 0
M  V30 6904 H 646.438 4.6049 -0.840602 0
M  V30 6905 H 646.611 6.32444 -1.41133 0
M  V30 6906 N 640.017 0.126909 1.57088 0
M  V30 6907 C 641.264 -0.529168 1.95464 0
M  V30 6908 C 641.592 -1.6618 1.01067 0
M  V30 6909 O 640.847 -1.95667 0.0360254 0
M  V30 6910 C 641.146 -1.095 3.40212 0
M  V30 6911 C 640.812 -0.0829015 4.50824 0
M  V30 6912 C 639.474 0.195377 4.80803 0
M  V30 6913 C 641.826 0.606411 5.1766 0
M  V30 6914 C 639.154 1.16912 5.74933 0
M  V30 6915 C 641.506 1.56884 6.12838 0
M  V30 6916 C 640.17 1.85502 6.41206 0
M  V30 6917 H 639.44 -0.193636 0.715252 0
M  V30 6918 H 642.087 0.209489 1.90351 0
M  V30 6919 H 640.392 -1.91058 3.42059 0
M  V30 6920 H 642.089 -1.61087 3.67222 0
M  V30 6921 H 638.679 -0.309979 4.27478 0
M  V30 6922 H 642.863 0.404597 4.94648 0
M  V30 6923 H 638.119 1.3975 5.95214 0
M  V30 6924 H 642.293 2.10859 6.6371 0
M  V30 6925 H 639.92 2.61109 7.13951 0
M  V30 6926 N 641.495 -1.56914 -0.146875 0
M  V30 6927 C 642.772 -1.74273 -0.888165 0
M  V30 6928 C 643.152 -0.69496 -1.99333 0
M  V30 6929 O 642.5 0.286093 -2.26702 0
M  V30 6930 C 642.71 -3.18336 -1.43051 0
M  V30 6931 C 644.058 -3.80024 -1.89387 0
M  V30 6932 O 645.082 -3.21765 -1.52792 0
M  V30 6933 O 643.941 -4.82367 -2.56874 0
M  V30 6934 H 641.035 -0.712565 -0.419738 0
M  V30 6935 H 643.581 -1.6918 -0.132791 0
M  V30 6936 H 642.353 -3.86092 -0.636274 0
M  V30 6937 H 641.976 -3.27854 -2.24938 0
M  V30 6938 N 642.974 0.416227 -1.52004 0
M  V30 6939 C 644.222 1.16153 -1.65387 0
M  V30 6940 C 644.543 1.91208 -0.382669 0
M  V30 6941 O 643.813 1.86413 0.602231 0
M  V30 6942 H 642.393 0.431765 -0.60958 0
M  V30 6943 H 645.055 0.475151 -1.89019 0
M  V30 6944 H 644.151 1.87952 -2.4916 0
M  V30 6945 N 644.452 1.42507 0.673017 0
M  V30 6946 C 645.677 1.4668 1.46627 0
M  V30 6947 C 646.102 0.080066 1.8793 0
M  V30 6948 O 645.46 -0.921879 1.56112 0
M  V30 6949 C 645.508 2.40091 2.69051 0
M  V30 6950 O 644.612 1.8735 3.67387 0
M  V30 6951 H 643.953 0.496908 0.44043 0
M  V30 6952 H 646.483 1.87215 0.825334 0
M  V30 6953 H 646.493 2.56731 3.17101 0
M  V30 6954 H 645.168 3.4084 2.3833 0
M  V30 6955 H 643.745 1.80274 3.26429 0
M  V30 6956 N 645.93 -0.909495 1.28709 0
M  V30 6957 C 647.177 -1.65905 1.16111 0
M  V30 6958 C 647.505 -1.92334 -0.289436 0
M  V30 6959 O 646.76 -1.52495 -1.22653 0
M  V30 6960 C 647.059 -3.02117 1.90945 0
M  V30 6961 C 646.725 -2.95332 3.40719 0
M  V30 6962 C 645.387 -2.93189 3.81567 0
M  V30 6963 C 647.739 -2.85264 4.36204 0
M  V30 6964 C 645.067 -2.78784 5.16233 0
M  V30 6965 C 647.419 -2.724 5.70948 0
M  V30 6966 C 646.083 -2.68617 6.11066 0
M  V30 6967 H 645.353 -0.60709 0.42488 0
M  V30 6968 H 648 -1.05932 1.59533 0
M  V30 6969 H 646.305 -3.65901 1.40085 0
M  V30 6970 H 648.002 -3.59026 1.7861 0
M  V30 6971 H 644.592 -2.97797 3.08245 0
M  V30 6972 H 648.776 -2.86005 4.05605 0
M  V30 6973 H 644.032 -2.74254 5.46438 0
M  V30 6974 H 648.206 -2.63579 6.44592 0
M  V30 6975 H 645.833 -2.57213 7.15364 0
M  V30 6976 N 647.408 -1.11026 -1.11852 0
M  V30 6977 C 648.371 -0.768006 -2.1595 0
M  V30 6978 C 649.371 0.210538 -1.59416 0
M  V30 6979 O 650.561 -0.0133978 -1.74195 0
M  V30 6980 C 647.693 -0.138678 -3.40618 0
M  V30 6981 H 648.886 -1.69012 -2.4774 0
M  V30 6982 H 646.439 -0.911578 -1.26964 0
M  V30 6983 H 647.174 0.793872 -3.14433 0
M  V30 6984 H 646.959 -0.843012 -3.8293 0
M  V30 6985 H 648.449 0.0848039 -4.17514 0
M  V30 6986 N 648.886 1.2938 -0.899927 0
M  V30 6987 C 650.302 1.48052 -0.596059 0
M  V30 6988 C 650.502 1.82114 0.862372 0
M  V30 6989 O 649.558 1.91774 1.64253 0
M  V30 6990 C 650.871 2.59332 -1.52208 0
M  V30 6991 C 652.419 2.73208 -1.5273 0
M  V30 6992 C 652.894 3.87617 -2.43961 0
M  V30 6993 N 654.385 3.9495 -2.42009 0
M  V30 6994 C 655.12 4.82824 -3.09303 0
M  V30 6995 N 654.616 5.75387 -3.85877 0
M  V30 6996 N 656.409 4.76317 -2.98459 0
M  V30 6997 H 648.56 1.05546 -1.8432 0
M  V30 6998 H 650.823 0.524314 -0.78981 0
M  V30 6999 H 650.529 2.41029 -2.56121 0
M  V30 7000 H 650.403 3.56139 -1.24278 0
M  V30 7001 H 652.79 2.90908 -0.495614 0
M  V30 7002 H 652.871 1.76975 -1.84698 0
M  V30 7003 H 652.515 3.70672 -3.47224 0
M  V30 7004 H 652.445 4.83218 -2.09303 0
M  V30 7005 H 654.936 3.28744 -1.86375 0
M  V30 7006 H 655.249 6.39235 -4.34279 0
M  V30 7007 H 653.594 5.75272 -3.89984 0
M  V30 7008 H 656.785 4.0299 -2.38152 0
M  V30 7009 H 656.958 5.44589 -3.51179 0
M  V30 7010 N 650.364 0.662433 1.43002 0
M  V30 7011 C 651.612 0.179237 2.01304 0
M  V30 7012 C 651.933 -1.21428 1.52579 0
M  V30 7013 O 651.203 -1.81294 0.742252 0
M  V30 7014 H 649.783 0.0632725 0.744316 0
M  V30 7015 H 652.445 0.856169 1.75088 0
M  V30 7016 H 651.541 0.170957 3.11631 0
M  V30 7017 N 651.842 -1.52309 0.404946 0
M  V30 7018 C 653.088 -2.02065 -0.172455 0
M  V30 7019 C 653.421 -1.29022 -1.45145 0
M  V30 7020 O 652.696 -0.395284 -1.90441 0
M  V30 7021 C 652.979 -3.5759 -0.424433 0
M  V30 7022 C 652.832 -4.41287 0.870945 0
M  V30 7023 C 654.151 -4.23186 -1.20837 0
M  V30 7024 H 651.27 -0.734454 -0.0612035 0
M  V30 7025 H 653.912 -1.82236 0.53759 0
M  V30 7026 H 652.062 -3.74617 -1.02929 0
M  V30 7027 H 653.734 -4.3598 1.50729 0
M  V30 7028 H 651.977 -4.07669 1.48284 0
M  V30 7029 H 652.648 -5.48171 0.649083 0
M  V30 7030 H 655.124 -4.10232 -0.696338 0
M  V30 7031 H 654 -5.31953 -1.35343 0
M  V30 7032 H 654.261 -3.81862 -2.22786 0
M  V30 7033 N 653.32 -0.135238 -1.57019 0
M  V30 7034 C 654.731 0.387521 -1.82634 0
M  V30 7035 C 655.082 1.65528 -1.05332 0
M  V30 7036 O 654.207 2.14381 -0.294926 0
M  V30 7037 C 654.802 0.709852 -3.3128 0
M  V30 7038 C 653.361 1.17718 -3.57518 0
M  V30 7039 C 652.508 0.194183 -2.76619 0
M  V30 7040 H 655.459 -0.360126 -1.5456 0
M  V30 7041 H 655.48 1.5657 -3.46794 0
M  V30 7042 H 654.992 -0.213024 -3.87515 0
M  V30 7043 H 653.093 2.1164 -3.06658 0
M  V30 7044 H 653.206 1.11128 -4.66034 0
M  V30 7045 H 651.57 0.684478 -2.4533 0
M  V30 7046 H 652.353 -0.722076 -3.3562 0
M  V30 7047 N 654.798 1.5699 0.138552 0
M  V30 7048 C 656.045 1.83809 0.849732 0
M  V30 7049 C 656.373 0.717409 1.80786 0
M  V30 7050 O 655.628 -0.292897 1.93496 0
M  V30 7051 C 655.927 3.17007 1.65049 0
M  V30 7052 C 655.593 4.43037 0.838398 0
M  V30 7053 C 654.255 4.77262 0.614385 0
M  V30 7054 C 656.607 5.20495 0.271044 0
M  V30 7055 C 653.935 5.864 -0.187552 0
M  V30 7056 C 656.287 6.30476 -0.517979 0
M  V30 7057 C 654.951 6.63245 -0.75249 0
M  V30 7058 H 654.221 0.672605 0.310939 0
M  V30 7059 H 656.868 1.91166 0.112971 0
M  V30 7060 H 655.173 3.05138 2.4576 0
M  V30 7061 H 656.87 3.34975 2.20437 0
M  V30 7062 H 653.46 4.16211 1.02307 0
M  V30 7063 H 657.644 4.94422 0.431371 0
M  V30 7064 H 652.9 6.10226 -0.378659 0
M  V30 7065 H 657.074 6.89686 -0.964694 0
M  V30 7066 H 654.701 7.47648 -1.37573 0
M  V30 7067 N 656.276 -0.40816 1.52223 0
M  V30 7068 C 657.208 -1.51642 1.71864 0
M  V30 7069 C 658.221 -1.51378 0.599056 0
M  V30 7070 O 659.41 -1.55626 0.874239 0
M  V30 7071 C 656.51 -2.90534 1.74481 0
M  V30 7072 C 655.683 -3.14979 3.03491 0
M  V30 7073 C 654.742 -4.33749 2.97907 0
M  V30 7074 O 653.768 -4.30982 3.71811 0
M  V30 7075 N 654.97 -5.38912 2.15764 0
M  V30 7076 H 657.735 -1.35188 2.67478 0
M  V30 7077 H 655.296 -0.597468 1.50472 0
M  V30 7078 H 657.288 -3.68056 1.68275 0
M  V30 7079 H 655.858 -3.00441 0.863363 0
M  V30 7080 H 655.078 -2.25492 3.23337 0
M  V30 7081 H 656.366 -3.28156 3.88833 0
M  V30 7082 H 655.764 -5.44008 1.55152 0
M  V30 7083 H 654.321 -6.15174 2.15415 0
M  V30 7084 N 657.755 -1.42862 -0.66545 0
M  V30 7085 C 658.985 -1.47032 -1.45138 0
M  V30 7086 C 659.393 -0.0829977 -1.89018 0
M  V30 7087 O 658.736 0.914551 -1.59316 0
M  V30 7088 C 658.798 -2.34302 -2.72659 0
M  V30 7089 C 658.462 -3.82034 -2.50796 0
M  V30 7090 C 659.459 -4.73453 -2.14799 0
M  V30 7091 C 657.144 -4.26397 -2.655 0
M  V30 7092 C 659.138 -6.07228 -1.93785 0
M  V30 7093 C 656.825 -5.6023 -2.44103 0
M  V30 7094 C 657.823 -6.50462 -2.08299 0
M  V30 7095 O 657.511 -7.8182 -1.87116 0
M  V30 7096 H 657.243 -0.501969 -0.452772 0
M  V30 7097 H 659.797 -1.88137 -0.82423 0
M  V30 7098 H 658.027 -1.88063 -3.37889 0
M  V30 7099 H 659.716 -2.29818 -3.34572 0
M  V30 7100 H 660.482 -4.4046 -2.03026 0
M  V30 7101 H 656.361 -3.56448 -2.92345 0
M  V30 7102 H 659.905 -6.7762 -1.65763 0
M  V30 7103 H 655.802 -5.92793 -2.55475 0
M  V30 7104 H 656.57 -7.93274 -2.01639 0
M  V30 7105 N 659.233 0.902656 -1.29189 0
M  V30 7106 C 660.181 2.0278 -1.13943 0
M  V30 7107 C 661.175 1.69308 -0.055787 0
M  V30 7108 O 662.381 1.78707 -0.215371 0
M  V30 7109 H 658.756 0.664595 -0.351877 0
M  V30 7110 H 660.727 2.12778 -2.09208 0
M  V30 7111 C 659.476 3.37657 -0.82966 0
M  V30 7112 H 658.799 3.63913 -1.65551 0
M  V30 7113 H 660.239 4.17078 -0.762998 0
M  V30 7114 C 658.698 3.33648 0.466991 0
M  V30 7115 O 659.228 3.72886 1.49395 0
M  V30 7116 N 657.434 2.86745 0.471761 0
M  V30 7117 H 656.981 2.55009 -0.364406 0
M  V30 7118 H 656.939 2.84446 1.33933 0
M  V30 7119 N 660.711 1.11618 1.11262 0
M  V30 7120 C 662.122 0.881942 1.64556 0
M  V30 7121 C 662.473 -0.585442 1.87262 0
M  V30 7122 O 661.598 -1.44795 1.60821 0
M  V30 7123 C 662.193 1.59446 2.98935 0
M  V30 7124 C 660.752 1.40661 3.4913 0
M  V30 7125 C 659.899 1.63593 2.23903 0
M  V30 7126 H 662.85 1.27217 0.94877 0
M  V30 7127 H 662.871 1.04054 3.65996 0
M  V30 7128 H 662.383 2.66241 2.82378 0
M  V30 7129 H 660.484 0.360835 3.70849 0
M  V30 7130 H 660.597 2.15693 4.27801 0
M  V30 7131 H 658.961 1.05944 2.3162 0
M  V30 7132 H 659.744 2.71666 2.09886 0
M  V30 7133 N 662.189 -1.289 0.906776 0
M  V30 7134 C 663.414 -1.99939 0.551303 0
M  V30 7135 C 663.839 -1.67366 -0.858496 0
M  V30 7136 O 663.197 -0.902176 -1.57259 0
M  V30 7137 C 663.245 -3.52523 0.758937 0
M  V30 7138 O 662.349 -4.11983 -0.185308 0
M  V30 7139 H 661.69 -0.628376 0.214568 0
M  V30 7140 H 664.22 -1.64225 1.2203 0
M  V30 7141 H 664.23 -4.02522 0.666329 0
M  V30 7142 H 662.905 -3.75566 1.78671 0
M  V30 7143 H 661.482 -3.72873 -0.0445577 0
M  V30 7144 N 663.667 -0.670007 -1.42649 0
M  V30 7145 C 664.895 -0.19854 -2.05945 0
M  V30 7146 C 665.31 1.14243 -1.50313 0
M  V30 7147 O 664.667 1.70872 -0.641027 0
M  V30 7148 C 664.718 -0.11966 -3.61302 0
M  V30 7149 O 664.439 -1.40764 -4.1487 0
M  V30 7150 C 665.94 0.375878 -4.41704 0
M  V30 7151 H 663.16 -0.0976894 -0.663851 0
M  V30 7152 H 665.704 -0.915392 -1.82868 0
M  V30 7153 H 663.859 0.547851 -3.83507 0
M  V30 7154 H 664.273 -1.27784 -5.08696 0
M  V30 7155 H 665.747 0.379988 -5.50691 0
M  V30 7156 H 666.224 1.41028 -4.15942 0
M  V30 7157 H 666.83 -0.259727 -4.24506 0
M  V30 7158 N 665.145 1.52092 -0.413018 0
M  V30 7159 C 666.393 2.01456 0.161178 0
M  V30 7160 C 666.714 1.30034 1.45314 0
M  V30 7161 O 665.984 0.427435 1.9118 0
M  V30 7162 H 664.564 0.744376 0.0625526 0
M  V30 7163 H 667.226 1.86974 -0.550151 0
M  V30 7164 H 666.322 3.1008 0.354517 0
M  V30 7165 N 666.623 0.143563 1.56945 0
M  V30 7166 C 667.9 -0.553285 1.87612 0
M  V30 7167 C 668.28 -1.83195 1.04894 0
M  V30 7168 O 667.628 -2.28102 0.134773 0
M  V30 7169 C 667.838 -0.822055 3.3918 0
M  V30 7170 C 669.186 -1.16435 4.08324 0
M  V30 7171 O 670.21 -0.911522 3.4434 0
M  V30 7172 O 669.069 -1.63996 5.21313 0
M  V30 7173 H 666.163 -0.281851 0.777489 0
M  V30 7174 H 668.709 0.179916 1.68744 0
M  V30 7175 H 667.481 0.0830265 3.91212 0
M  V30 7176 H 667.104 -1.60956 3.63564 0
M  V30 7177 N 668.101 -1.57061 -0.130224 0
M  V30 7178 C 669.341 -1.86071 -0.845993 0
M  V30 7179 C 669.705 -0.73009 -1.77577 0
M  V30 7180 O 670.906 -0.901663 -2.53226 0
M  V30 7181 C 669.177 -3.20293 -1.58579 0
M  V30 7182 S 670.736 -3.70905 -2.34467 0
M  V30 7183 H 667.554 -0.652434 -0.282579 0
M  V30 7184 H 670.156 -1.95218 -0.10498 0
M  V30 7185 H 668.86 -4.00533 -0.894509 0
M  V30 7186 H 668.391 -3.14195 -2.36739 0
M  V30 7187 H 670.406 -3.41509 -3.59981 0
M  V30 7188 N 669.579 0.400081 -1.52437 0
M  V30 7189 C 670.995 0.739359 -1.41441 0
M  V30 7190 C 671.195 1.94512 -0.526053 0
M  V30 7191 O 670.251 2.525 0.00472502 0
M  V30 7192 C 671.564 0.984824 -2.84116 0
M  V30 7193 C 673.112 1.08698 -2.93519 0
M  V30 7194 C 673.587 1.36515 -4.37181 0
M  V30 7195 N 675.078 1.43361 -4.40457 0
M  V30 7196 C 675.813 1.66528 -5.48686 0
M  V30 7197 N 675.309 1.87239 -6.67018 0
M  V30 7198 N 677.102 1.68617 -5.36213 0
M  V30 7199 H 669.253 -0.393484 -2.08723 0
M  V30 7200 H 671.516 -0.1138 -0.941145 0
M  V30 7201 H 671.222 0.171096 -3.51284 0
M  V30 7202 H 671.096 1.90253 -3.25705 0
M  V30 7203 H 673.483 1.89129 -2.26526 0
M  V30 7204 H 673.564 0.147432 -2.55375 0
M  V30 7205 H 673.208 0.565982 -5.04737 0
M  V30 7206 H 673.138 2.31737 -4.7287 0
M  V30 7207 H 675.629 1.29108 -3.55161 0
M  V30 7208 H 675.942 2.04392 -7.45281 0
M  V30 7209 H 674.287 1.84486 -6.70067 0
M  V30 7210 H 677.478 1.5198 -4.42741 0
M  V30 7211 H 677.651 1.86332 -6.20632 0
M  V30 7212 N 671.057 1.43213 0.657864 0
M  V30 7213 C 672.303 1.44798 1.41991 0
M  V30 7214 C 672.636 0.070256 1.94073 0
M  V30 7215 O 671.911 -0.908177 1.71995 0
M  V30 7216 C 672.194 2.4865 2.60471 0
M  V30 7217 C 672.047 3.95679 2.13911 0
M  V30 7218 C 673.366 2.49292 3.62686 0
M  V30 7219 H 670.485 0.527244 0.514959 0
M  V30 7220 H 673.127 1.74733 0.74621 0
M  V30 7221 H 671.277 2.23254 3.17946 0
M  V30 7222 H 672.949 4.32116 1.61472 0
M  V30 7223 H 671.192 4.08733 1.45325 0
M  V30 7224 H 671.863 4.6395 2.99089 0
M  V30 7225 H 674.339 2.71917 3.14961 0
M  V30 7226 H 673.215 3.23907 4.43143 0
M  V30 7227 H 673.476 1.52502 4.14964 0
M  V30 7228 N 672.536 -0.895792 1.29666 0
M  V30 7229 C 673.761 -1.68528 1.20885 0
M  V30 7230 C 674.186 -1.8673 -0.226595 0
M  V30 7231 O 673.544 -1.39044 -1.16347 0
M  V30 7232 C 673.592 -3.04512 1.93144 0
M  V30 7233 O 672.696 -3.92963 1.25115 0
M  V30 7234 H 672.037 -0.515371 0.418675 0
M  V30 7235 H 674.567 -1.11878 1.71302 0
M  V30 7236 H 674.577 -3.54628 2.0175 0
M  V30 7237 H 673.252 -2.90582 2.97548 0
M  V30 7238 H 671.829 -3.51399 1.24794 0
M  V30 7239 N 674.014 -1.12206 -1.10668 0
M  V30 7240 C 675.262 -0.874144 -1.82217 0
M  V30 7241 C 675.583 0.601736 -1.85484 0
M  V30 7242 O 674.853 1.43725 -1.33116 0
M  V30 7243 H 673.433 -0.320404 -0.674797 0
M  V30 7244 H 676.095 -1.41606 -1.33917 0
M  V30 7245 H 675.191 -1.25349 -2.85822 0
M  V30 7246 N 675.492 1.28418 -0.913599 0
M  V30 7247 C 676.72 1.99106 -0.562536 0
M  V30 7248 C 677.135 1.68273 0.856137 0
M  V30 7249 O 676.492 0.935401 1.56705 0
M  V30 7250 C 676.543 3.5338 -0.761903 0
M  V30 7251 O 676.264 3.83127 -2.12475 0
M  V30 7252 C 677.765 4.41328 -0.417651 0
M  V30 7253 H 674.985 0.635798 -0.214481 0
M  V30 7254 H 677.529 1.63618 -1.22676 0
M  V30 7255 H 675.684 3.8713 -0.144676 0
M  V30 7256 H 676.098 4.77763 -2.16431 0
M  V30 7257 H 677.572 5.48642 -0.607919 0
M  V30 7258 H 678.049 4.34422 0.646108 0
M  V30 7259 H 678.655 4.13074 -1.01241 0
M  V30 7260 N 676.97 0.677563 1.42291 0
M  V30 7261 C 677.933 0.0101085 2.29198 0
M  V30 7262 C 678.933 -0.726219 1.43467 0
M  V30 7263 O 680.123 -0.563807 1.64824 0
M  V30 7264 C 677.255 -0.996316 3.26016 0
M  V30 7265 H 678.448 0.775071 2.89711 0
M  V30 7266 H 676.001 0.440065 1.49977 0
M  V30 7267 H 676.736 -1.78967 2.70446 0
M  V30 7268 H 676.521 -0.471687 3.89253 0
M  V30 7269 H 678.011 -1.46167 3.91184 0
M  V30 7270 N 678.448 -1.51871 0.421078 0
M  V30 7271 C 679.411 -2.25914 -0.386712 0
M  V30 7272 C 680.411 -1.28733 -0.963555 0
M  V30 7273 O 681.601 -1.52579 -0.840556 0
M  V30 7274 C 678.733 -3.03853 -1.54551 0
M  V30 7275 H 679.926 -2.98754 0.261978 0
M  V30 7276 H 677.479 -1.5533 0.173862 0
M  V30 7277 H 678.214 -2.35392 -2.23072 0
M  V30 7278 H 677.999 -3.75215 -1.13824 0
M  V30 7279 H 679.489 -3.59984 -2.11663 0
M  V30 7280 N 679.926 -0.151884 -1.56866 0
M  V30 7281 C 680.889 0.771861 -2.15812 0
M  V30 7282 C 681.889 1.17181 -1.10115 0
M  V30 7283 O 683.079 1.09194 -1.35729 0
M  V30 7284 C 680.211 2.04806 -2.7252 0
M  V30 7285 H 681.404 0.259021 -2.98779 0
M  V30 7286 H 678.957 0.097588 -1.55995 0
M  V30 7287 H 679.692 2.60445 -1.93233 0
M  V30 7288 H 679.477 1.77044 -3.49854 0
M  V30 7289 H 680.967 2.70771 -3.1792 0
M  V30 7290 N 681.404 1.57128 0.121893 0
M  V30 7291 C 682.334 2.03165 1.15092 0
M  V30 7292 C 683.315 0.915587 1.43356 0
M  V30 7293 O 684.5 1.1851 1.53847 0
M  V30 7294 C 681.63 2.43352 2.47784 0
M  V30 7295 C 680.584 3.58376 2.33989 0
M  V30 7296 C 679.91 3.84454 3.71617 0
M  V30 7297 C 681.21 4.90199 1.80283 0
M  V30 7298 H 682.904 2.89382 0.768023 0
M  V30 7299 H 680.45 1.39218 0.367998 0
M  V30 7300 H 682.403 2.74163 3.20019 0
M  V30 7301 H 681.127 1.54103 2.87958 0
M  V30 7302 H 679.786 3.2777 1.64202 0
M  V30 7303 H 679.434 2.92414 4.09271 0
M  V30 7304 H 679.134 4.61877 3.6324 0
M  V30 7305 H 680.658 4.17714 4.45362 0
M  V30 7306 H 682.072 5.19565 2.42333 0
M  V30 7307 H 680.469 5.71601 1.82735 0
M  V30 7308 H 681.539 4.78904 0.760184 0
M  V30 7309 N 682.882 -0.391992 1.52647 0
M  V30 7310 C 684.128 -1.139 1.67793 0
M  V30 7311 C 684.461 -1.89711 0.41514 0
M  V30 7312 O 683.736 -1.85431 -0.586979 0
M  V30 7313 C 684.019 -2.11966 2.91105 0
M  V30 7314 C 683.872 -1.39939 4.27478 0
M  V30 7315 C 685.191 -3.1243 3.09961 0
M  V30 7316 H 682.31 -0.412707 0.610608 0
M  V30 7317 H 684.952 -0.422725 1.85238 0
M  V30 7318 H 683.102 -2.73048 2.76364 0
M  V30 7319 H 684.774 -0.818439 4.53982 0
M  V30 7320 H 683.017 -0.701246 4.28095 0
M  V30 7321 H 683.688 -2.1158 5.09841 0
M  V30 7322 H 686.164 -2.61435 3.23714 0
M  V30 7323 H 685.04 -3.78294 3.97725 0
M  V30 7324 H 685.301 -3.81127 2.24042 0
M  V30 7325 N 684.36 -1.4356 -0.65026 0
M  V30 7326 C 685.608 -1.45046 -1.40734 0
M  V30 7327 C 685.929 -0.0769822 -1.94848 0
M  V30 7328 O 685.199 0.888098 -1.74613 0
M  V30 7329 H 683.779 -0.534034 -0.522318 0
M  V30 7330 H 686.441 -1.79186 -0.766703 0
M  V30 7331 H 685.537 -2.16476 -2.24822 0
M  V30 7332 N 685.838 0.888903 -1.30139 0
M  V30 7333 C 686.768 2.01046 -1.18755 0
M  V30 7334 C 687.749 1.69916 -0.0791438 0
M  V30 7335 O 688.934 1.92445 -0.260498 0
M  V30 7336 C 686.064 3.36109 -0.874518 0
M  V30 7337 C 685.018 3.81486 -1.94043 0
M  V30 7338 C 684.344 5.13796 -1.48047 0
M  V30 7339 C 685.644 4.00637 -3.35093 0
M  V30 7340 H 687.338 2.10828 -2.12584 0
M  V30 7341 H 684.884 1.01298 -1.02346 0
M  V30 7342 H 686.837 4.14089 -0.781548 0
M  V30 7343 H 685.561 3.26449 0.0994519 0
M  V30 7344 H 684.22 3.05731 -2.02297 0
M  V30 7345 H 683.868 5.0056 -0.494878 0
M  V30 7346 H 683.568 5.45127 -2.19341 0
M  V30 7347 H 685.092 5.94305 -1.40121 0
M  V30 7348 H 686.506 4.69067 -3.2962 0
M  V30 7349 H 684.903 4.43339 -4.04438 0
M  V30 7350 H 685.973 3.0462 -3.77273 0
M  V30 7351 N 687.317 1.12792 1.10072 0
M  V30 7352 C 688.28 0.802264 2.14701 0
M  V30 7353 C 689.28 -0.18515 1.59731 0
M  V30 7354 O 690.47 0.041109 1.74151 0
M  V30 7355 C 687.602 0.19285 3.40354 0
M  V30 7356 H 688.795 1.72932 2.45019 0
M  V30 7357 H 686.348 0.931662 1.25498 0
M  V30 7358 H 687.083 -0.743748 3.15656 0
M  V30 7359 H 686.868 0.903827 3.81541 0
M  V30 7360 H 688.358 -0.0183704 4.17596 0
M  V30 7361 N 688.795 -1.27931 0.920396 0
M  V30 7362 C 689.727 -2.26175 0.371169 0
M  V30 7363 C 690.74 -1.55122 -0.494065 0
M  V30 7364 O 691.929 -1.75825 -0.30787 0
M  V30 7365 C 689.029 -3.35376 -0.487481 0
M  V30 7366 C 688.202 -4.35943 0.356772 0
M  V30 7367 C 687.261 -5.24374 -0.438042 0
M  V30 7368 O 686.287 -5.68998 0.151715 0
M  V30 7369 N 687.489 -5.53823 -1.73956 0
M  V30 7370 H 690.254 -2.73938 1.21564 0
M  V30 7371 H 687.815 -1.41482 0.787047 0
M  V30 7372 H 689.807 -3.91476 -1.02609 0
M  V30 7373 H 688.377 -2.87269 -1.23269 0
M  V30 7374 H 687.597 -3.7921 1.07672 0
M  V30 7375 H 688.885 -5.0015 0.934206 0
M  V30 7376 H 688.283 -5.19413 -2.24114 0
M  V30 7377 H 686.84 -6.12653 -2.22486 0
M  V30 7378 N 690.273 -0.685099 -1.4193 0
M  V30 7379 C 691.55 -0.140152 -1.95097 0
M  V30 7380 C 691.93 1.34745 -1.62502 0
M  V30 7381 O 691.278 2.08872 -0.926534 0
M  V30 7382 C 691.488 -0.420268 -3.4646 0
M  V30 7383 C 692.836 -0.342338 -4.23218 0
M  V30 7384 O 693.86 -0.354592 -3.54431 0
M  V30 7385 O 692.719 -0.293404 -5.45712 0
M  V30 7386 H 689.813 -0.00885998 -0.826953 0
M  V30 7387 H 692.359 -0.760539 -1.51703 0
M  V30 7388 H 691.131 -1.45037 -3.63428 0
M  V30 7389 H 690.754 0.231616 -3.96925 0
M  V30 7390 N 691.751 1.51645 -0.429126 0
M  V30 7391 C 693.028 1.94579 0.199614 0
M  V30 7392 C 693.408 1.3673 1.60836 0
M  V30 7393 O 692.756 0.551062 2.21756 0
M  V30 7394 C 692.966 3.48506 0.185685 0
M  V30 7395 C 694.314 4.22756 0.395282 0
M  V30 7396 O 695.338 3.55219 0.264165 0
M  V30 7397 O 694.197 5.42555 0.655475 0
M  V30 7398 H 691.291 0.816007 0.134393 0
M  V30 7399 H 693.837 1.62577 -0.486513 0
M  V30 7400 H 692.609 3.83045 -0.799508 0
M  V30 7401 H 692.232 3.86927 0.91507 0
M  V30 7402 N 693.229 0.160201 1.56784 0
M  V30 7403 C 694.64 -0.358417 1.83227 0
M  V30 7404 C 694.991 -1.63831 1.07952 0
M  V30 7405 O 694.116 -2.13885 0.328995 0
M  V30 7406 C 694.711 -0.657058 3.32368 0
M  V30 7407 C 693.27 -1.12015 3.59346 0
M  V30 7408 C 692.417 -0.15015 2.76893 0
M  V30 7409 H 695.368 0.384669 1.53967 0
M  V30 7410 H 695.389 -1.51033 3.49241 0
M  V30 7411 H 694.901 0.274647 3.87127 0
M  V30 7412 H 693.002 -2.06734 3.09987 0
M  V30 7413 H 693.115 -1.037 4.67743 0
M  V30 7414 H 691.479 -0.645361 2.46388 0
M  V30 7415 H 692.262 0.775379 3.34429 0
M  V30 7416 N 694.707 -1.5719 -0.113559 0
M  V30 7417 C 695.657 -1.97166 -1.14497 0
M  V30 7418 C 696.641 -0.847413 -1.36776 0
M  V30 7419 O 697.833 -1.11114 -1.37777 0
M  V30 7420 C 694.962 -2.38411 -2.47013 0
M  V30 7421 C 694.048 -3.5748 -2.28185 0
M  V30 7422 N 694.439 -4.72998 -1.79182 0
M  V30 7423 C 692.737 -3.63218 -2.58821 0
M  V30 7424 C 693.438 -5.55007 -1.74191 0
M  V30 7425 N 692.414 -4.9765 -2.18735 0
M  V30 7426 H 696.216 -2.83937 -0.758733 0
M  V30 7427 H 693.73 -1.59191 -0.321234 0
M  V30 7428 H 695.727 -2.65269 -3.21618 0
M  V30 7429 H 694.387 -1.53007 -2.8639 0
M  V30 7430 H 695.398 -4.96109 -1.48649 0
M  V30 7431 H 692.075 -2.88434 -3.01847 0
M  V30 7432 H 693.465 -6.57678 -1.37512 0
M  V30 7433 N 696.185 0.383891 -1.52853 0
M  V30 7434 C 697.148 1.45197 -1.77343 0
M  V30 7435 C 698.148 1.47362 -0.643522 0
M  V30 7436 O 699.338 1.48443 -0.911613 0
M  V30 7437 C 696.47 2.8445 -1.87885 0
M  V30 7438 H 697.663 1.24764 -2.72716 0
M  V30 7439 H 695.216 0.615939 -1.43652 0
M  V30 7440 H 695.951 3.10222 -0.94515 0
M  V30 7441 H 695.736 2.8428 -2.70051 0
M  V30 7442 H 697.226 3.61832 -2.08488 0
M  V30 7443 N 697.663 1.43903 0.642637 0
M  V30 7444 C 698.909 1.46296 1.40447 0
M  V30 7445 C 699.242 0.0908361 1.93987 0
M  V30 7446 O 698.517 -0.889884 1.72949 0
M  V30 7447 C 698.8 2.51399 2.57819 0
M  V30 7448 C 698.653 3.97926 2.09702 0
M  V30 7449 C 699.972 2.53125 3.60022 0
M  V30 7450 H 697.091 0.532676 0.509338 0
M  V30 7451 H 699.733 1.75515 0.727635 0
M  V30 7452 H 697.883 2.26614 3.1556 0
M  V30 7453 H 699.555 4.33804 1.5688 0
M  V30 7454 H 697.798 4.10252 1.40982 0
M  V30 7455 H 698.469 4.67096 2.94152 0
M  V30 7456 H 700.945 2.75242 3.12059 0
M  V30 7457 H 699.821 3.28589 4.39682 0
M  V30 7458 H 700.082 1.56895 4.13324 0
M  V30 7459 N 699.141 -0.881989 1.30609 0
M  V30 7460 C 700.418 -1.61563 1.10258 0
M  V30 7461 C 700.798 -2.08228 -0.347053 0
M  V30 7462 O 700.146 -1.85151 -1.33908 0
M  V30 7463 C 700.356 -2.78287 2.10612 0
M  V30 7464 C 701.704 -3.48545 2.4249 0
M  V30 7465 O 702.728 -2.88479 2.08945 0
M  V30 7466 O 701.587 -4.56873 2.99883 0
M  V30 7467 H 698.681 -0.710238 0.423663 0
M  V30 7468 H 701.227 -0.928503 1.42045 0
M  V30 7469 H 699.999 -2.41131 3.08174 0
M  V30 7470 H 699.622 -3.54695 1.79659 0
M  V30 7471 N 700.619 -1.13374 -1.09472 0
M  V30 7472 C 702.035 -0.871846 -1.33682 0
M  V30 7473 C 702.235 0.492847 -1.9538 0
M  V30 7474 O 701.291 1.23946 -2.19985 0
M  V30 7475 C 702.604 -1.99608 -2.24893 0
M  V30 7476 C 704.152 -2.02812 -2.38404 0
M  V30 7477 C 704.627 -3.14497 -3.3295 0
M  V30 7478 N 706.118 -3.14004 -3.40523 0
M  V30 7479 C 706.853 -3.97061 -4.13679 0
M  V30 7480 N 706.349 -4.90131 -4.89636 0
M  V30 7481 N 708.142 -3.85162 -4.09398 0
M  V30 7482 H 700.293 -2.01288 -0.677995 0
M  V30 7483 H 702.556 -0.876492 -0.361201 0
M  V30 7484 H 702.262 -2.98 -1.86786 0
M  V30 7485 H 702.136 -1.90981 -3.25278 0
M  V30 7486 H 704.523 -1.05034 -2.75775 0
M  V30 7487 H 704.604 -2.15511 -1.37799 0
M  V30 7488 H 704.248 -4.12514 -2.96302 0
M  V30 7489 H 704.178 -2.99035 -4.33458 0
M  V30 7490 H 706.669 -2.46587 -2.86362 0
M  V30 7491 H 706.982 -5.49996 -5.42885 0
M  V30 7492 H 705.327 -4.94138 -4.88726 0
M  V30 7493 H 708.518 -3.11779 -3.49158 0
M  V30 7494 H 708.691 -4.5012 -4.6615 0
M  V30 7495 N 702.098 1.27442 -0.927168 0
M  V30 7496 C 703.347 1.93679 -0.563146 0
M  V30 7497 C 703.66 1.73673 0.899837 0
M  V30 7498 O 704.866 2.34247 1.37262 0
M  V30 7499 C 703.322 3.46961 -0.95636 0
M  V30 7500 C 702.93 3.75724 -2.43999 0
M  V30 7501 C 704.674 4.19282 -0.663565 0
M  V30 7502 C 702.581 5.22378 -2.77263 0
M  V30 7503 H 701.511 0.725059 -0.206894 0
M  V30 7504 H 704.162 1.44743 -1.12791 0
M  V30 7505 H 702.544 3.94703 -0.320254 0
M  V30 7506 H 703.718 3.38741 -3.12396 0
M  V30 7507 H 702.033 3.16605 -2.70463 0
M  V30 7508 H 704.63 5.27265 -0.888596 0
M  V30 7509 H 704.973 4.14382 0.399198 0
M  V30 7510 H 705.506 3.7736 -1.25875 0
M  V30 7511 H 702.245 5.32367 -3.82446 0
M  V30 7512 H 701.765 5.6051 -2.13516 0
M  V30 7513 H 703.444 5.9025 -2.64979 0
M  V30 7514 N 703.576 0.692616 1.41565 0
M  V30 7515 C 704.523 0.0254264 2.30786 0
M  V30 7516 C 705.493 -0.774347 1.46946 0
M  V30 7517 O 706.678 -0.742981 1.7574 0
M  V30 7518 C 703.818 -0.907123 3.32964 0
M  V30 7519 C 702.931 -0.0992784 4.31886 0
M  V30 7520 C 702.066 -1.0292 5.21134 0
M  V30 7521 C 701.105 -0.214088 6.11725 0
M  V30 7522 N 700.242 -1.09766 6.93467 0
M  V30 7523 H 705.082 0.792036 2.87282 0
M  V30 7524 H 702.619 0.4023 1.41492 0
M  V30 7525 H 704.577 -1.46181 3.90752 0
M  V30 7526 H 703.207 -1.64016 2.78026 0
M  V30 7527 H 702.259 0.572287 3.76071 0
M  V30 7528 H 703.571 0.532782 4.95946 0
M  V30 7529 H 702.725 -1.65321 5.83741 0
M  V30 7530 H 701.464 -1.69512 4.57293 0
M  V30 7531 H 700.469 0.42302 5.4817 0
M  V30 7532 H 701.694 0.447995 6.77621 0
M  V30 7533 H 699.64 -1.74965 6.32237 0
M  V30 7534 H 699.557 -0.521099 7.54202 0
M  V30 7535 H 700.825 -1.70858 7.60544 0
M  V30 7536 N 705.054 -1.51416 0.437162 0
M  V30 7537 C 705.984 -2.30631 -0.364922 0
M  V30 7538 C 706.965 -1.36037 -1.02118 0
M  V30 7539 O 708.15 -1.64956 -1.02485 0
M  V30 7540 C 705.28 -3.1482 -1.46648 0
M  V30 7541 C 704.234 -4.17691 -0.933717 0
M  V30 7542 C 703.56 -4.904 -2.13101 0
M  V30 7543 C 704.86 -5.2229 0.0317201 0
M  V30 7544 H 706.554 -2.97932 0.29614 0
M  V30 7545 H 704.1 -1.4328 0.143865 0
M  V30 7546 H 706.053 -3.69017 -2.03481 0
M  V30 7547 H 704.777 -2.4534 -2.15583 0
M  V30 7548 H 703.436 -3.64545 -0.387602 0
M  V30 7549 H 703.084 -4.17423 -2.80654 0
M  V30 7550 H 702.784 -5.59962 -1.78092 0
M  V30 7551 H 704.308 -5.4742 -2.70487 0
M  V30 7552 H 705.722 -5.7156 -0.446302 0
M  V30 7553 H 704.119 -5.99378 0.29437 0
M  V30 7554 H 705.189 -4.75131 0.968447 0
M  V30 7555 N 706.532 -0.168513 -1.56696 0
M  V30 7556 C 707.462 0.758563 -2.20835 0
M  V30 7557 C 708.443 1.24121 -1.1631 0
M  V30 7558 O 709.628 1.29487 -1.4473 0
M  V30 7559 C 706.758 1.9892 -2.8469 0
M  V30 7560 C 705.712 1.64252 -3.95228 0
M  V30 7561 C 705.038 2.94757 -4.46119 0
M  V30 7562 C 706.338 0.872675 -5.14958 0
M  V30 7563 H 708.032 0.223953 -2.98561 0
M  V30 7564 H 705.578 0.106277 -1.43607 0
M  V30 7565 H 707.531 2.64275 -3.28233 0
M  V30 7566 H 706.255 2.5479 -2.04327 0
M  V30 7567 H 704.914 1.01266 -3.52336 0
M  V30 7568 H 704.562 3.48662 -3.62552 0
M  V30 7569 H 704.262 2.72316 -5.2069 0
M  V30 7570 H 705.786 3.61147 -4.92347 0
M  V30 7571 H 707.2 1.42875 -5.55211 0
M  V30 7572 H 705.597 0.747402 -5.95428 0
M  V30 7573 H 706.667 -0.131535 -4.84722 0
M  V30 7574 N 708.01 1.57248 0.105221 0
M  V30 7575 C 709.24 1.89492 0.823175 0
M  V30 7576 C 709.648 0.75934 1.73294 0
M  V30 7577 O 708.991 -0.278182 1.81581 0
M  V30 7578 C 709.053 3.16891 1.69765 0
M  V30 7579 C 708.717 4.46787 0.960769 0
M  V30 7580 C 709.714 5.19061 0.295218 0
M  V30 7581 C 707.399 4.93467 0.937854 0
M  V30 7582 C 709.393 6.36246 -0.383393 0
M  V30 7583 C 707.08 6.10566 0.255452 0
M  V30 7584 C 708.078 6.81804 -0.404003 0
M  V30 7585 O 707.766 7.96673 -1.07549 0
M  V30 7586 H 707.498 0.631512 0.24118 0
M  V30 7587 H 710.052 2.05203 0.0899655 0
M  V30 7588 H 708.282 2.973 2.47285 0
M  V30 7589 H 709.971 3.35046 2.29126 0
M  V30 7590 H 710.737 4.84044 0.304448 0
M  V30 7591 H 706.616 4.37913 1.44058 0
M  V30 7592 H 710.16 6.91787 -0.898696 0
M  V30 7593 H 706.057 6.45039 0.244032 0
M  V30 7594 H 706.825 8.12596 -0.981355 0
M  V30 7595 N 709.488 -0.375779 1.53054 0
M  V30 7596 C 710.713 -1.14484 1.7294 0
M  V30 7597 C 711.138 -1.82572 0.452668 0
M  V30 7598 O 710.496 -1.71343 -0.592567 0
M  V30 7599 C 710.544 -2.15857 2.88857 0
M  V30 7600 O 709.648 -3.22725 2.56753 0
M  V30 7601 H 708.989 -0.332666 0.574656 0
M  V30 7602 H 711.519 -0.436025 1.999 0
M  V30 7603 H 711.529 -2.59631 3.14731 0
M  V30 7604 H 710.204 -1.65689 3.81471 0
M  V30 7605 H 708.781 -2.83996 2.41663 0
M  V30 7606 N 710.966 -1.44241 -0.634997 0
M  V30 7607 C 712.215 -1.46102 -1.39058 0
M  V30 7608 C 712.528 -0.0959909 -1.95364 0
M  V30 7609 O 713.734 0.00788751 -2.71499 0
M  V30 7610 C 712.19 -2.57195 -2.51751 0
M  V30 7611 C 711.798 -3.99888 -2.01974 0
M  V30 7612 C 713.542 -2.68272 -3.28984 0
M  V30 7613 C 711.449 -5.02412 -3.11987 0
M  V30 7614 H 710.379 -0.543556 -0.522554 0
M  V30 7615 H 713.03 -1.70294 -0.683538 0
M  V30 7616 H 711.412 -2.26237 -3.25012 0
M  V30 7617 H 712.586 -4.40396 -1.35604 0
M  V30 7618 H 710.901 -3.93019 -1.37568 0
M  V30 7619 H 713.498 -3.42042 -4.10988 0
M  V30 7620 H 713.841 -1.73957 -3.78212 0
M  V30 7621 H 714.374 -2.98622 -2.62812 0
M  V30 7622 H 711.113 -5.98342 -2.67707 0
M  V30 7623 H 710.633 -4.66501 -3.77011 0
M  V30 7624 H 712.312 -5.25939 -3.76825 0
M  V30 7625 N 712.444 0.87505 -1.31075 0
M  V30 7626 C 713.407 1.96333 -1.18263 0
M  V30 7627 C 714.407 1.60416 -0.111106 0
M  V30 7628 O 715.597 1.7044 -0.359987 0
M  V30 7629 C 712.729 3.31036 -0.81414 0
M  V30 7630 H 713.922 2.09125 -2.14958 0
M  V30 7631 H 711.475 1.06271 -1.14614 0
M  V30 7632 H 712.21 3.23944 0.151875 0
M  V30 7633 H 711.995 3.58476 -1.58862 0
M  V30 7634 H 713.485 4.10842 -0.748249 0
M  V30 7635 N 713.922 1.13953 1.08869 0
M  V30 7636 C 714.852 0.844824 2.17681 0
M  V30 7637 C 715.833 -0.198213 1.68941 0
M  V30 7638 O 717.018 -0.0559073 1.9412 0
M  V30 7639 C 714.148 0.316325 3.45856 0
M  V30 7640 C 713.102 1.29426 4.07962 0
M  V30 7641 C 712.428 0.625275 5.31031 0
M  V30 7642 C 713.728 2.65484 4.49795 0
M  V30 7643 H 715.422 1.75471 2.42591 0
M  V30 7644 H 712.968 0.845116 1.16592 0
M  V30 7645 H 714.921 0.0977876 4.21287 0
M  V30 7646 H 713.645 -0.628972 3.20486 0
M  V30 7647 H 712.304 1.49889 3.34558 0
M  V30 7648 H 711.952 -0.325678 5.01945 0
M  V30 7649 H 711.652 1.27777 5.73539 0
M  V30 7650 H 713.176 0.416152 6.0918 0
M  V30 7651 H 714.59 2.48957 5.16424 0
M  V30 7652 H 712.987 3.26963 5.03205 0
M  V30 7653 H 714.057 3.22717 3.61914 0
M  V30 7654 N 715.4 -1.26948 0.933913 0
M  V30 7655 C 716.625 -1.98724 0.593589 0
M  V30 7656 C 717.05 -1.6915 -0.822801 0
M  V30 7657 O 716.408 -0.93533 -1.5531 0
M  V30 7658 C 716.456 -3.50834 0.833542 0
M  V30 7659 O 715.56 -4.12284 -0.0978788 0
M  V30 7660 H 714.901 -0.623683 0.227849 0
M  V30 7661 H 717.431 -1.61599 1.25486 0
M  V30 7662 H 717.441 -4.01018 0.75156 0
M  V30 7663 H 716.116 -3.71691 1.86597 0
M  V30 7664 H 714.693 -3.72884 0.0345443 0
M  V30 7665 N 716.879 -0.700114 -1.41195 0
M  V30 7666 C 718.107 -0.242179 -2.05478 0
M  V30 7667 C 718.522 1.11029 -1.52702 0
M  V30 7668 O 717.879 1.69473 -0.677127 0
M  V30 7669 C 717.93 -0.196271 -3.60967 0
M  V30 7670 O 717.651 -1.49532 -4.11791 0
M  V30 7671 C 719.152 0.282102 -4.42401 0
M  V30 7672 H 716.372 -0.111749 -0.661629 0
M  V30 7673 H 718.916 -0.953975 -1.80885 0
M  V30 7674 H 717.071 0.46638 -3.84582 0
M  V30 7675 H 717.485 -1.38545 -5.05871 0
M  V30 7676 H 718.959 0.263093 -5.51373 0
M  V30 7677 H 719.436 1.32174 -4.1884 0
M  V30 7678 H 720.042 -0.349712 -4.2386 0
M  V30 7679 N 718.357 1.51182 -0.445186 0
M  V30 7680 C 719.605 2.01753 0.11841 0
M  V30 7681 C 719.926 1.33087 1.42523 0
M  V30 7682 O 719.196 0.467891 1.9023 0
M  V30 7683 H 717.776 0.745536 0.0467492 0
M  V30 7684 H 720.438 1.85765 -0.589688 0
M  V30 7685 H 719.534 3.10762 0.288665 0
M  V30 7686 N 719.835 0.176821 1.56605 0
M  V30 7687 C 721.083 -0.465793 1.96659 0
M  V30 7688 C 721.404 -1.63406 1.06412 0
M  V30 7689 O 720.674 -1.95457 0.131603 0
M  V30 7690 H 719.254 -0.175072 0.726195 0
M  V30 7691 H 721.916 0.25929 1.93168 0
M  V30 7692 H 721.012 -0.822138 3.01077 0
M  V30 7693 N 721.313 -1.57302 -0.09688 0
M  V30 7694 C 722.243 -2.0497 -1.11846 0
M  V30 7695 C 723.224 -0.938278 -1.41882 0
M  V30 7696 O 724.409 -1.20943 -1.51942 0
M  V30 7697 C 721.539 -2.47264 -2.43881 0
M  V30 7698 C 720.493 -3.62053 -2.28257 0
M  V30 7699 C 719.819 -3.90318 -3.65453 0
M  V30 7700 C 721.119 -4.93005 -1.72461 0
M  V30 7701 H 722.813 -2.90567 -0.721888 0
M  V30 7702 H 720.359 -1.39786 -0.345803 0
M  V30 7703 H 722.312 -2.7922 -3.15617 0
M  V30 7704 H 721.036 -1.58664 -2.8547 0
M  V30 7705 H 719.695 -3.30341 -1.58967 0
M  V30 7706 H 719.343 -2.98889 -4.04567 0
M  V30 7707 H 719.043 -4.67597 -3.55846 0
M  V30 7708 H 720.567 -4.24747 -4.3866 0
M  V30 7709 H 721.981 -5.23354 -2.34036 0
M  V30 7710 H 720.378 -5.74436 -1.73618 0
M  V30 7711 H 721.448 -4.80053 -0.683898 0
M  V30 7712 N 722.791 0.367657 -1.53252 0
M  V30 7713 C 724.202 0.944563 -1.61043 0
M  V30 7714 C 724.553 1.90325 -0.476546 0
M  V30 7715 O 723.678 2.12721 0.397333 0
M  V30 7716 C 724.273 1.71992 -2.91898 0
M  V30 7717 C 722.832 2.2462 -3.02031 0
M  V30 7718 C 721.979 1.05799 -2.56324 0
M  V30 7719 H 724.93 0.146516 -1.58022 0
M  V30 7720 H 724.951 2.58095 -2.79584 0
M  V30 7721 H 724.463 1.02192 -3.74404 0
M  V30 7722 H 722.564 2.97668 -2.24108 0
M  V30 7723 H 722.677 2.52644 -4.07073 0
M  V30 7724 H 721.041 1.42435 -2.1115 0
M  V30 7725 H 721.824 0.375008 -3.41246 0
M  V30 7726 N 724.269 1.44576 0.627338 0
M  V30 7727 C 725.199 1.54562 1.75022 0
M  V30 7728 C 726.18 0.398378 1.65369 0
M  V30 7729 O 727.365 0.61899 1.84071 0
M  V30 7730 C 724.495 1.49309 3.13567 0
M  V30 7731 C 723.449 2.62549 3.38012 0
M  V30 7732 C 722.775 2.42348 4.76625 0
M  V30 7733 C 724.075 4.04678 3.30202 0
M  V30 7734 H 725.769 2.4855 1.66922 0
M  V30 7735 H 723.315 1.19624 0.801636 0
M  V30 7736 H 725.268 1.54895 3.919 0
M  V30 7737 H 723.992 0.518392 3.2246 0
M  V30 7738 H 722.651 2.56358 2.62061 0
M  V30 7739 H 722.299 1.43062 4.82226 0
M  V30 7740 H 721.999 3.18273 4.93939 0
M  V30 7741 H 723.523 2.49758 5.57183 0
M  V30 7742 H 724.937 4.12217 3.98435 0
M  V30 7743 H 723.334 4.80836 3.5905 0
M  V30 7744 H 724.404 4.2798 2.27949 0
M  V30 7745 N 725.747 -0.868086 1.31537 0
M  V30 7746 C 726.996 -1.61607 1.20689 0
M  V30 7747 C 727.309 -1.94204 -0.233275 0
M  V30 7748 O 728.515 -2.67515 -0.463465 0
M  V30 7749 C 726.971 -2.91348 2.11292 0
M  V30 7750 C 726.579 -2.66227 3.60315 0
M  V30 7751 C 728.323 -3.69344 2.09249 0
M  V30 7752 C 726.23 -3.91887 4.42921 0
M  V30 7753 H 725.16 -0.606373 0.448138 0
M  V30 7754 H 727.811 -0.959666 1.56405 0
M  V30 7755 H 726.193 -3.58374 1.68477 0
M  V30 7756 H 727.367 -2.07597 4.11388 0
M  V30 7757 H 725.682 -2.01582 3.64354 0
M  V30 7758 H 728.279 -4.62567 2.68209 0
M  V30 7759 H 728.622 -4.02044 1.0801 0
M  V30 7760 H 729.155 -3.09205 2.50274 0
M  V30 7761 H 725.894 -3.64336 5.44922 0
M  V30 7762 H 725.414 -4.49961 3.96605 0
M  V30 7763 H 727.093 -4.59754 4.55231 0
M  V30 7764 N 727.225 -1.14528 -1.08264 0
M  V30 7765 C 728.455 -0.936604 -1.8415 0
M  V30 7766 C 728.863 0.518298 -1.81962 0
M  V30 7767 O 728.206 1.37096 -1.22272 0
M  V30 7768 C 728.268 -1.36182 -3.32708 0
M  V30 7769 C 727.932 -2.83257 -3.58629 0
M  V30 7770 C 728.929 -3.81366 -3.5335 0
M  V30 7771 C 726.614 -3.20704 -3.86593 0
M  V30 7772 C 728.608 -5.14929 -3.75668 0
M  V30 7773 C 726.295 -4.54443 -4.08564 0
M  V30 7774 C 727.293 -5.51365 -4.03095 0
M  V30 7775 O 726.981 -6.8269 -4.24488 0
M  V30 7776 H 726.713 -0.333254 -0.588148 0
M  V30 7777 H 729.267 -1.5247 -1.3763 0
M  V30 7778 H 727.497 -0.717063 -3.79994 0
M  V30 7779 H 729.186 -1.12372 -3.90035 0
M  V30 7780 H 729.952 -3.53781 -3.31759 0
M  V30 7781 H 725.831 -2.45857 -3.89969 0
M  V30 7782 H 729.375 -5.90568 -3.71315 0
M  V30 7783 H 725.272 -4.81747 -4.29639 0
M  V30 7784 H 726.04 -6.8897 -4.41886 0
M  V30 7785 N 728.703 1.26451 -0.940633 0
M  V30 7786 C 729.633 2.28773 -0.467479 0
M  V30 7787 C 730.614 1.63218 0.478955 0
M  V30 7788 O 731.799 1.90427 0.380929 0
M  V30 7789 C 728.929 3.46259 0.268656 0
M  V30 7790 C 727.883 4.23898 -0.591171 0
M  V30 7791 C 727.209 5.33993 0.274891 0
M  V30 7792 C 728.509 4.87974 -1.86223 0
M  V30 7793 H 730.203 2.68601 -1.32265 0
M  V30 7794 H 727.749 1.29123 -0.637436 0
M  V30 7795 H 729.702 4.16951 0.610696 0
M  V30 7796 H 728.426 3.05383 1.15796 0
M  V30 7797 H 727.085 3.54969 -0.916098 0
M  V30 7798 H 726.733 4.89358 1.16353 0
M  V30 7799 H 726.433 5.86849 -0.297006 0
M  V30 7800 H 727.957 6.07523 0.612213 0
M  V30 7801 H 729.371 5.50883 -1.58747 0
M  V30 7802 H 727.768 5.50945 -2.37866 0
M  V30 7803 H 728.838 4.10945 -2.57394 0
M  V30 7804 N 730.181 0.707592 1.40822 0
M  V30 7805 C 731.429 0.243189 2.00632 0
M  V30 7806 C 731.75 -1.16512 1.56365 0
M  V30 7807 O 731.02 -1.78841 0.799553 0
M  V30 7808 H 729.6 0.0869203 0.741926 0
M  V30 7809 H 732.262 0.911438 1.72275 0
M  V30 7810 H 731.358 0.270014 3.1093 0
M  V30 7811 N 731.66 -1.50943 0.453197 0
M  V30 7812 C 732.937 -1.94872 -0.168633 0
M  V30 7813 C 733.317 -1.39272 -1.5864 0
M  V30 7814 O 732.665 -0.586272 -2.20851 0
M  V30 7815 C 732.875 -3.48757 -0.130217 0
M  V30 7816 C 734.223 -4.23331 -0.327975 0
M  V30 7817 O 735.247 -3.55594 -0.207619 0
M  V30 7818 O 734.106 -5.43529 -0.569077 0
M  V30 7819 H 731.2 -0.818042 -0.121394 0
M  V30 7820 H 733.746 -1.61782 0.512316 0
M  V30 7821 H 732.518 -3.81725 0.860346 0
M  V30 7822 H 732.141 -3.88333 -0.853397 0
M  V30 7823 N 733.138 -0.185124 -1.56509 0
M  V30 7824 C 734.048 0.751908 -2.22224 0
M  V30 7825 C 735.064 1.24244 -1.21817 0
M  V30 7826 O 736.24 1.29169 -1.54523 0
M  V30 7827 C 733.305 1.95837 -2.86092 0
M  V30 7828 C 732.366 1.51337 -4.01741 0
M  V30 7829 C 731.599 2.66233 -4.62554 0
M  V30 7830 O 731.822 3.8346 -4.22273 0
M  V30 7831 O 730.756 2.39517 -5.52191 0
M  V30 7832 H 734.582 0.222304 -3.02885 0
M  V30 7833 H 732.167 0.0437141 -1.49336 0
M  V30 7834 H 734.049 2.66368 -3.26536 0
M  V30 7835 H 732.724 2.47677 -2.08417 0
M  V30 7836 H 731.631 0.777155 -3.65939 0
M  V30 7837 H 732.964 1.04175 -4.81049 0
M  V30 7838 N 734.616 1.57351 0.0885366 0
M  V30 7839 C 735.862 1.86696 0.791996 0
M  V30 7840 C 736.195 0.775148 1.78059 0
M  V30 7841 O 735.47 -0.216247 1.93294 0
M  V30 7842 C 735.753 3.26684 1.51491 0
M  V30 7843 C 735.606 4.465 0.543858 0
M  V30 7844 C 736.925 3.64664 2.46391 0
M  V30 7845 H 734.044 0.679049 0.286463 0
M  V30 7846 H 736.686 1.89919 0.0554866 0
M  V30 7847 H 734.836 3.24067 2.14273 0
M  V30 7848 H 736.508 4.61235 -0.0774597 0
M  V30 7849 H 734.751 4.33567 -0.142228 0
M  V30 7850 H 735.422 5.41192 1.08696 0
M  V30 7851 H 737.898 3.68267 1.93698 0
M  V30 7852 H 736.774 4.63534 2.93986 0
M  V30 7853 H 737.035 2.93698 3.30445 0
M  V30 7854 N 736.094 -0.359525 1.53444 0
M  V30 7855 C 737.342 -1.09935 1.69584 0
M  V30 7856 C 737.663 -1.89656 0.453371 0
M  V30 7857 O 736.933 -1.8852 -0.53263 0
M  V30 7858 H 735.513 -0.408843 0.625185 0
M  V30 7859 H 738.175 -0.40467 1.90653 0
M  V30 7860 H 737.271 -1.78575 2.55964 0
M  V30 7861 N 737.572 -1.44907 -0.619662 0
M  V30 7862 C 738.8 -1.51795 -1.40591 0
M  V30 7863 C 739.215 -0.146553 -1.8823 0
M  V30 7864 O 738.572 0.849698 -1.61513 0
M  V30 7865 C 738.623 -2.49229 -2.61853 0
M  V30 7866 O 738.344 -3.81039 -2.16197 0
M  V30 7867 C 739.845 -2.65696 -3.54853 0
M  V30 7868 H 737.065 -0.514463 -0.430777 0
M  V30 7869 H 739.609 -1.8998 -0.756813 0
M  V30 7870 H 737.764 -2.14149 -3.2283 0
M  V30 7871 H 738.178 -4.33747 -2.94896 0
M  V30 7872 H 739.652 -3.37874 -4.36515 0
M  V30 7873 H 740.129 -1.71316 -4.0441 0
M  V30 7874 H 740.735 -3.01724 -2.99737 0
M  V30 7875 N 739.05 0.861098 -1.31996 0
M  V30 7876 C 739.98 1.98482 -1.22993 0
M  V30 7877 C 740.961 1.6971 -0.115168 0
M  V30 7878 O 742.146 1.91849 -0.30126 0
M  V30 7879 C 739.276 3.34179 -0.945615 0
M  V30 7880 C 738.23 3.77284 -2.02091 0
M  V30 7881 C 737.556 5.1054 -1.58912 0
M  V30 7882 C 738.856 3.93439 -3.43515 0
M  V30 7883 H 740.55 2.06271 -2.17008 0
M  V30 7884 H 738.096 0.991043 -1.04472 0
M  V30 7885 H 740.049 4.12338 -0.869206 0
M  V30 7886 H 738.773 3.26586 0.0301849 0
M  V30 7887 H 737.432 3.01371 -2.08737 0
M  V30 7888 H 737.08 4.99397 -0.600942 0
M  V30 7889 H 736.78 5.40352 -2.30854 0
M  V30 7890 H 738.304 5.91199 -1.52696 0
M  V30 7891 H 739.718 4.6197 -3.39495 0
M  V30 7892 H 738.115 4.34661 -4.13751 0
M  V30 7893 H 739.185 2.96548 -3.8365 0
M  V30 7894 N 740.528 1.15101 1.07655 0
M  V30 7895 C 741.476 0.840714 2.16875 0
M  V30 7896 C 742.47 -0.184594 1.68391 0
M  V30 7897 O 743.676 -0.0399315 1.79956 0
M  V30 7898 H 740.051 0.254192 0.707736 0
M  V30 7899 H 742.022 1.76959 2.40266 0
M  V30 7900 C 740.771 0.343018 3.46004 0
M  V30 7901 H 740.094 1.12335 3.83694 0
M  V30 7902 H 741.534 0.16453 4.23681 0
M  V30 7903 C 739.993 -0.934881 3.23669 0
M  V30 7904 O 740.523 -2.00706 3.47965 0
M  V30 7905 N 738.729 -0.873167 2.77172 0
M  V30 7906 H 738.276 -0.000479072 2.576 0
M  V30 7907 H 738.234 -1.72873 2.62607 0
M  V30 7908 N 742.006 -1.2595 0.947325 0
M  V30 7909 C 743.283 -1.88676 0.515824 0
M  V30 7910 C 743.663 -1.85547 -1.00675 0
M  V30 7911 O 743.011 -1.31399 -1.8694 0
M  V30 7912 C 743.221 -3.31734 1.08415 0
M  V30 7913 C 744.569 -4.08545 1.15654 0
M  V30 7914 O 745.593 -3.40826 1.03517 0
M  V30 7915 O 744.452 -5.29663 1.34608 0
M  V30 7916 H 741.546 -0.809537 0.169055 0
M  V30 7917 H 744.092 -1.34075 1.04029 0
M  V30 7918 H 742.864 -3.28404 2.1276 0
M  V30 7919 H 742.487 -3.93882 0.542499 0
M  V30 7920 N 743.484 -0.715051 -1.40445 0
M  V30 7921 C 744.761 -0.181503 -1.94756 0
M  V30 7922 C 745.141 1.31268 -1.65324 0
M  V30 7923 O 744.489 2.0686 -0.970631 0
M  V30 7924 C 744.699 -0.493663 -3.45491 0
M  V30 7925 C 746.047 -0.432032 -4.22396 0
M  V30 7926 O 747.071 -0.429692 -3.53599 0
M  V30 7927 O 745.93 -0.409091 -5.44967 0
M  V30 7928 H 743.024 -0.0263989 -0.826579 0
M  V30 7929 H 745.57 -0.792546 -1.50056 0
M  V30 7930 H 744.342 -1.52713 -3.6027 0
M  V30 7931 H 743.965 0.14737 -3.97327 0
M  V30 7932 N 744.962 1.50701 -0.461195 0
M  V30 7933 C 746.239 1.94958 0.158296 0
M  V30 7934 C 746.619 1.40111 1.57899 0
M  V30 7935 O 745.967 0.597976 2.20537 0
M  V30 7936 C 746.177 3.48821 0.11172 0
M  V30 7937 C 747.525 4.23499 0.30552 0
M  V30 7938 O 748.549 3.557 0.188758 0
M  V30 7939 O 747.408 5.43823 0.540244 0
M  V30 7940 H 744.502 0.818674 0.117054 0
M  V30 7941 H 747.048 1.61508 -0.520888 0
M  V30 7942 H 745.82 3.81263 -0.880577 0
M  V30 7943 H 745.443 3.88781 0.832791 0
M  V30 7944 N 746.441 0.193421 1.56409 0
M  V30 7945 C 747.687 -0.43983 1.98588 0
M  V30 7946 C 748.042 -1.59353 1.07816 0
M  V30 7947 O 747.335 -1.9121 0.122226 0
M  V30 7948 C 747.529 -0.949718 3.44551 0
M  V30 7949 C 747.358 0.153045 4.49439 0
M  V30 7950 C 746.128 0.610119 5.01603 0
M  V30 7951 C 748.326 0.961397 5.05234 0
M  V30 7952 N 746.308 1.69088 5.90155 0
M  V30 7953 C 747.679 1.8916 5.90439 0
M  V30 7954 C 749.734 1.004 4.87672 0
M  V30 7955 C 748.437 2.86086 6.5996 0
M  V30 7956 C 750.463 1.96131 5.57931 0
M  V30 7957 C 749.825 2.87895 6.42881 0
M  V30 7958 H 745.924 -0.128415 0.771384 0
M  V30 7959 H 748.508 0.29873 1.92395 0
M  V30 7960 H 746.679 -1.65772 3.51246 0
M  V30 7961 H 748.411 -1.55344 3.73698 0
M  V30 7962 H 745.166 0.203771 4.73161 0
M  V30 7963 H 745.59 2.23241 6.39134 0
M  V30 7964 H 750.232 0.308536 4.21673 0
M  V30 7965 H 747.95 3.56609 7.25159 0
M  V30 7966 H 751.536 2.00066 5.46319 0
M  V30 7967 H 750.416 3.60763 6.9629 0
M  V30 7968 N 747.919 -1.57396 -0.0801906 0
M  V30 7969 C 749.144 -1.91437 -0.797909 0
M  V30 7970 C 749.569 -0.789075 -1.70749 0
M  V30 7971 O 748.927 0.25857 -1.79447 0
M  V30 7972 C 748.975 -3.24402 -1.57467 0
M  V30 7973 O 748.079 -3.13043 -2.68473 0
M  V30 7974 H 747.42 -0.627109 -0.218243 0
M  V30 7975 H 749.95 -2.04537 -0.050949 0
M  V30 7976 H 749.96 -3.58072 -1.95571 0
M  V30 7977 H 748.635 -4.05884 -0.907229 0
M  V30 7978 H 747.212 -2.90915 -2.33287 0
M  V30 7979 N 749.397 0.351382 -1.53633 0
M  V30 7980 C 750.329 1.45159 -1.77374 0
M  V30 7981 C 751.342 1.4905 -0.654826 0
M  V30 7982 O 752.531 1.52274 -0.931396 0
M  V30 7983 C 749.631 2.83858 -1.85143 0
M  V30 7984 C 748.804 3.03498 -3.14972 0
M  V30 7985 C 747.863 4.22393 -3.138 0
M  V30 7986 O 746.889 4.16885 -3.87551 0
M  V30 7987 N 748.091 5.30533 -2.35617 0
M  V30 7988 H 750.856 1.25167 -2.72311 0
M  V30 7989 H 748.417 0.54121 -1.52586 0
M  V30 7990 H 750.409 3.61557 -1.8182 0
M  V30 7991 H 748.979 2.9703 -0.974275 0
M  V30 7992 H 748.199 2.13336 -3.31484 0
M  V30 7993 H 749.487 3.13498 -4.00745 0
M  V30 7994 H 748.885 5.37875 -1.75235 0
M  V30 7995 H 747.442 6.06756 -2.38098 0
M  V30 7996 N 750.875 1.45233 0.611969 0
M  V30 7997 C 752.152 1.39495 1.37115 0
M  V30 7998 C 752.532 0.0633303 2.11005 0
M  V30 7999 O 751.88 -0.954617 2.07604 0
M  V30 8000 C 752.09 2.60579 2.32163 0
M  V30 8001 C 753.438 3.05477 2.94905 0
M  V30 8002 O 754.462 2.60921 2.42485 0
M  V30 8003 O 753.321 3.82787 3.90047 0
M  V30 8004 H 750.415 0.55335 0.614599 0
M  V30 8005 H 752.961 1.57355 0.635423 0
M  V30 8006 H 751.733 3.49085 1.76793 0
M  V30 8007 H 751.356 2.45031 3.13122 0
M  V30 8008 N 752.353 -0.854086 1.3245 0
M  V30 8009 C 753.578 -1.64597 1.26185 0
M  V30 8010 C 754.003 -1.87357 -0.167074 0
M  V30 8011 O 753.361 -1.42675 -1.11864 0
M  V30 8012 C 753.409 -2.98213 2.02734 0
M  V30 8013 O 752.513 -3.88784 1.37554 0
M  V30 8014 H 751.854 -0.50179 0.434859 0
M  V30 8015 H 754.384 -1.06372 1.74775 0
M  V30 8016 H 754.394 -3.4803 2.1293 0
M  V30 8017 H 753.069 -2.80969 3.06642 0
M  V30 8018 H 751.646 -3.4725 1.3591 0
M  V30 8019 N 753.831 -1.1567 -1.07043 0
M  V30 8020 C 754.779 -0.852204 -2.16426 0
M  V30 8021 C 755.773 0.175661 -1.68487 0
M  V30 8022 O 756.979 0.0303874 -1.79974 0
M  V30 8023 H 753.354 -0.257942 -0.706378 0
M  V30 8024 H 755.325 -1.78231 -2.39324 0
M  V30 8025 C 754.074 -0.361362 -3.45817 0
M  V30 8026 H 753.397 -1.14369 -3.83092 0
M  V30 8027 H 754.837 -0.186997 -4.23587 0
M  V30 8028 C 753.296 0.917703 -3.2416 0
M  V30 8029 O 753.826 1.98858 -3.49025 0
M  V30 8030 N 752.032 0.858456 -2.77631 0
M  V30 8031 H 751.579 -0.0131821 -2.57597 0
M  V30 8032 H 751.537 1.71478 -2.6352 0
M  V30 8033 N 755.309 1.25446 -0.953992 0
M  V30 8034 C 756.256 2.25912 -0.472485 0
M  V30 8035 C 757.226 1.59173 0.47469 0
M  V30 8036 O 758.411 1.86812 0.388082 0
M  V30 8037 C 755.551 3.44235 0.244218 0
M  V30 8038 C 754.664 4.25613 -0.740121 0
M  V30 8039 C 753.799 5.312 -0.000922267 0
M  V30 8040 C 752.838 6.04265 -0.976236 0
M  V30 8041 N 751.975 7.01589 -0.267952 0
M  V30 8042 H 756.815 2.66469 -1.3341 0
M  V30 8043 H 754.352 1.31005 -0.669045 0
M  V30 8044 H 756.31 4.11682 0.676314 0
M  V30 8045 H 754.94 3.04554 1.06988 0
M  V30 8046 H 753.992 3.57834 -1.2907 0
M  V30 8047 H 755.304 4.762 -1.48441 0
M  V30 8048 H 754.458 6.04719 0.48984 0
M  V30 8049 H 753.197 4.81484 0.776159 0
M  V30 8050 H 752.202 5.29561 -1.478 0
M  V30 8051 H 753.427 6.5607 -1.75354 0
M  V30 8052 H 751.373 6.54164 0.490403 0
M  V30 8053 H 751.29 7.4999 -0.951344 0
M  V30 8054 H 752.558 7.7924 0.201294 0
M  V30 8055 N 756.787 0.722489 1.40064 0
M  V30 8056 C 758.012 0.273446 2.05589 0
M  V30 8057 C 758.437 -1.07875 1.54093 0
M  V30 8058 O 757.795 -1.68095 0.679252 0
M  V30 8059 C 757.843 0.271023 3.5958 0
M  V30 8060 O 756.947 -0.745499 4.05606 0
M  V30 8061 H 756.288 0.126856 0.65177 0
M  V30 8062 H 758.818 0.984906 1.79334 0
M  V30 8063 H 758.828 0.111084 4.07849 0
M  V30 8064 H 757.503 1.25776 3.96425 0
M  V30 8065 H 756.08 -0.552719 3.68781 0
M  V30 8066 N 758.265 -1.50454 0.469181 0
M  V30 8067 C 759.542 -1.9504 -0.147955 0
M  V30 8068 C 759.922 -1.40946 -1.57154 0
M  V30 8069 O 759.27 -0.609663 -2.20217 0
M  V30 8070 C 759.48 -3.48875 -0.0932198 0
M  V30 8071 C 760.828 -4.23655 -0.283056 0
M  V30 8072 O 761.852 -3.55795 -0.169892 0
M  V30 8073 O 760.711 -5.44102 -0.511396 0
M  V30 8074 H 757.805 -0.819283 -0.11271 0
M  V30 8075 H 760.351 -1.6123 0.529446 0
M  V30 8076 H 759.123 -3.80791 0.900784 0
M  V30 8077 H 758.746 -3.89217 -0.812161 0
M  V30 8078 N 759.743 -0.201713 -1.56304 0
M  V30 8079 C 761.02 0.483273 -1.89536 0
M  V30 8080 C 761.4 1.79176 -1.11621 0
M  V30 8081 O 760.748 2.27445 -0.219339 0
M  V30 8082 C 760.958 0.695604 -3.41998 0
M  V30 8083 C 762.306 1.012 -4.12364 0
M  V30 8084 O 763.33 0.783094 -3.47485 0
M  V30 8085 O 762.189 1.44534 -5.27041 0
M  V30 8086 H 759.283 0.252801 -0.787414 0
M  V30 8087 H 761.829 -0.24242 -1.6796 0
M  V30 8088 H 760.601 -0.228165 -3.90634 0
M  V30 8089 H 760.224 1.47351 -3.69288 0
M  V30 8090 N 761.222 1.57436 0.0718424 0
M  V30 8091 C 762.447 1.91858 0.787745 0
M  V30 8092 C 762.872 0.798119 1.70328 0
M  V30 8093 O 762.23 -0.24905 1.79581 0
M  V30 8094 C 762.278 3.25232 1.55744 0
M  V30 8095 O 761.382 3.14462 2.6681 0
M  V30 8096 H 760.723 0.628258 0.214914 0
M  V30 8097 H 763.253 2.04561 0.0401012 0
M  V30 8098 H 763.263 3.59105 1.9367 0
M  V30 8099 H 761.938 4.0636 0.885691 0
M  V30 8100 H 760.515 2.92148 2.31741 0
M  V30 8101 N 762.7 -0.34323 1.53817 0
M  V30 8102 C 764.116 -0.686355 1.44088 0
M  V30 8103 C 764.316 -1.92426 0.597882 0
M  V30 8104 O 763.372 -2.52343 0.0889918 0
M  V30 8105 C 764.685 -0.878698 2.87575 0
M  V30 8106 C 766.233 -0.977296 2.97352 0
M  V30 8107 C 766.708 -1.20195 4.41947 0
M  V30 8108 N 768.199 -1.26915 4.45474 0
M  V30 8109 C 768.934 -1.46049 5.54488 0
M  V30 8110 N 768.43 -1.62354 6.73508 0
M  V30 8111 N 770.223 -1.48599 5.42102 0
M  V30 8112 H 762.374 0.470679 2.07119 0
M  V30 8113 H 764.637 0.148652 0.936273 0
M  V30 8114 H 764.343 -0.040602 3.51677 0
M  V30 8115 H 764.217 -1.78034 3.32541 0
M  V30 8116 H 766.604 -1.80591 2.3339 0
M  V30 8117 H 766.685 -0.0525498 2.55746 0
M  V30 8118 H 766.329 -0.378262 5.06489 0
M  V30 8119 H 766.259 -2.14027 4.81145 0
M  V30 8120 H 768.75 -1.15837 3.59708 0
M  V30 8121 H 769.063 -1.76591 7.52353 0
M  V30 8122 H 767.408 -1.5949 6.76453 0
M  V30 8123 H 770.599 -1.35443 4.48077 0
M  V30 8124 H 770.772 -1.6317 6.2712 0
M  V30 8125 N 764.178 -1.45556 -0.604258 0
M  V30 8126 C 765.424 -1.50958 -1.3632 0
M  V30 8127 C 765.779 -0.15051 -1.9181 0
M  V30 8128 O 765.072 0.838035 -1.72301 0
M  V30 8129 C 765.266 -2.52697 -2.52743 0
M  V30 8130 C 765.095 -3.98364 -2.08654 0
M  V30 8131 C 763.865 -4.66295 -1.94671 0
M  V30 8132 C 766.063 -4.86801 -1.6592 0
M  V30 8133 N 764.045 -5.96669 -1.44428 0
M  V30 8134 C 765.416 -6.06829 -1.27115 0
M  V30 8135 C 767.471 -4.73634 -1.53542 0
M  V30 8136 C 766.174 -7.15149 -0.771676 0
M  V30 8137 C 768.2 -5.82005 -1.04998 0
M  V30 8138 C 767.562 -7.01191 -0.671599 0
M  V30 8139 H 763.661 -0.607329 -0.492621 0
M  V30 8140 H 766.245 -1.82048 -0.69041 0
M  V30 8141 H 764.416 -2.23554 -3.17614 0
M  V30 8142 H 766.148 -2.48227 -3.19633 0
M  V30 8143 H 762.903 -4.21496 -2.15959 0
M  V30 8144 H 763.327 -6.66003 -1.21528 0
M  V30 8145 H 767.969 -3.81898 -1.81421 0
M  V30 8146 H 765.687 -8.06671 -0.480442 0
M  V30 8147 H 769.273 -5.73851 -0.958423 0
M  V30 8148 H 768.153 -7.83619 -0.301752 0
M  V30 8149 N 765.656 0.84705 -1.32902 0
M  V30 8150 C 766.619 1.9378 -1.224 0
M  V30 8151 C 767.619 1.60144 -0.145108 0
M  V30 8152 O 768.809 1.69638 -0.396058 0
M  V30 8153 C 765.941 3.29234 -0.884174 0
M  V30 8154 H 767.134 2.04518 -2.19345 0
M  V30 8155 H 764.687 1.03816 -1.16842 0
M  V30 8156 H 765.422 3.24193 0.0831277 0
M  V30 8157 H 765.207 3.55026 -1.6643 0
M  V30 8158 H 766.697 4.09162 -0.835226 0
M  V30 8159 N 767.134 1.16236 1.06428 0
M  V30 8160 C 768.084 0.835994 2.12121 0
M  V30 8161 C 769.068 -0.183955 1.59845 0
M  V30 8162 O 770.26 0.0166741 1.76992 0
M  V30 8163 C 767.389 0.337333 3.41639 0
M  V30 8164 C 766.475 1.38798 4.00744 0
M  V30 8165 N 766.866 2.59799 4.3398 0
M  V30 8166 C 765.164 1.24292 4.28331 0
M  V30 8167 C 765.865 3.27213 4.80943 0
M  V30 8168 N 764.841 2.54594 4.80294 0
M  V30 8169 H 768.643 1.75615 2.35662 0
M  V30 8170 H 766.157 1.04921 1.23957 0
M  V30 8171 H 768.154 0.0851274 4.16813 0
M  V30 8172 H 766.814 -0.57677 3.19536 0
M  V30 8173 H 767.825 2.96867 4.24371 0
M  V30 8174 H 764.502 0.389464 4.15679 0
M  V30 8175 H 765.892 4.30492 5.15874 0
M  V30 8176 N 768.612 -1.24939 0.960631 0
M  V30 8177 C 770.028 -1.45039 0.666018 0
M  V30 8178 C 770.228 -1.86021 -0.774501 0
M  V30 8179 O 769.284 -1.99392 -1.54916 0
M  V30 8180 C 770.597 -2.51775 1.64408 0
M  V30 8181 C 772.145 -2.6561 1.65592 0
M  V30 8182 C 772.62 -3.75536 2.62177 0
M  V30 8183 N 774.111 -3.82954 2.60577 0
M  V30 8184 C 774.846 -4.67517 3.31987 0
M  V30 8185 N 774.342 -5.56321 4.1289 0
M  V30 8186 N 776.135 -4.61535 3.20845 0
M  V30 8187 H 768.286 -0.96632 1.89145 0
M  V30 8188 H 770.549 -0.486034 0.813926 0
M  V30 8189 H 770.255 -2.28534 2.67329 0
M  V30 8190 H 770.129 -3.49804 1.41128 0
M  V30 8191 H 772.516 -2.88212 0.633846 0
M  V30 8192 H 772.597 -1.67962 1.92931 0
M  V30 8193 H 772.241 -3.53684 3.64514 0
M  V30 8194 H 772.171 -4.72682 2.32119 0
M  V30 8195 H 774.662 -3.19478 2.01847 0
M  V30 8196 H 774.975 -6.17787 4.64283 0
M  V30 8197 H 773.32 -5.5601 4.16987 0
M  V30 8198 H 776.511 -3.91169 2.57108 0
M  V30 8199 H 776.684 -5.27214 3.76762 0
M  V30 8200 N 770.09 -0.729906 -1.39679 0
M  V30 8201 C 771.501 -0.346241 -1.83461 0
M  V30 8202 C 771.852 1.1215 -1.60987 0
M  V30 8203 O 770.977 1.86456 -1.09832 0
M  V30 8204 C 771.572 -0.621656 -3.33048 0
M  V30 8205 C 770.131 -0.291543 -3.75269 0
M  V30 8206 C 769.278 -0.886844 -2.62736 0
M  V30 8207 H 772.229 -0.927949 -1.28743 0
M  V30 8208 H 772.25 0.108301 -3.80346 0
M  V30 8209 H 771.762 -1.68996 -3.49373 0
M  V30 8210 H 769.863 0.771133 -3.64533 0
M  V30 8211 H 769.976 -0.770544 -4.72863 0
M  V30 8212 H 768.34 -0.313839 -2.52759 0
M  V30 8213 H 769.123 -1.95971 -2.81869 0
M  V30 8214 N 771.568 1.50203 -0.477153 0
M  V30 8215 C 772.984 1.59056 -0.131663 0
M  V30 8216 C 773.184 1.48473 1.36227 0
M  V30 8217 O 772.24 1.34635 2.13611 0
M  V30 8218 C 773.553 2.92741 -0.687254 0
M  V30 8219 C 775.101 3.0615 -0.651223 0
M  V30 8220 C 775.576 4.42419 -1.18446 0
M  V30 8221 N 777.067 4.48847 -1.14413 0
M  V30 8222 C 777.802 5.52689 -1.52717 0
M  V30 8223 N 777.298 6.63754 -1.98499 0
M  V30 8224 N 779.091 5.43267 -1.44282 0
M  V30 8225 H 771.242 1.55325 -1.44872 0
M  V30 8226 H 773.505 0.734395 -0.599473 0
M  V30 8227 H 773.211 3.0598 -1.73405 0
M  V30 8228 H 773.085 3.76961 -0.134215 0
M  V30 8229 H 775.472 2.92556 0.386677 0
M  V30 8230 H 775.553 2.23673 -1.24114 0
M  V30 8231 H 775.197 4.56763 -2.22103 0
M  V30 8232 H 775.127 5.23498 -0.570709 0
M  V30 8233 H 777.618 3.69152 -0.808416 0
M  V30 8234 H 777.931 7.39059 -2.25859 0
M  V30 8235 H 776.276 6.64858 -2.02456 0
M  V30 8236 H 779.467 4.55387 -1.08352 0
M  V30 8237 H 779.64 6.24074 -1.74459 0
M  V30 8238 N 773.046 0.209999 1.56195 0
M  V30 8239 C 774.276 -0.429373 2.02089 0
M  V30 8240 C 774.684 -1.54703 1.0892 0
M  V30 8241 O 774.027 -1.83485 0.0889535 0
M  V30 8242 C 774.089 -1.03266 3.44349 0
M  V30 8243 C 773.753 -0.0518873 4.56971 0
M  V30 8244 C 774.75 0.744249 5.14545 0
M  V30 8245 C 772.435 0.0635185 5.0226 0
M  V30 8246 C 774.429 1.64261 6.15871 0
M  V30 8247 C 772.116 0.965423 6.03426 0
M  V30 8248 C 773.114 1.75352 6.60106 0
M  V30 8249 O 772.802 2.64029 7.59305 0
M  V30 8250 H 772.534 -0.110604 0.66689 0
M  V30 8251 H 775.088 0.320436 2.02885 0
M  V30 8252 H 773.318 -1.83134 3.40586 0
M  V30 8253 H 775.007 -1.57823 3.73961 0
M  V30 8254 H 775.773 0.665476 4.80413 0
M  V30 8255 H 771.652 -0.539762 4.57829 0
M  V30 8256 H 775.196 2.25819 6.60039 0
M  V30 8257 H 771.093 1.04526 6.36981 0
M  V30 8258 H 771.861 2.57974 7.76783 0
M  V30 8259 N 774.524 -1.57472 -0.0634922 0
M  V30 8260 C 775.472 -2.05307 -1.09323 0
M  V30 8261 C 776.466 -0.959995 -1.39572 0
M  V30 8262 O 777.672 -1.14507 -1.38882 0
M  V30 8263 H 774.047 -0.65472 -0.369927 0
M  V30 8264 H 776.018 -2.90925 -0.663707 0
M  V30 8265 C 774.767 -2.51954 -2.39613 0
M  V30 8266 H 774.09 -3.35662 -2.1719 0
M  V30 8267 H 775.53 -2.89169 -3.10092 0
M  V30 8268 C 773.989 -1.40596 -3.06161 0
M  V30 8269 O 774.519 -0.752722 -3.94585 0
M  V30 8270 N 772.725 -1.14902 -2.66919 0
M  V30 8271 H 772.272 -1.68205 -1.95102 0
M  V30 8272 H 772.23 -0.406006 -3.11767 0
M  V30 8273 N 776.003 0.335068 -1.53997 0
M  V30 8274 C 776.913 1.43511 -1.85585 0
M  V30 8275 C 777.929 1.57162 -0.746726 0
M  V30 8276 O 779.105 1.72477 -1.03988 0
M  V30 8277 C 776.17 2.78386 -2.06646 0
M  V30 8278 C 775.231 2.74007 -3.30483 0
M  V30 8279 C 774.464 4.02449 -3.50529 0
M  V30 8280 O 774.687 5.00147 -2.74242 0
M  V30 8281 O 773.621 4.06405 -4.4398 0
M  V30 8282 H 777.447 1.19731 -2.79102 0
M  V30 8283 H 775.032 0.528033 -1.39758 0
M  V30 8284 H 776.914 3.58247 -2.21894 0
M  V30 8285 H 775.589 3.0208 -1.16317 0
M  V30 8286 H 774.496 1.92736 -3.2063 0
M  V30 8287 H 775.829 2.55267 -4.20832 0
M  V30 8288 N 777.481 1.45874 0.596531 0
M  V30 8289 C 778.444 1.54988 1.68853 0
M  V30 8290 C 779.444 0.428302 1.54991 0
M  V30 8291 O 780.634 0.692158 1.59859 0
M  V30 8292 C 777.766 1.457 3.08195 0
M  V30 8293 H 778.959 2.52294 1.62135 0
M  V30 8294 H 776.512 1.33479 0.813206 0
M  V30 8295 H 777.247 0.496204 3.20481 0
M  V30 8296 H 777.032 2.27061 3.19665 0
M  V30 8297 H 778.522 1.55133 3.87716 0
M  V30 8298 N 778.959 -0.83999 1.33349 0
M  V30 8299 C 779.889 -1.965 1.26135 0
M  V30 8300 C 780.87 -1.69505 0.142152 0
M  V30 8301 O 782.055 -1.91346 0.331743 0
M  V30 8302 C 779.185 -3.32632 0.99866 0
M  V30 8303 C 778.139 -3.74021 2.08068 0
M  V30 8304 C 777.465 -5.07947 1.67014 0
M  V30 8305 C 778.765 -3.87925 3.49731 0
M  V30 8306 H 780.459 -2.02793 2.20262 0
M  V30 8307 H 778.005 -0.974297 1.06035 0
M  V30 8308 H 779.958 -4.10903 0.934696 0
M  V30 8309 H 778.682 -3.26593 0.0217759 0
M  V30 8310 H 777.341 -2.98012 2.13505 0
M  V30 8311 H 776.989 -4.98378 0.680316 0
M  V30 8312 H 776.689 -5.36611 2.39422 0
M  V30 8313 H 778.213 -5.88695 1.62082 0
M  V30 8314 H 779.627 -4.5651 3.46802 0
M  V30 8315 H 778.024 -4.28023 4.20614 0
M  V30 8316 H 779.094 -2.90407 3.88319 0
M  V30 8317 N 780.437 -1.16799 -1.0581 0
M  V30 8318 C 781.667 -0.975454 -1.82122 0
M  V30 8319 C 782.075 0.479584 -1.83021 0
M  V30 8320 O 781.418 1.34471 -1.25153 0
M  V30 8321 C 781.48 -1.43209 -3.29744 0
M  V30 8322 C 781.144 -2.908 -3.5254 0
M  V30 8323 C 782.141 -3.88775 -3.45181 0
M  V30 8324 C 779.826 -3.28832 -3.79703 0
M  V30 8325 C 781.82 -5.22782 -3.64661 0
M  V30 8326 C 779.507 -4.63007 -3.98832 0
M  V30 8327 C 780.505 -5.59791 -3.91309 0
M  V30 8328 O 780.193 -6.9154 -4.09911 0
M  V30 8329 H 779.925 -0.345655 -0.580947 0
M  V30 8330 H 782.479 -1.55355 -1.34365 0
M  V30 8331 H 780.709 -0.797504 -3.78387 0
M  V30 8332 H 782.398 -1.2062 -3.87564 0
M  V30 8333 H 783.164 -3.60738 -3.2418 0
M  V30 8334 H 779.043 -2.54073 -3.84666 0
M  V30 8335 H 782.587 -5.98312 -3.58705 0
M  V30 8336 H 778.484 -4.90752 -4.19324 0
M  V30 8337 H 779.252 -6.98188 -4.27172 0
M  V30 8338 N 781.915 1.24427 -0.967243 0
M  V30 8339 C 782.878 2.23637 -0.501927 0
M  V30 8340 C 783.878 1.55712 0.401283 0
M  V30 8341 O 785.068 1.73085 0.196808 0
M  V30 8342 C 782.2 3.39804 0.273176 0
M  V30 8343 H 783.393 2.66317 -1.37897 0
M  V30 8344 H 780.946 1.37033 -0.751783 0
M  V30 8345 H 781.681 3.02562 1.16733 0
M  V30 8346 H 781.466 3.90303 -0.37498 0
M  V30 8347 H 782.956 4.13443 0.587776 0
M  V30 8348 N 783.393 0.737304 1.3929 0
M  V30 8349 C 784.325 0.0592106 2.29124 0
M  V30 8350 C 785.338 -0.701026 1.46934 0
M  V30 8351 O 786.527 -0.544808 1.69983 0
M  V30 8352 C 783.627 -0.940358 3.25592 0
M  V30 8353 C 782.8 -0.241163 4.36735 0
M  V30 8354 C 781.859 -1.14916 5.13498 0
M  V30 8355 O 780.885 -0.625783 5.6575 0
M  V30 8356 N 782.087 -2.47869 5.2492 0
M  V30 8357 H 784.852 0.830647 2.87959 0
M  V30 8358 H 782.413 0.586718 1.50895 0
M  V30 8359 H 784.405 -1.55046 3.73822 0
M  V30 8360 H 782.975 -1.61299 2.67771 0
M  V30 8361 H 782.195 0.549441 3.90352 0
M  V30 8362 H 783.483 0.243299 5.08218 0
M  V30 8363 H 782.881 -2.92864 4.83991 0
M  V30 8364 H 781.438 -3.03969 5.76581 0
M  V30 8365 N 784.871 -1.49948 0.485112 0
M  V30 8366 C 786.287 -1.58984 0.140096 0
M  V30 8367 C 786.487 -1.49194 -1.35438 0
M  V30 8368 O 785.543 -1.35765 -2.12894 0
M  V30 8369 C 786.856 -2.92372 0.702769 0
M  V30 8370 C 788.404 -3.05801 0.66745 0
M  V30 8371 C 788.879 -4.41785 1.20791 0
M  V30 8372 N 790.37 -4.48234 1.16792 0
M  V30 8373 C 791.105 -5.51871 1.55646 0
M  V30 8374 N 790.601 -6.62692 2.02016 0
M  V30 8375 N 792.394 -5.42494 1.47161 0
M  V30 8376 H 784.545 -1.54555 1.45693 0
M  V30 8377 H 786.808 -0.731206 0.603359 0
M  V30 8378 H 786.514 -3.05056 1.75025 0
M  V30 8379 H 786.388 -3.76885 0.154205 0
M  V30 8380 H 788.775 -2.92757 -0.371157 0
M  V30 8381 H 788.856 -2.23011 1.25298 0
M  V30 8382 H 788.5 -4.55579 2.24522 0
M  V30 8383 H 788.43 -5.23188 0.598464 0
M  V30 8384 H 790.921 -3.68718 0.827982 0
M  V30 8385 H 791.234 -7.3785 2.29775 0
M  V30 8386 H 789.579 -6.63775 2.05979 0
M  V30 8387 H 792.77 -4.54806 1.10765 0
M  V30 8388 H 792.943 -6.2314 1.77766 0
M  V30 8389 N 786.349 -0.21828 -1.56081 0
M  V30 8390 C 787.297 0.709679 -2.21509 0
M  V30 8391 C 788.291 1.20221 -1.19346 0
M  V30 8392 O 789.497 1.16241 -1.37433 0
M  V30 8393 H 785.872 0.247271 -0.710184 0
M  V30 8394 H 787.843 0.134386 -2.98097 0
M  V30 8395 C 786.592 1.90853 -2.90638 0
M  V30 8396 H 785.915 1.53865 -3.69006 0
M  V30 8397 H 787.355 2.53568 -3.39822 0
M  V30 8398 C 785.814 2.76189 -1.92929 0
M  V30 8399 O 786.344 3.74842 -1.44416 0
M  V30 8400 N 784.55 2.42157 -1.6065 0
M  V30 8401 H 784.097 1.61987 -2.00294 0
M  V30 8402 H 784.055 2.99534 -0.955347 0
M  V30 8403 N 787.827 1.57504 0.0551401 0
M  V30 8404 C 789.104 1.79155 0.785048 0
M  V30 8405 C 789.484 0.809995 1.94942 0
M  V30 8406 O 788.832 -0.153432 2.27984 0
M  V30 8407 C 789.042 3.26134 1.24247 0
M  V30 8408 C 790.39 3.90419 1.66908 0
M  V30 8409 O 791.414 3.30126 1.33772 0
M  V30 8410 O 790.273 4.96523 2.28314 0
M  V30 8411 H 787.367 0.735825 0.377479 0
M  V30 8412 H 789.913 1.69666 0.0339285 0
M  V30 8413 H 788.685 3.89145 0.410089 0
M  V30 8414 H 788.308 3.40411 2.05441 0
M  V30 8415 N 789.305 -0.326896 1.54172 0
M  V30 8416 C 790.716 -0.901533 1.63491 0
M  V30 8417 C 791.067 -1.88994 0.52684 0
M  V30 8418 O 790.192 -2.137 -0.340794 0
M  V30 8419 C 790.787 -1.64192 2.96355 0
M  V30 8420 C 789.346 -2.16533 3.07881 0
M  V30 8421 C 788.493 -0.98966 2.59039 0
M  V30 8422 H 791.444 -0.104568 1.58355 0
M  V30 8423 H 791.465 -2.50592 2.86328 0
M  V30 8424 H 790.977 -0.922291 3.76982 0
M  V30 8425 H 789.078 -2.91622 2.31922 0
M  V30 8426 H 789.191 -2.41762 4.13628 0
M  V30 8427 H 787.555 -1.36787 2.14852 0
M  V30 8428 H 788.338 -0.284401 3.4212 0
M  V30 8429 N 790.784 -1.46188 -0.588786 0
M  V30 8430 C 792.009 -1.5498 -1.37826 0
M  V30 8431 C 792.434 -0.189498 -1.87143 0
M  V30 8432 O 791.792 0.829293 -1.61222 0
M  V30 8433 C 791.84 -2.55369 -2.54596 0
M  V30 8434 O 790.944 -2.08452 -3.55839 0
M  V30 8435 H 790.285 -0.521741 -0.41071 0
M  V30 8436 H 792.815 -1.91708 -0.714779 0
M  V30 8437 H 792.825 -2.74782 -3.01594 0
M  V30 8438 H 791.5 -3.54155 -2.18052 0
M  V30 8439 H 790.077 -1.98999 -3.15363 0
M  V30 8440 N 792.262 0.832906 -1.33792 0
M  V30 8441 C 793.49 1.62048 -1.28639 0
M  V30 8442 C 793.905 1.88269 0.141522 0
M  V30 8443 O 793.262 1.46706 1.08553 0
M  V30 8444 C 793.313 2.96722 -2.0649 0
M  V30 8445 O 793.034 2.7165 -3.43712 0
M  V30 8446 C 794.535 3.91144 -2.08617 0
M  V30 8447 H 791.755 0.504032 -0.442937 0
M  V30 8448 H 794.299 1.03704 -1.76255 0
M  V30 8449 H 792.454 3.51652 -1.62541 0
M  V30 8450 H 792.868 3.57453 -3.83833 0
M  V30 8451 H 794.342 4.82837 -2.67531 0
M  V30 8452 H 794.819 4.25766 -1.07796 0
M  V30 8453 H 795.425 3.42152 -2.52611 0
M  V30 8454 N 793.74 1.17359 1.05189 0
M  V30 8455 C 794.703 0.892604 2.11105 0
M  V30 8456 C 795.703 -0.117236 1.60372 0
M  V30 8457 O 796.893 0.114936 1.7382 0
M  V30 8458 C 794.025 0.337032 3.3923 0
M  V30 8459 H 795.218 1.83169 2.37464 0
M  V30 8460 H 792.771 0.984051 1.21434 0
M  V30 8461 H 793.506 -0.609198 3.18527 0
M  V30 8462 H 793.291 1.06484 3.77364 0
M  V30 8463 H 794.781 0.158763 4.17298 0
M  V30 8464 N 795.218 -1.23913 0.973828 0
M  V30 8465 C 796.181 -2.23367 0.51378 0
M  V30 8466 C 797.181 -1.55923 -0.39302 0
M  V30 8467 O 798.371 -1.73187 -0.187626 0
M  V30 8468 C 795.503 -3.39944 -0.255152 0
M  V30 8469 H 796.696 -2.65581 1.39307 0
M  V30 8470 H 794.249 -1.36632 0.759039 0
M  V30 8471 H 794.984 -3.03177 -1.15127 0
M  V30 8472 H 794.769 -3.90098 0.395673 0
M  V30 8473 H 796.259 -4.13749 -0.565842 0
M  V30 8474 N 796.696 -0.74468 -1.38897 0
M  V30 8475 C 797.944 -0.296298 -1.99916 0
M  V30 8476 C 798.265 1.12325 -1.59399 0
M  V30 8477 O 797.535 1.76658 -0.846689 0
M  V30 8478 H 796.115 -0.106561 -0.73936 0
M  V30 8479 H 798.777 -0.956793 -1.69798 0
M  V30 8480 H 797.873 -0.352356 -3.10105 0
M  V30 8481 N 798.174 1.49689 -0.493057 0
M  V30 8482 C 799.106 2.26867 0.326195 0
M  V30 8483 C 800.119 1.33083 0.937697 0
M  V30 8484 O 801.308 1.58427 0.822382 0
M  V30 8485 C 798.408 3.0519 1.4735 0
M  V30 8486 C 797.581 4.26491 0.970767 0
M  V30 8487 C 796.64 4.86926 1.99473 0
M  V30 8488 O 795.666 5.47221 1.56647 0
M  V30 8489 N 796.868 4.75871 3.32456 0
M  V30 8490 H 799.633 2.97816 -0.335547 0
M  V30 8491 H 797.194 1.58602 -0.325129 0
M  V30 8492 H 799.186 3.42496 2.15589 0
M  V30 8493 H 797.756 2.369 2.03954 0
M  V30 8494 H 796.976 3.94036 0.113529 0
M  V30 8495 H 798.264 5.05092 0.613156 0
M  V30 8496 H 797.662 4.2797 3.69944 0
M  V30 8497 H 796.219 5.17383 3.96431 0
M  V30 8498 N 799.652 0.226554 1.55963 0
M  V30 8499 C 800.901 -0.40417 1.97609 0
M  V30 8500 C 801.214 -1.60541 1.1174 0
M  V30 8501 O 802.42 -2.30598 1.43307 0
M  V30 8502 C 800.876 -0.770466 3.51556 0
M  V30 8503 C 800.484 0.408244 4.46136 0
M  V30 8504 C 802.228 -1.36651 4.01904 0
M  V30 8505 C 800.135 0.0192347 5.91397 0
M  V30 8506 H 799.065 -0.15478 0.737943 0
M  V30 8507 H 801.716 0.323558 1.80625 0
M  V30 8508 H 800.098 -1.55575 3.6416 0
M  V30 8509 H 801.272 1.18575 4.45283 0
M  V30 8510 H 799.587 0.917859 4.06158 0
M  V30 8511 H 802.184 -1.67055 5.07934 0
M  V30 8512 H 802.527 -2.28403 3.48049 0
M  V30 8513 H 803.06 -0.644556 3.92543 0
M  V30 8514 H 799.799 0.90336 6.49245 0
M  V30 8515 H 799.319 -0.722485 5.95433 0
M  V30 8516 H 800.998 -0.405711 6.45727 0
M  V30 8517 N 801.13 -1.57531 -0.0467866 0
M  V30 8518 C 802.36 -1.92417 -0.752279 0
M  V30 8519 C 802.768 -0.823134 -1.70356 0
M  V30 8520 O 802.111 0.210598 -1.82489 0
M  V30 8521 C 802.173 -3.22974 -1.57887 0
M  V30 8522 C 801.837 -4.50045 -0.794285 0
M  V30 8523 C 802.834 -5.19799 -0.102368 0
M  V30 8524 C 800.519 -4.96608 -0.754061 0
M  V30 8525 C 802.513 -6.34385 0.619267 0
M  V30 8526 C 800.2 -6.11093 -0.0286682 0
M  V30 8527 C 801.198 -6.79835 0.656772 0
M  V30 8528 O 800.886 -7.92133 1.37042 0
M  V30 8529 H 800.618 -0.640029 -0.217576 0
M  V30 8530 H 803.172 -2.05395 -0.0137438 0
M  V30 8531 H 801.402 -3.06273 -2.3608 0
M  V30 8532 H 803.091 -3.43319 -2.16533 0
M  V30 8533 H 803.857 -4.8484 -0.124589 0
M  V30 8534 H 799.736 -4.42958 -1.27706 0
M  V30 8535 H 803.28 -6.87975 1.15483 0
M  V30 8536 H 799.177 -6.455 -0.00446214 0
M  V30 8537 H 799.945 -8.08394 1.28227 0
M  V30 8538 N 802.608 0.318715 -1.54344 0
M  V30 8539 C 803.54 1.41364 -1.80413 0
M  V30 8540 C 804.553 1.47627 -0.686294 0
M  V30 8541 O 805.742 1.50264 -0.963486 0
M  V30 8542 C 802.842 2.79867 -1.91123 0
M  V30 8543 C 802.015 2.96749 -3.21339 0
M  V30 8544 C 801.074 4.15642 -3.22689 0
M  V30 8545 O 800.1 4.08571 -3.96306 0
M  V30 8546 N 801.302 5.25416 -2.46817 0
M  V30 8547 H 804.067 1.19363 -2.74905 0
M  V30 8548 H 801.628 0.508722 -1.537 0
M  V30 8549 H 803.62 3.57619 -1.89448 0
M  V30 8550 H 802.19 2.94896 -1.03706 0
M  V30 8551 H 801.41 2.06257 -3.35934 0
M  V30 8552 H 802.698 3.04927 -4.07304 0
M  V30 8553 H 802.096 5.34037 -1.86605 0
M  V30 8554 H 800.653 6.01569 -2.50915 0
M  V30 8555 N 804.086 1.46499 0.581025 0
M  V30 8556 C 805.334 1.51596 1.33653 0
M  V30 8557 C 805.655 0.169859 1.94259 0
M  V30 8558 O 804.925 -0.803776 1.78651 0
M  V30 8559 H 803.505 0.558346 0.496244 0
M  V30 8560 H 806.167 1.8264 0.680338 0
M  V30 8561 H 805.263 2.26956 2.14237 0
M  V30 8562 N 805.565 -0.825799 1.34232 0
M  V30 8563 C 806.495 -1.95151 1.28212 0
M  V30 8564 C 807.476 -1.69345 0.160123 0
M  V30 8565 O 808.661 -1.90983 0.352019 0
M  V30 8566 C 805.791 -3.31554 1.03388 0
M  V30 8567 C 804.745 -3.71793 2.12023 0
M  V30 8568 C 804.071 -5.06147 1.72392 0
M  V30 8569 C 805.371 -3.84193 3.53826 0
M  V30 8570 H 807.065 -2.00445 2.22401 0
M  V30 8571 H 804.611 -0.962996 1.07063 0
M  V30 8572 H 806.564 -4.09889 0.978225 0
M  V30 8573 H 805.288 -3.26551 0.0564142 0
M  V30 8574 H 803.947 -2.95731 2.16654 0
M  V30 8575 H 803.595 -4.97628 0.733137 0
M  V30 8576 H 803.295 -5.34041 2.451 0
M  V30 8577 H 804.819 -5.86943 1.68317 0
M  V30 8578 H 806.233 -4.52806 3.51624 0
M  V30 8579 H 804.63 -4.23538 4.2513 0
M  V30 8580 H 805.7 -2.86272 3.91377 0
M  V30 8581 N 807.043 -1.17915 -1.04565 0
M  V30 8582 C 808.459 -0.927761 -1.29864 0
M  V30 8583 C 808.659 0.409536 -1.97294 0
M  V30 8584 O 807.715 1.14505 -2.25044 0
M  V30 8585 C 809.028 -2.08967 -2.16225 0
M  V30 8586 C 810.576 -2.12741 -2.29587 0
M  V30 8587 C 811.051 -3.28335 -3.19312 0
M  V30 8588 N 812.542 -3.28164 -3.26898 0
M  V30 8589 C 813.277 -4.14249 -3.96466 0
M  V30 8590 N 812.773 -5.10457 -4.68407 0
M  V30 8591 N 814.566 -4.02179 -3.92694 0
M  V30 8592 H 806.717 -2.03983 -0.592011 0
M  V30 8593 H 808.98 -0.891023 -0.323701 0
M  V30 8594 H 808.686 -3.05654 -1.73979 0
M  V30 8595 H 808.56 -2.04606 -3.16885 0
M  V30 8596 H 810.947 -1.16636 -2.71072 0
M  V30 8597 H 811.028 -2.21162 -1.28535 0
M  V30 8598 H 810.672 -4.2471 -2.78539 0
M  V30 8599 H 810.602 -3.17151 -4.20384 0
M  V30 8600 H 813.093 -2.58511 -2.75646 0
M  V30 8601 H 813.406 -5.72526 -5.1907 0
M  V30 8602 H 811.751 -5.14422 -4.67328 0
M  V30 8603 H 814.942 -3.26308 -3.3562 0
M  V30 8604 H 815.115 -4.69486 -4.4664 0
M  V30 8605 N 808.521 1.23394 -0.980386 0
M  V30 8606 C 809.471 2.22634 -0.491747 0
M  V30 8607 C 810.455 1.54958 0.433222 0
M  V30 8608 O 811.647 1.75049 0.262078 0
M  V30 8609 C 808.776 3.4269 0.204531 0
M  V30 8610 C 807.862 4.17594 -0.740007 0
M  V30 8611 N 808.253 4.69458 -1.88263 0
M  V30 8612 C 806.551 4.42554 -0.553335 0
M  V30 8613 C 807.252 5.26446 -2.47446 0
M  V30 8614 N 806.228 5.14377 -1.75834 0
M  V30 8615 H 810.03 2.60363 -1.36339 0
M  V30 8616 H 807.544 1.38924 -0.841059 0
M  V30 8617 H 809.541 4.12959 0.571901 0
M  V30 8618 H 808.201 3.06477 1.07246 0
M  V30 8619 H 809.212 4.65803 -2.26381 0
M  V30 8620 H 805.889 4.16629 0.269573 0
M  V30 8621 H 807.279 5.77195 -3.43941 0
M  V30 8622 N 809.999 0.752036 1.385 0
M  V30 8623 C 810.932 0.0717411 2.28087 0
M  V30 8624 C 811.91 -0.729945 1.45295 0
M  V30 8625 O 813.094 -0.708902 1.74662 0
M  V30 8626 C 810.221 -0.905237 3.26379 0
M  V30 8627 C 809.267 -0.189973 4.26077 0
M  V30 8628 S 810.1 1.10815 5.23909 0
M  V30 8629 C 811.256 0.134202 6.25756 0
M  V30 8630 H 811.489 0.831438 2.85437 0
M  V30 8631 H 809.022 0.544552 1.44478 0
M  V30 8632 H 810.98 -1.46358 3.83523 0
M  V30 8633 H 809.641 -1.63789 2.68015 0
M  V30 8634 H 808.834 -0.92985 4.95348 0
M  V30 8635 H 808.436 0.296804 3.7282 0
M  V30 8636 H 810.728 -0.700345 6.7387 0
M  V30 8637 H 811.671 0.794532 7.03628 0
M  V30 8638 H 812.079 -0.245801 5.63965 0
M  V30 8639 N 811.477 -1.49425 0.500989 0
M  V30 8640 C 812.726 -2.01649 -0.04538 0
M  V30 8641 C 813.039 -1.38572 -1.38047 0
M  V30 8642 O 814.245 -1.82124 -2.01353 0
M  V30 8643 C 812.701 -3.5966 -0.131337 0
M  V30 8644 C 812.309 -4.3171 1.19711 0
M  V30 8645 C 814.053 -4.19828 -0.628071 0
M  V30 8646 C 811.96 -5.81579 1.07332 0
M  V30 8647 H 810.89 -0.753715 -0.0207329 0
M  V30 8648 H 813.541 -1.71962 0.640407 0
M  V30 8649 H 811.923 -3.86063 -0.881574 0
M  V30 8650 H 813.097 -4.17008 1.96064 0
M  V30 8651 H 811.412 -3.83286 1.62729 0
M  V30 8652 H 814.009 -5.2958 -0.738198 0
M  V30 8653 H 814.352 -3.83194 -1.6269 0
M  V30 8654 H 814.885 -3.97746 0.0656314 0
M  V30 8655 H 811.624 -6.22738 2.04642 0
M  V30 8656 H 811.144 -5.98774 0.350679 0
M  V30 8657 H 812.823 -6.42614 0.752047 0
M  V30 8658 N 812.955 -0.234822 -1.55841 0
M  V30 8659 C 813.918 0.656378 -2.196 0
M  V30 8660 C 814.918 1.11179 -1.16171 0
M  V30 8661 O 816.108 1.01845 -1.41326 0
M  V30 8662 C 813.24 1.90072 -2.82993 0
M  V30 8663 H 814.433 0.100281 -2.99732 0
M  V30 8664 H 811.986 0.0147613 -1.56293 0
M  V30 8665 H 812.721 2.49836 -2.06767 0
M  V30 8666 H 812.506 1.5825 -3.58747 0
M  V30 8667 H 813.996 2.53538 -3.31826 0
M  V30 8668 N 814.433 1.57553 0.0384317 0
M  V30 8669 C 815.679 1.89121 0.732199 0
M  V30 8670 C 816.012 0.831404 1.75503 0
M  V30 8671 O 815.287 -0.154642 1.93884 0
M  V30 8672 C 815.57 3.31338 1.41021 0
M  V30 8673 C 815.423 4.48004 0.401532 0
M  V30 8674 C 816.742 3.72318 2.34665 0
M  V30 8675 H 813.861 0.687819 0.264715 0
M  V30 8676 H 816.503 1.89999 -0.00496279 0
M  V30 8677 H 814.653 3.3072 2.03854 0
M  V30 8678 H 816.325 4.60755 -0.224159 0
M  V30 8679 H 814.568 4.32895 -0.280092 0
M  V30 8680 H 815.239 5.44377 0.91423 0
M  V30 8681 H 817.715 3.74243 1.81883 0
M  V30 8682 H 816.591 4.72652 2.7909 0
M  V30 8683 H 816.852 3.04062 3.20934 0
M  V30 8684 N 815.911 -0.310526 1.54511 0
M  V30 8685 C 817.327 -0.655637 1.45511 0
M  V30 8686 C 817.527 -1.91114 0.638564 0
M  V30 8687 O 816.583 -2.52098 0.142497 0
M  V30 8688 C 817.896 -0.817501 2.89374 0
M  V30 8689 C 819.444 -0.914003 2.99358 0
M  V30 8690 C 819.919 -1.10794 4.44397 0
M  V30 8691 N 821.41 -1.17437 4.48066 0
M  V30 8692 C 822.145 -1.34255 5.57461 0
M  V30 8693 N 821.641 -1.48032 6.768 0
M  V30 8694 N 823.434 -1.37067 5.45132 0
M  V30 8695 H 815.585 0.514506 2.06074 0
M  V30 8696 H 817.848 0.168478 0.932909 0
M  V30 8697 H 817.554 0.034003 3.51684 0
M  V30 8698 H 817.428 -1.7094 3.36243 0
M  V30 8699 H 819.815 -1.756 2.37168 0
M  V30 8700 H 819.896 0.00170958 2.558 0
M  V30 8701 H 819.54 -0.270743 5.07178 0
M  V30 8702 H 819.47 -2.03773 4.85576 0
M  V30 8703 H 821.961 -1.08181 3.62084 0
M  V30 8704 H 822.274 -1.60593 7.5593 0
M  V30 8705 H 820.619 -1.45105 6.79683 0
M  V30 8706 H 823.81 -1.25909 4.50849 0
M  V30 8707 H 823.983 -1.49831 6.3044 0
M  V30 8708 N 817.389 -1.46805 -0.573248 0
M  V30 8709 C 818.321 -1.54127 -1.6964 0
M  V30 8710 C 819.334 -0.428778 -1.57052 0
M  V30 8711 O 820.523 -0.697612 -1.64303 0
M  V30 8712 C 817.623 -1.41438 -3.07975 0
M  V30 8713 C 816.796 -2.66974 -3.46474 0
M  V30 8714 C 815.855 -2.48349 -4.63906 0
M  V30 8715 O 814.881 -3.22109 -4.69292 0
M  V30 8716 N 816.083 -1.55129 -5.59388 0
M  V30 8717 H 818.848 -2.50971 -1.6381 0
M  V30 8718 H 816.409 -1.42981 -0.759479 0
M  V30 8719 H 818.401 -1.26737 -3.84343 0
M  V30 8720 H 816.971 -0.527388 -3.08119 0
M  V30 8721 H 816.191 -2.9655 -2.59715 0
M  V30 8722 H 817.479 -3.50347 -3.68964 0
M  V30 8723 H 816.877 -0.94324 -5.57781 0
M  V30 8724 H 815.434 -1.46387 -6.35149 0
M  V30 8725 N 818.867 0.818669 -1.34668 0
M  V30 8726 C 820.092 1.61193 -1.30505 0
M  V30 8727 C 820.517 1.87734 0.117341 0
M  V30 8728 O 819.875 1.45591 1.08042 0
M  V30 8729 C 819.923 2.92733 -2.1057 0
M  V30 8730 O 819.027 3.85 -1.47813 0
M  V30 8731 H 818.368 0.490085 -0.44801 0
M  V30 8732 H 820.898 1.01701 -1.77534 0
M  V30 8733 H 820.908 3.42262 -2.22082 0
M  V30 8734 H 819.583 2.7274 -3.13984 0
M  V30 8735 H 818.16 3.43525 -1.45069 0
M  V30 8736 N 820.346 1.18468 1.03938 0
M  V30 8737 C 821.294 0.909286 2.14091 0
M  V30 8738 C 822.288 -0.130928 1.68893 0
M  V30 8739 O 823.494 0.0173403 1.79992 0
M  V30 8740 H 819.869 0.27658 0.699291 0
M  V30 8741 H 821.84 1.84514 2.34515 0
M  V30 8742 C 820.589 0.452922 3.44737 0
M  V30 8743 H 819.912 1.24485 3.79926 0
M  V30 8744 H 821.352 0.299238 4.22943 0
M  V30 8745 C 819.811 -0.831435 3.26479 0
M  V30 8746 O 820.341 -1.89535 3.54174 0
M  V30 8747 N 818.547 -0.784545 2.79809 0
M  V30 8748 H 818.094 0.0814746 2.57471 0
M  V30 8749 H 818.052 -1.64431 2.67973 0
M  V30 8750 N 821.824 -1.22873 0.986916 0
M  V30 8751 C 823.235 -1.73264 0.695438 0
M  V30 8752 C 823.586 -1.79679 -0.788023 0
M  V30 8753 O 822.711 -1.43905 -1.61618 0
M  V30 8754 C 823.306 -3.14671 1.2557 0
M  V30 8755 C 821.865 -3.62492 1.01373 0
M  V30 8756 C 821.012 -2.40551 1.37951 0
M  V30 8757 H 823.963 -1.08304 1.15999 0
M  V30 8758 H 823.984 -3.75226 0.631322 0
M  V30 8759 H 823.496 -3.0997 2.33539 0
M  V30 8760 H 821.597 -3.72567 -0.0495917 0
M  V30 8761 H 821.71 -4.48944 1.67289 0
M  V30 8762 H 820.074 -2.41875 0.798033 0
M  V30 8763 H 820.857 -2.38516 2.46911 0
M  V30 8764 N 823.302 -0.75937 -1.38099 0
M  V30 8765 C 824.718 -0.437606 -1.53483 0
M  V30 8766 C 824.918 1.04849 -1.72072 0
M  V30 8767 O 823.974 1.83448 -1.73502 0
M  V30 8768 C 825.287 -1.24189 -2.73857 0
M  V30 8769 C 826.835 -1.23255 -2.8771 0
M  V30 8770 C 827.31 -2.01992 -4.11051 0
M  V30 8771 N 828.801 -1.99282 -4.1814 0
M  V30 8772 C 829.536 -2.56996 -5.12583 0
M  V30 8773 N 829.032 -3.23446 -6.12662 0
M  V30 8774 N 830.825 -2.46894 -5.04975 0
M  V30 8775 H 822.976 -1.72242 -1.24283 0
M  V30 8776 H 825.239 -0.730507 -0.604205 0
M  V30 8777 H 824.945 -2.29449 -2.66545 0
M  V30 8778 H 824.819 -0.862672 -3.67203 0
M  V30 8779 H 827.206 -0.187988 -2.94501 0
M  V30 8780 H 827.287 -1.65132 -1.95359 0
M  V30 8781 H 826.931 -3.06462 -4.05023 0
M  V30 8782 H 826.861 -1.57505 -5.02494 0
M  V30 8783 H 829.352 -1.50893 -3.46467 0
M  V30 8784 H 829.665 -3.6489 -6.81231 0
M  V30 8785 H 828.01 -3.27543 -6.12977 0
M  V30 8786 H 831.201 -1.94604 -4.25731 0
M  V30 8787 H 831.374 -2.92168 -5.78396 0
M  V30 8788 N 824.78 1.49157 -0.508906 0
M  V30 8789 C 826.027 2.02473 0.0327983 0
M  V30 8790 C 826.355 1.38792 1.36261 0
M  V30 8791 O 825.61 0.515576 1.88786 0
M  V30 8792 C 825.909 3.56687 0.225717 0
M  V30 8793 C 825.575 4.39046 -1.02708 0
M  V30 8794 C 824.237 4.61271 -1.37048 0
M  V30 8795 C 826.589 4.86902 -1.85946 0
M  V30 8796 C 823.917 5.28598 -2.54562 0
M  V30 8797 C 826.269 5.55521 -3.0262 0
M  V30 8798 C 824.933 5.7599 -3.3733 0
M  V30 8799 H 824.203 0.740903 0.0120017 0
M  V30 8800 H 826.85 1.79372 -0.670665 0
M  V30 8801 H 825.155 3.78511 1.01177 0
M  V30 8802 H 826.852 3.95541 0.659433 0
M  V30 8803 H 823.442 4.21994 -0.749615 0
M  V30 8804 H 827.626 4.69553 -1.6073 0
M  V30 8805 H 822.882 5.42646 -2.81682 0
M  V30 8806 H 827.056 5.91576 -3.67438 0
M  V30 8807 H 824.683 6.27934 -4.2849 0
M  V30 8808 N 826.258 0.243083 1.55714 0
M  V30 8809 C 827.535 -0.432851 1.90751 0
M  V30 8810 C 827.915 -1.76153 1.16333 0
M  V30 8811 O 827.263 -2.26783 0.279565 0
M  V30 8812 C 827.473 -0.604685 3.43722 0
M  V30 8813 C 828.821 -0.90231 4.14902 0
M  V30 8814 O 829.845 -0.690689 3.49439 0
M  V30 8815 O 828.704 -1.3051 5.30688 0
M  V30 8816 H 825.798 -0.231835 0.79384 0
M  V30 8817 H 828.344 0.286867 1.67258 0
M  V30 8818 H 827.116 0.331655 3.89892 0
M  V30 8819 H 826.739 -1.37509 3.73065 0
M  V30 8820 N 827.736 -1.57571 -0.0300757 0
M  V30 8821 C 828.984 -1.88852 -0.719666 0
M  V30 8822 C 829.305 -0.840645 -1.75949 0
M  V30 8823 O 828.575 0.125854 -1.95495 0
M  V30 8824 H 827.155 -0.696965 -0.268792 0
M  V30 8825 H 829.817 -1.949 0.00373285 0
M  V30 8826 H 828.913 -2.87695 -1.20987 0
M  V30 8827 N 829.214 0.302327 -1.54673 0
M  V30 8828 C 830.462 1.03565 -1.73547 0
M  V30 8829 C 830.783 1.87843 -0.523448 0
M  V30 8830 O 830.053 1.90367 0.462295 0
M  V30 8831 H 828.633 0.385358 -0.639928 0
M  V30 8832 H 831.295 0.333632 -1.92023 0
M  V30 8833 H 830.391 1.68952 -2.62415 0
M  V30 8834 N 830.692 1.47107 0.565454 0
M  V30 8835 C 832.108 1.32443 0.890566 0
M  V30 8836 C 832.308 0.308735 1.99121 0
M  V30 8837 O 831.364 -0.28265 2.50913 0
M  V30 8838 C 832.677 2.71548 1.2916 0
M  V30 8839 C 834.225 2.7977 1.40349 0
M  V30 8840 C 834.7 4.19497 1.83811 0
M  V30 8841 N 836.191 4.21998 1.90975 0
M  V30 8842 C 836.926 5.2702 2.25916 0
M  V30 8843 N 836.422 6.42353 2.59527 0
M  V30 8844 N 838.215 5.14393 2.26619 0
M  V30 8845 H 830.366 2.11786 -0.161328 0
M  V30 8846 H 832.629 0.947952 -0.00950631 0
M  V30 8847 H 832.335 3.47265 0.556753 0
M  V30 8848 H 832.209 3.02782 2.24951 0
M  V30 8849 H 834.596 2.0433 2.12916 0
M  V30 8850 H 834.677 2.522 0.427655 0
M  V30 8851 H 834.321 4.95439 1.11816 0
M  V30 8852 H 834.251 4.44486 2.82382 0
M  V30 8853 H 836.742 3.38791 1.6742 0
M  V30 8854 H 837.055 7.18252 2.85191 0
M  V30 8855 H 835.4 6.45687 2.57126 0
M  V30 8856 H 838.591 4.2332 1.99794 0
M  V30 8857 H 838.764 5.96349 2.5352 0
M  V30 8858 N 832.17 -0.811516 1.35101 0
M  V30 8859 C 833.1 -1.9378 1.30275 0
M  V30 8860 C 834.081 -1.69165 0.178075 0
M  V30 8861 O 835.266 -1.90599 0.372256 0
M  V30 8862 C 832.396 -3.30439 1.06899 0
M  V30 8863 C 831.35 -3.69523 2.15955 0
M  V30 8864 C 830.676 -5.0429 1.77751 0
M  V30 8865 C 831.976 -3.80419 3.57881 0
M  V30 8866 H 833.67 -1.98075 2.24514 0
M  V30 8867 H 831.216 -0.951586 1.08078 0
M  V30 8868 H 833.169 -4.08828 1.02164 0
M  V30 8869 H 831.893 -3.26473 0.0910462 0
M  V30 8870 H 830.552 -2.93416 2.19778 0
M  V30 8871 H 830.2 -4.96823 0.785876 0
M  V30 8872 H 829.9 -5.31411 2.5075 0
M  V30 8873 H 831.424 -5.85125 1.74533 0
M  V30 8874 H 832.838 -4.49051 3.56407 0
M  V30 8875 H 831.235 -4.19005 4.29598 0
M  V30 8876 H 832.305 -2.82105 3.94391 0
M  V30 8877 N 833.648 -1.19017 -1.03309 0
M  V30 8878 C 834.894 -0.991681 -1.769 0
M  V30 8879 C 835.227 0.476813 -1.88255 0
M  V30 8880 O 834.502 1.35407 -1.39625 0
M  V30 8881 C 834.785 -1.65627 -3.19749 0
M  V30 8882 C 834.638 -3.19813 -3.1629 0
M  V30 8883 C 835.957 -1.37579 -4.18043 0
M  V30 8884 H 833.076 -0.361674 -0.642153 0
M  V30 8885 H 835.718 -1.46795 -1.20628 0
M  V30 8886 H 833.868 -1.25132 -3.67796 0
M  V30 8887 H 835.54 -3.69494 -2.76174 0
M  V30 8888 H 833.783 -3.51578 -2.54117 0
M  V30 8889 H 834.454 -3.61457 -4.17196 0
M  V30 8890 H 836.93 -1.72679 -3.78578 0
M  V30 8891 H 835.806 -1.86636 -5.16196 0
M  V30 8892 H 836.067 -0.300118 -4.4108 0
M  V30 8893 N 835.127 1.22348 -0.993418 0
M  V30 8894 C 836.355 1.95125 -0.688021 0
M  V30 8895 C 836.77 1.73377 0.747388 0
M  V30 8896 O 836.127 1.03317 1.50439 0
M  V30 8897 C 836.178 3.47819 -0.985097 0
M  V30 8898 O 835.899 3.68838 -2.3641 0
M  V30 8899 C 837.4 4.37779 -0.697474 0
M  V30 8900 H 834.62 0.62087 -0.254481 0
M  V30 8901 H 837.164 1.55485 -1.32833 0
M  V30 8902 H 835.319 3.85426 -0.390583 0
M  V30 8903 H 835.733 4.63032 -2.46377 0
M  V30 8904 H 837.207 5.43666 -0.955604 0
M  V30 8905 H 837.684 4.37651 0.368524 0
M  V30 8906 H 838.29 4.05799 -1.27306 0
M  V30 8907 N 836.605 0.766683 1.37694 0
M  V30 8908 C 837.852 0.328714 1.99814 0
M  V30 8909 C 838.18 -1.09333 1.60862 0
M  V30 8910 O 837.435 -1.7657 0.8439 0
M  V30 8911 C 837.734 0.413831 3.54996 0
M  V30 8912 C 837.4 1.7934 4.137 0
M  V30 8913 C 836.062 2.17092 4.29447 0
M  V30 8914 C 838.414 2.69776 4.45949 0
M  V30 8915 C 835.742 3.44726 4.74743 0
M  V30 8916 C 838.094 3.96814 4.92667 0
M  V30 8917 C 836.758 4.34618 5.0662 0
M  V30 8918 H 836.028 0.120285 0.731172 0
M  V30 8919 H 838.675 0.97972 1.64541 0
M  V30 8920 H 836.98 -0.320723 3.90485 0
M  V30 8921 H 838.677 0.0563369 4.0096 0
M  V30 8922 H 835.267 1.48997 4.01868 0
M  V30 8923 H 839.451 2.41871 4.33373 0
M  V30 8924 H 834.707 3.73917 4.83731 0
M  V30 8925 H 838.881 4.67022 5.16588 0
M  V30 8926 H 836.508 5.33578 5.41478 0
M  V30 8927 N 838.083 -1.48885 0.516809 0
M  V30 8928 C 839.031 -2.31066 -0.266656 0
M  V30 8929 C 840.025 -1.40393 -0.94795 0
M  V30 8930 O 841.231 -1.57366 -0.873836 0
M  V30 8931 H 837.606 -0.744654 -0.104858 0
M  V30 8932 H 839.577 -2.95045 0.446236 0
M  V30 8933 C 838.326 -3.22131 -1.3087 0
M  V30 8934 H 837.649 -3.91839 -0.793865 0
M  V30 8935 H 839.089 -3.82544 -1.82856 0
M  V30 8936 C 837.548 -2.42825 -2.33533 0
M  V30 8937 O 838.078 -2.14364 -3.39722 0
M  V30 8938 N 836.284 -2.04559 -2.06407 0
M  V30 8939 H 835.831 -2.27905 -1.20071 0
M  V30 8940 H 835.789 -1.51807 -2.75322 0
M  V30 8941 N 839.561 -0.251338 -1.55583 0
M  V30 8942 C 840.789 0.376187 -2.03451 0
M  V30 8943 C 841.204 1.51215 -1.13047 0
M  V30 8944 O 840.561 1.81917 -0.145769 0
M  V30 8945 C 840.612 0.879779 -3.50631 0
M  V30 8946 O 840.333 -0.210917 -4.37592 0
M  V30 8947 C 841.834 1.57754 -4.14281 0
M  V30 8948 H 839.054 0.0888722 -0.665089 0
M  V30 8949 H 841.598 -0.376497 -2.01004 0
M  V30 8950 H 839.753 1.58263 -3.53598 0
M  V30 8951 H 840.167 0.172203 -5.24217 0
M  V30 8952 H 841.641 1.88158 -5.18942 0
M  V30 8953 H 842.118 2.50103 -3.61034 0
M  V30 8954 H 842.724 0.919154 -4.15249 0
M  V30 8955 N 841.039 1.57585 0.0217189 0
M  V30 8956 C 841.987 2.08134 1.03842 0
M  V30 8957 C 842.981 0.996662 1.36978 0
M  V30 8958 O 844.187 1.18149 1.35797 0
M  V30 8959 H 840.562 0.664298 0.352438 0
M  V30 8960 H 842.533 2.92583 0.58634 0
M  V30 8961 C 841.282 2.58218 2.32849 0
M  V30 8962 H 840.605 3.41302 2.08214 0
M  V30 8963 H 842.045 2.97289 3.02316 0
M  V30 8964 C 840.504 1.48664 3.02325 0
M  V30 8965 O 841.034 0.857075 3.9245 0
M  V30 8966 N 839.24 1.21938 2.63779 0
M  V30 8967 H 838.787 1.73319 1.90574 0
M  V30 8968 H 838.745 0.488523 3.10581 0
M  V30 8969 N 842.517 -0.29412 1.54831 0
M  V30 8970 C 843.465 -1.38296 1.87021 0
M  V30 8971 C 844.459 -1.5216 0.744557 0
M  V30 8972 O 845.665 -1.54196 0.92864 0
M  V30 8973 H 842.04 -0.462088 0.593278 0
M  V30 8974 H 844.011 -1.08386 2.7802 0
M  V30 8975 C 842.76 -2.74024 2.14023 0
M  V30 8976 H 842.083 -2.6414 3.00117 0
M  V30 8977 H 843.523 -3.49205 2.40482 0
M  V30 8978 C 841.982 -3.23492 0.940982 0
M  V30 8979 O 842.512 -4.01361 0.164937 0
M  V30 8980 N 840.718 -2.80902 0.744467 0
M  V30 8981 H 840.265 -2.17694 1.37721 0
M  V30 8982 H 840.223 -3.14349 -0.0563652 0
M  V30 8983 N 843.995 -1.47404 -0.557645 0
M  V30 8984 C 844.942 -1.59859 -1.66475 0
M  V30 8985 C 845.912 -0.441644 -1.60121 0
M  V30 8986 O 847.097 -0.661641 -1.78961 0
M  V30 8987 C 844.237 -1.61843 -3.04797 0
M  V30 8988 C 843.35 -2.8845 -3.2159 0
M  V30 8989 C 842.485 -2.81773 -4.50308 0
M  V30 8990 C 841.524 -4.03208 -4.60532 0
M  V30 8991 N 840.661 -3.94769 -5.80604 0
M  V30 8992 H 845.501 -2.54415 -1.55168 0
M  V30 8993 H 843.038 -1.26194 -0.755876 0
M  V30 8994 H 844.996 -1.60976 -3.84893 0
M  V30 8995 H 843.626 -0.707997 -3.1494 0
M  V30 8996 H 842.678 -2.99186 -2.34929 0
M  V30 8997 H 843.99 -3.78379 -3.25009 0
M  V30 8998 H 843.144 -2.79153 -5.38663 0
M  V30 8999 H 841.883 -1.89527 -4.49367 0
M  V30 9000 H 840.888 -4.06133 -3.70589 0
M  V30 9001 H 842.113 -4.9658 -4.63233 0
M  V30 9002 H 840.059 -3.05326 -5.80613 0
M  V30 9003 H 839.976 -4.78375 -5.854 0
M  V30 9004 H 841.244 -3.96165 -6.71322 0
M  V30 9005 N 845.473 0.80434 -1.35529 0
M  V30 9006 C 846.423 1.90565 -1.25175 0
M  V30 9007 C 847.407 1.60232 -0.146512 0
M  V30 9008 O 848.599 1.72918 -0.377943 0
M  V30 9009 C 845.728 3.2754 -1.02823 0
M  V30 9010 C 844.814 3.63932 -2.17748 0
M  V30 9011 N 845.205 3.71744 -3.42986 0
M  V30 9012 C 843.503 3.93901 -2.09184 0
M  V30 9013 C 844.204 4.03944 -4.18574 0
M  V30 9014 N 843.18 4.18146 -3.47355 0
M  V30 9015 H 846.982 1.9481 -2.20059 0
M  V30 9016 H 844.496 0.99905 -1.28034 0
M  V30 9017 H 846.493 4.06281 -0.934941 0
M  V30 9018 H 845.153 3.2458 -0.0882551 0
M  V30 9019 H 846.164 3.54765 -3.77309 0
M  V30 9020 H 842.841 3.98954 -1.23054 0
M  V30 9021 H 844.231 4.17036 -5.26811 0
M  V30 9022 N 846.951 1.19563 1.02676 0
M  V30 9023 C 848.2 0.993864 1.75514 0
M  V30 9024 C 848.513 -0.475882 1.89723 0
M  V30 9025 O 849.719 -0.796525 2.59553 0
M  V30 9026 C 848.175 1.72937 3.15628 0
M  V30 9027 C 847.783 3.23937 3.09466 0
M  V30 9028 C 849.527 1.61092 3.92746 0
M  V30 9029 C 847.434 3.90067 4.44524 0
M  V30 9030 H 846.364 0.368244 0.657961 0
M  V30 9031 H 849.015 1.43081 1.14891 0
M  V30 9032 H 847.397 1.22025 3.76731 0
M  V30 9033 H 848.571 3.81983 2.57731 0
M  V30 9034 H 846.886 3.3608 2.45843 0
M  V30 9035 H 849.483 2.07848 4.92649 0
M  V30 9036 H 849.826 0.565415 4.12442 0
M  V30 9037 H 850.359 2.09361 3.3825 0
M  V30 9038 H 847.098 4.94725 4.30032 0
M  V30 9039 H 846.618 3.36809 4.96306 0
M  V30 9040 H 848.297 3.93736 5.13401 0
M  V30 9041 N 848.429 -1.21819 0.999893 0
M  V30 9042 C 849.678 -1.90066 0.675108 0
M  V30 9043 C 849.991 -1.78624 -0.79705 0
M  V30 9044 O 851.197 -2.41851 -1.23371 0
M  V30 9045 C 849.653 -3.40795 1.15702 0
M  V30 9046 C 849.261 -3.60859 2.6549 0
M  V30 9047 C 851.005 -4.147 0.906889 0
M  V30 9048 C 848.912 -5.05324 3.07248 0
M  V30 9049 H 847.842 -0.711763 0.248815 0
M  V30 9050 H 850.493 -1.3792 1.21038 0
M  V30 9051 H 848.875 -3.92164 0.549832 0
M  V30 9052 H 850.049 -3.19951 3.31614 0
M  V30 9053 H 848.364 -3.00298 2.88461 0
M  V30 9054 H 850.961 -5.21187 1.1945 0
M  V30 9055 H 851.304 -4.16004 -0.156923 0
M  V30 9056 H 851.837 -3.69379 1.47662 0
M  V30 9057 H 848.576 -5.09164 4.12834 0
M  V30 9058 H 848.096 -5.47108 2.45832 0
M  V30 9059 H 849.775 -5.73797 2.98941 0
M  V30 9060 N 849.908 -0.773975 -1.37286 0
M  V30 9061 C 851.156 -0.338636 -1.99243 0
M  V30 9062 C 851.477 1.08919 -1.61746 0
M  V30 9063 O 850.747 1.74822 -0.88397 0
M  V30 9064 H 849.327 -0.12222 -0.736934 0
M  V30 9065 H 851.989 -0.992595 -1.67731 0
M  V30 9066 H 851.085 -0.418055 -3.09287 0
M  V30 9067 N 851.386 1.48609 -0.524698 0
M  V30 9068 C 852.616 2.06599 0.00741868 0
M  V30 9069 C 853.024 1.3823 1.29186 0
M  V30 9070 O 852.367 0.461962 1.77797 0
M  V30 9071 C 852.429 3.58184 0.307324 0
M  V30 9072 C 852.093 4.48391 -0.882864 0
M  V30 9073 C 853.09 4.88485 -1.77984 0
M  V30 9074 C 850.775 4.90367 -1.08837 0
M  V30 9075 C 852.769 5.69319 -2.86627 0
M  V30 9076 C 850.456 5.70972 -2.17794 0
M  V30 9077 C 851.454 6.10355 -3.06523 0
M  V30 9078 O 851.142 6.89343 -4.13596 0
M  V30 9079 H 850.874 0.675421 -0.0279846 0
M  V30 9080 H 853.428 1.92058 -0.7282 0
M  V30 9081 H 851.658 3.70818 1.09685 0
M  V30 9082 H 853.347 3.98318 0.780886 0
M  V30 9083 H 854.113 4.56682 -1.63299 0
M  V30 9084 H 849.992 4.592 -0.407035 0
M  V30 9085 H 853.536 5.99978 -3.55911 0
M  V30 9086 H 849.433 6.02188 -2.32465 0
M  V30 9087 H 850.201 7.07689 -4.1124 0
M  V30 9088 N 852.864 0.259585 1.55447 0
M  V30 9089 C 854.113 -0.362163 1.98422 0
M  V30 9090 C 854.426 -1.58135 1.1512 0
M  V30 9091 O 855.632 -2.27506 1.48166 0
M  V30 9092 C 854.088 -0.695722 3.53111 0
M  V30 9093 C 853.696 0.502784 4.4517 0
M  V30 9094 C 855.44 -1.28096 4.04712 0
M  V30 9095 C 853.347 0.144674 5.91223 0
M  V30 9096 H 852.277 -0.139092 0.74106 0
M  V30 9097 H 854.928 0.361798 1.79898 0
M  V30 9098 H 853.31 -1.47816 3.67378 0
M  V30 9099 H 854.484 1.27994 4.42667 0
M  V30 9100 H 852.799 1.0038 4.0412 0
M  V30 9101 H 855.396 -1.56243 5.11363 0
M  V30 9102 H 855.739 -2.20969 3.52815 0
M  V30 9103 H 856.272 -0.561146 3.93822 0
M  V30 9104 H 853.011 1.04087 6.47183 0
M  V30 9105 H 852.531 -0.596023 5.96831 0
M  V30 9106 H 854.21 -0.268651 6.46442 0
M  V30 9107 N 854.342 -1.57594 -0.0133615 0
M  V30 9108 C 855.758 -1.5527 -0.369255 0
M  V30 9109 C 855.958 -0.987751 -1.7563 0
M  V30 9110 O 855.014 -0.615683 -2.44879 0
M  V30 9111 C 856.327 -2.99602 -0.25672 0
M  V30 9112 C 857.875 -3.11227 -0.332647 0
M  V30 9113 C 858.35 -4.57321 -0.249387 0
M  V30 9114 N 859.841 -4.62177 -0.3077 0
M  V30 9115 C 860.576 -5.72781 -0.26641 0
M  V30 9116 N 860.072 -6.92575 -0.176494 0
M  V30 9117 N 861.865 -5.61204 -0.317295 0
M  V30 9118 H 854.016 -1.92662 0.894154 0
M  V30 9119 H 856.279 -0.884352 0.341505 0
M  V30 9120 H 855.985 -3.44723 0.697072 0
M  V30 9121 H 855.859 -3.6246 -1.04415 0
M  V30 9122 H 858.246 -2.66045 -1.27688 0
M  V30 9123 H 858.327 -2.51171 0.484412 0
M  V30 9124 H 857.971 -5.03174 0.691242 0
M  V30 9125 H 857.901 -5.15306 -1.08476 0
M  V30 9126 H 860.392 -3.75994 -0.379069 0
M  V30 9127 H 860.705 -7.72653 -0.150518 0
M  V30 9128 H 859.05 -6.94854 -0.142314 0
M  V30 9129 H 862.241 -4.66509 -0.385643 0
M  V30 9130 H 862.414 -6.47388 -0.28165 0
M  V30 9131 N 855.82 0.285905 -1.54985 0
M  V30 9132 C 856.768 1.37302 -1.87752 0
M  V30 9133 C 857.762 1.51763 -0.752616 0
M  V30 9134 O 858.968 1.53701 -0.936805 0
M  V30 9135 H 855.343 0.458935 -0.59572 0
M  V30 9136 H 857.314 1.0691 -2.78591 0
M  V30 9137 C 856.063 2.72885 -2.15474 0
M  V30 9138 H 855.386 2.62545 -3.01513 0
M  V30 9139 H 856.826 3.47925 -2.42331 0
M  V30 9140 C 855.285 3.22989 -0.958124 0
M  V30 9141 O 855.815 4.01268 -0.186219 0
M  V30 9142 N 854.021 2.80503 -0.759354 0
M  V30 9143 H 853.568 2.16961 -1.38874 0
M  V30 9144 H 853.526 3.14375 0.0396937 0
M  V30 9145 N 857.298 1.47698 0.54982 0
M  V30 9146 C 858.246 1.61156 1.67724 0
M  V30 9147 C 859.24 0.478606 1.62498 0
M  V30 9148 O 860.446 0.656661 1.67595 0
M  V30 9149 H 856.821 0.507304 0.55511 0
M  V30 9150 H 858.792 2.55884 1.53512 0
M  V30 9151 C 857.541 1.64994 3.06059 0
M  V30 9152 H 856.864 2.51525 3.10765 0
M  V30 9153 H 858.304 1.78459 3.84615 0
M  V30 9154 C 856.763 0.384677 3.34697 0
M  V30 9155 O 857.293 -0.511057 3.98436 0
M  V30 9156 N 855.499 0.262434 2.89413 0
M  V30 9157 H 855.046 0.99229 2.37721 0
M  V30 9158 H 855.004 -0.583177 3.08944 0
M  V30 9159 N 858.776 -0.797141 1.35954 0
M  V30 9160 C 859.739 -1.89104 1.29508 0
M  V30 9161 C 860.739 -1.59495 0.204444 0
M  V30 9162 O 861.929 -1.68051 0.458746 0
M  V30 9163 C 859.061 -3.25726 1.00576 0
M  V30 9164 H 860.254 -1.96237 2.26785 0
M  V30 9165 H 857.807 -0.994075 1.20614 0
M  V30 9166 H 858.542 -3.24279 0.0372519 0
M  V30 9167 H 858.327 -3.48604 1.79492 0
M  V30 9168 H 859.817 -4.0578 0.986508 0
M  V30 9169 N 860.254 -1.20106 -1.0204 0
M  V30 9170 C 861.184 -0.970301 -2.12385 0
M  V30 9171 C 862.165 0.099378 -1.69809 0
M  V30 9172 O 863.35 -0.057365 -1.94115 0
M  V30 9173 C 860.48 -0.517431 -3.43424 0
M  V30 9174 C 859.434 -1.52992 -3.99722 0
M  V30 9175 C 858.76 -0.933817 -5.26483 0
M  V30 9176 C 860.06 -2.91257 -4.33551 0
M  V30 9177 H 861.754 -1.89316 -2.31948 0
M  V30 9178 H 859.3 -0.911655 -1.11467 0
M  V30 9179 H 861.253 -0.343243 -4.2 0
M  V30 9180 H 859.977 0.441049 -3.23608 0
M  V30 9181 H 858.636 -1.6914 -3.2525 0
M  V30 9182 H 858.284 0.0324763 -5.0299 0
M  V30 9183 H 857.984 -1.60999 -5.65113 0
M  V30 9184 H 859.508 -0.770614 -6.05718 0
M  V30 9185 H 860.922 -2.78642 -5.0103 0
M  V30 9186 H 859.319 -3.55745 -4.83286 0
M  V30 9187 H 860.389 -3.43269 -3.42483 0
M  V30 9188 N 861.732 1.21287 -1.00634 0
M  V30 9189 C 862.662 2.25973 -0.588089 0
M  V30 9190 C 863.643 1.65527 0.391764 0
M  V30 9191 O 864.828 1.92179 0.279452 0
M  V30 9192 C 861.958 3.47197 0.0847336 0
M  V30 9193 C 860.912 4.20168 -0.815039 0
M  V30 9194 C 860.238 5.34699 -0.00855393 0
M  V30 9195 C 861.538 4.77416 -2.11828 0
M  V30 9196 H 863.232 2.61212 -1.46317 0
M  V30 9197 H 860.778 1.25563 -0.704985 0
M  V30 9198 H 862.731 4.19602 0.388821 0
M  V30 9199 H 861.455 3.11092 0.994456 0
M  V30 9200 H 860.114 3.49614 -1.10297 0
M  V30 9201 H 859.762 4.94837 0.902499 0
M  V30 9202 H 859.462 5.84449 -0.607664 0
M  V30 9203 H 860.986 6.09914 0.289317 0
M  V30 9204 H 862.4 5.41694 -1.87725 0
M  V30 9205 H 860.797 5.37561 -2.66736 0
M  V30 9206 H 861.867 3.96724 -2.78816 0
M  V30 9207 N 863.21 0.781244 1.36873 0
M  V30 9208 C 864.173 0.180094 2.28491 0
M  V30 9209 C 865.173 -0.617798 1.48458 0
M  V30 9210 O 866.363 -0.439991 1.68552 0
M  V30 9211 C 863.495 -0.751741 3.32508 0
M  V30 9212 H 864.688 0.987837 2.83164 0
M  V30 9213 H 862.241 0.550102 1.463 0
M  V30 9214 H 862.976 -1.58413 2.82977 0
M  V30 9215 H 862.761 -0.181649 3.91679 0
M  V30 9216 H 864.251 -1.16748 4.00949 0
M  V30 9217 N 864.689 -1.48329 0.532571 0
M  V30 9218 C 865.936 -2.025 -0.000582356 0
M  V30 9219 C 866.264 -1.40942 -1.34036 0
M  V30 9220 O 865.519 -0.545545 -1.87942 0
M  V30 9221 C 865.818 -3.57 -0.168943 0
M  V30 9222 C 865.484 -4.37357 1.0968 0
M  V30 9223 C 864.146 -4.59033 1.44369 0
M  V30 9224 C 866.498 -4.83882 1.93669 0
M  V30 9225 C 863.826 -5.24481 2.62939 0
M  V30 9226 C 866.178 -5.50637 3.11419 0
M  V30 9227 C 864.842 -5.70551 3.46451 0
M  V30 9228 H 864.112 -0.741 -0.000213099 0
M  V30 9229 H 866.759 -1.78282 0.699117 0
M  V30 9230 H 865.064 -3.80072 -0.951429 0
M  V30 9231 H 866.761 -3.9654 -0.596422 0
M  V30 9232 H 863.351 -4.20748 0.816655 0
M  V30 9233 H 867.535 -4.66936 1.6818 0
M  V30 9234 H 862.791 -5.38096 2.9028 0
M  V30 9235 H 866.965 -5.85655 3.76803 0
M  V30 9236 H 864.592 -6.21037 4.38425 0
M  V30 9237 N 866.167 -0.267825 -1.55308 0
M  V30 9238 C 867.415 0.350343 -1.9904 0
M  V30 9239 C 867.736 1.56924 -1.15758 0
M  V30 9240 O 867.006 1.94358 -0.245336 0
M  V30 9241 H 865.586 0.132435 -0.735167 0
M  V30 9242 H 868.248 -0.371471 -1.91327 0
M  V30 9243 H 867.344 0.645203 -3.05358 0
M  V30 9244 N 867.645 1.57599 0.00500368 0
M  V30 9245 C 868.593 2.09223 1.01628 0
M  V30 9246 C 869.587 1.01113 1.35913 0
M  V30 9247 O 870.793 1.19583 1.34536 0
M  V30 9248 H 867.168 0.667999 0.345372 0
M  V30 9249 H 869.139 2.93188 0.555274 0
M  V30 9250 C 867.888 2.60674 2.30097 0
M  V30 9251 H 867.211 3.43491 2.04582 0
M  V30 9252 H 868.651 3.00479 2.99146 0
M  V30 9253 C 867.11 1.51862 3.00731 0
M  V30 9254 O 867.64 0.898651 3.91519 0
M  V30 9255 N 865.846 1.24729 2.62471 0
M  V30 9256 H 865.393 1.7533 1.88725 0
M  V30 9257 H 865.351 0.521437 3.10046 0
M  V30 9258 N 869.123 -0.277682 1.55134 0
M  V30 9259 C 870.37 -1.0099 1.7552 0
M  V30 9260 C 870.698 -1.86452 0.553712 0
M  V30 9261 O 869.953 -1.90122 -0.463896 0
M  V30 9262 C 870.252 -1.92599 3.01065 0
M  V30 9263 C 869.918 -1.22926 4.3382 0
M  V30 9264 C 868.58 -1.03659 4.69902 0
M  V30 9265 C 870.932 -0.733071 5.16019 0
M  V30 9266 C 868.26 -0.334933 5.85743 0
M  V30 9267 C 870.612 -0.0450319 6.32584 0
M  V30 9268 C 869.276 0.159393 6.6731 0
M  V30 9269 H 868.546 -0.36955 0.642273 0
M  V30 9270 H 871.193 -0.282611 1.89403 0
M  V30 9271 H 869.498 -2.71934 2.82062 0
M  V30 9272 H 871.195 -2.49367 3.14034 0
M  V30 9273 H 867.785 -1.38933 4.05457 0
M  V30 9274 H 871.969 -0.869565 4.88623 0
M  V30 9275 H 867.225 -0.165783 6.11175 0
M  V30 9276 H 871.399 0.34723 6.95534 0
M  V30 9277 H 869.026 0.70507 7.56923 0
M  V30 9278 N 870.601 -1.47988 -0.541979 0
M  V30 9279 C 871.826 -1.59286 -1.32826 0
M  V30 9280 C 872.251 -0.24894 -1.86445 0
M  V30 9281 O 871.609 0.777581 -1.63778 0
M  V30 9282 C 871.657 -2.6334 -2.46343 0
M  V30 9283 O 870.761 -2.19667 -3.49028 0
M  V30 9284 H 870.102 -0.534543 -0.393903 0
M  V30 9285 H 872.632 -1.93885 -0.653427 0
M  V30 9286 H 872.642 -2.84238 -2.92699 0
M  V30 9287 H 871.317 -3.60913 -2.06675 0
M  V30 9288 H 869.894 -2.08932 -3.08872 0
M  V30 9289 N 872.079 0.78992 -1.36375 0
M  V30 9290 C 872.989 1.93386 -1.32812 0
M  V30 9291 C 874.005 1.72468 -0.230377 0
M  V30 9292 O 875.181 1.96014 -0.462657 0
M  V30 9293 C 872.246 3.2824 -1.11621 0
M  V30 9294 C 871.307 3.61939 -2.30865 0
M  V30 9295 C 870.54 4.90359 -2.10675 0
M  V30 9296 O 870.763 5.6005 -1.08168 0
M  V30 9297 O 869.697 5.22702 -2.9844 0
M  V30 9298 H 873.523 1.99342 -2.29121 0
M  V30 9299 H 871.108 0.9301 -1.16917 0
M  V30 9300 H 872.99 4.08939 -1.01719 0
M  V30 9301 H 871.665 3.23178 -0.183732 0
M  V30 9302 H 870.572 2.81549 -2.46335 0
M  V30 9303 H 871.905 3.71725 -3.22617 0
M  V30 9304 N 873.557 1.20646 1.01402 0
M  V30 9305 C 874.787 1.04238 1.78376 0
M  V30 9306 C 875.195 -0.411327 1.84675 0
M  V30 9307 O 874.538 -1.29734 1.30057 0
M  V30 9308 C 874.6 1.55349 3.24202 0
M  V30 9309 C 874.264 3.03684 3.41504 0
M  V30 9310 C 875.261 4.01318 3.30514 0
M  V30 9311 C 872.946 3.42698 3.67237 0
M  V30 9312 C 874.94 5.35956 3.45007 0
M  V30 9313 C 872.627 4.77491 3.81373 0
M  V30 9314 C 873.625 5.73929 3.70263 0
M  V30 9315 O 873.313 7.06277 3.83963 0
M  V30 9316 H 873.045 0.366978 0.567718 0
M  V30 9317 H 875.599 1.60235 1.28506 0
M  V30 9318 H 873.829 0.93739 3.75166 0
M  V30 9319 H 875.518 1.34921 3.8282 0
M  V30 9320 H 876.284 3.72522 3.10568 0
M  V30 9321 H 872.163 2.68175 3.74971 0
M  V30 9322 H 875.707 6.11212 3.36252 0
M  V30 9323 H 871.604 5.05977 4.00821 0
M  V30 9324 H 872.372 7.13561 4.00965 0
M  V30 9325 N 875.035 -1.20752 1.01276 0
M  V30 9326 C 876.446 -1.7175 0.732033 0
M  V30 9327 C 876.797 -1.8131 -0.749733 0
M  V30 9328 O 875.922 -1.47301 -1.58529 0
M  V30 9329 C 876.517 -3.11936 1.32217 0
M  V30 9330 C 875.076 -3.6026 1.09039 0
M  V30 9331 C 874.223 -2.37571 1.43022 0
M  V30 9332 H 877.174 -1.0582 1.1827 0
M  V30 9333 H 877.195 -3.73802 0.710771 0
M  V30 9334 H 876.707 -3.04946 2.40061 0
M  V30 9335 H 874.808 -3.72588 0.0294464 0
M  V30 9336 H 874.921 -4.45295 1.76775 0
M  V30 9337 H 873.285 -2.40128 0.849159 0
M  V30 9338 H 874.068 -2.33225 2.51915 0
M  V30 9339 N 876.513 -0.788492 -1.36457 0
M  V30 9340 C 877.445 -0.144208 -2.28746 0
M  V30 9341 C 878.458 0.646009 -1.49434 0
M  V30 9342 O 879.647 0.481344 -1.71888 0
M  V30 9343 C 876.747 0.818869 -3.28858 0
M  V30 9344 C 875.92 0.0789055 -4.37329 0
M  V30 9345 C 874.979 0.957791 -5.1741 0
M  V30 9346 O 874.005 0.415378 -5.67682 0
M  V30 9347 N 875.207 2.28216 -5.33758 0
M  V30 9348 H 877.972 -0.936949 -2.84678 0
M  V30 9349 H 875.533 -0.642317 -1.48613 0
M  V30 9350 H 877.525 1.41065 -3.79319 0
M  V30 9351 H 876.095 1.51249 -2.73573 0
M  V30 9352 H 875.315 -0.693939 -3.88044 0
M  V30 9353 H 876.603 -0.431753 -5.06965 0
M  V30 9354 H 876.001 2.747 -4.94527 0
M  V30 9355 H 874.558 2.8236 -5.87466 0
M  V30 9356 N 877.991 1.48044 -0.54043 0
M  V30 9357 C 879.219 2.06895 -0.0145153 0
M  V30 9358 C 879.634 1.39552 1.27164 0
M  V30 9359 O 878.991 0.486454 1.75897 0
M  V30 9360 C 879.042 3.60934 0.202278 0
M  V30 9361 O 878.763 4.25749 -1.03293 0
M  V30 9362 C 880.264 4.36607 0.767387 0
M  V30 9363 H 877.484 0.66991 -0.0382368 0
M  V30 9364 H 880.028 1.90288 -0.749057 0
M  V30 9365 H 878.183 3.77111 0.886897 0
M  V30 9366 H 878.597 5.18048 -0.820167 0
M  V30 9367 H 880.071 5.45126 0.86845 0
M  V30 9368 H 880.548 4.01745 1.77477 0
M  V30 9369 H 881.154 4.25133 0.119002 0
M  V30 9370 N 879.47 0.276058 1.55163 0
M  V30 9371 C 880.716 -0.340959 1.99913 0
M  V30 9372 C 881.049 -1.55434 1.16422 0
M  V30 9373 O 880.324 -1.93081 0.234517 0
M  V30 9374 C 880.607 -0.722211 3.52783 0
M  V30 9375 C 880.46 0.498575 4.47028 0
M  V30 9376 C 881.779 -1.5583 4.11589 0
M  V30 9377 H 878.898 -0.122455 0.726756 0
M  V30 9378 H 881.54 0.38319 1.86096 0
M  V30 9379 H 879.69 -1.33919 3.64689 0
M  V30 9380 H 881.362 1.13713 4.47065 0
M  V30 9381 H 879.605 1.13646 4.18649 0
M  V30 9382 H 880.276 0.188041 5.5168 0
M  V30 9383 H 882.752 -1.03722 4.02965 0
M  V30 9384 H 881.628 -1.79387 5.1876 0
M  V30 9385 H 881.889 -2.53963 3.61877 0
M  V30 9386 N 880.948 -1.576 0.00335426 0
M  V30 9387 C 882.176 -1.94996 -0.691685 0
M  V30 9388 C 882.591 -0.878405 -1.67121 0
M  V30 9389 O 881.948 0.142343 -1.81944 0
M  V30 9390 C 881.999 -3.32416 -1.42063 0
M  V30 9391 O 881.72 -4.35458 -0.48038 0
M  V30 9392 C 883.221 -3.84291 -2.20987 0
M  V30 9393 H 880.441 -0.642814 -0.192434 0
M  V30 9394 H 882.985 -2.04425 0.0554706 0
M  V30 9395 H 881.14 -3.24285 -2.11939 0
M  V30 9396 H 881.554 -5.14975 -0.995054 0
M  V30 9397 H 883.028 -4.82863 -2.67483 0
M  V30 9398 H 883.505 -3.17174 -3.03805 0
M  V30 9399 H 884.111 -3.95609 -1.56121 0
M  V30 9400 N 882.426 0.269451 -1.5528 0
M  V30 9401 C 883.389 1.31642 -1.87625 0
M  V30 9402 C 884.389 1.42182 -0.751058 0
M  V30 9403 O 885.579 1.41272 -1.01921 0
M  V30 9404 C 882.711 2.6973 -2.08467 0
M  V30 9405 H 883.904 1.0419 -2.81219 0
M  V30 9406 H 881.457 0.507685 -1.47825 0
M  V30 9407 H 882.192 3.02356 -1.17266 0
M  V30 9408 H 881.977 2.63465 -2.90394 0
M  V30 9409 H 883.467 3.4537 -2.34753 0
M  V30 9410 N 883.904 1.48273 0.534124 0
M  V30 9411 C 884.854 1.58889 1.63519 0
M  V30 9412 C 885.838 0.44626 1.54588 0
M  V30 9413 O 887.03 0.697474 1.62679 0
M  V30 9414 C 884.159 1.62787 3.0225 0
M  V30 9415 C 883.245 2.82515 3.16301 0
M  V30 9416 N 883.636 4.06977 3.00338 0
M  V30 9417 C 881.934 2.7976 3.47347 0
M  V30 9418 C 882.635 4.87283 3.17694 0
M  V30 9419 N 881.611 4.20024 3.45081 0
M  V30 9420 H 885.413 2.52869 1.49781 0
M  V30 9421 H 882.927 1.44587 0.739479 0
M  V30 9422 H 884.924 1.68486 3.81337 0
M  V30 9423 H 883.584 0.699201 3.17082 0
M  V30 9424 H 884.595 4.37479 2.77186 0
M  V30 9425 H 881.272 1.96132 3.68563 0
M  V30 9426 H 882.662 5.96047 3.10126 0
M  V30 9427 N 885.382 -0.782676 1.36792 0
M  V30 9428 C 886.61 -1.57162 1.34565 0
M  V30 9429 C 887.025 -1.88664 -0.0715501 0
M  V30 9430 O 886.382 -1.50633 -1.03033 0
M  V30 9431 C 886.433 -2.88854 2.1736 0
M  V30 9432 O 886.154 -2.58707 3.53557 0
M  V30 9433 C 887.655 -3.83132 2.2299 0
M  V30 9434 H 884.875 -0.487245 0.461338 0
M  V30 9435 H 887.419 -0.970905 1.79982 0
M  V30 9436 H 885.574 -3.45377 1.7548 0
M  V30 9437 H 885.988 -3.42961 3.96835 0
M  V30 9438 H 887.462 -4.72575 2.85266 0
M  V30 9439 H 887.939 -4.21472 1.23524 0
M  V30 9440 H 888.545 -3.32541 2.65135 0
M  V30 9441 N 886.86 -1.21182 -1.00761 0
M  V30 9442 C 887.79 -0.992773 -2.11344 0
M  V30 9443 C 888.771 0.0813618 -1.69905 0
M  V30 9444 O 889.956 -0.0779503 -1.94043 0
M  V30 9445 C 887.086 -0.553826 -3.42856 0
M  V30 9446 C 886.04 -1.57223 -3.98077 0
M  V30 9447 C 885.366 -0.989605 -5.25463 0
M  V30 9448 C 886.666 -2.95839 -4.30438 0
M  V30 9449 H 888.36 -1.91766 -2.29927 0
M  V30 9450 H 885.906 -0.923426 -1.10494 0
M  V30 9451 H 887.859 -0.387771 -4.19612 0
M  V30 9452 H 886.583 0.406702 -3.24058 0
M  V30 9453 H 885.242 -1.7258 -3.23437 0
M  V30 9454 H 884.89 -0.0208743 -5.02996 0
M  V30 9455 H 884.59 -1.66984 -5.63374 0
M  V30 9456 H 886.114 -0.834815 -6.04866 0
M  V30 9457 H 887.528 -2.8394 -4.98047 0
M  V30 9458 H 885.925 -3.60851 -4.79486 0
M  V30 9459 H 886.995 -3.46882 -3.38823 0
M  V30 9460 N 888.338 1.20213 -1.01915 0
M  V30 9461 C 889.27 2.2251 -0.549725 0
M  V30 9462 C 890.283 1.58558 0.369235 0
M  V30 9463 O 891.472 1.77715 0.167176 0
M  V30 9464 C 888.572 3.38189 0.219432 0
M  V30 9465 C 887.745 4.31729 -0.702066 0
M  V30 9466 C 886.804 5.26196 0.0199624 0
M  V30 9467 O 885.83 5.65993 -0.60339 0
M  V30 9468 N 887.032 5.65895 1.29397 0
M  V30 9469 H 889.797 2.63412 -1.42948 0
M  V30 9470 H 887.358 1.3478 -0.896987 0
M  V30 9471 H 889.35 3.98392 0.711763 0
M  V30 9472 H 887.92 2.96156 1.00051 0
M  V30 9473 H 887.14 3.69455 -1.37466 0
M  V30 9474 H 888.428 4.91145 -1.3287 0
M  V30 9475 H 887.826 5.35579 1.8213 0
M  V30 9476 H 886.383 6.28395 1.73098 0
M  V30 9477 N 889.816 0.795718 1.36037 0
M  V30 9478 C 890.779 0.204318 2.28287 0
M  V30 9479 C 891.779 -0.602017 1.49105 0
M  V30 9480 O 892.969 -0.422089 1.69009 0
M  V30 9481 C 890.101 -0.716431 3.33287 0
M  V30 9482 H 891.294 1.01781 2.821 0
M  V30 9483 H 888.847 0.565588 1.45708 0
M  V30 9484 H 889.582 -1.55403 2.84641 0
M  V30 9485 H 889.367 -0.140096 3.9185 0
M  V30 9486 H 890.857 -1.12488 4.02164 0
M  V30 9487 N 891.294 -1.47756 0.548274 0
M  V30 9488 C 892.227 -2.26804 -0.252059 0
M  V30 9489 C 893.205 -1.3349 -0.928389 0
M  V30 9490 O 894.389 -1.6286 -0.949156 0
M  V30 9491 C 891.516 -3.10266 -1.35841 0
M  V30 9492 C 890.562 -4.1909 -0.791578 0
M  V30 9493 S 891.395 -5.34323 0.354878 0
M  V30 9494 C 892.551 -6.21348 -0.753511 0
M  V30 9495 H 892.784 -2.94336 0.418744 0
M  V30 9496 H 890.317 -1.50735 0.334413 0
M  V30 9497 H 892.275 -3.58925 -1.99207 0
M  V30 9498 H 890.936 -2.42112 -2.00101 0
M  V30 9499 H 890.129 -4.77183 -1.62212 0
M  V30 9500 H 889.731 -3.73266 -0.234274 0
M  V30 9501 H 892.023 -6.57156 -1.6478 0
M  V30 9502 H 892.966 -7.07788 -0.210141 0
M  V30 9503 H 893.374 -5.54797 -1.04216 0
M  V30 9504 N 892.772 -0.284283 -1.55015 0
M  V30 9505 C 894.183 0.211681 -1.85496 0
M  V30 9506 C 894.534 1.54735 -1.2063 0
M  V30 9507 O 893.659 2.10594 -0.497918 0
M  V30 9508 C 894.254 0.390864 -3.36538 0
M  V30 9509 C 892.813 0.831055 -3.67111 0
M  V30 9510 C 891.96 -0.0703581 -2.77211 0
M  V30 9511 H 894.911 -0.505803 -1.50424 0
M  V30 9512 H 894.932 1.22803 -3.60138 0
M  V30 9513 H 894.444 -0.581409 -3.8372 0
M  V30 9514 H 892.545 1.81447 -3.25434 0
M  V30 9515 H 892.658 0.662026 -4.74504 0
M  V30 9516 H 891.022 0.447528 -2.50737 0
M  V30 9517 H 891.805 -1.03868 -3.2721 0
M  V30 9518 N 894.251 1.57596 -0.0117121 0
M  V30 9519 C 895.498 1.91071 0.670667 0
M  V30 9520 C 895.826 0.886457 1.73125 0
M  V30 9521 O 895.081 -0.107135 1.95407 0
M  V30 9522 C 895.38 3.31296 1.34082 0
M  V30 9523 C 895.046 4.49011 0.412305 0
M  V30 9524 C 893.708 4.80945 0.156691 0
M  V30 9525 C 896.06 5.20709 -0.226294 0
M  V30 9526 C 893.388 5.81943 -0.745619 0
M  V30 9527 C 895.74 6.22668 -1.11655 0
M  V30 9528 C 894.404 6.53053 -1.38123 0
M  V30 9529 H 893.674 0.69918 0.245415 0
M  V30 9530 H 896.321 1.91373 -0.0697511 0
M  V30 9531 H 894.626 3.27174 2.15557 0
M  V30 9532 H 896.323 3.54461 1.87506 0
M  V30 9533 H 892.913 4.24067 0.621705 0
M  V30 9534 H 897.097 4.96282 -0.0418456 0
M  V30 9535 H 892.353 6.03839 -0.958566 0
M  V30 9536 H 896.527 6.77351 -1.61767 0
M  V30 9537 H 894.154 7.31132 -2.08208 0
M  V30 9538 N 895.729 -0.261212 1.5542 0
M  V30 9539 C 896.676 -1.32315 1.89107 0
M  V30 9540 C 897.646 -1.48517 0.743767 0
M  V30 9541 O 898.831 -1.62733 0.996123 0
M  V30 9542 C 895.971 -2.67626 2.17877 0
M  V30 9543 C 895.084 -2.59549 3.45338 0
M  V30 9544 C 894.219 -3.87118 3.63748 0
M  V30 9545 C 893.258 -3.736 4.8486 0
M  V30 9546 N 892.395 -4.93029 4.99867 0
M  V30 9547 H 897.235 -1.02886 2.79675 0
M  V30 9548 H 894.772 -0.496812 1.38456 0
M  V30 9549 H 896.73 -3.4637 2.32559 0
M  V30 9550 H 895.36 -2.95232 1.30529 0
M  V30 9551 H 894.412 -1.72452 3.39064 0
M  V30 9552 H 895.724 -2.45465 4.34222 0
M  V30 9553 H 894.878 -4.74305 3.78312 0
M  V30 9554 H 893.617 -4.04084 2.73071 0
M  V30 9555 H 892.622 -2.84797 4.70288 0
M  V30 9556 H 893.847 -3.58143 5.76984 0
M  V30 9557 H 891.793 -5.10383 4.12123 0
M  V30 9558 H 891.71 -4.81521 5.82815 0
M  V30 9559 H 892.978 -5.81754 5.18828 0
M  V30 9560 N 897.207 -1.48554 -0.526253 0
M  V30 9561 C 898.17 -1.62868 -1.61266 0
M  V30 9562 C 899.17 -0.501762 -1.52771 0
M  V30 9563 O 900.36 -0.76764 -1.56374 0
M  V30 9564 C 897.492 -1.60238 -3.00893 0
M  V30 9565 H 898.685 -2.59742 -1.49913 0
M  V30 9566 H 896.238 -1.37207 -0.748595 0
M  V30 9567 H 896.973 -0.648545 -3.17749 0
M  V30 9568 H 896.758 -2.42054 -3.08468 0
M  V30 9569 H 898.248 -1.73455 -3.79872 0
M  V30 9570 N 898.685 0.775411 -1.37205 0
M  V30 9571 C 899.635 1.87867 -1.29189 0
M  V30 9572 C 900.619 1.59885 -0.180466 0
M  V30 9573 O 901.811 1.72077 -0.414536 0
M  V30 9574 C 898.94 3.25285 -1.09748 0
M  V30 9575 C 898.026 3.59231 -2.25419 0
M  V30 9576 N 898.417 3.64386 -3.50795 0
M  V30 9577 C 896.715 3.89375 -2.17492 0
M  V30 9578 C 897.416 3.94974 -4.27048 0
M  V30 9579 N 896.392 4.10684 -3.56146 0
M  V30 9580 H 900.194 1.90099 -2.24142 0
M  V30 9581 H 897.708 0.971667 -1.30125 0
M  V30 9582 H 899.705 4.04207 -1.02091 0
M  V30 9583 H 898.365 3.2432 -0.157083 0
M  V30 9584 H 899.376 3.46682 -3.8475 0
M  V30 9585 H 896.053 3.96254 -1.31489 0
M  V30 9586 H 897.443 4.05768 -5.35539 0
M  V30 9587 N 900.163 1.21714 1.00117 0
M  V30 9588 C 901.44 0.945391 1.71236 0
M  V30 9589 C 901.82 -0.541772 2.0403 0
M  V30 9590 O 901.168 -1.50763 1.71705 0
M  V30 9591 C 901.378 1.83444 2.96899 0
M  V30 9592 C 902.726 2.08558 3.69849 0
M  V30 9593 O 903.75 1.80824 3.06889 0
M  V30 9594 O 902.609 2.55485 4.83104 0
M  V30 9595 H 899.703 0.354834 0.747009 0
M  V30 9596 H 902.249 1.32661 1.05825 0
M  V30 9597 H 901.021 2.84075 2.69105 0
M  V30 9598 H 900.644 1.45428 3.70049 0
M  V30 9599 N 901.641 -1.19671 1.02551 0
M  V30 9600 C 902.571 -2.25009 0.623965 0
M  V30 9601 C 903.552 -1.66129 -0.36538 0
M  V30 9602 O 904.737 -1.92599 -0.248842 0
M  V30 9603 C 901.867 -3.47287 -0.0294869 0
M  V30 9604 C 900.821 -4.18818 0.881781 0
M  V30 9605 C 900.147 -5.34618 0.0936189 0
M  V30 9606 C 901.447 -4.73986 2.19396 0
M  V30 9607 H 903.141 -2.58851 1.50454 0
M  V30 9608 H 900.687 -1.24425 0.724872 0
M  V30 9609 H 902.64 -4.20168 -0.322016 0
M  V30 9610 H 901.364 -3.12635 -0.944838 0
M  V30 9611 H 900.023 -3.47815 1.15845 0
M  V30 9612 H 899.671 -4.9621 -0.823661 0
M  V30 9613 H 899.371 -5.83409 0.700568 0
M  V30 9614 H 900.895 -6.10297 -0.192249 0
M  V30 9615 H 902.309 -5.38639 1.96319 0
M  V30 9616 H 900.706 -5.3325 2.75254 0
M  V30 9617 H 901.776 -3.92238 2.85092 0
M  V30 9618 N 903.119 -0.802921 -1.35613 0
M  V30 9619 C 904.368 -0.378087 -1.98125 0
M  V30 9620 C 904.681 1.05953 -1.64418 0
M  V30 9621 O 905.887 1.58729 -2.20266 0
M  V30 9622 C 904.343 -0.625077 -3.5443 0
M  V30 9623 C 903.951 -2.07499 -3.97049 0
M  V30 9624 C 905.695 -0.265419 -4.23669 0
M  V30 9625 C 903.602 -2.26793 -5.46186 0
M  V30 9626 H 902.532 -0.137633 -0.741332 0
M  V30 9627 H 905.183 -0.986461 -1.54729 0
M  V30 9628 H 903.565 0.0531975 -3.95964 0
M  V30 9629 H 904.739 -2.79077 -3.66678 0
M  V30 9630 H 903.054 -2.39417 -3.40688 0
M  V30 9631 H 905.651 -0.387669 -5.33293 0
M  V30 9632 H 905.994 0.787994 -4.08774 0
M  V30 9633 H 906.527 -0.897464 -3.87544 0
M  V30 9634 H 903.266 -3.30566 -5.66045 0
M  V30 9635 H 902.786 -1.59735 -5.78139 0
M  V30 9636 H 904.465 -2.08165 -6.12598 0
M  V30 9637 N 904.597 1.47463 -0.556102 0
M  V30 9638 C 905.845 2.02075 -0.0315712 0
M  V30 9639 C 906.166 1.43292 1.32259 0
M  V30 9640 O 905.436 0.60771 1.86236 0
M  V30 9641 H 904.016 0.74695 -0.0086816 0
M  V30 9642 H 906.678 1.80879 -0.725859 0
M  V30 9643 H 905.774 3.12047 0.0573538 0
M  V30 9644 N 906.075 0.2925 1.54862 0
M  V30 9645 C 907.323 -0.318633 1.99572 0
M  V30 9646 C 907.644 -1.55062 1.1824 0
M  V30 9647 O 906.914 -1.93943 0.276226 0
M  V30 9648 H 905.494 -0.120722 0.737181 0
M  V30 9649 H 908.156 0.401862 1.90712 0
M  V30 9650 H 907.252 -0.596542 3.06346 0
M  V30 9651 N 907.553 -1.57587 0.0200696 0
M  V30 9652 C 908.5 -2.09667 -0.964791 0
M  V30 9653 C 909.47 -0.99664 -1.32877 0
M  V30 9654 O 910.655 -1.2703 -1.42366 0
M  V30 9655 C 907.795 -2.62101 -2.24493 0
M  V30 9656 C 906.908 -3.8608 -1.93821 0
M  V30 9657 C 906.043 -4.26939 -3.16064 0
M  V30 9658 C 905.082 -5.43701 -2.81169 0
M  V30 9659 N 904.219 -5.79759 -3.9601 0
M  V30 9660 H 909.059 -2.93538 -0.513751 0
M  V30 9661 H 906.596 -1.45096 -0.242 0
M  V30 9662 H 908.554 -2.90587 -2.99358 0
M  V30 9663 H 907.184 -1.81074 -2.6723 0
M  V30 9664 H 906.236 -3.64378 -1.09237 0
M  V30 9665 H 907.548 -4.71028 -1.64115 0
M  V30 9666 H 906.702 -4.56814 -3.99257 0
M  V30 9667 H 905.441 -3.40739 -3.48924 0
M  V30 9668 H 904.446 -5.13529 -1.96387 0
M  V30 9669 H 905.671 -6.31593 -2.49535 0
M  V30 9670 H 903.617 -4.96516 -4.28729 0
M  V30 9671 H 903.534 -6.59327 -3.69896 0
M  V30 9672 H 904.802 -6.14235 -4.79933 0
M  V30 9673 N 909.032 0.252966 -1.55557 0
M  V30 9674 C 910.26 0.999565 -1.81153 0
M  V30 9675 C 910.675 1.79181 -0.594955 0
M  V30 9676 O 910.032 1.77208 0.436311 0
M  V30 9677 C 910.083 1.94227 -3.04891 0
M  V30 9678 O 909.804 1.18209 -4.21851 0
M  V30 9679 C 911.305 2.80536 -3.43241 0
M  V30 9680 H 908.525 0.294402 -0.602966 0
M  V30 9681 H 911.069 0.277686 -2.02606 0
M  V30 9682 H 909.224 2.6185 -2.85505 0
M  V30 9683 H 909.638 1.81922 -4.9194 0
M  V30 9684 H 911.112 3.42442 -4.32941 0
M  V30 9685 H 911.589 3.51337 -2.6355 0
M  V30 9686 H 912.195 2.18373 -3.64956 0
M  V30 9687 N 910.51 1.48831 0.518367 0
M  V30 9688 C 911.756 1.57672 1.27543 0
M  V30 9689 C 912.089 0.254915 1.9252 0
M  V30 9690 O 911.364 -0.740107 1.79868 0
M  V30 9691 C 911.647 2.72345 2.35585 0
M  V30 9692 C 911.5 4.14267 1.75224 0
M  V30 9693 C 912.819 2.82726 3.37274 0
M  V30 9694 H 909.938 0.573926 0.462361 0
M  V30 9695 H 912.58 1.8105 0.576267 0
M  V30 9696 H 910.73 2.52543 2.95219 0
M  V30 9697 H 912.402 4.45539 1.19551 0
M  V30 9698 H 910.645 4.20724 1.05706 0
M  V30 9699 H 911.316 4.90345 2.53507 0
M  V30 9700 H 913.792 3.00699 2.8761 0
M  V30 9701 H 912.668 3.6467 4.10252 0
M  V30 9702 H 912.929 1.9136 3.9854 0
M  V30 9703 N 911.988 -0.768124 1.37614 0
M  V30 9704 C 913.213 -1.56239 1.36397 0
M  V30 9705 C 913.638 -1.8804 -0.0475839 0
M  V30 9706 O 912.996 -1.495 -1.02564 0
M  V30 9707 C 913.044 -2.84716 2.21289 0
M  V30 9708 O 912.148 -3.79249 1.62001 0
M  V30 9709 H 911.489 -0.473119 0.465891 0
M  V30 9710 H 914.019 -0.950415 1.81186 0
M  V30 9711 H 914.029 -3.33784 2.34632 0
M  V30 9712 H 912.704 -2.60899 3.2389 0
M  V30 9713 H 911.281 -3.37904 1.57719 0
M  V30 9714 N 913.466 -1.22244 -0.994698 0
M  V30 9715 C 914.396 -1.01513 -2.10279 0
M  V30 9716 C 915.377 0.0633365 -1.69982 0
M  V30 9717 O 916.562 -0.0985268 -1.9395 0
M  V30 9718 C 913.692 -0.59016 -3.42249 0
M  V30 9719 C 912.646 -1.61436 -3.96387 0
M  V30 9720 C 911.972 -1.04528 -5.24383 0
M  V30 9721 C 913.272 -3.00388 -4.27276 0
M  V30 9722 H 914.966 -1.94194 -2.2788 0
M  V30 9723 H 912.512 -0.935094 -1.09508 0
M  V30 9724 H 914.465 -0.432254 -4.19177 0
M  V30 9725 H 913.189 0.372308 -3.24471 0
M  V30 9726 H 911.848 -1.76001 -3.21589 0
M  V30 9727 H 911.496 -0.0742225 -5.02945 0
M  V30 9728 H 911.196 -1.72949 -5.61571 0
M  V30 9729 H 912.72 -0.898922 -6.03947 0
M  V30 9730 H 914.134 -2.89207 -4.95007 0
M  V30 9731 H 912.531 -3.65916 -4.75631 0
M  V30 9732 H 913.601 -3.50456 -3.35125 0
M  V30 9733 N 914.944 1.19125 -1.03184 0
M  V30 9734 C 915.892 2.24492 -0.608781 0
M  V30 9735 C 916.886 1.65529 0.360065 0
M  V30 9736 O 918.092 1.78546 0.22832 0
M  V30 9737 H 914.467 0.73048 -0.178616 0
M  V30 9738 H 916.438 2.5749 -1.50803 0
M  V30 9739 C 915.187 3.47693 0.0215126 0
M  V30 9740 H 914.51 3.93354 -0.715024 0
M  V30 9741 H 915.95 4.23072 0.280429 0
M  V30 9742 C 914.409 3.12088 1.26896 0
M  V30 9743 O 914.939 3.25013 2.36071 0
M  V30 9744 N 913.145 2.66494 1.15886 0
M  V30 9745 H 912.692 2.56176 0.270463 0
M  V30 9746 H 912.65 2.43042 1.99444 0
M  V30 9747 N 916.422 0.810101 1.35185 0
M  V30 9748 C 917.354 0.180581 2.28488 0
M  V30 9749 C 918.367 -0.622154 1.50443 0
M  V30 9750 O 919.556 -0.453938 1.72632 0
M  V30 9751 C 916.656 -0.766447 3.30119 0
M  V30 9752 C 915.829 -0.00932028 4.37399 0
M  V30 9753 C 914.888 -0.875354 5.18868 0
M  V30 9754 O 913.914 -0.325012 5.68271 0
M  V30 9755 N 915.116 -2.19695 5.37321 0
M  V30 9756 H 917.881 0.98212 2.83151 0
M  V30 9757 H 915.442 0.665879 1.47573 0
M  V30 9758 H 917.434 -1.35012 3.81515 0
M  V30 9759 H 916.004 -1.46878 2.75945 0
M  V30 9760 H 915.224 0.755585 3.86891 0
M  V30 9761 H 916.512 0.512352 5.06214 0
M  V30 9762 H 915.91 -2.66797 4.98834 0
M  V30 9763 H 914.467 -2.72978 5.91884 0
M  V30 9764 N 917.9 -1.47166 0.563914 0
M  V30 9765 C 919.177 -1.95586 -0.0236172 0
M  V30 9766 C 919.557 -1.50655 -1.47872 0
M  V30 9767 O 918.905 -0.748479 -2.15894 0
M  V30 9768 C 919.115 -3.48762 0.128841 0
M  V30 9769 C 920.463 -4.24598 -0.0130544 0
M  V30 9770 O 921.487 -3.56155 0.0567242 0
M  V30 9771 O 920.346 -5.46253 -0.164332 0
M  V30 9772 H 917.44 -0.824793 -0.0603789 0
M  V30 9773 H 919.986 -1.57536 0.63091 0
M  V30 9774 H 918.758 -3.74291 1.14113 0
M  V30 9775 H 918.381 -3.93594 -0.56299 0
M  V30 9776 N 919.378 -0.300708 -1.54705 0
M  V30 9777 C 920.308 0.568675 -2.26469 0
M  V30 9778 C 921.289 1.13817 -1.26411 0
M  V30 9779 O 922.474 1.16756 -1.55183 0
M  V30 9780 C 919.604 1.74077 -3.00524 0
M  V30 9781 C 918.558 1.30165 -4.07727 0
M  V30 9782 C 917.884 2.55888 -4.69495 0
M  V30 9783 C 919.184 0.433106 -5.20501 0
M  V30 9784 H 920.878 -0.0298851 -2.99385 0
M  V30 9785 H 918.424 -0.0158135 -1.43991 0
M  V30 9786 H 920.377 2.35506 -3.49449 0
M  V30 9787 H 919.101 2.36556 -2.25186 0
M  V30 9788 H 917.76 0.710414 -3.59651 0
M  V30 9789 H 917.408 3.16681 -3.90797 0
M  V30 9790 H 917.108 2.27207 -5.41895 0
M  V30 9791 H 918.632 3.18121 -5.21183 0
M  V30 9792 H 920.046 0.95307 -5.65322 0
M  V30 9793 H 918.443 0.240085 -5.9962 0
M  V30 9794 H 919.513 -0.541866 -4.81863 0
M  V30 9795 N 920.856 1.57574 -0.0284266 0
M  V30 9796 C 922.084 1.96071 0.660575 0
M  V30 9797 C 922.499 0.904881 1.65703 0
M  V30 9798 O 921.856 -0.113379 1.82147 0
M  V30 9799 C 921.907 3.34634 1.36756 0
M  V30 9800 O 921.628 4.36167 0.411041 0
M  V30 9801 C 923.129 3.87758 2.14845 0
M  V30 9802 H 920.349 0.645794 0.182183 0
M  V30 9803 H 922.893 2.04311 -0.0879858 0
M  V30 9804 H 921.048 3.27616 2.06753 0
M  V30 9805 H 921.462 5.16493 0.913 0
M  V30 9806 H 922.936 4.87058 2.59767 0
M  V30 9807 H 923.413 3.21967 2.9872 0
M  V30 9808 H 924.019 3.98043 1.49807 0
M  V30 9809 N 922.334 -0.244713 1.55689 0
M  V30 9810 C 923.264 -1.30667 1.93516 0
M  V30 9811 C 924.245 -1.50094 0.800371 0
M  V30 9812 O 925.43 -1.62665 1.06083 0
M  V30 9813 C 922.56 -2.66101 2.23176 0
M  V30 9814 C 921.514 -2.61366 3.38927 0
M  V30 9815 C 920.84 -4.00616 3.54134 0
M  V30 9816 C 922.14 -2.18161 4.74555 0
M  V30 9817 H 923.834 -0.992546 2.82469 0
M  V30 9818 H 921.38 -0.476018 1.35905 0
M  V30 9819 H 923.333 -3.4053 2.48228 0
M  V30 9820 H 922.057 -2.99154 1.31051 0
M  V30 9821 H 920.716 -1.89395 3.13887 0
M  V30 9822 H 920.364 -4.30938 2.59426 0
M  V30 9823 H 920.064 -3.98335 4.31975 0
M  V30 9824 H 921.588 -4.76741 3.8151 0
M  V30 9825 H 923.002 -2.82323 4.98965 0
M  V30 9826 H 921.399 -2.26988 5.55515 0
M  V30 9827 H 922.469 -1.13333 4.7147 0
M  V30 9828 N 923.813 -1.49104 -0.510467 0
M  V30 9829 C 924.745 -1.61183 -1.6295 0
M  V30 9830 C 925.758 -0.495003 -1.55092 0
M  V30 9831 O 926.947 -0.766671 -1.61197 0
M  V30 9832 C 924.047 -1.54373 -3.01699 0
M  V30 9833 C 923.22 -2.81428 -3.34838 0
M  V30 9834 C 922.279 -2.67802 -4.52956 0
M  V30 9835 O 921.305 -3.41723 -4.55208 0
M  V30 9836 N 922.507 -1.78715 -5.52305 0
M  V30 9837 H 925.272 -2.57693 -1.53018 0
M  V30 9838 H 922.833 -1.46073 -0.698152 0
M  V30 9839 H 924.825 -1.42924 -3.78622 0
M  V30 9840 H 923.395 -0.657597 -3.05605 0
M  V30 9841 H 922.615 -3.07299 -2.46903 0
M  V30 9842 H 923.903 -3.6568 -3.53773 0
M  V30 9843 H 923.301 -1.17897 -5.53278 0
M  V30 9844 H 921.858 -1.73194 -6.28369 0
M  V30 9845 N 925.291 0.760815 -1.38019 0
M  V30 9846 C 926.702 1.33773 -1.30237 0
M  V30 9847 C 927.053 1.96148 0.0451153 0
M  V30 9848 O 926.178 1.94574 0.9471 0
M  V30 9849 C 926.773 2.43227 -2.35851 0
M  V30 9850 C 925.332 2.96659 -2.31669 0
M  V30 9851 C 924.479 1.69972 -2.191 0
M  V30 9852 H 927.43 0.560237 -1.48482 0
M  V30 9853 H 927.451 3.22985 -2.01149 0
M  V30 9854 H 926.963 1.978 -3.33911 0
M  V30 9855 H 925.064 3.46433 -1.37167 0
M  V30 9856 H 925.177 3.51529 -3.25521 0
M  V30 9857 H 923.541 1.9332 -1.65829 0
M  V30 9858 H 924.324 1.26633 -3.19091 0
M  V30 9859 N 926.769 1.22769 0.988202 0
M  V30 9860 C 927.999 1.07998 1.76125 0
M  V30 9861 C 928.407 -0.372062 1.85506 0
M  V30 9862 O 927.75 -1.26946 1.3278 0
M  V30 9863 C 927.812 1.6219 3.20834 0
M  V30 9864 C 927.476 3.1086 3.34986 0
M  V30 9865 C 928.473 4.08239 3.21927 0
M  V30 9866 C 926.158 3.50411 3.59886 0
M  V30 9867 C 928.152 5.43154 3.33561 0
M  V30 9868 C 925.839 4.85473 3.71159 0
M  V30 9869 C 926.837 5.81653 3.58006 0
M  V30 9870 O 926.525 7.14263 3.68895 0
M  V30 9871 H 926.257 0.378937 0.559806 0
M  V30 9872 H 928.811 1.62925 1.25078 0
M  V30 9873 H 927.041 1.01676 3.73094 0
M  V30 9874 H 928.73 1.43011 3.79872 0
M  V30 9875 H 929.496 3.79025 3.02597 0
M  V30 9876 H 925.375 2.76068 3.69198 0
M  V30 9877 H 928.919 6.18207 3.23211 0
M  V30 9878 H 924.816 5.14365 3.89998 0
M  V30 9879 H 925.584 7.21906 3.85739 0
M  V30 9880 N 928.247 -1.18576 1.03814 0
M  V30 9881 C 929.179 -2.21607 0.585055 0
M  V30 9882 C 930.192 -1.59125 -0.343963 0
M  V30 9883 O 931.381 -1.77959 -0.138882 0
M  V30 9884 C 928.481 -3.38495 -0.165602 0
M  V30 9885 C 927.654 -4.30557 0.770662 0
M  V30 9886 C 926.713 -5.26161 0.0637534 0
M  V30 9887 O 925.739 -5.64961 0.693359 0
M  V30 9888 N 926.941 -5.67882 -1.20377 0
M  V30 9889 H 929.706 -2.61104 1.47121 0
M  V30 9890 H 927.267 -1.33336 0.918316 0
M  V30 9891 H 929.259 -3.99474 -0.648292 0
M  V30 9892 H 927.829 -2.97711 -0.953268 0
M  V30 9893 H 927.049 -3.67221 1.43326 0
M  V30 9894 H 928.337 -4.88969 1.40667 0
M  V30 9895 H 927.735 -5.38409 -1.73586 0
M  V30 9896 H 926.292 -6.31069 -1.63079 0
M  V30 9897 N 929.725 -0.817259 -1.34754 0
M  V30 9898 C 930.971 -0.403244 -1.98751 0
M  V30 9899 C 931.304 1.02963 -1.64658 0
M  V30 9900 O 930.579 1.71617 -0.915314 0
M  V30 9901 C 930.862 -0.599188 -3.5508 0
M  V30 9902 C 930.715 -2.07777 -3.98934 0
M  V30 9903 C 932.034 -0.0315656 -4.40089 0
M  V30 9904 H 929.153 -0.147988 -0.721989 0
M  V30 9905 H 931.795 -1.02877 -1.59738 0
M  V30 9906 H 929.945 -0.0667116 -3.88443 0
M  V30 9907 H 931.617 -2.67345 -3.75931 0
M  V30 9908 H 929.86 -2.57031 -3.49453 0
M  V30 9909 H 930.531 -2.16571 -5.07741 0
M  V30 9910 H 933.007 -0.48644 -4.13247 0
M  V30 9911 H 931.883 -0.198507 -5.48541 0
M  V30 9912 H 932.144 1.06302 -4.2913 0
M  V30 9913 N 931.203 1.46865 -0.571711 0
M  V30 9914 C 932.136 2.27176 0.215944 0
M  V30 9915 C 933.114 1.34951 0.907035 0
M  V30 9916 O 934.298 1.64349 0.923127 0
M  V30 9917 C 931.425 3.12388 1.30888 0
M  V30 9918 C 930.471 4.20296 0.724804 0
M  V30 9919 S 931.304 5.33691 -0.439839 0
M  V30 9920 C 932.46 6.22468 0.654564 0
M  V30 9921 H 932.693 2.93633 -0.465518 0
M  V30 9922 H 930.226 1.50184 -0.358351 0
M  V30 9923 H 932.184 3.62049 1.93471 0
M  V30 9924 H 930.845 2.45265 1.96224 0
M  V30 9925 H 930.038 4.79703 1.54599 0
M  V30 9926 H 929.64 3.73591 0.174861 0
M  V30 9927 H 931.932 6.59694 1.54304 0
M  V30 9928 H 932.875 7.08033 0.0975111 0
M  V30 9929 H 933.283 5.56384 0.953762 0
M  V30 9930 N 932.681 0.308908 1.54543 0
M  V30 9931 C 933.927 -0.291311 2.01303 0
M  V30 9932 C 934.282 -1.50917 1.19339 0
M  V30 9933 O 933.575 -1.89776 0.263724 0
M  V30 9934 C 933.769 -0.691522 3.50646 0
M  V30 9935 C 933.598 0.486007 4.47066 0
M  V30 9936 C 932.368 0.980515 4.95695 0
M  V30 9937 C 934.566 1.33352 4.96711 0
M  V30 9938 N 932.548 2.12398 5.75986 0
M  V30 9939 C 933.919 2.32436 5.74781 0
M  V30 9940 C 935.974 1.36298 4.78881 0
M  V30 9941 C 934.677 3.34252 6.36921 0
M  V30 9942 C 936.703 2.36976 5.41845 0
M  V30 9943 C 936.065 3.34789 6.19755 0
M  V30 9944 H 932.164 -0.0708418 0.778785 0
M  V30 9945 H 934.748 0.440621 1.89649 0
M  V30 9946 H 932.919 -1.39261 3.62575 0
M  V30 9947 H 934.651 -1.27196 3.84192 0
M  V30 9948 H 931.406 0.55419 4.70346 0
M  V30 9949 H 931.83 2.70036 6.20814 0
M  V30 9950 H 936.472 0.620472 4.18222 0
M  V30 9951 H 934.19 4.09417 6.96709 0
M  V30 9952 H 937.776 2.40039 5.29974 0
M  V30 9953 H 936.656 4.11418 6.67611 0
M  V30 9954 N 934.159 -1.57557 0.0367827 0
M  V30 9955 C 935.089 -2.13712 -0.940719 0
M  V30 9956 C 936.07 -1.05515 -1.33419 0
M  V30 9957 O 937.255 -1.33385 -1.41146 0
M  V30 9958 C 934.385 -2.67043 -2.22048 0
M  V30 9959 C 933.339 -3.80096 -1.96752 0
M  V30 9960 C 932.665 -4.19886 -3.31059 0
M  V30 9961 C 933.965 -5.05848 -1.30058 0
M  V30 9962 H 935.659 -2.9564 -0.473033 0
M  V30 9963 H 933.205 -1.42214 -0.226089 0
M  V30 9964 H 935.158 -3.04964 -2.90818 0
M  V30 9965 H 933.882 -1.82287 -2.70996 0
M  V30 9966 H 932.541 -3.42625 -1.30398 0
M  V30 9967 H 932.189 -3.32101 -3.77781 0
M  V30 9968 H 931.889 -4.96073 -3.14937 0
M  V30 9969 H 933.413 -4.60395 -4.01084 0
M  V30 9970 H 934.827 -5.41306 -1.8884 0
M  V30 9971 H 933.224 -5.87084 -1.24309 0
M  V30 9972 H 934.294 -4.84122 -0.274591 0
M  V30 9973 N 935.637 0.236453 -1.55816 0
M  V30 9974 C 936.547 1.31418 -1.94336 0
M  V30 9975 C 937.563 1.52095 -0.845164 0
M  V30 9976 O 938.739 1.65515 -1.14746 0
M  V30 9977 C 935.804 2.6468 -2.23932 0
M  V30 9978 C 934.865 2.52435 -3.47239 0
M  V30 9979 C 934.098 3.79342 -3.75414 0
M  V30 9980 O 934.321 4.81694 -3.05495 0
M  V30 9981 O 933.255 3.77347 -4.68927 0
M  V30 9982 H 937.081 1.01739 -2.86152 0
M  V30 9983 H 934.666 0.438084 -1.42833 0
M  V30 9984 H 936.548 3.4341 -2.44228 0
M  V30 9985 H 935.223 2.94071 -1.35292 0
M  V30 9986 H 934.13 1.71955 -3.32238 0
M  V30 9987 H 935.463 2.27987 -4.36214 0
M  V30 9988 N 937.115 1.49373 0.502552 0
M  V30 9989 C 938.364 1.58028 1.25339 0
M  V30 9990 C 938.677 0.271494 1.93707 0
M  V30 9991 O 939.883 0.236584 2.70467 0
M  V30 9992 C 938.339 2.78817 2.27572 0
M  V30 9993 C 937.947 4.16448 1.65151 0
M  V30 9994 C 939.691 2.96802 3.03494 0
M  V30 9995 C 937.598 5.28461 2.65486 0
M  V30 9996 H 936.528 0.588396 0.471494 0
M  V30 9997 H 939.179 1.75756 0.52744 0
M  V30 9998 H 937.561 2.5458 3.03323 0
M  V30 9999 H 938.735 4.50816 0.954029 0
M  V30 10000 H 937.05 4.03809 1.01625 0
M  V30 10001 H 939.647 3.77656 3.78524 0
M  V30 10002 H 939.99 2.07303 3.61014 0
M  V30 10003 H 940.523 3.21071 2.34858 0
M  V30 10004 H 937.262 6.20015 2.12749 0
M  V30 10005 H 936.782 4.9855 3.33479 0
M  V30 10006 H 938.461 5.5773 3.27943 0
M  V30 10007 N 938.594 -0.753485 1.38421 0
M  V30 10008 C 939.557 -1.84888 1.35459 0
M  V30 10009 C 940.557 -1.58764 0.255083 0
M  V30 10010 O 941.747 -1.66507 0.511978 0
M  V30 10011 C 938.879 -3.22361 1.10888 0
M  V30 10012 H 940.072 -1.88922 2.32913 0
M  V30 10013 H 937.625 -0.955199 1.23716 0
M  V30 10014 H 938.36 -3.23996 0.1404 0
M  V30 10015 H 938.145 -3.42717 1.90492 0
M  V30 10016 H 939.635 -4.02437 1.1151 0
M  V30 10017 O 940.111 -1.34493 -0.894081 0
M  V30 10018 H 940.802 -1.18777 -1.53009 0
M  V30 END ATOM
M  V30 BEGIN BOND
M  V30 END BOND
M  V30 END CTAB
M  END
$$$$
