drugbank_target|Q6YP21 Kynurenine--oxoglutarate transaminase 3 (DB00114)
 OpenBabel12092120063D

  0  0  0     0  0            999 V3000
M  V30 BEGIN CTAB
M  V30 COUNTS 7282 7370 0 0 0
M  V30 BEGIN ATOM
M  V30 1 H -0.908 1.98254 -0.117106 0
M  V30 2 N 0 1.576 0 0
M  V30 3 C 0.933 2.03868 1.02534 0
M  V30 4 C 1.911 0.928543 1.3348 0
M  V30 5 O 3.095 1.19667 1.45644 0
M  V30 6 C 0.222 2.43627 2.35294 0
M  V30 7 C -0.732 3.65373 2.2001 0
M  V30 8 S 0.101 5.13292 1.52614 0
M  V30 9 C 1.257 5.56322 2.86805 0
M  V30 10 H 1.49 2.90518 0.631377 0
M  V30 11 H -0.977 1.52953 0.210867 0
M  V30 12 H 0.981 2.67203 3.11629 0
M  V30 13 H -0.358 1.57376 2.7183 0
M  V30 14 H -1.165 3.90944 3.18086 0
M  V30 15 H -1.563 3.418 1.51819 0
M  V30 16 H 0.729 5.58782 3.83104 0
M  V30 17 H 1.672 6.56266 2.65933 0
M  V30 18 H 2.08 4.83886 2.90714 0
M  V30 19 N 1.4781 -0.272755 1.55222 0
M  V30 20 C 2.7251 -1.00433 1.7584 0
M  V30 21 C 3.0531 -1.86275 0.559629 0
M  V30 22 O 2.3081 -1.90269 -0.457857 0
M  V30 23 C 2.6071 -1.91642 3.01675 0
M  V30 24 C 2.2731 -1.21548 4.34208 0
M  V30 25 C 0.9351 -1.02166 4.70229 0
M  V30 26 C 3.2871 -0.716684 5.16249 0
M  V30 27 C 0.6151 -0.316334 5.85847 0
M  V30 28 C 2.9671 -0.0249476 6.32595 0
M  V30 29 C 1.6311 0.180579 6.67256 0
M  V30 30 H 0.9011 -0.367509 0.643443 0
M  V30 31 H 3.5481 -0.276596 1.89492 0
M  V30 32 H 1.8531 -2.71037 2.82924 0
M  V30 33 H 3.5501 -2.48369 3.14824 0
M  V30 34 H 0.1401 -1.37645 4.05896 0
M  V30 35 H 4.3241 -0.854047 4.88896 0
M  V30 36 H -0.4199 -0.146378 6.11225 0
M  V30 37 H 3.7541 0.369311 6.9542 0
M  V30 38 H 1.3811 0.729098 7.56696 0
M  V30 39 N 2.9562 -1.48159 -0.537278 0
M  V30 40 C 3.8862 -1.65029 -1.6519 0
M  V30 41 C 4.8672 -0.499281 -1.62607 0
M  V30 42 O 6.0522 -0.730972 -1.79918 0
M  V30 43 C 3.1822 -1.68303 -3.03795 0
M  V30 44 C 2.1362 -2.8283 -3.21234 0
M  V30 45 C 1.4622 -2.71189 -4.60826 0
M  V30 46 C 2.7622 -4.24211 -3.04701 0
M  V30 47 H 4.4562 -2.58341 -1.51328 0
M  V30 48 H 2.0022 -1.24325 -0.726585 0
M  V30 49 H 3.9552 -1.78693 -3.81637 0
M  V30 50 H 2.6792 -0.715635 -3.18663 0
M  V30 51 H 1.3382 -2.71983 -2.45807 0
M  V30 52 H 0.9862 -1.72435 -4.7252 0
M  V30 53 H 0.6862 -3.48035 -4.7344 0
M  V30 54 H 2.2102 -2.83537 -5.40777 0
M  V30 55 H 3.6242 -4.3593 -3.72341 0
M  V30 56 H 2.0212 -5.01998 -3.28813 0
M  V30 57 H 3.0912 -4.41184 -2.01209 0
M  V30 58 N 4.4343 0.785586 -1.36625 0
M  V30 59 C 5.3973 1.87999 -1.31107 0
M  V30 60 C 6.3973 1.59316 -0.217959 0
M  V30 61 O 7.5873 1.67656 -0.472977 0
M  V30 62 C 4.7193 3.24861 -1.03334 0
M  V30 63 H 5.9123 1.94307 -2.2844 0
M  V30 64 H 3.4653 0.983813 -1.21453 0
M  V30 65 H 4.2003 3.24235 -0.0647432 0
M  V30 66 H 3.9853 3.4707 -1.82441 0
M  V30 67 H 5.4753 4.04929 -1.02088 0
M  V30 68 N 5.9124 1.20967 1.01018 0
M  V30 69 C 6.8444 0.922059 2.09835 0
M  V30 70 C 7.8574 -0.0927106 1.62536 0
M  V30 71 O 9.0464 0.139127 1.77957 0
M  V30 72 C 6.1464 0.362004 3.36961 0
M  V30 73 C 5.3194 1.42986 4.13369 0
M  V30 74 C 4.3784 0.879976 5.1879 0
M  V30 75 O 3.4044 1.56219 5.47343 0
M  V30 76 N 4.6064 -0.307396 5.79686 0
M  V30 77 H 7.3714 1.8588 2.35093 0
M  V30 78 H 4.9324 1.11422 1.1746 0
M  V30 79 H 6.9244 -0.0201474 4.04695 0
M  V30 80 H 5.4944 -0.479437 3.08902 0
M  V30 81 H 4.7144 1.98608 3.40512 0
M  V30 82 H 6.0024 2.14885 4.61196 0
M  V30 83 H 5.4004 -0.878796 5.58832 0
M  V30 84 H 3.9574 -0.631115 6.48737 0
M  V30 85 N 7.3905 -1.2043 1.01659 0
M  V30 86 C 8.8065 -1.41852 0.731442 0
M  V30 87 C 9.0065 -1.89358 -0.688898 0
M  V30 88 O 8.0625 -2.06247 -1.45666 0
M  V30 89 C 9.3755 -2.44019 1.75714 0
M  V30 90 C 10.9235 -2.57785 1.77527 0
M  V30 91 C 11.3985 -3.63194 2.79023 0
M  V30 92 N 12.8895 -3.70678 2.77763 0
M  V30 93 C 13.6245 -4.51897 3.52954 0
M  V30 94 N 13.1205 -5.36921 4.37821 0
M  V30 95 N 14.9135 -4.4643 3.41551 0
M  V30 96 H 7.0645 -0.879093 1.93354 0
M  V30 97 H 9.3275 -0.448425 0.835236 0
M  V30 98 H 9.0335 -2.1611 2.77469 0
M  V30 99 H 8.9075 -3.43007 1.56927 0
M  V30 100 H 11.2945 -2.85023 0.764569 0
M  V30 101 H 11.3755 -1.58992 2.00387 0
M  V30 102 H 11.0195 -3.36699 3.80258 0
M  V30 103 H 10.9495 -4.61609 2.53425 0
M  V30 104 H 13.4405 -3.09944 2.16201 0
M  V30 105 H 13.7535 -5.95981 4.91962 0
M  V30 106 H 12.0985 -5.36424 4.41899 0
M  V30 107 H 15.2895 -3.79042 2.74672 0
M  V30 108 H 15.4625 -5.09491 4.00404 0
M  V30 109 N 8.8686 -0.792821 -1.36206 0
M  V30 110 C 10.0936 -0.377701 -2.03932 0
M  V30 111 C 10.5186 0.998947 -1.59382 0
M  V30 112 O 9.8766 1.64421 -0.763903 0
M  V30 113 C 9.9246 -0.453635 -3.57735 0
M  V30 114 O 9.0286 0.538151 -4.08874 0
M  V30 115 H 8.3696 -0.159855 -0.644471 0
M  V30 116 H 10.8996 -1.07488 -1.7409 0
M  V30 117 H 10.9096 -0.318464 -4.06755 0
M  V30 118 H 9.5846 -1.45784 -3.89512 0
M  V30 119 H 8.1616 0.364359 -3.71116 0
M  V30 120 N 10.3467 1.47872 -0.545128 0
M  V30 121 C 11.2767 2.32661 0.197793 0
M  V30 122 C 12.2577 1.43041 0.920504 0
M  V30 123 O 13.4427 1.71912 0.90333 0
M  V30 124 C 10.5727 3.24569 1.23582 0
M  V30 125 C 9.5267 4.23333 0.630323 0
M  V30 126 C 8.8527 5.0448 1.77211 0
M  V30 127 C 10.1527 5.20704 -0.407974 0
M  V30 128 H 11.8467 2.95024 -0.510045 0
M  V30 129 H 9.3927 1.4187 -0.246731 0
M  V30 130 H 11.3457 3.8272 1.76362 0
M  V30 131 H 10.0697 2.60236 1.97344 0
M  V30 132 H 8.7287 3.6639 0.123922 0
M  V30 133 H 8.3767 4.36561 2.49847 0
M  V30 134 H 8.0767 5.71339 1.37281 0
M  V30 135 H 9.6007 5.65487 2.3034 0
M  V30 136 H 11.0147 5.7329 0.033305 0
M  V30 137 H 9.4117 5.95699 -0.725486 0
M  V30 138 H 10.4817 4.66917 -1.30828 0
M  V30 139 N 11.8248 0.280983 1.55075 0
M  V30 140 C 13.0648 -0.335234 2.01632 0
M  V30 141 C 13.4288 -1.5261 1.16508 0
M  V30 142 O 14.6298 -2.21235 1.52672 0
M  V30 143 C 12.9008 -0.702172 3.50434 0
M  V30 144 S 14.4598 -1.30409 4.18974 0
M  V30 145 H 11.2778 -0.103967 0.703358 0
M  V30 146 H 13.8798 0.404187 1.91276 0
M  V30 147 H 12.5838 0.17333 4.10034 0
M  V30 148 H 12.1148 -1.4729 3.64786 0
M  V30 149 H 14.1298 -2.59253 4.23087 0
M  V30 150 N 13.3029 -1.57598 0.00835791 0
M  V30 151 C 14.5279 -1.95617 -0.689103 0
M  V30 152 C 14.9529 -0.883753 -1.66046 0
M  V30 153 O 14.3109 0.157352 -1.80616 0
M  V30 154 C 14.3589 -3.32736 -1.38994 0
M  V30 155 O 13.4629 -3.27631 -2.50463 0
M  V30 156 H 12.8039 -0.638379 -0.182668 0
M  V30 157 H 15.3339 -2.045 0.064036 0
M  V30 158 H 15.3439 -3.68494 -1.75147 0
M  V30 159 H 14.0189 -4.1034 -0.677778 0
M  V30 160 H 12.5959 -3.03561 -2.16576 0
M  V30 161 N 14.781 0.264519 -1.55364 0
M  V30 162 C 15.711 1.33121 -1.91836 0
M  V30 163 C 16.692 1.51101 -0.781192 0
M  V30 164 O 17.877 1.64003 -1.04003 0
M  V30 165 C 15.007 2.68921 -2.19769 0
M  V30 166 C 13.961 2.65661 -3.35571 0
M  V30 167 C 13.287 4.05093 -3.49004 0
M  V30 168 C 14.587 2.24187 -4.71739 0
M  V30 169 H 16.281 1.02844 -2.81182 0
M  V30 170 H 13.827 0.493286 -1.35287 0
M  V30 171 H 15.78 3.43663 -2.43872 0
M  V30 172 H 14.504 3.00799 -1.27231 0
M  V30 173 H 13.163 1.93377 -3.1145 0
M  V30 174 H 12.811 4.34206 -2.53917 0
M  V30 175 H 12.511 4.03804 -4.26868 0
M  V30 176 H 14.035 4.81561 -3.75408 0
M  V30 177 H 15.449 2.88654 -4.9533 0
M  V30 178 H 13.846 2.34044 -5.52579 0
M  V30 179 H 14.916 1.19327 -4.69988 0
M  V30 180 N 16.2591 1.48442 0.529413 0
M  V30 181 C 17.4841 1.60406 1.31471 0
M  V30 182 C 17.9091 0.264738 1.86228 0
M  V30 183 O 17.2671 -0.763668 1.64432 0
M  V30 184 C 17.3151 2.65419 2.44101 0
M  V30 185 O 16.4191 2.22618 3.47153 0
M  V30 186 H 15.7601 0.537863 0.389357 0
M  V30 187 H 18.2901 1.94432 0.636965 0
M  V30 188 H 18.3001 2.86709 2.90279 0
M  V30 189 H 16.9751 3.62652 2.03608 0
M  V30 190 H 15.5521 2.11543 3.0709 0
M  V30 191 N 17.7372 -0.778329 1.37039 0
M  V30 192 C 18.9852 -1.53361 1.31623 0
M  V30 193 C 19.3062 -1.94739 -0.100831 0
M  V30 194 O 18.5762 -1.65797 -1.04347 0
M  V30 195 H 17.1562 -0.568794 0.484234 0
M  V30 196 H 19.8182 -0.926742 1.71457 0
M  V30 197 H 18.9142 -2.43606 1.95096 0
M  V30 198 N 19.2153 -1.21501 -1.00376 0
M  V30 199 C 20.6313 -0.972629 -1.26539 0
M  V30 200 C 20.8313 0.340257 -1.98606 0
M  V30 201 O 19.8873 1.06561 -2.28913 0
M  V30 202 C 21.2003 -2.16404 -2.08781 0
M  V30 203 C 22.7483 -2.20643 -2.22004 0
M  V30 204 C 23.2233 -3.39306 -3.07629 0
M  V30 205 N 24.7143 -3.39401 -3.15217 0
M  V30 206 C 25.4493 -4.27867 -3.81729 0
M  V30 207 N 24.9453 -5.26533 -4.5026 0
M  V30 208 N 26.7383 -4.15672 -3.78382 0
M  V30 209 H 18.8893 -2.05929 -0.520281 0
M  V30 210 H 21.1523 -0.901803 -0.292328 0
M  V30 211 H 20.8583 -3.11554 -1.63178 0
M  V30 212 H 20.7323 -2.15567 -3.09533 0
M  V30 213 H 23.1193 -1.26048 -2.66825 0
M  V30 214 H 23.2003 -2.25523 -1.20718 0
M  V30 215 H 22.8443 -4.34195 -2.63509 0
M  V30 216 H 22.7743 -3.31665 -4.09031 0
M  V30 217 H 25.2653 -2.67997 -2.66432 0
M  V30 218 H 25.5783 -5.90337 -4.98721 0
M  V30 219 H 23.9233 -5.30457 -4.49044 0
M  V30 220 H 27.1143 -3.3785 -3.23998 0
M  V30 221 H 27.2873 -4.84825 -4.2994 0
M  V30 222 N 20.6934 1.19889 -1.02296 0
M  V30 223 C 21.6564 2.21116 -0.603351 0
M  V30 224 C 22.6564 1.5738 0.329884 0
M  V30 225 O 23.8464 1.73802 0.117702 0
M  V30 226 C 20.9784 3.40696 0.117992 0
M  V30 227 H 22.1714 2.59754 -1.49893 0
M  V30 228 H 19.7244 1.33463 -0.813468 0
M  V30 229 H 20.4594 3.07569 1.0282 0
M  V30 230 H 20.2444 3.88188 -0.552511 0
M  V30 231 H 21.7344 4.15692 0.398696 0
M  V30 232 N 22.1715 0.800033 1.35784 0
M  V30 233 C 23.1185 0.203848 2.29898 0
M  V30 234 C 24.0885 -0.658375 1.52495 0
M  V30 235 O 25.2735 -0.604832 1.8096 0
M  V30 236 C 22.4135 -0.64688 3.38983 0
M  V30 237 C 21.5265 0.235054 4.3136 0
M  V30 238 C 20.6615 -0.623054 5.27533 0
M  V30 239 C 19.7005 0.259682 6.11549 0
M  V30 240 N 18.8375 -0.558019 6.99879 0
M  V30 241 H 23.6775 1.01186 2.80295 0
M  V30 242 H 21.2145 0.51053 1.37957 0
M  V30 243 H 23.1725 -1.15521 4.00887 0
M  V30 244 H 21.8025 -1.42021 2.89879 0
M  V30 245 H 20.8545 0.861438 3.70518 0
M  V30 246 H 22.1665 0.914768 4.9034 0
M  V30 247 H 21.3205 -1.19678 5.94779 0
M  V30 248 H 20.0595 -1.33636 4.69034 0
M  V30 249 H 19.0645 0.845726 5.43256 0
M  V30 250 H 20.2895 0.970748 6.72126 0
M  V30 251 H 18.2355 -1.25542 6.43875 0
M  V30 252 H 18.1525 0.0637872 7.55973 0
M  V30 253 H 19.4205 -1.11523 7.71481 0
M  V30 254 N 23.6496 -1.47581 0.552962 0
M  V30 255 C 24.8966 -2.02482 0.0273243 0
M  V30 256 C 25.2246 -1.42776 -1.32081 0
M  V30 257 O 24.4796 -0.571393 -1.87173 0
M  V30 258 C 24.7786 -3.57199 -0.119728 0
M  V30 259 C 24.4446 -4.35804 1.15697 0
M  V30 260 C 23.1066 -4.57 1.50681 0
M  V30 261 C 25.4586 -4.81167 2.00319 0
M  V30 262 C 22.7866 -5.20807 2.70142 0
M  V30 263 C 25.1386 -5.46293 3.18978 0
M  V30 264 C 23.8026 -5.65722 3.54281 0
M  V30 265 H 23.0726 -0.740933 0.00999866 0
M  V30 266 H 25.7196 -1.77302 0.72362 0
M  V30 267 H 24.0246 -3.81348 -0.89896 0
M  V30 268 H 25.7216 -3.97324 -0.541718 0
M  V30 269 H 22.3116 -4.19582 0.874561 0
M  V30 270 H 26.4956 -4.64574 1.74599 0
M  V30 271 H 21.7516 -5.34045 2.97668 0
M  V30 272 H 25.9256 -5.80407 3.84838 0
M  V30 273 H 23.5526 -6.14936 4.46942 0
M  V30 274 N 25.1277 -0.289203 -1.54924 0
M  V30 275 C 26.0577 0.58549 -2.2604 0
M  V30 276 C 27.0387 1.14753 -1.25562 0
M  V30 277 O 28.2237 1.17906 -1.54311 0
M  V30 278 C 25.3537 1.76305 -2.99222 0
M  V30 279 C 24.3077 1.33191 -4.06748 0
M  V30 280 C 23.6337 2.5937 -4.6758 0
M  V30 281 C 24.9337 0.471775 -5.20165 0
M  V30 282 H 26.6277 -0.00763532 -2.99399 0
M  V30 283 H 24.1737 -0.00511229 -1.43999 0
M  V30 284 H 26.1267 2.38097 -3.47689 0
M  V30 285 H 24.8507 2.38223 -2.23422 0
M  V30 286 H 23.5097 0.737121 -3.59113 0
M  V30 287 H 23.1577 3.19576 -3.88433 0
M  V30 288 H 22.8577 2.31228 -5.40192 0
M  V30 289 H 24.3817 3.21985 -5.18804 0
M  V30 290 H 25.7957 0.995056 -5.64599 0
M  V30 291 H 24.1927 0.284639 -5.99425 0
M  V30 292 H 25.2627 -0.506041 -4.82252 0
M  V30 293 N 26.6058 1.57591 -0.0167156 0
M  V30 294 C 27.5528 2.09462 0.969251 0
M  V30 295 C 28.5228 0.99381 1.33089 0
M  V30 296 O 29.7078 1.26726 1.42636 0
M  V30 297 C 26.8478 2.61622 2.25051 0
M  V30 298 C 25.9608 3.85666 1.94642 0
M  V30 299 C 25.0958 4.26266 3.16972 0
M  V30 300 C 24.1348 5.43101 2.82326 0
M  V30 301 N 23.2718 5.78915 3.97243 0
M  V30 302 H 28.1118 2.93428 0.519997 0
M  V30 303 H 25.6488 1.45044 0.245087 0
M  V30 304 H 27.6068 2.89949 2.99976 0
M  V30 305 H 26.2368 1.80505 2.67615 0
M  V30 306 H 25.2888 3.64145 1.10013 0
M  V30 307 H 26.6008 4.70678 1.65117 0
M  V30 308 H 25.7548 4.55963 4.00228 0
M  V30 309 H 24.4938 3.39996 3.49648 0
M  V30 310 H 23.4988 5.1311 1.97479 0
M  V30 311 H 24.7238 6.3106 2.50879 0
M  V30 312 H 22.6698 4.95602 4.29785 0
M  V30 313 H 22.5868 6.58539 3.71299 0
M  V30 314 H 23.8548 6.13212 4.81239 0
M  V30 315 N 28.0839 -0.256276 1.55502 0
M  V30 316 C 29.3119 -1.00342 1.8094 0
M  V30 317 C 29.7269 -1.79307 0.59114 0
M  V30 318 O 29.0839 -1.77114 -0.440081 0
M  V30 319 C 29.1349 -1.94875 3.04476 0
M  V30 320 O 28.8559 -1.19107 4.21598 0
M  V30 321 C 30.3569 -2.81266 3.42644 0
M  V30 322 H 27.5769 -0.295685 0.602338 0
M  V30 323 H 30.1209 -0.281998 2.02546 0
M  V30 324 H 28.2759 -2.62457 2.84947 0
M  V30 325 H 28.6899 -1.82969 4.91551 0
M  V30 326 H 30.1639 -3.43362 4.32211 0
M  V30 327 H 30.6409 -3.51897 2.62802 0
M  V30 328 H 31.2469 -2.1915 3.64491 0
M  V30 329 N 29.562 -1.4872 -0.521534 0
M  V30 330 C 30.811 -1.56419 -1.27341 0
M  V30 331 C 31.124 -0.246805 -1.94037 0
M  V30 332 O 32.33 -0.202122 -2.70747 0
M  V30 333 C 30.786 -2.75896 -2.31105 0
M  V30 334 C 30.394 -4.14311 -1.70441 0
M  V30 335 C 32.138 -2.92913 -3.07249 0
M  V30 336 C 30.045 -5.25038 -2.72194 0
M  V30 337 H 28.975 -0.582344 -0.478949 0
M  V30 338 H 31.626 -1.75071 -0.549779 0
M  V30 339 H 30.008 -2.50697 -3.06541 0
M  V30 340 H 31.182 -4.49564 -1.01136 0
M  V30 341 H 29.497 -4.02482 -1.06759 0
M  V30 342 H 32.094 -3.72805 -3.83302 0
M  V30 343 H 32.437 -2.02689 -3.63625 0
M  V30 344 H 32.97 -3.18054 -2.38928 0
M  V30 345 H 29.709 -6.17255 -2.20627 0
M  V30 346 H 29.229 -4.94263 -3.39801 0
M  V30 347 H 30.908 -5.53508 -3.35019 0
M  V30 348 N 31.0401 0.771051 -1.3745 0
M  V30 349 C 32.2651 1.56529 -1.36065 0
M  V30 350 C 32.6901 1.88029 0.0515859 0
M  V30 351 O 32.0481 1.49282 1.02882 0
M  V30 352 C 32.0961 2.85187 -2.20683 0
M  V30 353 O 31.2001 3.79593 -1.61193 0
M  V30 354 H 30.5411 0.47411 -0.464883 0
M  V30 355 H 33.0711 0.954269 -1.80983 0
M  V30 356 H 33.0811 3.34283 -2.33921 0
M  V30 357 H 31.7561 2.61588 -3.23334 0
M  V30 358 H 30.3331 3.38239 -1.56999 0
M  V30 359 N 32.5182 1.22032 0.997298 0
M  V30 360 C 33.7432 1.06921 1.77715 0
M  V30 361 C 34.1682 -0.376226 1.84299 0
M  V30 362 O 33.5262 -1.27165 1.29223 0
M  V30 363 C 33.5742 1.67996 3.19076 0
M  V30 364 O 32.6782 0.930653 4.01762 0
M  V30 365 H 32.0192 0.375814 0.547412 0
M  V30 366 H 34.5492 1.61737 1.25309 0
M  V30 367 H 34.5592 1.72538 3.69723 0
M  V30 368 H 33.2342 2.73182 3.13599 0
M  V30 369 H 31.8112 0.960917 3.60307 0
M  V30 370 N 33.9963 -1.19345 1.0293 0
M  V30 371 C 35.2213 -1.93538 0.745511 0
M  V30 372 C 35.6463 -1.75007 -0.689511 0
M  V30 373 O 35.0043 -1.05265 -1.47611 0
M  V30 374 C 35.0523 -3.43336 1.10239 0
M  V30 375 O 34.1563 -4.11806 0.221289 0
M  V30 376 H 33.4973 -0.604193 0.275404 0
M  V30 377 H 36.0273 -1.5141 1.37609 0
M  V30 378 H 36.0373 -3.94004 1.05947 0
M  V30 379 H 34.7123 -3.56146 2.14786 0
M  V30 380 H 33.2893 -3.715 0.322842 0
M  V30 381 N 35.4744 -0.807222 -1.35358 0
M  V30 382 C 36.4214 -0.216037 -2.29787 0
M  V30 383 C 37.3914 0.650278 -1.52842 0
M  V30 384 O 38.5764 0.595227 -1.81278 0
M  V30 385 C 35.7164 0.628893 -3.39321 0
M  V30 386 C 34.8294 -0.257927 -4.31229 0
M  V30 387 C 33.9644 0.595069 -5.27856 0
M  V30 388 C 33.0034 -0.292111 -6.11403 0
M  V30 389 N 32.1404 0.520895 -7.00165 0
M  V30 390 H 36.9804 -1.02671 -2.79755 0
M  V30 391 H 34.5174 -0.517839 -1.37684 0
M  V30 392 H 36.4754 1.13393 -4.01494 0
M  V30 393 H 35.1054 1.40482 -2.90628 0
M  V30 394 H 34.1574 -0.881076 -3.70056 0
M  V30 395 H 35.4694 -0.940759 -4.89848 0
M  V30 396 H 34.6234 1.16522 -5.95405 0
M  V30 397 H 33.3624 1.31146 -4.69736 0
M  V30 398 H 32.3674 -0.874525 -5.428 0
M  V30 399 H 33.5924 -1.00638 -6.71602 0
M  V30 400 H 31.5384 1.22125 -6.44532 0
M  V30 401 H 31.4554 -0.103877 -7.55929 0
M  V30 402 H 32.7234 1.0743 -7.72062 0
M  V30 403 N 36.9525 1.47285 -0.560781 0
M  V30 404 C 38.2015 2.01668 -0.035895 0
M  V30 405 C 38.5145 1.44021 1.32353 0
M  V30 406 O 39.7205 1.90088 1.93853 0
M  V30 407 C 38.1765 3.59897 -0.0136659 0
M  V30 408 C 37.7845 4.26536 -1.37006 0
M  V30 409 C 39.5285 4.22017 0.458425 0
M  V30 410 C 37.4355 5.76782 -1.30675 0
M  V30 411 H 36.3655 0.753938 -0.00964879 0
M  V30 412 H 39.0165 1.69243 -0.709166 0
M  V30 413 H 37.3985 3.89301 0.725325 0
M  V30 414 H 38.5725 4.0877 -2.12705 0
M  V30 415 H 36.8875 3.76419 -1.78038 0
M  V30 416 H 39.4845 5.32124 0.524247 0
M  V30 417 H 39.8275 3.89437 1.4712 0
M  V30 418 H 40.3605 3.97159 -0.225818 0
M  V30 419 H 37.0995 6.13988 -2.29564 0
M  V30 420 H 36.6195 5.96875 -0.591622 0
M  V30 421 H 38.2985 6.39063 -1.01033 0
M  V30 422 N 38.4306 0.297415 1.54768 0
M  V30 423 C 39.3606 -0.573494 2.26348 0
M  V30 424 C 40.3416 -1.14085 1.26169 0
M  V30 425 O 41.5266 -1.17086 1.54934 0
M  V30 426 C 38.6566 -1.74716 3.00153 0
M  V30 427 C 37.6106 -1.31032 4.07449 0
M  V30 428 C 36.9366 -2.56887 4.68949 0
M  V30 429 C 38.2366 -0.444183 5.20408 0
M  V30 430 H 39.9306 0.0235131 2.99391 0
M  V30 431 H 37.4766 0.0127488 1.43994 0
M  V30 432 H 39.4296 -2.3625 3.48947 0
M  V30 433 H 38.1536 -2.37035 2.24682 0
M  V30 434 H 36.8126 -0.718066 3.59499 0
M  V30 435 H 36.4606 -3.17512 3.90122 0
M  V30 436 H 36.1606 -2.2836 5.41411 0
M  V30 437 H 37.6846 -3.19229 5.20505 0
M  V30 438 H 39.0986 -0.9651 5.65118 0
M  V30 439 H 37.4956 -0.252846 5.99567 0
M  V30 440 H 38.5656 0.531609 4.81977 0
M  V30 441 N 39.9087 -1.5758 0.0250728 0
M  V30 442 C 41.1567 -1.91255 -0.653151 0
M  V30 443 C 41.4777 -0.901691 -1.729 0
M  V30 444 O 40.7477 0.0573785 -1.95816 0
M  V30 445 H 39.3277 -0.705942 -0.244243 0
M  V30 446 H 41.9897 -1.94767 0.0719209 0
M  V30 447 H 41.0857 -2.91752 -1.10847 0
M  V30 448 N 41.3868 0.248026 -1.55636 0
M  V30 449 C 42.6338 0.976224 -1.77415 0
M  V30 450 C 42.9618 1.85361 -0.589193 0
M  V30 451 O 42.2168 1.90973 0.427529 0
M  V30 452 C 42.5158 1.86819 -3.04686 0
M  V30 453 C 42.1818 1.14625 -4.36087 0
M  V30 454 C 40.8438 0.946723 -4.71795 0
M  V30 455 C 43.1958 0.634463 -5.17324 0
M  V30 456 C 40.5238 0.223091 -5.86276 0
M  V30 457 C 42.8758 -0.0756959 -6.32555 0
M  V30 458 C 41.5398 -0.286711 -6.66884 0
M  V30 459 H 40.8098 0.357226 -0.649208 0
M  V30 460 H 43.4568 0.246415 -1.89908 0
M  V30 461 H 41.7618 2.66502 -2.872 0
M  V30 462 H 43.4588 2.43329 -3.18735 0
M  V30 463 H 40.0488 1.3117 -4.08035 0
M  V30 464 H 44.2328 0.77616 -4.90193 0
M  V30 465 H 39.4888 0.0491185 -6.1138 0
M  V30 466 H 43.6628 -0.479899 -6.94745 0
M  V30 467 H 41.2898 -0.849389 -7.5544 0
M  V30 468 N 42.8649 1.48995 0.513639 0
M  V30 469 C 44.0899 1.61792 1.29762 0
M  V30 470 C 44.5149 0.284475 1.85936 0
M  V30 471 O 43.8729 -0.746185 1.65232 0
M  V30 472 C 43.9209 2.67993 2.41272 0
M  V30 473 O 43.0249 2.26287 3.44772 0
M  V30 474 H 42.3659 0.541963 0.38363 0
M  V30 475 H 44.8959 1.95097 0.616307 0
M  V30 476 H 44.9059 2.89772 2.87221 0
M  V30 477 H 43.5809 3.64791 1.9975 0
M  V30 478 H 42.1579 2.14788 3.04829 0
M  V30 479 N 44.343 -0.763751 1.37857 0
M  V30 480 C 45.571 -1.55293 1.36718 0
M  V30 481 C 45.986 -1.88745 -0.0455434 0
M  V30 482 O 45.343 -1.52039 -1.00947 0
M  V30 483 C 45.394 -2.85831 2.2132 0
M  V30 484 O 45.115 -2.5381 3.57089 0
M  V30 485 C 46.616 -3.80023 2.28249 0
M  V30 486 H 43.836 -0.480841 0.468009 0
M  V30 487 H 46.38 -0.946009 1.81303 0
M  V30 488 H 44.535 -3.42926 1.80223 0
M  V30 489 H 44.949 -3.37459 4.01524 0
M  V30 490 H 46.423 -4.68599 2.91752 0
M  V30 491 H 46.9 -4.1973 1.2932 0
M  V30 492 H 47.506 -3.28855 2.69693 0
M  V30 493 N 45.8211 -1.22559 -0.990812 0
M  V30 494 C 47.0461 -1.07862 -1.77145 0
M  V30 495 C 47.4711 0.366447 -1.84496 0
M  V30 496 O 46.8291 1.26478 -1.29896 0
M  V30 497 C 46.8771 -1.69686 -3.18181 0
M  V30 498 O 45.9811 -0.951946 -4.01263 0
M  V30 499 H 45.3221 -0.378712 -0.545411 0
M  V30 500 H 47.8521 -1.62399 -1.2445 0
M  V30 501 H 47.8621 -1.74496 -3.68802 0
M  V30 502 H 46.5371 -2.74841 -3.12146 0
M  V30 503 H 45.1141 -0.980011 -3.59792 0
M  V30 504 N 47.2992 1.18797 -1.03562 0
M  V30 505 C 48.2622 2.20464 -0.626769 0
M  V30 506 C 49.2622 1.57721 0.313173 0
M  V30 507 O 50.4522 1.73917 0.0992615 0
M  V30 508 C 47.5842 3.40802 0.0818498 0
M  V30 509 H 48.7772 2.58149 -1.5264 0
M  V30 510 H 46.3302 1.32593 -0.827578 0
M  V30 511 H 47.0652 3.08642 0.995518 0
M  V30 512 H 46.8502 3.8758 -0.593652 0
M  V30 513 H 48.3402 4.16092 0.354584 0
M  V30 514 N 48.7773 0.814389 1.34928 0
M  V30 515 C 49.7243 0.22822 2.29669 0
M  V30 516 C 50.6943 -0.642164 1.53184 0
M  V30 517 O 51.8793 -0.585605 1.81591 0
M  V30 518 C 49.0193 -0.61089 3.3965 0
M  V30 519 C 48.1323 0.280792 4.31086 0
M  V30 520 C 47.2673 -0.567067 5.28165 0
M  V30 521 C 46.3063 0.324531 6.11239 0
M  V30 522 N 45.4433 -0.483756 7.00431 0
M  V30 523 H 50.2833 1.04153 2.79206 0
M  V30 524 H 47.8203 0.525133 1.37407 0
M  V30 525 H 49.7783 -1.11263 4.0209 0
M  V30 526 H 48.4083 -1.38939 2.91369 0
M  V30 527 H 47.4603 0.900688 3.69583 0
M  V30 528 H 48.7723 0.966723 4.89342 0
M  V30 529 H 47.9263 -1.13363 5.96015 0
M  V30 530 H 46.6653 -1.28654 4.70425 0
M  V30 531 H 45.6703 0.903298 5.42329 0
M  V30 532 H 46.8953 1.04198 6.71059 0
M  V30 533 H 44.8413 -1.18706 6.45171 0
M  V30 534 H 44.7583 0.143965 7.55863 0
M  V30 535 H 46.0263 -1.03334 7.7262 0
M  V30 536 N 50.2554 -1.46986 0.568584 0
M  V30 537 C 51.1884 -2.27129 -0.220779 0
M  V30 538 C 52.1664 -1.34757 -0.909905 0
M  V30 539 O 53.3504 -1.64152 -0.926622 0
M  V30 540 C 50.4774 -3.12108 -1.31553 0
M  V30 541 C 49.5234 -4.20141 -0.733748 0
M  V30 542 S 50.3564 -5.33783 0.428479 0
M  V30 543 C 51.5124 -6.22327 -0.667811 0
M  V30 544 H 51.7454 -2.93731 0.459267 0
M  V30 545 H 49.2784 -1.5026 0.355154 0
M  V30 546 H 51.2364 -3.61636 -1.94241 0
M  V30 547 H 49.8974 -2.44847 -1.96746 0
M  V30 548 H 49.0904 -4.79373 -1.5562 0
M  V30 549 H 48.6924 -3.73553 -0.182812 0
M  V30 550 H 50.9844 -6.59364 -1.55708 0
M  V30 551 H 51.9274 -7.0801 -0.11258 0
M  V30 552 H 52.3354 -5.5618 -0.965601 0
M  V30 553 N 51.7335 -0.305618 -1.54608 0
M  V30 554 C 52.9585 0.307562 -2.05107 0
M  V30 555 C 53.3835 1.46385 -1.18123 0
M  V30 556 O 52.7415 1.8034 -0.186324 0
M  V30 557 C 52.7895 0.73704 -3.52987 0
M  V30 558 O 51.8935 1.84134 -3.6901 0
M  V30 559 H 51.2345 0.0589143 -0.661381 0
M  V30 560 H 53.7645 -0.448807 -1.99617 0
M  V30 561 H 53.7745 1.02459 -3.94925 0
M  V30 562 H 52.4495 -0.108773 -4.15758 0
M  V30 563 H 51.0265 1.55398 -3.38978 0
M  V30 564 N 53.2116 1.57565 -0.0334293 0
M  V30 565 C 54.1416 2.13511 0.945265 0
M  V30 566 C 55.1226 1.05231 1.33643 0
M  V30 567 O 56.3076 1.33084 1.41429 0
M  V30 568 C 53.4376 2.6657 2.22616 0
M  V30 569 C 52.3916 3.79676 1.97561 0
M  V30 570 C 51.7176 4.1918 3.31952 0
M  V30 571 C 53.0176 5.0557 1.31135 0
M  V30 572 H 54.7116 2.95538 0.479325 0
M  V30 573 H 52.2576 1.42166 0.229115 0
M  V30 574 H 54.2106 3.04344 2.91466 0
M  V30 575 H 52.9346 1.8171 2.71384 0
M  V30 576 H 51.5936 3.42347 1.31127 0
M  V30 577 H 51.2416 3.31296 3.78487 0
M  V30 578 H 50.9416 4.95402 3.15992 0
M  V30 579 H 52.4656 4.59541 4.02063 0
M  V30 580 H 53.8796 5.40903 1.89992 0
M  V30 581 H 52.2766 5.86818 1.25559 0
M  V30 582 H 53.3466 4.84062 0.284894 0
M  V30 583 N 54.6897 -0.239769 1.55765 0
M  V30 584 C 55.6367 -1.29696 1.90913 0
M  V30 585 C 56.6067 -1.47478 0.764164 0
M  V30 586 O 57.7917 -1.61345 1.01845 0
M  V30 587 C 54.9317 -2.64598 2.21544 0
M  V30 588 C 54.0447 -2.54765 3.48882 0
M  V30 589 C 53.1797 -3.82069 3.69049 0
M  V30 590 C 52.2187 -3.66883 4.89963 0
M  V30 591 N 51.3557 -4.86094 5.06614 0
M  V30 592 H 56.1957 -0.990224 2.81067 0
M  V30 593 H 53.7327 -0.477684 1.39128 0
M  V30 594 H 55.6907 -3.43132 2.3731 0
M  V30 595 H 54.3207 -2.93405 1.34585 0
M  V30 596 H 53.3727 -1.67763 3.41409 0
M  V30 597 H 54.6847 -2.39457 4.37563 0
M  V30 598 H 53.8387 -4.69046 3.84812 0
M  V30 599 H 52.5777 -4.00282 2.78614 0
M  V30 600 H 51.5827 -2.78289 4.74168 0
M  V30 601 H 52.8077 -3.50157 5.81865 0
M  V30 602 H 50.7537 -5.04655 4.19117 0
M  V30 603 H 50.6707 -4.73443 5.89396 0
M  V30 604 H 51.9387 -5.74549 5.26795 0
M  V30 605 N 56.1678 -1.49265 -0.50573 0
M  V30 606 C 57.4148 -1.58513 -1.26015 0
M  V30 607 C 57.7428 -0.26972 -1.92621 0
M  V30 608 O 56.9978 0.741997 -1.81088 0
M  V30 609 C 57.2968 -2.69008 -2.35308 0
M  V30 610 C 56.9628 -4.10662 -1.86192 0
M  V30 611 C 55.6248 -4.49212 -1.72516 0
M  V30 612 C 57.9768 -4.99336 -1.49375 0
M  V30 613 C 55.3048 -5.74214 -1.20394 0
M  V30 614 C 57.6568 -6.24852 -0.987072 0
M  V30 615 C 56.3208 -6.62236 -0.836669 0
M  V30 616 H 55.5908 -0.580041 -0.461122 0
M  V30 617 H 58.2378 -1.83078 -0.561665 0
M  V30 618 H 56.5428 -2.38396 -3.10926 0
M  V30 619 H 58.2398 -2.73373 -2.93374 0
M  V30 620 H 54.8298 -3.8023 -1.97795 0
M  V30 621 H 59.0138 -4.70212 -1.5879 0
M  V30 622 H 54.2698 -6.01883 -1.07458 0
M  V30 623 H 58.4438 -6.92944 -0.692983 0
M  V30 624 H 56.0708 -7.58979 -0.430607 0
M  V30 625 N 57.6459 0.756429 -1.3826 0
M  V30 626 C 58.8739 1.54565 -1.3754 0
M  V30 627 C 59.2889 1.88767 0.0355331 0
M  V30 628 O 58.6459 1.52572 1.0014 0
M  V30 629 C 58.6969 2.84654 -2.22833 0
M  V30 630 O 58.4179 2.51912 -3.5843 0
M  V30 631 C 59.9189 3.78807 -2.30261 0
M  V30 632 H 57.1389 0.478353 -0.470553 0
M  V30 633 H 59.6829 0.936381 -1.81803 0
M  V30 634 H 57.8379 3.41965 -1.8204 0
M  V30 635 H 58.2519 3.35325 -4.03308 0
M  V30 636 H 59.7259 4.67045 -2.94233 0
M  V30 637 H 60.2029 4.19038 -1.31545 0
M  V30 638 H 60.8089 3.2742 -2.71433 0
M  V30 639 N 59.124 1.23083 0.984299 0
M  V30 640 C 60.072 1.00593 2.09723 0
M  V30 641 C 61.066 -0.0538014 1.69315 0
M  V30 642 O 62.272 0.0993719 1.79725 0
M  V30 643 H 58.647 0.30817 0.685956 0
M  V30 644 H 60.618 1.95012 2.2586 0
M  V30 645 C 59.367 0.609601 3.42314 0
M  V30 646 H 58.69 1.41675 3.73856 0
M  V30 647 H 60.13 0.491726 4.21139 0
M  V30 648 C 58.589 -0.681745 3.2993 0
M  V30 649 O 59.119 -1.73192 3.62446 0
M  V30 650 N 57.325 -0.656178 2.83095 0
M  V30 651 H 56.872 0.198759 2.56832 0
M  V30 652 H 56.83 -1.52044 2.75191 0
M  V30 653 N 60.6021 -1.18246 1.0419 0
M  V30 654 C 61.5651 -2.20128 0.638452 0
M  V30 655 C 62.5651 -1.57885 -0.304805 0
M  V30 656 O 63.7551 -1.73967 -0.0900369 0
M  V30 657 C 60.8871 -3.4084 -0.0637751 0
M  V30 658 H 62.0801 -2.57336 1.54007 0
M  V30 659 H 59.6331 -1.32152 0.834598 0
M  V30 660 H 60.3681 -3.09166 -0.979136 0
M  V30 661 H 60.1531 -3.8726 0.614198 0
M  V30 662 H 61.6431 -4.16274 -0.332512 0
M  V30 663 N 62.0802 -0.821533 -1.34494 0
M  V30 664 C 63.0272 -0.240397 -2.29545 0
M  V30 665 C 63.9972 0.634031 -1.53523 0
M  V30 666 O 65.1822 0.575966 -1.81899 0
M  V30 667 C 62.3222 0.592869 -3.39969 0
M  V30 668 C 61.4352 -0.30365 -4.30932 0
M  V30 669 C 60.5702 0.539049 -5.28458 0
M  V30 670 C 59.6092 -0.356942 -6.11058 0
M  V30 671 N 58.7462 0.446603 -7.00678 0
M  V30 672 H 63.5862 -1.05632 -2.7865 0
M  V30 673 H 61.1232 -0.532413 -1.37127 0
M  V30 674 H 63.0812 1.09129 -4.02675 0
M  V30 675 H 61.7112 1.37392 -2.92102 0
M  V30 676 H 60.7632 -0.920276 -3.691 0
M  V30 677 H 62.0752 -0.992661 -4.88823 0
M  V30 678 H 61.2292 1.102 -5.96608 0
M  V30 679 H 59.9682 1.26157 -4.71101 0
M  V30 680 H 58.9732 -0.932047 -5.41842 0
M  V30 681 H 60.1982 -1.07755 -6.70497 0
M  V30 682 H 58.1442 1.15282 -6.45791 0
M  V30 683 H 58.0612 -0.184048 -7.55776 0
M  V30 684 H 59.3292 0.992352 -7.73158 0
M  V30 685 N 63.5583 1.46682 -0.576371 0
M  V30 686 C 64.9743 1.57822 -0.237562 0
M  V30 687 C 65.1743 1.57237 1.26011 0
M  V30 688 O 64.2303 1.48596 2.04146 0
M  V30 689 C 65.5433 2.87499 -0.881168 0
M  V30 690 C 67.0913 3.01119 -0.85417 0
M  V30 691 C 67.5663 4.33524 -1.4772 0
M  V30 692 N 69.0573 4.40207 -1.44125 0
M  V30 693 C 69.7923 5.4126 -1.89276 0
M  V30 694 N 69.2883 6.49021 -2.42371 0
M  V30 695 N 71.0813 5.32422 -1.80231 0
M  V30 696 H 63.2323 1.45306 -1.54919 0
M  V30 697 H 65.4953 0.692733 -0.647167 0
M  V30 698 H 65.2013 2.9372 -1.93447 0
M  V30 699 H 65.0753 3.75224 -0.385592 0
M  V30 700 H 67.4623 2.94485 0.190491 0
M  V30 701 H 67.5433 2.14887 -1.3877 0
M  V30 702 H 67.1873 4.40916 -2.52103 0
M  V30 703 H 67.1173 5.1852 -0.918947 0
M  V30 704 H 69.6083 3.62931 -1.05307 0
M  V30 705 H 69.9213 7.2233 -2.74698 0
M  V30 706 H 68.2663 6.49858 -2.46393 0
M  V30 707 H 71.4573 4.47137 -1.38514 0
M  V30 708 H 71.6303 6.11034 -2.15735 0
M  V30 709 N 65.0364 0.313813 1.54444 0
M  V30 710 C 66.2854 -0.292519 1.99568 0
M  V30 711 C 66.5984 -1.54011 1.20582 0
M  V30 712 O 67.8044 -2.22183 1.56035 0
M  V30 713 C 66.2604 -0.571752 3.55329 0
M  V30 714 C 65.8684 0.658229 4.43138 0
M  V30 715 C 67.6124 -1.13857 4.08946 0
M  V30 716 C 65.5194 0.351439 5.90355 0
M  V30 717 H 64.4494 -0.113079 0.745472 0
M  V30 718 H 67.1004 0.424518 1.78522 0
M  V30 719 H 65.4824 -1.34872 3.72325 0
M  V30 720 H 66.6564 1.43403 4.37918 0
M  V30 721 H 64.9714 1.14458 4.0036 0
M  V30 722 H 67.5684 -1.38257 5.16516 0
M  V30 723 H 67.9114 -2.08489 3.6033 0
M  V30 724 H 68.4444 -0.423015 3.95544 0
M  V30 725 H 65.1834 1.26667 6.43145 0
M  V30 726 H 64.7034 -0.386842 5.98551 0
M  V30 727 H 66.3824 -0.0423134 6.46986 0
M  V30 728 N 66.5145 -1.57545 0.0417849 0
M  V30 729 C 67.4245 -2.14451 -0.951213 0
M  V30 730 C 68.4405 -1.09992 -1.34825 0
M  V30 731 O 69.6165 -1.42114 -1.42708 0
M  V30 732 C 66.6815 -2.67063 -2.21084 0
M  V30 733 C 65.7425 -3.86284 -1.87304 0
M  V30 734 C 64.9755 -4.36378 -3.07261 0
M  V30 735 O 65.1985 -3.85587 -4.20332 0
M  V30 736 O 64.1325 -5.28077 -2.88822 0
M  V30 737 H 67.9585 -2.99601 -0.497287 0
M  V30 738 H 65.5435 -1.48317 -0.179567 0
M  V30 739 H 67.4255 -3.00914 -2.95006 0
M  V30 740 H 66.1005 -1.84989 -2.65633 0
M  V30 741 H 65.0075 -3.57338 -1.10727 0
M  V30 742 H 66.3405 -4.6956 -1.47562 0
M  V30 743 N 67.9926 0.231505 -1.5589 0
M  V30 744 C 69.2406 0.955461 -1.78088 0
M  V30 745 C 69.5616 1.85262 -0.608533 0
M  V30 746 O 68.8316 1.92277 0.375035 0
M  V30 747 H 67.4116 0.355787 -0.656829 0
M  V30 748 H 70.0736 0.245751 -1.93344 0
M  V30 749 H 69.1696 1.56814 -2.69844 0
M  V30 750 N 69.4707 1.49531 0.497807 0
M  V30 751 C 70.4007 1.6935 1.60757 0
M  V30 752 C 71.3817 0.542218 1.61227 0
M  V30 753 O 72.5667 0.778417 1.77917 0
M  V30 754 C 69.6967 1.76298 2.99226 0
M  V30 755 C 68.6507 2.91248 3.13622 0
M  V30 756 C 67.9767 2.83312 4.53474 0
M  V30 757 C 69.2767 4.3214 2.93346 0
M  V30 758 H 70.9707 2.62263 1.44425 0
M  V30 759 H 68.5167 1.26208 0.693367 0
M  V30 760 H 70.4697 1.88749 3.76765 0
M  V30 761 H 69.1937 0.799871 3.16654 0
M  V30 762 H 67.8527 2.78404 2.38509 0
M  V30 763 H 67.5007 1.84902 4.67782 0
M  V30 764 H 67.2007 3.60465 4.64046 0
M  V30 765 H 68.7247 2.97775 5.33069 0
M  V30 766 H 70.1387 4.45649 3.60652 0
M  V30 767 H 68.5357 5.1054 3.15387 0
M  V30 768 H 69.6057 4.46363 1.89441 0
M  V30 769 N 70.9488 -0.749086 1.3866 0
M  V30 770 C 72.2258 -1.4992 1.25632 0
M  V30 771 C 72.6058 -2.10633 -0.140317 0
M  V30 772 O 71.9538 -1.97437 -1.15025 0
M  V30 773 C 72.1638 -2.56195 2.36992 0
M  V30 774 C 73.5118 -3.22972 2.75634 0
M  V30 775 O 74.5358 -2.66502 2.36337 0
M  V30 776 O 73.3948 -4.25122 3.43415 0
M  V30 777 H 70.4888 -0.665067 0.491544 0
M  V30 778 H 73.0348 -0.784113 1.50498 0
M  V30 779 H 71.8068 -2.09612 3.30422 0
M  V30 780 H 71.4298 -3.35279 2.13714 0
M  V30 781 N 72.4269 -1.23603 -0.977757 0
M  V30 782 C 73.6519 -1.09735 -1.75991 0
M  V30 783 C 74.0769 0.346858 -1.84874 0
M  V30 784 O 73.4349 1.25093 -1.3123 0
M  V30 785 C 73.4829 -1.73051 -3.16363 0
M  V30 786 O 72.5869 -0.994452 -4.0023 0
M  V30 787 H 71.9279 -0.384476 -0.541364 0
M  V30 788 H 74.4579 -1.6371 -1.2272 0
M  V30 789 H 74.4679 -1.78398 -3.66931 0
M  V30 790 H 73.1429 -2.78137 -3.09213 0
M  V30 791 H 71.7199 -1.01812 -3.58732 0
M  V30 792 N 73.905 1.17692 -1.04816 0
M  V30 793 C 74.853 2.23632 -0.63966 0
M  V30 794 C 75.847 1.6601 0.337219 0
M  V30 795 O 77.053 1.78844 0.203693 0
M  V30 796 H 73.428 0.727949 -0.188665 0
M  V30 797 H 75.399 2.55387 -1.54337 0
M  V30 798 C 74.148 3.4769 -0.0264051 0
M  V30 799 H 73.471 3.92331 -0.769164 0
M  V30 800 H 74.911 4.23418 0.222098 0
M  V30 801 C 73.37 3.13807 1.22584 0
M  V30 802 O 73.9 3.28236 2.31569 0
M  V30 803 N 72.106 2.68065 1.12202 0
M  V30 804 H 71.653 2.56525 0.235133 0
M  V30 805 H 71.611 2.45767 1.96076 0
M  V30 806 N 75.3831 0.828654 1.34056 0
M  V30 807 C 76.6291 0.42008 1.98402 0
M  V30 808 C 76.9621 -1.01564 1.65525 0
M  V30 809 O 76.2371 -1.70834 0.929831 0
M  V30 810 C 76.5201 0.62927 3.54559 0
M  V30 811 C 76.3731 2.11152 3.97159 0
M  V30 812 C 77.6921 0.0688756 4.40046 0
M  V30 813 H 74.8111 0.154104 0.720709 0
M  V30 814 H 77.4531 1.04228 1.5886 0
M  V30 815 H 75.6031 0.0996418 3.88372 0
M  V30 816 H 77.2751 2.70522 3.73651 0
M  V30 817 H 75.5181 2.59985 3.47261 0
M  V30 818 H 76.1891 2.20868 5.05887 0
M  V30 819 H 78.6651 0.521458 4.1282 0
M  V30 820 H 77.5411 0.245006 5.48353 0
M  V30 821 H 77.8021 -1.0266 4.30015 0
M  V30 822 N 76.8612 -1.46375 0.584142 0
M  V30 823 C 78.1072 -2.03248 0.0787103 0
M  V30 824 C 78.4622 -1.44737 -1.26763 0
M  V30 825 O 77.7552 -0.603625 -1.81843 0
M  V30 826 C 77.9492 -3.57373 -0.0439342 0
M  V30 827 C 77.7782 -4.30831 1.28897 0
M  V30 828 C 76.5482 -4.69683 1.8635 0
M  V30 829 C 78.7462 -4.64278 2.21248 0
M  V30 830 N 76.7282 -5.27898 3.13365 0
M  V30 831 C 78.0992 -5.23078 3.32851 0
M  V30 832 C 80.1542 -4.46209 2.20911 0
M  V30 833 C 78.8572 -5.65715 4.44251 0
M  V30 834 C 80.8832 -4.89864 3.31341 0
M  V30 835 C 80.2452 -5.48736 4.41665 0
M  V30 836 H 76.3442 -0.778714 0.0716144 0
M  V30 837 H 78.9282 -1.78509 0.777355 0
M  V30 838 H 77.0992 -3.81823 -0.711749 0
M  V30 839 H 78.8312 -4.00892 -0.553881 0
M  V30 840 H 75.5862 -4.52488 1.39826 0
M  V30 841 H 76.0102 -5.61525 3.78178 0
M  V30 842 H 80.6522 -4.00027 1.36888 0
M  V30 843 H 78.3702 -6.10875 5.29015 0
M  V30 844 H 81.9562 -4.77634 3.322 0
M  V30 845 H 80.8362 -5.81898 5.25704 0
M  V30 846 N 78.3393 -0.321999 -1.54275 0
M  V30 847 C 79.5883 0.281931 -1.9972 0
M  V30 848 C 79.9013 1.53369 -1.21397 0
M  V30 849 O 81.1073 2.21352 -1.57211 0
M  V30 850 C 79.5633 0.5529 -3.55628 0
M  V30 851 C 79.1713 -0.681721 -4.42783 0
M  V30 852 C 80.9153 1.11687 -4.09544 0
M  V30 853 C 78.8223 -0.382742 -5.9016 0
M  V30 854 H 77.7523 0.109124 -0.746062 0
M  V30 855 H 80.4033 -0.43398 -1.78294 0
M  V30 856 H 78.7853 1.32896 -3.73035 0
M  V30 857 H 79.9593 -1.45723 -4.37151 0
M  V30 858 H 78.2743 -1.1658 -3.99748 0
M  V30 859 H 80.8713 1.35515 -5.17242 0
M  V30 860 H 81.2143 2.06575 -3.61431 0
M  V30 861 H 81.7473 0.402032 -3.95763 0
M  V30 862 H 78.4863 -1.30076 -6.42464 0
M  V30 863 H 78.0063 0.355094 -5.98748 0
M  V30 864 H 79.6853 0.00800157 -6.47 0
M  V30 865 N 79.8174 1.5752 -0.0501392 0
M  V30 866 C 80.7274 2.14952 0.939827 0
M  V30 867 C 81.7434 1.10706 1.34239 0
M  V30 868 O 82.9194 1.42869 1.41952 0
M  V30 869 C 79.9844 2.68232 2.19665 0
M  V30 870 C 79.0454 3.87272 1.85253 0
M  V30 871 C 78.2784 4.38002 3.04943 0
M  V30 872 O 78.5014 3.87811 4.18281 0
M  V30 873 O 77.4354 5.29602 2.86017 0
M  V30 874 H 81.2614 2.9986 0.481392 0
M  V30 875 H 78.8464 1.4841 0.171699 0
M  V30 876 H 80.7284 3.02475 2.93406 0
M  V30 877 H 79.4034 1.86395 2.64648 0
M  V30 878 H 78.3104 3.5792 1.0883 0
M  V30 879 H 79.6434 4.70336 1.4507 0
M  V30 880 N 81.2955 -0.223234 1.56011 0
M  V30 881 C 82.5425 -0.947875 1.78946 0
M  V30 882 C 82.8705 -1.844 0.618608 0
M  V30 883 O 82.1255 -1.91629 -0.397093 0
M  V30 884 C 82.4245 -1.81948 3.0762 0
M  V30 885 C 82.0905 -1.07672 4.37856 0
M  V30 886 C 80.7525 -0.871544 4.73242 0
M  V30 887 C 83.1045 -0.552081 5.18268 0
M  V30 888 C 80.4325 -0.129791 5.86556 0
M  V30 889 C 82.7845 0.17632 6.32354 0
M  V30 890 C 81.4485 0.39277 6.66343 0
M  V30 891 H 80.7185 -0.346852 0.654809 0
M  V30 892 H 83.3655 -0.216171 1.90276 0
M  V30 893 H 81.6705 -2.61899 2.91404 0
M  V30 894 H 83.3675 -2.38227 3.22566 0
M  V30 895 H 79.9575 -1.24662 4.1007 0
M  V30 896 H 84.1415 -0.698076 4.91366 0
M  V30 897 H 79.3975 0.048153 6.11381 0
M  V30 898 H 83.5715 0.590367 6.93893 0
M  V30 899 H 81.1985 0.969466 7.53993 0
M  V30 900 N 82.7736 -1.49793 -0.48987 0
M  V30 901 C 84.0016 -1.63568 -1.26701 0
M  V30 902 C 84.4166 -0.311465 -1.86213 0
M  V30 903 O 83.7736 0.704416 -1.68357 0
M  V30 904 C 83.8246 -2.71284 -2.38929 0
M  V30 905 O 83.5456 -3.9857 -1.81861 0
M  V30 906 C 85.0466 -2.95864 -3.3012 0
M  V30 907 H 82.2666 -0.550342 -0.383881 0
M  V30 908 H 84.8106 -1.95898 -0.586864 0
M  V30 909 H 82.9656 -2.417 -3.02753 0
M  V30 910 H 83.3796 -4.57993 -2.55622 0
M  V30 911 H 84.8536 -3.74941 -4.05121 0
M  V30 912 H 85.3306 -2.06206 -3.87783 0
M  V30 913 H 85.9366 -3.26907 -2.72051 0
M  V30 914 N 84.2517 0.741722 -1.39055 0
M  V30 915 C 85.1987 1.85566 -1.37237 0
M  V30 916 C 86.1687 1.64457 -0.233072 0
M  V30 917 O 87.3537 1.85957 -0.427147 0
M  V30 918 C 84.4937 3.23004 -1.215 0
M  V30 919 C 83.6067 3.55864 -2.44918 0
M  V30 920 C 82.7417 4.82669 -2.21821 0
M  V30 921 C 81.7807 5.08351 -3.40948 0
M  V30 922 N 80.9177 6.26356 -3.17211 0
M  V30 923 H 85.7577 1.86455 -2.32462 0
M  V30 924 H 83.2947 0.911176 -1.15482 0
M  V30 925 H 85.2527 4.02331 -1.10389 0
M  V30 926 H 83.8827 3.21411 -0.29908 0
M  V30 927 H 82.9347 2.7129 -2.66657 0
M  V30 928 H 84.2467 3.70765 -3.33668 0
M  V30 929 H 83.4007 5.69962 -2.07914 0
M  V30 930 H 82.1397 4.69929 -1.30454 0
M  V30 931 H 81.1447 4.19522 -3.55361 0
M  V30 932 H 82.3697 5.22981 -4.33207 0
M  V30 933 H 80.3157 6.14917 -2.28502 0
M  V30 934 H 80.2327 6.41813 -3.99515 0
M  V30 935 H 81.5007 7.16506 -3.06984 0
M  V30 936 N 85.7298 1.2412 0.971189 0
M  V30 937 C 86.6598 1.05508 2.08304 0
M  V30 938 C 87.6408 -0.0308864 1.70072 0
M  V30 939 O 88.8258 0.135521 1.93727 0
M  V30 940 C 85.9558 0.655365 3.4106 0
M  V30 941 C 84.9098 1.68971 3.93234 0
M  V30 942 C 84.2358 1.14516 5.22293 0
M  V30 943 C 85.5358 3.08487 4.21465 0
M  V30 944 H 87.2298 1.98507 2.24132 0
M  V30 945 H 84.7758 0.955821 1.07704 0
M  V30 946 H 86.7288 0.51217 4.18276 0
M  V30 947 H 85.4528 -0.31032 3.25122 0
M  V30 948 H 84.1118 1.82106 3.18171 0
M  V30 949 H 83.7598 0.170189 5.02712 0
M  V30 950 H 83.4598 1.83635 5.58168 0
M  V30 951 H 84.9838 1.01401 6.02121 0
M  V30 952 H 86.3978 2.98601 4.89398 0
M  V30 953 H 84.7948 3.74926 4.68562 0
M  V30 954 H 85.8648 3.56787 3.28376 0
M  V30 955 N 87.2079 -1.17134 1.05439 0
M  V30 956 C 88.1709 -2.19439 0.661764 0
M  V30 957 C 89.1709 -1.58199 -0.288042 0
M  V30 958 O 90.3609 -1.74053 -0.0715803 0
M  V30 959 C 87.4929 -3.40889 -0.0276209 0
M  V30 960 H 88.6859 -2.55688 1.56728 0
M  V30 961 H 86.2389 -1.31259 0.848567 0
M  V30 962 H 86.9739 -3.10187 -0.94629 0
M  V30 963 H 86.7589 -3.86586 0.655238 0
M  V30 964 H 88.2489 -4.16603 -0.288342 0
M  V30 965 N 88.686 -0.835752 -1.33615 0
M  V30 966 C 89.649 -0.272 -2.2758 0
M  V30 967 C 90.649 0.557487 -1.50827 0
M  V30 968 O 91.839 0.37173 -1.70188 0
M  V30 969 C 88.971 0.617173 -3.35267 0
M  V30 970 H 90.164 -1.10111 -2.78954 0
M  V30 971 H 87.717 -0.608594 -1.43965 0
M  V30 972 H 88.452 1.46884 -2.89129 0
M  V30 973 H 88.237 0.0237066 -3.92093 0
M  V30 974 H 89.727 1.005 -4.05326 0
M  V30 975 N 90.1641 1.46063 -0.591896 0
M  V30 976 C 91.4411 1.95595 -0.0137119 0
M  V30 977 C 91.8211 1.5345 1.4497 0
M  V30 978 O 91.1691 0.789543 2.14426 0
M  V30 979 C 91.3791 3.48453 -0.195373 0
M  V30 980 C 92.7271 4.24546 -0.0679765 0
M  V30 981 O 93.7511 3.55982 -0.124681 0
M  V30 982 O 92.6101 5.46467 0.0600579 0
M  V30 983 H 89.7041 0.825795 0.0446279 0
M  V30 984 H 92.2501 1.56303 -0.660859 0
M  V30 985 H 91.0221 3.72045 -1.21235 0
M  V30 986 H 90.6451 3.94597 0.487775 0
M  V30 987 N 91.6422 0.330177 1.54103 0
M  V30 988 C 93.0532 -0.15652 1.86043 0
M  V30 989 C 93.4042 -1.51086 1.2517 0
M  V30 990 O 92.5292 -2.09023 0.560217 0
M  V30 991 C 93.1242 -0.290784 3.3755 0
M  V30 992 C 91.6832 -0.721705 3.69416 0
M  V30 993 C 90.8302 0.152622 2.7688 0
M  V30 994 H 93.7812 0.550237 1.48856 0
M  V30 995 H 93.8022 -1.12058 3.63625 0
M  V30 996 H 93.3142 0.695068 3.81825 0
M  V30 997 H 91.4152 -1.71706 3.30678 0
M  V30 998 H 91.5282 -0.520869 4.7626 0
M  V30 999 H 89.8922 -0.372894 2.51956 0
M  V30 1000 H 90.6752 1.13536 3.23982 0
M  V30 1001 N 93.1203 -1.57491 0.0584922 0
M  V30 1002 C 94.3453 -1.97711 -0.62652 0
M  V30 1003 C 94.7703 -0.936132 -1.63151 0
M  V30 1004 O 94.1283 0.099811 -1.81025 0
M  V30 1005 C 94.1763 -3.36989 -1.28338 0
M  V30 1006 O 93.2803 -3.35433 -2.39913 0
M  V30 1007 H 92.6213 -0.643868 -0.162266 0
M  V30 1008 H 95.1513 -2.04193 0.129064 0
M  V30 1009 H 95.1613 -3.73879 -1.63335 0
M  V30 1010 H 93.8363 -4.12289 -0.546889 0
M  V30 1011 H 92.4133 -3.10298 -2.06809 0
M  V30 1012 N 94.5984 0.214957 -1.56127 0
M  V30 1013 C 95.8444 0.939762 -1.79712 0
M  V30 1014 C 96.1774 1.83723 -0.629247 0
M  V30 1015 O 95.4524 1.90925 0.371197 0
M  V30 1016 C 95.7354 1.77306 -3.13424 0
M  V30 1017 C 95.5884 0.90164 -4.40671 0
M  V30 1018 C 96.9074 2.74956 -3.43638 0
M  V30 1019 H 94.0264 0.340214 -0.653776 0
M  V30 1020 H 96.6684 0.20824 -1.88855 0
M  V30 1021 H 94.8184 2.39673 -3.0576 0
M  V30 1022 H 96.4904 0.294206 -4.60361 0
M  V30 1023 H 94.7334 0.207368 -4.33304 0
M  V30 1024 H 95.4044 1.51923 -5.30682 0
M  V30 1025 H 97.8804 2.22724 -3.51473 0
M  V30 1026 H 96.7564 3.30358 -4.38355 0
M  V30 1027 H 97.0174 3.53023 -2.66134 0
M  V30 1028 N 96.0765 1.50051 0.48192 0
M  V30 1029 C 97.3225 1.60736 1.2366 0
M  V30 1030 C 97.6555 0.301786 1.91841 0
M  V30 1031 O 96.9305 -0.696025 1.8162 0
M  V30 1032 C 97.2135 2.78009 2.28874 0
M  V30 1033 C 97.0665 4.18416 1.65069 0
M  V30 1034 C 98.3855 2.90867 3.30279 0
M  V30 1035 H 95.5045 0.585031 0.448228 0
M  V30 1036 H 98.1465 1.82402 0.531946 0
M  V30 1037 H 96.2965 2.59667 2.88973 0
M  V30 1038 H 97.9685 4.48322 1.0865 0
M  V30 1039 H 96.2115 4.23177 0.954148 0
M  V30 1040 H 96.8825 4.96381 2.41474 0
M  V30 1041 H 99.3585 3.07623 2.80191 0
M  V30 1042 H 98.2345 3.74566 4.01238 0
M  V30 1043 H 98.4955 2.01021 3.93755 0
M  V30 1044 N 97.5546 -0.734337 1.39446 0
M  V30 1045 C 98.5026 -1.86971 1.38364 0
M  V30 1046 C 99.4966 -1.67288 0.266687 0
M  V30 1047 O 100.703 -1.74621 0.436755 0
M  V30 1048 H 97.0776 -0.615474 0.432082 0
M  V30 1049 H 99.0486 -1.85 2.34132 0
M  V30 1050 C 97.7976 -3.2466 1.24465 0
M  V30 1051 H 97.1206 -3.40402 2.09682 0
M  V30 1052 H 98.5606 -4.04292 1.27764 0
M  V30 1053 C 97.0196 -3.36867 -0.0468674 0
M  V30 1054 O 97.5496 -3.88618 -1.01681 0
M  V30 1055 N 95.7556 -2.90391 -0.110145 0
M  V30 1056 H 95.3026 -2.48466 0.679868 0
M  V30 1057 H 95.2606 -2.98939 -0.973799 0
M  V30 1058 N 99.0327 -1.24633 -0.964593 0
M  V30 1059 C 99.9627 -1.06611 -2.07741 0
M  V30 1060 C 100.944 0.0218666 -1.70086 0
M  V30 1061 O 102.129 -0.145793 -1.93652 0
M  V30 1062 C 99.2587 -0.673444 -3.40708 0
M  V30 1063 C 98.2127 -1.71054 -3.92332 0
M  V30 1064 C 97.5387 -1.17285 -5.21678 0
M  V30 1065 C 98.8387 -3.10718 -4.19824 0
M  V30 1066 H 100.533 -1.99693 -2.23076 0
M  V30 1067 H 98.0787 -0.96152 -1.07195 0
M  V30 1068 H 100.032 -0.534345 -4.17998 0
M  V30 1069 H 98.7557 0.293073 -3.25282 0
M  V30 1070 H 97.4147 -1.83791 -3.17201 0
M  V30 1071 H 97.0627 -0.196847 -5.02615 0
M  V30 1072 H 96.7627 -1.86592 -5.57187 0
M  V30 1073 H 98.2867 -1.04593 -6.01575 0
M  V30 1074 H 99.7007 -3.01192 -4.87808 0
M  V30 1075 H 98.0977 -3.77406 -4.66567 0
M  V30 1076 H 99.1677 -3.58524 -3.26479 0
M  V30 1077 N 100.511 1.16574 -1.06058 0
M  V30 1078 C 101.759 1.86677 -0.77434 0
M  V30 1079 C 102.08 1.81959 0.701147 0
M  V30 1080 O 101.35 1.2515 1.50713 0
M  V30 1081 H 99.9298 0.691134 -0.283449 0
M  V30 1082 H 102.592 1.41378 -1.34158 0
M  V30 1083 H 101.688 2.92181 -1.09711 0
M  V30 1084 N 101.989 0.842826 1.3317 0
M  V30 1085 C 102.921 0.236245 2.27979 0
M  V30 1086 C 103.934 -0.585282 1.51915 0
M  V30 1087 O 105.123 -0.411705 1.73687 0
M  V30 1088 C 102.223 -0.685717 3.3189 0
M  V30 1089 C 101.396 0.0973448 4.37292 0
M  V30 1090 C 100.455 -0.748565 5.20848 0
M  V30 1091 O 99.4809 -0.186339 5.68895 0
M  V30 1092 N 100.683 -2.06527 5.42519 0
M  V30 1093 H 103.448 1.05088 2.80672 0
M  V30 1094 H 101.009 0.701667 1.45905 0
M  V30 1095 H 103.001 -1.25669 3.84694 0
M  V30 1096 H 101.571 -1.40105 2.79445 0
M  V30 1097 H 100.791 0.849706 3.84933 0
M  V30 1098 H 102.079 0.635643 5.04814 0
M  V30 1099 H 101.477 -2.54554 5.05192 0
M  V30 1100 H 100.034 -2.58464 5.98364 0
M  V30 1101 N 103.467 -1.45747 0.599634 0
M  V30 1102 C 104.715 -2.01893 0.0915472 0
M  V30 1103 C 105.036 -1.47155 -1.27946 0
M  V30 1104 O 104.306 -0.66273 -1.84349 0
M  V30 1105 H 102.886 -0.746363 0.0308524 0
M  V30 1106 H 105.548 -1.78645 0.779237 0
M  V30 1107 H 104.644 -3.1208 0.0353086 0
M  V30 1108 N 104.945 -0.338344 -1.53925 0
M  V30 1109 C 106.192 0.259758 -2.00827 0
M  V30 1110 C 106.52 1.50973 -1.22628 0
M  V30 1111 O 105.775 1.93379 -0.300509 0
M  V30 1112 C 106.074 0.62448 -3.51902 0
M  V30 1113 C 105.74 -0.528006 -4.47798 0
M  V30 1114 C 104.402 -0.844298 -4.73735 0
M  V30 1115 C 106.754 -1.30143 -5.0469 0
M  V30 1116 C 104.082 -1.93648 -5.53821 0
M  V30 1117 C 106.434 -2.38382 -5.85967 0
M  V30 1118 C 105.098 -2.70576 -6.10201 0
M  V30 1119 H 104.368 0.0950523 -0.734878 0
M  V30 1120 H 107.015 -0.465182 -1.85764 0
M  V30 1121 H 105.32 1.43006 -3.64769 0
M  V30 1122 H 107.017 1.09905 -3.85645 0
M  V30 1123 H 103.607 -0.271421 -4.2774 0
M  V30 1124 H 107.791 -1.07033 -4.84621 0
M  V30 1125 H 103.047 -2.19021 -5.70824 0
M  V30 1126 H 107.221 -2.98746 -6.29066 0
M  V30 1127 H 104.848 -3.55333 -6.72044 0
M  V30 1128 N 106.423 1.57458 -0.0668435 0
M  V30 1129 C 107.834 1.80776 0.466558 0
M  V30 1130 C 108.185 0.980361 1.69951 0
M  V30 1131 O 107.31 0.201441 2.1546 0
M  V30 1132 C 107.905 3.27881 0.85321 0
M  V30 1133 C 106.464 3.52062 1.3315 0
M  V30 1134 C 105.611 2.75513 0.314264 0
M  V30 1135 H 108.562 1.5598 -0.292588 0
M  V30 1136 H 108.583 3.39659 1.715 0
M  V30 1137 H 108.095 3.88075 -0.0443439 0
M  V30 1138 H 106.196 2.97167 2.24772 0
M  V30 1139 H 106.309 4.60762 1.31285 0
M  V30 1140 H 104.673 2.42123 0.790492 0
M  V30 1141 H 105.456 3.38442 -0.575477 0
M  V30 1142 N 107.901 -0.206675 1.56239 0
M  V30 1143 C 109.178 -0.954051 1.70755 0
M  V30 1144 C 109.558 -2.01841 0.618353 0
M  V30 1145 O 108.906 -2.25444 -0.372434 0
M  V30 1146 C 109.116 -1.551 3.12642 0
M  V30 1147 C 110.464 -2.03757 3.72516 0
M  V30 1148 O 111.488 -1.64965 3.15698 0
M  V30 1149 O 110.347 -2.75103 4.72208 0
M  V30 1150 H 107.441 -0.446636 0.696021 0
M  V30 1151 H 109.987 -0.197283 1.68549 0
M  V30 1152 H 108.759 -0.783212 3.83382 0
M  V30 1153 H 108.382 -2.37291 3.19028 0
M  V30 1154 N 109.379 -1.50304 -0.473955 0
M  V30 1155 C 110.628 -1.60392 -1.22301 0
M  V30 1156 C 110.941 -0.308411 -1.93153 0
M  V30 1157 O 112.147 -0.288156 -2.69966 0
M  V30 1158 C 110.603 -2.83109 -2.2221 0
M  V30 1159 C 110.211 -4.19524 -1.57173 0
M  V30 1160 C 111.955 -3.0254 -2.97775 0
M  V30 1161 C 109.862 -5.33431 -2.55353 0
M  V30 1162 H 108.792 -0.597286 -0.460179 0
M  V30 1163 H 111.443 -1.76731 -0.493803 0
M  V30 1164 H 109.825 -2.60322 -2.9841 0
M  V30 1165 H 110.999 -4.52554 -0.867824 0
M  V30 1166 H 109.314 -4.05674 -0.939002 0
M  V30 1167 H 111.911 -3.84811 -3.71248 0
M  V30 1168 H 112.254 -2.14154 -3.56992 0
M  V30 1169 H 112.787 -3.25494 -2.28688 0
M  V30 1170 H 109.526 -6.23962 -2.00878 0
M  V30 1171 H 109.046 -5.04823 -3.23904 0
M  V30 1172 H 110.725 -5.63887 -3.17239 0
M  V30 1173 N 110.857 0.726932 -1.39834 0
M  V30 1174 C 112.082 1.52121 -1.40976 0
M  V30 1175 C 112.507 1.88098 -0.00826029 0
M  V30 1176 O 111.865 1.52479 0.980807 0
M  V30 1177 C 111.913 2.78021 -2.29644 0
M  V30 1178 O 111.017 3.74272 -1.73188 0
M  V30 1179 H 110.358 0.45908 -0.479731 0
M  V30 1180 H 112.888 0.896207 -1.83927 0
M  V30 1181 H 112.898 3.26671 -2.44438 0
M  V30 1182 H 111.573 2.51169 -3.31492 0
M  V30 1183 H 110.15 3.33073 -1.6768 0
M  V30 1184 N 112.336 1.25143 0.95797 0
M  V30 1185 C 113.747 1.08851 1.51685 0
M  V30 1186 C 114.098 -0.33687 1.93286 0
M  V30 1187 O 113.223 -1.22644 1.7829 0
M  V30 1188 C 113.818 1.96978 2.75654 0
M  V30 1189 C 112.377 1.84881 3.27866 0
M  V30 1190 C 111.524 1.91329 2.0072 0
M  V30 1191 H 114.475 1.38478 0.77522 0
M  V30 1192 H 114.496 1.5078 3.4935 0
M  V30 1193 H 114.008 3.00712 2.45345 0
M  V30 1194 H 112.109 0.840182 3.63004 0
M  V30 1195 H 112.222 2.6951 3.96107 0
M  V30 1196 H 110.586 1.35174 2.15871 0
M  V30 1197 H 111.369 2.96661 1.72764 0
M  V30 1198 N 113.814 -1.1601 1.06675 0
M  V30 1199 C 115.225 -1.68235 0.809565 0
M  V30 1200 C 115.576 -1.8454 -0.666303 0
M  V30 1201 O 114.701 -1.54374 -1.5165 0
M  V30 1202 C 115.296 -3.05585 1.46299 0
M  V30 1203 C 113.855 -3.54915 1.25349 0
M  V30 1204 C 113.002 -2.30804 1.53703 0
M  V30 1205 H 115.953 -1.00318 1.22971 0
M  V30 1206 H 115.974 -3.70174 0.880431 0
M  V30 1207 H 115.486 -2.93686 2.53713 0
M  V30 1208 H 113.587 -3.72067 0.199261 0
M  V30 1209 H 113.7 -4.36774 1.9689 0
M  V30 1210 H 112.064 -2.36007 0.957739 0
M  V30 1211 H 112.847 -2.21499 2.62284 0
M  V30 1212 N 115.292 -0.849877 -1.32721 0
M  V30 1213 C 116.52 -0.464754 -2.01613 0
M  V30 1214 C 116.935 0.937191 -1.63897 0
M  V30 1215 O 116.292 1.61081 -0.857856 0
M  V30 1216 C 116.343 -0.588638 -3.56675 0
M  V30 1217 O 116.064 -1.93535 -3.93034 0
M  V30 1218 C 117.565 -0.2019 -4.4284 0
M  V30 1219 H 114.785 -0.183215 -0.645502 0
M  V30 1220 H 117.329 -1.1455 -1.69407 0
M  V30 1221 H 115.484 0.0443159 -3.87375 0
M  V30 1222 H 115.898 -1.92871 -4.87751 0
M  V30 1223 H 117.372 -0.339599 -5.50954 0
M  V30 1224 H 117.849 0.857224 -4.30753 0
M  V30 1225 H 118.455 -0.809733 -4.17521 0
M  V30 1226 N 116.77 1.45427 -0.607355 0
M  V30 1227 C 118 2.06314 -0.108656 0
M  V30 1228 C 118.408 1.45269 1.21217 0
M  V30 1229 O 117.751 0.561115 1.74921 0
M  V30 1230 C 117.813 3.59345 0.105618 0
M  V30 1231 C 117.477 4.42723 -1.13337 0
M  V30 1232 C 118.474 4.77715 -2.05145 0
M  V30 1233 C 116.159 4.83478 -1.36213 0
M  V30 1234 C 118.153 5.52317 -3.18158 0
M  V30 1235 C 115.84 5.57835 -2.49527 0
M  V30 1236 C 116.838 5.92171 -3.40327 0
M  V30 1237 O 116.526 6.65019 -4.51669 0
M  V30 1238 H 116.258 0.672782 -0.0658842 0
M  V30 1239 H 118.812 1.87664 -0.834945 0
M  V30 1240 H 117.042 3.76394 0.886796 0
M  V30 1241 H 118.731 4.02076 0.555886 0
M  V30 1242 H 119.497 4.46787 -1.88697 0
M  V30 1243 H 115.376 4.56188 -0.664362 0
M  V30 1244 H 118.92 5.79036 -3.89054 0
M  V30 1245 H 114.817 5.88177 -2.65928 0
M  V30 1246 H 115.585 6.83469 -4.50348 0
M  V30 1247 N 118.248 0.346503 1.53744 0
M  V30 1248 C 119.494 -0.249473 2.0126 0
M  V30 1249 C 119.827 -1.49965 1.23386 0
M  V30 1250 O 119.102 -1.91811 0.32229 0
M  V30 1251 C 119.385 -0.560643 3.55709 0
M  V30 1252 C 119.238 0.701836 4.44291 0
M  V30 1253 C 120.557 -1.36905 4.18264 0
M  V30 1254 H 117.676 -0.0891987 0.731582 0
M  V30 1255 H 120.318 0.467624 1.84156 0
M  V30 1256 H 118.468 -1.17156 3.70414 0
M  V30 1257 H 120.14 1.33974 4.41417 0
M  V30 1258 H 118.383 1.32612 4.13033 0
M  V30 1259 H 119.054 0.43933 5.50249 0
M  V30 1260 H 121.53 -0.852448 4.07275 0
M  V30 1261 H 120.406 -1.55553 5.26398 0
M  V30 1262 H 120.667 -2.37203 3.73078 0
M  V30 1263 N 119.726 -1.57421 0.075193 0
M  V30 1264 C 120.673 -2.12915 -0.890843 0
M  V30 1265 C 121.643 -1.04252 -1.29309 0
M  V30 1266 O 122.828 -1.31933 -1.37834 0
M  V30 1267 C 119.968 -2.69795 -2.15186 0
M  V30 1268 C 119.081 -3.92624 -1.80194 0
M  V30 1269 C 118.216 -4.37736 -3.00933 0
M  V30 1270 C 117.255 -5.53205 -2.61974 0
M  V30 1271 N 116.392 -5.9326 -3.75483 0
M  V30 1272 H 121.232 -2.95156 -0.410735 0
M  V30 1273 H 118.769 -1.45854 -0.191086 0
M  V30 1274 H 120.727 -3.00883 -2.89008 0
M  V30 1275 H 119.357 -1.90313 -2.60731 0
M  V30 1276 H 118.409 -3.67977 -0.964218 0
M  V30 1277 H 119.721 -4.76482 -1.47534 0
M  V30 1278 H 118.875 -4.70503 -3.8303 0
M  V30 1279 H 117.614 -3.52739 -3.36789 0
M  V30 1280 H 116.619 -5.20086 -1.783 0
M  V30 1281 H 117.844 -6.39936 -2.27284 0
M  V30 1282 H 115.79 -5.11212 -4.11094 0
M  V30 1283 H 115.707 -6.71865 -3.46602 0
M  V30 1284 H 116.975 -6.30651 -4.58148 0
M  V30 1285 N 121.204 0.198386 -1.56346 0
M  V30 1286 C 122.114 1.2664 -1.97483 0
M  V30 1287 C 123.13 1.49989 -0.882002 0
M  V30 1288 O 124.306 1.62668 -1.18748 0
M  V30 1289 C 121.371 2.59141 -2.30319 0
M  V30 1290 C 120.432 2.43892 -3.53292 0
M  V30 1291 C 119.665 3.70074 -3.84553 0
M  V30 1292 O 119.888 4.74101 -3.1715 0
M  V30 1293 O 118.822 3.658 -4.7799 0
M  V30 1294 H 122.648 0.947304 -2.88548 0
M  V30 1295 H 120.233 0.403123 -1.43859 0
M  V30 1296 H 122.115 3.37352 -2.5253 0
M  V30 1297 H 120.79 2.90684 -1.42423 0
M  V30 1298 H 119.697 1.63803 -3.36332 0
M  V30 1299 H 121.03 2.17282 -4.41644 0
M  V30 1300 N 122.682 1.50554 0.465978 0
M  V30 1301 C 123.592 1.72585 1.58907 0
M  V30 1302 C 124.608 0.60911 1.6299 0
M  V30 1303 O 125.784 0.88804 1.80765 0
M  V30 1304 C 122.849 1.81995 2.95091 0
M  V30 1305 C 121.91 3.05751 3.01355 0
M  V30 1306 C 121.143 3.14702 4.31043 0
M  V30 1307 O 121.366 2.30313 5.21835 0
M  V30 1308 O 120.3 4.07468 4.43005 0
M  V30 1309 H 124.126 2.67799 1.43239 0
M  V30 1310 H 121.711 1.34711 0.646013 0
M  V30 1311 H 123.593 1.90335 3.75966 0
M  V30 1312 H 122.268 0.899659 3.10947 0
M  V30 1313 H 121.175 3.02908 2.19539 0
M  V30 1314 H 122.508 3.97375 2.90437 0
M  V30 1315 N 124.16 -0.719506 1.40217 0
M  V30 1316 C 125.09 -1.8465 1.42922 0
M  V30 1317 C 126.071 -1.67599 0.29062 0
M  V30 1318 O 127.256 -1.87688 0.498677 0
M  V30 1319 C 124.386 -3.22565 1.28722 0
M  V30 1320 C 123.34 -3.54281 2.40144 0
M  V30 1321 C 122.666 -4.91298 2.11023 0
M  V30 1322 C 123.966 -3.55676 3.82481 0
M  V30 1323 H 125.66 -1.82644 2.37237 0
M  V30 1324 H 123.206 -0.877305 1.1419 0
M  V30 1325 H 125.159 -4.01095 1.29232 0
M  V30 1326 H 123.883 -3.25137 0.308811 0
M  V30 1327 H 122.542 -2.78088 2.38877 0
M  V30 1328 H 122.19 -4.90468 1.11582 0
M  V30 1329 H 121.89 -5.13485 2.8567 0
M  V30 1330 H 123.414 -5.72166 2.13209 0
M  V30 1331 H 124.828 -4.24254 3.85592 0
M  V30 1332 H 123.225 -3.89388 4.56614 0
M  V30 1333 H 124.295 -2.55144 4.12346 0
M  V30 1334 N 125.638 -1.25649 -0.95132 0
M  V30 1335 C 126.863 -1.13443 -1.73624 0
M  V30 1336 C 127.288 0.307565 -1.85568 0
M  V30 1337 O 126.646 1.22282 -1.33854 0
M  V30 1338 C 126.694 -1.79723 -3.12621 0
M  V30 1339 O 125.798 -1.07912 -3.98031 0
M  V30 1340 H 125.139 -0.395872 -0.533086 0
M  V30 1341 H 127.669 -1.66276 -1.1922 0
M  V30 1342 H 127.679 -1.86141 -3.63064 0
M  V30 1343 H 126.354 -2.84633 -3.03244 0
M  V30 1344 H 124.931 -1.09398 -3.56492 0
M  V30 1345 N 127.117 1.15442 -1.07289 0
M  V30 1346 C 128.064 2.20161 -0.692653 0
M  V30 1347 C 129.034 1.63073 0.31564 0
M  V30 1348 O 130.219 1.89725 0.202235 0
M  V30 1349 C 127.359 3.44967 -0.0959509 0
M  V30 1350 C 126.472 4.16256 -1.15564 0
M  V30 1351 C 125.607 5.28609 -0.524011 0
M  V30 1352 C 124.646 5.91715 -1.56653 0
M  V30 1353 N 123.783 6.9554 -0.957531 0
M  V30 1354 H 128.623 2.52037 -1.59002 0
M  V30 1355 H 126.16 1.2378 -0.794798 0
M  V30 1356 H 128.118 4.16341 0.267628 0
M  V30 1357 H 126.748 3.1361 0.764772 0
M  V30 1358 H 125.8 3.43385 -1.6368 0
M  V30 1359 H 127.112 4.59268 -1.94613 0
M  V30 1360 H 126.266 6.06604 -0.108032 0
M  V30 1361 H 125.005 4.86787 0.29825 0
M  V30 1362 H 124.01 5.12433 -1.9923 0
M  V30 1363 H 125.235 6.35614 -2.39107 0
M  V30 1364 H 123.181 6.55814 -0.156162 0
M  V30 1365 H 123.098 7.36977 -1.68526 0
M  V30 1366 H 124.366 7.77435 -0.567032 0
M  V30 1367 N 128.595 0.856903 1.32268 0
M  V30 1368 C 129.844 0.457599 1.96441 0
M  V30 1369 C 130.157 -0.992426 1.68553 0
M  V30 1370 O 131.363 -1.49727 2.26482 0
M  V30 1371 C 129.819 0.767358 3.51624 0
M  V30 1372 C 129.427 2.23326 3.88367 0
M  V30 1373 C 131.171 0.435887 4.22256 0
M  V30 1374 C 129.078 2.48613 5.36606 0
M  V30 1375 H 128.008 0.167387 0.735185 0
M  V30 1376 H 130.659 1.048 1.5063 0
M  V30 1377 H 129.041 0.106367 3.95857 0
M  V30 1378 H 130.215 2.93623 3.55137 0
M  V30 1379 H 128.53 2.52948 3.30766 0
M  V30 1380 H 131.127 0.602202 5.31298 0
M  V30 1381 H 131.47 -0.622672 4.11617 0
M  V30 1382 H 132.003 1.05286 3.83614 0
M  V30 1383 H 128.742 3.53101 5.52268 0
M  V30 1384 H 128.262 1.82896 5.71235 0
M  V30 1385 H 129.941 2.32676 6.03714 0
M  V30 1386 N 130.073 -1.45103 0.615059 0
M  V30 1387 C 131.036 -2.29025 -0.0895485 0
M  V30 1388 C 132.036 -1.40174 -0.787906 0
M  V30 1389 O 133.226 -1.62217 -0.634933 0
M  V30 1390 C 130.358 -3.21376 -1.13711 0
M  V30 1391 H 131.551 -2.92807 0.648382 0
M  V30 1392 H 129.104 -1.51749 0.374444 0
M  V30 1393 H 129.839 -2.6241 -1.90556 0
M  V30 1394 H 129.624 -3.86834 -0.640475 0
M  V30 1395 H 131.114 -3.84459 -1.63036 0
M  V30 1396 N 131.551 -0.354651 -1.53558 0
M  V30 1397 C 132.514 0.484566 -2.24019 0
M  V30 1398 C 133.514 1.01861 -1.24422 0
M  V30 1399 O 134.704 0.906097 -1.4878 0
M  V30 1400 C 131.836 1.67615 -2.96847 0
M  V30 1401 H 133.029 -0.131843 -2.9961 0
M  V30 1402 H 130.582 -0.106165 -1.55939 0
M  V30 1403 H 131.317 2.33095 -2.25471 0
M  V30 1404 H 131.102 1.30029 -3.69912 0
M  V30 1405 H 132.592 2.27114 -3.50441 0
M  V30 1406 N 133.029 1.57378 -0.0835403 0
M  V30 1407 C 134.278 1.93106 0.582498 0
M  V30 1408 C 134.591 0.96651 1.70053 0
M  V30 1409 O 135.797 1.21705 2.42693 0
M  V30 1410 C 134.253 3.43076 1.08751 0
M  V30 1411 C 133.861 4.48 -0.000146404 0
M  V30 1412 C 135.605 3.87785 1.72694 0
M  V30 1413 C 133.512 5.89113 0.519568 0
M  V30 1414 H 132.442 0.720775 0.221358 0
M  V30 1415 H 135.093 1.82821 -0.157675 0
M  V30 1416 H 133.475 3.48474 1.88101 0
M  V30 1417 H 134.649 4.54233 -0.775199 0
M  V30 1418 H 132.964 4.1283 -0.54406 0
M  V30 1419 H 135.561 4.90604 2.1263 0
M  V30 1420 H 135.904 3.25796 2.59158 0
M  V30 1421 H 136.437 3.8504 0.999457 0
M  V30 1422 H 133.176 6.54775 -0.308186 0
M  V30 1423 H 132.696 5.86376 1.26188 0
M  V30 1424 H 134.375 6.39346 0.992237 0
M  V30 1425 N 134.507 -0.190092 1.56449 0
M  V30 1426 C 135.784 -0.935886 1.71757 0
M  V30 1427 C 136.164 -2.01173 0.639726 0
M  V30 1428 O 135.512 -2.25827 -0.348502 0
M  V30 1429 C 135.722 -1.51775 3.1427 0
M  V30 1430 C 137.07 -1.99794 3.74656 0
M  V30 1431 O 138.094 -1.61607 3.1743 0
M  V30 1432 O 136.953 -2.70079 4.751 0
M  V30 1433 H 134.047 -0.439229 0.700719 0
M  V30 1434 H 136.593 -0.179395 1.68749 0
M  V30 1435 H 135.365 -0.742505 3.84191 0
M  V30 1436 H 134.988 -2.33894 3.21527 0
M  V30 1437 N 135.985 -1.50799 -0.457987 0
M  V30 1438 C 137.21 -1.66496 -1.23668 0
M  V30 1439 C 137.635 -0.353288 -1.84752 0
M  V30 1440 O 136.993 0.684346 -1.67888 0
M  V30 1441 C 137.041 -2.76763 -2.3116 0
M  V30 1442 O 136.145 -2.38928 -3.36136 0
M  V30 1443 H 135.486 -0.555828 -0.363252 0
M  V30 1444 H 138.016 -1.9725 -0.543474 0
M  V30 1445 H 138.026 -3.00232 -2.76269 0
M  V30 1446 H 136.701 -3.71954 -1.86073 0
M  V30 1447 H 135.278 -2.25953 -2.96647 0
M  V30 1448 N 137.463 0.71206 -1.40597 0
M  V30 1449 C 138.393 1.83889 -1.43899 0
M  V30 1450 C 139.374 1.67442 -0.299504 0
M  V30 1451 O 140.559 1.87421 -0.508624 0
M  V30 1452 C 137.689 3.21877 -1.30431 0
M  V30 1453 C 136.643 3.53002 -2.42019 0
M  V30 1454 C 135.969 4.90172 -2.13626 0
M  V30 1455 C 137.269 3.53643 -3.84362 0
M  V30 1456 H 138.963 1.81383 -2.38203 0
M  V30 1457 H 136.509 0.871237 -1.14654 0
M  V30 1458 H 138.462 4.00404 -1.31357 0
M  V30 1459 H 137.186 3.24968 -0.326049 0
M  V30 1460 H 135.845 2.76818 -2.40349 0
M  V30 1461 H 135.493 4.89869 -1.14182 0
M  V30 1462 H 135.193 5.11962 -2.88389 0
M  V30 1463 H 136.717 5.71028 -2.1624 0
M  V30 1464 H 138.131 4.22203 -3.87837 0
M  V30 1465 H 136.528 3.86961 -4.58673 0
M  V30 1466 H 137.598 2.52954 -4.13693 0
M  V30 1467 N 138.941 1.26152 0.944643 0
M  V30 1468 C 139.889 1.07215 2.06417 0
M  V30 1469 C 140.883 9.2007e-05 1.694 0
M  V30 1470 O 142.089 0.1565 1.79318 0
M  V30 1471 H 138.464 0.329837 0.675805 0
M  V30 1472 H 140.435 2.02099 2.19541 0
M  V30 1473 C 139.184 0.718197 3.40202 0
M  V30 1474 H 138.507 1.53497 3.69159 0
M  V30 1475 H 139.947 0.625459 4.19361 0
M  V30 1476 C 138.406 -0.576435 3.31932 0
M  V30 1477 O 138.936 -1.61574 3.67773 0
M  V30 1478 N 137.142 -0.565781 2.85039 0
M  V30 1479 H 136.689 0.280367 2.5607 0
M  V30 1480 H 136.647 -1.43213 2.79888 0
M  V30 1481 N 140.419 -1.14872 1.07899 0
M  V30 1482 C 141.351 -2.19425 0.662231 0
M  V30 1483 C 142.364 -1.60231 -0.288079 0
M  V30 1484 O 143.553 -1.78336 -0.076534 0
M  V30 1485 C 140.653 -3.38867 -0.0470695 0
M  V30 1486 C 139.826 -4.27597 0.920831 0
M  V30 1487 C 138.885 -5.25616 0.247805 0
M  V30 1488 O 137.911 -5.62189 0.890599 0
M  V30 1489 N 139.113 -5.71746 -1.00435 0
M  V30 1490 H 141.878 -2.55797 1.56166 0
M  V30 1491 H 139.439 -1.30042 0.964404 0
M  V30 1492 H 141.431 -4.01497 -0.50813 0
M  V30 1493 H 140.001 -3.00864 -0.848523 0
M  V30 1494 H 139.221 -3.61982 1.56087 0
M  V30 1495 H 140.509 -4.83748 1.57688 0
M  V30 1496 H 139.907 -5.44153 -1.54642 0
M  V30 1497 H 138.464 -6.36389 -1.40899 0
M  V30 1498 N 141.898 -0.863906 -1.31812 0
M  V30 1499 C 143.128 -0.485406 -2.00817 0
M  V30 1500 C 143.536 0.925007 -1.65046 0
M  V30 1501 O 142.879 1.61653 -0.872574 0
M  V30 1502 C 142.941 -0.555589 -3.55181 0
M  V30 1503 C 142.605 -1.92654 -4.14407 0
M  V30 1504 C 143.602 -2.89324 -4.31958 0
M  V30 1505 C 141.287 -2.2262 -4.50273 0
M  V30 1506 C 143.281 -4.14108 -4.84555 0
M  V30 1507 C 140.968 -3.47654 -5.02573 0
M  V30 1508 C 141.966 -4.43214 -5.19664 0
M  V30 1509 O 141.654 -5.66033 -5.70843 0
M  V30 1510 H 141.386 -0.188224 -0.649267 0
M  V30 1511 H 143.94 -1.16514 -1.69156 0
M  V30 1512 H 142.17 0.181037 -3.86276 0
M  V30 1513 H 143.859 -0.19138 -4.05449 0
M  V30 1514 H 144.625 -2.6748 -4.04573 0
M  V30 1515 H 140.504 -1.4902 -4.3625 0
M  V30 1516 H 144.048 -4.88703 -4.9781 0
M  V30 1517 H 139.945 -3.69345 -5.29391 0
M  V30 1518 H 140.713 -5.6812 -5.89222 0
M  V30 1519 N 143.376 1.44774 -0.622745 0
M  V30 1520 C 144.604 2.06487 -0.130722 0
M  V30 1521 C 145.019 1.46476 1.19123 0
M  V30 1522 O 144.376 0.584502 1.72887 0
M  V30 1523 C 144.427 3.615 -0.000807207 0
M  V30 1524 O 144.148 4.19274 -1.27048 0
M  V30 1525 C 145.649 4.40229 0.520898 0
M  V30 1526 H 142.869 0.666704 -0.0758106 0
M  V30 1527 H 145.413 1.85779 -0.854774 0
M  V30 1528 H 143.568 3.81498 0.673643 0
M  V30 1529 H 143.982 5.12622 -1.1099 0
M  V30 1530 H 145.456 5.49144 0.560838 0
M  V30 1531 H 145.933 4.1108 1.54627 0
M  V30 1532 H 146.539 4.25131 -0.120018 0
M  V30 1533 N 144.854 0.36279 1.53368 0
M  V30 1534 C 146.27 0.0116182 1.59596 0
M  V30 1535 C 146.47 -1.47012 1.37803 0
M  V30 1536 O 145.526 -2.23136 1.18181 0
M  V30 1537 C 146.839 0.465052 2.97082 0
M  V30 1538 C 148.387 0.419033 3.10182 0
M  V30 1539 C 148.862 0.848235 4.50077 0
M  V30 1540 N 150.353 0.803183 4.56183 0
M  V30 1541 C 151.088 1.107 5.62613 0
M  V30 1542 N 150.584 1.47996 6.76808 0
M  V30 1543 N 152.377 1.02998 5.52583 0
M  V30 1544 H 144.528 1.32775 1.65785 0
M  V30 1545 H 146.791 0.542518 0.777417 0
M  V30 1546 H 146.497 1.49892 3.18159 0
M  V30 1547 H 146.371 -0.149786 3.76902 0
M  V30 1548 H 148.758 -0.605696 2.88817 0
M  V30 1549 H 148.839 1.06933 2.32377 0
M  V30 1550 H 148.483 1.87107 4.7218 0
M  V30 1551 H 148.413 0.175218 5.26308 0
M  V30 1552 H 150.904 0.52838 3.74188 0
M  V30 1553 H 151.217 1.69613 7.53957 0
M  V30 1554 H 149.562 1.51859 6.78206 0
M  V30 1555 H 152.753 0.737817 4.62249 0
M  V30 1556 H 152.926 1.2701 6.35431 0
M  V30 1557 N 146.332 -1.57332 0.0918853 0
M  V30 1558 C 147.58 -1.93853 -0.571446 0
M  V30 1559 C 147.901 -0.974212 -1.6892 0
M  V30 1560 O 147.171 -0.0257254 -1.95883 0
M  V30 1561 H 145.751 -0.715666 -0.214082 0
M  V30 1562 H 148.413 -1.94287 0.154464 0
M  V30 1563 H 147.509 -2.96191 -0.983729 0
M  V30 1564 N 147.81 0.181792 -1.56548 0
M  V30 1565 C 149.057 0.900097 -1.81396 0
M  V30 1566 C 149.385 1.82695 -0.667281 0
M  V30 1567 O 148.64 1.92614 0.346146 0
M  V30 1568 C 148.939 1.73728 -3.12335 0
M  V30 1569 C 148.605 0.960255 -4.40556 0
M  V30 1570 C 147.267 0.745766 -4.75386 0
M  V30 1571 C 149.619 0.414477 -5.19549 0
M  V30 1572 C 146.947 -0.0257694 -5.86694 0
M  V30 1573 C 149.299 -0.343916 -6.31664 0
M  V30 1574 C 147.963 -0.569301 -6.65068 0
M  V30 1575 H 147.233 0.329369 -0.663775 0
M  V30 1576 H 149.88 0.165647 -1.90782 0
M  V30 1577 H 148.185 2.54081 -2.98245 0
M  V30 1578 H 149.882 2.29591 -3.28769 0
M  V30 1579 H 146.472 1.13746 -4.13231 0
M  V30 1580 H 150.656 0.567554 -4.93044 0
M  V30 1581 H 145.912 -0.210233 -6.11038 0
M  V30 1582 H 150.086 -0.774133 -6.92084 0
M  V30 1583 H 147.713 -1.16903 -7.51158 0
M  V30 1584 N 149.288 1.51039 0.449983 0
M  V30 1585 C 150.536 1.62759 1.19808 0
M  V30 1586 C 150.857 0.339981 1.92013 0
M  V30 1587 O 150.127 -0.643606 1.85026 0
M  V30 1588 H 148.707 0.599811 0.445237 0
M  V30 1589 H 151.369 1.87914 0.517138 0
M  V30 1590 H 150.465 2.44911 1.93455 0
M  V30 1591 N 150.766 -0.704594 1.40972 0
M  V30 1592 C 151.716 -1.81051 1.38581 0
M  V30 1593 C 152.7 -1.58759 0.261585 0
M  V30 1594 O 153.892 -1.69745 0.501556 0
M  V30 1595 C 151.021 -3.19279 1.26157 0
M  V30 1596 C 150.107 -3.47296 2.43405 0
M  V30 1597 N 150.498 -3.46064 3.68881 0
M  V30 1598 C 148.796 -3.77804 2.37023 0
M  V30 1599 C 149.497 -3.72733 4.46592 0
M  V30 1600 N 148.473 -3.9203 3.76581 0
M  V30 1601 H 152.275 -1.78448 2.33525 0
M  V30 1602 H 149.789 -0.904198 1.349 0
M  V30 1603 H 151.786 -3.98488 1.22526 0
M  V30 1604 H 150.446 -3.231 0.321902 0
M  V30 1605 H 151.457 -3.26656 4.01891 0
M  V30 1606 H 148.134 -3.8905 1.51481 0
M  V30 1607 H 149.524 -3.77993 5.55492 0
M  V30 1608 N 152.244 -1.26651 -0.937939 0
M  V30 1609 C 153.655 -1.1125 -1.49934 0
M  V30 1610 C 154.006 0.306077 -1.93798 0
M  V30 1611 O 153.131 1.19792 -1.80219 0
M  V30 1612 C 153.726 -2.01339 -2.72485 0
M  V30 1613 C 152.285 -1.90074 -3.24883 0
M  V30 1614 C 151.432 -1.94498 -1.97651 0
M  V30 1615 H 154.383 -1.39693 -0.753091 0
M  V30 1616 H 154.404 -1.56319 -3.46907 0
M  V30 1617 H 153.916 -3.04577 -2.40529 0
M  V30 1618 H 152.017 -0.897827 -3.61621 0
M  V30 1619 H 152.13 -2.75778 -3.9177 0
M  V30 1620 H 150.494 -1.38591 -2.13693 0
M  V30 1621 H 151.277 -2.99372 -1.68022 0
M  V30 1622 N 153.722 1.14298 -1.08507 0
M  V30 1623 C 154.947 1.8976 -0.837001 0
M  V30 1624 C 155.372 1.78097 0.605228 0
M  V30 1625 O 154.73 1.12188 1.4242 0
M  V30 1626 C 154.778 3.37685 -1.26495 0
M  V30 1627 O 153.882 4.10281 -0.417514 0
M  V30 1628 H 153.223 0.590365 -0.303917 0
M  V30 1629 H 155.753 1.44672 -1.44676 0
M  V30 1630 H 155.763 3.88501 -1.24625 0
M  V30 1631 H 154.438 3.45492 -2.31534 0
M  V30 1632 H 153.015 3.69536 -0.499722 0
M  V30 1633 N 155.201 0.870884 1.31352 0
M  V30 1634 C 156.131 0.343096 2.30966 0
M  V30 1635 C 157.112 -0.566507 1.60389 0
M  V30 1636 O 158.297 -0.483336 1.88089 0
M  V30 1637 C 155.427 -0.455487 3.443 0
M  V30 1638 C 154.381 0.361103 4.26474 0
M  V30 1639 C 153.707 -0.563221 5.31725 0
M  V30 1640 C 155.007 1.59566 4.97329 0
M  V30 1641 H 156.701 1.17548 2.75359 0
M  V30 1642 H 154.247 0.566686 1.32381 0
M  V30 1643 H 156.2 -0.83525 4.13039 0
M  V30 1644 H 154.924 -1.32139 2.98675 0
M  V30 1645 H 153.583 0.722825 3.59403 0
M  V30 1646 H 153.231 -1.42643 4.82351 0
M  V30 1647 H 152.931 -0.0207409 5.87596 0
M  V30 1648 H 154.455 -0.939808 6.03324 0
M  V30 1649 H 155.869 1.28728 5.58661 0
M  V30 1650 H 154.266 2.07728 5.63 0
M  V30 1651 H 155.336 2.34798 4.24262 0
M  V30 1652 N 156.679 -1.44442 0.630414 0
M  V30 1653 C 157.925 -2.02351 0.134816 0
M  V30 1654 C 158.258 -1.4947 -1.23986 0
M  V30 1655 O 157.533 -0.678475 -1.82283 0
M  V30 1656 C 157.816 -3.59898 0.120707 0
M  V30 1657 C 157.669 -4.23063 1.52767 0
M  V30 1658 C 158.988 -4.36585 -0.555127 0
M  V30 1659 H 156.107 -0.73527 0.0504646 0
M  V30 1660 H 158.749 -1.72022 0.806751 0
M  V30 1661 H 156.899 -3.85868 -0.451477 0
M  V30 1662 H 158.571 -4.08202 2.14869 0
M  V30 1663 H 156.814 -3.80586 2.08175 0
M  V30 1664 H 157.485 -5.32071 1.46984 0
M  V30 1665 H 159.961 -4.16044 -0.0685429 0
M  V30 1666 H 158.837 -5.46294 -0.534185 0
M  V30 1667 H 159.098 -4.11138 -1.62535 0
M  V30 1668 N 158.157 -0.370918 -1.53173 0
M  V30 1669 C 159.104 0.473035 -2.259 0
M  V30 1670 C 160.074 1.07311 -1.26781 0
M  V30 1671 O 161.259 1.1046 -1.55574 0
M  V30 1672 C 158.399 1.60405 -3.05556 0
M  V30 1673 C 157.512 1.02863 -4.19575 0
M  V30 1674 C 156.647 2.12918 -4.86661 0
M  V30 1675 C 155.686 1.52869 -5.92704 0
M  V30 1676 N 154.823 2.56779 -6.53459 0
M  V30 1677 H 159.663 -0.153649 -2.97604 0
M  V30 1678 H 157.2 -0.0875946 -1.46839 0
M  V30 1679 H 159.158 2.27034 -3.50016 0
M  V30 1680 H 157.788 2.20131 -2.36097 0
M  V30 1681 H 156.84 0.252465 -3.79561 0
M  V30 1682 H 158.152 0.549642 -4.95762 0
M  V30 1683 H 157.306 2.87356 -5.34333 0
M  V30 1684 H 156.045 2.6417 -4.09958 0
M  V30 1685 H 155.05 0.769479 -5.44389 0
M  V30 1686 H 156.275 1.02435 -6.7133 0
M  V30 1687 H 154.221 3.07235 -5.79606 0
M  V30 1688 H 154.138 2.13583 -7.25202 0
M  V30 1689 H 155.406 3.30903 -7.05779 0
M  V30 1690 N 159.635 1.57281 -0.100228 0
M  V30 1691 C 160.598 2.13158 0.842398 0
M  V30 1692 C 161.598 1.06202 1.20738 0
M  V30 1693 O 162.788 1.32066 1.13597 0
M  V30 1694 C 159.92 2.65639 2.13655 0
M  V30 1695 H 161.113 2.97766 0.357114 0
M  V30 1696 H 158.666 1.5559 0.148823 0
M  V30 1697 H 159.401 1.84566 2.66657 0
M  V30 1698 H 159.186 3.43844 1.88451 0
M  V30 1699 H 160.676 3.08846 2.81077 0
M  V30 1700 N 161.113 -0.173488 1.56642 0
M  V30 1701 C 162.043 -1.2171 1.99271 0
M  V30 1702 C 163.024 -1.46289 0.867959 0
M  V30 1703 O 164.209 -1.5766 1.13388 0
M  V30 1704 C 161.339 -2.55651 2.35074 0
M  V30 1705 C 160.293 -2.45645 3.50489 0
M  V30 1706 C 159.619 -3.84056 3.72028 0
M  V30 1707 C 160.919 -1.96302 4.84007 0
M  V30 1708 H 162.613 -0.86275 2.867 0
M  V30 1709 H 160.159 -0.413571 1.37933 0
M  V30 1710 H 162.112 -3.2886 2.63494 0
M  V30 1711 H 160.836 -2.92869 1.44552 0
M  V30 1712 H 159.495 -1.7489 3.22194 0
M  V30 1713 H 159.143 -4.18664 2.788 0
M  V30 1714 H 158.843 -3.7823 4.49684 0
M  V30 1715 H 160.367 -4.58854 4.02846 0
M  V30 1716 H 161.781 -2.59284 5.11317 0
M  V30 1717 H 160.178 -2.01429 5.65284 0
M  V30 1718 H 161.248 -0.917226 4.76146 0
M  V30 1719 N 162.591 -1.51276 -0.441967 0
M  V30 1720 C 163.816 -1.67799 -1.21895 0
M  V30 1721 C 164.241 -0.372864 -1.84367 0
M  V30 1722 O 163.599 0.666501 -1.68604 0
M  V30 1723 C 163.647 -2.79199 -2.28211 0
M  V30 1724 O 162.751 -2.42479 -3.33583 0
M  V30 1725 H 162.092 -0.559649 -0.357336 0
M  V30 1726 H 164.622 -1.97815 -0.522522 0
M  V30 1727 H 164.632 -3.03146 -2.73069 0
M  V30 1728 H 163.307 -3.73906 -1.82118 0
M  V30 1729 H 161.884 -2.29087 -2.94234 0
M  V30 1730 N 164.069 0.697108 -1.41344 0
M  V30 1731 C 165.299 1.48377 -1.43763 0
M  V30 1732 C 165.707 1.89156 -0.0408726 0
M  V30 1733 O 165.05 1.57239 0.949812 0
M  V30 1734 C 165.112 2.7781 -2.2817 0
M  V30 1735 C 164.776 2.59244 -3.76353 0
M  V30 1736 C 165.773 2.25292 -4.68551 0
M  V30 1737 C 163.458 2.74933 -4.20378 0
M  V30 1738 C 165.452 2.07264 -6.02761 0
M  V30 1739 C 163.139 2.56521 -5.54653 0
M  V30 1740 C 164.137 2.22737 -6.4566 0
M  V30 1741 O 163.825 2.04485 -7.77458 0
M  V30 1742 H 163.557 0.463842 -0.491759 0
M  V30 1743 H 166.111 0.865934 -1.86255 0
M  V30 1744 H 164.341 3.41995 -1.8049 0
M  V30 1745 H 166.03 3.39608 -2.22309 0
M  V30 1746 H 166.796 2.12787 -4.35829 0
M  V30 1747 H 162.675 3.00213 -3.49848 0
M  V30 1748 H 166.219 1.80817 -6.73759 0
M  V30 1749 H 162.116 2.68616 -5.86955 0
M  V30 1750 H 162.884 2.1926 -7.88586 0
M  V30 1751 N 165.547 1.27147 0.931209 0
M  V30 1752 C 166.477 1.12081 2.04842 0
M  V30 1753 C 167.458 0.0232364 1.70084 0
M  V30 1754 O 168.643 0.197085 1.93197 0
M  V30 1755 C 165.773 0.76354 3.38803 0
M  V30 1756 C 164.727 1.81396 3.87659 0
M  V30 1757 C 164.053 1.31075 5.18385 0
M  V30 1758 C 165.353 3.21739 4.11438 0
M  V30 1759 H 167.047 2.05537 2.17703 0
M  V30 1760 H 164.593 0.989603 1.04608 0
M  V30 1761 H 166.546 0.644982 4.16435 0
M  V30 1762 H 165.27 -0.206727 3.25945 0
M  V30 1763 H 163.929 1.92136 3.12217 0
M  V30 1764 H 163.577 0.330037 5.01916 0
M  V30 1765 H 163.277 2.013 5.52044 0
M  V30 1766 H 164.801 1.20506 5.98591 0
M  V30 1767 H 166.215 3.14019 4.79651 0
M  V30 1768 H 164.612 3.89644 4.56397 0
M  V30 1769 H 165.682 3.67054 3.16859 0
M  V30 1770 N 167.025 -1.13721 1.09112 0
M  V30 1771 C 168.255 -1.88499 0.845671 0
M  V30 1772 C 168.663 -1.79218 -0.606432 0
M  V30 1773 O 168.006 -1.1544 -1.42896 0
M  V30 1774 C 168.068 -3.38954 1.19793 0
M  V30 1775 C 167.732 -3.72018 2.65428 0
M  V30 1776 C 168.729 -3.7153 3.63677 0
M  V30 1777 C 166.414 -4.01775 3.01467 0
M  V30 1778 C 168.408 -4.00336 4.95994 0
M  V30 1779 C 166.095 -4.30243 4.33975 0
M  V30 1780 C 167.093 -4.29508 5.31048 0
M  V30 1781 O 166.781 -4.5728 6.61173 0
M  V30 1782 H 166.513 -0.603702 0.304171 0
M  V30 1783 H 169.067 -1.44903 1.45576 0
M  V30 1784 H 167.297 -3.83039 0.530871 0
M  V30 1785 H 168.986 -3.95052 0.932146 0
M  V30 1786 H 169.752 -3.4862 3.37179 0
M  V30 1787 H 165.631 -4.01496 2.26544 0
M  V30 1788 H 169.175 -3.99678 5.71755 0
M  V30 1789 H 165.072 -4.52625 4.60219 0
M  V30 1790 H 165.84 -4.74964 6.66597 0
M  V30 1791 N 168.503 -0.877838 -1.30888 0
M  V30 1792 C 169.413 -0.343096 -2.32078 0
M  V30 1793 C 170.429 0.551022 -1.65045 0
M  V30 1794 O 171.605 0.445854 -1.96403 0
M  V30 1795 C 168.67 0.439905 -3.43898 0
M  V30 1796 C 167.731 -0.483111 -4.26573 0
M  V30 1797 C 166.964 0.262616 -5.33053 0
M  V30 1798 O 167.187 1.48967 -5.50604 0
M  V30 1799 O 166.121 -0.383593 -6.00676 0
M  V30 1800 H 169.947 -1.18203 -2.79753 0
M  V30 1801 H 167.532 -0.64145 -1.34929 0
M  V30 1802 H 169.414 0.883504 -4.12034 0
M  V30 1803 H 168.089 1.25526 -2.98371 0
M  V30 1804 H 166.996 -0.975374 -3.61161 0
M  V30 1805 H 168.329 -1.26427 -4.75686 0
M  V30 1806 N 169.982 1.44106 -0.638065 0
M  V30 1807 C 170.929 2.30715 0.062701 0
M  V30 1808 C 171.899 1.43882 0.829883 0
M  V30 1809 O 173.084 1.72775 0.809532 0
M  V30 1810 C 170.224 3.29258 1.03358 0
M  V30 1811 C 169.337 4.31192 0.26409 0
M  V30 1812 C 168.472 5.16825 1.22741 0
M  V30 1813 C 167.511 6.10462 0.447475 0
M  V30 1814 N 166.648 6.8877 1.36161 0
M  V30 1815 H 171.488 2.90096 -0.681781 0
M  V30 1816 H 169.025 1.42925 -0.347988 0
M  V30 1817 H 170.983 3.84886 1.60992 0
M  V30 1818 H 169.613 2.71562 1.74511 0
M  V30 1819 H 168.665 3.77981 -0.428295 0
M  V30 1820 H 169.977 4.97619 -0.343052 0
M  V30 1821 H 169.131 5.77004 1.87487 0
M  V30 1822 H 167.87 4.50488 1.86847 0
M  V30 1823 H 166.875 5.49386 -0.213433 0
M  V30 1824 H 168.1 6.78837 -0.188968 0
M  V30 1825 H 166.046 6.25096 1.98975 0
M  V30 1826 H 165.963 7.51663 0.808656 0
M  V30 1827 H 167.231 7.53467 1.99769 0
M  V30 1828 N 171.46 0.379036 1.52974 0
M  V30 1829 C 172.39 -0.452706 2.29069 0
M  V30 1830 C 173.371 -1.07237 1.32039 0
M  V30 1831 O 174.556 -1.08708 1.60923 0
M  V30 1832 C 171.686 -1.5856 3.08992 0
M  V30 1833 C 170.64 -1.0925 4.13822 0
M  V30 1834 C 169.966 -2.31668 4.81907 0
M  V30 1835 C 171.266 -0.167702 5.22031 0
M  V30 1836 H 172.96 0.182181 2.98845 0
M  V30 1837 H 170.506 0.0890592 1.43724 0
M  V30 1838 H 172.459 -2.1742 3.6098 0
M  V30 1839 H 171.183 -2.24792 2.36931 0
M  V30 1840 H 169.842 -0.526494 3.628 0
M  V30 1841 H 169.49 -2.96386 4.06404 0
M  V30 1842 H 169.19 -1.9934 5.52754 0
M  V30 1843 H 170.714 -2.91189 5.36695 0
M  V30 1844 H 172.128 -0.664186 5.6944 0
M  V30 1845 H 170.525 0.0653265 6.00064 0
M  V30 1846 H 171.595 0.786347 4.78482 0
M  V30 1847 N 172.938 -1.57226 0.108567 0
M  V30 1848 C 174.168 -1.9889 -0.559142 0
M  V30 1849 C 174.576 -0.986889 -1.61422 0
M  V30 1850 O 173.919 0.0298705 -1.83676 0
M  V30 1851 C 173.981 -3.36952 -1.25315 0
M  V30 1852 C 173.645 -4.55679 -0.347248 0
M  V30 1853 C 174.642 -5.18281 0.409996 0
M  V30 1854 C 172.327 -5.0162 -0.261367 0
M  V30 1855 C 174.321 -6.25203 1.24096 0
M  V30 1856 C 172.008 -6.08405 0.573238 0
M  V30 1857 C 173.006 -6.70063 1.32304 0
M  V30 1858 O 172.694 -7.74788 2.14381 0
M  V30 1859 H 172.426 -0.658343 -0.153492 0
M  V30 1860 H 174.98 -2.04532 0.188584 0
M  V30 1861 H 173.21 -3.28032 -2.04773 0
M  V30 1862 H 174.899 -3.62974 -1.81673 0
M  V30 1863 H 175.665 -4.8371 0.353457 0
M  V30 1864 H 171.544 -4.53381 -0.834656 0
M  V30 1865 H 175.088 -6.73259 1.82669 0
M  V30 1866 H 170.985 -6.42406 0.631208 0
M  V30 1867 H 171.753 -7.91837 2.07209 0
M  V30 1868 N 174.416 0.165178 -1.56732 0
M  V30 1869 C 175.348 1.22911 -1.93457 0
M  V30 1870 C 176.361 1.40152 -0.828333 0
M  V30 1871 O 177.55 1.40046 -1.10677 0
M  V30 1872 C 174.65 2.59686 -2.17753 0
M  V30 1873 C 173.823 2.63663 -3.48999 0
M  V30 1874 C 172.882 3.81845 -3.62051 0
M  V30 1875 O 171.908 3.67559 -4.34613 0
M  V30 1876 N 173.11 4.98557 -2.97357 0
M  V30 1877 H 175.875 0.917118 -2.85323 0
M  V30 1878 H 173.436 0.354895 -1.57962 0
M  V30 1879 H 175.428 3.37225 -2.23743 0
M  V30 1880 H 173.998 2.83251 -1.32242 0
M  V30 1881 H 173.218 1.72173 -3.54612 0
M  V30 1882 H 174.506 2.63336 -4.35352 0
M  V30 1883 H 173.904 5.13065 -2.38287 0
M  V30 1884 H 172.461 5.73936 -3.08934 0
M  V30 1885 N 175.894 1.51508 0.433938 0
M  V30 1886 C 176.841 1.73068 1.52696 0
M  V30 1887 C 177.811 0.572441 1.55924 0
M  V30 1888 O 178.996 0.807253 1.72882 0
M  V30 1889 C 176.136 1.86474 2.90381 0
M  V30 1890 C 175.249 3.14037 2.96656 0
M  V30 1891 C 174.384 3.18019 4.25485 0
M  V30 1892 C 173.423 4.39882 4.2564 0
M  V30 1893 N 172.56 4.41394 5.45999 0
M  V30 1894 H 177.4 2.66366 1.33615 0
M  V30 1895 H 174.937 1.32008 0.649018 0
M  V30 1896 H 176.895 1.92229 3.70275 0
M  V30 1897 H 175.525 0.965809 3.08013 0
M  V30 1898 H 174.577 3.17575 2.09404 0
M  V30 1899 H 175.889 4.0394 2.92633 0
M  V30 1900 H 175.043 3.22708 5.13755 0
M  V30 1901 H 173.782 2.2601 4.3217 0
M  V30 1902 H 172.787 4.35366 3.35763 0
M  V30 1903 H 174.012 5.33159 4.20617 0
M  V30 1904 H 171.958 3.52258 5.53399 0
M  V30 1905 H 171.875 5.25111 5.4387 0
M  V30 1906 H 173.143 4.50281 6.36292 0
M  V30 1907 N 177.372 -0.689602 1.41712 0
M  V30 1908 C 178.304 -1.815 1.39966 0
M  V30 1909 C 179.317 -1.59995 0.300917 0
M  V30 1910 O 180.506 -1.69387 0.563039 0
M  V30 1911 C 177.606 -3.18364 1.16179 0
M  V30 1912 C 176.779 -3.66847 2.38206 0
M  V30 1913 C 175.838 -4.82398 2.10186 0
M  V30 1914 O 174.864 -4.93706 2.83272 0
M  V30 1915 N 176.066 -5.70064 1.0958 0
M  V30 1916 H 178.831 -1.83488 2.36965 0
M  V30 1917 H 176.392 -0.872149 1.36401 0
M  V30 1918 H 178.384 -3.93301 0.953756 0
M  V30 1919 H 176.954 -3.11365 0.27756 0
M  V30 1920 H 176.174 -2.82751 2.74673 0
M  V30 1921 H 177.462 -3.95978 3.19498 0
M  V30 1922 H 176.86 -5.63565 0.491019 0
M  V30 1923 H 175.417 -6.44874 0.947656 0
M  V30 1924 N 178.85 -1.27639 -0.924453 0
M  V30 1925 C 180.099 -1.13549 -1.66702 0
M  V30 1926 C 180.412 0.317487 -1.93006 0
M  V30 1927 O 181.618 0.579333 -2.65247 0
M  V30 1928 C 180.074 -1.98426 -3.00259 0
M  V30 1929 C 179.682 -3.484 -2.81641 0
M  V30 1930 C 181.426 -1.92993 -3.78092 0
M  V30 1931 C 179.333 -4.25464 -4.10773 0
M  V30 1932 H 178.263 -0.421351 -0.625283 0
M  V30 1933 H 180.914 -1.52085 -1.02676 0
M  V30 1934 H 179.296 -1.52736 -3.6536 0
M  V30 1935 H 180.47 -4.01973 -2.25287 0
M  V30 1936 H 178.785 -3.55245 -2.17232 0
M  V30 1937 H 181.382 -2.47844 -4.7379 0
M  V30 1938 H 181.725 -0.904281 -4.0636 0
M  V30 1939 H 182.258 -2.36595 -3.19793 0
M  V30 1940 H 178.997 -5.28566 -3.87683 0
M  V30 1941 H 178.517 -3.76667 -4.66779 0
M  V30 1942 H 180.196 -4.34812 -4.79111 0
M  V30 1943 N 180.328 1.1314 -1.09713 0
M  V30 1944 C 181.605 1.80762 -0.747302 0
M  V30 1945 C 181.985 1.96663 0.767265 0
M  V30 1946 O 181.333 1.53706 1.69076 0
M  V30 1947 C 181.543 3.15606 -1.48975 0
M  V30 1948 C 182.891 3.90914 -1.65746 0
M  V30 1949 O 183.915 3.25239 -1.45251 0
M  V30 1950 O 182.774 5.08718 -1.9967 0
M  V30 1951 H 179.868 0.782103 -0.268782 0
M  V30 1952 H 182.414 1.20041 -1.19951 0
M  V30 1953 H 181.186 2.99278 -2.52088 0
M  V30 1954 H 180.809 3.84029 -1.02991 0
M  V30 1955 N 181.806 0.884767 1.30421 0
M  V30 1956 C 183.031 0.517288 2.00845 0
M  V30 1957 C 183.456 -0.886779 1.65885 0
M  V30 1958 O 182.814 -1.58768 0.875354 0
M  V30 1959 C 182.862 0.698994 3.5376 0
M  V30 1960 O 181.966 -0.255208 4.1161 0
M  V30 1961 H 181.307 0.203872 0.631927 0
M  V30 1962 H 183.837 1.19225 1.66272 0
M  V30 1963 H 183.847 0.597912 4.03595 0
M  V30 1964 H 182.522 1.72271 3.78544 0
M  V30 1965 H 181.099 -0.10784 3.72744 0
M  V30 1966 N 183.284 -1.43765 0.645699 0
M  V30 1967 C 184.232 -2.32516 -0.0624849 0
M  V30 1968 C 185.226 -1.48183 -0.820855 0
M  V30 1969 O 186.432 -1.64439 -0.732106 0
M  V30 1970 H 182.807 -0.750989 -0.0389864 0
M  V30 1971 H 184.778 -2.89979 0.703892 0
M  V30 1972 C 183.527 -3.32389 -1.02044 0
M  V30 1973 H 182.85 -3.97301 -0.446312 0
M  V30 1974 H 184.29 -3.97138 -1.48517 0
M  V30 1975 C 182.749 -2.62416 -2.11281 0
M  V30 1976 O 183.279 -2.434 -3.19561 0
M  V30 1977 N 181.485 -2.21913 -1.87624 0
M  V30 1978 H 181.032 -2.37578 -0.995703 0
M  V30 1979 H 180.99 -1.75424 -2.6091 0
M  V30 1980 N 184.763 -0.387143 -1.52771 0
M  V30 1981 C 185.71 0.449048 -2.26389 0
M  V30 1982 C 186.68 1.05961 -1.27912 0
M  V30 1983 O 187.865 1.08804 -1.56737 0
M  V30 1984 C 185.005 1.57155 -3.0724 0
M  V30 1985 C 184.118 0.984066 -4.20643 0
M  V30 1986 C 183.253 2.07745 -4.88892 0
M  V30 1987 C 182.292 1.46574 -5.94292 0
M  V30 1988 N 181.429 2.49834 -6.56146 0
M  V30 1989 H 186.269 -0.185205 -2.97424 0
M  V30 1990 H 183.806 -0.103164 -1.46738 0
M  V30 1991 H 185.764 2.23309 -3.52405 0
M  V30 1992 H 184.394 2.17615 -2.38419 0
M  V30 1993 H 183.446 0.212193 -3.79808 0
M  V30 1994 H 184.758 0.497029 -4.96318 0
M  V30 1995 H 183.912 2.81673 -5.3735 0
M  V30 1996 H 182.651 2.59807 -4.12737 0
M  V30 1997 H 181.656 0.711696 -5.45174 0
M  V30 1998 H 182.881 0.953088 -6.72379 0
M  V30 1999 H 180.827 3.0107 -5.82832 0
M  V30 2000 H 180.744 2.05879 -7.27427 0
M  V30 2001 H 182.012 3.23399 -7.09249 0
M  V30 2002 N 186.241 1.57166 -0.116904 0
M  V30 2003 C 187.151 2.18745 0.847812 0
M  V30 2004 C 188.167 1.163 1.29423 0
M  V30 2005 O 189.343 1.48761 1.35765 0
M  V30 2006 C 186.408 2.77307 2.0809 0
M  V30 2007 C 185.469 3.94781 1.68661 0
M  V30 2008 C 184.702 4.50541 2.86091 0
M  V30 2009 O 184.925 4.05202 4.01456 0
M  V30 2010 O 183.859 5.41256 2.63298 0
M  V30 2011 H 187.685 3.01632 0.353778 0
M  V30 2012 H 185.27 1.49005 0.108599 0
M  V30 2013 H 187.152 3.14647 2.80313 0
M  V30 2014 H 185.827 1.97452 2.56504 0
M  V30 2015 H 184.734 3.62214 0.935518 0
M  V30 2016 H 186.067 4.76065 1.24991 0
M  V30 2017 N 187.719 -0.156864 1.56817 0
M  V30 2018 C 188.968 -0.869504 1.81996 0
M  V30 2019 C 189.281 -1.82777 0.696545 0
M  V30 2020 O 190.487 -2.58384 0.833658 0
M  V30 2021 C 188.943 -1.59679 3.22538 0
M  V30 2022 C 188.551 -0.681431 4.42787 0
M  V30 2023 C 190.295 -2.2968 3.56997 0
M  V30 2024 C 188.202 -1.40978 5.74351 0
M  V30 2025 H 187.132 -0.328438 0.678708 0
M  V30 2026 H 189.783 -0.1223 1.83092 0
M  V30 2027 H 188.165 -2.38927 3.158 0
M  V30 2028 H 189.339 0.0751166 4.60739 0
M  V30 2029 H 187.654 -0.0903431 4.16302 0
M  V30 2030 H 190.251 -2.84794 4.52544 0
M  V30 2031 H 190.594 -3.05707 2.82576 0
M  V30 2032 H 191.127 -1.57361 3.65352 0
M  V30 2033 H 187.866 -0.691561 6.51842 0
M  V30 2034 H 187.386 -2.13929 5.60352 0
M  V30 2035 H 189.065 -1.95337 6.16808 0
M  V30 2036 N 189.197 -1.51736 -0.425897 0
M  V30 2037 C 190.127 -1.76827 -1.52494 0
M  V30 2038 C 191.108 -0.618524 -1.58456 0
M  V30 2039 O 192.293 -0.862416 -1.74 0
M  V30 2040 C 189.423 -1.90374 -2.90474 0
M  V30 2041 C 188.377 -3.0588 -2.99369 0
M  V30 2042 C 187.703 -3.04625 -4.3944 0
M  V30 2043 C 189.003 -4.45644 -2.72394 0
M  V30 2044 H 190.697 -2.68855 -1.31748 0
M  V30 2045 H 188.243 -1.29372 -0.632362 0
M  V30 2046 H 190.196 -2.0651 -3.6733 0
M  V30 2047 H 188.92 -0.95004 -3.12477 0
M  V30 2048 H 187.579 -2.89467 -2.24954 0
M  V30 2049 H 187.227 -2.0701 -4.58428 0
M  V30 2050 H 186.927 -3.82195 -4.46319 0
M  V30 2051 H 188.451 -3.22869 -5.18255 0
M  V30 2052 H 189.865 -4.62348 -3.38979 0
M  V30 2053 H 188.262 -5.25006 -2.9067 0
M  V30 2054 H 189.332 -4.54893 -1.67929 0
M  V30 2055 N 190.675 0.682077 -1.42076 0
M  V30 2056 C 191.921 1.44428 -1.42367 0
M  V30 2057 C 192.254 1.94164 -0.0373056 0
M  V30 2058 O 191.529 1.70429 0.937239 0
M  V30 2059 C 191.812 2.64654 -2.44194 0
M  V30 2060 C 191.665 2.20596 -3.91991 0
M  V30 2061 C 192.984 3.66865 -2.431 0
M  V30 2062 H 190.103 0.523834 -0.518428 0
M  V30 2063 H 192.745 0.77576 -1.73442 0
M  V30 2064 H 190.895 3.2169 -2.17826 0
M  V30 2065 H 192.567 1.68783 -4.29313 0
M  V30 2066 H 190.81 1.52242 -4.06208 0
M  V30 2067 H 191.481 3.06921 -4.58807 0
M  V30 2068 H 193.957 3.19531 -2.66532 0
M  V30 2069 H 192.833 4.48577 -3.16339 0
M  V30 2070 H 193.094 4.17493 -1.45437 0
M  V30 2071 N 192.153 1.28127 0.917671 0
M  V30 2072 C 193.381 1.17892 1.70026 0
M  V30 2073 C 193.796 -0.262958 1.8696 0
M  V30 2074 O 193.153 -1.17811 1.3938 0
M  V30 2075 C 193.204 1.86872 3.09453 0
M  V30 2076 O 192.925 3.25428 2.93306 0
M  V30 2077 C 194.426 1.8289 4.03815 0
M  V30 2078 H 191.646 0.40942 0.531617 0
M  V30 2079 H 194.19 1.69181 1.14883 0
M  V30 2080 H 192.345 1.39464 3.61426 0
M  V30 2081 H 192.759 3.59918 3.81523 0
M  V30 2082 H 194.233 2.35751 4.99125 0
M  V30 2083 H 194.71 0.800412 4.31845 0
M  V30 2084 H 195.316 2.29959 3.57769 0
M  V30 2085 N 193.631 -1.12557 1.10312 0
M  V30 2086 C 194.877 -1.84311 0.846011 0
M  V30 2087 C 195.21 -1.83805 -0.626859 0
M  V30 2088 O 194.485 -1.28268 -1.46211 0
M  V30 2089 C 194.768 -3.32048 1.39341 0
M  V30 2090 C 194.621 -3.41016 2.93305 0
M  V30 2091 C 195.94 -4.27764 1.03468 0
M  V30 2092 H 193.059 -0.669192 0.30879 0
M  V30 2093 H 195.701 -1.32057 1.36605 0
M  V30 2094 H 193.851 -3.76678 0.951087 0
M  V30 2095 H 195.523 -3.05031 3.46055 0
M  V30 2096 H 193.766 -2.81603 3.29973 0
M  V30 2097 H 194.437 -4.44948 3.26689 0
M  V30 2098 H 196.913 -3.91253 1.41633 0
M  V30 2099 H 195.789 -5.29549 1.44463 0
M  V30 2100 H 196.05 -4.42064 -0.0560404 0
M  V30 2101 N 195.109 -0.891671 -1.2995 0
M  V30 2102 C 196.357 -0.512486 -1.95494 0
M  V30 2103 C 196.678 0.942776 -1.70695 0
M  V30 2104 O 195.948 1.66374 -1.03424 0
M  V30 2105 H 194.528 -0.186533 -0.723336 0
M  V30 2106 H 197.19 -1.13621 -1.58355 0
M  V30 2107 H 196.286 -0.688342 -3.04415 0
M  V30 2108 N 196.587 1.43421 -0.653314 0
M  V30 2109 C 197.55 2.29182 0.0287951 0
M  V30 2110 C 198.55 1.42213 0.750465 0
M  V30 2111 O 199.74 1.63843 0.591701 0
M  V30 2112 C 196.872 3.24278 1.05151 0
M  V30 2113 H 198.065 2.90985 -0.725786 0
M  V30 2114 H 195.618 1.50702 -0.414545 0
M  V30 2115 H 196.353 2.6737 1.83532 0
M  V30 2116 H 196.138 3.88396 0.537687 0
M  V30 2117 H 197.628 3.88647 1.52786 0
M  V30 2118 N 198.065 0.39524 1.52563 0
M  V30 2119 C 199.295 -0.184675 2.05773 0
M  V30 2120 C 199.703 -1.40571 1.26635 0
M  V30 2121 O 199.046 -1.81105 0.30769 0
M  V30 2122 C 199.108 -0.613551 3.54226 0
M  V30 2123 C 198.772 0.49484 4.54313 0
M  V30 2124 C 199.769 1.3541 5.01956 0
M  V30 2125 C 197.454 0.663565 4.97898 0
M  V30 2126 C 199.448 2.36716 5.91814 0
M  V30 2127 C 197.135 1.67996 5.87555 0
M  V30 2128 C 198.133 2.53017 6.34406 0
M  V30 2129 O 197.821 3.52917 7.22291 0
M  V30 2130 H 197.553 -0.030077 0.675331 0
M  V30 2131 H 200.107 0.560708 1.97599 0
M  V30 2132 H 198.337 -1.411 3.60038 0
M  V30 2133 H 200.026 -1.11981 3.90148 0
M  V30 2134 H 200.792 1.23509 4.6901 0
M  V30 2135 H 196.671 0.0114913 4.60999 0
M  V30 2136 H 200.215 3.03113 6.28306 0
M  V30 2137 H 196.112 1.79933 6.19915 0
M  V30 2138 H 196.88 3.48996 7.40367 0
M  V30 2139 N 199.544 -1.57102 0.125237 0
M  V30 2140 C 200.792 -1.95021 -0.530198 0
M  V30 2141 C 201.113 -1.00982 -1.66816 0
M  V30 2142 O 200.383 -0.0672693 -1.95784 0
M  V30 2143 H 198.963 -0.720046 -0.198853 0
M  V30 2144 H 201.625 -1.93916 0.19564 0
M  V30 2145 H 200.721 -2.98211 -0.920681 0
M  V30 2146 N 201.022 0.148545 -1.56898 0
M  V30 2147 C 202.247 0.880385 -1.87787 0
M  V30 2148 C 202.672 1.74018 -0.714093 0
M  V30 2149 O 202.03 1.78153 0.336343 0
M  V30 2150 C 202.078 1.71422 -3.17249 0
M  V30 2151 O 201.182 2.8183 -3.01074 0
M  V30 2152 H 200.523 0.245301 -0.617028 0
M  V30 2153 H 203.053 0.139826 -2.04122 0
M  V30 2154 H 203.063 2.10954 -3.49231 0
M  V30 2155 H 201.738 1.08284 -4.01556 0
M  V30 2156 H 200.315 2.45715 -2.80497 0
M  V30 2157 N 202.5 1.5196 0.417844 0
M  V30 2158 C 203.43 1.77634 1.51554 0
M  V30 2159 C 204.411 0.626918 1.58126 0
M  V30 2160 O 205.596 0.871632 1.7354 0
M  V30 2161 C 202.726 1.91911 2.8946 0
M  V30 2162 C 201.68 3.07463 2.97743 0
M  V30 2163 C 201.006 3.06951 4.37819 0
M  V30 2164 C 202.306 4.47082 2.70027 0
M  V30 2165 H 204 2.6955 1.3032 0
M  V30 2166 H 201.546 1.29706 0.625492 0
M  V30 2167 H 203.499 2.08455 3.6623 0
M  V30 2168 H 202.223 0.966598 3.11969 0
M  V30 2169 H 200.882 2.90656 2.23416 0
M  V30 2170 H 200.53 2.09438 4.57323 0
M  V30 2171 H 200.23 3.84556 4.44286 0
M  V30 2172 H 201.754 3.25613 5.16535 0
M  V30 2173 H 203.168 4.6414 3.36522 0
M  V30 2174 H 201.565 5.2654 2.87881 0
M  V30 2175 H 202.635 4.55777 1.65514 0
M  V30 2176 N 203.978 -0.674533 1.42435 0
M  V30 2177 C 205.225 -1.43459 1.42919 0
M  V30 2178 C 205.553 -1.94446 0.0457312 0
M  V30 2179 O 204.808 -1.7132 -0.94593 0
M  V30 2180 C 205.107 -2.64767 2.40069 0
M  V30 2181 C 204.773 -2.3232 3.86443 0
M  V30 2182 C 203.435 -2.23182 4.26314 0
M  V30 2183 C 205.787 -2.05977 4.78773 0
M  V30 2184 C 203.115 -1.85827 5.56494 0
M  V30 2185 C 205.467 -1.70125 6.09295 0
M  V30 2186 C 204.131 -1.59498 6.48164 0
M  V30 2187 H 203.401 -0.524952 0.522978 0
M  V30 2188 H 206.048 -0.769097 1.75377 0
M  V30 2189 H 204.353 -3.36349 2.00939 0
M  V30 2190 H 206.05 -3.22949 2.37707 0
M  V30 2191 H 202.64 -2.40334 3.54877 0
M  V30 2192 H 206.824 -2.11969 4.48757 0
M  V30 2193 H 202.08 -1.76168 5.8547 0
M  V30 2194 H 206.254 -1.48767 6.80324 0
M  V30 2195 H 203.881 -1.30322 7.48946 0
M  V30 2196 N 205.456 -1.28612 -0.910864 0
M  V30 2197 C 206.404 -1.1265 -2.03501 0
M  V30 2198 C 207.398 -0.0450054 -1.6934 0
M  V30 2199 O 208.604 -0.203988 -1.7884 0
M  V30 2200 H 204.979 -0.347639 -0.666822 0
M  V30 2201 H 206.95 -2.07849 -2.14106 0
M  V30 2202 C 205.699 -0.808143 -3.38178 0
M  V30 2203 H 205.022 -1.63231 -3.6496 0
M  V30 2204 H 206.462 -0.736426 -4.17556 0
M  V30 2205 C 204.921 0.488226 -3.33344 0
M  V30 2206 O 205.451 1.51766 -3.71927 0
M  V30 2207 N 203.657 0.490009 -2.86439 0
M  V30 2208 H 203.204 -0.348161 -2.55236 0
M  V30 2209 H 203.162 1.35741 -2.83587 0
M  V30 2210 N 206.934 1.1197 -1.10907 0
M  V30 2211 C 208.162 1.87402 -0.876824 0
M  V30 2212 C 208.577 1.79894 0.573025 0
M  V30 2213 O 207.934 1.17629 1.39534 0
M  V30 2214 C 207.985 3.36428 -1.32282 0
M  V30 2215 O 207.706 3.43765 -2.71582 0
M  V30 2216 C 209.207 4.28783 -1.12518 0
M  V30 2217 H 206.427 0.592793 -0.314384 0
M  V30 2218 H 208.971 1.41649 -1.47499 0
M  V30 2219 H 207.126 3.79706 -0.768229 0
M  V30 2220 H 207.54 4.3652 -2.90776 0
M  V30 2221 H 209.014 5.31613 -1.48633 0
M  V30 2222 H 209.491 4.39153 -0.0642394 0
M  V30 2223 H 210.097 3.91291 -1.66648 0
M  V30 2224 N 208.412 0.89855 1.29475 0
M  V30 2225 C 209.661 0.519863 1.94885 0
M  V30 2226 C 209.974 -0.9383 1.71625 0
M  V30 2227 O 211.18 -1.42445 2.31131 0
M  V30 2228 C 209.636 0.878836 3.49005 0
M  V30 2229 C 209.244 2.35569 3.81066 0
M  V30 2230 C 210.988 0.570004 4.20656 0
M  V30 2231 C 208.895 2.65558 5.28425 0
M  V30 2232 H 207.825 0.190692 0.729488 0
M  V30 2233 H 210.476 1.09539 1.47219 0
M  V30 2234 H 208.858 0.232253 3.95318 0
M  V30 2235 H 210.032 3.04773 3.45616 0
M  V30 2236 H 208.347 2.63343 3.22552 0
M  V30 2237 H 210.944 0.770925 5.29113 0
M  V30 2238 H 211.287 -0.491404 4.1339 0
M  V30 2239 H 211.82 1.17438 3.8007 0
M  V30 2240 H 208.559 3.70493 5.40754 0
M  V30 2241 H 208.079 2.00977 5.65127 0
M  V30 2242 H 209.758 2.51765 5.96006 0
M  V30 2243 N 209.89 -1.43072 0.660911 0
M  V30 2244 C 210.822 -2.29108 -0.0647641 0
M  V30 2245 C 211.835 -1.42928 -0.779448 0
M  V30 2246 O 213.024 -1.66788 -0.635921 0
M  V30 2247 C 210.124 -3.20032 -1.11503 0
M  V30 2248 C 209.297 -4.34792 -0.476955 0
M  V30 2249 C 208.356 -5.06534 -1.42513 0
M  V30 2250 O 207.382 -5.61538 -0.930771 0
M  V30 2251 N 208.584 -5.1075 -2.75889 0
M  V30 2252 H 211.349 -2.92029 0.673731 0
M  V30 2253 H 208.91 -1.53846 0.50427 0
M  V30 2254 H 210.902 -3.64892 -1.75032 0
M  V30 2255 H 209.472 -2.58658 -1.75541 0
M  V30 2256 H 208.692 -3.92752 0.337572 0
M  V30 2257 H 209.98 -5.0879 -0.0318525 0
M  V30 2258 H 209.378 -4.67447 -3.18606 0
M  V30 2259 H 207.935 -5.59302 -3.347 0
M  V30 2260 N 211.368 -0.403325 -1.52352 0
M  V30 2261 C 212.331 0.413051 -2.25447 0
M  V30 2262 C 213.331 0.978513 -1.276 0
M  V30 2263 O 214.521 0.858305 -1.51587 0
M  V30 2264 C 211.653 1.58087 -3.02029 0
M  V30 2265 H 212.846 -0.227094 -2.99039 0
M  V30 2266 H 210.399 -0.155722 -1.55522 0
M  V30 2267 H 211.134 2.25804 -2.32772 0
M  V30 2268 H 210.919 1.18195 -3.73861 0
M  V30 2269 H 212.409 2.1585 -3.57489 0
M  V30 2270 N 212.846 1.57033 -0.133567 0
M  V30 2271 C 213.776 2.1909 0.807567 0
M  V30 2272 C 214.757 1.13517 1.26681 0
M  V30 2273 O 215.942 1.41809 1.32679 0
M  V30 2274 C 213.072 2.80188 2.05212 0
M  V30 2275 C 212.026 3.91471 1.73015 0
M  V30 2276 C 211.352 4.39443 3.04622 0
M  V30 2277 C 212.652 5.12886 0.987168 0
M  V30 2278 H 214.346 2.97988 0.290403 0
M  V30 2279 H 211.892 1.43335 0.138239 0
M  V30 2280 H 213.845 3.22264 2.71521 0
M  V30 2281 H 212.569 1.98601 2.59278 0
M  V30 2282 H 211.228 3.49993 1.0909 0
M  V30 2283 H 210.876 3.54695 3.56651 0
M  V30 2284 H 210.576 5.14495 2.83847 0
M  V30 2285 H 212.1 4.8418 3.72024 0
M  V30 2286 H 213.514 5.51891 1.55208 0
M  V30 2287 H 211.911 5.93615 0.87985 0
M  V30 2288 H 212.981 4.84894 -0.0235286 0
M  V30 2289 N 214.325 -0.140222 1.56975 0
M  V30 2290 C 215.574 -0.850152 1.82908 0
M  V30 2291 C 215.887 -1.82028 0.715892 0
M  V30 2292 O 217.093 -2.57485 0.861016 0
M  V30 2293 C 215.549 -1.5625 3.24213 0
M  V30 2294 C 215.157 -0.63443 4.43485 0
M  V30 2295 C 216.901 -2.25881 3.59413 0
M  V30 2296 C 214.808 -1.34879 5.75814 0
M  V30 2297 H 213.738 -0.321221 0.682153 0
M  V30 2298 H 216.389 -0.102874 1.83211 0
M  V30 2299 H 214.771 -2.35565 3.18316 0
M  V30 2300 H 215.945 0.12398 4.60633 0
M  V30 2301 H 214.26 -0.0461836 4.16374 0
M  V30 2302 H 216.857 -2.79978 4.5554 0
M  V30 2303 H 217.2 -3.02693 2.85802 0
M  V30 2304 H 217.733 -1.53477 3.67001 0
M  V30 2305 H 214.472 -0.622385 6.52539 0
M  V30 2306 H 213.992 -2.07974 5.6259 0
M  V30 2307 H 215.671 -1.88784 6.18845 0
M  V30 2308 N 215.803 -1.52179 -0.40978 0
M  V30 2309 C 217.08 -1.56769 -1.16974 0
M  V30 2310 C 217.46 -0.348322 -2.08206 0
M  V30 2311 O 216.808 0.664862 -2.18613 0
M  V30 2312 C 217.018 -2.89603 -1.9476 0
M  V30 2313 C 218.366 -3.42579 -2.50849 0
M  V30 2314 O 219.39 -2.91338 -2.04941 0
M  V30 2315 O 218.249 -4.32054 -3.34652 0
M  V30 2316 H 215.343 -0.631439 -0.534054 0
M  V30 2317 H 217.889 -1.64507 -0.416613 0
M  V30 2318 H 216.661 -3.698 -1.27921 0
M  V30 2319 H 216.284 -2.85155 -2.77079 0
M  V30 2320 N 217.281 0.66697 -1.42791 0
M  V30 2321 C 218.191 1.80962 -1.49299 0
M  V30 2322 C 219.207 1.69775 -0.381108 0
M  V30 2323 O 220.383 1.91188 -0.633188 0
M  V30 2324 C 217.448 3.17156 -1.40045 0
M  V30 2325 C 216.509 3.40242 -2.6179 0
M  V30 2326 C 215.742 4.69939 -2.52969 0
M  V30 2327 O 215.965 5.48372 -1.56985 0
M  V30 2328 O 214.899 4.94441 -3.43237 0
M  V30 2329 H 218.725 1.78427 -2.45759 0
M  V30 2330 H 216.31 0.823713 -1.24641 0
M  V30 2331 H 218.192 3.98413 -1.37276 0
M  V30 2332 H 216.867 3.20312 -0.467138 0
M  V30 2333 H 215.774 2.58802 -2.70134 0
M  V30 2334 H 217.107 3.41923 -3.54047 0
M  V30 2335 N 218.759 1.29093 0.90403 0
M  V30 2336 C 220.007 1.16583 1.65085 0
M  V30 2337 C 220.328 -0.283933 1.92922 0
M  V30 2338 O 219.598 -1.19509 1.55224 0
M  V30 2339 H 218.178 0.428467 0.611903 0
M  V30 2340 H 220.84 1.61959 1.08422 0
M  V30 2341 H 219.936 1.71266 2.6091 0
M  V30 2342 N 220.237 -1.11381 1.11499 0
M  V30 2343 C 221.514 -1.7955 0.775965 0
M  V30 2344 C 221.894 -1.97859 -0.73588 0
M  V30 2345 O 221.242 -1.56376 -1.66609 0
M  V30 2346 C 221.452 -3.13196 1.53977 0
M  V30 2347 C 222.8 -3.88227 1.71944 0
M  V30 2348 O 223.824 -3.22887 1.50407 0
M  V30 2349 O 222.683 -5.05477 2.07738 0
M  V30 2350 H 219.777 -0.777728 0.28119 0
M  V30 2351 H 222.323 -1.18118 1.21845 0
M  V30 2352 H 221.095 -2.95229 2.56818 0
M  V30 2353 H 220.718 -3.82342 1.09088 0
M  V30 2354 N 221.715 -0.905404 -1.28997 0
M  V30 2355 C 222.625 -0.392246 -2.31298 0
M  V30 2356 C 223.641 0.515889 -1.66176 0
M  V30 2357 O 224.817 0.404093 -1.97304 0
M  V30 2358 C 221.882 0.36686 -3.44754 0
M  V30 2359 C 220.943 -0.573485 -4.25452 0
M  V30 2360 C 220.176 0.149488 -5.33491 0
M  V30 2361 O 220.399 1.37255 -5.5364 0
M  V30 2362 O 219.333 -0.510919 -5.99728 0
M  V30 2363 H 223.159 -1.2411 -2.77183 0
M  V30 2364 H 220.744 -0.669926 -1.33538 0
M  V30 2365 H 222.626 0.795907 -4.13816 0
M  V30 2366 H 221.301 1.19169 -3.00966 0
M  V30 2367 H 220.208 -1.05176 -3.59011 0
M  V30 2368 H 221.541 -1.36489 -4.72897 0
M  V30 2369 N 223.193 1.4272 -0.668489 0
M  V30 2370 C 224.439 2.01923 -0.188419 0
M  V30 2371 C 224.772 1.52704 1.19979 0
M  V30 2372 O 224.047 0.726566 1.8042 0
M  V30 2373 C 224.33 3.59451 -0.216085 0
M  V30 2374 C 224.183 4.18864 -1.6393 0
M  V30 2375 C 225.502 4.37903 0.439179 0
M  V30 2376 H 222.621 0.733674 -0.0699412 0
M  V30 2377 H 225.263 1.69822 -0.852076 0
M  V30 2378 H 223.413 3.86929 0.349012 0
M  V30 2379 H 225.085 4.02362 -2.25616 0
M  V30 2380 H 223.328 3.74933 -2.18193 0
M  V30 2381 H 223.999 5.27987 -1.61039 0
M  V30 2382 H 226.475 4.16079 -0.0417878 0
M  V30 2383 H 225.351 5.47519 0.389157 0
M  V30 2384 H 225.612 4.15303 1.51577 0
M  V30 2385 N 224.671 0.411399 1.52136 0
M  V30 2386 C 225.92 -0.165009 2.01024 0
M  V30 2387 C 226.233 -1.4603 1.30133 0
M  V30 2388 O 227.439 -2.1181 1.69849 0
M  V30 2389 C 225.895 -0.344618 3.58246 0
M  V30 2390 C 225.503 0.938716 4.38055 0
M  V30 2391 C 227.247 -0.876195 4.15359 0
M  V30 2392 C 225.154 0.726172 5.86925 0
M  V30 2393 H 224.084 -0.0654407 0.751155 0
M  V30 2394 H 226.735 0.537192 1.75461 0
M  V30 2395 H 225.117 -1.10921 3.80148 0
M  V30 2396 H 226.291 1.70963 4.27912 0
M  V30 2397 H 224.606 1.39688 3.92271 0
M  V30 2398 H 227.203 -1.05128 5.24263 0
M  V30 2399 H 227.546 -1.85152 3.7286 0
M  V30 2400 H 228.079 -0.170607 3.97434 0
M  V30 2401 H 224.818 1.67312 6.33788 0
M  V30 2402 H 224.338 -0.00540283 5.998 0
M  V30 2403 H 226.017 0.369231 6.45946 0
M  V30 2404 N 226.149 -1.5696 0.141893 0
M  V30 2405 C 227.079 -2.19516 -0.795936 0
M  V30 2406 C 228.06 -1.14187 -1.26077 0
M  V30 2407 O 229.245 -1.42511 -1.31925 0
M  V30 2408 C 226.375 -2.81272 -2.03723 0
M  V30 2409 C 225.329 -3.92384 -1.70936 0
M  V30 2410 C 224.655 -4.41052 -3.02287 0
M  V30 2411 C 225.955 -5.13403 -0.959954 0
M  V30 2412 H 227.649 -2.98138 -0.274596 0
M  V30 2413 H 225.195 -1.43406 -0.130636 0
M  V30 2414 H 227.148 -3.237 -2.69808 0
M  V30 2415 H 225.872 -1.99973 -2.58221 0
M  V30 2416 H 224.531 -3.50566 -1.07232 0
M  V30 2417 H 224.179 -3.56582 -3.54765 0
M  V30 2418 H 223.879 -5.15993 -2.81114 0
M  V30 2419 H 225.403 -4.86146 -3.69451 0
M  V30 2420 H 226.817 -5.52706 -1.52279 0
M  V30 2421 H 225.214 -5.94073 -0.848357 0
M  V30 2422 H 226.284 -4.84875 0.0492434 0
M  V30 2423 N 227.627 0.131896 -1.57047 0
M  V30 2424 C 228.876 0.84044 -1.83356 0
M  V30 2425 C 229.189 1.81646 -0.725535 0
M  V30 2426 O 230.395 2.57025 -0.874659 0
M  V30 2427 C 228.851 1.54528 -3.25037 0
M  V30 2428 C 228.459 0.610902 -4.43815 0
M  V30 2429 C 230.203 2.23972 -3.60606 0
M  V30 2430 C 228.11 1.31823 -5.76521 0
M  V30 2431 H 227.04 0.317599 -0.683847 0
M  V30 2432 H 229.691 0.0931561 -1.83263 0
M  V30 2433 H 228.073 2.33873 -3.19561 0
M  V30 2434 H 229.247 -0.148407 -4.60561 0
M  V30 2435 H 227.562 0.0241016 -4.16393 0
M  V30 2436 H 230.159 2.77558 -4.57018 0
M  V30 2437 H 230.502 3.01173 -2.87403 0
M  V30 2438 H 231.035 1.51529 -3.6781 0
M  V30 2439 H 227.774 0.587771 -6.52859 0
M  V30 2440 H 227.294 2.04987 -5.63685 0
M  V30 2441 H 228.973 1.855 -6.19838 0
M  V30 2442 N 229.106 1.52395 0.401703 0
M  V30 2443 C 230.352 1.67065 1.14966 0
M  V30 2444 C 230.685 0.403052 1.89971 0
M  V30 2445 O 229.96 -0.598774 1.85054 0
M  V30 2446 C 230.243 2.8975 2.13815 0
M  V30 2447 C 230.096 4.26578 1.42658 0
M  V30 2448 C 231.415 3.07965 3.14397 0
M  V30 2449 H 228.534 0.607968 0.416587 0
M  V30 2450 H 231.176 1.84965 0.434511 0
M  V30 2451 H 229.326 2.74619 2.74803 0
M  V30 2452 H 230.998 4.53451 0.847329 0
M  V30 2453 H 229.241 4.27639 0.72849 0
M  V30 2454 H 229.912 5.08483 2.14823 0
M  V30 2455 H 232.388 3.22043 2.63491 0
M  V30 2456 H 231.264 3.95308 3.80819 0
M  V30 2457 H 231.525 2.21611 3.82545 0
M  V30 2458 N 230.584 -0.659388 1.43143 0
M  V30 2459 C 231.995 -1.24041 1.39537 0
M  V30 2460 C 232.346 -1.95963 0.0963364 0
M  V30 2461 O 231.471 -2.00892 -0.804438 0
M  V30 2462 C 232.066 -2.25601 2.52764 0
M  V30 2463 C 230.625 -2.79195 2.52443 0
M  V30 2464 C 229.772 -1.53743 2.30778 0
M  V30 2465 H 232.723 -0.451792 1.52133 0
M  V30 2466 H 232.744 -3.07651 2.23899 0
M  V30 2467 H 232.256 -1.73226 3.47296 0
M  V30 2468 H 230.357 -3.35649 1.61773 0
M  V30 2469 H 230.47 -3.2716 3.50004 0
M  V30 2470 H 228.834 -1.80869 1.79328 0
M  V30 2471 H 229.617 -1.03312 3.27386 0
M  V30 2472 N 232.062 -1.29571 -0.897171 0
M  V30 2473 C 233.309 -1.17689 -1.6479 0
M  V30 2474 C 233.637 0.27107 -1.92602 0
M  V30 2475 O 232.892 1.21193 -1.53658 0
M  V30 2476 C 233.191 -1.9382 -3.00281 0
M  V30 2477 C 232.857 -3.43522 -2.92068 0
M  V30 2478 C 231.519 -3.84348 -2.89535 0
M  V30 2479 C 233.871 -4.38906 -2.81089 0
M  V30 2480 C 231.199 -5.18869 -2.73846 0
M  V30 2481 C 233.551 -5.73521 -2.66939 0
M  V30 2482 C 232.215 -6.13601 -2.62774 0
M  V30 2483 H 231.485 -0.430654 -0.603008 0
M  V30 2484 H 234.132 -1.60536 -1.04404 0
M  V30 2485 H 232.437 -1.4357 -3.64547 0
M  V30 2486 H 234.134 -1.82028 -3.57305 0
M  V30 2487 H 230.724 -3.11072 -2.94842 0
M  V30 2488 H 234.908 -4.08315 -2.82121 0
M  V30 2489 H 230.164 -5.4903 -2.69027 0
M  V30 2490 H 234.338 -6.47078 -2.57416 0
M  V30 2491 H 231.965 -7.17786 -2.50375 0
M  V30 2492 N 233.54 1.10788 -1.12088 0
M  V30 2493 C 234.77 1.86191 -0.895351 0
M  V30 2494 C 235.178 1.80763 0.558702 0
M  V30 2495 O 234.521 1.19188 1.39785 0
M  V30 2496 C 234.583 3.35659 -1.28737 0
M  V30 2497 C 234.247 3.64849 -2.75198 0
M  V30 2498 C 235.244 3.61757 -3.734 0
M  V30 2499 C 232.929 3.93641 -3.12013 0
M  V30 2500 C 234.923 3.87045 -5.06434 0
M  V30 2501 C 232.61 4.18585 -4.4523 0
M  V30 2502 C 233.608 4.15277 -5.42249 0
M  V30 2503 O 233.296 4.3959 -6.73065 0
M  V30 2504 H 233.028 0.595425 -0.32007 0
M  V30 2505 H 235.582 1.40992 -1.49367 0
M  V30 2506 H 233.812 3.81497 -0.63224 0
M  V30 2507 H 235.501 3.92441 -1.03656 0
M  V30 2508 H 236.267 3.39557 -3.46303 0
M  V30 2509 H 232.146 3.95348 -2.37109 0
M  V30 2510 H 235.69 3.84378 -5.82151 0
M  V30 2511 H 231.587 4.40264 -4.72057 0
M  V30 2512 H 232.355 4.57123 -6.78956 0
M  V30 2513 N 235.018 0.912232 1.28515 0
M  V30 2514 C 236.295 0.463597 1.90027 0
M  V30 2515 C 236.675 -1.05753 1.82701 0
M  V30 2516 O 236.023 -1.90492 1.26194 0
M  V30 2517 C 236.233 0.992253 3.34597 0
M  V30 2518 C 237.581 1.04344 4.11579 0
M  V30 2519 O 238.605 0.94079 3.43551 0
M  V30 2520 O 237.464 1.1995 5.33174 0
M  V30 2521 H 234.558 0.146666 0.813891 0
M  V30 2522 H 237.104 1.00292 1.36893 0
M  V30 2523 H 235.876 2.03623 3.34146 0
M  V30 2524 H 235.499 0.433672 3.95228 0
M  V30 2525 N 236.496 -1.42363 0.676048 0
M  V30 2526 C 237.736 -2.03392 0.20273 0
M  V30 2527 C 238.1 -1.52306 -1.16906 0
M  V30 2528 O 239.301 -2.05129 -1.73711 0
M  V30 2529 C 237.572 -3.56614 0.236947 0
M  V30 2530 S 239.131 -4.38489 -0.165186 0
M  V30 2531 H 235.949 -0.70611 0.0832418 0
M  V30 2532 H 238.551 -1.74093 0.88948 0
M  V30 2533 H 237.255 -3.91293 1.23767 0
M  V30 2534 H 236.786 -3.90587 -0.469596 0
M  V30 2535 H 238.801 -4.76093 -1.39822 0
M  V30 2536 N 237.974 -0.419461 -1.51915 0
M  V30 2537 C 239.204 0.151915 -2.06041 0
M  V30 2538 C 239.612 1.38539 -1.28855 0
M  V30 2539 O 238.955 1.80592 -0.336463 0
M  V30 2540 C 239.017 0.557119 -3.55157 0
M  V30 2541 C 238.681 -0.567054 -4.53468 0
M  V30 2542 C 239.678 -1.43379 -4.99738 0
M  V30 2543 C 237.363 -0.742693 -4.96779 0
M  V30 2544 C 239.357 -2.46102 -5.87973 0
M  V30 2545 C 237.044 -1.77322 -5.84808 0
M  V30 2546 C 238.042 -2.63078 -6.30301 0
M  V30 2547 O 237.73 -3.64364 -7.16585 0
M  V30 2548 H 237.462 0.0193293 -0.675724 0
M  V30 2549 H 240.016 -0.592073 -1.96682 0
M  V30 2550 H 238.246 1.35355 -3.62238 0
M  V30 2551 H 239.935 1.05759 -3.9188 0
M  V30 2552 H 240.701 -1.30954 -4.66986 0
M  V30 2553 H 236.58 -0.0848307 -4.60922 0
M  V30 2554 H 240.124 -3.13071 -6.23404 0
M  V30 2555 H 236.021 -1.89773 -6.16974 0
M  V30 2556 H 236.789 -3.60731 -7.34721 0
M  V30 2557 N 239.452 1.56882 -0.150215 0
M  V30 2558 C 240.362 2.20494 0.801222 0
M  V30 2559 C 241.378 1.19019 1.26927 0
M  V30 2560 O 242.554 1.51607 1.32579 0
M  V30 2561 C 239.619 2.81659 2.02161 0
M  V30 2562 C 238.68 3.9827 1.60249 0
M  V30 2563 C 237.913 4.56508 2.7647 0
M  V30 2564 O 238.136 4.13627 3.92771 0
M  V30 2565 O 237.07 5.46719 2.51757 0
M  V30 2566 H 240.896 3.02315 0.289717 0
M  V30 2567 H 238.481 1.49202 0.0769684 0
M  V30 2568 H 240.363 3.20522 2.73576 0
M  V30 2569 H 239.038 2.02849 2.52258 0
M  V30 2570 H 237.945 3.64117 0.858477 0
M  V30 2571 H 239.278 4.78609 1.14864 0
M  V30 2572 N 240.93 -0.123565 1.57115 0
M  V30 2573 C 242.341 -0.681198 1.73829 0
M  V30 2574 C 242.692 -1.80535 0.768214 0
M  V30 2575 O 241.817 -2.16317 -0.0599103 0
M  V30 2576 C 242.412 -1.24246 3.15196 0
M  V30 2577 C 240.971 -1.74643 3.33432 0
M  V30 2578 C 240.118 -0.644284 2.69711 0
M  V30 2579 H 243.069 0.102315 1.5837 0
M  V30 2580 H 243.09 -2.11216 3.16493 0
M  V30 2581 H 242.602 -0.424062 3.85776 0
M  V30 2582 H 240.703 -2.58974 2.67886 0
M  V30 2583 H 240.816 -1.85902 4.41562 0
M  V30 2584 H 239.18 -1.07676 2.3082 0
M  V30 2585 H 239.963 0.163058 3.42913 0
M  V30 2586 N 242.408 -1.52605 -0.393616 0
M  V30 2587 C 243.341 -1.71798 -1.50202 0
M  V30 2588 C 244.319 -0.565743 -1.52441 0
M  V30 2589 O 245.503 -0.794987 -1.70916 0
M  V30 2590 C 242.63 -1.7714 -2.88685 0
M  V30 2591 C 241.676 -2.98845 -3.04292 0
M  V30 2592 S 242.509 -4.58909 -2.75976 0
M  V30 2593 C 243.665 -4.6706 -4.1666 0
M  V30 2594 H 243.898 -2.65542 -1.33696 0
M  V30 2595 H 241.431 -1.42839 -0.586195 0
M  V30 2596 H 243.389 -1.80903 -3.68489 0
M  V30 2597 H 242.05 -0.844969 -3.02521 0
M  V30 2598 H 241.243 -2.99111 -4.05646 0
M  V30 2599 H 240.845 -2.9305 -2.32374 0
M  V30 2600 H 243.137 -4.45391 -5.10523 0
M  V30 2601 H 244.08 -5.6905 -4.21412 0
M  V30 2602 H 244.488 -3.95944 -4.02354 0
M  V30 2603 N 243.887 0.651787 -1.4349 0
M  V30 2604 C 245.133 1.41376 -1.45398 0
M  V30 2605 C 245.466 1.94041 -0.0784823 0
M  V30 2606 O 244.741 1.72379 0.900878 0
M  V30 2607 C 245.024 2.59414 -2.49752 0
M  V30 2608 C 244.877 2.12232 -3.96582 0
M  V30 2609 C 246.196 3.61626 -2.50827 0
M  V30 2610 H 243.315 0.512719 -0.529422 0
M  V30 2611 H 245.957 0.738796 -1.75048 0
M  V30 2612 H 244.107 3.16997 -2.246 0
M  V30 2613 H 245.779 1.59639 -4.32797 0
M  V30 2614 H 244.022 1.43592 -4.09346 0
M  V30 2615 H 244.693 2.9712 -4.65214 0
M  V30 2616 H 247.169 3.13805 -2.7325 0
M  V30 2617 H 246.045 4.41766 -3.25783 0
M  V30 2618 H 246.306 4.14314 -1.5426 0
M  V30 2619 N 245.365 1.30045 0.890287 0
M  V30 2620 C 246.781 1.08261 1.17268 0
M  V30 2621 C 246.981 -0.160063 2.00863 0
M  V30 2622 O 246.037 -0.855181 2.37577 0
M  V30 2623 C 247.35 2.34323 1.8845 0
M  V30 2624 C 248.898 2.39735 2.01237 0
M  V30 2625 C 249.373 3.65625 2.7583 0
M  V30 2626 N 250.864 3.66402 2.83379 0
M  V30 2627 C 251.599 4.60498 3.41657 0
M  V30 2628 N 251.095 5.64933 4.01026 0
M  V30 2629 N 252.888 4.48051 3.39421 0
M  V30 2630 H 245.039 2.09777 0.332762 0
M  V30 2631 H 247.302 0.92446 0.209948 0
M  V30 2632 H 247.008 3.2498 1.34465 0
M  V30 2633 H 246.882 2.4256 2.88867 0
M  V30 2634 H 249.269 1.4956 2.54393 0
M  V30 2635 H 249.35 2.35476 0.999232 0
M  V30 2636 H 248.994 4.56156 2.23347 0
M  V30 2637 H 248.924 3.67144 3.77509 0
M  V30 2638 H 251.415 2.90896 2.41222 0
M  V30 2639 H 251.728 6.32841 4.43545 0
M  V30 2640 H 250.073 5.68732 3.99461 0
M  V30 2641 H 253.264 3.65649 2.92264 0
M  V30 2642 H 253.437 5.21565 3.84544 0
M  V30 2643 N 246.843 -1.10192 1.12674 0
M  V30 2644 C 247.776 -2.15847 0.740625 0
M  V30 2645 C 248.754 -1.60352 -0.269421 0
M  V30 2646 O 249.938 -1.87796 -0.16278 0
M  V30 2647 C 247.065 -3.38562 0.096641 0
M  V30 2648 C 246.111 -4.12758 1.07391 0
M  V30 2649 S 246.944 -4.67997 2.60267 0
M  V30 2650 C 248.1 -5.94021 1.97206 0
M  V30 2651 H 248.333 -2.48266 1.63558 0
M  V30 2652 H 245.866 -1.22019 0.946087 0
M  V30 2653 H 247.824 -4.09621 -0.268535 0
M  V30 2654 H 246.485 -3.04377 -0.775462 0
M  V30 2655 H 245.678 -5.00755 0.570997 0
M  V30 2656 H 245.28 -3.47523 1.38216 0
M  V30 2657 H 247.572 -6.64589 1.31634 0
M  V30 2658 H 248.515 -6.48979 2.83253 0
M  V30 2659 H 248.923 -5.46169 1.42686 0
M  V30 2660 N 248.321 -0.919034 -1.28029 0
M  V30 2661 C 249.284 -0.416182 -2.2539 0
M  V30 2662 C 250.284 0.460438 -1.54067 0
M  V30 2663 O 251.474 0.262744 -1.72207 0
M  V30 2664 C 248.606 0.402707 -3.38513 0
M  V30 2665 H 249.799 -1.27629 -2.71387 0
M  V30 2666 H 247.352 -0.698919 -1.39803 0
M  V30 2667 H 248.087 1.282 -2.97885 0
M  V30 2668 H 247.872 -0.225698 -3.9145 0
M  V30 2669 H 249.362 0.745191 -4.10897 0
M  V30 2670 N 249.799 1.42003 -0.683588 0
M  V30 2671 C 251.047 2.01015 -0.209101 0
M  V30 2672 C 251.368 1.54365 1.19149 0
M  V30 2673 O 250.638 0.769083 1.80172 0
M  V30 2674 H 249.218 0.743294 -0.074315 0
M  V30 2675 H 251.88 1.73798 -0.882066 0
M  V30 2676 H 250.976 3.11343 -0.2172 0
M  V30 2677 N 251.277 0.427512 1.51691 0
M  V30 2678 C 252.24 -0.377132 2.26076 0
M  V30 2679 C 253.24 -0.958089 1.29141 0
M  V30 2680 O 254.43 -0.83408 1.52934 0
M  V30 2681 C 251.562 -1.53262 3.04506 0
M  V30 2682 H 252.755 0.27464 2.9864 0
M  V30 2683 H 250.308 0.180445 1.55255 0
M  V30 2684 H 251.043 -2.22072 2.36335 0
M  V30 2685 H 250.828 -1.12232 3.75694 0
M  V30 2686 H 252.318 -2.10135 3.60878 0
M  V30 2687 N 252.755 -1.56801 0.158532 0
M  V30 2688 C 253.983 -2.00859 -0.496303 0
M  V30 2689 C 254.398 -1.03871 -1.57659 0
M  V30 2690 O 253.755 -0.0375165 -1.82461 0
M  V30 2691 C 253.806 -3.4479 -1.08638 0
M  V30 2692 O 253.527 -4.38072 -0.0492322 0
M  V30 2693 C 255.028 -4.04185 -1.8207 0
M  V30 2694 H 252.248 -0.65864 -0.128199 0
M  V30 2695 H 254.792 -2.02885 0.256506 0
M  V30 2696 H 252.947 -3.43579 -1.78975 0
M  V30 2697 H 253.361 -5.2227 -0.483102 0
M  V30 2698 H 254.835 -5.06857 -2.18633 0
M  V30 2699 H 255.312 -3.45549 -2.71095 0
M  V30 2700 H 255.918 -4.0906 -1.16405 0
M  V30 2701 N 254.233 0.115231 -1.57178 0
M  V30 2702 C 255.644 0.67197 -1.74188 0
M  V30 2703 C 255.995 1.80125 -0.777777 0
M  V30 2704 O 255.12 2.16346 0.0484376 0
M  V30 2705 C 255.715 1.22573 -3.1585 0
M  V30 2706 C 254.274 1.72872 -3.34353 0
M  V30 2707 C 253.421 0.629972 -2.70049 0
M  V30 2708 H 256.372 -0.110712 -1.58313 0
M  V30 2709 H 256.393 2.09535 -3.17609 0
M  V30 2710 H 255.905 0.403598 -3.85996 0
M  V30 2711 H 254.006 2.5755 -2.69256 0
M  V30 2712 H 254.119 1.83557 -4.42542 0
M  V30 2713 H 252.483 1.0645 -2.31388 0
M  V30 2714 H 253.266 -0.181241 -3.42821 0
M  V30 2715 N 255.711 1.52812 0.385517 0
M  V30 2716 C 256.957 1.68275 1.13188 0
M  V30 2717 C 257.29 0.423179 1.89533 0
M  V30 2718 O 256.565 -0.579113 1.85679 0
M  V30 2719 C 256.848 2.92001 2.1073 0
M  V30 2720 C 256.701 4.28067 1.38125 0
M  V30 2721 C 258.02 3.11283 3.11113 0
M  V30 2722 H 255.139 0.612352 0.410115 0
M  V30 2723 H 257.781 1.85415 0.414869 0
M  V30 2724 H 255.931 2.77519 2.71874 0
M  V30 2725 H 257.603 4.54324 0.799187 0
M  V30 2726 H 255.846 4.28388 0.683092 0
M  V30 2727 H 256.517 5.10733 2.09417 0
M  V30 2728 H 258.993 3.2482 2.6006 0
M  V30 2729 H 257.869 3.99325 3.76605 0
M  V30 2730 H 258.13 2.25656 3.80173 0
M  V30 2731 N 257.189 -0.644168 1.43834 0
M  V30 2732 C 258.436 -1.40395 1.4593 0
M  V30 2733 C 258.764 -1.94305 0.0869658 0
M  V30 2734 O 258.019 -1.73288 -0.909378 0
M  V30 2735 C 258.318 -2.59615 2.45631 0
M  V30 2736 C 257.984 -2.2407 3.91284 0
M  V30 2737 C 256.646 -2.14089 4.30952 0
M  V30 2738 C 258.998 -1.95775 4.83034 0
M  V30 2739 C 256.326 -1.73981 5.6031 0
M  V30 2740 C 258.678 -1.57163 6.12766 0
M  V30 2741 C 257.342 -1.45713 6.51402 0
M  V30 2742 H 256.612 -0.513741 0.533995 0
M  V30 2743 H 259.259 -0.731724 1.76969 0
M  V30 2744 H 257.564 -3.32011 2.08028 0
M  V30 2745 H 259.261 -3.17834 2.44504 0
M  V30 2746 H 255.851 -2.32753 3.59895 0
M  V30 2747 H 260.035 -2.02403 4.53152 0
M  V30 2748 H 255.291 -1.63709 5.89075 0
M  V30 2749 H 259.465 -1.34303 6.83327 0
M  V30 2750 H 257.092 -1.14406 7.51542 0
M  V30 2751 N 258.668 -1.30515 -0.883378 0
M  V30 2752 C 259.917 -1.18795 -1.63005 0
M  V30 2753 C 260.23 0.255923 -1.93919 0
M  V30 2754 O 261.436 0.494654 -2.66956 0
M  V30 2755 C 259.892 -2.07878 -2.93794 0
M  V30 2756 C 259.5 -3.57184 -2.70414 0
M  V30 2757 C 261.244 -2.04924 -3.71761 0
M  V30 2758 C 259.151 -4.38317 -3.97029 0
M  V30 2759 H 258.081 -0.441031 -0.611562 0
M  V30 2760 H 260.732 -1.55275 -0.977854 0
M  V30 2761 H 259.114 -1.64283 -3.60315 0
M  V30 2762 H 260.288 -4.08937 -2.12384 0
M  V30 2763 H 258.603 -3.61976 -2.0582 0
M  V30 2764 H 261.2 -2.62792 -4.65665 0
M  V30 2765 H 261.543 -1.0331 -4.03277 0
M  V30 2766 H 262.076 -2.46649 -3.12104 0
M  V30 2767 H 258.815 -5.40632 -3.70671 0
M  V30 2768 H 258.335 -3.91326 -4.54559 0
M  V30 2769 H 260.014 -4.49834 -4.65036 0
M  V30 2770 N 260.146 1.09593 -1.13257 0
M  V30 2771 C 261.557 1.63229 -0.906274 0
M  V30 2772 C 261.908 1.8811 0.557578 0
M  V30 2773 O 261.033 1.62953 1.42391 0
M  V30 2774 C 261.628 2.96535 -1.63867 0
M  V30 2775 C 260.187 3.47003 -1.45828 0
M  V30 2776 C 259.334 2.2145 -1.66898 0
M  V30 2777 H 262.285 0.92978 -1.28611 0
M  V30 2778 H 262.306 3.64411 -1.09476 0
M  V30 2779 H 261.818 2.78394 -2.70404 0
M  V30 2780 H 259.919 3.70272 -0.415848 0
M  V30 2781 H 260.032 4.24551 -2.2202 0
M  V30 2782 H 258.396 2.30022 -1.09371 0
M  V30 2783 H 259.179 2.0583 -2.74752 0
M  V30 2784 N 261.624 0.925811 1.2754 0
M  V30 2785 C 262.554 0.440748 2.29303 0
M  V30 2786 C 263.535 -0.497971 1.62648 0
M  V30 2787 O 264.72 -0.403126 1.8997 0
M  V30 2788 C 261.85 -0.309048 3.45922 0
M  V30 2789 C 260.804 0.54166 4.24559 0
M  V30 2790 C 260.13 -0.337191 5.33636 0
M  V30 2791 C 261.43 1.80516 4.90114 0
M  V30 2792 H 263.124 1.29121 2.70126 0
M  V30 2793 H 260.67 0.622323 1.29858 0
M  V30 2794 H 262.623 -0.659315 4.1621 0
M  V30 2795 H 261.347 -1.19352 3.04011 0
M  V30 2796 H 260.006 0.874609 3.56014 0
M  V30 2797 H 259.654 -1.22056 4.87966 0
M  V30 2798 H 259.354 0.228497 5.87156 0
M  V30 2799 H 260.878 -0.683072 6.06767 0
M  V30 2800 H 262.292 1.52307 5.52698 0
M  V30 2801 H 260.689 2.3142 5.53683 0
M  V30 2802 H 261.759 2.52581 4.13921 0
M  V30 2803 N 263.102 -1.41638 0.69111 0
M  V30 2804 C 264.518 -1.55435 0.362224 0
M  V30 2805 C 264.718 -1.66754 -1.13117 0
M  V30 2806 O 263.774 -1.64348 -1.91692 0
M  V30 2807 C 265.087 -2.79588 1.10684 0
M  V30 2808 C 266.635 -2.9338 1.09075 0
M  V30 2809 C 267.11 -4.20414 1.81703 0
M  V30 2810 N 268.601 -4.27362 1.7865 0
M  V30 2811 C 269.336 -5.24507 2.31689 0
M  V30 2812 N 268.832 -6.27708 2.93179 0
M  V30 2813 N 270.625 -5.16416 2.2197 0
M  V30 2814 H 262.776 -1.32536 1.65976 0
M  V30 2815 H 265.039 -0.639115 0.700168 0
M  V30 2816 H 264.745 -2.77419 2.16175 0
M  V30 2817 H 264.619 -3.70973 0.682545 0
M  V30 2818 H 267.006 -2.95067 0.0441238 0
M  V30 2819 H 267.087 -2.0318 1.55407 0
M  V30 2820 H 266.731 -4.19488 2.86343 0
M  V30 2821 H 266.661 -5.09578 1.32808 0
M  V30 2822 H 269.152 -3.53415 1.33815 0
M  V30 2823 H 269.465 -6.98217 3.31229 0
M  V30 2824 H 267.81 -6.28223 2.97255 0
M  V30 2825 H 271.001 -4.34716 1.73607 0
M  V30 2826 H 271.174 -5.91958 2.63609 0
M  V30 2827 N 264.58 -0.43555 -1.51462 0
M  V30 2828 C 265.805 0.132627 -2.06976 0
M  V30 2829 C 266.23 1.35848 -1.30104 0
M  V30 2830 O 265.588 1.78112 -0.338493 0
M  V30 2831 C 265.636 0.43523 -3.57964 0
M  V30 2832 O 264.74 1.52198 -3.83288 0
M  V30 2833 H 264.081 0.00265 -0.663995 0
M  V30 2834 H 266.611 -0.616369 -1.95095 0
M  V30 2835 H 266.621 0.686206 -4.02188 0
M  V30 2836 H 265.296 -0.460739 -4.1334 0
M  V30 2837 H 263.873 1.2611 -3.50928 0
M  V30 2838 N 266.058 1.56714 -0.166846 0
M  V30 2839 C 267.005 2.17746 0.765193 0
M  V30 2840 C 267.975 1.11614 1.23011 0
M  V30 2841 O 269.16 1.39745 1.29908 0
M  V30 2842 C 266.3 2.81882 1.9909 0
M  V30 2843 C 265.413 4.02462 1.56997 0
M  V30 2844 C 264.548 4.54537 2.749 0
M  V30 2845 C 263.587 5.67538 2.29275 0
M  V30 2846 N 262.724 6.14142 3.40255 0
M  V30 2847 H 267.564 2.97048 0.237952 0
M  V30 2848 H 265.101 1.4672 0.105725 0
M  V30 2849 H 267.059 3.17221 2.70974 0
M  V30 2850 H 265.689 2.05191 2.49192 0
M  V30 2851 H 264.741 3.72973 0.748037 0
M  V30 2852 H 266.053 4.84273 1.19503 0
M  V30 2853 H 265.207 4.92035 3.54946 0
M  V30 2854 H 263.946 3.71774 3.1565 0
M  V30 2855 H 262.951 5.29597 1.47674 0
M  V30 2856 H 264.176 6.52099 1.89588 0
M  V30 2857 H 262.122 5.3431 3.8059 0
M  V30 2858 H 262.039 6.9093 3.06841 0
M  V30 2859 H 263.307 6.56289 4.206 0
M  V30 2860 N 267.536 -0.106894 1.57237 0
M  V30 2861 C 268.947 -0.662723 1.74542 0
M  V30 2862 C 269.298 -1.7971 0.787319 0
M  V30 2863 O 268.423 -2.16368 -0.0369636 0
M  V30 2864 C 269.018 -1.20896 3.16496 0
M  V30 2865 C 267.577 -1.71096 3.35266 0
M  V30 2866 C 266.724 -0.615642 2.7038 0
M  V30 2867 H 269.675 0.119106 1.58252 0
M  V30 2868 H 269.696 -2.07847 3.18716 0
M  V30 2869 H 269.208 -0.383122 3.86204 0
M  V30 2870 H 267.309 -2.56119 2.70618 0
M  V30 2871 H 267.422 -1.81208 4.43509 0
M  V30 2872 H 265.786 -1.05222 2.31949 0
M  V30 2873 H 266.569 0.199419 3.4272 0
M  V30 2874 N 269.014 -1.53014 -0.377408 0
M  V30 2875 C 270.26 -1.68872 -1.12294 0
M  V30 2876 C 270.593 -0.433224 -1.89306 0
M  V30 2877 O 269.868 0.569258 -1.85983 0
M  V30 2878 C 270.151 -2.93115 -2.09179 0
M  V30 2879 C 270.004 -4.28794 -1.35853 0
M  V30 2880 C 271.323 -3.12928 -3.09458 0
M  V30 2881 H 268.442 -0.614518 -0.406862 0
M  V30 2882 H 271.084 -1.85633 -0.40503 0
M  V30 2883 H 269.234 -2.78956 -2.70399 0
M  V30 2884 H 270.906 -4.54742 -0.775082 0
M  V30 2885 H 269.149 -4.28744 -0.660364 0
M  V30 2886 H 269.82 -5.11837 -2.06706 0
M  V30 2887 H 272.296 -3.26194 -2.58334 0
M  V30 2888 H 271.172 -4.01316 -3.74482 0
M  V30 2889 H 271.433 -2.27669 -3.78971 0
M  V30 2890 N 270.492 0.636531 -1.44174 0
M  V30 2891 C 271.722 1.42146 -1.49927 0
M  V30 2892 C 272.13 1.88812 -0.121063 0
M  V30 2893 O 271.473 1.61126 0.882267 0
M  V30 2894 C 271.535 2.67883 -2.39748 0
M  V30 2895 C 271.199 2.43048 -3.8701 0
M  V30 2896 C 272.196 2.05216 -4.77684 0
M  V30 2897 C 269.881 2.56856 -4.3166 0
M  V30 2898 C 271.875 1.81512 -6.11009 0
M  V30 2899 C 269.562 2.32766 -5.65034 0
M  V30 2900 C 270.56 1.95152 -6.54526 0
M  V30 2901 O 270.248 1.71326 -7.85431 0
M  V30 2902 H 269.98 0.442567 -0.51099 0
M  V30 2903 H 272.534 0.786158 -1.8976 0
M  V30 2904 H 270.764 3.34032 -1.94832 0
M  V30 2905 H 272.453 3.29874 -2.36513 0
M  V30 2906 H 273.219 1.94111 -4.44462 0
M  V30 2907 H 269.098 2.85104 -3.62266 0
M  V30 2908 H 272.642 1.52077 -6.80822 0
M  V30 2909 H 268.539 2.43479 -5.97819 0
M  V30 2910 H 269.307 1.85616 -7.97176 0
M  V30 2911 N 271.97 1.30982 0.876444 0
M  V30 2912 C 273.218 1.20058 1.62575 0
M  V30 2913 C 273.539 -0.242947 1.93481 0
M  V30 2914 O 272.809 -1.1619 1.57724 0
M  V30 2915 H 271.389 0.44135 0.602677 0
M  V30 2916 H 274.051 1.64222 1.04962 0
M  V30 2917 H 273.147 1.76762 2.57219 0
M  V30 2918 N 273.449 -1.08991 1.13837 0
M  V30 2919 C 274.396 -2.15748 0.819835 0
M  V30 2920 C 275.366 -1.64636 -0.220026 0
M  V30 2921 O 276.551 -1.90582 -0.0912757 0
M  V30 2922 C 273.691 -3.4382 0.296913 0
M  V30 2923 C 272.804 -4.0881 1.39636 0
M  V30 2924 C 271.939 -5.24655 0.831314 0
M  V30 2925 C 270.978 -5.81575 1.90886 0
M  V30 2926 N 270.115 -6.88774 1.36142 0
M  V30 2927 H 274.955 -2.42338 1.73426 0
M  V30 2928 H 272.492 -1.18935 0.865613 0
M  V30 2929 H 274.45 -4.17193 -0.0244339 0
M  V30 2930 H 273.08 -3.17535 -0.580628 0
M  V30 2931 H 272.132 -3.33258 1.83422 0
M  V30 2932 H 273.444 -4.47141 2.21058 0
M  V30 2933 H 272.598 -6.04942 0.461515 0
M  V30 2934 H 271.337 -4.87698 -0.013932 0
M  V30 2935 H 270.342 -4.99946 2.28767 0
M  V30 2936 H 271.567 -6.20592 2.75758 0
M  V30 2937 H 269.513 -6.53788 0.538254 0
M  V30 2938 H 269.43 -7.25898 2.11208 0
M  V30 2939 H 270.698 -7.72806 1.01933 0
M  V30 2940 N 274.927 -0.932562 -1.27047 0
M  V30 2941 C 276.343 -0.633544 -1.46487 0
M  V30 2942 C 276.543 0.815746 -1.84249 0
M  V30 2943 O 275.599 1.59319 -1.95892 0
M  V30 2944 C 276.912 -1.58758 -2.55375 0
M  V30 2945 C 278.46 -1.59634 -2.69232 0
M  V30 2946 C 278.935 -2.53747 -3.81283 0
M  V30 2947 N 280.426 -2.51982 -3.88664 0
M  V30 2948 C 281.161 -3.21491 -4.74796 0
M  V30 2949 N 280.657 -4.00395 -5.65381 0
M  V30 2950 N 282.45 -3.10485 -4.68568 0
M  V30 2951 H 274.601 -1.86946 -1.00821 0
M  V30 2952 H 276.864 -0.802897 -0.504044 0
M  V30 2953 H 276.57 -2.62172 -2.34432 0
M  V30 2954 H 276.444 -1.33301 -3.52861 0
M  V30 2955 H 278.831 -0.569488 -2.89553 0
M  V30 2956 H 278.912 -1.89142 -1.72218 0
M  V30 2957 H 278.556 -3.56545 -3.61715 0
M  V30 2958 H 278.486 -2.21532 -4.77735 0
M  V30 2959 H 280.977 -1.94681 -3.23895 0
M  V30 2960 H 281.29 -4.50406 -6.27976 0
M  V30 2961 H 279.635 -4.04498 -5.65161 0
M  V30 2962 H 282.826 -2.48331 -3.96799 0
M  V30 2963 H 282.999 -3.64925 -5.35475 0
M  V30 2964 N 276.405 1.4127 -0.698611 0
M  V30 2965 C 277.651 2.01979 -0.239972 0
M  V30 2966 C 278.006 1.54353 1.14861 0
M  V30 2967 O 277.299 0.746218 1.76471 0
M  V30 2968 C 277.493 3.56592 -0.240192 0
M  V30 2969 C 277.322 4.19226 -1.62726 0
M  V30 2970 C 276.092 4.53389 -2.23084 0
M  V30 2971 C 278.29 4.45228 -2.57443 0
M  V30 2972 N 276.272 5.01327 -3.54323 0
M  V30 2973 C 277.643 4.94973 -3.73365 0
M  V30 2974 C 279.698 4.27243 -2.55671 0
M  V30 2975 C 278.401 5.28624 -4.878 0
M  V30 2976 C 280.427 4.61985 -3.69221 0
M  V30 2977 C 279.789 5.11904 -4.83873 0
M  V30 2978 H 275.888 0.770561 -0.133269 0
M  V30 2979 H 278.472 1.71767 -0.916748 0
M  V30 2980 H 276.643 3.86271 0.406082 0
M  V30 2981 H 278.375 4.04025 0.23356 0
M  V30 2982 H 275.13 4.39946 -1.75341 0
M  V30 2983 H 275.554 5.29697 -4.21604 0
M  V30 2984 H 280.196 3.87884 -1.68243 0
M  V30 2985 H 277.914 5.66905 -5.75885 0
M  V30 2986 H 281.5 4.49725 -3.69105 0
M  V30 2987 H 280.38 5.38282 -5.70282 0
M  V30 2988 N 277.883 0.443576 1.51229 0
M  V30 2989 C 279.108 -0.121648 2.07043 0
M  V30 2990 C 279.533 -1.35156 1.30823 0
M  V30 2991 O 278.891 -1.7793 0.347934 0
M  V30 2992 C 278.939 -0.41624 3.5819 0
M  V30 2993 O 278.043 -1.50163 3.8409 0
M  V30 2994 H 277.384 0.000871367 0.663999 0
M  V30 2995 H 279.914 0.626706 1.94765 0
M  V30 2996 H 279.924 -0.664867 4.02546 0
M  V30 2997 H 278.599 0.482653 4.1309 0
M  V30 2998 H 277.176 -1.24248 3.51592 0
M  V30 2999 N 279.361 -1.56624 0.175154 0
M  V30 3000 C 280.586 -2.01813 -0.478137 0
M  V30 3001 C 281.011 -1.05457 -1.55757 0
M  V30 3002 O 280.369 -0.0347439 -1.81267 0
M  V30 3003 C 280.417 -3.45581 -1.02987 0
M  V30 3004 O 279.521 -3.52305 -2.14371 0
M  V30 3005 H 278.862 -0.65413 -0.114059 0
M  V30 3006 H 281.392 -2.02673 0.280173 0
M  V30 3007 H 281.402 -3.84965 -1.35151 0
M  V30 3008 H 280.077 -4.1521 -0.239556 0
M  V30 3009 H 278.654 -3.24783 -1.83222 0
M  V30 3010 N 280.839 0.0985539 -1.57292 0
M  V30 3011 C 282.064 0.820196 -1.90493 0
M  V30 3012 C 282.489 1.71658 -0.769094 0
M  V30 3013 O 281.847 1.79133 0.279495 0
M  V30 3014 C 281.895 1.61242 -3.22542 0
M  V30 3015 O 280.999 2.72108 -3.09888 0
M  V30 3016 H 280.34 0.225547 -0.62452 0
M  V30 3017 H 282.87 0.0748159 -2.04463 0
M  V30 3018 H 282.88 1.99737 -3.55766 0
M  V30 3019 H 281.555 0.954535 -4.04798 0
M  V30 3020 H 280.132 2.36667 -2.88172 0
M  V30 3021 N 282.317 1.53212 0.369288 0
M  V30 3022 C 283.594 1.59815 1.12776 0
M  V30 3023 C 283.974 0.403402 2.0721 0
M  V30 3024 O 283.322 -0.606667 2.20299 0
M  V30 3025 C 283.532 2.94664 1.87013 0
M  V30 3026 C 284.88 3.49109 2.41677 0
M  V30 3027 O 285.904 2.96669 1.97144 0
M  V30 3028 O 284.763 4.40775 3.23079 0
M  V30 3029 H 281.857 0.645376 0.517125 0
M  V30 3030 H 284.403 1.65553 0.37285 0
M  V30 3031 H 283.175 3.73061 1.18071 0
M  V30 3032 H 282.798 2.92401 2.69421 0
M  V30 3033 N 283.795 -0.628877 1.44509 0
M  V30 3034 C 285.041 -1.38863 1.48623 0
M  V30 3035 C 285.396 -1.92038 0.117933 0
M  V30 3036 O 284.689 -1.70853 -0.86716 0
M  V30 3037 C 284.883 -2.56995 2.48371 0
M  V30 3038 C 284.712 -2.15385 3.94765 0
M  V30 3039 C 283.482 -2.02558 4.62924 0
M  V30 3040 C 285.68 -1.74158 4.83915 0
M  V30 3041 N 283.662 -1.54534 5.94132 0
M  V30 3042 C 285.033 -1.37396 6.04584 0
M  V30 3043 C 287.088 -1.61559 4.7096 0
M  V30 3044 C 285.791 -0.892948 7.13736 0
M  V30 3045 C 287.817 -1.14862 5.80139 0
M  V30 3046 C 287.179 -0.790516 6.9995 0
M  V30 3047 H 283.278 -0.502858 0.59888 0
M  V30 3048 H 285.862 -0.72121 1.8085 0
M  V30 3049 H 284.033 -3.21362 2.1813 0
M  V30 3050 H 285.765 -3.23801 2.42766 0
M  V30 3051 H 282.52 -2.23082 4.1777 0
M  V30 3052 H 282.944 -1.32815 6.63844 0
M  V30 3053 H 287.586 -1.87876 3.78764 0
M  V30 3054 H 285.304 -0.617291 8.05739 0
M  V30 3055 H 288.89 -1.05569 5.72142 0
M  V30 3056 H 287.77 -0.434713 7.82994 0
M  V30 3057 N 285.273 -1.31445 -0.869486 0
M  V30 3058 C 286.501 -1.24122 -1.65534 0
M  V30 3059 C 286.916 0.193387 -1.87807 0
M  V30 3060 O 286.273 1.12557 -1.43656 0
M  V30 3061 C 286.324 -1.98229 -3.02304 0
M  V30 3062 O 286.045 -3.3609 -2.81026 0
M  V30 3063 C 287.546 -1.97751 -3.96749 0
M  V30 3064 H 284.766 -0.428868 -0.516055 0
M  V30 3065 H 287.31 -1.73328 -1.08525 0
M  V30 3066 H 285.465 -1.52782 -3.56001 0
M  V30 3067 H 285.879 -3.7383 -3.67902 0
M  V30 3068 H 287.353 -2.54114 -4.90031 0
M  V30 3069 H 287.83 -0.960137 -4.28577 0
M  V30 3070 H 288.436 -2.43079 -3.48988 0
M  V30 3071 N 286.751 1.08385 -1.14413 0
M  V30 3072 C 287.681 2.17321 -0.854044 0
M  V30 3073 C 288.662 1.69024 0.191049 0
M  V30 3074 O 289.847 1.94141 0.0476779 0
M  V30 3075 C 286.977 3.45719 -0.330983 0
M  V30 3076 C 285.931 4.07409 -1.31155 0
M  V30 3077 C 285.257 5.30762 -0.64778 0
M  V30 3078 C 286.557 4.48665 -2.67388 0
M  V30 3079 H 288.251 2.41845 -1.76498 0
M  V30 3080 H 285.797 1.16233 -0.850051 0
M  V30 3081 H 287.75 4.21241 -0.115645 0
M  V30 3082 H 286.474 3.2075 0.615381 0
M  V30 3083 H 285.133 3.33919 -1.51306 0
M  V30 3084 H 284.781 5.02078 0.304398 0
M  V30 3085 H 284.481 5.72992 -1.30207 0
M  V30 3086 H 286.005 6.08998 -0.441972 0
M  V30 3087 H 287.419 5.15364 -2.51143 0
M  V30 3088 H 285.816 5.01814 -3.29093 0
M  V30 3089 H 286.886 3.60543 -3.24248 0
M  V30 3090 N 288.23 0.939286 1.26551 0
M  V30 3091 C 289.507 0.5038 1.89001 0
M  V30 3092 C 289.887 -1.01854 1.84903 0
M  V30 3093 O 289.235 -1.87773 1.30206 0
M  V30 3094 C 289.445 1.063 3.32417 0
M  V30 3095 C 290.793 1.13051 4.09273 0
M  V30 3096 O 291.817 1.01345 3.41479 0
M  V30 3097 O 290.676 1.31233 5.30509 0
M  V30 3098 H 287.77 0.163897 0.810597 0
M  V30 3099 H 290.316 1.03173 1.34735 0
M  V30 3100 H 289.088 2.10665 3.29752 0
M  V30 3101 H 288.711 0.517408 3.94219 0
M  V30 3102 N 289.708 -1.40897 0.706093 0
M  V30 3103 C 291.119 -1.84023 0.315052 0
M  V30 3104 C 291.47 -1.5906 -1.14866 0
M  V30 3105 O 290.595 -1.06651 -1.88293 0
M  V30 3106 C 291.19 -3.34055 0.565038 0
M  V30 3107 C 289.749 -3.7571 0.227806 0
M  V30 3108 C 288.896 -2.64204 0.842122 0
M  V30 3109 H 291.847 -1.303 0.905963 0
M  V30 3110 H 291.868 -3.80107 -0.172843 0
M  V30 3111 H 291.38 -3.52192 1.63042 0
M  V30 3112 H 289.481 -3.63172 -0.832895 0
M  V30 3113 H 289.594 -4.74103 0.690174 0
M  V30 3114 H 287.958 -2.53255 0.270893 0
M  V30 3115 H 288.741 -2.85155 1.91158 0
M  V30 3116 N 291.186 -0.45159 -1.50991 0
M  V30 3117 C 292.118 0.388634 -2.25881 0
M  V30 3118 C 293.131 0.974041 -1.30446 0
M  V30 3119 O 294.32 0.865758 -1.56099 0
M  V30 3120 C 291.42 1.5571 -3.01011 0
M  V30 3121 C 290.593 1.08801 -4.23652 0
M  V30 3122 C 289.652 2.12825 -4.8124 0
M  V30 3123 O 288.678 1.71678 -5.42693 0
M  V30 3124 N 289.88 3.45453 -4.66522 0
M  V30 3125 H 292.645 -0.25329 -2.98628 0
M  V30 3126 H 290.206 -0.281268 -1.59438 0
M  V30 3127 H 292.198 2.24952 -3.3642 0
M  V30 3128 H 290.768 2.10409 -2.31186 0
M  V30 3129 H 289.988 0.22215 -3.93574 0
M  V30 3130 H 291.276 0.752213 -5.03209 0
M  V30 3131 H 290.674 3.81605 -4.17605 0
M  V30 3132 H 289.231 4.10549 -5.06254 0
M  V30 3133 N 292.664 1.56529 -0.183458 0
M  V30 3134 C 293.574 2.22144 0.754272 0
M  V30 3135 C 294.59 1.21684 1.24374 0
M  V30 3136 O 295.766 1.54385 1.29333 0
M  V30 3137 C 292.831 2.85884 1.96141 0
M  V30 3138 C 291.892 4.01579 1.51765 0
M  V30 3139 C 291.125 4.6227 2.66725 0
M  V30 3140 O 291.348 4.21865 3.83909 0
M  V30 3141 O 290.282 5.51936 2.40104 0
M  V30 3142 H 294.108 3.02861 0.225527 0
M  V30 3143 H 291.693 1.49331 0.0453032 0
M  V30 3144 H 293.575 3.26253 2.66715 0
M  V30 3145 H 292.25 2.08154 2.47899 0
M  V30 3146 H 291.157 3.65856 0.781049 0
M  V30 3147 H 292.49 4.80938 1.04686 0
M  V30 3148 N 294.142 -0.090211 1.57342 0
M  V30 3149 C 295.072 -1.10976 2.05443 0
M  V30 3150 C 296.053 -1.41482 0.944284 0
M  V30 3151 O 297.238 -1.51428 1.21586 0
M  V30 3152 C 294.368 -2.42831 2.48295 0
M  V30 3153 C 293.322 -2.26721 3.63018 0
M  V30 3154 C 292.648 -3.63796 3.91863 0
M  V30 3155 C 293.948 -1.7037 4.93732 0
M  V30 3156 H 295.642 -0.709564 2.9087 0
M  V30 3157 H 293.188 -0.339874 1.39932 0
M  V30 3158 H 295.141 -3.14431 2.80555 0
M  V30 3159 H 293.865 -2.84795 1.59873 0
M  V30 3160 H 292.524 -1.57565 3.31012 0
M  V30 3161 H 292.172 -4.03297 3.00601 0
M  V30 3162 H 291.872 -3.53861 4.69101 0
M  V30 3163 H 293.396 -4.36855 4.26603 0
M  V30 3164 H 294.81 -2.31816 5.24342 0
M  V30 3165 H 293.207 -1.71181 5.75167 0
M  V30 3166 H 294.277 -0.663542 4.80339 0
M  V30 3167 N 295.62 -1.53406 -0.361157 0
M  V30 3168 C 296.53 -1.83122 -1.4664 0
M  V30 3169 C 297.546 -0.719943 -1.58407 0
M  V30 3170 O 298.722 -1.01046 -1.74218 0
M  V30 3171 C 295.787 -2.01891 -2.81853 0
M  V30 3172 C 294.848 -3.25784 -2.79577 0
M  V30 3173 C 294.081 -3.43648 -4.0834 0
M  V30 3174 O 294.304 -2.65714 -5.0473 0
M  V30 3175 O 293.238 -4.37018 -4.13883 0
M  V30 3176 H 297.064 -2.7703 -1.24451 0
M  V30 3177 H 294.649 -1.38841 -0.551678 0
M  V30 3178 H 296.531 -2.15782 -3.61962 0
M  V30 3179 H 295.206 -1.11173 -3.0401 0
M  V30 3180 H 294.113 -3.17312 -1.98151 0
M  V30 3181 H 295.446 -4.16439 -2.62373 0
M  V30 3182 N 297.098 0.621204 -1.44841 0
M  V30 3183 C 298.323 1.41244 -1.51871 0
M  V30 3184 C 298.748 1.87519 -0.147764 0
M  V30 3185 O 298.106 1.59334 0.865 0
M  V30 3186 C 298.154 2.60221 -2.49634 0
M  V30 3187 O 297.258 3.60395 -2.00473 0
M  V30 3188 H 296.599 0.42223 -0.512463 0
M  V30 3189 H 299.129 0.757305 -1.90069 0
M  V30 3190 H 299.139 3.0764 -2.67996 0
M  V30 3191 H 297.814 2.25887 -3.4921 0
M  V30 3192 H 296.391 3.19717 -1.91925 0
M  V30 3193 N 298.576 1.31904 0.862503 0
M  V30 3194 C 299.523 1.20182 1.9704 0
M  V30 3195 C 300.493 0.0858247 1.65878 0
M  V30 3196 O 301.678 0.26 1.8902 0
M  V30 3197 C 298.818 0.922797 3.32533 0
M  V30 3198 C 297.931 2.12284 3.76244 0
M  V30 3199 C 297.066 1.77996 5.00491 0
M  V30 3200 C 296.105 2.94366 5.36671 0
M  V30 3201 N 295.242 2.60223 6.52095 0
M  V30 3202 H 300.082 2.14951 2.06398 0
M  V30 3203 H 297.619 1.06917 1.01031 0
M  V30 3204 H 299.577 0.741548 4.10557 0
M  V30 3205 H 298.207 0.0119227 3.22798 0
M  V30 3206 H 297.259 2.41461 2.9394 0
M  V30 3207 H 298.571 2.99357 3.98982 0
M  V30 3208 H 297.725 1.56377 5.862 0
M  V30 3209 H 296.464 0.881252 4.79672 0
M  V30 3210 H 295.469 3.16625 4.49476 0
M  V30 3211 H 296.694 3.84957 5.59451 0
M  V30 3212 H 294.64 1.72884 6.32809 0
M  V30 3213 H 294.557 3.40827 6.74814 0
M  V30 3214 H 295.825 2.42016 7.40978 0
M  V30 3215 N 300.054 -1.07777 1.14986 0
M  V30 3216 C 301.301 -1.8029 0.922056 0
M  V30 3217 C 301.629 -1.86531 -0.55105 0
M  V30 3218 O 300.884 -1.34189 -1.42449 0
M  V30 3219 C 301.183 -3.25495 1.47608 0
M  V30 3220 C 300.849 -3.39361 2.96893 0
M  V30 3221 C 299.511 -3.42852 3.37647 0
M  V30 3222 C 301.863 -3.42512 3.92854 0
M  V30 3223 C 299.191 -3.47094 4.73015 0
M  V30 3224 C 301.543 -3.4829 5.28088 0
M  V30 3225 C 300.207 -3.50058 5.68345 0
M  V30 3226 H 299.477 -0.659727 0.337404 0
M  V30 3227 H 302.124 -1.26854 1.43459 0
M  V30 3228 H 300.429 -3.81683 0.88463 0
M  V30 3229 H 302.126 -3.80168 1.27568 0
M  V30 3230 H 298.716 -3.37339 2.64387 0
M  V30 3231 H 302.9 -3.3904 3.62444 0
M  V30 3232 H 298.156 -3.46758 5.03556 0
M  V30 3233 H 302.33 -3.49675 6.02246 0
M  V30 3234 H 299.957 -3.53097 6.73221 0
M  V30 3235 N 301.532 -0.945985 -1.26051 0
M  V30 3236 C 302.48 -0.450259 -2.282 0
M  V30 3237 C 303.474 0.47497 -1.62605 0
M  V30 3238 O 304.68 0.352653 -1.76512 0
M  V30 3239 H 301.055 -0.127081 -0.741184 0
M  V30 3240 H 303.026 -1.32422 -2.67408 0
M  V30 3241 C 301.775 0.26467 -3.46691 0
M  V30 3242 H 301.098 -0.438123 -3.97392 0
M  V30 3243 H 302.538 0.575678 -4.20074 0
M  V30 3244 C 300.997 1.48416 -3.02447 0
M  V30 3245 O 301.527 2.58227 -3.07704 0
M  V30 3246 N 299.733 1.34243 -2.57735 0
M  V30 3247 H 299.28 0.448994 -2.53657 0
M  V30 3248 H 299.238 2.15957 -2.28495 0
M  V30 3249 N 303.011 1.40521 -0.713556 0
M  V30 3250 C 304.236 2.05759 -0.26035 0
M  V30 3251 C 304.661 1.53403 1.08854 0
M  V30 3252 O 304.019 0.668535 1.68524 0
M  V30 3253 C 304.067 3.59745 -0.248122 0
M  V30 3254 O 303.171 4.05123 0.77131 0
M  V30 3255 H 302.512 0.652564 -0.122703 0
M  V30 3256 H 305.042 1.79958 -0.973467 0
M  V30 3257 H 305.052 4.07911 -0.0851129 0
M  V30 3258 H 303.727 3.97218 -1.2325 0
M  V30 3259 H 302.304 3.68422 0.57619 0
M  V30 3260 N 304.489 0.459591 1.5075 0
M  V30 3261 C 305.436 -0.340524 2.28274 0
M  V30 3262 C 306.406 -0.997371 1.32822 0
M  V30 3263 O 307.591 -1.01202 1.61749 0
M  V30 3264 C 304.731 -1.42317 3.14388 0
M  V30 3265 C 303.844 -0.782251 4.24859 0
M  V30 3266 C 302.979 -1.84182 4.98247 0
M  V30 3267 C 302.018 -1.18053 6.00608 0
M  V30 3268 N 301.155 -2.18244 6.67319 0
M  V30 3269 H 305.995 0.326899 2.96202 0
M  V30 3270 H 303.532 0.173057 1.46078 0
M  V30 3271 H 305.49 -2.06241 3.62658 0
M  V30 3272 H 304.12 -2.05992 2.4853 0
M  V30 3273 H 303.172 -0.0307404 3.80388 0
M  V30 3274 H 304.484 -0.259663 4.98124 0
M  V30 3275 H 303.638 -2.55714 5.50177 0
M  V30 3276 H 302.377 -2.39819 4.24662 0
M  V30 3277 H 301.382 -0.450776 5.47949 0
M  V30 3278 H 302.607 -0.631202 6.7616 0
M  V30 3279 H 300.553 -2.72919 5.96533 0
M  V30 3280 H 300.47 -1.70938 7.36421 0
M  V30 3281 H 301.738 -2.89191 7.23871 0
M  V30 3282 N 305.967 -1.56429 0.191757 0
M  V30 3283 C 307.195 -2.01867 -0.453586 0
M  V30 3284 C 307.61 -1.07191 -1.5542 0
M  V30 3285 O 306.967 -0.0762108 -1.82341 0
M  V30 3286 C 307.018 -3.47017 -1.013 0
M  V30 3287 O 306.739 -4.38078 0.0437005 0
M  V30 3288 C 308.24 -4.07956 -1.73456 0
M  V30 3289 H 305.46 -0.661211 -0.114199 0
M  V30 3290 H 308.004 -2.02295 0.299483 0
M  V30 3291 H 306.159 -3.47298 -1.71647 0
M  V30 3292 H 306.573 -5.23178 -0.372212 0
M  V30 3293 H 308.047 -5.1138 -2.07833 0
M  V30 3294 H 308.524 -3.51222 -2.63704 0
M  V30 3295 H 309.13 -4.11437 -1.07702 0
M  V30 3296 N 307.445 0.0818655 -1.57387 0
M  V30 3297 C 308.392 1.09834 -2.0299 0
M  V30 3298 C 309.362 1.39043 -0.908639 0
M  V30 3299 O 310.547 1.50282 -1.17559 0
M  V30 3300 C 307.687 2.40971 -2.47037 0
M  V30 3301 C 306.8 2.18379 -3.7274 0
M  V30 3302 C 305.935 3.43008 -4.0561 0
M  V30 3303 C 304.974 3.15736 -5.24383 0
M  V30 3304 N 304.111 4.32667 -5.52941 0
M  V30 3305 H 308.951 0.702472 -2.89602 0
M  V30 3306 H 306.488 0.33531 -1.43227 0
M  V30 3307 H 308.446 3.1752 -2.70623 0
M  V30 3308 H 307.076 2.78379 -1.63417 0
M  V30 3309 H 306.128 1.32569 -3.56552 0
M  V30 3310 H 307.44 1.94227 -4.59431 0
M  V30 3311 H 306.594 4.27958 -4.30043 0
M  V30 3312 H 305.333 3.70225 -3.17466 0
M  V30 3313 H 304.338 2.2918 -4.99757 0
M  V30 3314 H 305.563 2.8985 -6.14136 0
M  V30 3315 H 303.509 4.59935 -4.67756 0
M  V30 3316 H 303.426 4.11753 -6.34031 0
M  V30 3317 H 304.694 5.18644 -5.81918 0
M  V30 3318 N 308.923 1.53595 0.353017 0
M  V30 3319 C 309.886 1.80232 1.41594 0
M  V30 3320 C 310.886 0.673081 1.46035 0
M  V30 3321 O 312.076 0.941335 1.46576 0
M  V30 3322 C 309.208 1.93578 2.80607 0
M  V30 3323 H 310.401 2.75174 1.19244 0
M  V30 3324 H 307.954 1.44864 0.586872 0
M  V30 3325 H 308.689 1.00746 3.08254 0
M  V30 3326 H 308.474 2.75724 2.78781 0
M  V30 3327 H 309.964 2.15735 3.57558 0
M  V30 3328 N 310.401 -0.613514 1.45168 0
M  V30 3329 C 311.65 -1.36874 1.4815 0
M  V30 3330 C 311.963 -1.952 0.124982 0
M  V30 3331 O 313.169 -2.71481 0.0324176 0
M  V30 3332 C 311.625 -2.47905 2.60904 0
M  V30 3333 C 311.233 -1.96016 4.02842 0
M  V30 3334 C 312.977 -3.24965 2.73126 0
M  V30 3335 C 310.884 -3.04494 5.06988 0
M  V30 3336 H 309.814 -0.514428 0.551253 0
M  V30 3337 H 312.465 -0.658182 1.7129 0
M  V30 3338 H 310.847 -3.21618 2.31037 0
M  V30 3339 H 312.021 -1.29051 4.4236 0
M  V30 3340 H 310.336 -1.31719 3.95018 0
M  V30 3341 H 312.933 -4.05865 3.48106 0
M  V30 3342 H 313.276 -3.75588 1.79553 0
M  V30 3343 H 313.809 -2.5835 3.0249 0
M  V30 3344 H 310.548 -2.58795 6.0225 0
M  V30 3345 H 310.068 -3.70044 4.72046 0
M  V30 3346 H 311.747 -3.68976 5.31475 0
M  V30 3347 N 311.879 -1.3236 -0.855495 0
M  V30 3348 C 313.128 -1.22226 -1.60448 0
M  V30 3349 C 313.441 0.214733 -1.94418 0
M  V30 3350 O 314.647 0.437917 -2.67945 0
M  V30 3351 C 313.103 -2.14063 -2.89318 0
M  V30 3352 C 312.711 -3.62839 -2.62777 0
M  V30 3353 C 314.455 -2.12764 -3.67331 0
M  V30 3354 C 312.362 -4.4664 -3.87643 0
M  V30 3355 H 311.292 -0.453904 -0.602069 0
M  V30 3356 H 313.943 -1.57314 -0.944698 0
M  V30 3357 H 312.325 -1.71889 -3.5675 0
M  V30 3358 H 313.499 -4.1335 -2.03662 0
M  V30 3359 H 311.814 -3.66261 -1.98096 0
M  V30 3360 H 314.411 -2.72611 -4.59987 0
M  V30 3361 H 314.754 -1.11841 -4.00995 0
M  V30 3362 H 315.287 -2.53214 -3.06802 0
M  V30 3363 H 312.026 -5.48373 -3.5912 0
M  V30 3364 H 311.546 -4.0088 -4.46156 0
M  V30 3365 H 313.225 -4.59597 -4.55389 0
M  V30 3366 N 313.357 1.07166 -1.15556 0
M  V30 3367 C 314.287 2.16403 -0.877046 0
M  V30 3368 C 315.268 1.69217 0.173111 0
M  V30 3369 O 316.453 1.94181 0.027084 0
M  V30 3370 C 313.583 3.45349 -0.367632 0
M  V30 3371 C 312.537 4.05995 -1.35468 0
M  V30 3372 C 311.863 5.30045 -0.704038 0
M  V30 3373 C 313.163 4.45804 -2.72132 0
M  V30 3374 H 314.857 2.39959 -1.79053 0
M  V30 3375 H 312.403 1.15325 -0.862331 0
M  V30 3376 H 314.356 4.21095 -0.160317 0
M  V30 3377 H 313.08 3.21385 0.581326 0
M  V30 3378 H 311.739 3.32296 -1.54839 0
M  V30 3379 H 311.387 5.02373 0.251128 0
M  V30 3380 H 311.087 5.71579 -1.36277 0
M  V30 3381 H 312.611 6.08495 -0.50654 0
M  V30 3382 H 314.025 5.12671 -2.56595 0
M  V30 3383 H 312.422 4.98296 -3.34397 0
M  V30 3384 H 313.492 3.57083 -3.28054 0
M  V30 3385 N 314.835 0.952656 1.25548 0
M  V30 3386 C 315.783 0.462354 2.27958 0
M  V30 3387 C 316.777 -0.46634 1.62855 0
M  V30 3388 O 317.983 -0.343287 1.76696 0
M  V30 3389 H 314.358 0.13101 0.7405 0
M  V30 3390 H 316.329 1.33839 2.66702 0
M  V30 3391 C 315.078 -0.24628 3.46827 0
M  V30 3392 H 314.401 0.459192 3.97154 0
M  V30 3393 H 315.841 -0.553393 4.20373 0
M  V30 3394 C 314.3 -1.4681 3.0323 0
M  V30 3395 O 314.83 -2.56591 3.09069 0
M  V30 3396 N 313.036 -1.32874 2.58443 0
M  V30 3397 H 312.583 -0.435536 2.53891 0
M  V30 3398 H 312.541 -2.14742 2.29637 0
M  V30 3399 N 316.313 -1.40141 0.720998 0
M  V30 3400 C 317.541 -2.05096 0.272656 0
M  V30 3401 C 317.956 -1.54334 -1.0875 0
M  V30 3402 O 317.313 -0.702211 -1.6845 0
M  V30 3403 C 317.364 -3.60636 0.249835 0
M  V30 3404 O 317.085 -4.09526 1.55629 0
M  V30 3405 C 318.586 -4.42772 -0.216396 0
M  V30 3406 H 315.806 -0.659897 0.121558 0
M  V30 3407 H 318.35 -1.79449 0.980723 0
M  V30 3408 H 316.505 -3.85232 -0.409237 0
M  V30 3409 H 316.919 -5.03758 1.4604 0
M  V30 3410 H 318.393 -5.51702 -0.181212 0
M  V30 3411 H 318.87 -4.20756 -1.25941 0
M  V30 3412 H 319.476 -4.23294 0.412596 0
M  V30 3413 N 317.792 -0.46758 -1.50504 0
M  V30 3414 C 319.203 -0.0116166 -1.86696 0
M  V30 3415 C 319.554 1.39202 -1.38265 0
M  V30 3416 O 318.679 2.0313 -0.746132 0
M  V30 3417 C 319.274 -0.0143044 -3.38797 0
M  V30 3418 C 317.833 0.386175 -3.74414 0
M  V30 3419 C 316.98 -0.401287 -2.74381 0
M  V30 3420 H 319.931 -0.682022 -1.43297 0
M  V30 3421 H 319.952 0.788641 -3.72237 0
M  V30 3422 H 319.464 -1.03602 -3.74016 0
M  V30 3423 H 317.565 1.41237 -3.44794 0
M  V30 3424 H 317.678 0.0899596 -4.79016 0
M  V30 3425 H 316.042 0.144536 -2.5429 0
M  V30 3426 H 316.825 -1.42244 -3.12444 0
M  V30 3427 N 319.27 1.56325 -0.20005 0
M  V30 3428 C 320.22 2.15939 0.731743 0
M  V30 3429 C 321.204 1.10154 1.17281 0
M  V30 3430 O 322.396 1.36203 1.13038 0
M  V30 3431 C 319.525 2.82614 1.94895 0
M  V30 3432 C 318.611 3.95596 1.52855 0
M  V30 3433 N 319.002 4.99118 0.819418 0
M  V30 3434 C 317.3 4.07288 1.81748 0
M  V30 3435 C 318.001 5.78513 0.608053 0
M  V30 3436 N 316.977 5.31117 1.15828 0
M  V30 3437 H 320.779 2.9334 0.181285 0
M  V30 3438 H 318.293 1.624 -0.000452172 0
M  V30 3439 H 320.29 3.23718 2.62702 0
M  V30 3440 H 318.95 2.06702 2.50408 0
M  V30 3441 H 319.961 5.15723 0.47436 0
M  V30 3442 H 316.638 3.42509 2.38734 0
M  V30 3443 H 318.028 6.71885 0.0451619 0
M  V30 3444 N 320.748 -0.0735177 1.57428 0
M  V30 3445 C 321.696 -1.10628 2.04607 0
M  V30 3446 C 322.69 -1.40181 0.951088 0
M  V30 3447 O 323.896 -1.39608 1.1362 0
M  V30 3448 H 320.271 -0.374088 0.652351 0
M  V30 3449 H 322.242 -0.682218 2.90497 0
M  V30 3450 C 320.991 -2.41212 2.50423 0
M  V30 3451 H 320.314 -2.19322 3.34272 0
M  V30 3452 H 321.754 -3.11927 2.87189 0
M  V30 3453 C 320.213 -3.0705 1.38644 0
M  V30 3454 O 320.743 -3.95056 0.727582 0
M  V30 3455 N 318.949 -2.67645 1.132 0
M  V30 3456 H 318.496 -1.96169 1.66959 0
M  V30 3457 H 318.454 -3.1202 0.386147 0
M  V30 3458 N 322.226 -1.5378 -0.344866 0
M  V30 3459 C 323.637 -1.62428 -0.920552 0
M  V30 3460 C 323.988 -0.504747 -1.89596 0
M  V30 3461 O 323.113 0.365711 -2.13287 0
M  V30 3462 C 323.708 -2.94419 -1.67639 0
M  V30 3463 C 322.267 -3.05333 -2.20111 0
M  V30 3464 C 321.414 -2.57866 -1.01982 0
M  V30 3465 H 324.365 -1.58222 -0.123042 0
M  V30 3466 H 324.386 -2.83384 -2.53917 0
M  V30 3467 H 323.898 -3.7588 -0.966224 0
M  V30 3468 H 321.999 -2.28502 -2.94308 0
M  V30 3469 H 322.112 -4.10778 -2.46573 0
M  V30 3470 H 320.476 -2.13241 -1.39285 0
M  V30 3471 H 321.259 -3.41765 -0.324308 0
M  V30 3472 N 323.704 0.605807 -1.45491 0
M  V30 3473 C 324.634 1.72709 -1.57143 0
M  V30 3474 C 325.615 1.6476 -0.422884 0
M  V30 3475 O 326.8 1.83132 -0.646247 0
M  V30 3476 C 323.93 3.11316 -1.53948 0
M  V30 3477 C 322.884 3.34077 -2.67537 0
M  V30 3478 C 322.21 4.72975 -2.49397 0
M  V30 3479 C 323.51 3.24158 -4.09535 0
M  V30 3480 H 325.204 1.63214 -2.51001 0
M  V30 3481 H 322.75 0.78379 -1.208 0
M  V30 3482 H 324.703 3.89557 -1.60696 0
M  V30 3483 H 323.427 3.21655 -0.566205 0
M  V30 3484 H 322.086 2.58227 -2.6022 0
M  V30 3485 H 321.734 4.8005 -1.50205 0
M  V30 3486 H 321.434 4.8916 -3.25571 0
M  V30 3487 H 322.958 5.53414 -2.58002 0
M  V30 3488 H 324.372 3.92271 -4.18086 0
M  V30 3489 H 322.769 3.51872 -4.86113 0
M  V30 3490 H 323.839 2.2157 -4.31317 0
M  V30 3491 N 325.182 1.32811 0.848464 0
M  V30 3492 C 326.43 1.23479 1.59991 0
M  V30 3493 C 326.751 -0.201853 1.93952 0
M  V30 3494 O 326.021 -1.12818 1.60153 0
M  V30 3495 H 324.601 0.454034 0.593179 0
M  V30 3496 H 327.263 1.66412 1.01455 0
M  V30 3497 H 326.359 1.82178 2.53412 0
M  V30 3498 N 326.66 -1.06551 1.16123 0
M  V30 3499 C 327.607 -2.13961 0.865414 0
M  V30 3500 C 328.577 -1.65066 -0.185055 0
M  V30 3501 O 329.762 -1.90732 -0.05083 0
M  V30 3502 C 326.902 -3.43113 0.369776 0
M  V30 3503 C 326.015 -4.05756 1.48276 0
M  V30 3504 C 325.15 -5.22773 0.942414 0
M  V30 3505 C 324.189 -5.77395 2.03179 0
M  V30 3506 N 323.326 -6.85731 1.50721 0
M  V30 3507 H 328.166 -2.38605 1.78527 0
M  V30 3508 H 325.703 -1.17072 0.890646 0
M  V30 3509 H 327.661 -4.17151 0.0640643 0
M  V30 3510 H 326.291 -3.18695 -0.513143 0
M  V30 3511 H 325.343 -3.29292 1.9045 0
M  V30 3512 H 326.655 -4.42351 2.30493 0
M  V30 3513 H 325.809 -6.03827 0.589729 0
M  V30 3514 H 324.548 -4.87618 0.0895191 0
M  V30 3515 H 323.553 -4.94981 2.3932 0
M  V30 3516 H 324.778 -6.14603 2.8886 0
M  V30 3517 H 322.724 -6.52499 0.676811 0
M  V30 3518 H 322.641 -7.21254 2.26557 0
M  V30 3519 H 323.909 -7.7047 1.18303 0
M  V30 3520 N 328.138 -0.959301 -1.25041 0
M  V30 3521 C 329.384 -0.617525 -1.9317 0
M  V30 3522 C 329.717 0.843981 -1.74902 0
M  V30 3523 O 328.992 1.60615 -1.09696 0
M  V30 3524 C 329.275 -0.982736 -3.46431 0
M  V30 3525 C 329.128 -2.50032 -3.73904 0
M  V30 3526 C 330.447 -0.511176 -4.37121 0
M  V30 3527 H 327.566 -0.22582 -0.701552 0
M  V30 3528 H 330.208 -1.19679 -1.4757 0
M  V30 3529 H 328.358 -0.489806 -3.854 0
M  V30 3530 H 330.03 -3.06737 -3.44544 0
M  V30 3531 H 328.273 -2.93598 -3.19348 0
M  V30 3532 H 328.944 -2.70635 -4.81103 0
M  V30 3533 H 331.42 -0.934075 -4.0548 0
M  V30 3534 H 330.296 -0.795361 -5.43107 0
M  V30 3535 H 330.557 0.588834 -4.38161 0
M  V30 3536 N 329.616 1.39756 -0.72842 0
M  V30 3537 C 330.846 2.04651 -0.283117 0
M  V30 3538 C 331.254 1.5502 1.08469 0
M  V30 3539 O 330.597 0.707343 1.69536 0
M  V30 3540 C 330.659 3.58947 -0.199309 0
M  V30 3541 C 330.323 4.31525 -1.5045 0
M  V30 3542 C 331.32 4.5861 -2.44894 0
M  V30 3543 C 329.005 4.70195 -1.76698 0
M  V30 3544 C 330.999 5.23366 -3.63822 0
M  V30 3545 C 328.686 5.3468 -2.95906 0
M  V30 3546 C 329.684 5.61198 -3.89289 0
M  V30 3547 O 329.372 6.24347 -5.06404 0
M  V30 3548 H 329.104 0.664777 -0.122666 0
M  V30 3549 H 331.658 1.79913 -0.990987 0
M  V30 3550 H 329.888 3.82556 0.56461 0
M  V30 3551 H 331.577 4.0534 0.213125 0
M  V30 3552 H 332.343 4.29187 -2.25883 0
M  V30 3553 H 328.222 4.48916 -1.04859 0
M  V30 3554 H 331.766 5.4398 -4.36728 0
M  V30 3555 H 327.663 5.63524 -3.14819 0
M  V30 3556 H 328.431 6.42842 -5.06652 0
M  V30 3557 N 331.094 0.475555 1.50254 0
M  V30 3558 C 332.042 -0.330276 2.30243 0
M  V30 3559 C 333.036 -0.986306 1.37726 0
M  V30 3560 O 334.242 -0.9169 1.54897 0
M  V30 3561 H 330.617 -0.125353 0.741479 0
M  V30 3562 H 332.588 0.364702 2.96163 0
M  V30 3563 C 331.337 -1.39704 3.18399 0
M  V30 3564 H 330.66 -0.901621 3.89501 0
M  V30 3565 H 332.1 -1.93336 3.77355 0
M  V30 3566 C 330.559 -2.4014 2.36293 0
M  V30 3567 O 331.089 -3.45504 2.04914 0
M  V30 3568 N 329.295 -2.1197 1.98789 0
M  V30 3569 H 328.842 -1.2631 2.24507 0
M  V30 3570 H 328.8 -2.79403 1.44157 0
M  V30 3571 N 332.573 -1.56217 0.208337 0
M  V30 3572 C 333.989 -1.58919 -0.14729 0
M  V30 3573 C 334.189 -1.22486 -1.59998 0
M  V30 3574 O 333.245 -0.953849 -2.3379 0
M  V30 3575 C 334.558 -3.00236 0.167048 0
M  V30 3576 C 336.106 -3.12813 0.108219 0
M  V30 3577 C 336.581 -4.56284 0.396049 0
M  V30 3578 N 338.072 -4.61912 0.345142 0
M  V30 3579 C 338.807 -5.70837 0.541523 0
M  V30 3580 N 338.303 -6.88178 0.798968 0
M  V30 3581 N 340.096 -5.60091 0.474867 0
M  V30 3582 H 332.247 -1.78177 1.15614 0
M  V30 3583 H 334.51 -0.827555 0.462446 0
M  V30 3584 H 334.216 -3.31499 1.1748 0
M  V30 3585 H 334.09 -3.7354 -0.524184 0
M  V30 3586 H 336.477 -2.81354 -0.890157 0
M  V30 3587 H 336.558 -2.41866 0.832729 0
M  V30 3588 H 336.202 -4.88458 1.3918 0
M  V30 3589 H 336.132 -5.25439 -0.349502 0
M  V30 3590 H 338.623 -3.77589 0.153316 0
M  V30 3591 H 338.936 -7.67095 0.93727 0
M  V30 3592 H 337.281 -6.89953 0.836013 0
M  V30 3593 H 340.472 -4.67297 0.274064 0
M  V30 3594 H 340.645 -6.44917 0.631326 0
M  V30 3595 N 334.051 0.0651679 -1.57465 0
M  V30 3596 C 334.961 1.09448 -2.07505 0
M  V30 3597 C 335.977 1.41974 -1.00595 0
M  V30 3598 O 337.153 1.52018 -1.32107 0
M  V30 3599 C 334.218 2.38689 -2.51453 0
M  V30 3600 C 333.279 2.13073 -3.72691 0
M  V30 3601 C 332.512 3.36152 -4.14533 0
M  V30 3602 O 332.735 4.45517 -3.56189 0
M  V30 3603 O 331.669 3.23974 -5.07272 0
M  V30 3604 H 335.495 0.69935 -2.95538 0
M  V30 3605 H 333.08 0.279752 -1.46757 0
M  V30 3606 H 334.962 3.14736 -2.80212 0
M  V30 3607 H 333.637 2.77568 -1.66546 0
M  V30 3608 H 332.544 1.34709 -3.49005 0
M  V30 3609 H 333.877 1.79071 -4.5847 0
M  V30 3610 N 335.529 1.53961 0.336706 0
M  V30 3611 C 336.439 1.85432 1.43708 0
M  V30 3612 C 337.455 0.745053 1.57242 0
M  V30 3613 O 338.631 1.03804 1.72588 0
M  V30 3614 C 335.696 2.06349 2.78605 0
M  V30 3615 C 334.757 3.30191 2.74358 0
M  V30 3616 C 333.99 3.50101 4.02822 0
M  V30 3617 O 334.213 2.7371 5.00439 0
M  V30 3618 O 333.147 4.43547 4.06878 0
M  V30 3619 H 336.973 2.78975 1.20028 0
M  V30 3620 H 334.558 1.39701 0.52952 0
M  V30 3621 H 336.44 2.21513 3.58483 0
M  V30 3622 H 335.115 1.15995 3.02203 0
M  V30 3623 H 334.022 3.20425 1.93078 0
M  V30 3624 H 335.355 4.2056 2.55715 0
M  V30 3625 N 337.007 -0.598083 1.45811 0
M  V30 3626 C 337.937 -1.71873 1.58057 0
M  V30 3627 C 338.918 -1.64533 0.431615 0
M  V30 3628 O 340.103 -1.82787 0.65595 0
M  V30 3629 C 337.233 -3.10495 1.55597 0
M  V30 3630 C 336.187 -3.32654 2.69305 0
M  V30 3631 C 335.513 -4.71646 2.51902 0
M  V30 3632 C 336.813 -3.21981 4.11248 0
M  V30 3633 H 338.507 -1.61881 2.51863 0
M  V30 3634 H 336.053 -0.777372 1.21214 0
M  V30 3635 H 338.006 -3.88699 1.6276 0
M  V30 3636 H 336.73 -3.2135 0.583255 0
M  V30 3637 H 335.389 -2.56843 2.61586 0
M  V30 3638 H 335.037 -4.79246 1.52748 0
M  V30 3639 H 334.737 -4.87426 3.2816 0
M  V30 3640 H 336.261 -5.52038 2.60933 0
M  V30 3641 H 337.675 -3.90049 4.20161 0
M  V30 3642 H 336.072 -3.49289 4.87972 0
M  V30 3643 H 337.142 -2.1928 4.32486 0
M  V30 3644 N 338.485 -1.33259 -0.841409 0
M  V30 3645 C 339.417 -1.19136 -1.95804 0
M  V30 3646 C 340.43 -0.122965 -1.62335 0
M  V30 3647 O 341.619 -0.373154 -1.74556 0
M  V30 3648 C 338.719 -0.804268 -3.29218 0
M  V30 3649 C 337.892 -1.96376 -3.90839 0
M  V30 3650 C 336.951 -1.55806 -5.02604 0
M  V30 3651 O 335.977 -2.27203 -5.21888 0
M  V30 3652 N 337.179 -0.461609 -5.78662 0
M  V30 3653 H 339.944 -2.15326 -2.08458 0
M  V30 3654 H 337.505 -1.25971 -1.017 0
M  V30 3655 H 339.497 -0.51501 -4.0141 0
M  V30 3656 H 338.067 0.0668809 -3.12528 0
M  V30 3657 H 337.287 -2.41879 -3.11269 0
M  V30 3658 H 338.575 -2.73966 -4.28742 0
M  V30 3659 H 337.973 0.132343 -5.65545 0
M  V30 3660 H 336.53 -0.232013 -6.51387 0
M  V30 3661 N 339.963 1.05934 -1.16686 0
M  V30 3662 C 341.209 1.79065 -0.95203 0
M  V30 3663 C 341.542 1.87147 0.518629 0
M  V30 3664 O 340.817 1.36574 1.38484 0
M  V30 3665 C 341.1 3.23359 -1.58464 0
M  V30 3666 C 340.953 3.23336 -3.12689 0
M  V30 3667 C 342.272 4.21004 -1.28232 0
M  V30 3668 H 339.391 0.65005 -0.34728 0
M  V30 3669 H 342.033 1.23868 -1.44072 0
M  V30 3670 H 340.183 3.70493 -1.16908 0
M  V30 3671 H 341.855 2.84336 -3.6325 0
M  V30 3672 H 340.098 2.61886 -3.4583 0
M  V30 3673 H 340.769 4.25144 -3.52075 0
M  V30 3674 H 343.245 3.8233 -1.64203 0
M  V30 3675 H 342.121 5.20225 -1.75092 0
M  V30 3676 H 342.382 4.41639 -0.201791 0
M  V30 3677 N 341.441 0.965919 1.2453 0
M  V30 3678 C 342.69 0.622437 1.91856 0
M  V30 3679 C 343.003 -0.846006 1.76358 0
M  V30 3680 O 344.209 -1.29993 2.38357 0
M  V30 3681 C 342.665 1.0626 3.43856 0
M  V30 3682 C 342.273 2.55437 3.68043 0
M  V30 3683 C 344.017 0.792183 4.17043 0
M  V30 3684 C 341.924 2.93196 5.13605 0
M  V30 3685 H 340.854 0.229092 0.718354 0
M  V30 3686 H 343.505 1.17189 1.41206 0
M  V30 3687 H 341.887 0.441476 3.93531 0
M  V30 3688 H 343.061 3.22665 3.28974 0
M  V30 3689 H 341.376 2.8007 3.08139 0
M  V30 3690 H 343.973 1.05031 5.24283 0
M  V30 3691 H 344.316 -0.271584 4.15413 0
M  V30 3692 H 344.849 1.37419 3.73311 0
M  V30 3693 H 341.588 3.98636 5.20355 0
M  V30 3694 H 341.108 2.30651 5.53679 0
M  V30 3695 H 342.787 2.83004 5.81823 0
M  V30 3696 N 342.919 -1.39368 0.735821 0
M  V30 3697 C 343.882 -2.2896 0.104874 0
M  V30 3698 C 344.882 -1.46347 -0.666274 0
M  V30 3699 O 346.072 -1.67014 -0.49517 0
M  V30 3700 C 343.204 -3.29857 -0.860656 0
M  V30 3701 H 344.397 -2.86259 0.894205 0
M  V30 3702 H 341.95 -1.48029 0.501704 0
M  V30 3703 H 342.685 -2.77615 -1.67631 0
M  V30 3704 H 342.47 -3.9087 -0.310327 0
M  V30 3705 H 343.96 -3.96893 -1.29867 0
M  V30 3706 N 344.397 -0.483516 -1.5 0
M  V30 3707 C 345.674 0.129337 -1.95172 0
M  V30 3708 C 346.054 1.55802 -1.4244 0
M  V30 3709 O 345.402 2.19625 -0.630649 0
M  V30 3710 C 345.612 0.0599251 -3.48949 0
M  V30 3711 C 346.96 0.242617 -4.23906 0
M  V30 3712 O 347.984 0.135933 -3.55941 0
M  V30 3713 O 346.843 0.459454 -5.44565 0
M  V30 3714 H 343.937 0.104887 -0.820322 0
M  V30 3715 H 346.483 -0.544807 -1.60717 0
M  V30 3716 H 345.255 -0.937079 -3.79914 0
M  V30 3717 H 344.878 0.774984 -3.89974 0
M  V30 3718 N 345.875 1.56104 -0.216619 0
M  V30 3719 C 346.805 2.23063 0.690296 0
M  V30 3720 C 347.786 1.20072 1.20485 0
M  V30 3721 O 348.971 1.48643 1.24976 0
M  V30 3722 C 346.101 2.90672 1.90072 0
M  V30 3723 C 345.055 4.00092 1.5202 0
M  V30 3724 C 344.381 4.54972 2.80899 0
M  V30 3725 C 345.681 5.17398 0.71391 0
M  V30 3726 H 347.375 2.99109 0.132038 0
M  V30 3727 H 344.921 1.43866 0.0620664 0
M  V30 3728 H 346.874 3.36204 2.54057 0
M  V30 3729 H 345.598 2.12066 2.48386 0
M  V30 3730 H 344.257 3.55283 0.903839 0
M  V30 3731 H 343.905 3.73102 3.37348 0
M  V30 3732 H 343.605 5.28817 2.56176 0
M  V30 3733 H 345.129 5.0322 3.45836 0
M  V30 3734 H 346.543 5.59342 1.25735 0
M  V30 3735 H 344.94 5.97444 0.563951 0
M  V30 3736 H 346.01 4.84088 -0.280527 0
M  V30 3737 N 347.353 -0.0568162 1.57498 0
M  V30 3738 C 348.593 -0.758273 1.89815 0
M  V30 3739 C 348.957 -1.73978 0.812132 0
M  V30 3740 O 350.158 -2.48744 1.01881 0
M  V30 3741 C 348.429 -1.43465 3.27342 0
M  V30 3742 S 349.988 -2.1691 3.81439 0
M  V30 3743 H 346.806 -0.251836 0.664906 0
M  V30 3744 H 349.408 -0.0137997 1.95495 0
M  V30 3745 H 348.112 -0.706693 4.0427 0
M  V30 3746 H 347.643 -2.21825 3.24896 0
M  V30 3747 H 349.658 -3.43658 3.5793 0
M  V30 3748 N 348.832 -1.54138 -0.328536 0
M  V30 3749 C 350.081 -1.71318 -1.06456 0
M  V30 3750 C 350.394 -0.491109 -1.89334 0
M  V30 3751 O 351.6 -0.54416 -2.65991 0
M  V30 3752 C 350.056 -3.03 -1.94214 0
M  V30 3753 C 349.664 -4.32595 -1.16471 0
M  V30 3754 C 351.408 -3.29544 -2.67583 0
M  V30 3755 C 349.315 -5.55341 -2.03347 0
M  V30 3756 H 348.245 -0.638429 -0.401155 0
M  V30 3757 H 350.896 -1.80633 -0.323106 0
M  V30 3758 H 349.278 -2.87579 -2.72239 0
M  V30 3759 H 350.452 -4.58766 -0.432525 0
M  V30 3760 H 348.767 -4.12777 -0.548063 0
M  V30 3761 H 351.364 -4.18444 -3.3288 0
M  V30 3762 H 351.707 -2.47206 -3.34955 0
M  V30 3763 H 352.24 -3.45809 -1.96623 0
M  V30 3764 H 348.979 -6.40268 -1.40491 0
M  V30 3765 H 348.499 -5.33397 -2.74313 0
M  V30 3766 H 350.178 -5.91557 -2.62049 0
M  V30 3767 N 350.31 0.590341 -1.46126 0
M  V30 3768 C 351.257 1.69994 -1.56111 0
M  V30 3769 C 352.227 1.61065 -0.405867 0
M  V30 3770 O 353.412 1.8039 -0.621613 0
M  V30 3771 C 350.552 3.08326 -1.55013 0
M  V30 3772 C 349.665 3.27936 -2.81215 0
M  V30 3773 C 348.8 4.56473 -2.71673 0
M  V30 3774 C 347.839 4.694 -3.92849 0
M  V30 3775 N 346.976 5.89254 -3.81738 0
M  V30 3776 H 351.816 1.60797 -2.50895 0
M  V30 3777 H 349.353 0.783799 -1.24479 0
M  V30 3778 H 351.311 3.88383 -1.52362 0
M  V30 3779 H 349.941 3.16439 -0.637667 0
M  V30 3780 H 348.993 2.41536 -2.93879 0
M  V30 3781 H 350.305 3.33357 -3.71045 0
M  V30 3782 H 349.459 5.44748 -2.67085 0
M  V30 3783 H 348.198 4.53477 -1.7947 0
M  V30 3784 H 347.203 3.79544 -3.97777 0
M  V30 3785 H 348.428 4.7418 -4.86138 0
M  V30 3786 H 346.374 5.87271 -2.92317 0
M  V30 3787 H 346.291 5.95911 -4.65217 0
M  V30 3788 H 347.559 6.79981 -3.81112 0
M  V30 3789 N 351.788 1.33704 0.83433 0
M  V30 3790 C 353.018 1.28281 1.6195 0
M  V30 3791 C 353.426 -0.147603 1.88623 0
M  V30 3792 O 352.769 -1.1016 1.47005 0
M  V30 3793 C 352.831 1.99386 2.99141 0
M  V30 3794 C 352.495 3.48681 2.95416 0
M  V30 3795 C 353.492 4.438 2.70809 0
M  V30 3796 C 351.177 3.90925 3.15409 0
M  V30 3797 C 353.171 5.79138 2.66229 0
M  V30 3798 C 350.858 5.26366 3.10454 0
M  V30 3799 C 351.856 6.20284 2.85895 0
M  V30 3800 O 351.544 7.53245 2.80852 0
M  V30 3801 H 351.276 0.44315 0.510484 0
M  V30 3802 H 353.83 1.76711 1.04702 0
M  V30 3803 H 352.06 1.45554 3.58261 0
M  V30 3804 H 353.749 1.87403 3.60049 0
M  V30 3805 H 354.515 4.12485 2.5511 0
M  V30 3806 H 350.394 3.18229 3.33543 0
M  V30 3807 H 353.938 6.52416 2.4698 0
M  V30 3808 H 349.835 5.57304 3.25703 0
M  V30 3809 H 350.603 7.62846 2.96661 0
M  V30 3810 N 353.266 -1.05314 1.17247 0
M  V30 3811 C 354.543 -1.75184 0.87005 0
M  V30 3812 C 354.923 -2.01481 -0.629965 0
M  V30 3813 O 354.271 -1.64988 -1.58086 0
M  V30 3814 C 354.481 -3.04594 1.70363 0
M  V30 3815 C 355.829 -3.78567 1.92281 0
M  V30 3816 O 356.853 -3.14461 1.67311 0
M  V30 3817 O 355.712 -4.93755 2.3424 0
M  V30 3818 H 352.806 -0.761729 0.322021 0
M  V30 3819 H 355.352 -1.11493 1.27935 0
M  V30 3820 H 354.124 -2.81201 2.72106 0
M  V30 3821 H 353.747 -3.76022 1.29202 0
M  V30 3822 N 354.744 -0.972509 -1.24016 0
M  V30 3823 C 355.972 -0.654803 -1.96265 0
M  V30 3824 C 356.387 0.776708 -1.72083 0
M  V30 3825 O 355.744 1.52171 -1.00748 0
M  V30 3826 C 355.795 -0.92592 -3.49441 0
M  V30 3827 O 355.516 -2.30116 -3.72798 0
M  V30 3828 C 357.017 -0.623068 -4.38899 0
M  V30 3829 H 354.237 -0.243907 -0.6251 0
M  V30 3830 H 356.781 -1.30175 -1.57717 0
M  V30 3831 H 354.936 -0.325108 -3.86033 0
M  V30 3832 H 355.35 -2.38483 -4.67147 0
M  V30 3833 H 356.824 -0.863189 -5.45209 0
M  V30 3834 H 357.301 0.442754 -4.36963 0
M  V30 3835 H 357.907 -1.204 -4.07902 0
M  V30 3836 N 356.222 1.38976 -0.743202 0
M  V30 3837 C 357.152 2.33171 -0.123873 0
M  V30 3838 C 358.133 1.54336 0.71516 0
M  V30 3839 O 359.318 1.82696 0.658467 0
M  V30 3840 C 356.448 3.38474 0.777978 0
M  V30 3841 C 355.402 4.27979 0.0424758 0
M  V30 3842 C 354.728 5.2405 1.06189 0
M  V30 3843 C 356.028 5.10155 -1.1198 0
M  V30 3844 H 357.722 2.85213 -0.910709 0
M  V30 3845 H 355.268 1.37133 -0.439388 0
M  V30 3846 H 357.221 4.03328 1.22084 0
M  V30 3847 H 355.945 2.84891 1.59702 0
M  V30 3848 H 354.604 3.64616 -0.380853 0
M  V30 3849 H 354.252 4.66758 1.87472 0
M  V30 3850 H 353.952 5.84785 0.574485 0
M  V30 3851 H 355.476 5.9178 1.50428 0
M  V30 3852 H 356.89 5.68307 -0.75499 0
M  V30 3853 H 355.287 5.80073 -1.53738 0
M  V30 3854 H 356.357 4.44504 -1.93764 0
M  V30 3855 N 357.7 0.491464 1.49741 0
M  V30 3856 C 358.94 -0.0549118 2.04326 0
M  V30 3857 C 359.304 -1.35148 1.36378 0
M  V30 3858 O 360.505 -1.9815 1.81631 0
M  V30 3859 C 358.776 -0.213841 3.5676 0
M  V30 3860 S 360.335 -0.715839 4.32922 0
M  V30 3861 H 357.153 -0.00630513 0.710972 0
M  V30 3862 H 359.755 0.663257 1.83905 0
M  V30 3863 H 358.459 0.73527 4.0376 0
M  V30 3864 H 357.99 -0.957529 3.81569 0
M  V30 3865 H 360.005 -1.9864 4.54705 0
M  V30 3866 N 359.178 -1.55987 0.224894 0
M  V30 3867 C 360.427 -1.97566 -0.406273 0
M  V30 3868 C 360.74 -1.11569 -1.6066 0
M  V30 3869 O 361.946 -1.43062 -2.3075 0
M  V30 3870 C 360.402 -3.51474 -0.774207 0
M  V30 3871 C 360.01 -4.46179 0.403496 0
M  V30 3872 C 361.754 -4.01758 -1.37079 0
M  V30 3873 C 359.661 -5.91399 0.0129412 0
M  V30 3874 H 358.591 -0.737777 -0.155565 0
M  V30 3875 H 361.242 -1.80659 0.321635 0
M  V30 3876 H 359.624 -3.63994 -1.55963 0
M  V30 3877 H 360.798 -4.45409 1.18101 0
M  V30 3878 H 359.113 -4.06255 0.913536 0
M  V30 3879 H 361.71 -5.07756 -1.67596 0
M  V30 3880 H 362.053 -3.47805 -2.28773 0
M  V30 3881 H 362.586 -3.92475 -0.648733 0
M  V30 3882 H 359.325 -6.49341 0.896451 0
M  V30 3883 H 358.845 -5.95356 -0.728821 0
M  V30 3884 H 360.524 -6.45683 -0.412582 0
M  V30 3885 N 360.656 0.0484629 -1.57525 0
M  V30 3886 C 361.881 0.759177 -1.93006 0
M  V30 3887 C 362.306 1.69125 -0.823317 0
M  V30 3888 O 361.664 1.79931 0.222364 0
M  V30 3889 C 361.712 1.50899 -3.27509 0
M  V30 3890 O 360.816 2.62112 -3.18388 0
M  V30 3891 H 360.157 0.205564 -0.631379 0
M  V30 3892 H 362.687 0.00972959 -2.04598 0
M  V30 3893 H 362.697 1.88317 -3.6194 0
M  V30 3894 H 361.372 0.825269 -4.0763 0
M  V30 3895 H 359.949 2.27379 -2.95556 0
M  V30 3896 N 362.134 1.5431 0.320358 0
M  V30 3897 C 363.411 1.63322 1.07635 0
M  V30 3898 C 363.791 0.46912 2.05821 0
M  V30 3899 O 363.139 -0.536274 2.22118 0
M  V30 3900 C 363.349 3.00465 1.77544 0
M  V30 3901 C 364.697 3.56621 2.30449 0
M  V30 3902 O 365.721 3.02791 1.87606 0
M  V30 3903 O 364.58 4.5083 3.08892 0
M  V30 3904 H 361.674 0.661502 0.496331 0
M  V30 3905 H 364.22 1.66656 0.319992 0
M  V30 3906 H 362.992 3.76629 1.06143 0
M  V30 3907 H 362.615 3.00824 2.59982 0
M  V30 3908 N 363.613 -0.582584 1.46437 0
M  V30 3909 C 364.523 -1.71949 1.59595 0
M  V30 3910 C 365.539 -1.67264 0.479443 0
M  V30 3911 O 366.715 -1.87171 0.743579 0
M  V30 3912 C 363.78 -3.08452 1.58298 0
M  V30 3913 C 362.841 -3.244 2.81182 0
M  V30 3914 C 362.074 -4.54391 2.79937 0
M  V30 3915 O 362.297 -5.38287 1.8869 0
M  V30 3916 O 361.231 -4.73588 3.71481 0
M  V30 3917 H 365.057 -1.63795 2.55744 0
M  V30 3918 H 362.642 -0.749643 1.29231 0
M  V30 3919 H 364.524 -3.89732 1.60271 0
M  V30 3920 H 363.199 -3.17043 0.653094 0
M  V30 3921 H 362.106 -2.42613 2.84763 0
M  V30 3922 H 363.439 -3.20699 3.7338 0
M  V30 3923 N 365.091 -1.34144 -0.827227 0
M  V30 3924 C 366.337 -1.26446 -1.58554 0
M  V30 3925 C 366.67 0.1664 -1.93486 0
M  V30 3926 O 365.945 1.1107 -1.59667 0
M  V30 3927 C 366.228 -2.15111 -2.8879 0
M  V30 3928 C 366.081 -3.66712 -2.60465 0
M  V30 3929 C 367.4 -2.03311 -3.90324 0
M  V30 3930 H 364.519 -0.46067 -0.575284 0
M  V30 3931 H 367.161 -1.64356 -0.953269 0
M  V30 3932 H 365.311 -1.8291 -3.42748 0
M  V30 3933 H 366.983 -4.09259 -2.1285 0
M  V30 3934 H 365.226 -3.88014 -1.93978 0
M  V30 3935 H 365.897 -4.24112 -3.53317 0
M  V30 3936 H 368.373 -2.31574 -3.45706 0
M  V30 3937 H 367.249 -2.67582 -4.79261 0
M  V30 3938 H 367.51 -1.00879 -4.30437 0
M  V30 3939 N 366.569 1.04691 -1.17803 0
M  V30 3940 C 367.799 1.81183 -0.992788 0
M  V30 3941 C 368.207 1.8347 0.462098 0
M  V30 3942 O 367.55 1.2643 1.33271 0
M  V30 3943 C 367.612 3.28363 -1.46349 0
M  V30 3944 C 367.276 3.49749 -2.94151 0
M  V30 3945 C 368.273 3.41456 -3.92051 0
M  V30 3946 C 365.958 3.76548 -3.32441 0
M  V30 3947 C 367.952 3.59656 -5.26238 0
M  V30 3948 C 365.639 3.94396 -4.66792 0
M  V30 3949 C 366.637 3.8595 -5.635 0
M  V30 3950 O 366.325 4.03294 -6.9542 0
M  V30 3951 H 366.057 0.577622 -0.351182 0
M  V30 3952 H 368.611 1.32876 -1.5663 0
M  V30 3953 H 366.841 3.77609 -0.833574 0
M  V30 3954 H 368.53 3.86395 -1.24313 0
M  V30 3955 H 369.296 3.20723 -3.63815 0
M  V30 3956 H 365.175 3.82224 -2.57732 0
M  V30 3957 H 368.719 3.52979 -6.01707 0
M  V30 3958 H 364.616 4.14622 -4.94731 0
M  V30 3959 H 365.384 4.2049 -7.02232 0
M  V30 3960 N 368.047 0.979072 1.23499 0
M  V30 3961 C 368.957 0.526431 2.28617 0
M  V30 3962 C 369.973 -0.418126 1.68901 0
M  V30 3963 O 371.149 -0.288372 1.99325 0
M  V30 3964 C 368.214 -0.165235 3.46306 0
M  V30 3965 C 367.275 0.82056 4.21385 0
M  V30 3966 C 366.508 0.161807 5.33455 0
M  V30 3967 O 366.731 -1.04742 5.60701 0
M  V30 3968 O 365.665 0.859708 5.95729 0
M  V30 3969 H 369.491 1.4006 2.69475 0
M  V30 3970 H 367.076 0.746643 1.29405 0
M  V30 3971 H 368.958 -0.553287 4.17752 0
M  V30 3972 H 367.633 -1.01419 3.07402 0
M  V30 3973 H 366.54 1.25929 3.52268 0
M  V30 3974 H 367.873 1.63828 4.64135 0
M  V30 3975 N 369.525 -1.3858 0.750561 0
M  V30 3976 C 370.771 -2.0095 0.31477 0
M  V30 3977 C 371.126 -1.58509 -1.09053 0
M  V30 3978 O 370.419 -0.8112 -1.7358 0
M  V30 3979 C 370.613 -3.55455 0.372373 0
M  V30 3980 C 370.442 -4.12898 1.78173 0
M  V30 3981 C 369.212 -4.44797 2.39757 0
M  V30 3982 C 371.41 -4.35366 2.7379 0
M  V30 3983 N 369.392 -4.87831 3.72685 0
M  V30 3984 C 370.763 -4.80775 3.91478 0
M  V30 3985 C 372.818 -4.1746 2.71351 0
M  V30 3986 C 371.521 -5.10155 5.07084 0
M  V30 3987 C 373.547 -4.47963 3.86113 0
M  V30 3988 C 372.909 -4.93593 5.02539 0
M  V30 3989 H 369.008 -0.765083 0.161776 0
M  V30 3990 H 371.592 -1.68246 0.979867 0
M  V30 3991 H 369.763 -3.87512 -0.26244 0
M  V30 3992 H 371.495 -4.04614 -0.0834479 0
M  V30 3993 H 368.25 -4.33135 1.91548 0
M  V30 3994 H 368.674 -5.13685 4.40972 0
M  V30 3995 H 373.316 -3.81372 1.82524 0
M  V30 3996 H 371.034 -5.45141 5.96529 0
M  V30 3997 H 374.62 -4.35717 3.85542 0
M  V30 3998 H 373.5 -5.16746 5.89867 0
M  V30 3999 N 371.003 -0.499398 -1.49478 0
M  V30 4000 C 371.933 0.269244 -2.31943 0
M  V30 4001 C 372.914 0.964054 -1.40143 0
M  V30 4002 O 374.099 0.955767 -1.69052 0
M  V30 4003 C 371.229 1.33504 -3.20615 0
M  V30 4004 C 370.183 0.760202 -4.21195 0
M  V30 4005 C 369.509 1.9264 -4.98792 0
M  V30 4006 C 370.809 -0.247661 -5.21712 0
M  V30 4007 H 372.503 -0.419082 -2.96452 0
M  V30 4008 H 370.049 -0.202988 -1.42562 0
M  V30 4009 H 372.002 1.88048 -3.77115 0
M  V30 4010 H 370.726 2.05253 -2.54045 0
M  V30 4011 H 369.385 0.23653 -3.65836 0
M  V30 4012 H 369.033 2.63154 -4.28671 0
M  V30 4013 H 368.733 1.54785 -5.66847 0
M  V30 4014 H 370.257 2.4762 -5.58137 0
M  V30 4015 H 371.671 0.209579 -5.72917 0
M  V30 4016 H 370.068 -0.541962 -5.97648 0
M  V30 4017 H 371.138 -1.16409 -4.7072 0
M  V30 4018 N 372.481 1.55866 -0.233164 0
M  V30 4019 C 373.727 1.98897 0.395959 0
M  V30 4020 C 374.06 1.12091 1.58585 0
M  V30 4021 O 373.335 0.181182 1.93654 0
M  V30 4022 C 373.618 3.50658 0.819224 0
M  V30 4023 C 373.471 4.48233 -0.375109 0
M  V30 4024 C 374.79 4.07135 1.67121 0
M  V30 4025 H 371.909 0.723102 0.142451 0
M  V30 4026 H 374.551 1.87082 -0.331725 0
M  V30 4027 H 372.701 3.60857 1.43925 0
M  V30 4028 H 374.373 4.50031 -1.01341 0
M  V30 4029 H 372.616 4.21624 -1.02058 0
M  V30 4030 H 373.287 5.51988 -0.0358328 0
M  V30 4031 H 375.763 3.99952 1.14795 0
M  V30 4032 H 374.639 5.13615 1.93625 0
M  V30 4033 H 374.9 3.54736 2.63846 0
M  V30 4034 N 373.959 -0.0401083 1.57549 0
M  V30 4035 C 375.189 -0.744115 1.92734 0
M  V30 4036 C 375.597 -1.70005 0.830348 0
M  V30 4037 O 374.94 -1.82576 -0.20286 0
M  V30 4038 C 375.002 -1.56516 3.2364 0
M  V30 4039 C 374.666 -0.7752 4.50377 0
M  V30 4040 C 375.663 -0.0803326 5.19838 0
M  V30 4041 C 373.348 -0.733002 4.96923 0
M  V30 4042 C 375.342 0.646154 6.34116 0
M  V30 4043 C 373.029 -0.00276321 6.111 0
M  V30 4044 C 374.027 0.685585 6.7955 0
M  V30 4045 O 373.715 1.40399 7.91545 0
M  V30 4046 H 373.447 -0.214861 0.640945 0
M  V30 4047 H 376.001 -0.00503675 2.05399 0
M  V30 4048 H 374.231 -2.3478 3.07271 0
M  V30 4049 H 375.92 -2.15076 3.44234 0
M  V30 4050 H 376.686 -0.104035 4.84888 0
M  V30 4051 H 372.565 -1.25827 4.43496 0
M  V30 4052 H 376.109 1.18398 6.87479 0
M  V30 4053 H 372.006 0.0229012 6.45496 0
M  V30 4054 H 372.774 1.31653 8.07843 0
M  V30 4055 N 375.437 -1.54477 -0.31217 0
M  V30 4056 C 376.662 -1.77526 -1.07235 0
M  V30 4057 C 377.087 -0.527775 -1.80544 0
M  V30 4058 O 376.445 0.52121 -1.73646 0
M  V30 4059 C 376.493 -2.97535 -2.03728 0
M  V30 4060 O 375.597 -2.69878 -3.11833 0
M  V30 4061 H 374.938 -0.58792 -0.30862 0
M  V30 4062 H 377.468 -2.01532 -0.352993 0
M  V30 4063 H 377.478 -3.25198 -2.46395 0
M  V30 4064 H 376.153 -3.87996 -1.49774 0
M  V30 4065 H 374.73 -2.53199 -2.7376 0
M  V30 4066 N 376.915 0.57481 -1.46744 0
M  V30 4067 C 378.163 1.33009 -1.52161 0
M  V30 4068 C 378.484 1.94185 -0.178092 0
M  V30 4069 O 377.754 1.7899 0.796196 0
M  V30 4070 H 376.334 0.493873 -0.560445 0
M  V30 4071 H 378.996 0.672589 -1.82927 0
M  V30 4072 H 378.092 2.13273 -2.27862 0
M  V30 4073 N 378.394 1.34581 0.820102 0
M  V30 4074 C 379.342 1.26401 1.95258 0
M  V30 4075 C 380.336 0.161553 1.68628 0
M  V30 4076 O 381.542 0.326703 1.7701 0
M  V30 4077 H 377.917 0.392749 0.64129 0
M  V30 4078 H 379.888 2.22105 1.99279 0
M  V30 4079 C 378.637 1.03919 3.31807 0
M  V30 4080 H 377.96 1.87984 3.52848 0
M  V30 4081 H 379.4 1.02232 4.11491 0
M  V30 4082 C 377.859 -0.257433 3.35915 0
M  V30 4083 O 378.389 -1.25784 3.81499 0
M  V30 4084 N 376.595 -0.291524 2.89134 0
M  V30 4085 H 376.142 0.523161 2.52232 0
M  V30 4086 H 376.1 -1.15883 2.92264 0
M  V30 4087 N 379.872 -1.04064 1.18357 0
M  V30 4088 C 380.819 -2.12077 0.910603 0
M  V30 4089 C 381.789 -1.65421 -0.15 0
M  V30 4090 O 382.974 -1.90797 -0.0103614 0
M  V30 4091 C 380.114 -3.42252 0.442472 0
M  V30 4092 C 379.227 -4.0252 1.5685 0
M  V30 4093 C 378.362 -5.20657 1.05309 0
M  V30 4094 C 377.401 -5.72955 2.1538 0
M  V30 4095 N 376.538 -6.8238 1.65233 0
M  V30 4096 H 381.378 -2.34764 1.83548 0
M  V30 4097 H 378.915 -1.15157 0.915279 0
M  V30 4098 H 380.873 -4.16921 0.152534 0
M  V30 4099 H 379.503 -3.19712 -0.445428 0
M  V30 4100 H 378.555 -3.25178 1.97391 0
M  V30 4101 H 379.867 -4.37362 2.39824 0
M  V30 4102 H 379.021 -6.0244 0.717677 0
M  V30 4103 H 377.76 -4.87318 0.19293 0
M  V30 4104 H 376.765 -4.89793 2.49766 0
M  V30 4105 H 377.99 -6.08337 3.01832 0
M  V30 4106 H 375.936 -6.50917 0.815064 0
M  V30 4107 H 375.853 -7.16286 2.41805 0
M  V30 4108 H 377.121 -7.67788 1.34619 0
M  V30 4109 N 381.35 -0.985608 -1.22978 0
M  V30 4110 C 382.3 -0.50118 -2.22423 0
M  V30 4111 C 383.284 0.426649 -1.5514 0
M  V30 4112 O 384.476 0.254656 -1.75159 0
M  V30 4113 C 381.605 0.190003 -3.42774 0
M  V30 4114 C 380.691 -0.757703 -4.17276 0
M  V30 4115 N 381.082 -1.90251 -4.68656 0
M  V30 4116 C 379.38 -0.57209 -4.42316 0
M  V30 4117 C 380.081 -2.49676 -5.25392 0
M  V30 4118 N 379.057 -1.78013 -5.13627 0
M  V30 4119 H 382.859 -1.37441 -2.59783 0
M  V30 4120 H 380.373 -0.846941 -1.38567 0
M  V30 4121 H 382.37 0.55439 -4.13197 0
M  V30 4122 H 381.03 1.05946 -3.06929 0
M  V30 4123 H 382.041 -2.28354 -4.64839 0
M  V30 4124 H 378.718 0.251909 -4.16739 0
M  V30 4125 H 380.108 -3.46384 -5.75732 0
M  V30 4126 N 382.828 1.3818 -0.7579 0
M  V30 4127 C 383.758 2.33027 -0.148597 0
M  V30 4128 C 384.739 1.55085 0.69875 0
M  V30 4129 O 385.924 1.83384 0.639053 0
M  V30 4130 C 383.054 3.3928 0.742034 0
M  V30 4131 C 382.008 4.28 -0.00291946 0
M  V30 4132 C 381.334 5.25146 1.00625 0
M  V30 4133 C 382.634 5.08938 -1.17385 0
M  V30 4134 H 384.328 2.84231 -0.940909 0
M  V30 4135 H 381.874 1.36659 -0.453908 0
M  V30 4136 H 383.827 4.046 1.17799 0
M  V30 4137 H 382.551 2.86569 1.56671 0
M  V30 4138 H 381.21 3.64192 -0.419504 0
M  V30 4139 H 380.858 4.68721 1.8251 0
M  V30 4140 H 380.558 5.85361 0.512428 0
M  V30 4141 H 382.082 5.93342 1.44143 0
M  V30 4142 H 383.496 5.67474 -0.815224 0
M  V30 4143 H 381.893 5.7841 -1.59882 0
M  V30 4144 H 382.963 4.42424 -1.98468 0
M  V30 4145 N 384.306 0.507319 1.49211 0
M  V30 4146 C 385.253 -0.267728 2.29242 0
M  V30 4147 C 386.223 -0.954609 1.35928 0
M  V30 4148 O 387.408 -0.960046 1.64887 0
M  V30 4149 C 384.548 -1.32243 3.18756 0
M  V30 4150 C 383.661 -0.64669 4.27132 0
M  V30 4151 C 382.796 -1.68238 5.03855 0
M  V30 4152 C 381.835 -0.98885 6.0406 0
M  V30 4153 N 380.972 -1.96903 6.73924 0
M  V30 4154 H 385.812 0.420968 2.95012 0
M  V30 4155 H 383.349 0.219443 1.45454 0
M  V30 4156 H 385.307 -1.94599 3.69036 0
M  V30 4157 H 383.937 -1.97981 2.54958 0
M  V30 4158 H 382.989 0.0902926 3.80293 0
M  V30 4159 H 384.301 -0.101058 4.98698 0
M  V30 4160 H 383.455 -2.38081 5.58034 0
M  V30 4161 H 382.194 -2.26187 4.32077 0
M  V30 4162 H 381.199 -0.276222 5.49106 0
M  V30 4163 H 382.424 -0.415767 6.77826 0
M  V30 4164 H 380.37 -2.53803 6.04913 0
M  V30 4165 H 380.287 -1.47423 7.41487 0
M  V30 4166 H 381.555 -2.66015 7.32705 0
M  V30 4167 N 385.784 -1.5574 0.241426 0
M  V30 4168 C 387.033 -1.97986 -0.385295 0
M  V30 4169 C 387.346 -1.13267 -1.59468 0
M  V30 4170 O 388.552 -1.45501 -2.2922 0
M  V30 4171 C 387.008 -3.52275 -0.736884 0
M  V30 4172 C 386.616 -4.45726 0.450796 0
M  V30 4173 C 388.36 -4.03189 -1.3281 0
M  V30 4174 C 386.267 -5.91352 0.0756662 0
M  V30 4175 H 385.197 -0.739386 -0.147731 0
M  V30 4176 H 387.848 -1.80308 0.340779 0
M  V30 4177 H 386.23 -3.65628 -1.52094 0
M  V30 4178 H 387.404 -4.44131 1.22819 0
M  V30 4179 H 385.719 -4.05264 0.956573 0
M  V30 4180 H 388.316 -5.09505 -1.62201 0
M  V30 4181 H 388.659 -3.50212 -2.25071 0
M  V30 4182 H 389.192 -3.93141 -0.607069 0
M  V30 4183 H 385.931 -6.48354 0.965272 0
M  V30 4184 H 385.451 -5.96095 -0.665635 0
M  V30 4185 H 387.13 -6.46084 -0.344075 0
M  V30 4186 N 387.262 0.0317525 -1.57568 0
M  V30 4187 C 388.225 1.01783 -2.0536 0
M  V30 4188 C 389.225 1.29203 -0.957253 0
M  V30 4189 O 390.415 1.24251 -1.22095 0
M  V30 4190 C 387.547 2.35137 -2.46827 0
M  V30 4191 H 388.74 0.605062 -2.93733 0
M  V30 4192 H 386.293 0.278514 -1.53799 0
M  V30 4193 H 387.028 2.81168 -1.61602 0
M  V30 4194 H 386.813 2.16566 -3.26866 0
M  V30 4195 H 388.303 3.05938 -2.84239 0
M  V30 4196 N 388.74 1.54641 0.303973 0
M  V30 4197 C 389.968 1.77768 1.05858 0
M  V30 4198 C 390.383 0.535722 1.8104 0
M  V30 4199 O 389.74 -0.494337 1.75677 0
M  V30 4200 C 389.791 2.9834 2.04146 0
M  V30 4201 O 389.512 4.17736 1.32015 0
M  V30 4202 C 391.013 3.33832 2.91669 0
M  V30 4203 H 388.233 0.592961 0.314067 0
M  V30 4204 H 390.777 2.01583 0.344149 0
M  V30 4205 H 388.932 2.76742 2.71096 0
M  V30 4206 H 389.346 4.85693 1.97998 0
M  V30 4207 H 390.82 4.21448 3.56491 0
M  V30 4208 H 391.297 2.51857 3.59812 0
M  V30 4209 H 391.903 3.57579 2.30254 0
M  V30 4210 N 390.218 -0.567019 1.47046 0
M  V30 4211 C 391.465 -1.32462 1.53167 0
M  V30 4212 C 391.793 -1.93571 0.189841 0
M  V30 4213 O 391.048 -1.77865 -0.816243 0
M  V30 4214 C 391.347 -2.4623 2.59047 0
M  V30 4215 C 391.013 -2.03014 4.02612 0
M  V30 4216 C 389.675 -1.90944 4.41694 0
M  V30 4217 C 392.027 -1.69895 4.92732 0
M  V30 4218 C 389.355 -1.44035 5.68745 0
M  V30 4219 C 391.707 -1.2446 6.20236 0
M  V30 4220 C 390.371 -1.10979 6.5821 0
M  V30 4221 H 389.641 -0.484713 0.560477 0
M  V30 4222 H 392.288 -0.636888 1.80599 0
M  V30 4223 H 390.593 -3.20517 2.25335 0
M  V30 4224 H 392.29 -3.04427 2.61008 0
M  V30 4225 H 388.88 -2.13348 3.71726 0
M  V30 4226 H 393.064 -1.78098 4.63244 0
M  V30 4227 H 388.32 -1.32254 5.96925 0
M  V30 4228 H 392.494 -0.978924 6.89485 0
M  V30 4229 H 390.121 -0.744078 7.5655 0
M  V30 4230 N 391.696 -1.35014 -0.812953 0
M  V30 4231 C 393.107 -1.25035 -1.38648 0
M  V30 4232 C 393.458 0.119967 -1.95833 0
M  V30 4233 O 392.583 1.02069 -1.90816 0
M  V30 4234 C 393.178 -2.26394 -2.52054 0
M  V30 4235 C 391.737 -2.20175 -3.05287 0
M  V30 4236 C 390.884 -2.12451 -1.78213 0
M  V30 4237 H 393.835 -1.46235 -0.616516 0
M  V30 4238 H 393.856 -1.88672 -3.30429 0
M  V30 4239 H 393.368 -3.26116 -2.10404 0
M  V30 4240 H 391.469 -1.23841 -3.51417 0
M  V30 4241 H 391.582 -3.11863 -3.63701 0
M  V30 4242 H 389.946 -1.58328 -1.9951 0
M  V30 4243 H 390.729 -3.14024 -1.38723 0
M  V30 4244 N 393.175 1.03435 -1.18907 0
M  V30 4245 C 394.423 1.76394 -0.986382 0
M  V30 4246 C 394.744 1.88883 0.484567 0
M  V30 4247 O 394.014 1.41843 1.3512 0
M  V30 4248 H 392.594 0.65344 -0.361975 0
M  V30 4249 H 395.256 1.248 -1.49703 0
M  V30 4250 H 394.352 2.77424 -1.42978 0
M  V30 4251 N 394.653 0.992116 1.22453 0
M  V30 4252 C 395.586 0.486701 2.22949 0
M  V30 4253 C 396.564 -0.45259 1.56174 0
M  V30 4254 O 397.748 -0.378317 1.84665 0
M  V30 4255 C 394.875 -0.294537 3.37417 0
M  V30 4256 C 393.921 0.590628 4.22391 0
M  V30 4257 S 394.754 2.04546 4.94895 0
M  V30 4258 C 395.91 1.27369 6.12803 0
M  V30 4259 H 396.143 1.33828 2.65475 0
M  V30 4260 H 393.676 0.799023 1.32117 0
M  V30 4261 H 395.634 -0.739241 4.03789 0
M  V30 4262 H 394.295 -1.12139 2.934 0
M  V30 4263 H 393.488 -0.0104375 5.03999 0
M  V30 4264 H 393.09 0.972064 3.61147 0
M  V30 4265 H 395.382 0.540943 6.75337 0
M  V30 4266 H 396.325 2.06502 6.7732 0
M  V30 4267 H 396.733 0.787324 5.58983 0
M  V30 4268 N 396.131 -1.37776 0.765217 0
M  V30 4269 C 397.377 -2.00604 0.336066 0
M  V30 4270 C 397.732 -1.59657 -1.07366 0
M  V30 4271 O 397.025 -0.829565 -1.7271 0
M  V30 4272 C 397.219 -3.5504 0.410053 0
M  V30 4273 C 397.048 -4.10985 1.82542 0
M  V30 4274 C 395.818 -4.42229 2.44461 0
M  V30 4275 C 398.016 -4.32438 2.78392 0
M  V30 4276 N 395.998 -4.8385 3.77839 0
M  V30 4277 C 397.369 -4.76596 3.96556 0
M  V30 4278 C 399.424 -4.14559 2.75764 0
M  V30 4279 C 398.127 -5.04748 5.12466 0
M  V30 4280 C 400.153 -4.43843 3.90842 0
M  V30 4281 C 399.515 -4.88235 5.07746 0
M  V30 4282 H 395.614 -0.763325 0.169881 0
M  V30 4283 H 398.198 -1.67197 0.997656 0
M  V30 4284 H 396.369 -3.87769 -0.221325 0
M  V30 4285 H 398.101 -4.0468 -0.0405285 0
M  V30 4286 H 394.856 -4.31079 1.96131 0
M  V30 4287 H 395.28 -5.08979 4.46396 0
M  V30 4288 H 399.922 -3.79415 1.86558 0
M  V30 4289 H 397.64 -5.38783 6.02277 0
M  V30 4290 H 401.226 -4.31603 3.90141 0
M  V30 4291 H 400.106 -5.10461 5.95315 0
M  V30 4292 N 397.609 -0.515225 -1.4894 0
M  V30 4293 C 398.519 0.259774 -2.33157 0
M  V30 4294 C 399.535 0.953501 -1.45548 0
M  V30 4295 O 400.711 0.931735 -1.78552 0
M  V30 4296 C 397.776 1.30193 -3.21326 0
M  V30 4297 C 396.837 0.620129 -4.24797 0
M  V30 4298 C 396.07 1.61263 -5.08753 0
M  V30 4299 O 396.293 2.84389 -4.94448 0
M  V30 4300 O 395.227 1.16013 -5.90614 0
M  V30 4301 H 399.053 -0.429932 -3.00641 0
M  V30 4302 H 396.638 -0.276346 -1.46822 0
M  V30 4303 H 398.52 1.90455 -3.75905 0
M  V30 4304 H 397.195 1.97431 -2.56521 0
M  V30 4305 H 396.102 -0.0226019 -3.74093 0
M  V30 4306 H 397.435 -0.0100493 -4.92199 0
M  V30 4307 N 399.087 1.5561 -0.249682 0
M  V30 4308 C 400.503 1.59254 0.105103 0
M  V30 4309 C 400.703 1.26685 1.56694 0
M  V30 4310 O 399.759 1.0155 2.31179 0
M  V30 4311 C 401.072 2.99687 -0.246592 0
M  V30 4312 C 402.62 3.12416 -0.191118 0
M  V30 4313 C 403.095 4.55074 -0.516885 0
M  V30 4314 N 404.586 4.60835 -0.467489 0
M  V30 4315 C 405.321 5.69201 -0.69268 0
M  V30 4316 N 404.817 6.85817 -0.981146 0
M  V30 4317 N 406.61 5.58635 -0.623198 0
M  V30 4318 H 398.761 1.75049 -1.20298 0
M  V30 4319 H 401.024 0.815003 -0.484225 0
M  V30 4320 H 400.73 3.28267 -1.26228 0
M  V30 4321 H 400.604 3.74798 0.424962 0
M  V30 4322 H 402.991 2.83615 0.815247 0
M  V30 4323 H 403.072 2.39573 -0.896563 0
M  V30 4324 H 402.716 4.84596 -1.52082 0
M  V30 4325 H 402.646 5.26181 0.210068 0
M  V30 4326 H 405.137 3.7705 -0.253373 0
M  V30 4327 H 405.45 7.64341 -1.14032 0
M  V30 4328 H 403.795 6.87494 -1.01865 0
M  V30 4329 H 406.986 4.66406 -0.397863 0
M  V30 4330 H 407.159 6.43017 -0.802093 0
M  V30 4331 N 400.565 -0.0233959 1.57583 0
M  V30 4332 C 401.793 -0.724682 1.93794 0
M  V30 4333 C 402.208 -1.68588 0.849912 0
M  V30 4334 O 401.565 -1.81676 -0.173204 0
M  V30 4335 C 401.616 -1.47684 3.29957 0
M  V30 4336 O 401.337 -0.554222 4.3458 0
M  V30 4337 C 402.838 -2.27477 3.80485 0
M  V30 4338 H 400.058 -0.203317 0.639455 0
M  V30 4339 H 402.602 0.0207653 2.04489 0
M  V30 4340 H 400.757 -2.17412 3.20641 0
M  V30 4341 H 401.171 -1.08232 5.13212 0
M  V30 4342 H 402.645 -2.7564 4.78254 0
M  V30 4343 H 403.122 -3.09144 3.11972 0
M  V30 4344 H 403.728 -1.62813 3.92902 0
M  V30 4345 N 402.043 -1.548 -0.295768 0
M  V30 4346 C 403.292 -1.73538 -1.02798 0
M  V30 4347 C 403.605 -0.531159 -1.8825 0
M  V30 4348 O 404.811 -0.600458 -2.64777 0
M  V30 4349 C 403.267 -3.07051 -1.87744 0
M  V30 4350 C 402.875 -4.34968 -1.07269 0
M  V30 4351 C 404.619 -3.35146 -2.60533 0
M  V30 4352 C 402.526 -5.5953 -1.91521 0
M  V30 4353 H 401.456 -0.646794 -0.387522 0
M  V30 4354 H 404.107 -1.81278 -0.284718 0
M  V30 4355 H 402.489 -2.93289 -2.66078 0
M  V30 4356 H 403.663 -4.5958 -0.335117 0
M  V30 4357 H 401.978 -4.13847 -0.460384 0
M  V30 4358 H 404.575 -4.2541 -3.23929 0
M  V30 4359 H 404.918 -2.54255 -3.29636 0
M  V30 4360 H 405.451 -3.49902 -1.89244 0
M  V30 4361 H 402.19 -6.43103 -1.26878 0
M  V30 4362 H 401.71 -5.39096 -2.62937 0
M  V30 4363 H 403.389 -5.96982 -2.49442 0
M  V30 4364 N 403.521 0.559213 -1.47345 0
M  V30 4365 C 404.749 1.34194 -1.57479 0
M  V30 4366 C 405.164 1.87463 -0.224261 0
M  V30 4367 O 404.521 1.64888 0.782185 0
M  V30 4368 C 404.572 2.51324 -2.59843 0
M  V30 4369 O 404.293 2.00256 -3.89653 0
M  V30 4370 C 405.794 3.43563 -2.80142 0
M  V30 4371 H 403.014 0.409136 -0.531835 0
M  V30 4372 H 405.558 0.677609 -1.92947 0
M  V30 4373 H 403.713 3.13699 -2.27314 0
M  V30 4374 H 404.127 2.76708 -4.4557 0
M  V30 4375 H 405.601 4.2217 -3.55635 0
M  V30 4376 H 406.078 3.9698 -1.87892 0
M  V30 4377 H 406.684 2.87005 -3.1386 0
M  V30 4378 N 404.999 1.35443 0.805782 0
M  V30 4379 C 406.248 1.28097 1.55801 0
M  V30 4380 C 406.561 -0.142428 1.95081 0
M  V30 4381 O 407.767 -0.33817 2.69386 0
M  V30 4382 C 406.223 2.24653 2.81174 0
M  V30 4383 C 405.831 3.72342 2.49129 0
M  V30 4384 C 407.575 2.2625 3.59181 0
M  V30 4385 C 405.482 4.60719 3.70799 0
M  V30 4386 H 404.412 0.475937 0.584808 0
M  V30 4387 H 407.063 1.60712 0.885661 0
M  V30 4388 H 405.445 1.85011 3.50124 0
M  V30 4389 H 406.619 4.20624 1.88181 0
M  V30 4390 H 404.934 3.73361 1.84366 0
M  V30 4391 H 407.531 2.89495 4.49552 0
M  V30 4392 H 407.874 1.26647 3.96568 0
M  V30 4393 H 408.407 2.64426 2.97193 0
M  V30 4394 H 405.146 5.61324 3.3852 0
M  V30 4395 H 404.666 4.17163 4.3097 0
M  V30 4396 H 406.345 4.76182 4.38018 0
M  V30 4397 N 406.477 -1.02803 1.19454 0
M  V30 4398 C 407.725 -1.75869 0.995722 0
M  V30 4399 C 408.046 -1.89138 -0.474543 0
M  V30 4400 O 407.316 -1.42558 -1.34366 0
M  V30 4401 H 405.896 -0.651511 0.365435 0
M  V30 4402 H 408.558 -1.24004 1.50363 0
M  V30 4403 H 407.654 -2.76661 1.44447 0
M  V30 4404 N 407.956 -0.998596 -1.21925 0
M  V30 4405 C 409.181 -0.696015 -1.95372 0
M  V30 4406 C 409.606 0.733826 -1.73195 0
M  V30 4407 O 408.964 1.50242 -1.01474 0
M  V30 4408 C 409.012 -1.01466 -3.4603 0
M  V30 4409 O 408.116 -0.116415 -4.12236 0
M  V30 4410 H 407.457 -0.259938 -0.611006 0
M  V30 4411 H 409.987 -1.33711 -1.54863 0
M  V30 4412 H 409.997 -0.958855 -3.96573 0
M  V30 4413 H 408.672 -2.05653 -3.61497 0
M  V30 4414 H 407.249 -0.228193 -3.72201 0
M  V30 4415 N 409.434 1.37368 -0.772513 0
M  V30 4416 C 410.397 2.28601 -0.165541 0
M  V30 4417 C 411.397 1.48062 0.627238 0
M  V30 4418 O 412.587 1.68268 0.450715 0
M  V30 4419 C 409.719 3.32023 0.772897 0
M  V30 4420 H 410.912 2.83787 -0.969787 0
M  V30 4421 H 408.465 1.46647 -0.540775 0
M  V30 4422 H 409.2 2.81962 1.60212 0
M  V30 4423 H 408.985 3.91555 0.206585 0
M  V30 4424 H 410.475 4.00197 1.19298 0
M  V30 4425 N 410.912 0.523116 1.48665 0
M  V30 4426 C 412.16 -0.0134497 2.02096 0
M  V30 4427 C 412.481 -1.35418 1.40311 0
M  V30 4428 O 411.751 -1.87543 0.566074 0
M  V30 4429 H 410.331 -0.00795915 0.746958 0
M  V30 4430 H 412.993 0.685388 1.82451 0
M  V30 4431 H 412.089 -0.126849 3.11842 0
M  V30 4432 N 412.39 -1.55475 0.257931 0
M  V30 4433 C 413.337 -2.21837 -0.636939 0
M  V30 4434 C 414.307 -1.18596 -1.16294 0
M  V30 4435 O 415.492 -1.47081 -1.21539 0
M  V30 4436 C 412.632 -2.9301 -1.82317 0
M  V30 4437 C 411.745 -4.10931 -1.33265 0
M  V30 4438 C 410.88 -4.69791 -2.47931 0
M  V30 4439 C 409.919 -5.7994 -1.95796 0
M  V30 4440 N 409.056 -6.32935 -3.0387 0
M  V30 4441 H 413.896 -2.9793 -0.0643591 0
M  V30 4442 H 411.433 -1.47086 -0.0200031 0
M  V30 4443 H 413.391 -3.3248 -2.52018 0
M  V30 4444 H 412.021 -2.1937 -2.36805 0
M  V30 4445 H 411.073 -3.76699 -0.52931 0
M  V30 4446 H 412.385 -4.90417 -0.910654 0
M  V30 4447 H 411.539 -5.11892 -3.25656 0
M  V30 4448 H 410.278 -3.89545 -2.93438 0
M  V30 4449 H 409.283 -5.37305 -1.16546 0
M  V30 4450 H 410.508 -6.62043 -1.51246 0
M  V30 4451 H 408.454 -5.55591 -3.48791 0
M  V30 4452 H 408.371 -7.07645 -2.66035 0
M  V30 4453 H 409.639 -6.79695 -3.81621 0
M  V30 4454 N 413.868 0.0150385 -1.57593 0
M  V30 4455 C 415.096 0.714395 -1.94175 0
M  V30 4456 C 415.511 1.68135 -0.858841 0
M  V30 4457 O 414.868 1.81766 0.163567 0
M  V30 4458 C 414.919 1.45933 -3.30735 0
M  V30 4459 O 414.64 0.531167 -4.34868 0
M  V30 4460 C 416.141 2.25456 -3.81686 0
M  V30 4461 H 413.361 0.199923 -0.640525 0
M  V30 4462 H 415.905 -0.0316096 -2.04476 0
M  V30 4463 H 414.06 2.15709 -3.21789 0
M  V30 4464 H 414.474 1.05509 -5.13778 0
M  V30 4465 H 415.948 2.731 -4.79709 0
M  V30 4466 H 416.425 3.07485 -3.13607 0
M  V30 4467 H 417.031 1.60727 -3.9376 0
M  V30 4468 N 415.346 1.54954 0.287554 0
M  V30 4469 C 416.593 1.74873 1.02106 0
M  V30 4470 C 416.921 0.541829 1.86801 0
M  V30 4471 O 416.176 -0.475992 1.89823 0
M  V30 4472 C 416.475 2.99833 1.94512 0
M  V30 4473 C 416.141 4.33029 1.25686 0
M  V30 4474 C 414.803 4.69233 1.06649 0
M  V30 4475 C 417.155 5.15542 0.765913 0
M  V30 4476 C 414.483 5.85518 0.372222 0
M  V30 4477 C 416.835 6.32542 0.0853101 0
M  V30 4478 C 415.499 6.67398 -0.1169 0
M  V30 4479 H 414.769 0.639906 0.373632 0
M  V30 4480 H 417.416 1.89219 0.294665 0
M  V30 4481 H 415.721 2.80325 2.73725 0
M  V30 4482 H 417.418 3.1244 2.51361 0
M  V30 4483 H 414.008 4.04564 1.41512 0
M  V30 4484 H 418.192 4.88059 0.90066 0
M  V30 4485 H 413.448 6.11057 0.204695 0
M  V30 4486 H 417.622 6.95741 -0.302936 0
M  V30 4487 H 415.249 7.57357 -0.656859 0
M  V30 4488 N 416.824 -0.551391 1.4764 0
M  V30 4489 C 418.049 -1.33837 1.58437 0
M  V30 4490 C 418.474 -1.866 0.237063 0
M  V30 4491 O 417.832 -1.6328 -0.787994 0
M  V30 4492 C 417.88 -2.48014 2.61766 0
M  V30 4493 O 416.984 -3.50419 2.1744 0
M  V30 4494 H 416.325 -0.397299 0.532024 0
M  V30 4495 H 418.855 -0.665759 1.93465 0
M  V30 4496 H 418.865 -2.94503 2.82369 0
M  V30 4497 H 417.54 -2.08969 3.5959 0
M  V30 4498 H 416.117 -3.10196 2.06961 0
M  V30 4499 N 418.302 -1.35869 -0.798587 0
M  V30 4500 C 419.548 -1.2978 -1.55836 0
M  V30 4501 C 419.881 0.125322 -1.93795 0
M  V30 4502 O 419.156 1.07658 -1.61987 0
M  V30 4503 C 419.439 -2.21188 -2.84162 0
M  V30 4504 C 419.292 -3.72155 -2.52628 0
M  V30 4505 C 420.611 -2.11545 -3.85923 0
M  V30 4506 H 417.73 -0.472769 -0.565383 0
M  V30 4507 H 420.372 -1.66341 -0.918192 0
M  V30 4508 H 418.522 -1.90139 -3.38791 0
M  V30 4509 H 420.194 -4.13682 -2.04121 0
M  V30 4510 H 418.437 -3.92042 -1.85704 0
M  V30 4511 H 419.108 -4.31511 -3.44242 0
M  V30 4512 H 421.584 -2.38855 -3.40716 0
M  V30 4513 H 420.46 -2.77688 -4.73477 0
M  V30 4514 H 420.721 -1.09987 -4.282 0
M  V30 4515 N 419.78 1.02168 -1.19998 0
M  V30 4516 C 421.008 1.79296 -1.03249 0
M  V30 4517 C 421.423 1.84103 0.418502 0
M  V30 4518 O 420.78 1.29031 1.29063 0
M  V30 4519 C 420.831 3.24007 -1.60319 0
M  V30 4520 O 420.552 3.19512 -2.99739 0
M  V30 4521 C 422.053 4.17704 -1.48453 0
M  V30 4522 H 419.273 0.564016 -0.363493 0
M  V30 4523 H 421.817 1.28639 -1.58973 0
M  V30 4524 H 419.972 3.7183 -1.08727 0
M  V30 4525 H 420.386 4.10306 -3.26725 0
M  V30 4526 H 421.86 5.17104 -1.93153 0
M  V30 4527 H 422.337 4.37029 -0.436193 0
M  V30 4528 H 422.943 3.7576 -1.99211 0
M  V30 4529 N 421.258 1.00505 1.21394 0
M  V30 4530 C 422.506 0.686415 1.90086 0
M  V30 4531 C 422.827 -0.785264 1.7849 0
M  V30 4532 O 422.097 -1.56387 1.17983 0
M  V30 4533 H 420.677 0.2509 0.703604 0
M  V30 4534 H 423.339 1.27417 1.47482 0
M  V30 4535 H 422.435 0.959621 2.96981 0
M  V30 4536 N 422.737 -1.36956 0.779787 0
M  V30 4537 C 423.983 -2.00237 0.357324 0
M  V30 4538 C 424.338 -1.60787 -1.05666 0
M  V30 4539 O 423.631 -0.847836 -1.71821 0
M  V30 4540 C 423.825 -3.54585 0.447686 0
M  V30 4541 C 423.654 -4.09025 1.86891 0
M  V30 4542 C 422.424 -4.39612 2.49138 0
M  V30 4543 C 424.622 -4.29461 2.82963 0
M  V30 4544 N 422.604 -4.79816 3.82949 0
M  V30 4545 C 423.975 -4.72363 4.01588 0
M  V30 4546 C 426.03 -4.1161 2.80145 0
M  V30 4547 C 424.733 -4.99284 5.17791 0
M  V30 4548 C 426.759 -4.39672 3.95528 0
M  V30 4549 C 426.121 -4.82822 5.12896 0
M  V30 4550 H 422.22 -0.76148 0.177968 0
M  V30 4551 H 424.804 -1.6613 1.01533 0
M  V30 4552 H 422.975 -3.87982 -0.180184 0
M  V30 4553 H 424.707 -4.047 0.0023955 0
M  V30 4554 H 421.462 -4.28975 2.00693 0
M  V30 4555 H 421.886 -5.04216 4.51769 0
M  V30 4556 H 426.528 -3.77415 1.90572 0
M  V30 4557 H 424.246 -5.32365 6.07958 0
M  V30 4558 H 427.832 -4.27441 3.94697 0
M  V30 4559 H 426.712 -5.04118 6.00695 0
M  V30 4560 N 424.215 -0.530993 -1.48385 0
M  V30 4561 C 425.162 0.231223 -2.29639 0
M  V30 4562 C 426.132 0.932864 -1.37429 0
M  V30 4563 O 427.317 0.933692 -1.66394 0
M  V30 4564 C 424.457 1.27155 -3.2082 0
M  V30 4565 C 423.57 0.578655 -4.28107 0
M  V30 4566 C 422.705 1.602 -5.06467 0
M  V30 4567 C 421.744 0.892625 -6.05556 0
M  V30 4568 N 420.881 1.86157 -6.76971 0
M  V30 4569 H 425.721 -0.467848 -2.94305 0
M  V30 4570 H 423.258 -0.242556 -1.45086 0
M  V30 4571 H 425.216 1.88703 -3.72085 0
M  V30 4572 H 423.846 1.939 -2.58075 0
M  V30 4573 H 422.898 -0.150782 -3.80101 0
M  V30 4574 H 424.21 0.0217065 -4.98795 0
M  V30 4575 H 423.364 2.29173 -5.61751 0
M  V30 4576 H 422.103 2.19285 -4.35621 0
M  V30 4577 H 421.108 0.188829 -5.49476 0
M  V30 4578 H 422.333 0.307878 -6.78402 0
M  V30 4579 H 420.279 2.44147 -6.08875 0
M  V30 4580 H 420.196 1.35608 -7.43738 0
M  V30 4581 H 421.464 2.54325 -7.36844 0
M  V30 4582 N 425.693 1.55336 -0.266172 0
M  V30 4583 C 426.623 2.25146 0.618981 0
M  V30 4584 C 427.604 1.23845 1.16604 0
M  V30 4585 O 428.789 1.52544 1.20183 0
M  V30 4586 C 425.919 2.96572 1.80728 0
M  V30 4587 C 424.873 4.04726 1.39215 0
M  V30 4588 C 424.199 4.63678 2.66283 0
M  V30 4589 C 425.499 5.19407 0.548942 0
M  V30 4590 H 427.193 2.99377 0.0368116 0
M  V30 4591 H 424.739 1.43991 0.0162651 0
M  V30 4592 H 426.692 3.44116 2.43232 0
M  V30 4593 H 425.416 2.19861 2.41514 0
M  V30 4594 H 424.075 3.57979 0.790351 0
M  V30 4595 H 423.723 3.83646 3.25308 0
M  V30 4596 H 423.423 5.367 2.39222 0
M  V30 4597 H 424.947 5.13967 3.29651 0
M  V30 4598 H 426.361 5.63059 1.07876 0
M  V30 4599 H 424.758 5.98936 0.373593 0
M  V30 4600 H 425.828 4.8295 -0.434394 0
M  V30 4601 N 427.171 -0.0066808 1.57599 0
M  V30 4602 C 428.419 -0.691552 1.899 0
M  V30 4603 C 428.74 -1.74682 0.866672 0
M  V30 4604 O 428.01 -1.95661 -0.0968189 0
M  V30 4605 H 426.59 -0.258416 0.700878 0
M  V30 4606 H 429.252 0.0326655 1.94873 0
M  V30 4607 H 428.348 -1.16702 2.8946 0
M  V30 4608 N 428.649 -1.55105 -0.279332 0
M  V30 4609 C 429.895 -1.76597 -1.00921 0
M  V30 4610 C 430.25 -0.556831 -1.84166 0
M  V30 4611 O 429.543 0.450573 -1.86227 0
M  V30 4612 C 429.737 -3.0086 -1.92919 0
M  V30 4613 C 429.566 -4.33744 -1.18728 0
M  V30 4614 C 428.336 -4.9712 -0.905545 0
M  V30 4615 C 430.534 -5.11009 -0.580857 0
M  V30 4616 N 428.516 -6.13749 -0.136169 0
M  V30 4617 C 429.887 -6.19976 0.0546661 0
M  V30 4618 C 431.942 -4.95502 -0.488067 0
M  V30 4619 C 430.645 -7.15123 0.774028 0
M  V30 4620 C 432.671 -5.90999 0.217688 0
M  V30 4621 C 432.033 -6.9935 0.841975 0
M  V30 4622 H 428.132 -0.698553 -0.351493 0
M  V30 4623 H 430.716 -1.92595 -0.285531 0
M  V30 4624 H 428.887 -2.86249 -2.62519 0
M  V30 4625 H 430.619 -3.10784 -2.59221 0
M  V30 4626 H 427.374 -4.57903 -1.20921 0
M  V30 4627 H 427.798 -6.7659 0.235665 0
M  V30 4628 H 432.44 -4.11841 -0.956406 0
M  V30 4629 H 430.158 -7.9831 1.25407 0
M  V30 4630 H 433.744 -5.81078 0.289717 0
M  V30 4631 H 432.624 -7.71973 1.37939 0
M  V30 4632 N 430.127 0.543554 -1.4793 0
M  V30 4633 C 431.352 1.32995 -1.59145 0
M  V30 4634 C 431.777 1.86472 -0.246956 0
M  V30 4635 O 431.135 1.63696 0.779324 0
M  V30 4636 C 431.183 2.46623 -2.63077 0
M  V30 4637 O 430.287 3.49261 -2.19295 0
M  V30 4638 H 429.628 0.394472 -0.534124 0
M  V30 4639 H 432.158 0.655489 -1.93816 0
M  V30 4640 H 432.168 2.93001 -2.83926 0
M  V30 4641 H 430.843 2.07059 -3.60693 0
M  V30 4642 H 429.42 3.09094 -2.08603 0
M  V30 4643 N 431.605 1.3629 0.791371 0
M  V30 4644 C 432.854 1.29742 1.54434 0
M  V30 4645 C 433.167 -0.121729 1.95221 0
M  V30 4646 O 434.373 -0.309579 2.69729 0
M  V30 4647 C 432.829 2.27623 2.78776 0
M  V30 4648 C 432.437 3.74963 2.45166 0
M  V30 4649 C 434.181 2.30047 3.56761 0
M  V30 4650 C 432.088 4.64626 3.65891 0
M  V30 4651 H 431.018 0.482113 0.579727 0
M  V30 4652 H 433.669 1.61642 0.868565 0
M  V30 4653 H 432.051 1.88714 3.48142 0
M  V30 4654 H 433.225 4.22596 1.83709 0
M  V30 4655 H 431.54 3.75295 1.80396 0
M  V30 4656 H 434.137 2.94247 4.46456 0
M  V30 4657 H 434.48 1.30846 3.95203 0
M  V30 4658 H 435.013 2.67563 2.94372 0
M  V30 4659 H 431.752 5.64883 3.32547 0
M  V30 4660 H 431.272 4.2171 4.26521 0
M  V30 4661 H 432.951 4.80801 4.32943 0
M  V30 4662 N 433.083 -1.0153 1.20538 0
M  V30 4663 C 434.331 -1.74803 1.01432 0
M  V30 4664 C 434.652 -1.8963 -0.454456 0
M  V30 4665 O 433.922 -1.43975 -1.32846 0
M  V30 4666 H 432.502 -0.647598 0.372324 0
M  V30 4667 H 435.164 -1.22402 1.5167 0
M  V30 4668 H 434.26 -2.75114 1.47373 0
M  V30 4669 N 434.561 -1.01147 -1.20859 0
M  V30 4670 C 435.972 -0.730205 -1.71828 0
M  V30 4671 C 436.323 0.751662 -1.8123 0
M  V30 4672 O 435.448 1.58686 -1.47132 0
M  V30 4673 C 436.043 -1.31885 -3.12077 0
M  V30 4674 C 434.602 -1.08656 -3.60376 0
M  V30 4675 C 433.749 -1.42769 -2.37723 0
M  V30 4676 H 436.7 -1.18158 -1.05945 0
M  V30 4677 H 436.721 -0.706793 -3.73878 0
M  V30 4678 H 436.233 -2.39737 -3.05201 0
M  V30 4679 H 434.334 -0.0254814 -3.72591 0
M  V30 4680 H 434.447 -1.76301 -4.45483 0
M  V30 4681 H 432.811 -0.846603 -2.40218 0
M  V30 4682 H 433.594 -2.51666 -2.33493 0
M  V30 4683 N 436.039 1.36541 -0.78704 0
M  V30 4684 C 436.987 2.31965 -0.171724 0
M  V30 4685 C 437.981 1.55689 0.667631 0
M  V30 4686 O 439.187 1.70969 0.562981 0
M  V30 4687 H 435.562 0.751101 -0.0367545 0
M  V30 4688 H 437.533 2.81428 -0.992017 0
M  V30 4689 C 436.282 3.40968 0.680904 0
M  V30 4690 H 435.605 3.99775 0.0443961 0
M  V30 4691 H 437.045 4.10063 1.07815 0
M  V30 4692 C 435.504 2.82338 1.83813 0
M  V30 4693 O 436.034 2.74311 2.93456 0
M  V30 4694 N 434.24 2.39661 1.6435 0
M  V30 4695 H 433.787 2.46389 0.751668 0
M  V30 4696 H 433.745 2.00779 2.4194 0
M  V30 4697 N 437.518 0.538854 1.48102 0
M  V30 4698 C 438.468 -0.23907 2.26743 0
M  V30 4699 C 439.452 -0.901923 1.33245 0
M  V30 4700 O 440.644 -0.803263 1.57723 0
M  V30 4701 C 437.773 -1.2799 3.18549 0
M  V30 4702 C 436.859 -0.621388 4.19523 0
M  V30 4703 N 437.25 0.298004 5.04921 0
M  V30 4704 C 435.548 -0.877533 4.37282 0
M  V30 4705 C 436.249 0.678757 5.77726 0
M  V30 4706 N 435.225 0.0377881 5.43587 0
M  V30 4707 H 439.027 0.468096 2.90148 0
M  V30 4708 H 436.541 0.357497 1.58416 0
M  V30 4709 H 438.538 -1.851 3.73555 0
M  V30 4710 H 437.198 -1.98835 2.567 0
M  V30 4711 H 438.209 0.671126 5.13533 0
M  V30 4712 H 434.886 -1.57588 3.86616 0
M  V30 4713 H 436.276 1.43316 6.56437 0
M  V30 4714 N 438.996 -1.55193 0.274407 0
M  V30 4715 C 439.926 -2.25471 -0.607032 0
M  V30 4716 C 440.907 -1.24461 -1.15946 0
M  V30 4717 O 442.092 -1.53179 -1.19373 0
M  V30 4718 C 439.222 -2.97526 -1.79153 0
M  V30 4719 C 438.176 -4.05459 -1.37067 0
M  V30 4720 C 437.502 -4.65084 -2.6382 0
M  V30 4721 C 438.802 -5.19691 -0.521389 0
M  V30 4722 H 440.496 -2.99393 -0.0209343 0
M  V30 4723 H 438.042 -1.43997 -0.00862866 0
M  V30 4724 H 439.995 -3.45402 -2.41404 0
M  V30 4725 H 438.719 -2.21138 -2.40344 0
M  V30 4726 H 437.378 -3.58393 -0.771355 0
M  V30 4727 H 437.026 -3.85365 -3.23268 0
M  V30 4728 H 436.726 -5.37961 -2.36372 0
M  V30 4729 H 438.25 -5.15708 -3.26921 0
M  V30 4730 H 439.664 -5.63623 -1.04889 0
M  V30 4731 H 438.061 -5.99126 -0.341825 0
M  V30 4732 H 439.131 -4.82713 0.46 0
M  V30 4733 N 440.474 -0.00167713 -1.576 0
M  V30 4734 C 441.723 0.682021 -1.89819 0
M  V30 4735 C 442.036 1.74844 -0.876871 0
M  V30 4736 O 443.242 2.48688 -1.08934 0
M  V30 4737 C 441.698 1.26425 -3.36964 0
M  V30 4738 C 441.306 0.232568 -4.47396 0
M  V30 4739 C 443.05 1.92604 -3.78291 0
M  V30 4740 C 440.957 0.824882 -5.85619 0
M  V30 4741 H 439.887 0.258499 -0.708304 0
M  V30 4742 H 442.538 -0.0624957 -1.83394 0
M  V30 4743 H 440.92 2.05949 -3.38232 0
M  V30 4744 H 442.094 -0.5382 -4.57646 0
M  V30 4745 H 440.409 -0.32888 -4.15099 0
M  V30 4746 H 443.006 2.37827 -4.78897 0
M  V30 4747 H 443.349 2.75732 -3.11894 0
M  V30 4748 H 443.882 1.19812 -3.79328 0
M  V30 4749 H 440.621 0.0323542 -6.55492 0
M  V30 4750 H 440.141 1.56477 -5.79029 0
M  V30 4751 H 441.82 1.32301 -6.33329 0
M  V30 4752 N 441.952 1.55251 0.271103 0
M  V30 4753 C 442.899 1.88261 1.33516 0
M  V30 4754 C 443.869 0.734296 1.48988 0
M  V30 4755 O 445.054 0.985741 1.63364 0
M  V30 4756 C 442.194 2.16168 2.69008 0
M  V30 4757 C 441.307 3.43678 2.61743 0
M  V30 4758 C 440.442 3.61276 3.89427 0
M  V30 4759 C 439.481 4.82472 3.7668 0
M  V30 4760 N 438.618 4.96717 4.96202 0
M  V30 4761 H 443.458 2.79015 1.04665 0
M  V30 4762 H 440.995 1.38137 0.505618 0
M  V30 4763 H 442.953 2.30349 3.47844 0
M  V30 4764 H 441.583 1.28646 2.96057 0
M  V30 4765 H 440.635 3.37959 1.74607 0
M  V30 4766 H 441.947 4.3265 2.48224 0
M  V30 4767 H 441.101 3.75284 4.76704 0
M  V30 4768 H 439.84 2.70492 4.05814 0
M  V30 4769 H 438.845 4.68465 2.87786 0
M  V30 4770 H 440.07 5.74692 3.61809 0
M  V30 4771 H 438.016 4.08865 5.12997 0
M  V30 4772 H 437.933 5.79738 4.85222 0
M  V30 4773 H 439.201 5.15113 5.85046 0
M  V30 4774 N 443.43 -0.535701 1.48216 0
M  V30 4775 C 444.38 -1.63688 1.58714 0
M  V30 4776 C 445.364 -1.54635 0.444615 0
M  V30 4777 O 446.556 -1.62753 0.695742 0
M  V30 4778 C 443.685 -3.02423 1.62466 0
M  V30 4779 C 442.771 -3.16601 2.82178 0
M  V30 4780 N 443.162 -3.00771 4.06658 0
M  V30 4781 C 441.46 -3.47645 2.79391 0
M  V30 4782 C 442.161 -3.18213 4.86945 0
M  V30 4783 N 441.137 -3.45528 4.19656 0
M  V30 4784 H 444.939 -1.5005 2.5271 0
M  V30 4785 H 442.453 -0.741018 1.44508 0
M  V30 4786 H 444.45 -3.81517 1.6808 0
M  V30 4787 H 443.11 -3.17157 0.695826 0
M  V30 4788 H 444.121 -2.77652 4.37184 0
M  V30 4789 H 440.798 -3.68771 1.95739 0
M  V30 4790 H 442.188 -3.1076 5.95716 0
M  V30 4791 N 444.908 -1.36708 -0.784132 0
M  V30 4792 C 445.838 -1.34153 -1.91116 0
M  V30 4793 C 446.819 -0.212121 -1.68772 0
M  V30 4794 O 448.004 -0.410581 -1.8981 0
M  V30 4795 C 445.134 -1.13535 -3.28218 0
M  V30 4796 C 444.088 -2.23356 -3.65097 0
M  V30 4797 C 443.414 -1.87875 -5.00607 0
M  V30 4798 C 444.714 -3.65473 -3.73131 0
M  V30 4799 H 446.408 -2.28459 -1.93512 0
M  V30 4800 H 443.954 -1.09973 -0.929618 0
M  V30 4801 H 445.907 -1.10381 -4.06687 0
M  V30 4802 H 444.631 -0.156804 -3.26223 0
M  V30 4803 H 443.29 -2.25645 -2.88929 0
M  V30 4804 H 442.938 -0.885814 -4.95139 0
M  V30 4805 H 442.638 -2.61406 -5.26252 0
M  V30 4806 H 444.162 -1.86286 -5.81489 0
M  V30 4807 H 445.576 -3.65382 -4.41779 0
M  V30 4808 H 443.973 -4.37953 -4.10265 0
M  V30 4809 H 445.043 -3.99995 -2.74102 0
M  V30 4810 N 446.386 1.0089 -1.21074 0
M  V30 4811 C 447.318 2.09737 -0.924291 0
M  V30 4812 C 448.331 1.62546 0.0909809 0
M  V30 4813 O 449.52 1.77942 -0.141021 0
M  V30 4814 C 446.62 3.36922 -0.36559 0
M  V30 4815 C 445.793 4.13216 -1.43426 0
M  V30 4816 C 444.852 5.18696 -0.885496 0
M  V30 4817 O 443.878 5.47176 -1.56801 0
M  V30 4818 N 445.08 5.79718 0.301227 0
M  V30 4819 H 447.845 2.34895 -1.8613 0
M  V30 4820 H 445.406 1.17341 -1.11546 0
M  V30 4821 H 447.398 4.04697 0.0158407 0
M  V30 4822 H 445.968 3.08952 0.476149 0
M  V30 4823 H 445.188 3.40301 -1.9897 0
M  V30 4824 H 446.476 4.60967 -2.15376 0
M  V30 4825 H 445.874 5.58926 0.872849 0
M  V30 4826 H 444.431 6.48804 0.624211 0
M  V30 4827 N 447.864 1.01787 1.20321 0
M  V30 4828 C 449.092 0.727194 1.937 0
M  V30 4829 C 449.507 -0.712305 1.74848 0
M  V30 4830 O 448.864 -1.48327 1.06327 0
M  V30 4831 C 448.915 1.05497 3.45764 0
M  V30 4832 O 448.636 2.43794 3.64 0
M  V30 4833 C 450.137 0.785534 4.36285 0
M  V30 4834 H 447.357 0.266939 0.615617 0
M  V30 4835 H 449.901 1.35939 1.52777 0
M  V30 4836 H 448.056 0.468158 3.84561 0
M  V30 4837 H 448.47 2.55656 4.57974 0
M  V30 4838 H 449.944 1.06495 5.4163 0
M  V30 4839 H 450.421 -0.280273 4.38305 0
M  V30 4840 H 451.027 1.35456 4.03152 0
M  V30 4841 N 449.342 -1.36122 0.79427 0
M  V30 4842 C 450.588 -1.99406 0.369452 0
M  V30 4843 C 450.921 -1.62886 -1.05743 0
M  V30 4844 O 450.196 -0.886053 -1.73145 0
M  V30 4845 C 450.479 -3.56046 0.538833 0
M  V30 4846 C 450.332 -4.02404 2.00976 0
M  V30 4847 C 451.651 -4.40079 -0.0431359 0
M  V30 4848 H 448.77 -0.724397 0.135712 0
M  V30 4849 H 451.412 -1.61461 1.00151 0
M  V30 4850 H 449.562 -3.885 0.000771004 0
M  V30 4851 H 451.234 -3.80415 2.60926 0
M  V30 4852 H 449.477 -3.53765 2.51063 0
M  V30 4853 H 450.148 -5.11344 2.07922 0
M  V30 4854 H 452.624 -4.14013 0.416228 0
M  V30 4855 H 451.5 -5.48799 0.105374 0
M  V30 4856 H 451.761 -4.27264 -1.13571 0
M  V30 4857 N 450.82 -0.546701 -1.47814 0
M  V30 4858 C 451.752 0.244196 -2.27895 0
M  V30 4859 C 452.765 0.88911 -1.36377 0
M  V30 4860 O 453.954 0.764733 -1.61289 0
M  V30 4861 C 451.054 1.36252 -3.10304 0
M  V30 4862 C 450.227 0.816382 -4.29714 0
M  V30 4863 C 449.286 1.81789 -4.93801 0
M  V30 4864 O 448.312 1.36818 -5.52512 0
M  V30 4865 N 449.514 3.15085 -4.87547 0
M  V30 4866 H 452.279 -0.442694 -2.96412 0
M  V30 4867 H 449.84 -0.382095 -1.57327 0
M  V30 4868 H 451.832 2.03102 -3.50045 0
M  V30 4869 H 450.402 1.95281 -2.44099 0
M  V30 4870 H 449.622 -0.0285981 -3.9419 0
M  V30 4871 H 450.91 0.430668 -5.06974 0
M  V30 4872 H 450.308 3.54275 -4.41028 0
M  V30 4873 H 448.865 3.77522 -5.31339 0
M  V30 4874 N 452.299 1.55045 -0.282633 0
M  V30 4875 C 453.231 2.2023 0.634924 0
M  V30 4876 C 454.244 1.18931 1.11172 0
M  V30 4877 O 455.433 1.4562 1.03233 0
M  V30 4878 C 452.533 2.82041 1.87899 0
M  V30 4879 C 451.706 4.091 1.54776 0
M  V30 4880 C 450.765 4.54887 2.64507 0
M  V30 4881 O 449.791 5.20496 2.30375 0
M  V30 4882 N 450.993 4.25659 3.94709 0
M  V30 4883 H 453.758 2.99601 0.0769811 0
M  V30 4884 H 451.319 1.61565 -0.104048 0
M  V30 4885 H 453.311 3.09613 2.60619 0
M  V30 4886 H 451.881 2.06618 2.3458 0
M  V30 4887 H 451.101 3.88736 0.654049 0
M  V30 4888 H 452.389 4.9187 1.30158 0
M  V30 4889 H 451.787 3.7306 4.25256 0
M  V30 4890 H 450.344 4.57984 4.63782 0
M  V30 4891 N 453.777 0.010035 1.57597 0
M  V30 4892 C 454.725 -0.996272 2.10184 0
M  V30 4893 C 455.719 -1.34942 1.02406 0
M  V30 4894 O 456.925 -1.33389 1.20861 0
M  V30 4895 H 453.3 -0.338982 0.671264 0
M  V30 4896 H 455.271 -0.527272 2.93705 0
M  V30 4897 C 454.02 -2.27599 2.62857 0
M  V30 4898 H 453.343 -2.01295 3.45428 0
M  V30 4899 H 454.783 -2.96265 3.0332 0
M  V30 4900 C 453.242 -2.99269 1.54725 0
M  V30 4901 O 453.772 -3.90644 0.93597 0
M  V30 4902 N 451.978 -2.61269 1.27228 0
M  V30 4903 H 451.525 -1.87043 1.77123 0
M  V30 4904 H 451.483 -3.09534 0.550999 0
M  V30 4905 N 455.255 -1.55392 -0.262866 0
M  V30 4906 C 456.483 -1.80513 -1.01108 0
M  V30 4907 C 456.898 -0.583533 -1.79556 0
M  V30 4908 O 456.255 0.447585 -1.76926 0
M  V30 4909 C 456.306 -3.03648 -1.96164 0
M  V30 4910 O 456.027 -4.2109 -1.20893 0
M  V30 4911 C 457.528 -3.41448 -2.82715 0
M  V30 4912 H 454.748 -0.601079 -0.298236 0
M  V30 4913 H 457.292 -2.02425 -0.290582 0
M  V30 4914 H 455.447 -2.83832 -2.63663 0
M  V30 4915 H 455.861 -4.90771 -1.85051 0
M  V30 4916 H 457.335 -4.30751 -3.45192 0
M  V30 4917 H 457.812 -2.61308 -3.53008 0
M  V30 4918 H 458.418 -3.63559 -2.20693 0
M  V30 4919 N 456.733 0.527833 -1.48498 0
M  V30 4920 C 457.982 1.28003 -1.55878 0
M  V30 4921 C 458.295 1.9414 -0.238577 0
M  V30 4922 O 459.501 2.7083 -0.190643 0
M  V30 4923 C 457.957 2.32272 -2.74914 0
M  V30 4924 C 457.565 1.72196 -4.13585 0
M  V30 4925 C 459.309 3.08488 -2.91608 0
M  V30 4926 C 457.216 2.74417 -5.23879 0
M  V30 4927 H 456.146 0.481413 -0.580308 0
M  V30 4928 H 458.797 0.557195 -1.74836 0
M  V30 4929 H 457.179 3.07601 -2.49395 0
M  V30 4930 H 458.353 1.03041 -4.49132 0
M  V30 4931 H 456.668 1.08464 -4.02025 0
M  V30 4932 H 459.265 3.84879 -3.71177 0
M  V30 4933 H 459.608 3.64481 -2.01145 0
M  V30 4934 H 460.141 2.40274 -3.17038 0
M  V30 4935 H 456.88 2.23242 -6.16314 0
M  V30 4936 H 456.4 3.41893 -4.92818 0
M  V30 4937 H 458.079 3.37362 -5.52083 0
M  V30 4938 N 458.211 1.37122 0.776871 0
M  V30 4939 C 459.441 1.35034 1.56363 0
M  V30 4940 C 459.849 -0.0674681 1.8908 0
M  V30 4941 O 459.192 -1.03826 1.51545 0
M  V30 4942 C 459.254 2.11894 2.90415 0
M  V30 4943 C 458.918 3.60897 2.80362 0
M  V30 4944 C 459.915 4.54887 2.51742 0
M  V30 4945 C 457.6 4.03951 2.98545 0
M  V30 4946 C 459.594 5.89909 2.41426 0
M  V30 4947 C 457.281 5.3906 2.87849 0
M  V30 4948 C 458.279 6.31852 2.5933 0
M  V30 4949 O 457.967 7.64479 2.48651 0
M  V30 4950 H 457.699 0.464402 0.49123 0
M  V30 4951 H 460.253 1.80992 0.971127 0
M  V30 4952 H 458.483 1.60618 3.51765 0
M  V30 4953 H 460.172 2.02505 3.51776 0
M  V30 4954 H 460.938 4.22934 2.37385 0
M  V30 4955 H 456.817 3.3209 3.19746 0
M  V30 4956 H 460.361 6.62304 2.19086 0
M  V30 4957 H 456.258 5.70617 3.01773 0
M  V30 4958 H 457.026 7.74742 2.64039 0
M  V30 4959 N 459.689 -1.00246 1.21608 0
M  V30 4960 C 460.917 -1.77631 1.06089 0
M  V30 4961 C 461.332 -1.84746 -0.38916 0
M  V30 4962 O 460.689 -1.31068 -1.26994 0
M  V30 4963 C 460.74 -3.21415 1.65453 0
M  V30 4964 O 460.461 -3.14703 3.04785 0
M  V30 4965 C 461.962 -4.15289 1.55079 0
M  V30 4966 H 459.182 -0.558162 0.37242 0
M  V30 4967 H 461.726 -1.26093 1.60999 0
M  V30 4968 H 459.881 -3.70053 1.14629 0
M  V30 4969 H 460.295 -4.05056 3.33212 0
M  V30 4970 H 461.769 -5.13965 2.01355 0
M  V30 4971 H 462.246 -4.36279 0.505665 0
M  V30 4972 H 462.852 -3.72543 2.05163 0
M  V30 4973 N 461.167 -1.02423 -1.1978 0
M  V30 4974 C 462.407 -0.726635 -1.91048 0
M  V30 4975 C 462.771 0.730947 -1.77542 0
M  V30 4976 O 463.972 1.14141 -2.43362 0
M  V30 4977 C 462.243 -1.15964 -3.38064 0
M  V30 4978 S 463.802 -0.985172 -4.27598 0
M  V30 4979 H 460.62 -0.264679 -0.659899 0
M  V30 4980 H 463.222 -1.31309 -1.44838 0
M  V30 4981 H 461.926 -2.21619 -3.45417 0
M  V30 4982 H 461.457 -0.566274 -3.89303 0
M  V30 4983 H 463.472 0.106946 -4.96085 0
M  V30 4984 N 462.645 1.35699 -0.801477 0
M  V30 4985 C 463.608 2.28199 -0.213994 0
M  V30 4986 C 464.608 1.49359 0.595691 0
M  V30 4987 O 465.798 1.69186 0.414921 0
M  V30 4988 C 462.93 3.33587 0.702297 0
M  V30 4989 H 464.123 2.81666 -1.02976 0
M  V30 4990 H 461.676 1.45467 -0.571759 0
M  V30 4991 H 462.411 2.85297 1.54195 0
M  V30 4992 H 462.196 3.91906 0.123484 0
M  V30 4993 H 463.686 4.02638 1.10783 0
M  V30 4994 N 464.123 0.554532 1.47522 0
M  V30 4995 C 465.351 0.034257 2.06872 0
M  V30 4996 C 465.766 -1.25826 1.40759 0
M  V30 4997 O 465.123 -1.75425 0.503217 0
M  V30 4998 C 465.174 -0.167827 3.6111 0
M  V30 4999 O 464.895 1.07351 4.24744 0
M  V30 5000 C 466.396 -0.72569 4.3732 0
M  V30 5001 H 463.616 0.0446275 0.669514 0
M  V30 5002 H 466.16 0.767181 1.89564 0
M  V30 5003 H 464.315 -0.850872 3.7794 0
M  V30 5004 H 464.729 0.869563 5.17242 0
M  V30 5005 H 466.203 -0.816394 5.45929 0
M  V30 5006 H 466.68 -1.73635 4.0342 0
M  V30 5007 H 467.286 -0.0784292 4.25228 0
M  V30 5008 N 465.601 -1.54893 0.290851 0
M  V30 5009 C 467.012 -1.85584 -0.203816 0
M  V30 5010 C 467.363 -1.21285 -1.54222 0
M  V30 5011 O 466.488 -0.506841 -2.10381 0
M  V30 5012 C 467.083 -3.367 -0.376595 0
M  V30 5013 C 465.642 -3.6746 -0.815485 0
M  V30 5014 C 464.789 -2.77178 0.0821087 0
M  V30 5015 H 467.74 -1.50208 0.512175 0
M  V30 5016 H 467.761 -3.60656 -1.21275 0
M  V30 5017 H 467.273 -3.8347 0.59767 0
M  V30 5018 H 465.374 -3.26201 -1.80066 0
M  V30 5019 H 465.487 -4.7478 -0.641905 0
M  V30 5020 H 463.851 -2.50925 -0.436895 0
M  V30 5021 H 464.634 -3.26767 1.05254 0
M  V30 5022 N 467.08 -0.0183926 -1.57589 0
M  V30 5023 C 468.01 0.965596 -2.12599 0
M  V30 5024 C 468.991 1.34641 -1.0395 0
M  V30 5025 O 470.176 1.42693 -1.31729 0
M  V30 5026 C 467.306 2.25149 -2.64434 0
M  V30 5027 C 466.26 2.01175 -3.77773 0
M  V30 5028 C 465.586 3.35937 -4.15994 0
M  V30 5029 C 466.886 1.35953 -5.04296 0
M  V30 5030 H 468.58 0.507504 -2.95067 0
M  V30 5031 H 466.126 0.242671 -1.41941 0
M  V30 5032 H 468.079 2.94357 -3.01549 0
M  V30 5033 H 466.803 2.73105 -1.79112 0
M  V30 5034 H 465.462 1.34388 -3.4108 0
M  V30 5035 H 465.11 3.81631 -3.27669 0
M  V30 5036 H 464.81 3.20705 -4.92364 0
M  V30 5037 H 466.334 4.0643 -4.55683 0
M  V30 5038 H 467.748 1.95144 -5.39065 0
M  V30 5039 H 466.145 1.31152 -5.85593 0
M  V30 5040 H 467.215 0.331071 -4.83768 0
M  V30 5041 N 468.558 1.5553 0.254621 0
M  V30 5042 C 469.49 1.86104 1.33783 0
M  V30 5043 C 470.503 0.746752 1.44663 0
M  V30 5044 O 471.692 1.0248 1.46151 0
M  V30 5045 C 468.792 2.02532 2.71724 0
M  V30 5046 C 467.965 3.33335 2.83208 0
M  V30 5047 C 467.024 3.396 4.01943 0
M  V30 5048 O 466.05 4.12862 3.91834 0
M  V30 5049 N 467.252 2.68332 5.1476 0
M  V30 5050 H 470.017 2.79605 1.07893 0
M  V30 5051 H 467.578 1.55672 0.444732 0
M  V30 5052 H 469.57 2.04074 3.4948 0
M  V30 5053 H 468.14 1.15811 2.90356 0
M  V30 5054 H 467.36 3.44176 1.92189 0
M  V30 5055 H 468.648 4.19565 2.87824 0
M  V30 5056 H 468.046 2.08528 5.25864 0
M  V30 5057 H 466.603 2.75575 5.90679 0
M  V30 5058 N 470.036 -0.519951 1.48776 0
M  V30 5059 C 470.946 -1.65025 1.66745 0
M  V30 5060 C 471.962 -1.6508 0.549954 0
M  V30 5061 O 473.138 -1.83848 0.822295 0
M  V30 5062 C 470.203 -3.0146 1.71238 0
M  V30 5063 C 469.264 -3.12182 2.94688 0
M  V30 5064 C 468.497 -4.42109 2.98958 0
M  V30 5065 O 468.72 -5.29799 2.1135 0
M  V30 5066 O 467.654 -4.57406 3.91233 0
M  V30 5067 H 471.48 -1.52801 2.62461 0
M  V30 5068 H 469.065 -0.694157 1.32294 0
M  V30 5069 H 470.947 -3.82584 1.76657 0
M  V30 5070 H 469.622 -3.13988 0.786975 0
M  V30 5071 H 468.529 -2.30316 2.94797 0
M  V30 5072 H 469.862 -3.04574 3.86646 0
M  V30 5073 N 471.514 -1.37532 -0.769588 0
M  V30 5074 C 472.477 -1.33292 -1.86456 0
M  V30 5075 C 473.477 -0.236537 -1.59051 0
M  V30 5076 O 474.667 -0.492511 -1.67093 0
M  V30 5077 C 471.799 -1.07118 -3.23633 0
M  V30 5078 H 472.992 -2.30692 -1.91628 0
M  V30 5079 H 470.545 -1.22593 -0.969572 0
M  V30 5080 H 471.28 -0.102578 -3.24138 0
M  V30 5081 H 471.065 -1.86479 -3.44917 0
M  V30 5082 H 472.555 -1.06806 -4.03711 0
M  V30 5083 N 472.992 0.995999 -1.22138 0
M  V30 5084 C 473.922 2.10387 -1.01289 0
M  V30 5085 C 474.903 1.69975 0.0651454 0
M  V30 5086 O 476.088 1.9396 -0.0964628 0
M  V30 5087 C 473.218 3.42312 -0.586517 0
M  V30 5088 C 472.172 3.96558 -1.61014 0
M  V30 5089 C 471.498 5.24494 -1.0397 0
M  V30 5090 C 472.798 4.27595 -2.99933 0
M  V30 5091 H 474.492 2.28086 -1.93951 0
M  V30 5092 H 472.038 1.09607 -0.933928 0
M  V30 5093 H 473.991 4.19223 -0.427793 0
M  V30 5094 H 472.715 3.24431 0.375761 0
M  V30 5095 H 471.374 3.21776 -1.75658 0
M  V30 5096 H 471.022 5.02953 -0.0688703 0
M  V30 5097 H 470.722 5.61755 -1.72352 0
M  V30 5098 H 472.246 6.04042 -0.892494 0
M  V30 5099 H 473.66 4.95315 -2.8868 0
M  V30 5100 H 472.057 4.76021 -3.6541 0
M  V30 5101 H 473.127 3.35498 -3.50099 0
M  V30 5102 N 474.47 1.03057 1.19235 0
M  V30 5103 C 475.433 0.617418 2.20727 0
M  V30 5104 C 476.433 -0.319856 1.57587 0
M  V30 5105 O 477.623 -0.106633 1.73873 0
M  V30 5106 C 474.755 -0.096296 3.40764 0
M  V30 5107 H 475.948 1.51544 2.58794 0
M  V30 5108 H 473.501 0.821949 1.32942 0
M  V30 5109 H 474.236 -1.00859 3.08217 0
M  V30 5110 H 474.021 0.577217 3.87828 0
M  V30 5111 H 475.511 -0.372219 4.15938 0
M  V30 5112 N 475.948 -1.35272 0.808662 0
M  V30 5113 C 476.88 -2.28507 0.178149 0
M  V30 5114 C 477.893 -1.50377 -0.623754 0
M  V30 5115 O 479.082 -1.72583 -0.455774 0
M  V30 5116 C 476.182 -3.30038 -0.769959 0
M  V30 5117 C 475.355 -4.37398 -0.0139749 0
M  V30 5118 C 474.414 -5.18775 -0.880875 0
M  V30 5119 O 473.44 -5.68236 -0.331059 0
M  V30 5120 N 474.642 -5.37087 -2.20267 0
M  V30 5121 H 477.407 -2.83255 0.979106 0
M  V30 5122 H 474.968 -1.47643 0.664308 0
M  V30 5123 H 476.96 -3.81371 -1.35418 0
M  V30 5124 H 475.53 -2.75789 -1.47171 0
M  V30 5125 H 474.75 -3.86971 0.751468 0
M  V30 5126 H 476.038 -5.06268 0.506965 0
M  V30 5127 H 475.436 -4.9855 -2.67328 0
M  V30 5128 H 473.993 -5.91593 -2.73608 0
M  V30 5129 N 477.426 -0.562348 -1.47226 0
M  V30 5130 C 478.389 0.172056 -2.28553 0
M  V30 5131 C 479.389 0.837928 -1.37242 0
M  V30 5132 O 480.579 0.693001 -1.59822 0
M  V30 5133 C 477.711 1.25223 -3.17068 0
M  V30 5134 H 478.904 -0.542401 -2.94954 0
M  V30 5135 H 476.457 -0.319493 -1.53 0
M  V30 5136 H 477.192 1.99892 -2.55369 0
M  V30 5137 H 476.977 0.779515 -3.84273 0
M  V30 5138 H 478.467 1.76791 -3.78332 0
M  V30 5139 N 478.904 1.54736 -0.299062 0
M  V30 5140 C 480.151 2.00101 0.310784 0
M  V30 5141 C 480.479 1.18746 1.54045 0
M  V30 5142 O 479.734 0.251198 1.94081 0
M  V30 5143 C 480.033 3.50199 0.713835 0
M  V30 5144 C 479.699 4.48997 -0.413873 0
M  V30 5145 C 478.361 4.7573 -0.723462 0
M  V30 5146 C 480.713 5.07839 -1.17257 0
M  V30 5147 C 478.041 5.5857 -1.79491 0
M  V30 5148 C 480.393 5.91844 -2.23392 0
M  V30 5149 C 479.057 6.16889 -2.54959 0
M  V30 5150 H 478.327 0.732221 0.113724 0
M  V30 5151 H 480.974 1.86888 -0.417756 0
M  V30 5152 H 479.279 3.61012 1.52243 0
M  V30 5153 H 480.976 3.82723 1.19684 0
M  V30 5154 H 477.566 4.28292 -0.162476 0
M  V30 5155 H 481.75 4.87188 -0.946651 0
M  V30 5156 H 477.006 5.76213 -2.04423 0
M  V30 5157 H 481.18 6.36465 -2.8264 0
M  V30 5158 H 478.807 6.80869 -3.38114 0
M  V30 5159 N 480.382 0.0267497 1.57577 0
M  V30 5160 C 481.628 -0.647596 1.92815 0
M  V30 5161 C 481.983 -1.69872 0.903396 0
M  V30 5162 O 481.276 -1.91429 -0.0808881 0
M  V30 5163 C 481.47 -1.30914 3.3256 0
M  V30 5164 C 481.299 -0.323621 4.48534 0
M  V30 5165 C 480.069 0.0756607 5.05243 0
M  V30 5166 C 482.267 0.42112 5.12573 0
M  V30 5167 N 480.249 1.0566 6.04739 0
M  V30 5168 C 481.62 1.25589 6.07147 0
M  V30 5169 C 483.675 0.482077 4.95561 0
M  V30 5170 C 482.378 2.1461 6.86538 0
M  V30 5171 C 484.404 1.35962 5.75559 0
M  V30 5172 C 483.766 2.18217 6.69747 0
M  V30 5173 H 479.865 -0.209357 0.753454 0
M  V30 5174 H 482.449 0.0933695 1.94476 0
M  V30 5175 H 480.62 -2.02026 3.31723 0
M  V30 5176 H 482.352 -1.94033 3.55153 0
M  V30 5177 H 479.107 -0.298294 4.7266 0
M  V30 5178 H 479.531 1.54324 6.59176 0
M  V30 5179 H 484.173 -0.139609 4.22569 0
M  V30 5180 H 481.891 2.77835 7.58837 0
M  V30 5181 H 485.477 1.41105 5.6443 0
M  V30 5182 H 484.357 2.85022 7.3057 0
M  V30 5183 N 481.861 -1.55662 -0.24637 0
M  V30 5184 C 483.11 -1.7672 -0.972254 0
M  V30 5185 C 483.423 -0.59078 -1.86465 0
M  V30 5186 O 484.629 -0.684391 -2.62732 0
M  V30 5187 C 483.085 -3.12869 -1.7788 0
M  V30 5188 C 482.693 -4.38161 -0.933768 0
M  V30 5189 C 484.437 -3.43265 -2.49738 0
M  V30 5190 C 482.344 -5.6534 -1.73623 0
M  V30 5191 H 481.274 -0.658795 -0.366749 0
M  V30 5192 H 483.925 -1.82092 -0.226902 0
M  V30 5193 H 482.307 -3.01606 -2.56612 0
M  V30 5194 H 483.481 -4.60413 -0.188736 0
M  V30 5195 H 481.796 -4.15102 -0.328488 0
M  V30 5196 H 484.393 -4.35501 -3.10231 0
M  V30 5197 H 484.736 -2.64614 -3.2138 0
M  V30 5198 H 485.269 -3.55746 -1.78016 0
M  V30 5199 H 482.008 -6.46814 -1.06354 0
M  V30 5200 H 481.528 -5.47188 -2.45653 0
M  V30 5201 H 483.207 -6.04616 -2.30323 0
M  V30 5202 N 483.339 0.512053 -1.4905 0
M  V30 5203 C 484.616 1.27337 -1.48474 0
M  V30 5204 C 484.996 2.1009 -0.206301 0
M  V30 5205 O 484.344 2.136 0.811609 0
M  V30 5206 C 484.554 2.13954 -2.75726 0
M  V30 5207 C 485.902 2.73507 -3.24776 0
M  V30 5208 O 486.926 2.24229 -2.76767 0
M  V30 5209 O 485.785 3.63186 -4.08361 0
M  V30 5210 H 482.879 0.575652 -0.593762 0
M  V30 5211 H 485.425 0.527232 -1.61302 0
M  V30 5212 H 484.197 1.52709 -3.60272 0
M  V30 5213 H 483.82 2.95782 -2.65705 0
M  V30 5214 N 484.817 1.37938 0.762283 0
M  V30 5215 C 486.066 1.32989 1.51647 0
M  V30 5216 C 486.379 -0.0802922 1.95435 0
M  V30 5217 O 487.585 -0.252295 2.70325 0
M  V30 5218 C 486.041 2.33485 2.73885 0
M  V30 5219 C 485.649 3.80079 2.37157 0
M  V30 5220 C 487.393 2.37563 3.51801 0
M  V30 5221 C 485.3 4.72283 3.55954 0
M  V30 5222 H 484.23 0.494301 0.56937 0
M  V30 5223 H 486.881 1.63448 0.834083 0
M  V30 5224 H 485.263 1.96056 3.44061 0
M  V30 5225 H 486.437 4.26398 1.74704 0
M  V30 5226 H 484.752 3.79037 1.72395 0
M  V30 5227 H 487.349 3.0365 4.40114 0
M  V30 5228 H 487.692 1.39199 3.92338 0
M  V30 5229 H 488.225 2.73747 2.8863 0
M  V30 5230 H 484.964 5.7181 3.2049 0
M  V30 5231 H 484.484 4.30663 4.1748 0
M  V30 5232 H 486.163 4.89876 4.22647 0
M  V30 5233 N 486.295 -0.989507 1.22664 0
M  V30 5234 C 487.242 -2.08024 0.999733 0
M  V30 5235 C 488.212 -1.65909 -0.0797047 0
M  V30 5236 O 489.397 -1.90669 0.0705715 0
M  V30 5237 C 486.537 -3.40067 0.587234 0
M  V30 5238 C 485.65 -3.95505 1.73781 0
M  V30 5239 C 484.785 -5.15722 1.27297 0
M  V30 5240 C 483.824 -5.63305 2.39488 0
M  V30 5241 N 482.961 -6.74758 1.94026 0
M  V30 5242 H 487.801 -2.26768 1.9334 0
M  V30 5243 H 485.338 -1.11171 0.963297 0
M  V30 5244 H 487.296 -4.15899 0.329227 0
M  V30 5245 H 485.926 -3.21314 -0.309426 0
M  V30 5246 H 484.978 -3.16513 2.11006 0
M  V30 5247 H 486.29 -4.26797 2.58158 0
M  V30 5248 H 485.444 -5.98854 0.972546 0
M  V30 5249 H 484.183 -4.86061 0.399445 0
M  V30 5250 H 483.188 -4.78759 2.70315 0
M  V30 5251 H 484.413 -5.94988 3.27362 0
M  V30 5252 H 482.359 -6.46874 1.09041 0
M  V30 5253 H 482.276 -7.05386 2.71968 0
M  V30 5254 H 483.544 -7.61387 1.67062 0
M  V30 5255 N 487.773 -1.03688 -1.18687 0
M  V30 5256 C 489.189 -0.755413 -1.4059 0
M  V30 5257 C 489.389 0.656659 -1.905 0
M  V30 5258 O 488.445 1.42144 -2.08689 0
M  V30 5259 C 489.758 -1.7983 -2.41001 0
M  V30 5260 C 491.306 -1.81877 -2.54735 0
M  V30 5261 C 491.781 -2.85148 -3.58406 0
M  V30 5262 N 493.272 -2.84015 -3.6591 0
M  V30 5263 C 494.007 -3.60573 -4.45841 0
M  V30 5264 N 493.503 -4.46871 -5.29413 0
M  V30 5265 N 495.296 -3.49079 -4.40568 0
M  V30 5266 H 487.447 -1.94818 -0.846148 0
M  V30 5267 H 489.71 -0.842727 -0.434184 0
M  V30 5268 H 489.416 -2.81097 -2.1137 0
M  V30 5269 H 489.29 -1.62727 -3.40294 0
M  V30 5270 H 491.677 -0.812836 -2.83685 0
M  V30 5271 H 491.758 -2.03057 -1.55568 0
M  V30 5272 H 491.402 -3.85918 -3.30197 0
M  V30 5273 H 491.332 -2.61224 -4.57241 0
M  V30 5274 H 493.823 -2.21431 -3.0623 0
M  V30 5275 H 494.136 -5.02007 -5.87545 0
M  V30 5276 H 492.481 -4.5094 -5.28846 0
M  V30 5277 H 495.672 -2.81066 -3.74325 0
M  V30 5278 H 495.845 -4.08994 -5.02621 0
M  V30 5279 N 489.251 1.34841 -0.815825 0
M  V30 5280 C 490.184 2.27504 -0.178062 0
M  V30 5281 C 491.162 1.48542 0.661373 0
M  V30 5282 O 492.346 1.77779 0.626653 0
M  V30 5283 C 489.473 3.30246 0.752002 0
M  V30 5284 C 488.519 4.26499 -0.00899172 0
M  V30 5285 S 489.352 5.18169 -1.35134 0
M  V30 5286 C 490.508 6.24449 -0.42596 0
M  V30 5287 H 490.741 2.81248 -0.963684 0
M  V30 5288 H 488.274 1.41781 -0.611355 0
M  V30 5289 H 490.232 3.89933 1.28308 0
M  V30 5290 H 488.893 2.75363 1.51109 0
M  V30 5291 H 488.086 4.99146 0.697766 0
M  V30 5292 H 487.688 3.7103 -0.470396 0
M  V30 5293 H 489.98 6.76404 0.385234 0
M  V30 5294 H 490.923 6.99156 -1.1219 0
M  V30 5295 H 491.331 5.64497 -0.0175461 0
M  V30 5296 N 490.729 0.570148 1.46925 0
M  V30 5297 C 492.006 -0.0153259 1.95594 0
M  V30 5298 C 492.386 -1.47232 1.51281 0
M  V30 5299 O 491.734 -2.15574 0.757624 0
M  V30 5300 C 491.944 0.143624 3.48704 0
M  V30 5301 C 493.292 0.00494484 4.246 0
M  V30 5302 O 494.316 0.0718214 3.56128 0
M  V30 5303 O 493.175 -0.141175 5.46318 0
M  V30 5304 H 490.269 -0.0568819 0.825041 0
M  V30 5305 H 492.815 0.637583 1.57267 0
M  V30 5306 H 491.587 1.15699 3.73804 0
M  V30 5307 H 491.21 -0.5463 3.93829 0
M  V30 5308 N 492.207 -1.54576 0.307264 0
M  V30 5309 C 493.484 -1.92377 -0.353605 0
M  V30 5310 C 493.864 -1.23517 -1.71192 0
M  V30 5311 O 493.212 -0.373101 -2.25433 0
M  V30 5312 C 493.422 -3.45928 -0.462039 0
M  V30 5313 C 494.77 -4.18278 -0.729975 0
M  V30 5314 O 495.794 -3.51997 -0.545605 0
M  V30 5315 O 494.653 -5.3563 -1.08454 0
M  V30 5316 H 491.747 -0.802747 -0.198812 0
M  V30 5317 H 494.293 -1.65929 0.355783 0
M  V30 5318 H 493.065 -3.88187 0.492592 0
M  V30 5319 H 492.688 -3.78431 -1.21965 0
M  V30 5320 N 493.685 -0.035106 -1.57561 0
M  V30 5321 C 495.096 0.502885 -1.798 0
M  V30 5322 C 495.447 1.71892 -0.945921 0
M  V30 5323 O 494.572 2.15822 -0.157991 0
M  V30 5324 C 495.167 0.919097 -3.26095 0
M  V30 5325 C 493.726 1.40216 -3.49308 0
M  V30 5326 C 492.873 0.369709 -2.74824 0
M  V30 5327 H 495.824 -0.261102 -1.56537 0
M  V30 5328 H 495.845 1.78308 -3.36135 0
M  V30 5329 H 495.357 0.0338526 -3.88085 0
M  V30 5330 H 493.458 2.30714 -2.92578 0
M  V30 5331 H 493.571 1.40541 -4.58023 0
M  V30 5332 H 491.935 0.839113 -2.40481 0
M  V30 5333 H 492.718 -0.507173 -3.39533 0
M  V30 5334 N 495.163 1.55791 0.238111 0
M  V30 5335 C 496.073 1.94196 1.31625 0
M  V30 5336 C 497.089 0.843545 1.52185 0
M  V30 5337 O 498.265 1.1457 1.65637 0
M  V30 5338 C 495.33 2.2365 2.64918 0
M  V30 5339 C 494.391 3.46971 2.52804 0
M  V30 5340 C 493.624 3.7501 3.79741 0
M  V30 5341 O 493.847 3.04982 4.82019 0
M  V30 5342 O 492.781 4.68525 3.77846 0
M  V30 5343 H 496.607 2.86044 1.02043 0
M  V30 5344 H 494.192 1.42786 0.439603 0
M  V30 5345 H 496.074 2.43863 3.4367 0
M  V30 5346 H 494.749 1.34979 2.94215 0
M  V30 5347 H 493.656 3.32055 1.72309 0
M  V30 5348 H 494.989 4.35971 2.28451 0
M  V30 5349 N 496.642 -0.504142 1.49319 0
M  V30 5350 C 497.882 -1.26867 1.60263 0
M  V30 5351 C 498.246 -1.89924 0.281578 0
M  V30 5352 O 499.447 -2.67479 0.266176 0
M  V30 5353 C 497.718 -2.30956 2.72753 0
M  V30 5354 S 499.277 -3.1679 3.03628 0
M  V30 5355 H 496.095 -0.431198 0.565322 0
M  V30 5356 H 498.697 -0.571407 1.86963 0
M  V30 5357 H 497.401 -1.83156 3.67263 0
M  V30 5358 H 496.932 -3.05356 2.48035 0
M  V30 5359 H 498.947 -4.31549 2.44908 0
M  V30 5360 N 498.12 -1.38341 -0.754957 0
M  V30 5361 C 499.35 -1.37504 -1.54195 0
M  V30 5362 C 499.758 0.0373787 -1.89163 0
M  V30 5363 O 499.101 1.01402 -1.53178 0
M  V30 5364 C 499.163 -2.16488 -2.87008 0
M  V30 5365 C 498.827 -3.65311 -2.74585 0
M  V30 5366 C 499.824 -4.58834 -2.44474 0
M  V30 5367 C 497.509 -4.08649 -2.9208 0
M  V30 5368 C 499.503 -5.93675 -2.32011 0
M  V30 5369 C 497.19 -5.43571 -2.79237 0
M  V30 5370 C 498.188 -6.35898 -2.49245 0
M  V30 5371 O 497.876 -7.68338 -2.36458 0
M  V30 5372 H 497.608 -0.472159 -0.483779 0
M  V30 5373 H 500.162 -1.82515 -0.94221 0
M  V30 5374 H 498.392 -1.66194 -3.49166 0
M  V30 5375 H 500.081 -2.08076 -3.4851 0
M  V30 5376 H 500.847 -4.26657 -2.30627 0
M  V30 5377 H 496.726 -3.37134 -3.14422 0
M  V30 5378 H 500.27 -6.65706 -2.08522 0
M  V30 5379 H 496.167 -5.75345 -2.92657 0
M  V30 5380 H 496.935 -7.78845 -2.5168 0
M  V30 5381 N 499.598 0.982988 -1.23187 0
M  V30 5382 C 500.845 1.72392 -1.06241 0
M  V30 5383 C 501.173 1.9032 0.40108 0
M  V30 5384 O 500.428 1.45084 1.31336 0
M  V30 5385 C 500.727 3.12736 -1.73006 0
M  V30 5386 C 500.393 3.14695 -3.22921 0
M  V30 5387 C 499.055 3.14937 -3.63824 0
M  V30 5388 C 501.407 3.10211 -4.1883 0
M  V30 5389 C 498.735 3.08408 -4.99101 0
M  V30 5390 C 501.087 3.05224 -5.54095 0
M  V30 5391 C 499.751 3.03787 -5.94365 0
M  V30 5392 H 499.021 0.630829 -0.388762 0
M  V30 5393 H 501.668 1.15053 -1.53085 0
M  V30 5394 H 499.973 3.73446 -1.18514 0
M  V30 5395 H 501.67 3.68828 -1.57374 0
M  V30 5396 H 498.26 3.15262 -2.90358 0
M  V30 5397 H 502.444 3.09166 -3.8824 0
M  V30 5398 H 497.7 3.05646 -5.29519 0
M  V30 5399 H 501.874 3.00712 -6.28128 0
M  V30 5400 H 499.501 2.98483 -6.99151 0
M  V30 5401 N 501.076 1.04316 1.18135 0
M  V30 5402 C 502.024 0.630175 2.23901 0
M  V30 5403 C 503.018 -0.344254 1.65865 0
M  V30 5404 O 504.224 -0.211273 1.78756 0
M  V30 5405 H 500.599 0.185578 0.728742 0
M  V30 5406 H 502.57 1.53253 2.56039 0
M  V30 5407 C 501.319 0.011666 3.47698 0
M  V30 5408 H 500.642 0.752526 3.92654 0
M  V30 5409 H 502.082 -0.240046 4.2332 0
M  V30 5410 C 500.541 -1.23913 3.13285 0
M  V30 5411 O 501.071 -2.32959 3.27251 0
M  V30 5412 N 499.277 -1.13338 2.67587 0
M  V30 5413 H 498.824 -0.246006 2.56423 0
M  V30 5414 H 498.782 -1.97116 2.44934 0
M  V30 5415 N 502.554 -1.34406 0.822964 0
M  V30 5416 C 503.779 -2.0304 0.423034 0
M  V30 5417 C 504.204 -1.61568 -0.963196 0
M  V30 5418 O 503.562 -0.800339 -1.62678 0
M  V30 5419 C 503.61 -3.56636 0.53321 0
M  V30 5420 O 502.714 -4.09971 -0.446939 0
M  V30 5421 H 502.055 -0.64075 0.174171 0
M  V30 5422 H 504.585 -1.71653 1.11339 0
M  V30 5423 H 504.595 -4.05945 0.408991 0
M  V30 5424 H 503.27 -3.86168 1.54425 0
M  V30 5425 H 501.847 -3.71835 -0.281601 0
M  V30 5426 N 504.032 -0.577932 -1.46621 0
M  V30 5427 C 504.962 0.145917 -2.33044 0
M  V30 5428 C 505.943 0.888412 -1.45056 0
M  V30 5429 O 507.128 0.864812 -1.73881 0
M  V30 5430 C 504.258 1.16322 -3.27241 0
M  V30 5431 C 503.212 0.535868 -4.24632 0
M  V30 5432 C 502.538 1.65929 -5.08303 0
M  V30 5433 C 503.838 -0.523861 -5.19666 0
M  V30 5434 H 505.532 -0.575636 -2.93814 0
M  V30 5435 H 503.078 -0.278272 -1.41286 0
M  V30 5436 H 505.031 1.67793 -3.86553 0
M  V30 5437 H 503.755 1.91498 -2.64567 0
M  V30 5438 H 502.414 0.0422759 -3.66576 0
M  V30 5439 H 502.062 2.40061 -4.42018 0
M  V30 5440 H 501.762 1.2452 -5.74255 0
M  V30 5441 H 503.286 2.17686 -5.70478 0
M  V30 5442 H 504.7 -0.0944059 -5.73222 0
M  V30 5443 H 503.097 -0.858 -5.93935 0
M  V30 5444 H 504.167 -1.41197 -4.63887 0
M  V30 5445 N 505.51 1.54411 -0.315457 0
M  V30 5446 C 506.921 1.85885 0.174265 0
M  V30 5447 C 507.272 1.23723 1.52273 0
M  V30 5448 O 506.397 0.540246 2.09548 0
M  V30 5449 C 506.992 3.37257 0.322981 0
M  V30 5450 C 505.551 3.68711 0.756922 0
M  V30 5451 C 504.698 2.77013 -0.126195 0
M  V30 5452 H 507.649 1.49374 -0.536007 0
M  V30 5453 H 507.67 3.62539 1.15522 0
M  V30 5454 H 507.182 3.82471 -0.658602 0
M  V30 5455 H 505.283 3.29024 1.74854 0
M  V30 5456 H 505.396 4.75741 0.566291 0
M  V30 5457 H 503.76 2.51588 0.39692 0
M  V30 5458 H 504.543 3.25051 -1.1044 0
M  V30 5459 N 506.988 0.0434614 1.5754 0
M  V30 5460 C 507.935 -0.93356 2.11077 0
M  V30 5461 C 508.905 -1.31383 1.01626 0
M  V30 5462 O 510.09 -1.40465 1.29129 0
M  V30 5463 C 507.23 -2.20578 2.65404 0
M  V30 5464 C 506.343 -1.88068 3.88914 0
M  V30 5465 C 505.478 -3.09691 4.31584 0
M  V30 5466 C 504.517 -2.73067 5.47815 0
M  V30 5467 N 503.654 -3.87359 5.85574 0
M  V30 5468 H 508.494 -0.470118 2.94268 0
M  V30 5469 H 506.031 -0.220434 1.45439 0
M  V30 5470 H 507.989 -2.95011 2.94999 0
M  V30 5471 H 506.619 -2.64513 1.85021 0
M  V30 5472 H 505.671 -1.03816 3.6596 0
M  V30 5473 H 506.983 -1.57104 4.73413 0
M  V30 5474 H 506.137 -3.92431 4.62691 0
M  V30 5475 H 504.876 -3.43827 3.45882 0
M  V30 5476 H 503.881 -1.88742 5.16388 0
M  V30 5477 H 505.106 -2.40131 6.35227 0
M  V30 5478 H 503.052 -4.21311 5.02825 0
M  V30 5479 H 502.969 -3.60068 6.64746 0
M  V30 5480 H 504.237 -4.70761 6.21292 0
M  V30 5481 N 508.466 -1.55915 -0.229846 0
M  V30 5482 C 509.376 -1.94891 -1.30593 0
M  V30 5483 C 510.392 -0.851604 -1.51736 0
M  V30 5484 O 511.568 -1.15447 -1.65027 0
M  V30 5485 C 508.633 -2.25052 -2.63728 0
M  V30 5486 C 507.694 -3.48306 -2.5096 0
M  V30 5487 C 506.927 -3.77019 -3.77747 0
M  V30 5488 O 507.15 -3.07534 -4.80395 0
M  V30 5489 O 506.084 -4.70523 -3.75356 0
M  V30 5490 H 509.91 -2.86581 -1.00525 0
M  V30 5491 H 507.495 -1.43017 -0.432025 0
M  V30 5492 H 509.377 -2.45682 -3.42372 0
M  V30 5493 H 508.052 -1.36538 -2.93495 0
M  V30 5494 H 506.959 -3.32964 -1.70546 0
M  V30 5495 H 508.292 -4.37177 -2.26136 0
M  V30 5496 N 509.944 0.496216 -1.49584 0
M  V30 5497 C 510.874 1.60576 -1.69521 0
M  V30 5498 C 511.855 1.61169 -0.543933 0
M  V30 5499 O 513.04 1.77834 -0.78031 0
M  V30 5500 C 510.17 2.99038 -1.76616 0
M  V30 5501 C 509.124 3.13312 -2.91581 0
M  V30 5502 C 508.45 4.53172 -2.83794 0
M  V30 5503 C 509.75 2.92886 -4.32452 0
M  V30 5504 H 511.444 1.44146 -2.62416 0
M  V30 5505 H 508.99 0.692024 -1.26282 0
M  V30 5506 H 510.943 3.76564 -1.8915 0
M  V30 5507 H 509.667 3.16568 -0.80324 0
M  V30 5508 H 508.326 2.38213 -2.78658 0
M  V30 5509 H 507.974 4.67585 -1.854 0
M  V30 5510 H 507.674 4.63662 -3.60958 0
M  V30 5511 H 509.198 5.32752 -2.98342 0
M  V30 5512 H 510.612 3.60178 -4.46032 0
M  V30 5513 H 509.009 3.14844 -5.10875 0
M  V30 5514 H 510.079 1.88966 -4.46565 0
M  V30 5515 N 511.423 1.38739 0.74761 0
M  V30 5516 C 512.333 1.38696 1.89211 0
M  V30 5517 C 513.349 0.283303 1.71678 0
M  V30 5518 O 514.525 0.522713 1.94498 0
M  V30 5519 C 511.59 1.21662 3.24653 0
M  V30 5520 C 510.651 2.41886 3.54669 0
M  V30 5521 C 509.884 2.25655 4.83648 0
M  V30 5522 O 510.107 1.25339 5.56459 0
M  V30 5523 O 509.041 3.14372 5.13277 0
M  V30 5524 H 512.867 2.35143 1.92202 0
M  V30 5525 H 510.452 1.19721 0.893708 0
M  V30 5526 H 512.334 1.14246 4.05618 0
M  V30 5527 H 511.009 0.283024 3.2246 0
M  V30 5528 H 509.916 2.54877 2.73841 0
M  V30 5529 H 511.249 3.33895 3.61628 0
M  V30 5530 N 512.901 -0.976442 1.23707 0
M  V30 5531 C 514.147 -1.72081 1.07312 0
M  V30 5532 C 514.48 -1.90275 -0.388476 0
M  V30 5533 O 513.755 -1.4579 -1.28746 0
M  V30 5534 C 514.038 -3.11675 1.80363 0
M  V30 5535 C 513.891 -3.01027 3.3422 0
M  V30 5536 C 515.21 -4.1117 1.5693 0
M  V30 5537 H 512.329 -0.624583 0.391236 0
M  V30 5538 H 514.971 -1.13649 1.52263 0
M  V30 5539 H 513.121 -3.61559 1.42153 0
M  V30 5540 H 514.793 -2.58637 3.81975 0
M  V30 5541 H 513.036 -2.3744 3.63049 0
M  V30 5542 H 513.707 -3.9988 3.80525 0
M  V30 5543 H 516.183 -3.7011 1.90151 0
M  V30 5544 H 515.059 -5.06928 2.10513 0
M  V30 5545 H 515.32 -4.392 0.505548 0
M  V30 5546 N 514.379 -1.04941 -1.1758 0
M  V30 5547 C 515.326 -0.648155 -2.21512 0
M  V30 5548 C 516.296 0.348431 -1.62404 0
M  V30 5549 O 517.481 0.240419 -1.89279 0
M  V30 5550 C 514.621 -0.0264291 -3.4509 0
M  V30 5551 C 513.734 -1.07154 -4.185 0
M  V30 5552 C 512.869 -0.417403 -5.29558 0
M  V30 5553 C 511.908 -1.447 -5.94751 0
M  V30 5554 N 511.045 -0.817203 -6.97328 0
M  V30 5555 H 515.885 -1.53891 -2.55189 0
M  V30 5556 H 513.422 -0.769699 -1.25356 0
M  V30 5557 H 515.38 0.351456 -4.15717 0
M  V30 5558 H 514.01 0.827802 -3.12005 0
M  V30 5559 H 513.062 -1.56728 -3.46613 0
M  V30 5560 H 514.374 -1.8532 -4.63096 0
M  V30 5561 H 513.528 0.0142061 -6.06698 0
M  V30 5562 H 512.267 0.396265 -4.86087 0
M  V30 5563 H 511.272 -1.88865 -5.16343 0
M  V30 5564 H 512.497 -2.26252 -6.40302 0
M  V30 5565 H 510.443 -0.0239995 -6.55996 0
M  V30 5566 H 510.36 -1.53644 -7.40223 0
M  V30 5567 H 511.628 -0.410283 -7.7842 0
M  V30 5568 N 515.857 1.33968 -0.830081 0
M  V30 5569 C 517.273 1.51003 -0.516742 0
M  V30 5570 C 517.473 1.77286 0.957694 0
M  V30 5571 O 516.529 1.82797 1.74188 0
M  V30 5572 C 517.842 2.67036 -1.38247 0
M  V30 5573 C 519.39 2.80919 -1.38034 0
M  V30 5574 C 519.865 4.00004 -2.23071 0
M  V30 5575 N 521.356 4.07224 -2.20733 0
M  V30 5576 C 522.091 4.98541 -2.83275 0
M  V30 5577 N 521.587 5.95033 -3.54835 0
M  V30 5578 N 523.38 4.91469 -2.72791 0
M  V30 5579 H 515.531 1.15168 -1.78466 0
M  V30 5580 H 517.794 0.565443 -0.760906 0
M  V30 5581 H 517.5 2.54266 -2.42985 0
M  V30 5582 H 517.374 3.62226 -1.05225 0
M  V30 5583 H 519.761 2.93127 -0.340713 0
M  V30 5584 H 519.842 1.86517 -1.75057 0
M  V30 5585 H 519.486 3.88557 -3.27087 0
M  V30 5586 H 519.416 4.93634 -1.83394 0
M  V30 5587 H 521.907 3.38162 -1.68687 0
M  V30 5588 H 522.22 6.61357 -3.99784 0
M  V30 5589 H 520.565 5.95135 -3.58942 0
M  V30 5590 H 523.756 4.15048 -2.16456 0
M  V30 5591 H 523.929 5.62439 -3.21818 0
M  V30 5592 N 517.335 0.585699 1.46312 0
M  V30 5593 C 518.612 0.00542031 1.95599 0
M  V30 5594 C 518.992 -1.45619 1.52834 0
M  V30 5595 O 518.34 -2.14759 0.780446 0
M  V30 5596 C 518.55 0.180601 3.48532 0
M  V30 5597 C 519.898 0.049979 4.24571 0
M  V30 5598 O 520.922 0.109589 3.56031 0
M  V30 5599 O 519.781 -0.0832226 5.46437 0
M  V30 5600 H 516.875 -0.0481281 0.825598 0
M  V30 5601 H 519.421 0.654227 1.56582 0
M  V30 5602 H 518.193 1.19657 3.72556 0
M  V30 5603 H 517.816 -0.504498 3.94386 0
M  V30 5604 N 518.813 -1.54241 0.323641 0
M  V30 5605 C 520.229 -1.59574 -0.0290018 0
M  V30 5606 C 520.429 -1.34017 -1.50472 0
M  V30 5607 O 519.485 -1.12464 -2.26071 0
M  V30 5608 C 520.798 -2.98169 0.389295 0
M  V30 5609 C 522.346 -3.11148 0.339958 0
M  V30 5610 C 522.821 -4.5209 0.733418 0
M  V30 5611 N 524.312 -4.5808 0.686827 0
M  V30 5612 C 525.047 -5.65248 0.963464 0
M  V30 5613 N 524.543 -6.80355 1.30724 0
M  V30 5614 N 526.336 -5.55025 0.88902 0
M  V30 5615 H 518.487 -1.6911 1.28512 0
M  V30 5616 H 520.75 -0.790972 0.522558 0
M  V30 5617 H 520.456 -3.21871 1.41746 0
M  V30 5618 H 520.33 -3.76399 -0.245657 0
M  V30 5619 H 522.717 -2.87182 -0.679002 0
M  V30 5620 H 522.798 -2.35023 1.00985 0
M  V30 5621 H 522.442 -4.76788 1.75029 0
M  V30 5622 H 522.372 -5.26584 0.0412189 0
M  V30 5623 H 524.863 -3.75411 0.43298 0
M  V30 5624 H 525.176 -7.58029 1.5037 0
M  V30 5625 H 523.521 -6.81851 1.3455 0
M  V30 5626 H 526.712 -4.63977 0.619939 0
M  V30 5627 H 526.885 -6.38458 1.10797 0
M  V30 5628 N 520.291 -0.0518155 -1.57515 0
M  V30 5629 C 521.224 0.957758 -2.07129 0
M  V30 5630 C 522.202 1.30355 -0.971927 0
M  V30 5631 O 523.386 1.41631 -1.2439 0
M  V30 5632 C 520.513 2.27157 -2.51232 0
M  V30 5633 C 519.559 2.07879 -3.72409 0
M  V30 5634 S 520.392 1.35656 -5.18033 0
M  V30 5635 C 521.548 2.68359 -5.65451 0
M  V30 5636 H 521.781 0.53552 -2.92437 0
M  V30 5637 H 519.314 0.160465 -1.53564 0
M  V30 5638 H 521.272 3.02676 -2.77304 0
M  V30 5639 H 519.933 2.66509 -1.66228 0
M  V30 5640 H 519.126 3.05061 -4.01191 0
M  V30 5641 H 518.728 1.40499 -3.46606 0
M  V30 5642 H 521.02 3.64526 -5.71076 0
M  V30 5643 H 521.963 2.44213 -6.64654 0
M  V30 5644 H 522.371 2.74647 -4.93183 0
M  V30 5645 N 521.769 1.56035 0.221574 0
M  V30 5646 C 523.015 1.79312 0.947372 0
M  V30 5647 C 523.348 0.621453 1.83988 0
M  V30 5648 O 522.623 -0.379287 1.90766 0
M  V30 5649 C 522.906 3.1267 1.78633 0
M  V30 5650 C 522.759 4.40284 0.920312 0
M  V30 5651 C 524.078 3.4247 2.7641 0
M  V30 5652 H 521.197 0.652328 0.342982 0
M  V30 5653 H 523.839 1.88765 0.216244 0
M  V30 5654 H 521.989 3.04741 2.40967 0
M  V30 5655 H 523.661 4.60232 0.313718 0
M  V30 5656 H 521.904 4.33212 0.225734 0
M  V30 5657 H 522.575 5.30033 1.54171 0
M  V30 5658 H 525.051 3.50526 2.24211 0
M  V30 5659 H 523.927 4.3695 3.32213 0
M  V30 5660 H 524.188 2.64635 3.54148 0
M  V30 5661 N 523.247 -0.488276 1.49845 0
M  V30 5662 C 524.663 -0.820566 1.3689 0
M  V30 5663 C 524.863 -1.97248 0.411752 0
M  V30 5664 O 523.919 -2.52042 -0.151931 0
M  V30 5665 C 525.232 -1.1488 2.77891 0
M  V30 5666 C 526.78 -1.25626 2.86683 0
M  V30 5667 C 527.255 -1.61772 4.28479 0
M  V30 5668 N 528.746 -1.68797 4.31349 0
M  V30 5669 C 529.481 -1.98235 5.38043 0
M  V30 5670 N 528.977 -2.2581 6.54967 0
M  V30 5671 N 530.77 -1.99593 5.2547 0
M  V30 5672 H 522.921 0.271123 2.10662 0
M  V30 5673 H 525.184 0.058735 0.946179 0
M  V30 5674 H 524.89 -0.375614 3.49688 0
M  V30 5675 H 524.764 -2.08919 3.14058 0
M  V30 5676 H 527.151 -2.02014 2.15114 0
M  V30 5677 H 527.232 -0.296072 2.54081 0
M  V30 5678 H 526.876 -0.859295 5.00578 0
M  V30 5679 H 526.806 -2.58912 4.58554 0
M  V30 5680 H 529.297 -1.49595 3.4703 0
M  V30 5681 H 529.61 -2.47497 7.32096 0
M  V30 5682 H 527.955 -2.23239 6.58171 0
M  V30 5683 H 531.146 -1.77535 4.33127 0
M  V30 5684 H 531.319 -2.222 6.08713 0
M  V30 5685 N 524.725 -1.39134 -0.740242 0
M  V30 5686 C 525.655 -1.40165 -1.86751 0
M  V30 5687 C 526.636 -0.265708 -1.68012 0
M  V30 5688 O 527.821 -0.47076 -1.88408 0
M  V30 5689 C 524.951 -1.2392 -3.2444 0
M  V30 5690 C 523.905 -2.34858 -3.57807 0
M  V30 5691 C 523.231 -2.03707 -4.94376 0
M  V30 5692 C 524.531 -3.77159 -3.61315 0
M  V30 5693 H 526.225 -2.345 -1.86145 0
M  V30 5694 H 523.771 -1.12875 -0.89416 0
M  V30 5695 H 525.724 -1.23263 -4.02969 0
M  V30 5696 H 524.448 -0.26051 -3.25559 0
M  V30 5697 H 523.107 -2.34723 -2.81604 0
M  V30 5698 H 522.755 -1.04289 -4.9207 0
M  V30 5699 H 522.455 -2.78016 -5.17669 0
M  V30 5700 H 523.979 -2.04691 -5.75268 0
M  V30 5701 H 525.393 -3.79252 -4.29931 0
M  V30 5702 H 523.79 -4.50784 -3.96124 0
M  V30 5703 H 524.86 -4.08513 -2.61238 0
M  V30 5704 N 526.204 0.969867 -1.24223 0
M  V30 5705 C 527.134 2.08191 -1.05729 0
M  V30 5706 C 528.115 1.70075 0.0290765 0
M  V30 5707 O 529.3 1.93712 -0.137583 0
M  V30 5708 C 526.43 3.40991 -0.658995 0
M  V30 5709 C 525.384 3.93054 -1.69389 0
M  V30 5710 C 524.71 5.22171 -1.15072 0
M  V30 5711 C 526.01 4.21137 -3.08935 0
M  V30 5712 H 527.704 2.23921 -1.98746 0
M  V30 5713 H 525.25 1.07602 -0.956967 0
M  V30 5714 H 527.203 4.18221 -0.51662 0
M  V30 5715 H 525.927 3.25155 0.30686 0
M  V30 5716 H 524.586 3.17977 -1.82444 0
M  V30 5717 H 524.234 5.02694 -0.175539 0
M  V30 5718 H 523.934 5.57973 -1.84229 0
M  V30 5719 H 525.458 6.02013 -1.02042 0
M  V30 5720 H 526.872 4.8908 -2.99121 0
M  V30 5721 H 525.269 4.68163 -3.75425 0
M  V30 5722 H 526.339 3.27996 -3.57137 0
M  V30 5723 N 527.682 1.05563 1.17022 0
M  V30 5724 C 528.592 0.670758 2.24807 0
M  V30 5725 C 529.608 -0.309865 1.71219 0
M  V30 5726 O 530.784 -0.161025 2.00755 0
M  V30 5727 C 527.849 0.055337 3.46656 0
M  V30 5728 C 526.91 1.08688 4.15314 0
M  V30 5729 C 526.143 0.500736 5.31346 0
M  V30 5730 O 526.366 -0.688718 5.66227 0
M  V30 5731 O 525.3 1.23683 5.89055 0
M  V30 5732 H 529.126 1.56914 2.60023 0
M  V30 5733 H 526.711 0.827428 1.24395 0
M  V30 5734 H 528.593 -0.286492 4.20425 0
M  V30 5735 H 527.268 -0.816638 3.13229 0
M  V30 5736 H 526.175 1.48077 3.43546 0
M  V30 5737 H 527.508 1.93014 4.52777 0
M  V30 5738 N 529.16 -1.33526 0.837174 0
M  V30 5739 C 530.385 -2.0258 0.444545 0
M  V30 5740 C 530.81 -1.6258 -0.946006 0
M  V30 5741 O 530.168 -0.817548 -1.6182 0
M  V30 5742 C 530.216 -3.5605 0.571006 0
M  V30 5743 O 529.32 -4.10422 -0.403431 0
M  V30 5744 H 528.661 -0.638866 0.180958 0
M  V30 5745 H 531.191 -1.70462 1.13154 0
M  V30 5746 H 531.201 -4.05488 0.452024 0
M  V30 5747 H 529.876 -3.84509 1.58512 0
M  V30 5748 H 528.453 -3.72113 -0.242147 0
M  V30 5749 N 530.638 -0.59345 -1.46 0
M  V30 5750 C 531.884 -0.0832754 -2.02629 0
M  V30 5751 C 532.217 1.27749 -1.46266 0
M  V30 5752 O 531.492 1.8395 -0.631866 0
M  V30 5753 C 531.775 -0.0290756 -3.60088 0
M  V30 5754 C 531.628 -1.41951 -4.26814 0
M  V30 5755 C 532.947 0.666055 -4.35031 0
M  V30 5756 H 530.066 -0.031736 -0.736316 0
M  V30 5757 H 532.708 -0.762711 -1.74019 0
M  V30 5758 H 530.858 0.549532 -3.84594 0
M  V30 5759 H 532.53 -2.04411 -4.13538 0
M  V30 5760 H 530.773 -1.98422 -3.8576 0
M  V30 5761 H 531.444 -1.33395 -5.3564 0
M  V30 5762 H 533.92 0.174401 -4.15734 0
M  V30 5763 H 532.796 0.673041 -5.44758 0
M  V30 5764 H 533.057 1.72946 -4.06869 0
M  V30 5765 N 532.116 1.54067 -0.331816 0
M  V30 5766 C 533.364 2.00319 0.267739 0
M  V30 5767 C 533.685 1.22148 1.52003 0
M  V30 5768 O 532.955 0.325494 1.93177 0
M  V30 5769 H 531.535 0.740014 0.101922 0
M  V30 5770 H 534.197 1.89628 -0.450267 0
M  V30 5771 H 533.293 3.07765 0.518385 0
M  V30 5772 N 533.594 0.0601682 1.57485 0
M  V30 5773 C 534.524 -0.90889 2.15085 0
M  V30 5774 C 535.505 -1.31838 1.07484 0
M  V30 5775 O 536.69 -1.3915 1.35466 0
M  V30 5776 C 533.82 -2.18059 2.7031 0
M  V30 5777 C 532.774 -1.91088 3.82974 0
M  V30 5778 C 532.1 -3.24789 4.24754 0
M  V30 5779 C 533.4 -1.22535 5.07723 0
M  V30 5780 H 535.094 -0.429093 2.96309 0
M  V30 5781 H 532.64 -0.204952 1.42534 0
M  V30 5782 H 534.593 -2.86258 3.09248 0
M  V30 5783 H 533.317 -2.6826 1.8629 0
M  V30 5784 H 531.976 -1.25297 3.44523 0
M  V30 5785 H 531.624 -3.72809 3.37672 0
M  V30 5786 H 531.324 -3.07538 5.00694 0
M  V30 5787 H 532.848 -3.94205 4.66299 0
M  V30 5788 H 534.262 -1.80783 5.4405 0
M  V30 5789 H 532.659 -1.1558 5.88864 0
M  V30 5790 H 533.729 -0.202692 4.84476 0
M  V30 5791 N 535.072 -1.5615 -0.213296 0
M  V30 5792 C 536.019 -1.93086 -1.26437 0
M  V30 5793 C 536.989 -0.789086 -1.4616 0
M  V30 5794 O 538.174 -1.04569 -1.59593 0
M  V30 5795 C 535.314 -2.26003 -2.608 0
M  V30 5796 C 534.427 -3.53156 -2.48807 0
M  V30 5797 C 533.562 -3.7548 -3.7575 0
M  V30 5798 C 532.601 -4.96119 -3.58514 0
M  V30 5799 N 531.738 -5.14791 -4.77425 0
M  V30 5800 H 536.578 -2.82707 -0.942376 0
M  V30 5801 H 534.115 -1.39919 -0.454001 0
M  V30 5802 H 536.073 -2.431 -3.39055 0
M  V30 5803 H 534.703 -1.39546 -2.91079 0
M  V30 5804 H 533.755 -3.44207 -1.61944 0
M  V30 5805 H 535.067 -4.41565 -2.31996 0
M  V30 5806 H 534.221 -3.92718 -4.62447 0
M  V30 5807 H 532.96 -2.85368 -3.95495 0
M  V30 5808 H 531.965 -4.78823 -2.70201 0
M  V30 5809 H 533.19 -5.87724 -3.40231 0
M  V30 5810 H 531.136 -4.27623 -4.97468 0
M  V30 5811 H 531.053 -5.97347 -4.63371 0
M  V30 5812 H 532.321 -5.36471 -5.65525 0
M  V30 5813 N 536.55 0.480323 -1.50102 0
M  V30 5814 C 537.961 1.06142 -1.53593 0
M  V30 5815 C 538.312 1.93335 -0.334055 0
M  V30 5816 O 537.437 2.09188 0.55403 0
M  V30 5817 C 538.032 1.9317 -2.78336 0
M  V30 5818 C 536.591 2.46405 -2.84538 0
M  V30 5819 C 535.738 1.24521 -2.4777 0
M  V30 5820 H 538.689 0.26333 -1.565 0
M  V30 5821 H 538.71 2.78123 -2.59669 0
M  V30 5822 H 538.222 1.29683 -3.65792 0
M  V30 5823 H 536.323 3.13472 -2.01411 0
M  V30 5824 H 536.436 2.82143 -3.87211 0
M  V30 5825 H 534.8 1.57706 -2.00003 0
M  V30 5826 H 535.583 0.627102 -3.37524 0
M  V30 5827 N 538.028 1.39524 0.732853 0
M  V30 5828 C 539.277 1.36175 1.48792 0
M  V30 5829 C 539.59 -0.0388195 1.95561 0
M  V30 5830 O 540.796 -0.194899 2.708 0
M  V30 5831 C 539.252 2.39242 2.68871 0
M  V30 5832 C 538.86 3.85024 2.29042 0
M  V30 5833 C 540.604 2.44972 3.46683 0
M  V30 5834 C 538.511 4.79727 3.45856 0
M  V30 5835 H 537.441 0.506267 0.558757 0
M  V30 5836 H 540.092 1.65181 0.799226 0
M  V30 5837 H 538.474 2.0331 3.39825 0
M  V30 5838 H 539.648 4.30008 1.6562 0
M  V30 5839 H 537.963 3.82609 1.64316 0
M  V30 5840 H 540.56 3.12918 4.33574 0
M  V30 5841 H 540.903 1.4749 3.89297 0
M  V30 5842 H 541.436 2.79808 2.82759 0
M  V30 5843 H 538.175 5.78479 3.08289 0
M  V30 5844 H 537.695 4.39421 4.08251 0
M  V30 5845 H 539.374 4.98731 4.12161 0
M  V30 5846 N 539.506 -0.963266 1.24736 0
M  V30 5847 C 540.752 -1.70933 1.09131 0
M  V30 5848 C 541.085 -1.90676 -0.368273 0
M  V30 5849 O 540.36 -1.47147 -1.27193 0
M  V30 5850 C 540.643 -3.09744 1.83658 0
M  V30 5851 C 540.496 -2.97465 3.37394 0
M  V30 5852 C 541.815 -4.09483 1.61282 0
M  V30 5853 H 538.934 -0.620398 0.397838 0
M  V30 5854 H 541.576 -1.12028 1.53459 0
M  V30 5855 H 539.726 -3.60031 1.4598 0
M  V30 5856 H 541.398 -2.54571 3.84696 0
M  V30 5857 H 539.641 -2.33576 3.65547 0
M  V30 5858 H 540.312 -3.95822 3.84745 0
M  V30 5859 H 542.788 -3.68073 1.94066 0
M  V30 5860 H 541.664 -5.04666 2.15878 0
M  V30 5861 H 541.925 -4.38639 0.552102 0
M  V30 5862 N 540.985 -1.06182 -1.16461 0
M  V30 5863 C 542.396 -0.802426 -1.68576 0
M  V30 5864 C 542.747 0.67412 -1.84255 0
M  V30 5865 O 541.872 1.52303 -1.5373 0
M  V30 5866 C 542.467 -1.45002 -3.06202 0
M  V30 5867 C 541.026 -1.23843 -3.55443 0
M  V30 5868 C 540.173 -1.52724 -2.31454 0
M  V30 5869 H 543.124 -1.22545 -1.00839 0
M  V30 5870 H 543.145 -0.864731 -3.70544 0
M  V30 5871 H 542.657 -2.52466 -2.94759 0
M  V30 5872 H 540.758 -0.183487 -3.72148 0
M  V30 5873 H 540.871 -1.95036 -4.37604 0
M  V30 5874 H 539.235 -0.947726 -2.36411 0
M  V30 5875 H 540.018 -2.61343 -2.22609 0
M  V30 5876 N 542.463 1.3308 -0.844243 0
M  V30 5877 C 543.74 1.92178 -0.364261 0
M  V30 5878 C 544.12 1.76961 1.15101 0
M  V30 5879 O 543.468 1.16128 1.9679 0
M  V30 5880 C 543.678 3.393 -0.817106 0
M  V30 5881 C 545.026 4.16444 -0.828236 0
M  V30 5882 O 546.05 3.47975 -0.761062 0
M  V30 5883 O 544.909 5.38685 -0.920926 0
M  V30 5884 H 542.003 0.820411 -0.10419 0
M  V30 5885 H 544.549 1.41918 -0.930453 0
M  V30 5886 H 543.321 3.44272 -1.85991 0
M  V30 5887 H 542.944 3.96947 -0.227785 0
M  V30 5888 N 543.941 0.601185 1.45683 0
M  V30 5889 C 545.189 0.0936957 2.01883 0
M  V30 5890 C 545.51 -1.2779 1.47291 0
M  V30 5891 O 544.78 -1.84279 0.664691 0
M  V30 5892 H 543.36 0.0316466 0.746329 0
M  V30 5893 H 546.022 0.781137 1.78562 0
M  V30 5894 H 545.118 0.0386297 3.12076 0
M  V30 5895 N 545.419 -1.53889 0.339982 0
M  V30 5896 C 546.667 -2.00458 -0.257112 0
M  V30 5897 C 546.988 -1.22953 -1.51353 0
M  V30 5898 O 546.258 -0.335734 -1.93002 0
M  V30 5899 H 544.838 -0.740544 -0.0979965 0
M  V30 5900 H 547.5 -1.89386 0.460317 0
M  V30 5901 H 546.596 -3.08035 -0.502057 0
M  V30 5902 N 546.897 -0.0685191 -1.57451 0
M  V30 5903 C 548.127 0.609577 -1.97402 0
M  V30 5904 C 548.535 1.63882 -0.945489 0
M  V30 5905 O 547.878 1.8354 0.0766052 0
M  V30 5906 C 547.94 1.3385 -3.33653 0
M  V30 5907 C 547.604 0.463103 -4.54648 0
M  V30 5908 C 548.601 -0.277964 -5.19156 0
M  V30 5909 C 546.286 0.388941 -5.00792 0
M  V30 5910 C 548.28 -1.08145 -6.28159 0
M  V30 5911 C 545.967 -0.418217 -6.09667 0
M  V30 5912 C 546.965 -1.15208 -6.73213 0
M  V30 5913 O 546.653 -1.94594 -7.79993 0
M  V30 5914 H 546.385 0.170197 -0.654224 0
M  V30 5915 H 548.939 -0.13647 -2.04946 0
M  V30 5916 H 547.169 2.13055 -3.22714 0
M  V30 5917 H 548.858 1.90851 -3.58233 0
M  V30 5918 H 549.624 -0.230241 -4.84453 0
M  V30 5919 H 545.503 0.949769 -4.5111 0
M  V30 5920 H 549.047 -1.65476 -6.7769 0
M  V30 5921 H 544.944 -0.467515 -6.43805 0
M  V30 5922 H 545.712 -1.8699 -7.96854 0
M  V30 5923 N 548.375 1.56261 0.205012 0
M  V30 5924 C 549.622 1.8004 0.926927 0
M  V30 5925 C 549.95 0.640086 1.83666 0
M  V30 5926 O 549.205 -0.374702 1.92079 0
M  V30 5927 C 549.504 3.09722 1.78345 0
M  V30 5928 C 549.17 4.39082 1.02555 0
M  V30 5929 C 547.832 4.74226 0.816256 0
M  V30 5930 C 550.184 5.18877 0.491559 0
M  V30 5931 C 547.512 5.86668 0.0613287 0
M  V30 5932 C 549.864 6.32105 -0.250107 0
M  V30 5933 C 548.528 6.6584 -0.470508 0
M  V30 5934 H 547.798 0.658812 0.339187 0
M  V30 5935 H 550.445 1.90515 0.19395 0
M  V30 5936 H 548.75 2.9444 2.5848 0
M  V30 5937 H 550.447 3.25324 2.34446 0
M  V30 5938 H 547.037 4.11497 1.19868 0
M  V30 5939 H 551.221 4.92147 0.640684 0
M  V30 5940 H 546.477 6.11283 -0.119501 0
M  V30 5941 H 550.651 6.93157 -0.671307 0
M  V30 5942 H 548.278 7.5281 -1.05739 0
M  V30 5943 N 549.853 -0.472356 1.50355 0
M  V30 5944 C 551.102 -1.2213 1.60522 0
M  V30 5945 C 551.415 -1.9312 0.310466 0
M  V30 5946 O 552.621 -2.69936 0.291029 0
M  V30 5947 C 551.077 -2.21909 2.83345 0
M  V30 5948 C 550.685 -1.56727 4.19691 0
M  V30 5949 C 552.429 -2.97453 3.02856 0
M  V30 5950 C 550.336 -2.54785 5.33703 0
M  V30 5951 H 549.266 -0.459543 0.597776 0
M  V30 5952 H 551.917 -0.491922 1.76783 0
M  V30 5953 H 550.299 -2.98133 2.60639 0
M  V30 5954 H 551.473 -0.863007 4.52646 0
M  V30 5955 H 549.788 -0.934685 4.05774 0
M  V30 5956 H 552.385 -3.70838 3.85205 0
M  V30 5957 H 552.728 -3.56764 2.14534 0
M  V30 5958 H 553.261 -2.28342 3.25737 0
M  V30 5959 H 550 -2.00214 6.24175 0
M  V30 5960 H 549.52 -3.23367 5.05167 0
M  V30 5961 H 551.199 -3.16639 5.64224 0
M  V30 5962 N 551.331 -1.39911 -0.725443 0
M  V30 5963 C 552.58 -1.36963 -1.48068 0
M  V30 5964 C 552.893 0.0284478 -1.95579 0
M  V30 5965 O 554.099 0.180535 -2.70899 0
M  V30 5966 C 552.555 -2.40664 -2.67598 0
M  V30 5967 C 552.163 -3.86234 -2.26997 0
M  V30 5968 C 553.907 -2.46807 -3.45379 0
M  V30 5969 C 551.814 -4.81554 -3.43307 0
M  V30 5970 H 550.744 -0.509223 -0.556065 0
M  V30 5971 H 553.395 -1.65602 -0.790454 0
M  V30 5972 H 551.777 -2.05109 -3.38742 0
M  V30 5973 H 552.951 -4.3088 -1.63337 0
M  V30 5974 H 551.266 -3.83475 -1.62284 0
M  V30 5975 H 553.863 -3.15213 -4.31909 0
M  V30 5976 H 554.206 -1.49552 -3.8851 0
M  V30 5977 H 554.739 -2.81303 -2.81271 0
M  V30 5978 H 551.478 -5.80106 -3.05217 0
M  V30 5979 H 550.998 -4.4158 -4.05915 0
M  V30 5980 H 552.677 -5.0091 -4.0951 0
M  V30 5981 N 552.809 0.956637 -1.25245 0
M  V30 5982 C 553.772 2.03457 -1.05537 0
M  V30 5983 C 554.772 1.60798 -0.00886317 0
M  V30 5984 O 555.962 1.72384 -0.250865 0
M  V30 5985 C 553.094 3.35543 -0.601965 0
M  V30 5986 H 554.287 2.22372 -2.01223 0
M  V30 5987 H 551.84 1.13344 -1.07623 0
M  V30 5988 H 552.575 3.22323 0.357584 0
M  V30 5989 H 552.36 3.67854 -1.35743 0
M  V30 5990 H 553.85 4.14769 -0.485454 0
M  V30 5991 N 554.287 1.06798 1.15896 0
M  V30 5992 C 555.564 0.701057 1.82605 0
M  V30 5993 C 555.944 -0.817066 1.94646 0
M  V30 5994 O 555.292 -1.72933 1.49353 0
M  V30 5995 C 555.502 1.40895 3.19296 0
M  V30 5996 C 556.85 1.55744 3.95005 0
M  V30 5997 O 557.874 1.36927 3.28831 0
M  V30 5998 O 556.733 1.86658 5.13635 0
M  V30 5999 H 553.827 0.248791 0.78869 0
M  V30 6000 H 556.373 1.16857 1.23055 0
M  V30 6001 H 555.145 2.4439 3.05596 0
M  V30 6002 H 554.768 0.931847 3.86526 0
M  V30 6003 N 555.766 -1.3263 0.851289 0
M  V30 6004 C 557.012 -1.9766 0.453694 0
M  V30 6005 C 557.345 -1.67225 -0.987396 0
M  V30 6006 O 556.62 -0.958693 -1.69232 0
M  V30 6007 C 556.903 -3.5344 0.68936 0
M  V30 6008 C 556.756 -3.93517 2.17862 0
M  V30 6009 C 558.075 -4.39866 0.143555 0
M  V30 6010 H 555.194 -0.717989 0.166314 0
M  V30 6011 H 557.836 -1.57068 1.06909 0
M  V30 6012 H 555.986 -3.88147 0.165546 0
M  V30 6013 H 557.658 -3.69006 2.76826 0
M  V30 6014 H 555.901 -3.42798 2.65841 0
M  V30 6015 H 556.572 -5.02065 2.29422 0
M  V30 6016 H 559.048 -4.11875 0.591451 0
M  V30 6017 H 557.924 -5.47858 0.338043 0
M  V30 6018 H 558.185 -4.31696 -0.953466 0
M  V30 6019 N 557.244 -0.608902 -1.45362 0
M  V30 6020 C 558.469 -0.10921 -2.07112 0
M  V30 6021 C 558.894 1.19779 -1.45033 0
M  V30 6022 O 558.252 1.72961 -0.543527 0
M  V30 6023 C 558.3 0.0155745 -3.60597 0
M  V30 6024 O 557.404 1.06546 -3.98399 0
M  V30 6025 H 556.745 -0.0746619 -0.659789 0
M  V30 6026 H 559.275 -0.839283 -1.86594 0
M  V30 6027 H 559.285 0.213364 -4.07442 0
M  V30 6028 H 557.96 -0.938765 -4.05167 0
M  V30 6029 H 556.537 0.844024 -3.63223 0
M  V30 6030 N 558.722 1.53707 -0.348139 0
M  V30 6031 C 559.652 2.28111 0.498766 0
M  V30 6032 C 560.633 1.29851 1.09876 0
M  V30 6033 O 561.818 1.587 1.11928 0
M  V30 6034 C 558.948 3.05735 1.64753 0
M  V30 6035 C 557.902 4.11537 1.17565 0
M  V30 6036 C 557.228 4.77142 2.4133 0
M  V30 6037 C 558.528 5.21587 0.272844 0
M  V30 6038 H 560.222 2.99152 -0.121934 0
M  V30 6039 H 557.768 1.43875 -0.0600842 0
M  V30 6040 H 559.721 3.56526 2.24649 0
M  V30 6041 H 558.445 2.32354 2.2952 0
M  V30 6042 H 557.104 3.61665 0.599483 0
M  V30 6043 H 556.752 4.0035 3.04514 0
M  V30 6044 H 556.452 5.48626 2.10436 0
M  V30 6045 H 557.976 5.30719 3.01943 0
M  V30 6046 H 559.39 5.67986 0.778779 0
M  V30 6047 H 557.787 6.00074 0.0555849 0
M  V30 6048 H 558.857 4.79969 -0.689785 0
M  V30 6049 N 560.2 0.0768682 1.57412 0
M  V30 6050 C 561.13 -0.886026 2.16037 0
M  V30 6051 C 562.111 -1.30691 1.08876 0
M  V30 6052 O 563.296 -1.37705 1.36934 0
M  V30 6053 C 560.426 -2.1518 2.72608 0
M  V30 6054 C 559.38 -1.87015 3.8498 0
M  V30 6055 C 558.706 -3.20266 4.28175 0
M  V30 6056 C 560.006 -1.17143 5.08994 0
M  V30 6057 H 561.7 -0.397642 2.96748 0
M  V30 6058 H 559.246 -0.189823 1.42743 0
M  V30 6059 H 561.199 -2.82962 3.12266 0
M  V30 6060 H 559.923 -2.66269 1.89125 0
M  V30 6061 H 558.582 -1.21636 3.45833 0
M  V30 6062 H 558.23 -3.69207 3.41607 0
M  V30 6063 H 557.93 -3.0221 5.03927 0
M  V30 6064 H 559.454 -3.89237 4.70454 0
M  V30 6065 H 560.868 -1.75003 5.45937 0
M  V30 6066 H 559.265 -1.09328 5.90057 0
M  V30 6067 H 560.335 -0.151295 4.84664 0
M  V30 6068 N 561.678 -1.56367 -0.196722 0
M  V30 6069 C 562.955 -1.71359 -0.943159 0
M  V30 6070 C 563.335 -0.631192 -2.01443 0
M  V30 6071 O 562.683 0.358071 -2.25677 0
M  V30 6072 C 562.893 -3.13623 -1.53106 0
M  V30 6073 C 564.241 -3.73806 -2.01381 0
M  V30 6074 O 565.265 -3.16742 -1.62951 0
M  V30 6075 O 564.124 -4.73951 -2.7209 0
M  V30 6076 H 561.218 -0.698851 -0.442195 0
M  V30 6077 H 563.764 -1.68672 -0.186547 0
M  V30 6078 H 562.536 -3.83873 -0.758785 0
M  V30 6079 H 562.159 -3.20532 -2.35255 0
M  V30 6080 N 563.156 0.464375 -1.50603 0
M  V30 6081 C 564.567 1.04507 -1.5471 0
M  V30 6082 C 564.918 1.9297 -0.354542 0
M  V30 6083 O 564.043 2.09763 0.531812 0
M  V30 6084 C 564.638 1.90207 -2.80369 0
M  V30 6085 C 563.197 2.43373 -2.87135 0
M  V30 6086 C 562.344 1.21886 -2.49076 0
M  V30 6087 H 565.295 0.246716 -1.56771 0
M  V30 6088 H 565.316 2.75353 -2.62604 0
M  V30 6089 H 564.828 1.25796 -3.67147 0
M  V30 6090 H 562.929 3.11318 -2.04724 0
M  V30 6091 H 563.042 2.7802 -3.90181 0
M  V30 6092 H 561.406 1.55575 -2.01664 0
M  V30 6093 H 562.189 0.591268 -3.3817 0
M  V30 6094 N 564.634 1.40294 0.718013 0
M  V30 6095 C 565.911 1.2894 1.47084 0
M  V30 6096 C 566.291 -0.0933625 2.10893 0
M  V30 6097 O 565.639 -1.10598 1.99951 0
M  V30 6098 C 565.849 2.4264 2.50852 0
M  V30 6099 C 567.197 2.8276 3.16752 0
M  V30 6100 O 568.221 2.42215 2.61171 0
M  V30 6101 O 567.08 3.528 4.17366 0
M  V30 6102 H 564.174 0.506236 0.653952 0
M  V30 6103 H 566.72 1.52208 0.750394 0
M  V30 6104 H 565.492 3.35009 2.022 0
M  V30 6105 H 565.115 2.21129 3.30435 0
M  V30 6106 N 566.112 -0.949982 1.2575 0
M  V30 6107 C 567.042 -2.06483 1.09028 0
M  V30 6108 C 568.023 -1.701 -0.00201532 0
M  V30 6109 O 569.208 -1.93469 0.168383 0
M  V30 6110 C 566.338 -3.39899 0.71316 0
M  V30 6111 C 565.292 -3.90309 1.75621 0
M  V30 6112 C 564.618 -5.20274 1.23365 0
M  V30 6113 C 565.918 -4.16169 3.15596 0
M  V30 6114 H 567.612 -2.20731 2.02283 0
M  V30 6115 H 565.158 -1.06066 0.973964 0
M  V30 6116 H 567.111 -4.17346 0.58309 0
M  V30 6117 H 565.835 -3.25602 -0.255091 0
M  V30 6118 H 564.494 -3.15035 1.8748 0
M  V30 6119 H 564.142 -5.02351 0.255491 0
M  V30 6120 H 563.842 -5.54971 1.93082 0
M  V30 6121 H 565.366 -6.00314 1.11607 0
M  V30 6122 H 566.78 -4.84259 3.06864 0
M  V30 6123 H 565.177 -4.62131 3.82825 0
M  V30 6124 H 566.247 -3.22273 3.6231 0
M  V30 6125 N 567.59 -1.07411 -1.15328 0
M  V30 6126 C 568.815 -0.818856 -1.90551 0
M  V30 6127 C 569.24 0.622194 -1.77512 0
M  V30 6128 O 568.598 1.43484 -1.10824 0
M  V30 6129 C 568.646 -1.23267 -3.38877 0
M  V30 6130 O 567.75 -0.378345 -4.10661 0
M  V30 6131 H 567.091 -0.29827 -0.593238 0
M  V30 6132 H 569.621 -1.43289 -1.46046 0
M  V30 6133 H 569.631 -1.20912 -3.89672 0
M  V30 6134 H 568.306 -2.28226 -3.47686 0
M  V30 6135 H 566.883 -0.464437 -3.69996 0
M  V30 6136 N 569.068 1.32177 -0.85831 0
M  V30 6137 C 570.345 1.91781 -0.384624 0
M  V30 6138 C 570.725 1.78171 1.13217 0
M  V30 6139 O 570.073 1.18209 1.95548 0
M  V30 6140 C 570.283 3.38414 -0.853047 0
M  V30 6141 C 571.631 4.15542 -0.872359 0
M  V30 6142 O 572.655 3.47148 -0.797926 0
M  V30 6143 O 571.514 5.37678 -0.978009 0
M  V30 6144 H 568.608 0.819259 -0.112886 0
M  V30 6145 H 571.154 1.40923 -0.945453 0
M  V30 6146 H 569.926 3.4228 -1.89632 0
M  V30 6147 H 569.549 3.96683 -0.269874 0
M  V30 6148 N 570.547 0.616602 1.45037 0
M  V30 6149 C 571.48 -0.145984 2.27733 0
M  V30 6150 C 572.458 -0.865108 1.37676 0
M  V30 6151 O 573.642 -0.872152 1.6711 0
M  V30 6152 C 570.769 -1.2122 3.16265 0
M  V30 6153 C 569.815 -0.595218 4.22326 0
M  V30 6154 S 570.648 0.603744 5.32086 0
M  V30 6155 C 571.804 -0.462842 6.24186 0
M  V30 6156 H 572.037 0.555591 2.92062 0
M  V30 6157 H 569.57 0.404364 1.49011 0
M  V30 6158 H 571.528 -1.82247 3.67827 0
M  V30 6159 H 570.189 -1.88589 2.51183 0
M  V30 6160 H 569.382 -1.39775 4.8423 0
M  V30 6161 H 568.984 -0.0598965 3.73952 0
M  V30 6162 H 571.276 -1.33945 6.64127 0
M  V30 6163 H 572.219 0.120259 7.07998 0
M  V30 6164 H 572.627 -0.782219 5.59054 0
M  V30 6165 N 572.025 -1.5352 0.356285 0
M  V30 6166 C 572.972 -2.25439 -0.494569 0
M  V30 6167 C 573.942 -1.25752 -1.08516 0
M  V30 6168 O 575.127 -1.54513 -1.1194 0
M  V30 6169 C 572.267 -3.04011 -1.63313 0
M  V30 6170 C 571.38 -4.18574 -1.06862 0
M  V30 6171 C 570.515 -4.84607 -2.17552 0
M  V30 6172 C 569.554 -5.91218 -1.58518 0
M  V30 6173 N 568.691 -6.50979 -2.63003 0
M  V30 6174 H 573.531 -2.97737 0.125244 0
M  V30 6175 H 571.068 -1.46916 0.0735789 0
M  V30 6176 H 573.026 -3.47834 -2.30363 0
M  V30 6177 H 571.656 -2.33986 -2.22374 0
M  V30 6178 H 570.708 -3.79303 -0.288672 0
M  V30 6179 H 572.02 -4.95215 -0.596924 0
M  V30 6180 H 571.174 -5.31566 -2.92442 0
M  V30 6181 H 569.913 -4.07418 -2.6807 0
M  V30 6182 H 568.918 -5.4363 -0.821391 0
M  V30 6183 H 570.143 -6.70322 -1.08836 0
M  V30 6184 H 568.089 -5.76648 -3.12751 0
M  V30 6185 H 568.006 -7.23131 -2.20493 0
M  V30 6186 H 569.274 -7.02589 -3.37623 0
M  V30 6187 N 573.503 -0.0852151 -1.57369 0
M  V30 6188 C 574.451 0.894856 -2.14698 0
M  V30 6189 C 575.445 1.29903 -1.08727 0
M  V30 6190 O 576.651 1.27471 -1.27088 0
M  V30 6191 H 573.026 0.306569 -0.686673 0
M  V30 6192 H 574.997 0.386542 -2.95886 0
M  V30 6193 C 573.746 2.14798 -2.73417 0
M  V30 6194 H 573.069 1.84585 -3.54638 0
M  V30 6195 H 574.509 2.81456 -3.1711 0
M  V30 6196 C 572.968 2.91546 -1.68828 0
M  V30 6197 O 573.498 3.85733 -1.12129 0
M  V30 6198 N 571.704 2.54901 -1.39549 0
M  V30 6199 H 571.251 1.7838 -1.85845 0
M  V30 6200 H 571.209 3.06553 -0.698054 0
M  V30 6201 N 574.981 1.5647 0.188427 0
M  V30 6202 C 575.929 1.95971 1.25293 0
M  V30 6203 C 576.923 0.846047 1.4676 0
M  V30 6204 O 578.129 1.03109 1.47542 0
M  V30 6205 H 574.504 0.623253 0.420784 0
M  V30 6206 H 576.475 2.84731 0.892792 0
M  V30 6207 C 575.224 2.32116 2.58877 0
M  V30 6208 H 574.547 3.17341 2.43176 0
M  V30 6209 H 575.987 2.63613 3.3209 0
M  V30 6210 C 574.446 1.15823 3.16365 0
M  V30 6211 O 574.976 0.436785 3.99318 0
M  V30 6212 N 573.182 0.933278 2.75206 0
M  V30 6213 H 572.729 1.52169 2.07852 0
M  V30 6214 H 572.687 0.156976 3.14008 0
M  V30 6215 N 576.459 -0.456382 1.50847 0
M  V30 6216 C 577.369 -1.57805 1.73594 0
M  V30 6217 C 578.385 -1.62599 0.619476 0
M  V30 6218 O 579.561 -1.80195 0.899532 0
M  V30 6219 C 576.626 -2.93926 1.8387 0
M  V30 6220 C 575.687 -2.99402 3.07663 0
M  V30 6221 C 574.92 -4.29031 3.1744 0
M  V30 6222 O 575.143 -5.20358 2.33631 0
M  V30 6223 O 574.077 -4.40401 4.10281 0
M  V30 6224 H 577.903 -1.41531 2.68705 0
M  V30 6225 H 575.488 -0.637422 1.3512 0
M  V30 6226 H 577.37 -3.74747 1.92725 0
M  V30 6227 H 576.045 -3.10368 0.91944 0
M  V30 6228 H 574.952 -2.17606 3.043 0
M  V30 6229 H 576.285 -2.87901 3.99216 0
M  V30 6230 N 577.937 -1.40673 -0.710563 0
M  V30 6231 C 579.348 -1.34975 -1.28991 0
M  V30 6232 C 579.699 -0.0256272 -1.96183 0
M  V30 6233 O 578.824 0.876339 -1.97862 0
M  V30 6234 C 579.419 -2.44467 -2.34567 0
M  V30 6235 C 577.978 -2.42213 -2.88114 0
M  V30 6236 C 577.125 -2.25085 -1.61963 0
M  V30 6237 H 580.076 -1.50406 -0.506343 0
M  V30 6238 H 580.097 -2.12663 -3.15523 0
M  V30 6239 H 579.609 -3.40825 -1.85634 0
M  V30 6240 H 577.71 -1.49568 -3.41263 0
M  V30 6241 H 577.823 -3.37983 -3.39565 0
M  V30 6242 H 576.187 -1.72691 -1.87216 0
M  V30 6243 H 576.97 -3.23449 -1.15047 0
M  V30 6244 N 579.415 0.9433 -1.26252 0
M  V30 6245 C 580.645 1.72117 -1.14277 0
M  V30 6246 C 581.053 1.86726 0.304944 0
M  V30 6247 O 580.396 1.3727 1.22076 0
M  V30 6248 C 580.458 3.14778 -1.73651 0
M  V30 6249 C 580.122 3.23561 -3.22734 0
M  V30 6250 C 581.119 3.07001 -4.19579 0
M  V30 6251 C 578.804 3.47019 -3.63157 0
M  V30 6252 C 580.798 3.13763 -5.54826 0
M  V30 6253 C 578.485 3.53416 -4.98538 0
M  V30 6254 C 579.483 3.36804 -5.94182 0
M  V30 6255 O 579.171 3.42906 -7.27098 0
M  V30 6256 H 578.903 0.545781 -0.398873 0
M  V30 6257 H 581.457 1.19123 -1.67328 0
M  V30 6258 H 579.687 3.69186 -1.1506 0
M  V30 6259 H 581.376 3.74469 -1.56613 0
M  V30 6260 H 582.142 2.88736 -3.89688 0
M  V30 6261 H 578.021 3.59006 -2.89199 0
M  V30 6262 H 581.565 3.00714 -6.29458 0
M  V30 6263 H 577.462 3.71201 -5.28091 0
M  V30 6264 H 578.23 3.59463 -7.35342 0
M  V30 6265 N 580.893 1.08022 1.14757 0
M  V30 6266 C 582.17 0.720386 1.81851 0
M  V30 6267 C 582.55 -0.796375 1.95502 0
M  V30 6268 O 581.898 -1.71339 1.51179 0
M  V30 6269 C 582.108 1.44273 3.17783 0
M  V30 6270 C 583.456 1.59925 3.93331 0
M  V30 6271 O 584.48 1.40407 3.2736 0
M  V30 6272 O 583.339 1.92096 5.11626 0
M  V30 6273 H 580.433 0.257142 0.786007 0
M  V30 6274 H 582.979 1.18155 1.21809 0
M  V30 6275 H 581.751 2.47618 3.02987 0
M  V30 6276 H 581.374 0.97279 3.85516 0
M  V30 6277 N 582.371 -1.3172 0.865308 0
M  V30 6278 C 583.601 -2.00765 0.487543 0
M  V30 6279 C 584.009 -1.65145 -0.92325 0
M  V30 6280 O 583.352 -0.874294 -1.61561 0
M  V30 6281 C 583.414 -3.55122 0.559369 0
M  V30 6282 C 583.078 -4.14202 1.93095 0
M  V30 6283 C 584.075 -4.3165 2.89784 0
M  V30 6284 C 581.76 -4.50036 2.23099 0
M  V30 6285 C 583.754 -4.84114 4.14623 0
M  V30 6286 C 581.441 -5.02203 3.48189 0
M  V30 6287 C 582.439 -5.19192 4.43767 0
M  V30 6288 O 582.127 -5.70241 5.6664 0
M  V30 6289 H 581.859 -0.649066 0.188915 0
M  V30 6290 H 584.413 -1.69032 1.16694 0
M  V30 6291 H 582.643 -3.86295 -0.176926 0
M  V30 6292 H 584.332 -4.05428 0.195694 0
M  V30 6293 H 585.098 -4.04288 2.6791 0
M  V30 6294 H 580.977 -4.36091 1.49485 0
M  V30 6295 H 584.521 -4.9729 4.89233 0
M  V30 6296 H 580.418 -5.28997 3.69908 0
M  V30 6297 H 581.186 -5.88617 5.68746 0
M  V30 6298 N 583.85 -0.624285 -1.44708 0
M  V30 6299 C 584.797 0.0847135 -2.30644 0
M  V30 6300 C 585.767 0.843575 -1.43084 0
M  V30 6301 O 586.952 0.825982 -1.71995 0
M  V30 6302 C 584.091 1.06495 -3.28257 0
M  V30 6303 C 583.205 0.305224 -4.3092 0
M  V30 6304 C 582.34 1.27667 -5.1563 0
M  V30 6305 C 581.379 0.505706 -6.10007 0
M  V30 6306 N 580.516 1.42727 -6.8744 0
M  V30 6307 H 585.356 -0.654068 -2.90733 0
M  V30 6308 H 582.893 -0.334334 -1.4325 0
M  V30 6309 H 584.851 1.64658 -3.83332 0
M  V30 6310 H 583.481 1.77094 -2.69884 0
M  V30 6311 H 582.533 -0.392207 -3.78373 0
M  V30 6312 H 583.845 -0.295553 -4.97924 0
M  V30 6313 H 582.999 1.92984 -5.75189 0
M  V30 6314 H 581.738 1.91137 -4.48685 0
M  V30 6315 H 580.743 -0.160999 -5.49564 0
M  V30 6316 H 581.968 -0.124183 -6.78986 0
M  V30 6317 H 579.913 2.04931 -6.23169 0
M  V30 6318 H 579.831 0.880345 -7.50857 0
M  V30 6319 H 581.099 2.0695 -7.51526 0
M  V30 6320 N 585.328 1.53329 -0.364422 0
M  V30 6321 C 586.575 2.01239 0.225634 0
M  V30 6322 C 586.903 1.25172 1.48869 0
M  V30 6323 O 586.158 0.333289 1.92841 0
M  V30 6324 C 586.457 3.52911 0.564661 0
M  V30 6325 C 586.123 4.46837 -0.603936 0
M  V30 6326 C 584.785 4.72234 -0.924585 0
M  V30 6327 C 587.137 5.02409 -1.38691 0
M  V30 6328 C 584.465 5.50454 -2.0302 0
M  V30 6329 C 586.817 5.81836 -2.48293 0
M  V30 6330 C 585.481 6.0552 -2.80894 0
M  V30 6331 H 584.751 0.736386 0.0825654 0
M  V30 6332 H 587.398 1.84948 -0.496645 0
M  V30 6333 H 585.703 3.67144 1.36794 0
M  V30 6334 H 587.4 3.87455 1.03344 0
M  V30 6335 H 583.99 4.27217 -0.343983 0
M  V30 6336 H 588.174 4.82735 -1.15243 0
M  V30 6337 H 583.43 5.67024 -2.28678 0
M  V30 6338 H 587.604 6.23905 -3.0938 0
M  V30 6339 H 585.231 6.65916 -3.66688 0
M  V30 6340 N 586.806 0.0935595 1.57322 0
M  V30 6341 C 588.052 -0.571355 1.94585 0
M  V30 6342 C 588.385 -1.67929 0.975366 0
M  V30 6343 O 587.66 -1.94498 0.00816206 0
M  V30 6344 C 587.943 -1.12797 3.41978 0
M  V30 6345 C 587.796 -0.0251881 4.49793 0
M  V30 6346 C 589.115 -2.02682 3.90651 0
M  V30 6347 H 586.234 -0.206223 0.70756 0
M  V30 6348 H 588.876 0.163956 1.89291 0
M  V30 6349 H 587.026 -1.75461 3.4662 0
M  V30 6350 H 588.698 0.608979 4.57263 0
M  V30 6351 H 586.941 0.641399 4.29032 0
M  V30 6352 H 587.612 -0.455433 5.50118 0
M  V30 6353 H 590.088 -1.49925 3.88152 0
M  V30 6354 H 588.964 -2.38555 4.94351 0
M  V30 6355 H 589.225 -2.94362 3.29854 0
M  V30 6356 N 588.284 -1.56567 -0.180126 0
M  V30 6357 C 589.231 -1.95725 -1.22313 0
M  V30 6358 C 590.201 -0.819911 -1.44453 0
M  V30 6359 O 591.386 -1.07931 -1.57339 0
M  V30 6360 C 588.526 -2.31484 -2.55947 0
M  V30 6361 C 587.639 -3.58354 -2.4126 0
M  V30 6362 C 586.774 -3.83366 -3.67701 0
M  V30 6363 C 585.813 -5.03612 -3.47909 0
M  V30 6364 N 584.95 -5.24802 -4.66398 0
M  V30 6365 H 589.79 -2.84642 -0.882198 0
M  V30 6366 H 587.327 -1.4085 -0.42422 0
M  V30 6367 H 589.285 -2.50237 -3.33822 0
M  V30 6368 H 587.915 -1.45689 -2.88053 0
M  V30 6369 H 586.967 -3.47565 -1.54606 0
M  V30 6370 H 588.279 -4.46386 -2.22577 0
M  V30 6371 H 587.433 -4.02439 -4.54013 0
M  V30 6372 H 586.172 -2.93692 -3.89353 0
M  V30 6373 H 585.177 -4.84447 -2.59983 0
M  V30 6374 H 586.402 -5.94809 -3.27688 0
M  V30 6375 H 584.348 -4.38079 -4.88286 0
M  V30 6376 H 584.265 -6.07041 -4.50596 0
M  V30 6377 H 585.533 -5.48346 -5.54019 0
M  V30 6378 N 589.762 0.448376 -1.51087 0
M  V30 6379 C 591.008 1.19748 -1.64414 0
M  V30 6380 C 591.363 1.89177 -0.350715 0
M  V30 6381 O 590.656 1.80135 0.652834 0
M  V30 6382 C 590.85 2.24866 -2.77795 0
M  V30 6383 C 590.679 1.65753 -4.18038 0
M  V30 6384 C 589.449 1.44728 -4.8413 0
M  V30 6385 C 591.647 1.13985 -5.0151 0
M  V30 6386 N 589.629 0.810962 -6.0852 0
M  V30 6387 C 591 0.628141 -6.1681 0
M  V30 6388 C 593.055 1.03055 -4.87118 0
M  V30 6389 C 591.758 0.0178906 -7.19298 0
M  V30 6390 C 593.784 0.434212 -5.89804 0
M  V30 6391 C 593.146 -0.0670069 -7.04368 0
M  V30 6392 H 589.245 0.426254 -0.655615 0
M  V30 6393 H 591.829 0.495806 -1.88281 0
M  V30 6394 H 590 2.92434 -2.55611 0
M  V30 6395 H 591.732 2.91857 -2.8036 0
M  V30 6396 H 588.487 1.70593 -4.41809 0
M  V30 6397 H 588.911 0.510563 -6.75072 0
M  V30 6398 H 593.553 1.40395 -3.9881 0
M  V30 6399 H 591.271 -0.367662 -8.07263 0
M  V30 6400 H 594.857 0.3517 -5.80736 0
M  V30 6401 H 593.737 -0.521209 -7.82466 0
M  V30 6402 N 591.24 1.41047 0.703093 0
M  V30 6403 C 592.173 1.36713 1.82715 0
M  V30 6404 C 593.151 0.235533 1.60885 0
M  V30 6405 O 594.335 0.421227 1.83733 0
M  V30 6406 C 591.462 1.13069 3.1927 0
M  V30 6407 C 590.508 2.28846 3.59905 0
M  V30 6408 S 591.341 3.91297 3.65578 0
M  V30 6409 C 592.497 3.69941 5.04871 0
M  V30 6410 H 592.73 2.31838 1.86114 0
M  V30 6411 H 590.263 1.27481 0.871083 0
M  V30 6412 H 592.221 1.00113 3.98105 0
M  V30 6413 H 590.882 0.195763 3.13489 0
M  V30 6414 H 590.075 2.07977 4.59088 0
M  V30 6415 H 589.677 2.3817 2.88359 0
M  V30 6416 H 591.969 3.29181 5.92154 0
M  V30 6417 H 592.912 4.68699 5.30779 0
M  V30 6418 H 593.32 3.03369 4.76054 0
M  V30 6419 N 592.718 -0.936591 1.26751 0
M  V30 6420 C 593.946 -1.71758 1.15355 0
M  V30 6421 C 594.361 -1.86549 -0.290683 0
M  V30 6422 O 593.718 -1.37616 -1.19868 0
M  V30 6423 C 593.769 -3.12193 1.82258 0
M  V30 6424 O 593.49 -2.98105 3.21038 0
M  V30 6425 C 594.991 -4.06485 1.76875 0
M  V30 6426 H 592.211 -0.537636 0.401483 0
M  V30 6427 H 594.755 -1.17382 1.67457 0
M  V30 6428 H 592.91 -3.63456 1.34083 0
M  V30 6429 H 593.324 -3.86824 3.54214 0
M  V30 6430 H 594.798 -5.02569 2.28316 0
M  V30 6431 H 595.275 -4.32986 0.736216 0
M  V30 6432 H 595.881 -3.61144 2.24623 0
M  V30 6433 N 594.196 -1.08629 -1.14182 0
M  V30 6434 C 595.143 -0.718299 -2.19338 0
M  V30 6435 C 596.113 0.296587 -1.63431 0
M  V30 6436 O 597.298 0.180079 -1.89948 0
M  V30 6437 C 594.438 -0.136203 -3.44831 0
M  V30 6438 C 593.551 -1.20414 -4.14879 0
M  V30 6439 C 592.686 -0.585666 -5.27962 0
M  V30 6440 C 591.725 -1.63548 -5.89846 0
M  V30 6441 N 590.862 -1.03864 -6.94375 0
M  V30 6442 H 595.702 -1.61932 -2.50164 0
M  V30 6443 H 593.239 -0.80919 -1.22844 0
M  V30 6444 H 595.197 0.219021 -4.16625 0
M  V30 6445 H 593.827 0.728121 -3.14481 0
M  V30 6446 H 592.879 -1.67676 -3.41451 0
M  V30 6447 H 594.191 -1.99959 -4.56966 0
M  V30 6448 H 593.345 -0.178818 -6.06436 0
M  V30 6449 H 592.084 0.24142 -4.87102 0
M  V30 6450 H 591.089 -2.05197 -5.10073 0
M  V30 6451 H 592.314 -2.46509 -6.3278 0
M  V30 6452 H 590.26 -0.232687 -6.55587 0
M  V30 6453 H 590.177 -1.77116 -7.3496 0
M  V30 6454 H 591.445 -0.657724 -7.7672 0
M  V30 6455 N 595.674 1.31259 -0.872281 0
M  V30 6456 C 596.624 2.26 -0.301295 0
M  V30 6457 C 597.608 1.50729 0.562991 0
M  V30 6458 O 598.8 1.72198 0.40949 0
M  V30 6459 C 595.929 3.39724 0.494227 0
M  V30 6460 C 595.015 4.22363 -0.383432 0
M  V30 6461 N 595.406 4.83724 -1.47799 0
M  V30 6462 C 593.704 4.45652 -0.176278 0
M  V30 6463 C 594.405 5.45523 -2.01939 0
M  V30 6464 N 593.381 5.27428 -1.31608 0
M  V30 6465 H 597.183 2.70981 -1.13782 0
M  V30 6466 H 594.697 1.45552 -0.720294 0
M  V30 6467 H 596.694 4.06626 0.919828 0
M  V30 6468 H 595.354 2.96286 1.32834 0
M  V30 6469 H 596.365 4.83313 -1.8609 0
M  V30 6470 H 593.042 4.12845 0.621698 0
M  V30 6471 H 594.432 6.04268 -2.93786 0
M  V30 6472 N 597.152 0.631951 1.44375 0
M  V30 6473 C 598.099 -0.0724807 2.30686 0
M  V30 6474 C 599.069 -0.835975 1.43529 0
M  V30 6475 O 600.254 -0.816849 1.7243 0
M  V30 6476 C 597.394 -1.04753 3.28817 0
M  V30 6477 C 596.507 -0.282367 4.31076 0
M  V30 6478 C 595.642 -1.2493 5.163 0
M  V30 6479 C 594.681 -0.473349 6.10267 0
M  V30 6480 N 593.818 -1.39079 6.88187 0
M  V30 6481 H 598.658 0.669477 2.90383 0
M  V30 6482 H 596.195 0.341927 1.43071 0
M  V30 6483 H 598.153 -1.62623 3.842 0
M  V30 6484 H 596.783 -1.75661 2.70819 0
M  V30 6485 H 595.835 0.412268 3.78159 0
M  V30 6486 H 597.147 0.321955 4.9776 0
M  V30 6487 H 596.301 -1.89931 5.76204 0
M  V30 6488 H 595.04 -1.88755 4.49692 0
M  V30 6489 H 594.045 0.190142 5.49471 0
M  V30 6490 H 595.27 0.16019 6.78911 0
M  V30 6491 H 593.216 -2.01623 6.24247 0
M  V30 6492 H 593.133 -0.840513 7.51313 0
M  V30 6493 H 594.401 -2.02961 7.52613 0
M  V30 6494 N 598.631 -1.53133 0.372548 0
M  V30 6495 C 599.578 -2.25951 -0.470631 0
M  V30 6496 C 600.548 -1.26895 -1.07176 0
M  V30 6497 O 601.733 -1.55691 -1.10294 0
M  V30 6498 C 598.873 -3.05726 -1.6008 0
M  V30 6499 C 597.986 -4.19684 -1.02416 0
M  V30 6500 C 597.121 -4.86888 -2.124 0
M  V30 6501 C 596.16 -5.92866 -1.52238 0
M  V30 6502 N 595.297 -6.53732 -2.56084 0
M  V30 6503 H 600.137 -2.97587 0.156816 0
M  V30 6504 H 597.674 -1.4683 0.0891571 0
M  V30 6505 H 599.632 -3.50258 -2.26661 0
M  V30 6506 H 598.262 -2.36331 -2.1988 0
M  V30 6507 H 597.314 -3.79588 -0.248426 0
M  V30 6508 H 598.626 -4.95821 -0.544366 0
M  V30 6509 H 597.78 -5.34638 -2.86787 0
M  V30 6510 H 596.519 -4.10239 -2.63734 0
M  V30 6511 H 595.524 -5.4447 -0.763685 0
M  V30 6512 H 596.749 -6.71439 -1.0172 0
M  V30 6513 H 594.695 -5.79932 -3.06618 0
M  V30 6514 H 594.612 -7.25429 -2.12811 0
M  V30 6515 H 595.88 -7.0613 -3.30152 0
M  V30 6516 N 600.109 -0.101901 -1.5727 0
M  V30 6517 C 601.039 0.851544 -2.17419 0
M  V30 6518 C 602.02 1.28942 -1.10941 0
M  V30 6519 O 603.205 1.35509 -1.39107 0
M  V30 6520 C 600.335 2.10816 -2.75996 0
M  V30 6521 C 599.289 1.80867 -3.87906 0
M  V30 6522 C 598.615 3.13413 -4.33216 0
M  V30 6523 C 599.915 1.0903 -5.10793 0
M  V30 6524 H 601.609 0.350381 -2.97343 0
M  V30 6525 H 599.155 0.16709 -1.43027 0
M  V30 6526 H 601.108 2.77959 -3.16729 0
M  V30 6527 H 599.832 2.63227 -1.93337 0
M  V30 6528 H 598.491 1.16119 -3.47724 0
M  V30 6529 H 598.139 3.63725 -3.47438 0
M  V30 6530 H 597.839 2.94155 -5.08671 0
M  V30 6531 H 599.363 3.81704 -4.76586 0
M  V30 6532 H 600.777 1.66295 -5.48652 0
M  V30 6533 H 599.174 0.99927 -5.91722 0
M  V30 6534 H 600.244 0.0741704 -4.84843 0
M  V30 6535 N 601.587 1.56661 0.17182 0
M  V30 6536 C 602.812 1.86459 0.908165 0
M  V30 6537 C 603.237 0.688181 1.75059 0
M  V30 6538 O 602.595 -0.362753 1.77634 0
M  V30 6539 C 602.643 3.14669 1.76112 0
M  V30 6540 O 601.747 2.96858 2.86268 0
M  V30 6541 H 601.088 0.613318 0.254434 0
M  V30 6542 H 603.618 2.03892 0.170113 0
M  V30 6543 H 603.628 3.46061 2.16115 0
M  V30 6544 H 602.303 3.99905 1.14233 0
M  V30 6545 H 600.88 2.76819 2.49852 0
M  V30 6546 N 603.065 -0.440357 1.51323 0
M  V30 6547 C 604.028 -1.51679 1.71832 0
M  V30 6548 C 605.028 -1.49648 0.588386 0
M  V30 6549 O 606.218 -1.51724 0.855891 0
M  V30 6550 C 603.35 -2.91228 1.77199 0
M  V30 6551 H 604.543 -1.34799 2.67898 0
M  V30 6552 H 602.096 -0.66883 1.41267 0
M  V30 6553 H 602.831 -3.13516 0.829363 0
M  V30 6554 H 602.616 -2.94107 2.59314 0
M  V30 6555 H 604.106 -3.69321 1.94915 0
M  V30 6556 N 604.543 -1.41418 -0.695603 0
M  V30 6557 C 605.792 -1.40073 -1.4513 0
M  V30 6558 C 606.105 -0.0130439 -1.95596 0
M  V30 6559 O 607.311 0.123032 -2.71221 0
M  V30 6560 C 605.767 -2.46286 -2.62433 0
M  V30 6561 C 605.375 -3.90962 -2.18753 0
M  V30 6562 C 607.119 -2.54077 -3.40066 0
M  V30 6563 C 605.026 -4.88728 -3.33015 0
M  V30 6564 H 603.956 -0.520903 -0.545138 0
M  V30 6565 H 606.607 -1.67242 -0.75515 0
M  V30 6566 H 604.989 -2.12248 -3.34315 0
M  V30 6567 H 606.163 -4.34248 -1.54161 0
M  V30 6568 H 604.478 -3.86831 -1.54114 0
M  V30 6569 H 607.075 -3.24303 -4.25125 0
M  V30 6570 H 607.418 -1.5776 -3.8525 0
M  V30 6571 H 607.951 -2.87206 -2.75241 0
M  V30 6572 H 604.69 -5.86449 -2.92844 0
M  V30 6573 H 604.21 -4.50091 -3.96457 0
M  V30 6574 H 605.889 -5.09483 -3.98793 0
M  V30 6575 N 606.021 0.929856 -1.27246 0
M  V30 6576 C 607.432 1.49223 -1.12203 0
M  V30 6577 C 607.783 1.93989 0.293731 0
M  V30 6578 O 606.908 1.80978 1.18642 0
M  V30 6579 C 607.503 2.71198 -2.0307 0
M  V30 6580 C 606.062 3.23666 -1.92139 0
M  V30 6581 C 605.209 1.96409 -1.95752 0
M  V30 6582 H 608.16 0.744181 -1.4017 0
M  V30 6583 H 608.181 3.45905 -1.58524 0
M  V30 6584 H 607.693 2.38585 -3.06102 0
M  V30 6585 H 605.794 3.61042 -0.920834 0
M  V30 6586 H 605.907 3.90006 -2.78267 0
M  V30 6587 H 604.271 2.12806 -1.39949 0
M  V30 6588 H 605.054 1.66113 -3.00436 0
M  V30 6589 N 607.499 1.09233 1.13605 0
M  V30 6590 C 608.745 0.828385 1.8511 0
M  V30 6591 C 609.078 -0.64437 1.83198 0
M  V30 6592 O 608.353 -1.47428 1.26867 0
M  V30 6593 C 608.636 1.36167 3.33363 0
M  V30 6594 C 608.489 2.90038 3.438 0
M  V30 6595 C 609.808 0.993819 4.28732 0
M  V30 6596 H 606.927 0.30239 0.672108 0
M  V30 6597 H 609.569 1.35339 1.33355 0
M  V30 6598 H 607.719 0.9151 3.77569 0
M  V30 6599 H 609.391 3.43128 3.08319 0
M  V30 6600 H 607.634 3.27271 2.84739 0
M  V30 6601 H 608.305 3.22428 4.48045 0
M  V30 6602 H 610.781 1.37893 3.92587 0
M  V30 6603 H 609.657 1.39403 5.30903 0
M  V30 6604 H 609.918 -0.0982206 4.41991 0
M  V30 6605 N 608.977 -1.30795 0.87923 0
M  V30 6606 C 610.202 -2.01063 0.508769 0
M  V30 6607 C 610.627 -1.65508 -0.893803 0
M  V30 6608 O 609.985 -0.868616 -1.59138 0
M  V30 6609 C 610.033 -3.54054 0.683991 0
M  V30 6610 O 609.137 -4.11498 -0.272654 0
M  V30 6611 H 608.478 -0.632786 0.201191 0
M  V30 6612 H 611.008 -1.66776 1.18519 0
M  V30 6613 H 611.018 -4.03845 0.580798 0
M  V30 6614 H 609.693 -3.79271 1.70665 0
M  V30 6615 H 608.27 -3.72695 -0.12364 0
M  V30 6616 N 610.455 -0.639598 -1.44038 0
M  V30 6617 C 611.418 0.0506628 -2.29144 0
M  V30 6618 C 612.418 0.764001 -1.41491 0
M  V30 6619 O 613.608 0.607309 -1.63271 0
M  V30 6620 C 610.74 1.0824 -3.2326 0
M  V30 6621 H 611.933 -0.697987 -2.91664 0
M  V30 6622 H 609.486 -0.400146 -1.51091 0
M  V30 6623 H 610.221 1.86075 -2.65606 0
M  V30 6624 H 610.006 0.574725 -3.87865 0
M  V30 6625 H 611.496 1.56487 -3.87171 0
M  V30 6626 N 611.933 1.52934 -0.380664 0
M  V30 6627 C 613.18 2.01467 0.204278 0
M  V30 6628 C 613.508 1.26744 1.47533 0
M  V30 6629 O 612.763 0.353723 1.92477 0
M  V30 6630 C 613.062 3.5349 0.527199 0
M  V30 6631 C 612.728 4.46171 -0.651295 0
M  V30 6632 C 611.39 4.71227 -0.974619 0
M  V30 6633 C 613.742 5.00909 -1.44012 0
M  V30 6634 C 611.07 5.4827 -2.08847 0
M  V30 6635 C 613.422 5.7917 -2.5445 0
M  V30 6636 C 612.086 6.02507 -2.87301 0
M  V30 6637 H 611.356 0.73722 0.0747504 0
M  V30 6638 H 614.003 1.84411 -0.516234 0
M  V30 6639 H 612.308 3.68574 1.32892 0
M  V30 6640 H 614.005 3.88529 0.992283 0
M  V30 6641 H 610.595 4.26829 -0.389276 0
M  V30 6642 H 614.779 4.81485 -1.20357 0
M  V30 6643 H 610.035 5.64567 -2.34679 0
M  V30 6644 H 614.209 6.20588 -3.1598 0
M  V30 6645 H 611.836 6.61989 -3.7373 0
M  V30 6646 N 613.412 0.11024 1.57214 0
M  V30 6647 C 614.652 -0.553061 1.96775 0
M  V30 6648 C 615.016 -1.64403 0.991753 0
M  V30 6649 O 616.217 -2.36561 1.27642 0
M  V30 6650 C 614.488 -1.08004 3.4069 0
M  V30 6651 S 616.047 -1.75309 4.02259 0
M  V30 6652 H 612.865 -0.18003 0.68783 0
M  V30 6653 H 615.467 0.193242 1.94543 0
M  V30 6654 H 614.171 -0.274735 4.09479 0
M  V30 6655 H 613.702 -1.86182 3.46554 0
M  V30 6656 H 615.717 -3.03834 3.923 0
M  V30 6657 N 614.89 -1.56749 -0.16351 0
M  V30 6658 C 615.838 -1.97939 -1.22159 0
M  V30 6659 C 616.832 -0.869288 -1.45395 0
M  V30 6660 O 618.038 -1.05443 -1.45883 0
M  V30 6661 H 614.413 -0.629869 -0.410815 0
M  V30 6662 H 616.384 -2.86115 -0.847381 0
M  V30 6663 C 615.133 -2.36206 -2.55151 0
M  V30 6664 H 614.456 -3.2117 -2.38097 0
M  V30 6665 H 615.896 -2.68863 -3.27854 0
M  V30 6666 C 614.355 -1.20841 -3.14482 0
M  V30 6667 O 614.885 -0.500258 -3.98573 0
M  V30 6668 N 613.091 -0.976943 -2.73686 0
M  V30 6669 H 612.638 -1.55457 -2.05404 0
M  V30 6670 H 612.596 -0.206912 -3.13718 0
M  V30 6671 N 616.368 0.432326 -1.51554 0
M  V30 6672 C 617.593 1.20824 -1.68571 0
M  V30 6673 C 618.018 1.84126 -0.384596 0
M  V30 6674 O 617.376 1.69025 0.655751 0
M  V30 6675 C 617.424 2.26429 -2.80646 0
M  V30 6676 O 616.528 3.32032 -2.44598 0
M  V30 6677 H 615.869 0.353765 -0.561913 0
M  V30 6678 H 618.399 0.509916 -1.98144 0
M  V30 6679 H 618.409 2.71133 -3.04878 0
M  V30 6680 H 617.084 1.79733 -3.75058 0
M  V30 6681 H 615.661 2.92769 -2.30956 0
M  V30 6682 N 617.846 1.41785 0.688094 0
M  V30 6683 C 618.756 1.46596 1.83158 0
M  V30 6684 C 619.772 0.355862 1.70322 0
M  V30 6685 O 620.948 0.604737 1.92106 0
M  V30 6686 C 618.013 1.35322 3.192 0
M  V30 6687 C 617.074 2.56711 3.4409 0
M  V30 6688 C 616.307 2.45965 4.73642 0
M  V30 6689 O 616.53 1.48827 5.50642 0
M  V30 6690 O 615.464 3.35859 4.99482 0
M  V30 6691 H 619.29 2.43083 1.82056 0
M  V30 6692 H 616.875 1.23404 0.842126 0
M  V30 6693 H 618.757 1.31347 4.00407 0
M  V30 6694 H 617.432 0.419536 3.2097 0
M  V30 6695 H 616.339 2.66262 2.62784 0
M  V30 6696 H 617.672 3.48933 3.47141 0
M  V30 6697 N 619.324 -0.923095 1.27737 0
M  V30 6698 C 620.552 -1.70525 1.17171 0
M  V30 6699 C 620.967 -1.86847 -0.270881 0
M  V30 6700 O 620.324 -1.38879 -1.18401 0
M  V30 6701 C 620.375 -3.10242 1.85559 0
M  V30 6702 O 620.096 -2.94683 3.24182 0
M  V30 6703 C 621.597 -4.04586 1.81176 0
M  V30 6704 H 618.817 -0.533347 0.407163 0
M  V30 6705 H 621.361 -1.15599 1.68692 0
M  V30 6706 H 619.516 -3.62014 1.3793 0
M  V30 6707 H 619.93 -3.83045 3.58297 0
M  V30 6708 H 621.404 -5.00119 2.33633 0
M  V30 6709 H 621.881 -4.3218 0.782099 0
M  V30 6710 H 622.487 -3.58741 2.2844 0
M  V30 6711 N 620.802 -1.09834 -1.13024 0
M  V30 6712 C 621.749 -0.741522 -2.18564 0
M  V30 6713 C 622.719 0.279236 -1.63736 0
M  V30 6714 O 623.904 0.159923 -1.90129 0
M  V30 6715 C 621.044 -0.17277 -3.44667 0
M  V30 6716 C 620.157 -1.24808 -4.13578 0
M  V30 6717 C 619.292 -0.641631 -5.27311 0
M  V30 6718 C 618.331 -1.69795 -5.88078 0
M  V30 6719 N 617.468 -1.11223 -6.93234 0
M  V30 6720 H 622.308 -1.64576 -2.48432 0
M  V30 6721 H 619.845 -0.822174 -1.21978 0
M  V30 6722 H 621.803 0.17482 -4.16834 0
M  V30 6723 H 620.433 0.694725 -3.15235 0
M  V30 6724 H 619.485 -1.71288 -3.39653 0
M  V30 6725 H 620.797 -2.04795 -4.54819 0
M  V30 6726 H 619.951 -0.243128 -6.06213 0
M  V30 6727 H 618.69 0.189742 -4.87331 0
M  V30 6728 H 617.695 -2.10595 -5.07868 0
M  V30 6729 H 618.92 -2.53206 -6.3013 0
M  V30 6730 H 616.866 -0.302208 -6.55304 0
M  V30 6731 H 616.783 -1.84901 -7.3304 0
M  V30 6732 H 618.051 -0.740068 -7.75979 0
M  V30 6733 N 622.28 1.30327 -0.886154 0
M  V30 6734 C 623.505 2.0079 -0.519425 0
M  V30 6735 C 623.93 1.65979 0.885013 0
M  V30 6736 O 623.288 0.877043 1.58675 0
M  V30 6737 C 623.336 3.53686 -0.702758 0
M  V30 6738 O 622.44 4.11637 0.250828 0
M  V30 6739 H 621.781 0.63171 -0.204544 0
M  V30 6740 H 624.311 1.66145 -1.19402 0
M  V30 6741 H 624.321 4.03531 -0.602207 0
M  V30 6742 H 622.996 3.78361 -1.72673 0
M  V30 6743 H 621.573 3.72755 0.103873 0
M  V30 6744 N 623.758 0.647228 1.43697 0
M  V30 6745 C 624.69 -0.0866232 2.29036 0
M  V30 6746 C 625.703 -0.793051 1.42178 0
M  V30 6747 O 626.892 -0.651807 1.66174 0
M  V30 6748 C 623.992 -1.14552 3.18953 0
M  V30 6749 C 623.165 -0.518422 4.34317 0
M  V30 6750 C 622.224 -1.4734 5.05151 0
M  V30 6751 O 621.25 -0.984312 5.60625 0
M  V30 6752 N 622.452 -2.8075 5.08094 0
M  V30 6753 H 625.217 0.645834 2.92659 0
M  V30 6754 H 622.778 0.489567 1.54321 0
M  V30 6755 H 624.77 -1.78505 3.63205 0
M  V30 6756 H 623.34 -1.78001 2.56971 0
M  V30 6757 H 622.56 0.300079 3.93056 0
M  V30 6758 H 623.848 -0.080401 5.08736 0
M  V30 6759 H 623.246 -3.23052 4.64386 0
M  V30 6760 H 621.803 -3.40022 5.56083 0
M  V30 6761 N 625.236 -1.5273 0.388769 0
M  V30 6762 C 626.483 -2.01573 -0.19359 0
M  V30 6763 C 626.811 -1.27525 -1.46859 0
M  V30 6764 O 626.066 -0.363926 -1.92286 0
M  V30 6765 C 626.365 -3.53765 -0.508445 0
M  V30 6766 C 626.031 -4.4582 0.674947 0
M  V30 6767 C 624.693 -4.70703 0.999596 0
M  V30 6768 C 627.045 -5.00138 1.46666 0
M  V30 6769 C 624.373 -5.47155 2.11751 0
M  V30 6770 C 626.725 -5.77812 2.57518 0
M  V30 6771 C 625.389 -6.00975 2.90492 0
M  V30 6772 H 624.659 -0.737606 -0.0708397 0
M  V30 6773 H 627.306 -1.84134 0.526006 0
M  V30 6774 H 625.611 -3.69274 -1.30936 0
M  V30 6775 H 627.308 -3.8905 -0.971664 0
M  V30 6776 H 623.898 -4.26616 0.411906 0
M  V30 6777 H 628.082 -4.8084 1.22909 0
M  V30 6778 H 623.338 -5.63314 2.3767 0
M  V30 6779 H 627.512 -6.18904 3.19267 0
M  V30 6780 H 625.139 -6.59998 3.77236 0
M  V30 6781 N 626.714 -0.118576 -1.57153 0
M  V30 6782 C 627.624 0.845484 -2.18835 0
M  V30 6783 C 628.64 1.29299 -1.16438 0
M  V30 6784 O 629.816 1.35607 -1.48905 0
M  V30 6785 C 626.881 2.07795 -2.77529 0
M  V30 6786 C 625.942 1.6824 -3.9496 0
M  V30 6787 C 625.175 2.85612 -4.50845 0
M  V30 6788 O 625.398 4.01025 -4.05629 0
M  V30 6789 O 624.332 2.62721 -5.41536 0
M  V30 6790 H 628.158 0.350568 -3.0167 0
M  V30 6791 H 625.743 0.107013 -1.49016 0
M  V30 6792 H 627.625 2.79978 -3.14945 0
M  V30 6793 H 626.3 2.56294 -1.97725 0
M  V30 6794 H 625.207 0.931663 -3.62313 0
M  V30 6795 H 626.54 1.24484 -4.76198 0
M  V30 6796 N 628.193 1.56834 0.155195 0
M  V30 6797 C 629.14 1.97646 1.19184 0
M  V30 6798 C 630.11 0.842788 1.4313 0
M  V30 6799 O 631.295 1.1042 1.55602 0
M  V30 6800 C 628.435 2.35527 2.52232 0
M  V30 6801 C 627.548 3.62147 2.35529 0
M  V30 6802 C 626.683 3.89167 3.61555 0
M  V30 6803 C 625.722 5.09084 3.39853 0
M  V30 6804 N 624.859 5.32156 4.5799 0
M  V30 6805 H 629.699 2.8601 0.836802 0
M  V30 6806 H 627.236 1.41507 0.401758 0
M  V30 6807 H 629.194 2.55516 3.29799 0
M  V30 6808 H 627.824 1.50253 2.85699 0
M  V30 6809 H 626.876 3.4998 1.49057 0
M  V30 6810 H 628.188 4.49871 2.15448 0
M  V30 6811 H 627.342 4.09611 4.47553 0
M  V30 6812 H 626.081 2.9985 3.84632 0
M  V30 6813 H 625.086 4.88522 2.52243 0
M  V30 6814 H 626.311 5.99947 3.18183 0
M  V30 6815 H 624.257 4.45791 4.81255 0
M  V30 6816 H 624.174 6.14133 4.40882 0
M  V30 6817 H 625.442 5.57091 5.45225 0
M  V30 6818 N 629.671 -0.424282 1.51781 0
M  V30 6819 C 630.918 -1.1726 1.65095 0
M  V30 6820 C 631.246 -1.90881 0.373477 0
M  V30 6821 O 630.501 -1.84835 -0.642997 0
M  V30 6822 C 630.8 -2.20418 2.81337 0
M  V30 6823 C 630.466 -1.63715 4.20129 0
M  V30 6824 C 629.128 -1.47975 4.57883 0
M  V30 6825 C 631.48 -1.22157 5.06682 0
M  V30 6826 C 628.808 -0.891703 5.79884 0
M  V30 6827 C 631.16 -0.647767 6.29275 0
M  V30 6828 C 629.824 -0.477371 6.65791 0
M  V30 6829 H 629.094 -0.429085 0.604125 0
M  V30 6830 H 631.741 -0.461852 1.85847 0
M  V30 6831 H 630.046 -2.97581 2.54859 0
M  V30 6832 H 631.743 -2.78163 2.88836 0
M  V30 6833 H 628.333 -1.76946 3.90369 0
M  V30 6834 H 632.517 -1.33133 4.7811 0
M  V30 6835 H 627.773 -0.747563 6.06813 0
M  V30 6836 H 631.947 -0.317291 6.95677 0
M  V30 6837 H 629.574 -0.0195936 7.60197 0
M  V30 6838 N 631.149 -1.42148 -0.680565 0
M  V30 6839 C 632.395 -1.42521 -1.44277 0
M  V30 6840 C 632.728 -0.0393718 -1.9416 0
M  V30 6841 O 632.003 0.935425 -1.70529 0
M  V30 6842 C 632.286 -2.44475 -2.64394 0
M  V30 6843 C 632.139 -3.92226 -2.20179 0
M  V30 6844 C 633.458 -2.43491 -3.66606 0
M  V30 6845 H 630.577 -0.518985 -0.523282 0
M  V30 6846 H 633.219 -1.73524 -0.773914 0
M  V30 6847 H 631.369 -2.18168 -3.21458 0
M  V30 6848 H 633.041 -4.29493 -1.68327 0
M  V30 6849 H 631.284 -4.0637 -1.5181 0
M  V30 6850 H 631.955 -4.59133 -3.06433 0
M  V30 6851 H 634.431 -2.66872 -3.19247 0
M  V30 6852 H 633.307 -3.16816 -4.4824 0
M  V30 6853 H 633.568 -1.45881 -4.17338 0
M  V30 6854 N 632.627 0.916307 -1.28225 0
M  V30 6855 C 634.043 1.19425 -1.05876 0
M  V30 6856 C 634.243 2.005 0.2005 0
M  V30 6857 O 633.299 2.35806 0.902873 0
M  V30 6858 C 634.612 1.93133 -2.30478 0
M  V30 6859 C 636.16 2.06026 -2.35632 0
M  V30 6860 C 636.635 2.83141 -3.59994 0
M  V30 6861 N 638.126 2.90704 -3.60618 0
M  V30 6862 C 638.861 3.50865 -4.53521 0
M  V30 6863 N 638.357 4.12327 -5.56739 0
M  V30 6864 N 640.15 3.48379 -4.41122 0
M  V30 6865 H 632.301 0.37496 -2.09064 0
M  V30 6866 H 634.564 0.228531 -0.920042 0
M  V30 6867 H 634.27 1.40985 -3.22205 0
M  V30 6868 H 634.144 2.93696 -2.36691 0
M  V30 6869 H 636.531 2.57355 -1.44404 0
M  V30 6870 H 636.612 1.04647 -2.33415 0
M  V30 6871 H 636.256 2.32492 -4.51564 0
M  V30 6872 H 636.186 3.84829 -3.59464 0
M  V30 6873 H 638.677 2.47034 -2.85977 0
M  V30 6874 H 638.99 4.56205 -6.23776 0
M  V30 6875 H 637.335 4.10839 -5.60568 0
M  V30 6876 H 640.526 2.99572 -3.59686 0
M  V30 6877 H 640.699 3.94974 -5.13712 0
M  V30 6878 N 634.105 1.10431 1.1244 0
M  V30 6879 C 635.352 0.846717 1.83948 0
M  V30 6880 C 635.68 -0.627709 1.84093 0
M  V30 6881 O 634.935 -1.47876 1.28184 0
M  V30 6882 C 635.234 1.34022 3.3132 0
M  V30 6883 C 634.9 2.82606 3.51347 0
M  V30 6884 C 633.562 3.23182 3.56521 0
M  V30 6885 C 635.914 3.78356 3.58464 0
M  V30 6886 C 633.242 4.58258 3.66356 0
M  V30 6887 C 635.594 5.13234 3.69829 0
M  V30 6888 C 634.258 5.53384 3.73259 0
M  V30 6889 H 633.528 0.309836 0.673114 0
M  V30 6890 H 636.175 1.38091 1.32677 0
M  V30 6891 H 634.48 0.726047 3.85014 0
M  V30 6892 H 636.177 1.11739 3.85118 0
M  V30 6893 H 632.767 2.50212 3.47983 0
M  V30 6894 H 636.951 3.48115 3.53737 0
M  V30 6895 H 632.207 4.88787 3.67284 0
M  V30 6896 H 636.381 5.87272 3.74279 0
M  V30 6897 H 634.008 6.58045 3.80633 0
M  V30 6898 N 635.583 -1.29855 0.893053 0
M  V30 6899 C 636.823 -1.97612 0.522399 0
M  V30 6900 C 637.187 -1.68903 -0.913 0
M  V30 6901 O 638.388 -2.30059 -1.39019 0
M  V30 6902 C 636.659 -3.48356 0.79893 0
M  V30 6903 S 638.218 -4.35568 0.531588 0
M  V30 6904 H 635.036 -0.684005 0.194058 0
M  V30 6905 H 637.638 -1.57803 1.15406 0
M  V30 6906 H 636.342 -3.66743 1.84196 0
M  V30 6907 H 635.873 -3.93094 0.155133 0
M  V30 6908 H 637.888 -4.92232 -0.626295 0
M  V30 6909 N 637.061 -0.65484 -1.43351 0
M  V30 6910 C 638.308 -0.168892 -2.01794 0
M  V30 6911 C 638.636 1.2177 -1.51665 0
M  V30 6912 O 637.891 1.82717 -0.70092 0
M  V30 6913 C 638.19 -0.130424 -3.57162 0
M  V30 6914 C 637.856 -1.45898 -4.26643 0
M  V30 6915 C 636.518 -1.82279 -4.4534 0
M  V30 6916 C 638.87 -2.33485 -4.65976 0
M  V30 6917 C 636.198 -3.0591 -5.00635 0
M  V30 6918 C 638.55 -3.5641 -5.22642 0
M  V30 6919 C 637.214 -3.92985 -5.39555 0
M  V30 6920 H 636.484 -0.061802 -0.738418 0
M  V30 6921 H 639.131 -0.845869 -1.71806 0
M  V30 6922 H 637.436 0.630008 -3.86702 0
M  V30 6923 H 639.133 0.262465 -4.0014 0
M  V30 6924 H 635.723 -1.16591 -4.12437 0
M  V30 6925 H 639.907 -2.06668 -4.51223 0
M  V30 6926 H 635.163 -3.34295 -5.11915 0
M  V30 6927 H 639.337 -4.24495 -5.52066 0
M  V30 6928 H 636.964 -4.88862 -5.82167 0
M  V30 6929 N 638.539 1.52521 -0.396863 0
M  V30 6930 C 639.788 2.00857 0.184184 0
M  V30 6931 C 640.101 1.28733 1.47265 0
M  V30 6932 O 641.307 1.67821 2.13421 0
M  V30 6933 C 639.763 3.57901 0.378787 0
M  V30 6934 C 639.371 4.38931 -0.896873 0
M  V30 6935 C 641.115 4.14504 0.915789 0
M  V30 6936 C 639.022 5.87591 -0.670133 0
M  V30 6937 H 637.952 0.750496 0.0726055 0
M  V30 6938 H 640.603 1.75965 -0.520425 0
M  V30 6939 H 638.985 3.79072 1.14543 0
M  V30 6940 H 640.159 4.29524 -1.66872 0
M  V30 6941 H 638.474 3.93586 -1.35938 0
M  V30 6942 H 641.071 5.23236 1.10126 0
M  V30 6943 H 641.414 3.71076 1.88701 0
M  V30 6944 H 641.947 3.97253 0.208523 0
M  V30 6945 H 638.686 6.35355 -1.61257 0
M  V30 6946 H 638.206 5.99767 0.0626368 0
M  V30 6947 H 639.885 6.46268 -0.307577 0
M  V30 6948 N 640.017 0.126909 1.57088 0
M  V30 6949 C 640.964 -0.82036 2.15728 0
M  V30 6950 C 641.934 -1.25811 1.08447 0
M  V30 6951 O 643.119 -1.33422 1.36393 0
M  V30 6952 C 640.259 -2.06199 2.76724 0
M  V30 6953 C 639.372 -1.67188 3.98337 0
M  V30 6954 C 638.507 -2.86378 4.47393 0
M  V30 6955 C 637.546 -2.43644 5.61519 0
M  V30 6956 N 636.683 -3.55775 6.05284 0
M  V30 6957 H 641.523 -0.313472 2.96347 0
M  V30 6958 H 639.06 -0.14303 1.46403 0
M  V30 6959 H 641.018 -2.78959 3.10222 0
M  V30 6960 H 639.648 -2.54333 1.98782 0
M  V30 6961 H 638.7 -0.842714 3.70948 0
M  V30 6962 H 640.012 -1.31789 4.81075 0
M  V30 6963 H 639.166 -3.67353 4.82842 0
M  V30 6964 H 637.905 -3.25009 3.63621 0
M  V30 6965 H 636.91 -1.61104 5.25667 0
M  V30 6966 H 638.135 -2.06122 6.47063 0
M  V30 6967 H 636.081 -3.94065 5.24451 0
M  V30 6968 H 635.998 -3.24325 6.82898 0
M  V30 6969 H 637.266 -4.37166 6.45373 0
M  V30 6970 N 641.495 -1.56914 -0.146875 0
M  V30 6971 C 642.442 -1.98275 -1.18134 0
M  V30 6972 C 643.412 -0.850367 -1.42681 0
M  V30 6973 O 644.597 -1.11244 -1.55014 0
M  V30 6974 C 641.737 -2.36861 -2.5098 0
M  V30 6975 C 640.85 -3.63391 -2.33605 0
M  V30 6976 C 639.985 -3.91079 -3.59486 0
M  V30 6977 C 639.024 -5.10879 -3.37149 0
M  V30 6978 N 638.161 -5.34577 -4.55161 0
M  V30 6979 H 643.001 -2.8645 -0.821622 0
M  V30 6980 H 640.538 -1.41718 -0.394248 0
M  V30 6981 H 642.496 -2.57262 -3.28439 0
M  V30 6982 H 641.126 -1.51766 -2.84898 0
M  V30 6983 H 640.178 -3.50766 -1.47199 0
M  V30 6984 H 641.49 -4.51007 -2.13059 0
M  V30 6985 H 640.644 -4.11979 -4.45374 0
M  V30 6986 H 639.383 -3.01885 -3.83036 0
M  V30 6987 H 638.388 -4.89853 -2.49649 0
M  V30 6988 H 639.613 -6.01626 -3.14997 0
M  V30 6989 H 637.559 -4.48337 -4.78884 0
M  V30 6990 H 637.476 -6.16463 -4.37618 0
M  V30 6991 H 638.744 -5.59975 -5.42263 0
M  V30 6992 N 642.974 0.416227 -1.52004 0
M  V30 6993 C 644.251 1.17637 -1.56272 0
M  V30 6994 C 644.631 2.08352 -0.339493 0
M  V30 6995 O 643.979 2.1833 0.674124 0
M  V30 6996 C 644.189 1.95986 -2.88774 0
M  V30 6997 C 645.537 2.52299 -3.41512 0
M  V30 6998 O 646.561 2.06174 -2.90467 0
M  V30 6999 O 645.42 3.3648 -4.30631 0
M  V30 7000 H 642.514 0.536726 -0.629169 0
M  V30 7001 H 645.06 0.423583 -1.64329 0
M  V30 7002 H 643.832 1.29487 -3.69254 0
M  V30 7003 H 643.455 2.78285 -2.83978 0
M  V30 7004 N 644.452 1.42507 0.673017 0
M  V30 7005 C 645.677 1.4668 1.46627 0
M  V30 7006 C 646.102 0.080066 1.8793 0
M  V30 7007 O 645.46 -0.921879 1.56112 0
M  V30 7008 C 645.508 2.40091 2.69051 0
M  V30 7009 O 644.612 1.8735 3.67387 0
M  V30 7010 H 643.953 0.496908 0.44043 0
M  V30 7011 H 646.483 1.87215 0.825334 0
M  V30 7012 H 646.493 2.56731 3.17101 0
M  V30 7013 H 645.168 3.4084 2.3833 0
M  V30 7014 H 643.745 1.80274 3.26429 0
M  V30 7015 N 645.93 -0.909495 1.28709 0
M  V30 7016 C 647.158 -1.69272 1.18973 0
M  V30 7017 C 647.573 -1.87123 -0.251048 0
M  V30 7018 O 646.93 -1.40127 -1.16922 0
M  V30 7019 C 646.981 -3.08257 1.88839 0
M  V30 7020 O 646.702 -2.91228 3.27289 0
M  V30 7021 C 648.203 -4.02642 1.85457 0
M  V30 7022 H 645.423 -0.528999 0.412797 0
M  V30 7023 H 647.967 -1.13803 1.69909 0
M  V30 7024 H 646.122 -3.6053 1.41762 0
M  V30 7025 H 646.536 -3.79223 3.6234 0
M  V30 7026 H 648.01 -4.97613 2.38925 0
M  V30 7027 H 648.487 -4.31327 0.827893 0
M  V30 7028 H 649.093 -3.56298 2.32233 0
M  V30 7029 N 647.408 -1.11026 -1.11852 0
M  V30 7030 C 648.338 -0.786812 -2.19844 0
M  V30 7031 C 649.319 0.242935 -1.68356 0
M  V30 7032 O 650.504 0.107355 -1.93903 0
M  V30 7033 C 647.634 -0.224516 -3.46574 0
M  V30 7034 C 646.588 -1.18564 -4.1125 0
M  V30 7035 C 645.914 -0.484261 -5.32503 0
M  V30 7036 C 647.214 -2.53465 -4.56676 0
M  V30 7037 H 648.908 -1.68978 -2.47158 0
M  V30 7038 H 646.454 -0.813906 -1.18792 0
M  V30 7039 H 648.407 0.0139435 -4.21398 0
M  V30 7040 H 647.131 0.713722 -3.18706 0
M  V30 7041 H 645.79 -1.40966 -3.38414 0
M  V30 7042 H 645.438 0.458646 -5.00905 0
M  V30 7043 H 645.138 -1.12526 -5.76725 0
M  V30 7044 H 646.662 -0.254492 -6.10069 0
M  V30 7045 H 648.076 -2.35177 -5.22843 0
M  V30 7046 H 646.473 -3.13507 -5.11697 0
M  V30 7047 H 647.543 -3.13008 -3.70343 0
M  V30 7048 N 648.886 1.2938 -0.899927 0
M  V30 7049 C 650.163 1.9046 -0.445443 0
M  V30 7050 C 650.543 1.81683 1.07492 0
M  V30 7051 O 649.891 1.24371 1.91688 0
M  V30 7052 C 650.101 3.35529 -0.960279 0
M  V30 7053 C 651.449 4.12556 -1.00412 0
M  V30 7054 O 652.473 3.44434 -0.907965 0
M  V30 7055 O 651.332 5.34294 -1.14857 0
M  V30 7056 H 648.426 0.815253 -0.138893 0
M  V30 7057 H 650.972 1.37844 -0.989808 0
M  V30 7058 H 649.744 3.36074 -2.00425 0
M  V30 7059 H 649.367 3.95624 -0.395939 0
M  V30 7060 N 650.364 0.662433 1.43002 0
M  V30 7061 C 651.327 -0.0142016 2.29196 0
M  V30 7062 C 652.327 -0.741394 1.42688 0
M  V30 7063 O 653.517 -0.581257 1.64216 0
M  V30 7064 C 650.649 -1.03084 3.24941 0
M  V30 7065 H 651.842 0.7443 2.90517 0
M  V30 7066 H 649.395 0.424133 1.50435 0
M  V30 7067 H 650.13 -1.81826 2.68533 0
M  V30 7068 H 649.915 -0.512946 3.8873 0
M  V30 7069 H 651.405 -1.50308 3.89612 0
M  V30 7070 N 651.842 -1.52309 0.404946 0
M  V30 7071 C 652.805 -2.25491 -0.410651 0
M  V30 7072 C 653.805 -1.27704 -0.977154 0
M  V30 7073 O 654.995 -1.51679 -0.856691 0
M  V30 7074 C 652.127 -3.02197 -1.57765 0
M  V30 7075 H 653.32 -2.99015 0.230277 0
M  V30 7076 H 650.873 -1.55506 0.157377 0
M  V30 7077 H 651.608 -2.33013 -2.25556 0
M  V30 7078 H 651.393 -3.73987 -1.17797 0
M  V30 7079 H 652.883 -3.57719 -2.15469 0
M  V30 7080 N 653.32 -0.135238 -1.57019 0
M  V30 7081 C 654.23 0.822226 -2.19719 0
M  V30 7082 C 655.246 1.28057 -1.17802 0
M  V30 7083 O 656.422 1.3402 -1.50335 0
M  V30 7084 C 653.487 2.0484 -2.79717 0
M  V30 7085 C 652.548 1.64042 -3.96723 0
M  V30 7086 C 651.781 2.80814 -4.53849 0
M  V30 7087 O 652.004 3.967 -4.0986 0
M  V30 7088 O 650.938 2.56963 -5.44292 0
M  V30 7089 H 654.764 0.318552 -3.02025 0
M  V30 7090 H 652.349 0.0912021 -1.49121 0
M  V30 7091 H 654.231 2.76622 -3.17897 0
M  V30 7092 H 652.906 2.54182 -2.00432 0
M  V30 7093 H 651.813 0.893182 -3.63281 0
M  V30 7094 H 653.146 1.19426 -4.77492 0
M  V30 7095 N 654.798 1.5699 0.138552 0
M  V30 7096 C 655.708 2.02174 1.19008 0
M  V30 7097 C 656.724 0.938622 1.46512 0
M  V30 7098 O 657.9 1.24872 1.58016 0
M  V30 7099 C 654.965 2.40045 2.50159 0
M  V30 7100 C 654.026 3.62346 2.30226 0
M  V30 7101 C 653.259 3.98401 3.55123 0
M  V30 7102 O 653.482 3.35019 4.61647 0
M  V30 7103 O 652.416 4.91606 3.47285 0
M  V30 7104 H 656.242 2.91954 0.836452 0
M  V30 7105 H 653.827 1.45293 0.347907 0
M  V30 7106 H 655.709 2.65225 3.27465 0
M  V30 7107 H 654.384 1.53417 2.85035 0
M  V30 7108 H 653.291 3.42341 1.50843 0
M  V30 7109 H 654.624 4.49617 2.00262 0
M  V30 7110 N 656.276 -0.40816 1.52223 0
M  V30 7111 C 657.525 -1.15212 1.65557 0
M  V30 7112 C 657.838 -1.9163 0.392096 0
M  V30 7113 O 659.044 -2.68458 0.405256 0
M  V30 7114 C 657.5 -2.09691 2.92502 0
M  V30 7115 C 657.108 -1.38785 4.25961 0
M  V30 7116 C 658.852 -2.8434 3.152 0
M  V30 7117 C 656.759 -2.31919 5.44029 0
M  V30 7118 H 655.689 -0.433776 0.616729 0
M  V30 7119 H 658.34 -0.4165 1.78711 0
M  V30 7120 H 656.722 -2.8681 2.7305 0
M  V30 7121 H 657.896 -0.670248 4.55899 0
M  V30 7122 H 656.211 -0.761741 4.09373 0
M  V30 7123 H 658.808 -3.54166 4.00587 0
M  V30 7124 H 659.151 -3.47344 2.29473 0
M  V30 7125 H 659.684 -2.14321 3.35129 0
M  V30 7126 H 656.423 -1.7356 6.32105 0
M  V30 7127 H 655.943 -3.0165 5.18428 0
M  V30 7128 H 657.622 -2.92424 5.77146 0
M  V30 7129 N 657.755 -1.42862 -0.66545 0
M  V30 7130 C 659.004 -1.43119 -1.42126 0
M  V30 7131 C 659.317 -0.0545297 -1.95524 0
M  V30 7132 O 660.523 0.0654747 -2.71421 0
M  V30 7133 C 658.979 -2.51797 -2.5715 0
M  V30 7134 C 658.587 -3.95514 -2.10411 0
M  V30 7135 C 660.331 -2.61233 -3.346 0
M  V30 7136 C 658.238 -4.95682 -3.22573 0
M  V30 7137 H 657.168 -0.532349 -0.533966 0
M  V30 7138 H 659.819 -1.68806 -0.719506 0
M  V30 7139 H 658.201 -2.19292 -3.29738 0
M  V30 7140 H 659.375 -4.3742 -1.44915 0
M  V30 7141 H 657.69 -3.90012 -1.45874 0
M  V30 7142 H 660.287 -3.33248 -4.18151 0
M  V30 7143 H 660.63 -1.65896 -3.81817 0
M  V30 7144 H 661.163 -2.9298 -2.69087 0
M  V30 7145 H 657.902 -5.92529 -2.80338 0
M  V30 7146 H 657.422 -4.58399 -3.86821 0
M  V30 7147 H 659.101 -5.17828 -3.87896 0
M  V30 7148 N 659.233 0.902656 -1.29189 0
M  V30 7149 C 660.18 2.00643 -1.14066 0
M  V30 7150 C 661.15 1.66064 -0.0347756 0
M  V30 7151 O 662.335 1.8973 -0.201752 0
M  V30 7152 C 659.475 3.35214 -0.820104 0
M  V30 7153 C 658.588 3.82594 -2.00614 0
M  V30 7154 C 657.723 5.05727 -1.62522 0
M  V30 7155 C 656.762 5.45469 -2.77724 0
M  V30 7156 N 655.899 6.59789 -2.40048 0
M  V30 7157 H 660.739 2.1291 -2.08502 0
M  V30 7158 H 658.276 1.04271 -1.03759 0
M  V30 7159 H 660.234 4.12643 -0.614949 0
M  V30 7160 H 658.864 3.22682 0.0873452 0
M  V30 7161 H 657.916 3.01226 -2.32308 0
M  V30 7162 H 659.228 4.07999 -2.86946 0
M  V30 7163 H 658.382 5.90732 -1.38277 0
M  V30 7164 H 657.121 4.82155 -0.733333 0
M  V30 7165 H 656.126 4.59 -3.02653 0
M  V30 7166 H 657.351 5.71024 -3.67572 0
M  V30 7167 H 655.297 6.37826 -1.53343 0
M  V30 7168 H 655.214 6.84975 -3.19914 0
M  V30 7169 H 656.482 7.4807 -2.19116 0
M  V30 7170 N 660.711 1.11618 1.11262 0
M  V30 7171 C 661.674 0.779447 2.15539 0
M  V30 7172 C 662.674 -0.202081 1.59525 0
M  V30 7173 O 663.864 0.0226356 1.74185 0
M  V30 7174 C 660.996 0.15674 3.40539 0
M  V30 7175 H 662.189 1.70324 2.4684 0
M  V30 7176 H 659.742 0.918298 1.26479 0
M  V30 7177 H 660.477 -0.777186 3.1485 0
M  V30 7178 H 660.262 0.863308 3.82478 0
M  V30 7179 H 661.752 -0.062661 4.17553 0
M  V30 7180 N 662.189 -1.289 0.906776 0
M  V30 7181 C 663.435 -1.95919 0.546551 0
M  V30 7182 C 663.79 -1.70126 -0.8986 0
M  V30 7183 O 663.083 -1.00775 -1.62957 0
M  V30 7184 C 663.277 -3.48704 0.783617 0
M  V30 7185 C 663.106 -3.8935 2.25026 0
M  V30 7186 C 661.876 -4.13864 2.89905 0
M  V30 7187 C 664.074 -4.00535 3.22608 0
M  V30 7188 N 662.056 -4.41131 4.26939 0
M  V30 7189 C 663.427 -4.31936 4.44783 0
M  V30 7190 C 665.482 -3.83035 3.18102 0
M  V30 7191 C 664.185 -4.47659 5.63022 0
M  V30 7192 C 666.211 -3.99971 4.35634 0
M  V30 7193 C 665.573 -4.31738 5.5658 0
M  V30 7194 H 661.672 -0.74105 0.249737 0
M  V30 7195 H 664.256 -1.55696 1.16906 0
M  V30 7196 H 662.427 -3.87933 0.190437 0
M  V30 7197 H 664.159 -4.02835 0.38812 0
M  V30 7198 H 660.914 -4.07893 2.40666 0
M  V30 7199 H 661.338 -4.5886 4.97771 0
M  V30 7200 H 665.98 -3.57533 2.25677 0
M  V30 7201 H 663.698 -4.71995 6.55932 0
M  V30 7202 H 667.284 -3.87874 4.33641 0
M  V30 7203 H 666.164 -4.44568 6.4601 0
M  V30 7204 N 663.667 -0.670007 -1.42649 0
M  V30 7205 C 664.892 -0.196955 -2.06463 0
M  V30 7206 C 665.317 1.1352 -1.49983 0
M  V30 7207 O 664.675 1.705 -0.616397 0
M  V30 7208 C 664.723 -0.137381 -3.60338 0
M  V30 7209 O 663.827 0.895523 -4.02559 0
M  V30 7210 H 663.168 -0.102579 -0.656029 0
M  V30 7211 H 665.698 -0.917669 -1.82866 0
M  V30 7212 H 665.708 0.0403625 -4.0798 0
M  V30 7213 H 664.383 -1.10977 -4.0082 0
M  V30 7214 H 662.96 0.689209 -3.66476 0
M  V30 7215 N 665.145 1.52092 -0.413018 0
M  V30 7216 C 666.391 2.02154 0.161737 0
M  V30 7217 C 666.724 1.29789 1.44459 0
M  V30 7218 O 665.999 0.405378 1.90229 0
M  V30 7219 C 666.282 3.5781 0.405463 0
M  V30 7220 C 666.135 4.40819 -0.894335 0
M  V30 7221 C 667.454 4.23821 1.18591 0
M  V30 7222 H 664.573 0.734769 0.0573077 0
M  V30 7223 H 667.215 1.81948 -0.547247 0
M  V30 7224 H 665.365 3.75158 1.0094 0
M  V30 7225 H 667.037 4.35175 -1.53039 0
M  V30 7226 H 665.28 4.06877 -1.50444 0
M  V30 7227 H 665.951 5.47819 -0.678144 0
M  V30 7228 H 668.427 4.10596 0.674573 0
M  V30 7229 H 667.303 5.32663 1.3252 0
M  V30 7230 H 667.564 3.83038 2.20758 0
M  V30 7231 N 666.623 0.143563 1.56945 0
M  V30 7232 C 667.555 -0.828353 2.13708 0
M  V30 7233 C 668.568 -1.21313 1.08568 0
M  V30 7234 O 669.757 -1.1578 1.35857 0
M  V30 7235 C 666.857 -2.12248 2.64204 0
M  V30 7236 C 666.03 -1.90561 3.93707 0
M  V30 7237 C 665.089 -3.03931 4.29549 0
M  V30 7238 O 664.115 -2.75772 4.97934 0
M  V30 7239 N 665.317 -4.31016 3.88852 0
M  V30 7240 H 668.082 -0.343242 2.97728 0
M  V30 7241 H 665.643 -0.0401152 1.6185 0
M  V30 7242 H 667.635 -2.87132 2.85197 0
M  V30 7243 H 666.205 -2.52033 1.84928 0
M  V30 7244 H 665.425 -0.997327 3.81375 0
M  V30 7245 H 666.713 -1.73405 4.78339 0
M  V30 7246 H 666.111 -4.56762 3.33743 0
M  V30 7247 H 664.668 -5.02691 4.14903 0
M  V30 7248 N 668.101 -1.57061 -0.130224 0
M  V30 7249 C 669.048 -1.99517 -1.16024 0
M  V30 7250 C 670.018 -0.865452 -1.41771 0
M  V30 7251 O 671.203 -1.12882 -1.53826 0
M  V30 7252 C 668.343 -2.3951 -2.48453 0
M  V30 7253 C 667.456 -3.65848 -2.29737 0
M  V30 7254 C 666.591 -3.9487 -3.55318 0
M  V30 7255 C 665.63 -5.14426 -3.31711 0
M  V30 7256 N 664.767 -5.39375 -4.49466 0
M  V30 7257 H 669.607 -2.87305 -0.791194 0
M  V30 7258 H 667.144 -1.42129 -0.379195 0
M  V30 7259 H 669.102 -2.60731 -3.25692 0
M  V30 7260 H 667.732 -1.54779 -2.83272 0
M  V30 7261 H 666.784 -3.52307 -1.4347 0
M  V30 7262 H 668.096 -4.53241 -2.08263 0
M  V30 7263 H 667.25 -4.16679 -4.4098 0
M  V30 7264 H 665.989 -3.05931 -3.79813 0
M  V30 7265 H 664.994 -4.92473 -2.44439 0
M  V30 7266 H 666.219 -6.04933 -3.08598 0
M  V30 7267 H 664.165 -4.53391 -4.74102 0
M  V30 7268 H 664.082 -6.21069 -4.31055 0
M  V30 7269 H 665.35 -5.65694 -5.36293 0
M  V30 7270 N 669.579 0.400081 -1.52437 0
M  V30 7271 C 670.804 1.17221 -1.71096 0
M  V30 7272 C 671.229 1.83269 -0.423565 0
M  V30 7273 O 670.587 1.70378 0.619751 0
M  V30 7274 C 670.635 2.20425 -2.85386 0
M  V30 7275 O 669.739 3.26769 -2.51586 0
M  V30 7276 H 669.08 0.341766 -0.569291 0
M  V30 7277 H 671.61 0.467772 -1.99181 0
M  V30 7278 H 671.62 2.64605 -3.10561 0
M  V30 7279 H 670.295 1.71737 -3.78786 0
M  V30 7280 H 668.872 2.87804 -2.37114 0
M  V30 7281 O 671.096 1.51991 0.545992 0
M  V30 7282 H 671.787 1.51962 1.20114 0
M  V30 END ATOM
M  V30 BEGIN BOND
M  V30 END BOND
M  V30 END CTAB
M  END
$$$$
