drugbank_target|Q9NSA0 Solute carrier family 22 member 11 (DB00493; DB01032; DB01212; DB11560)
 OpenBabel12092119423D

  0  0  0     0  0            999 V3000
M  V30 BEGIN CTAB
M  V30 COUNTS 8557 8653 0 0 0
M  V30 BEGIN ATOM
M  V30 1 H -0.908 1.98254 -0.117106 0
M  V30 2 N 0 1.576 0 0
M  V30 3 C 0.933 2.03868 1.02534 0
M  V30 4 C 1.911 0.928543 1.3348 0
M  V30 5 O 3.095 1.19667 1.45644 0
M  V30 6 C 0.222 2.43627 2.35294 0
M  V30 7 C -0.732 3.65373 2.2001 0
M  V30 8 S 0.101 5.13292 1.52614 0
M  V30 9 C 1.257 5.56322 2.86805 0
M  V30 10 H 1.49 2.90518 0.631377 0
M  V30 11 H -0.977 1.52953 0.210867 0
M  V30 12 H 0.981 2.67203 3.11629 0
M  V30 13 H -0.358 1.57376 2.7183 0
M  V30 14 H -1.165 3.90944 3.18086 0
M  V30 15 H -1.563 3.418 1.51819 0
M  V30 16 H 0.729 5.58782 3.83104 0
M  V30 17 H 1.672 6.56266 2.65933 0
M  V30 18 H 2.08 4.83886 2.90714 0
M  V30 19 N 1.4781 -0.272755 1.55222 0
M  V30 20 C 2.4411 -1.32041 1.87344 0
M  V30 21 C 3.4411 -1.42342 0.74803 0
M  V30 22 O 4.6311 -1.41488 1.0162 0
M  V30 23 C 1.7631 -2.70173 2.07893 0
M  V30 24 H 2.9561 -1.04789 2.80997 0
M  V30 25 H 0.5091 -0.51083 1.47717 0
M  V30 26 H 1.2441 -3.02605 1.16622 0
M  V30 27 H 1.0291 -2.64082 2.89833 0
M  V30 28 H 2.5191 -3.45869 2.34017 0
M  V30 29 N 2.9562 -1.48159 -0.537278 0
M  V30 30 C 4.2032 -1.55804 -1.29349 0
M  V30 31 C 4.5312 -0.228802 -1.9315 0
M  V30 32 O 3.7862 0.780242 -1.79473 0
M  V30 33 C 4.0852 -2.63956 -2.40961 0
M  V30 34 C 3.7512 -4.0662 -1.94861 0
M  V30 35 C 2.4132 -4.45452 -1.82006 0
M  V30 36 C 4.7652 -4.96055 -1.59933 0
M  V30 37 C 2.0932 -5.71531 -1.32547 0
M  V30 38 C 4.4452 -6.22617 -1.11939 0
M  V30 39 C 3.1092 -6.60312 -0.976951 0
M  V30 40 H 2.3792 -0.570129 -0.473322 0
M  V30 41 H 5.0262 -1.81845 -0.600372 0
M  V30 42 H 3.3312 -2.31747 -3.15912 0
M  V30 43 H 5.0282 -2.67089 -2.99107 0
M  V30 44 H 1.6182 -3.75949 -2.05815 0
M  V30 45 H 5.8022 -4.66738 -1.68728 0
M  V30 46 H 1.0582 -5.99468 -1.202 0
M  V30 47 H 5.2322 -6.91318 -0.839811 0
M  V30 48 H 2.8592 -7.57895 -0.591501 0
M  V30 49 N 4.4343 0.785586 -1.36625 0
M  V30 50 C 5.6593 1.57963 -1.34397 0
M  V30 51 C 6.0843 1.87964 0.071526 0
M  V30 52 O 5.4423 1.48182 1.0446 0
M  V30 53 C 5.4903 2.87511 -2.17646 0
M  V30 54 O 4.5943 3.81281 -1.57158 0
M  V30 55 H 3.9353 0.479014 -0.459828 0
M  V30 56 H 6.4653 0.973411 -1.79961 0
M  V30 57 H 6.4753 3.36745 -2.30362 0
M  V30 58 H 5.1503 2.65002 -3.20541 0
M  V30 59 H 3.7273 3.39885 -1.53403 0
M  V30 60 N 5.9124 1.20967 1.01018 0
M  V30 61 C 6.8594 0.964281 2.09691 0
M  V30 62 C 7.8294 -0.107853 1.65749 0
M  V30 63 O 9.0144 0.0381987 1.90762 0
M  V30 64 C 6.1544 0.52943 3.41015 0
M  V30 65 C 5.2674 1.67043 3.98398 0
M  V30 66 C 4.4024 1.18525 5.17808 0
M  V30 67 C 3.4414 2.29892 5.67288 0
M  V30 68 N 2.5784 1.82546 6.77954 0
M  V30 69 H 7.4184 1.89463 2.30017 0
M  V30 70 H 4.9554 0.944289 1.1279 0
M  V30 71 H 6.9134 0.258588 4.16398 0
M  V30 72 H 5.5434 -0.363919 3.20742 0
M  V30 73 H 4.5954 2.05603 3.20049 0
M  V30 74 H 5.9074 2.50877 4.31117 0
M  V30 75 H 5.0614 0.870762 6.00419 0
M  V30 76 H 3.8004 0.316887 4.86669 0
M  V30 77 H 2.8054 2.6215 4.83278 0
M  V30 78 H 4.0304 3.17216 6.00459 0
M  V30 79 H 1.9764 0.980454 6.48632 0
M  V30 80 H 1.8934 2.59956 7.09901 0
M  V30 81 H 3.1614 1.54115 7.64113 0
M  V30 82 N 7.3905 -1.2043 1.01659 0
M  V30 83 C 8.3205 -2.25466 0.607226 0
M  V30 84 C 9.3015 -1.65853 -0.377716 0
M  V30 85 O 10.4865 -1.92409 -0.263149 0
M  V30 86 C 7.6165 -3.47256 -0.0552949 0
M  V30 87 C 6.5705 -4.19462 0.850632 0
M  V30 88 C 5.8965 -5.34673 0.0538859 0
M  V30 89 C 7.1965 -4.75603 2.15868 0
M  V30 90 H 8.8905 -2.59962 1.48526 0
M  V30 91 H 6.4365 -1.2496 0.715605 0
M  V30 92 H 8.3895 -4.19917 -0.353233 0
M  V30 93 H 7.1135 -3.11924 -0.968045 0
M  V30 94 H 5.7725 -3.48667 1.13257 0
M  V30 95 H 5.4205 -4.95585 -0.860514 0
M  V30 96 H 5.1205 -5.83913 0.657192 0
M  V30 97 H 6.6445 -6.10138 -0.237598 0
M  V30 98 H 8.0585 -5.40083 1.92311 0
M  V30 99 H 6.4555 -5.3528 2.71284 0
M  V30 100 H 7.5255 -3.94346 2.82169 0
M  V30 101 N 8.8686 -0.792821 -1.36206 0
M  V30 102 C 9.7986 -0.207853 -2.32573 0
M  V30 103 C 10.7796 0.659055 -1.56813 0
M  V30 104 O 11.9646 0.592176 -1.84951 0
M  V30 105 C 9.0946 0.655449 -3.41059 0
M  V30 106 C 8.0486 -0.111842 -4.27854 0
M  V30 107 C 7.3746 0.872274 -5.27537 0
M  V30 108 C 8.6746 -1.30299 -5.05786 0
M  V30 109 H 10.3686 -1.01294 -2.81744 0
M  V30 110 H 7.9146 -0.48854 -1.3546 0
M  V30 111 H 9.8676 1.07464 -4.07467 0
M  V30 112 H 8.5916 1.49328 -2.90463 0
M  V30 113 H 7.2506 -0.512053 -3.63006 0
M  V30 114 H 6.8986 1.70523 -4.73214 0
M  V30 115 H 6.5986 0.363291 -5.86476 0
M  V30 116 H 8.1226 1.28996 -5.96818 0
M  V30 117 H 9.5366 -0.959379 -5.65216 0
M  V30 118 H 7.9336 -1.7455 -5.74154 0
M  V30 119 H 9.0036 -2.09663 -4.37229 0
M  V30 120 N 10.3467 1.47872 -0.545128 0
M  V30 121 C 11.2567 2.33633 0.212746 0
M  V30 122 C 12.2727 1.4744 0.923983 0
M  V30 123 O 13.4487 1.80393 0.895572 0
M  V30 124 C 10.5137 3.23884 1.23693 0
M  V30 125 C 9.5747 4.25961 0.534417 0
M  V30 126 C 8.8077 5.11899 1.5098 0
M  V30 127 O 9.0307 5.00077 2.7437 0
M  V30 128 O 7.9647 5.92831 1.0409 0
M  V30 129 H 11.7907 2.99714 -0.490416 0
M  V30 130 H 9.3757 1.46235 -0.305871 0
M  V30 131 H 11.2577 3.79666 1.82843 0
M  V30 132 H 9.9327 2.60446 1.92222 0
M  V30 133 H 8.8397 3.73972 -0.0979679 0
M  V30 134 H 10.1727 4.92079 -0.109213 0
M  V30 135 N 11.8248 0.280983 1.55075 0
M  V30 136 C 12.7568 -0.637268 2.20163 0
M  V30 137 C 13.7698 -1.11298 1.18813 0
M  V30 138 O 14.9588 -1.03388 1.4551 0
M  V30 139 C 12.0588 -1.88199 2.81841 0
M  V30 140 C 11.2318 -1.55211 4.08936 0
M  V30 141 C 10.2908 -2.64991 4.54606 0
M  V30 142 O 9.3168 -2.30929 5.2025 0
M  V30 143 N 10.5188 -3.95161 4.25238 0
M  V30 144 H 13.2838 -0.0801694 2.99593 0
M  V30 145 H 10.8448 0.102329 1.61576 0
M  V30 146 H 12.8368 -2.60948 3.09335 0
M  V30 147 H 11.4068 -2.34799 2.06369 0
M  V30 148 H 10.6268 -0.658185 3.88666 0
M  V30 149 H 11.9148 -1.30681 4.91732 0
M  V30 150 H 11.3128 -4.25653 3.72607 0
M  V30 151 H 9.8698 -4.6427 4.5749 0
M  V30 152 N 13.3029 -1.57598 0.00835791 0
M  V30 153 C 14.2659 -2.07884 -0.965242 0
M  V30 154 C 15.2659 -0.989825 -1.26725 0
M  V30 155 O 16.4559 -1.25218 -1.21104 0
M  V30 156 C 13.5879 -2.52731 -2.28779 0
M  V30 157 H 14.7809 -2.95178 -0.530112 0
M  V30 158 H 12.3339 -1.54458 -0.239283 0
M  V30 159 H 13.0689 -1.68705 -2.76964 0
M  V30 160 H 12.8539 -3.32272 -2.08177 0
M  V30 161 H 14.3439 -2.91933 -2.98605 0
M  V30 162 N 14.781 0.264519 -1.55364 0
M  V30 163 C 16.029 0.993021 -1.76021 0
M  V30 164 C 16.35 1.86511 -0.569099 0
M  V30 165 O 15.62 1.91438 0.415735 0
M  V30 166 H 14.2 0.369639 -0.649135 0
M  V30 167 H 16.862 0.286707 -1.9278 0
M  V30 168 H 15.958 1.62502 -2.66457 0
M  V30 169 N 16.2591 1.48442 0.529413 0
M  V30 170 C 17.5071 1.56179 1.28267 0
M  V30 171 C 17.8281 0.237721 1.93546 0
M  V30 172 O 17.0981 -0.740779 1.81354 0
M  V30 173 H 15.6781 0.575367 0.476405 0
M  V30 174 H 18.3401 1.84909 0.61602 0
M  V30 175 H 17.4361 2.34312 2.06165 0
M  V30 176 N 17.7372 -0.778329 1.37039 0
M  V30 177 C 18.9832 -1.53892 1.32079 0
M  V30 178 C 19.3162 -1.9396 -0.0965386 0
M  V30 179 O 18.5912 -1.63568 -1.05242 0
M  V30 180 C 18.8742 -2.80847 2.25382 0
M  V30 181 C 18.7272 -2.47076 3.75864 0
M  V30 182 C 20.0462 -3.82741 2.1725 0
M  V30 183 H 17.1652 -0.558303 0.48111 0
M  V30 184 H 19.8072 -0.893397 1.67685 0
M  V30 185 H 17.9572 -3.35931 1.95148 0
M  V30 186 H 19.6292 -1.97957 4.16666 0
M  V30 187 H 17.8722 -1.79863 3.94755 0
M  V30 188 H 18.5432 -3.37798 4.36574 0
M  V30 189 H 21.0192 -3.37133 2.43887 0
M  V30 190 H 19.8952 -4.69303 2.84686 0
M  V30 191 H 20.1562 -4.2652 1.16331 0
M  V30 192 N 19.2153 -1.21501 -1.00376 0
M  V30 193 C 20.4633 -1.03095 -1.73827 0
M  V30 194 C 20.7843 0.436341 -1.90055 0
M  V30 195 O 20.0543 1.31466 -1.45236 0
M  V30 196 H 18.6343 -0.378487 -0.644016 0
M  V30 197 H 21.2963 -1.52831 -1.20949 0
M  V30 198 H 20.3923 -1.49991 -2.73695 0
M  V30 199 N 20.6934 1.19889 -1.02296 0
M  V30 200 C 21.6234 2.25141 -0.619174 0
M  V30 201 C 22.6044 1.66051 0.368915 0
M  V30 202 O 23.7894 1.92546 0.252941 0
M  V30 203 C 20.9194 3.4728 0.0368783 0
M  V30 204 C 19.8734 4.19005 -0.872865 0
M  V30 205 C 19.1994 5.34637 -0.0822402 0
M  V30 206 C 20.4994 4.74452 -2.18387 0
M  V30 207 H 22.1934 2.59171 -1.49903 0
M  V30 208 H 19.7394 1.24579 -0.722222 0
M  V30 209 H 21.6924 4.20098 0.330958 0
M  V30 210 H 20.4164 3.12433 0.95149 0
M  V30 211 H 19.0754 3.48061 -1.15105 0
M  V30 212 H 18.7234 4.96034 0.83422 0
M  V30 213 H 18.4234 5.83557 -0.688149 0
M  V30 214 H 19.9474 6.10255 0.205238 0
M  V30 215 H 21.3614 5.39055 -1.95172 0
M  V30 216 H 19.7584 5.33834 -2.74119 0
M  V30 217 H 20.8284 3.92844 -2.84257 0
M  V30 218 N 22.1715 0.800033 1.35784 0
M  V30 219 C 23.4185 0.377342 1.98953 0
M  V30 220 C 23.7465 -1.05378 1.6348 0
M  V30 221 O 23.0015 -1.74459 0.886707 0
M  V30 222 C 23.3005 0.500276 3.53881 0
M  V30 223 C 22.9665 1.89375 4.09204 0
M  V30 224 C 21.6285 2.27499 4.24025 0
M  V30 225 C 23.9805 2.8057 4.39238 0
M  V30 226 C 21.3085 3.562 4.66195 0
M  V30 227 C 23.6605 4.0871 4.82844 0
M  V30 228 C 22.3245 4.46843 4.95871 0
M  V30 229 H 21.5945 0.138079 0.728021 0
M  V30 230 H 24.2415 1.01955 1.62103 0
M  V30 231 H 22.5465 -0.225405 3.91151 0
M  V30 232 H 24.2435 0.154097 4.00704 0
M  V30 233 H 20.8335 1.58753 3.98115 0
M  V30 234 H 25.0175 2.52367 4.27346 0
M  V30 235 H 20.2735 3.85602 4.74469 0
M  V30 236 H 24.4475 4.79481 5.05046 0
M  V30 237 H 22.0745 5.46623 5.28306 0
M  V30 238 N 23.6496 -1.47581 0.552962 0
M  V30 239 C 24.5816 -2.27997 -0.234533 0
M  V30 240 C 25.5946 -1.36753 -0.883321 0
M  V30 241 O 26.7836 -1.61612 -0.757889 0
M  V30 242 C 23.8836 -3.10879 -1.34935 0
M  V30 243 C 23.0566 -4.30056 -0.798158 0
M  V30 244 C 22.1156 -4.94567 -1.79694 0
M  V30 245 O 21.1416 -5.53087 -1.34474 0
M  V30 246 N 22.3436 -4.88878 -3.13015 0
M  V30 247 H 25.1086 -2.96222 0.455255 0
M  V30 248 H 22.6696 -1.57163 0.388761 0
M  V30 249 H 24.6616 -3.50903 -2.01616 0
M  V30 250 H 23.2316 -2.44924 -1.94244 0
M  V30 251 H 22.4516 -3.94174 0.0453079 0
M  V30 252 H 23.7396 -5.07152 -0.409173 0
M  V30 253 H 23.1376 -4.42526 -3.52402 0
M  V30 254 H 21.6946 -5.32934 -3.75266 0
M  V30 255 N 25.1277 -0.289203 -1.54924 0
M  V30 256 C 26.3557 0.326463 -2.04308 0
M  V30 257 C 26.7707 1.48413 -1.16701 0
M  V30 258 O 26.1277 1.81507 -0.190087 0
M  V30 259 C 26.1787 0.794014 -3.52672 0
M  V30 260 O 25.8997 -0.317564 -4.36948 0
M  V30 261 C 27.4007 1.47605 -4.18004 0
M  V30 262 H 24.6207 0.0726272 -0.667058 0
M  V30 263 H 27.1647 -0.425401 -2.00026 0
M  V30 264 H 25.3197 1.49593 -3.57352 0
M  V30 265 H 25.7337 0.0443186 -5.24481 0
M  V30 266 H 27.2077 1.75447 -5.23376 0
M  V30 267 H 27.6847 2.41224 -3.67025 0
M  V30 268 H 28.2907 0.81762 -4.17367 0
M  V30 269 N 26.6058 1.57591 -0.0167156 0
M  V30 270 C 27.5358 2.12496 0.967858 0
M  V30 271 C 28.5168 1.03807 1.34752 0
M  V30 272 O 29.7018 1.31577 1.42833 0
M  V30 273 C 26.8318 2.64194 2.25431 0
M  V30 274 C 25.7858 3.77559 2.01576 0
M  V30 275 C 25.1118 4.15636 3.36379 0
M  V30 276 C 26.4118 5.04151 1.36489 0
M  V30 277 H 28.1058 2.95013 0.510643 0
M  V30 278 H 25.6518 1.41915 0.244181 0
M  V30 279 H 27.6048 3.01236 2.94678 0
M  V30 280 H 26.3288 1.78821 2.73296 0
M  V30 281 H 24.9878 3.40937 1.34751 0
M  V30 282 H 24.6358 3.27263 3.81979 0
M  V30 283 H 24.3358 4.92022 3.21229 0
M  V30 284 H 25.8598 4.5525 4.06915 0
M  V30 285 H 27.2738 5.38857 1.95718 0
M  V30 286 H 25.6708 5.85453 1.31776 0
M  V30 287 H 26.7408 4.83733 0.336219 0
M  V30 288 N 28.0839 -0.256276 1.55502 0
M  V30 289 C 29.0159 -1.33981 1.85962 0
M  V30 290 C 30.0289 -1.44743 0.745212 0
M  V30 291 O 31.2179 -1.4626 1.02324 0
M  V30 292 C 28.3179 -2.7194 2.02242 0
M  V30 293 C 27.4909 -2.83562 3.33033 0
M  V30 294 C 26.5499 -4.02304 3.39172 0
M  V30 295 O 25.5759 -3.92273 4.12444 0
M  V30 296 N 26.7779 -5.15045 2.67784 0
M  V30 297 H 29.5429 -1.08191 2.7949 0
M  V30 298 H 27.1039 -0.446388 1.55624 0
M  V30 299 H 29.0959 -3.49697 2.03701 0
M  V30 300 H 27.6659 -2.90479 1.15502 0
M  V30 301 H 26.8859 -1.92555 3.43971 0
M  V30 302 H 28.1739 -2.88271 4.19258 0
M  V30 303 H 27.5719 -5.26085 2.07968 0
M  V30 304 H 26.1289 -5.90972 2.74947 0
M  V30 305 N 29.562 -1.4872 -0.521534 0
M  V30 306 C 30.808 -1.574 -1.27879 0
M  V30 307 C 31.141 -0.250817 -1.92573 0
M  V30 308 O 30.416 0.743934 -1.79711 0
M  V30 309 C 30.699 -2.71843 -2.36164 0
M  V30 310 C 30.552 -4.13893 -1.76105 0
M  V30 311 C 31.871 -2.82008 -3.37875 0
M  V30 312 H 28.99 -0.572941 -0.463581 0
M  V30 313 H 31.632 -1.80927 -0.580119 0
M  V30 314 H 29.782 -2.51914 -2.95756 0
M  V30 315 H 31.454 -4.45284 -1.20499 0
M  V30 316 H 29.697 -4.20498 -1.06601 0
M  V30 317 H 30.368 -4.89804 -2.5455 0
M  V30 318 H 32.844 -3.00086 -2.88249 0
M  V30 319 H 31.72 -3.63796 -4.11028 0
M  V30 320 H 31.981 -1.90511 -3.98946 0
M  V30 321 N 31.0401 0.771051 -1.3745 0
M  V30 322 C 31.9701 1.89827 -1.3597 0
M  V30 323 C 32.9511 1.68562 -0.228216 0
M  V30 324 O 34.1361 1.8941 -0.428675 0
M  V30 325 C 31.2661 3.2712 -1.16662 0
M  V30 326 C 30.2201 3.6295 -2.2683 0
M  V30 327 C 29.5461 4.98791 -1.92644 0
M  V30 328 C 30.8461 3.69627 -3.69017 0
M  V30 329 H 32.5401 1.91323 -2.30295 0
M  V30 330 H 30.0861 0.919082 -1.10855 0
M  V30 331 H 32.0391 4.05615 -1.14256 0
M  V30 332 H 30.7631 3.26059 -0.187926 0
M  V30 333 H 29.4221 2.86763 -2.28392 0
M  V30 334 H 29.0701 4.94271 -0.933021 0
M  V30 335 H 28.7701 5.23733 -2.66416 0
M  V30 336 H 30.2941 5.79685 -1.91826 0
M  V30 337 H 31.7081 4.38273 -3.69581 0
M  V30 338 H 30.1051 4.06067 -4.41848 0
M  V30 339 H 31.1751 2.70273 -4.02592 0
M  V30 340 N 32.5182 1.22032 0.997298 0
M  V30 341 C 33.7462 1.06841 1.7718 0
M  V30 342 C 34.1612 -0.381325 1.84909 0
M  V30 343 O 33.5182 -1.26437 1.31605 0
M  V30 344 C 33.5692 1.66814 3.20711 0
M  V30 345 O 33.2902 3.06116 3.13408 0
M  V30 346 C 34.7912 1.56838 4.14628 0
M  V30 347 H 32.0112 0.374782 0.556578 0
M  V30 348 H 34.5552 1.61532 1.2541 0
M  V30 349 H 32.7102 1.16196 3.69564 0
M  V30 350 H 33.1242 3.34926 4.0364 0
M  V30 351 H 34.5982 2.03532 5.13107 0
M  V30 352 H 35.0752 0.524155 4.36061 0
M  V30 353 H 35.6812 2.06741 3.7167 0
M  V30 354 N 33.9963 -1.19345 1.0293 0
M  V30 355 C 35.2433 -1.89038 0.726008 0
M  V30 356 C 35.5713 -1.79649 -0.745427 0
M  V30 357 O 34.8263 -1.18354 -1.55855 0
M  V30 358 C 35.1253 -3.39292 1.12319 0
M  V30 359 C 34.7913 -3.68885 2.59297 0
M  V30 360 C 33.4533 -3.76671 2.99453 0
M  V30 361 C 35.8053 -3.82178 3.54386 0
M  V30 362 C 33.1333 -3.9522 4.33611 0
M  V30 363 C 35.4853 -4.0224 4.88248 0
M  V30 364 C 34.1493 -4.08259 5.28092 0
M  V30 365 H 33.4193 -0.691739 0.265665 0
M  V30 366 H 36.0663 -1.41328 1.29223 0
M  V30 367 H 34.3713 -3.88903 0.475584 0
M  V30 368 H 36.0683 -3.91536 0.866037 0
M  V30 369 H 32.6583 -3.63433 2.27189 0
M  V30 370 H 36.8423 -3.75505 3.24514 0
M  V30 371 H 32.0983 -3.98119 4.64016 0
M  V30 372 H 36.2723 -4.11468 5.61843 0
M  V30 373 H 33.8993 -4.22384 6.32057 0
M  V30 374 N 35.4744 -0.807222 -1.35358 0
M  V30 375 C 36.7234 -0.384376 -1.98004 0
M  V30 376 C 37.0364 1.0543 -1.64754 0
M  V30 377 O 38.2424 1.58029 -2.20769 0
M  V30 378 C 36.6984 -0.636326 -3.5423 0
M  V30 379 C 36.3064 -2.08759 -3.96388 0
M  V30 380 C 38.0504 -0.278869 -4.23583 0
M  V30 381 C 35.9574 -2.28525 -5.45463 0
M  V30 382 H 34.8874 -0.139986 -0.740891 0
M  V30 383 H 37.5384 -0.991369 -1.54415 0
M  V30 384 H 35.9204 0.0406256 -3.95979 0
M  V30 385 H 37.0944 -2.8024 -3.6579 0
M  V30 386 H 35.4094 -2.40497 -3.39926 0
M  V30 387 H 38.0064 -0.404599 -5.33167 0
M  V30 388 H 38.3494 0.775012 -4.09022 0
M  V30 389 H 38.8824 -0.909764 -3.87257 0
M  V30 390 H 35.6214 -3.32361 -5.64992 0
M  V30 391 H 35.1414 -1.61569 -5.77629 0
M  V30 392 H 36.8204 -2.10109 -6.11934 0
M  V30 393 N 36.9525 1.47285 -0.560781 0
M  V30 394 C 37.8825 2.32857 0.173105 0
M  V30 395 C 38.8635 1.44009 0.905281 0
M  V30 396 O 40.0485 1.7286 0.885046 0
M  V30 397 C 37.1785 3.25861 1.20133 0
M  V30 398 C 36.1325 4.23978 0.585388 0
M  V30 399 C 35.4585 5.06332 1.7185 0
M  V30 400 C 36.7585 5.20242 -0.463178 0
M  V30 401 H 38.4525 2.94466 -0.541307 0
M  V30 402 H 35.9985 1.41601 -0.261764 0
M  V30 403 H 37.9515 3.84569 1.72293 0
M  V30 404 H 36.6755 2.62315 1.94573 0
M  V30 405 H 35.3345 3.66501 0.085054 0
M  V30 406 H 34.9825 4.39186 2.45203 0
M  V30 407 H 34.6825 5.72762 1.31213 0
M  V30 408 H 36.2065 5.67899 2.24329 0
M  V30 409 H 37.6205 5.73293 -0.027502 0
M  V30 410 H 36.0175 5.94896 -0.788627 0
M  V30 411 H 37.0875 4.65504 -1.35773 0
M  V30 412 N 38.4306 0.297415 1.54768 0
M  V30 413 C 39.8416 -0.195947 1.85669 0
M  V30 414 C 40.1926 -1.53707 1.21937 0
M  V30 415 O 39.3176 -2.10164 0.515754 0
M  V30 416 C 39.9126 -0.362318 3.36857 0
M  V30 417 C 38.4716 -0.799901 3.67802 0
M  V30 418 C 37.6186 0.0938578 2.77141 0
M  V30 419 H 40.5696 0.518538 1.4999 0
M  V30 420 H 40.5906 -1.19745 3.61167 0
M  V30 421 H 40.1026 0.613921 3.83214 0
M  V30 422 H 38.2036 -1.78682 3.26961 0
M  V30 423 H 38.3166 -0.621773 4.75048 0
M  V30 424 H 36.6806 -0.426254 2.51108 0
M  V30 425 H 37.4636 1.06639 3.26318 0
M  V30 426 N 39.9087 -1.5758 0.0250728 0
M  V30 427 C 41.1487 -1.93497 -0.65865 0
M  V30 428 C 41.5127 -0.901409 -1.69525 0
M  V30 429 O 42.7137 -1.14664 -2.43116 0
M  V30 430 C 40.9847 -3.34352 -1.26267 0
M  V30 431 S 42.5437 -3.92191 -1.96803 0
M  V30 432 H 39.3617 -0.67709 -0.216958 0
M  V30 433 H 41.9637 -1.95303 0.0877692 0
M  V30 434 H 40.6677 -4.07395 -0.495741 0
M  V30 435 H 40.1987 -3.3598 -2.04648 0
M  V30 436 H 42.2137 -3.75298 -3.24601 0
M  V30 437 N 41.3868 0.248026 -1.55636 0
M  V30 438 C 42.3168 1.31079 -1.93237 0
M  V30 439 C 43.2978 1.50264 -0.797174 0
M  V30 440 O 44.4828 1.62891 -1.05737 0
M  V30 441 C 41.6128 2.66575 -2.22609 0
M  V30 442 C 40.5668 2.62087 -3.3837 0
M  V30 443 C 39.8928 4.01369 -3.53281 0
M  V30 444 C 41.1928 2.19171 -4.7409 0
M  V30 445 H 42.8868 0.998556 -2.82257 0
M  V30 446 H 40.4328 0.47891 -1.35803 0
M  V30 447 H 42.3858 3.41057 -2.47503 0
M  V30 448 H 41.1098 2.99432 -1.30414 0
M  V30 449 H 39.7688 1.90063 -3.13483 0
M  V30 450 H 39.4168 4.31489 -2.58508 0
M  V30 451 H 39.1168 3.99254 -4.31127 0
M  V30 452 H 40.6408 4.77552 -3.80495 0
M  V30 453 H 42.0548 2.83384 -4.98363 0
M  V30 454 H 40.4518 2.2817 -5.5503 0
M  V30 455 H 41.5218 1.14336 -4.71227 0
M  V30 456 N 42.8649 1.48995 0.513639 0
M  V30 457 C 43.7979 1.59319 1.63379 0
M  V30 458 C 44.7759 0.442816 1.56454 0
M  V30 459 O 45.9599 0.656655 1.76693 0
M  V30 460 C 43.0869 1.5364 3.01848 0
M  V30 461 C 42.1329 2.7372 3.27078 0
M  V30 462 S 42.9659 4.35528 3.1157 0
M  V30 463 C 44.1219 4.32473 4.52458 0
M  V30 464 H 44.3549 2.54079 1.54374 0
M  V30 465 H 41.8879 1.3773 0.697849 0
M  V30 466 H 43.8459 1.51049 3.81699 0
M  V30 467 H 42.5069 0.601898 3.08279 0
M  V30 468 H 41.6999 2.6593 4.28132 0
M  V30 469 H 41.3019 2.73657 2.54927 0
M  V30 470 H 43.5939 4.03414 5.44301 0
M  V30 471 H 44.5369 5.33762 4.65299 0
M  V30 472 H 44.9449 3.62718 4.32546 0
M  V30 473 N 44.343 -0.763751 1.37857 0
M  V30 474 C 45.592 -1.51789 1.32827 0
M  V30 475 C 45.905 -1.95426 -0.0823719 0
M  V30 476 O 47.111 -2.70298 -0.255172 0
M  V30 477 C 45.567 -2.74133 2.33193 0
M  V30 478 C 45.175 -2.37562 3.79827 0
M  V30 479 C 46.919 -3.52054 2.37188 0
M  V30 480 C 44.826 -3.56456 4.71904 0
M  V30 481 H 43.756 -0.569896 0.493695 0
M  V30 482 H 46.407 -0.835822 1.63359 0
M  V30 483 H 44.789 -3.4427 1.9569 0
M  V30 484 H 45.963 -1.75157 4.26212 0
M  V30 485 H 44.278 -1.72798 3.78853 0
M  V30 486 H 46.875 -4.40437 3.03182 0
M  V30 487 H 47.218 -3.92486 1.38782 0
M  V30 488 H 47.751 -2.88921 2.7344 0
M  V30 489 H 44.49 -3.21099 5.71468 0
M  V30 490 H 44.01 -4.17938 4.30218 0
M  V30 491 H 45.689 -4.23168 4.89426 0
M  V30 492 N 45.8211 -1.22559 -0.990812 0
M  V30 493 C 47.2321 -1.04791 -1.54518 0
M  V30 494 C 47.5831 0.387998 -1.92325 0
M  V30 495 O 46.7081 1.27328 -1.74976 0
M  V30 496 C 47.3031 -1.896 -2.80779 0
M  V30 497 C 45.8621 -1.76124 -3.32652 0
M  V30 498 C 45.0091 -1.8594 -2.05722 0
M  V30 499 H 47.9601 -1.36374 -0.811662 0
M  V30 500 H 47.9811 -1.41464 -3.53225 0
M  V30 501 H 47.4931 -2.94101 -2.53231 0
M  V30 502 H 45.5941 -0.743643 -3.65104 0
M  V30 503 H 45.7071 -2.58913 -4.03114 0
M  V30 504 H 44.0711 -1.29403 -2.19379 0
M  V30 505 H 44.8541 -2.91976 -1.80568 0
M  V30 506 N 47.2992 1.18797 -1.03562 0
M  V30 507 C 48.5242 1.9314 -0.755764 0
M  V30 508 C 48.9492 1.7537 0.68022 0
M  V30 509 O 48.3072 1.06046 1.47051 0
M  V30 510 C 48.3552 3.42747 -1.12058 0
M  V30 511 O 47.4592 4.11683 -0.243124 0
M  V30 512 H 46.8002 0.602724 -0.278604 0
M  V30 513 H 49.3302 1.50678 -1.3841 0
M  V30 514 H 49.3402 3.93437 -1.08035 0
M  V30 515 H 48.0152 3.55002 -2.16672 0
M  V30 516 H 46.5922 3.71323 -0.342539 0
M  V30 517 N 48.7773 0.814389 1.34928 0
M  V30 518 C 49.7093 0.187834 2.28429 0
M  V30 519 C 50.7223 -0.617374 1.5064 0
M  V30 520 O 51.9113 -0.448454 1.72775 0
M  V30 521 C 49.0113 -0.755962 3.30361 0
M  V30 522 C 48.1843 0.00456686 4.374 0
M  V30 523 C 47.2433 -0.858876 5.19143 0
M  V30 524 O 46.2693 -0.306968 5.68372 0
M  V30 525 N 47.4713 -2.17988 5.38016 0
M  V30 526 H 50.2363 0.991105 2.82838 0
M  V30 527 H 47.7973 0.670561 1.4736 0
M  V30 528 H 49.7893 -1.338 3.81942 0
M  V30 529 H 48.3593 -1.46001 2.7641 0
M  V30 530 H 47.5793 0.767865 3.86649 0
M  V30 531 H 48.8673 0.528422 5.06049 0
M  V30 532 H 48.2653 -2.65212 4.99679 0
M  V30 533 H 46.8223 -2.71098 5.92747 0
M  V30 534 N 50.2554 -1.46986 0.568584 0
M  V30 535 C 51.1884 -2.27129 -0.220779 0
M  V30 536 C 52.1664 -1.34757 -0.909905 0
M  V30 537 O 53.3504 -1.64152 -0.926622 0
M  V30 538 C 50.4774 -3.12108 -1.31553 0
M  V30 539 C 49.5234 -4.20141 -0.733748 0
M  V30 540 S 50.3564 -5.33783 0.428479 0
M  V30 541 C 51.5124 -6.22327 -0.667811 0
M  V30 542 H 51.7454 -2.93731 0.459267 0
M  V30 543 H 49.2784 -1.5026 0.355154 0
M  V30 544 H 51.2364 -3.61636 -1.94241 0
M  V30 545 H 49.8974 -2.44847 -1.96746 0
M  V30 546 H 49.0904 -4.79373 -1.5562 0
M  V30 547 H 48.6924 -3.73553 -0.182812 0
M  V30 548 H 50.9844 -6.59364 -1.55708 0
M  V30 549 H 51.9274 -7.0801 -0.11258 0
M  V30 550 H 52.3354 -5.5618 -0.965601 0
M  V30 551 N 51.7335 -0.305618 -1.54608 0
M  V30 552 C 52.6635 0.561482 -2.26649 0
M  V30 553 C 53.6445 1.13415 -1.26772 0
M  V30 554 O 54.8295 1.16262 -1.55553 0
M  V30 555 C 51.9595 1.73122 -3.01075 0
M  V30 556 C 50.9135 1.2887 -4.08138 0
M  V30 557 C 50.2395 2.54396 -4.70305 0
M  V30 558 C 51.5395 0.416578 -5.20636 0
M  V30 559 H 53.2335 -0.0393902 -2.99374 0
M  V30 560 H 50.7795 -0.020385 -1.43986 0
M  V30 561 H 52.7325 2.34396 -3.50195 0
M  V30 562 H 51.4565 2.3584 -2.25936 0
M  V30 563 H 50.1155 0.698991 -3.59875 0
M  V30 564 H 49.7635 3.15439 -3.918 0
M  V30 565 H 49.4635 2.25486 -5.42614 0
M  V30 566 H 50.9875 3.16464 -5.2219 0
M  V30 567 H 52.4015 0.935116 -5.65622 0
M  V30 568 H 50.7985 0.221046 -5.99693 0
M  V30 569 H 51.8685 -0.557162 -4.81688 0
M  V30 570 N 53.2116 1.57565 -0.0334293 0
M  V30 571 C 54.1416 2.13511 0.945265 0
M  V30 572 C 55.1226 1.05231 1.33643 0
M  V30 573 O 56.3076 1.33084 1.41429 0
M  V30 574 C 53.4376 2.6657 2.22616 0
M  V30 575 C 52.3916 3.79676 1.97561 0
M  V30 576 C 51.7176 4.1918 3.31952 0
M  V30 577 C 53.0176 5.0557 1.31135 0
M  V30 578 H 54.7116 2.95538 0.479325 0
M  V30 579 H 52.2576 1.42166 0.229115 0
M  V30 580 H 54.2106 3.04344 2.91466 0
M  V30 581 H 52.9346 1.8171 2.71384 0
M  V30 582 H 51.5936 3.42347 1.31127 0
M  V30 583 H 51.2416 3.31296 3.78487 0
M  V30 584 H 50.9416 4.95402 3.15992 0
M  V30 585 H 52.4656 4.59541 4.02063 0
M  V30 586 H 53.8796 5.40903 1.89992 0
M  V30 587 H 52.2766 5.86818 1.25559 0
M  V30 588 H 53.3466 4.84062 0.284894 0
M  V30 589 N 54.6897 -0.239769 1.55765 0
M  V30 590 C 55.5997 -1.31831 1.94056 0
M  V30 591 C 56.6157 -1.52275 0.841925 0
M  V30 592 O 57.7917 -1.65759 1.14394 0
M  V30 593 C 54.8567 -2.65156 2.23368 0
M  V30 594 C 53.9177 -2.53173 3.46701 0
M  V30 595 C 53.1507 -3.8014 3.74606 0
M  V30 596 O 53.3737 -4.82343 3.04469 0
M  V30 597 O 52.3077 -3.78344 4.68123 0
M  V30 598 H 56.1337 -1.02347 2.85935 0
M  V30 599 H 53.7187 -0.441123 1.42739 0
M  V30 600 H 55.6007 -3.43929 2.43497 0
M  V30 601 H 54.2757 -2.94358 1.34666 0
M  V30 602 H 53.1827 -1.72662 3.31871 0
M  V30 603 H 54.5157 -2.28915 4.35728 0
M  V30 604 N 56.1678 -1.49265 -0.50573 0
M  V30 605 C 57.1158 -1.66065 -1.62866 0
M  V30 606 C 58.1098 -0.526636 -1.61006 0
M  V30 607 O 59.3158 -0.706126 -1.65571 0
M  V30 608 H 55.6908 -0.52356 -0.539805 0
M  V30 609 H 57.6618 -2.60329 -1.45848 0
M  V30 610 C 56.4108 -1.74008 -3.01026 0
M  V30 611 H 55.7338 -2.6064 -3.03161 0
M  V30 612 H 57.1738 -1.89798 -3.79147 0
M  V30 613 C 55.6328 -0.483868 -3.33407 0
M  V30 614 O 56.1628 0.392548 -3.99777 0
M  V30 615 N 54.3688 -0.348236 -2.88506 0
M  V30 616 H 53.9158 -1.06242 -2.34671 0
M  V30 617 H 53.8738 0.491204 -3.10539 0
M  V30 618 N 57.6459 0.756429 -1.3826 0
M  V30 619 C 58.8929 1.51547 -1.34312 0
M  V30 620 C 59.2209 1.94382 0.0677144 0
M  V30 621 O 58.4759 1.65514 1.04421 0
M  V30 622 C 58.7749 2.78313 -2.24224 0
M  V30 623 C 58.4409 2.54455 -3.72241 0
M  V30 624 C 57.1029 2.47657 -4.12576 0
M  V30 625 C 59.4549 2.3354 -4.65949 0
M  V30 626 C 56.7829 2.17956 -5.44713 0
M  V30 627 C 59.1349 2.05359 -5.9834 0
M  V30 628 C 57.7989 1.97016 -6.37762 0
M  V30 629 H 57.0689 0.55455 -0.491482 0
M  V30 630 H 59.7159 0.870039 -1.70595 0
M  V30 631 H 58.0209 3.47492 -1.80987 0
M  V30 632 H 59.7179 3.36259 -2.18474 0
M  V30 633 H 56.3079 2.60616 -3.40261 0
M  V30 634 H 60.4919 2.37772 -4.35635 0
M  V30 635 H 55.7479 2.10003 -5.74203 0
M  V30 636 H 59.9219 1.88179 -6.70494 0
M  V30 637 H 57.5489 1.73766 -7.40074 0
M  V30 638 N 59.124 1.23083 0.984299 0
M  V30 639 C 60.349 1.088 1.76571 0
M  V30 640 C 60.774 -0.356657 1.84688 0
M  V30 641 O 60.132 -1.25788 1.30565 0
M  V30 642 C 60.18 1.71371 3.17277 0
M  V30 643 O 59.284 0.973213 4.00752 0
M  V30 644 H 58.625 0.381599 0.543395 0
M  V30 645 H 61.155 1.63057 1.23587 0
M  V30 646 H 61.165 1.76449 3.67872 0
M  V30 647 H 59.84 2.76493 3.10684 0
M  V30 648 H 58.417 0.999078 3.59267 0
M  V30 649 N 60.6021 -1.18246 1.0419 0
M  V30 650 C 61.5651 -2.20128 0.638452 0
M  V30 651 C 62.5651 -1.57885 -0.304805 0
M  V30 652 O 63.7551 -1.73967 -0.0900369 0
M  V30 653 C 60.8871 -3.4084 -0.0637751 0
M  V30 654 H 62.0801 -2.57336 1.54007 0
M  V30 655 H 59.6331 -1.32152 0.834598 0
M  V30 656 H 60.3681 -3.09166 -0.979136 0
M  V30 657 H 60.1531 -3.8726 0.614198 0
M  V30 658 H 61.6431 -4.16274 -0.332512 0
M  V30 659 N 62.0802 -0.821533 -1.34494 0
M  V30 660 C 63.0432 -0.247847 -2.27856 0
M  V30 661 C 64.0432 0.573453 -1.50227 0
M  V30 662 O 65.2332 0.389759 -1.69784 0
M  V30 663 C 62.3652 0.652698 -3.34593 0
M  V30 664 H 63.5582 -1.07146 -2.80107 0
M  V30 665 H 61.1112 -0.593291 -1.44602 0
M  V30 666 H 61.8462 1.49943 -2.87555 0
M  V30 667 H 61.6312 0.065292 -3.92046 0
M  V30 668 H 63.1212 1.04793 -4.04238 0
M  V30 669 N 63.5583 1.46682 -0.576371 0
M  V30 670 C 64.8073 2.01619 -0.0572825 0
M  V30 671 C 65.1203 1.45417 1.30818 0
M  V30 672 O 66.3263 1.92133 1.91825 0
M  V30 673 C 64.7823 3.59863 -0.0518371 0
M  V30 674 C 64.3903 4.25059 -1.41523 0
M  V30 675 C 66.1343 4.2248 0.413639 0
M  V30 676 C 64.0413 5.75364 -1.36785 0
M  V30 677 H 62.9713 0.753794 -0.0176448 0
M  V30 678 H 65.6223 1.68481 -0.727076 0
M  V30 679 H 64.0043 3.90048 0.683994 0
M  V30 680 H 65.1783 4.06491 -2.17029 0
M  V30 681 H 63.4933 3.7451 -1.8202 0
M  V30 682 H 66.0903 5.3265 0.467779 0
M  V30 683 H 66.4333 3.90976 1.42982 0
M  V30 684 H 66.9663 3.96897 -0.267929 0
M  V30 685 H 63.7053 6.11518 -2.36063 0
M  V30 686 H 63.2253 5.96214 -0.654895 0
M  V30 687 H 64.9043 6.37955 -1.07805 0
M  V30 688 N 65.0364 0.313813 1.54444 0
M  V30 689 C 66.4474 -0.176243 1.85866 0
M  V30 690 C 66.7984 -1.52405 1.23561 0
M  V30 691 O 65.9234 -2.09605 0.538016 0
M  V30 692 C 66.5184 -0.32657 3.37222 0
M  V30 693 C 65.0774 -0.760846 3.6863 0
M  V30 694 C 64.2244 0.123247 2.77026 0
M  V30 695 H 67.1754 0.534418 1.49431 0
M  V30 696 H 67.1964 -1.15908 3.62416 0
M  V30 697 H 66.7084 0.654531 3.82541 0
M  V30 698 H 64.8094 -1.75204 3.28838 0
M  V30 699 H 64.9224 -0.571353 4.75681 0
M  V30 700 H 63.2864 -0.399597 2.51546 0
M  V30 701 H 64.0694 1.10094 3.25168 0
M  V30 702 N 66.5145 -1.57545 0.0417849 0
M  V30 703 C 67.7625 -1.91937 -0.632829 0
M  V30 704 C 68.0835 -0.919978 -1.71934 0
M  V30 705 O 67.3535 0.0366064 -1.95866 0
M  V30 706 H 65.9335 -0.708493 -0.236742 0
M  V30 707 H 68.5955 -1.9468 0.0925745 0
M  V30 708 H 67.6915 -2.92912 -1.07746 0
M  V30 709 N 67.9926 0.231505 -1.5589 0
M  V30 710 C 68.9426 1.29007 -1.87993 0
M  V30 711 C 69.9266 1.42764 -0.742102 0
M  V30 712 O 71.1186 1.45747 -1.00433 0
M  V30 713 C 68.2476 2.6425 -2.1915 0
M  V30 714 C 67.3336 2.54435 -3.39299 0
M  V30 715 N 67.7246 2.14262 -4.58176 0
M  V30 716 C 66.0226 2.85416 -3.42715 0
M  V30 717 C 66.7236 2.15455 -5.40328 0
M  V30 718 N 65.6996 2.55558 -4.79783 0
M  V30 719 H 69.5016 0.970213 -2.77424 0
M  V30 720 H 67.0156 0.440097 -1.56323 0
M  V30 721 H 69.0126 3.40665 -2.40319 0
M  V30 722 H 67.6726 2.9709 -1.31025 0
M  V30 723 H 68.6836 1.85554 -4.83518 0
M  V30 724 H 65.3606 3.22693 -2.64906 0
M  V30 725 H 66.7506 1.86605 -6.45467 0
M  V30 726 N 69.4707 1.49531 0.497807 0
M  V30 727 C 70.8867 1.36365 0.829266 0
M  V30 728 C 71.0867 0.399184 1.97506 0
M  V30 729 O 70.1427 -0.167977 2.51941 0
M  V30 730 C 71.4557 2.77153 1.16647 0
M  V30 731 C 73.0037 2.85877 1.27449 0
M  V30 732 C 73.4787 4.2744 1.64497 0
M  V30 733 N 74.9697 4.30265 1.7154 0
M  V30 734 C 75.7047 5.3677 2.01656 0
M  V30 735 N 75.2007 6.53516 2.29976 0
M  V30 736 N 76.9937 5.24189 2.02934 0
M  V30 737 H 69.1447 2.10831 -0.257703 0
M  V30 738 H 71.4077 0.946534 -0.0527091 0
M  V30 739 H 71.1137 3.49442 0.397872 0
M  V30 740 H 70.9877 3.12722 2.10915 0
M  V30 741 H 73.3747 2.13824 2.0338 0
M  V30 742 H 73.4557 2.53887 0.312244 0
M  V30 743 H 73.0997 5.00021 0.891151 0
M  V30 744 H 73.0297 4.56896 2.61827 0
M  V30 745 H 75.5207 3.4607 1.51802 0
M  V30 746 H 75.8337 7.30506 2.52153 0
M  V30 747 H 74.1787 6.56737 2.27425 0
M  V30 748 H 77.3697 4.31988 1.80289 0
M  V30 749 H 77.5427 6.07286 2.26071 0
M  V30 750 N 70.9488 -0.749086 1.3866 0
M  V30 751 C 72.1888 -1.52112 1.36534 0
M  V30 752 C 72.5528 -1.91951 -0.0432316 0
M  V30 753 O 73.7538 -2.68132 -0.189396 0
M  V30 754 C 72.0248 -2.73704 2.29828 0
M  V30 755 S 73.5838 -3.63519 2.45763 0
M  V30 756 H 70.4018 -0.520482 0.484375 0
M  V30 757 H 73.0038 -0.878963 1.74627 0
M  V30 758 H 71.7078 -2.42552 3.31054 0
M  V30 759 H 71.2388 -3.4286 1.929 0
M  V30 760 H 73.2538 -4.66712 1.68505 0
M  V30 761 N 72.4269 -1.23603 -0.977757 0
M  V30 762 C 73.6729 -1.08136 -1.72274 0
M  V30 763 C 74.0279 0.377453 -1.88661 0
M  V30 764 O 73.3209 1.27552 -1.42972 0
M  V30 765 C 73.5149 -1.7433 -3.11999 0
M  V30 766 C 73.3439 -3.26498 -3.0924 0
M  V30 767 C 72.1139 -3.9567 -3.14282 0
M  V30 768 C 74.3119 -4.2323 -2.92201 0
M  V30 769 N 72.2939 -5.34799 -3.01436 0
M  V30 770 C 73.6649 -5.49289 -2.87544 0
M  V30 771 C 75.7199 -4.13931 -2.76705 0
M  V30 772 C 74.4229 -6.67116 -2.68978 0
M  V30 773 C 76.4489 -5.31424 -2.59504 0
M  V30 774 C 75.8109 -6.5641 -2.55548 0
M  V30 775 H 71.9099 -0.450247 -0.639376 0
M  V30 776 H 74.4939 -1.5637 -1.16002 0
M  V30 777 H 72.6649 -1.28624 -3.66484 0
M  V30 778 H 74.3969 -1.51815 -3.75146 0
M  V30 779 H 71.1519 -3.46767 -3.22567 0
M  V30 780 H 71.5759 -6.07748 -2.98281 0
M  V30 781 H 76.2179 -3.1807 -2.78552 0
M  V30 782 H 73.9359 -7.63109 -2.65876 0
M  V30 783 H 77.5219 -5.26072 -2.48474 0
M  V30 784 H 76.4019 -7.45795 -2.42405 0
M  V30 785 N 73.905 1.17692 -1.04816 0
M  V30 786 C 75.133 1.91786 -0.776254 0
M  V30 787 C 75.548 1.76604 0.667577 0
M  V30 788 O 74.905 1.10067 1.45573 0
M  V30 789 C 74.956 3.42967 -1.14263 0
M  V30 790 O 74.677 3.57678 -2.52978 0
M  V30 791 C 76.178 4.34144 -0.896311 0
M  V30 792 H 73.398 0.608624 -0.282519 0
M  V30 793 H 75.942 1.49268 -1.39783 0
M  V30 794 H 74.097 3.83245 -0.565874 0
M  V30 795 H 74.511 4.51319 -2.67229 0
M  V30 796 H 75.985 5.38744 -1.20244 0
M  V30 797 H 76.462 4.38876 0.168636 0
M  V30 798 H 77.068 3.99574 -1.45672 0
M  V30 799 N 75.3831 0.828654 1.34056 0
M  V30 800 C 76.3331 0.226828 2.26869 0
M  V30 801 C 77.3171 -0.612243 1.48796 0
M  V30 802 O 78.5091 -0.465884 1.70759 0
M  V30 803 C 75.6381 -0.605654 3.37915 0
M  V30 804 C 74.7241 0.244361 4.23395 0
M  V30 805 N 75.1151 1.31815 4.88322 0
M  V30 806 C 73.4131 0.0296616 4.4599 0
M  V30 807 C 74.1141 1.83895 5.51867 0
M  V30 808 N 73.0901 1.14196 5.3147 0
M  V30 809 H 76.8921 1.04811 2.74576 0
M  V30 810 H 74.4061 0.67205 1.47842 0
M  V30 811 H 76.4031 -1.05302 4.03382 0
M  V30 812 H 75.0631 -1.42504 2.91758 0
M  V30 813 H 76.0741 1.70099 4.8917 0
M  V30 814 H 72.7511 -0.757097 4.10578 0
M  V30 815 H 74.1411 2.7376 6.136 0
M  V30 816 N 76.8612 -1.46375 0.584142 0
M  V30 817 C 77.7942 -2.27351 -0.196676 0
M  V30 818 C 78.7722 -1.35715 -0.895561 0
M  V30 819 O 79.9562 -1.65126 -0.90916 0
M  V30 820 C 77.0832 -3.13486 -1.28235 0
M  V30 821 C 76.1292 -4.20896 -0.689145 0
M  V30 822 S 76.9622 -5.33299 0.48507 0
M  V30 823 C 78.1182 -6.23 -0.601767 0
M  V30 824 H 78.3512 -2.93228 0.490395 0
M  V30 825 H 75.8842 -1.49875 0.371071 0
M  V30 826 H 77.8422 -3.63676 -1.90395 0
M  V30 827 H 76.5032 -2.4692 -1.94138 0
M  V30 828 H 75.6962 -4.80997 -1.50527 0
M  V30 829 H 75.2982 -3.73726 -0.143181 0
M  V30 830 H 77.5902 -6.60979 -1.48705 0
M  V30 831 H 78.5332 -7.0809 -0.0374799 0
M  V30 832 H 78.9412 -5.57173 -0.906557 0
M  V30 833 N 78.3393 -0.321999 -1.54275 0
M  V30 834 C 79.2693 0.537411 -2.27231 0
M  V30 835 C 80.2503 1.12064 -1.27968 0
M  V30 836 O 81.4353 1.14606 -1.56777 0
M  V30 837 C 78.5653 1.69919 -3.02894 0
M  V30 838 C 77.5193 1.24534 -4.09482 0
M  V30 839 C 76.8453 2.49394 -4.72977 0
M  V30 840 C 78.1453 0.361335 -5.21049 0
M  V30 841 H 79.8393 -0.0711406 -2.99315 0
M  V30 842 H 77.3853 -0.0356555 -1.43956 0
M  V30 843 H 79.3383 2.30668 -3.52662 0
M  V30 844 H 78.0623 2.33431 -2.28424 0
M  V30 845 H 76.7213 0.660782 -3.60596 0
M  V30 846 H 76.3693 3.11265 -3.95124 0
M  V30 847 H 76.0693 2.19718 -5.44975 0
M  V30 848 H 77.5933 3.10908 -5.25517 0
M  V30 849 H 79.0073 0.875072 -5.66582 0
M  V30 850 H 77.4043 0.157428 -5.99893 0
M  V30 851 H 78.4743 -0.60822 -4.8107 0
M  V30 852 N 79.8174 1.5752 -0.0501392 0
M  V30 853 C 81.0944 1.83996 0.663685 0
M  V30 854 C 81.4744 0.938339 1.89099 0
M  V30 855 O 80.8224 -0.00087759 2.285 0
M  V30 856 C 81.0324 3.33702 1.02196 0
M  V30 857 C 82.3804 4.00691 1.40469 0
M  V30 858 O 83.4044 3.38321 1.11433 0
M  V30 859 O 82.2634 5.10658 1.94654 0
M  V30 860 H 79.3574 0.759385 0.32751 0
M  V30 861 H 81.9034 1.69514 -0.0794238 0
M  V30 862 H 80.6754 3.91015 0.149364 0
M  V30 863 H 80.2984 3.53368 1.82255 0
M  V30 864 N 81.2955 -0.223234 1.56011 0
M  V30 865 C 82.2435 -1.29627 1.93131 0
M  V30 866 C 83.2375 -1.48608 0.813146 0
M  V30 867 O 84.4435 -1.49802 0.997966 0
M  V30 868 H 80.8185 -0.434563 0.613726 0
M  V30 869 H 82.7895 -0.955995 2.82672 0
M  V30 870 C 81.5385 -2.63983 2.26292 0
M  V30 871 H 80.8615 -2.50185 3.11846 0
M  V30 872 H 82.3015 -3.3788 2.56151 0
M  V30 873 C 80.7605 -3.18866 1.08747 0
M  V30 874 O 81.2905 -4.00192 0.347727 0
M  V30 875 N 79.4965 -2.77217 0.871743 0
M  V30 876 H 79.0435 -2.1119 1.47501 0
M  V30 877 H 79.0015 -3.1428 0.0869905 0
M  V30 878 N 82.7736 -1.49793 -0.48987 0
M  V30 879 C 84.0216 -1.59525 -1.24081 0
M  V30 880 C 84.3426 -0.288953 -1.92847 0
M  V30 881 O 83.6126 0.692436 -1.83254 0
M  V30 882 H 82.1926 -0.587796 -0.460983 0
M  V30 883 H 84.8546 -1.86477 -0.566778 0
M  V30 884 H 83.9506 -2.39696 -1.99881 0
M  V30 885 N 84.2517 0.741722 -1.39055 0
M  V30 886 C 85.4767 1.53607 -1.39354 0
M  V30 887 C 85.9017 1.88096 0.0116905 0
M  V30 888 O 85.2597 1.5143 0.996924 0
M  V30 889 C 85.3077 2.80441 -2.26682 0
M  V30 890 O 84.4117 3.76088 -1.69208 0
M  V30 891 H 83.7527 0.464142 -0.474835 0
M  V30 892 H 86.2827 0.915665 -1.82967 0
M  V30 893 H 86.2927 3.29246 -2.40959 0
M  V30 894 H 84.9677 2.5467 -3.2881 0
M  V30 895 H 83.5447 3.34833 -1.64138 0
M  V30 896 N 85.7298 1.2412 0.971189 0
M  V30 897 C 86.6928 1.03156 2.04674 0
M  V30 898 C 87.6928 -0.00990322 1.60797 0
M  V30 899 O 88.8828 0.230729 1.72665 0
M  V30 900 C 86.0148 0.562765 3.36223 0
M  V30 901 H 87.2078 1.98614 2.24705 0
M  V30 902 H 84.7608 1.06293 1.14593 0
M  V30 903 H 85.4958 -0.395176 3.21883 0
M  V30 904 H 85.2808 1.31441 3.69413 0
M  V30 905 H 86.7708 0.437015 4.15307 0
M  V30 906 N 87.2079 -1.17134 1.05439 0
M  V30 907 C 88.4539 -1.87733 0.767077 0
M  V30 908 C 88.7869 -1.8098 -0.704253 0
M  V30 909 O 88.0619 -1.21951 -1.5152 0
M  V30 910 C 88.3449 -3.37659 1.25133 0
M  V30 911 C 88.1979 -3.53149 2.78578 0
M  V30 912 C 89.5169 -4.31768 0.852324 0
M  V30 913 H 86.6359 -0.681687 0.280129 0
M  V30 914 H 89.2779 -1.37732 1.30881 0
M  V30 915 H 87.4279 -3.80373 0.790469 0
M  V30 916 H 89.0999 -3.19434 3.32806 0
M  V30 917 H 87.3429 -2.95345 3.17732 0
M  V30 918 H 88.0139 -4.58403 3.07523 0
M  V30 919 H 90.4899 -3.96909 1.24911 0
M  V30 920 H 89.3659 -5.35199 1.21873 0
M  V30 921 H 89.6269 -4.41429 -0.243485 0
M  V30 922 N 88.686 -0.835752 -1.33615 0
M  V30 923 C 89.911 -0.442389 -2.02627 0
M  V30 924 C 90.336 0.947735 -1.62479 0
M  V30 925 O 89.694 1.61907 -0.815826 0
M  V30 926 C 89.742 -0.567216 -3.56111 0
M  V30 927 O 88.846 0.407799 -4.10379 0
M  V30 928 H 88.187 -0.180278 -0.639059 0
M  V30 929 H 90.717 -1.12972 -1.70583 0
M  V30 930 H 90.727 -0.447708 -4.05536 0
M  V30 931 H 89.402 -1.58103 -3.84677 0
M  V30 932 H 87.979 0.246107 -3.72087 0
M  V30 933 N 90.1641 1.46063 -0.591896 0
M  V30 934 C 91.3921 2.06717 -0.0868936 0
M  V30 935 C 91.8071 1.43916 1.22203 0
M  V30 936 O 91.1641 0.547698 1.74088 0
M  V30 937 C 91.2151 3.6142 0.0758725 0
M  V30 938 O 90.9361 4.21874 -1.18126 0
M  V30 939 C 92.4371 4.39025 0.61416 0
M  V30 940 H 89.6571 0.668162 -0.0616518 0
M  V30 941 H 92.2011 1.8755 -0.815175 0
M  V30 942 H 90.3561 3.79983 0.754413 0
M  V30 943 H 90.7701 5.14861 -1.00092 0
M  V30 944 H 92.2441 5.4783 0.677193 0
M  V30 945 H 92.7211 4.07708 1.63312 0
M  V30 946 H 93.3271 4.2529 -0.0298142 0
M  V30 947 N 91.6422 0.330177 1.54103 0
M  V30 948 C 92.5902 -0.548226 2.26047 0
M  V30 949 C 93.5842 -1.11309 1.27698 0
M  V30 950 O 94.7902 -1.06036 1.45452 0
M  V30 951 H 91.1652 -0.195456 0.726155 0
M  V30 952 H 93.1362 0.0807567 2.98291 0
M  V30 953 C 91.8852 -1.69415 3.03634 0
M  V30 954 H 91.2082 -1.26876 3.79134 0
M  V30 955 H 92.6482 -2.28423 3.5721 0
M  V30 956 C 91.1072 -2.61569 2.12328 0
M  V30 957 O 91.6372 -3.63462 1.7105 0
M  V30 958 N 89.8432 -2.29952 1.77681 0
M  V30 959 H 89.3902 -1.47134 2.11446 0
M  V30 960 H 89.3482 -2.91871 1.16869 0
M  V30 961 N 93.1203 -1.57491 0.0584922 0
M  V30 962 C 94.0533 -2.07533 -0.948969 0
M  V30 963 C 95.0313 -0.977444 -1.29942 0
M  V30 964 O 96.2153 -1.2499 -1.41102 0
M  V30 965 C 93.3423 -2.52192 -2.2609 0
M  V30 966 C 92.3883 -3.73287 -2.06298 0
M  V30 967 S 93.2213 -5.18603 -1.33459 0
M  V30 968 C 94.3773 -5.66583 -2.65959 0
M  V30 969 H 94.6103 -2.92662 -0.523118 0
M  V30 970 H 92.1433 -1.53631 -0.153954 0
M  V30 971 H 94.1013 -2.78585 -3.01498 0
M  V30 972 H 92.7623 -1.67356 -2.65802 0
M  V30 973 H 91.9553 -4.0248 -3.03357 0
M  V30 974 H 91.5573 -3.47199 -1.39029 0
M  V30 975 H 93.8493 -5.72616 -3.62101 0
M  V30 976 H 94.7923 -6.65684 -2.41393 0
M  V30 977 H 95.2003 -4.94342 -2.72554 0
M  V30 978 N 94.5984 0.214957 -1.56127 0
M  V30 979 C 95.8264 0.955092 -1.83536 0
M  V30 980 C 96.2414 1.77677 -0.638472 0
M  V30 981 O 95.5984 1.78219 0.392968 0
M  V30 982 C 95.6494 1.86734 -3.09536 0
M  V30 983 O 95.3704 1.07887 -4.24608 0
M  V30 984 C 96.8714 2.72082 -3.4998 0
M  V30 985 H 94.0914 0.279611 -0.609966 0
M  V30 986 H 96.6354 0.228197 -2.03223 0
M  V30 987 H 94.7904 2.5481 -2.91806 0
M  V30 988 H 95.2044 1.69872 -4.9623 0
M  V30 989 H 96.6784 3.31782 -4.41163 0
M  V30 990 H 97.1554 3.44806 -2.7204 0
M  V30 991 H 97.7614 2.09409 -3.70173 0
M  V30 992 N 96.0765 1.50051 0.48192 0
M  V30 993 C 97.4875 1.5348 1.06305 0
M  V30 994 C 97.8385 0.331997 1.93371 0
M  V30 995 O 96.9635 -0.556256 2.09129 0
M  V30 996 C 97.5585 2.7813 1.93466 0
M  V30 997 C 96.1175 2.84275 2.46707 0
M  V30 998 C 95.2645 2.47637 1.24785 0
M  V30 999 H 98.2155 1.56472 0.264995 0
M  V30 1000 H 98.2365 2.59372 2.78399 0
M  V30 1001 H 97.7485 3.65654 1.30072 0
M  V30 1002 H 95.8495 2.01077 3.13686 0
M  V30 1003 H 95.9625 3.8691 2.82555 0
M  V30 1004 H 94.3265 1.99835 1.57918 0
M  V30 1005 H 95.1095 3.37457 0.630694 0
M  V30 1006 N 97.5546 -0.734337 1.39446 0
M  V30 1007 C 98.5016 -1.84835 1.38219 0
M  V30 1008 C 99.4716 -1.64331 0.24179 0
M  V30 1009 O 100.657 -1.85728 0.437002 0
M  V30 1010 C 97.7966 -3.22355 1.23212 0
M  V30 1011 C 96.9096 -3.5456 2.46801 0
M  V30 1012 C 96.0446 -4.81485 2.24377 0
M  V30 1013 C 95.0836 -5.06536 3.43639 0
M  V30 1014 N 94.2206 -6.24665 3.20528 0
M  V30 1015 H 99.0606 -1.85219 2.33448 0
M  V30 1016 H 96.5976 -0.905039 1.15963 0
M  V30 1017 H 98.5556 -4.0174 1.12522 0
M  V30 1018 H 97.1856 -3.21248 0.316121 0
M  V30 1019 H 96.2376 -2.69872 2.68092 0
M  V30 1020 H 97.5496 -3.6899 3.3563 0
M  V30 1021 H 96.7036 -5.68852 2.10933 0
M  V30 1022 H 95.4426 -4.6923 1.32944 0
M  V30 1023 H 94.4476 -4.17632 3.5758 0
M  V30 1024 H 95.6726 -5.20676 4.35974 0
M  V30 1025 H 93.6186 -6.13696 2.3176 0
M  V30 1026 H 93.5356 -6.39685 4.02913 0
M  V30 1027 H 94.8036 -7.14868 3.10779 0
M  V30 1028 N 99.0327 -1.24633 -0.964593 0
M  V30 1029 C 99.9957 -1.0424 -2.04124 0
M  V30 1030 C 100.996 0.00137563 -1.608 0
M  V30 1031 O 102.186 -0.239883 -1.7254 0
M  V30 1032 C 99.3177 -0.580588 -3.3592 0
M  V30 1033 H 100.511 -1.99803 -2.23649 0
M  V30 1034 H 98.0637 -1.06899 -1.14027 0
M  V30 1035 H 98.7987 0.3781 -3.22088 0
M  V30 1036 H 98.5837 -1.33398 -3.6871 0
M  V30 1037 H 100.074 -0.459034 -4.15069 0
M  V30 1038 N 100.511 1.16574 -1.06058 0
M  V30 1039 C 101.441 2.23057 -0.690488 0
M  V30 1040 C 102.422 1.67141 0.315901 0
M  V30 1041 O 103.607 1.93253 0.191556 0
M  V30 1042 C 100.737 3.47222 -0.073625 0
M  V30 1043 C 99.6908 4.16016 -1.00573 0
M  V30 1044 C 99.0168 5.34104 -0.252289 0
M  V30 1045 C 100.317 4.67264 -2.33371 0
M  V30 1046 H 102.011 2.54271 -1.58072 0
M  V30 1047 H 99.5568 1.22218 -0.76149 0
M  V30 1048 H 101.51 4.20939 0.19714 0
M  V30 1049 H 100.234 3.15302 0.85161 0
M  V30 1050 H 98.8928 3.44223 -1.2612 0
M  V30 1051 H 98.5408 4.98437 0.675988 0
M  V30 1052 H 98.2408 5.81072 -0.873455 0
M  V30 1053 H 99.7648 6.10599 0.0109857 0
M  V30 1054 H 101.179 5.32573 -2.12223 0
M  V30 1055 H 99.5758 5.24843 -2.90963 0
M  V30 1056 H 100.646 3.83602 -2.96611 0
M  V30 1057 N 101.989 0.842826 1.3317 0
M  V30 1058 C 102.919 0.294028 2.31641 0
M  V30 1059 C 103.9 -0.600401 1.59151 0
M  V30 1060 O 105.085 -0.523124 1.87022 0
M  V30 1061 C 102.215 -0.528416 3.43257 0
M  V30 1062 C 101.169 0.27056 4.27144 0
M  V30 1063 C 100.495 -0.675881 5.30411 0
M  V30 1064 C 101.795 1.48981 5.00602 0
M  V30 1065 H 103.489 1.11681 2.77791 0
M  V30 1066 H 101.035 0.538478 1.33553 0
M  V30 1067 H 102.988 -0.922674 4.11175 0
M  V30 1068 H 101.712 -1.38445 2.95805 0
M  V30 1069 H 100.371 0.646427 3.60856 0
M  V30 1070 H 100.019 -1.52842 4.79216 0
M  V30 1071 H 99.7189 -0.145374 5.8742 0
M  V30 1072 H 101.243 -1.06757 6.01195 0
M  V30 1073 H 102.657 1.16849 5.61266 0
M  V30 1074 H 101.054 1.95739 5.6728 0
M  V30 1075 H 102.124 2.25746 4.29147 0
M  V30 1076 N 103.467 -1.45747 0.599634 0
M  V30 1077 C 104.695 -2.06668 0.0978551 0
M  V30 1078 C 105.11 -1.44562 -1.21439 0
M  V30 1079 O 104.467 -0.556923 -1.73795 0
M  V30 1080 C 104.518 -3.61456 -0.0567044 0
M  V30 1081 O 104.239 -4.21242 1.20361 0
M  V30 1082 C 105.74 -4.39345 -0.590869 0
M  V30 1083 H 102.96 -0.667825 0.0651943 0
M  V30 1084 H 105.504 -1.87115 0.82511 0
M  V30 1085 H 103.659 -3.80378 -0.734251 0
M  V30 1086 H 104.073 -5.14323 1.02821 0
M  V30 1087 H 105.547 -5.48182 -0.648131 0
M  V30 1088 H 106.024 -4.08568 -1.61147 0
M  V30 1089 H 106.63 -4.25268 0.0523679 0
M  V30 1090 N 104.945 -0.338344 -1.53925 0
M  V30 1091 C 106.194 0.260732 -2.00008 0
M  V30 1092 C 106.507 1.52073 -1.23017 0
M  V30 1093 O 107.713 2.19672 -1.5955 0
M  V30 1094 C 106.169 0.51515 -3.56194 0
M  V30 1095 C 105.777 -0.728645 -4.42035 0
M  V30 1096 C 107.521 1.07337 -4.10706 0
M  V30 1097 C 105.428 -0.445315 -5.89721 0
M  V30 1098 H 104.358 0.101205 -0.747177 0
M  V30 1099 H 107.009 -0.452866 -1.77824 0
M  V30 1100 H 105.391 1.28932 -3.74423 0
M  V30 1101 H 106.565 -1.50352 -4.35581 0
M  V30 1102 H 104.88 -1.20813 -3.98489 0
M  V30 1103 H 107.477 1.30022 -5.18651 0
M  V30 1104 H 107.82 2.0273 -3.63602 0
M  V30 1105 H 108.353 0.360034 -3.96167 0
M  V30 1106 H 105.092 -1.36883 -6.41049 0
M  V30 1107 H 104.612 0.291569 -5.99091 0
M  V30 1108 H 106.291 -0.0606218 -6.46972 0
M  V30 1109 N 106.423 1.57458 -0.0668435 0
M  V30 1110 C 107.648 1.9804 0.616027 0
M  V30 1111 C 108.073 0.944771 1.62652 0
M  V30 1112 O 107.431 -0.0902094 1.81075 0
M  V30 1113 C 107.479 3.37665 1.26549 0
M  V30 1114 O 106.583 3.36701 2.38131 0
M  V30 1115 H 105.924 0.644719 0.158849 0
M  V30 1116 H 108.454 2.04121 -0.139891 0
M  V30 1117 H 108.464 3.7474 1.6135 0
M  V30 1118 H 107.139 4.12573 0.525016 0
M  V30 1119 H 105.716 3.1139 2.0516 0
M  V30 1120 N 107.901 -0.206675 1.56239 0
M  V30 1121 C 109.15 -0.926964 1.79138 0
M  V30 1122 C 109.463 -1.84901 0.638043 0
M  V30 1123 O 110.669 -2.60906 0.751033 0
M  V30 1124 C 109.125 -1.6986 3.17294 0
M  V30 1125 C 108.733 -0.821956 4.40395 0
M  V30 1126 C 110.477 -2.40922 3.4951 0
M  V30 1127 C 108.384 -1.59179 5.69575 0
M  V30 1128 H 107.314 -0.349864 0.667915 0
M  V30 1129 H 109.965 -0.180487 1.8261 0
M  V30 1130 H 108.347 -2.48853 3.08039 0
M  V30 1131 H 109.521 -0.0715019 4.60745 0
M  V30 1132 H 107.836 -0.222741 4.15804 0
M  V30 1133 H 110.433 -2.99047 4.43255 0
M  V30 1134 H 110.776 -3.14542 2.72707 0
M  V30 1135 H 111.309 -1.68905 3.60161 0
M  V30 1136 H 108.048 -0.898589 6.49312 0
M  V30 1137 H 107.568 -2.31648 5.53262 0
M  V30 1138 H 109.247 -2.14862 6.10281 0
M  V30 1139 N 109.379 -1.50304 -0.473955 0
M  V30 1140 C 110.79 -1.54042 -1.0549 0
M  V30 1141 C 111.141 -0.342248 -1.93192 0
M  V30 1142 O 110.266 0.545157 -2.09421 0
M  V30 1143 C 110.861 -2.79152 -1.91989 0
M  V30 1144 C 109.42 -2.8558 -2.45196 0
M  V30 1145 C 108.567 -2.48295 -1.2347 0
M  V30 1146 H 111.518 -1.5661 -0.256693 0
M  V30 1147 H 111.539 -2.60845 -2.7702 0
M  V30 1148 H 111.051 -3.66339 -1.28131 0
M  V30 1149 H 109.152 -2.02738 -3.12615 0
M  V30 1150 H 109.265 -3.88403 -2.80499 0
M  V30 1151 H 107.629 -2.00669 -1.56856 0
M  V30 1152 H 108.412 -3.37787 -0.612789 0
M  V30 1153 N 110.857 0.726932 -1.39834 0
M  V30 1154 C 112.268 1.30558 -1.3346 0
M  V30 1155 C 112.619 1.962 -0.00273003 0
M  V30 1156 O 111.744 1.96826 0.899371 0
M  V30 1157 C 112.339 2.37404 -2.41713 0
M  V30 1158 C 110.898 2.90921 -2.38835 0
M  V30 1159 C 110.045 1.64578 -2.2318 0
M  V30 1160 H 112.996 0.523862 -1.49804 0
M  V30 1161 H 113.017 3.17984 -2.08966 0
M  V30 1162 H 112.529 1.89599 -3.38635 0
M  V30 1163 H 110.63 3.42985 -1.45575 0
M  V30 1164 H 110.743 3.43487 -3.33997 0
M  V30 1165 H 109.107 1.89219 -1.70494 0
M  V30 1166 H 109.89 1.18814 -3.22084 0
M  V30 1167 N 112.336 1.25143 0.95797 0
M  V30 1168 C 113.584 1.09476 1.69881 0
M  V30 1169 C 113.905 -0.365502 1.91544 0
M  V30 1170 O 113.175 -1.25985 1.50015 0
M  V30 1171 H 111.755 0.402128 0.629525 0
M  V30 1172 H 114.417 1.57214 1.15194 0
M  V30 1173 H 113.513 1.60046 2.6794 0
M  V30 1174 N 113.814 -1.1601 1.06675 0
M  V30 1175 C 115.225 -1.68235 0.809565 0
M  V30 1176 C 115.576 -1.8454 -0.666303 0
M  V30 1177 O 114.701 -1.54374 -1.5165 0
M  V30 1178 C 115.296 -3.05585 1.46299 0
M  V30 1179 C 113.855 -3.54915 1.25349 0
M  V30 1180 C 113.002 -2.30804 1.53703 0
M  V30 1181 H 115.953 -1.00318 1.22971 0
M  V30 1182 H 115.974 -3.70174 0.880431 0
M  V30 1183 H 115.486 -2.93686 2.53713 0
M  V30 1184 H 113.587 -3.72067 0.199261 0
M  V30 1185 H 113.7 -4.36774 1.9689 0
M  V30 1186 H 112.064 -2.36007 0.957739 0
M  V30 1187 H 112.847 -2.21499 2.62284 0
M  V30 1188 N 115.292 -0.849877 -1.32721 0
M  V30 1189 C 116.24 -0.279745 -2.30912 0
M  V30 1190 C 117.234 0.594278 -1.58634 0
M  V30 1191 O 118.44 0.482613 -1.73409 0
M  V30 1192 H 114.815 -0.0717521 -0.748569 0
M  V30 1193 H 116.786 -1.12222 -2.76494 0
M  V30 1194 C 115.535 0.521108 -3.43773 0
M  V30 1195 H 114.858 -0.142141 -3.99547 0
M  V30 1196 H 116.298 0.885693 -4.14646 0
M  V30 1197 C 114.757 1.70442 -2.90605 0
M  V30 1198 O 115.287 2.8034 -2.87702 0
M  V30 1199 N 113.493 1.52991 -2.47067 0
M  V30 1200 H 113.04 0.635914 -2.49628 0
M  V30 1201 H 112.998 2.32311 -2.11847 0
M  V30 1202 N 116.77 1.45427 -0.607355 0
M  V30 1203 C 117.702 2.2871 0.149752 0
M  V30 1204 C 118.715 1.39937 0.831958 0
M  V30 1205 O 119.904 1.64313 0.697385 0
M  V30 1206 C 117.004 3.15673 1.23304 0
M  V30 1207 C 116.177 4.32722 0.637996 0
M  V30 1208 C 115.236 5.00895 1.61215 0
M  V30 1209 O 114.262 5.57697 1.13854 0
M  V30 1210 N 115.464 5.00159 2.94655 0
M  V30 1211 H 118.229 2.94328 -0.564882 0
M  V30 1212 H 115.79 1.55612 -0.446823 0
M  V30 1213 H 117.782 3.58144 1.88454 0
M  V30 1214 H 116.352 2.51965 1.8502 0
M  V30 1215 H 115.572 3.93734 -0.191572 0
M  V30 1216 H 116.86 5.08321 0.220665 0
M  V30 1217 H 116.258 4.553 3.35735 0
M  V30 1218 H 114.815 5.46495 3.55228 0
M  V30 1219 N 118.248 0.346503 1.53744 0
M  V30 1220 C 119.496 -0.248612 2.00565 0
M  V30 1221 C 119.817 -1.5083 1.23593 0
M  V30 1222 O 119.087 -1.92858 0.343912 0
M  V30 1223 H 117.667 -0.0948564 0.740953 0
M  V30 1224 H 120.329 0.468341 1.89189 0
M  V30 1225 H 119.425 -0.488994 3.08245 0
M  V30 1226 N 119.726 -1.57421 0.075193 0
M  V30 1227 C 121.137 -1.81021 -0.456964 0
M  V30 1228 C 121.488 -0.98936 -1.69429 0
M  V30 1229 O 120.613 -0.212865 -2.15351 0
M  V30 1230 C 121.208 -3.28329 -0.83581 0
M  V30 1231 C 119.767 -3.52764 -1.31281 0
M  V30 1232 C 118.914 -2.75676 -0.299648 0
M  V30 1233 H 121.865 -1.55822 0.300856 0
M  V30 1234 H 121.886 -3.40564 -1.69696 0
M  V30 1235 H 121.398 -3.88046 0.0649238 0
M  V30 1236 H 119.499 -2.98355 -2.23193 0
M  V30 1237 H 119.612 -4.61451 -1.28839 0
M  V30 1238 H 117.976 -2.42538 -0.777641 0
M  V30 1239 H 118.759 -3.38132 0.593417 0
M  V30 1240 N 121.204 0.198386 -1.56346 0
M  V30 1241 C 122.154 1.2499 -1.90687 0
M  V30 1242 C 123.138 1.41158 -0.772217 0
M  V30 1243 O 124.33 1.43584 -1.03502 0
M  V30 1244 C 121.459 2.59542 -2.24706 0
M  V30 1245 C 120.545 2.47181 -3.44619 0
M  V30 1246 N 120.936 2.04495 -4.62618 0
M  V30 1247 C 119.234 2.78082 -3.48692 0
M  V30 1248 C 119.935 2.03945 -5.44776 0
M  V30 1249 N 118.911 2.45323 -4.85095 0
M  V30 1250 H 122.713 0.911149 -2.7942 0
M  V30 1251 H 120.227 0.40684 -1.57221 0
M  V30 1252 H 122.224 3.3549 -2.47491 0
M  V30 1253 H 120.884 2.94244 -1.37298 0
M  V30 1254 H 121.895 1.75256 -4.87345 0
M  V30 1255 H 118.572 3.17002 -2.71691 0
M  V30 1256 H 119.962 1.72872 -6.4928 0
M  V30 1257 N 122.682 1.50554 0.465978 0
M  V30 1258 C 123.614 1.65949 1.58093 0
M  V30 1259 C 124.627 0.540827 1.53554 0
M  V30 1260 O 125.816 0.814187 1.5885 0
M  V30 1261 C 122.916 1.63261 2.96983 0
M  V30 1262 C 122.089 2.91245 3.26336 0
M  V30 1263 C 121.148 2.8113 4.44806 0
M  V30 1264 O 120.174 3.55086 4.44862 0
M  V30 1265 N 121.376 1.95032 5.46756 0
M  V30 1266 H 124.141 2.62122 1.45301 0
M  V30 1267 H 121.702 1.48082 0.65448 0
M  V30 1268 H 123.694 1.54101 3.74212 0
M  V30 1269 H 122.264 0.748032 3.03518 0
M  V30 1270 H 121.484 3.14493 2.37672 0
M  V30 1271 H 122.772 3.76022 3.42761 0
M  V30 1272 H 122.17 1.3427 5.49534 0
M  V30 1273 H 120.727 1.91772 6.2295 0
M  V30 1274 N 124.16 -0.719506 1.40217 0
M  V30 1275 C 125.4 -1.49181 1.39729 0
M  V30 1276 C 125.764 -1.92 -0.00250614 0
M  V30 1277 O 126.965 -2.68473 -0.132479 0
M  V30 1278 C 125.236 -2.68767 2.35582 0
M  V30 1279 S 126.795 -3.58224 2.53418 0
M  V30 1280 H 123.613 -0.510091 0.495307 0
M  V30 1281 H 126.215 -0.841724 1.76452 0
M  V30 1282 H 124.919 -2.35475 3.36124 0
M  V30 1283 H 124.45 -3.38691 2.0013 0
M  V30 1284 H 126.465 -4.63033 1.78367 0
M  V30 1285 N 125.638 -1.25649 -0.95132 0
M  V30 1286 C 127.054 -1.02542 -1.223 0
M  V30 1287 C 127.254 0.255715 -1.99871 0
M  V30 1288 O 126.31 0.967558 -2.33226 0
M  V30 1289 C 127.623 -2.25065 -1.99415 0
M  V30 1290 C 129.171 -2.29861 -2.12446 0
M  V30 1291 C 129.646 -3.52048 -2.92961 0
M  V30 1292 N 131.137 -3.52465 -3.00538 0
M  V30 1293 C 131.872 -4.43672 -3.63239 0
M  V30 1294 N 131.368 -5.45157 -4.27523 0
M  V30 1295 N 133.161 -4.31346 -3.60412 0
M  V30 1296 H 125.312 -2.07951 -0.432471 0
M  V30 1297 H 127.575 -0.91339 -0.253816 0
M  V30 1298 H 127.281 -3.18194 -1.49817 0
M  V30 1299 H 127.155 -2.28502 -3.00111 0
M  V30 1300 H 129.542 -1.37252 -2.61239 0
M  V30 1301 H 129.623 -2.3044 -1.11044 0
M  V30 1302 H 129.267 -4.44981 -2.44856 0
M  V30 1303 H 129.197 -3.48715 -3.94596 0
M  V30 1304 H 131.688 -2.79056 -2.54826 0
M  V30 1305 H 132.001 -6.10958 -4.73234 0
M  V30 1306 H 130.346 -5.49025 -4.26141 0
M  V30 1307 H 133.537 -3.51288 -3.09377 0
M  V30 1308 H 133.71 -5.02624 -4.0899 0
M  V30 1309 N 127.117 1.15442 -1.07289 0
M  V30 1310 C 128.533 1.38201 -0.798288 0
M  V30 1311 C 128.733 1.92429 0.597769 0
M  V30 1312 O 127.789 2.12962 1.3566 0
M  V30 1313 C 129.102 2.35357 -1.87156 0
M  V30 1314 C 130.65 2.49021 -1.89624 0
M  V30 1315 C 131.125 3.49468 -2.96034 0
M  V30 1316 N 132.616 3.57003 -2.95132 0
M  V30 1317 C 133.351 4.34543 -3.74112 0
M  V30 1318 N 132.847 5.15421 -4.6294 0
M  V30 1319 N 134.64 4.29625 -3.62462 0
M  V30 1320 H 126.791 0.78584 -1.97328 0
M  V30 1321 H 129.054 0.408065 -0.855679 0
M  V30 1322 H 128.76 2.02626 -2.87464 0
M  V30 1323 H 128.634 3.35129 -1.73114 0
M  V30 1324 H 131.021 2.81051 -0.899687 0
M  V30 1325 H 131.102 1.4925 -2.07745 0
M  V30 1326 H 130.746 3.18173 -3.95889 0
M  V30 1327 H 130.676 4.48992 -2.75161 0
M  V30 1328 H 133.167 2.99276 -2.30743 0
M  V30 1329 H 133.48 5.7183 -5.19837 0
M  V30 1330 H 131.825 5.14729 -4.66989 0
M  V30 1331 H 135.016 3.65505 -2.92444 0
M  V30 1332 H 135.189 4.89807 -4.24256 0
M  V30 1333 N 128.595 0.856903 1.32268 0
M  V30 1334 C 129.842 0.461386 1.97174 0
M  V30 1335 C 130.17 -0.983491 1.67803 0
M  V30 1336 O 129.425 -1.70541 0.959903 0
M  V30 1337 C 129.724 0.649919 3.51441 0
M  V30 1338 C 129.39 2.0656 4.00804 0
M  V30 1339 C 128.052 2.45279 4.13995 0
M  V30 1340 C 130.404 2.98947 4.26943 0
M  V30 1341 C 127.732 3.75653 4.50668 0
M  V30 1342 C 130.084 4.28822 4.65075 0
M  V30 1343 C 128.748 4.67472 4.76472 0
M  V30 1344 H 128.018 0.168833 0.72151 0
M  V30 1345 H 130.665 1.08739 1.57633 0
M  V30 1346 H 128.97 -0.0593018 3.91755 0
M  V30 1347 H 130.667 0.32391 3.9969 0
M  V30 1348 H 127.257 1.75495 3.91024 0
M  V30 1349 H 131.441 2.70265 4.16258 0
M  V30 1350 H 126.697 4.05379 4.57688 0
M  V30 1351 H 130.871 5.0047 4.84255 0
M  V30 1352 H 128.498 5.68539 5.04646 0
M  V30 1353 N 130.073 -1.45103 0.615059 0
M  V30 1354 C 131.489 -1.57137 0.279322 0
M  V30 1355 C 131.689 -1.60523 -1.21797 0
M  V30 1356 O 130.745 -1.53956 -2.00134 0
M  V30 1357 C 132.058 -2.85062 0.957083 0
M  V30 1358 C 133.606 -2.98749 0.933706 0
M  V30 1359 C 134.081 -4.29455 1.59162 0
M  V30 1360 N 135.572 -4.36231 1.55746 0
M  V30 1361 C 136.307 -5.36051 2.0356 0
M  V30 1362 N 135.803 -6.42367 2.59494 0
M  V30 1363 N 137.596 -5.27456 1.94284 0
M  V30 1364 H 129.747 -1.41148 1.58717 0
M  V30 1365 H 132.01 -0.675331 0.665306 0
M  V30 1366 H 131.716 -2.88488 2.01166 0
M  V30 1367 H 131.59 -3.7407 0.48494 0
M  V30 1368 H 133.977 -2.94886 -0.112347 0
M  V30 1369 H 134.058 -2.11132 1.44419 0
M  V30 1370 H 133.702 -4.34077 2.63704 0
M  V30 1371 H 133.632 -5.15901 1.0561 0
M  V30 1372 H 136.123 -3.60011 1.14893 0
M  V30 1373 H 136.436 -7.14793 2.93752 0
M  V30 1374 H 134.781 -6.43097 2.63537 0
M  V30 1375 H 137.972 -4.43308 1.5032 0
M  V30 1376 H 138.145 -6.05099 2.3186 0
M  V30 1377 N 131.551 -0.354651 -1.53558 0
M  V30 1378 C 132.483 0.5315 -2.22952 0
M  V30 1379 C 133.496 1.05503 -1.23988 0
M  V30 1380 O 134.685 0.963279 -1.50277 0
M  V30 1381 C 131.785 1.74538 -2.90499 0
M  V30 1382 C 130.958 1.35524 -4.15875 0
M  V30 1383 C 130.017 2.42999 -4.66731 0
M  V30 1384 O 129.043 2.05844 -5.30676 0
M  V30 1385 N 130.245 3.74423 -4.43608 0
M  V30 1386 H 133.01 -0.0628615 -2.99634 0
M  V30 1387 H 130.571 -0.179302 -1.60904 0
M  V30 1388 H 132.563 2.45892 -3.21433 0
M  V30 1389 H 131.133 2.24686 -2.17336 0
M  V30 1390 H 130.353 0.471998 -3.91364 0
M  V30 1391 H 131.641 1.07071 -4.97406 0
M  V30 1392 H 131.039 4.07391 -3.92491 0
M  V30 1393 H 129.596 4.41913 -4.7912 0
M  V30 1394 N 133.029 1.57378 -0.0835403 0
M  V30 1395 C 134.44 1.81261 0.447358 0
M  V30 1396 C 134.791 0.998331 1.68902 0
M  V30 1397 O 133.916 0.224282 2.15235 0
M  V30 1398 C 134.511 3.28767 0.818386 0
M  V30 1399 C 133.07 3.53455 1.29409 0
M  V30 1400 C 132.217 2.75831 0.285024 0
M  V30 1401 H 135.168 1.5566 -0.309115 0
M  V30 1402 H 135.189 3.41459 1.67887 0
M  V30 1403 H 134.701 3.88006 -0.0855019 0
M  V30 1404 H 132.802 2.99534 2.21608 0
M  V30 1405 H 132.915 4.62128 1.2639 0
M  V30 1406 H 131.279 2.42947 0.764767 0
M  V30 1407 H 132.062 3.37813 -0.611341 0
M  V30 1408 N 134.507 -0.190092 1.56449 0
M  V30 1409 C 135.439 -1.25973 1.91477 0
M  V30 1410 C 136.452 -1.41452 0.805931 0
M  V30 1411 O 137.641 -1.41789 1.08435 0
M  V30 1412 C 134.741 -2.63117 2.13594 0
M  V30 1413 C 133.914 -2.69182 3.4476 0
M  V30 1414 C 132.973 -3.87557 3.5593 0
M  V30 1415 O 131.999 -3.74427 4.28711 0
M  V30 1416 N 133.201 -5.03224 2.89388 0
M  V30 1417 H 135.966 -0.962394 2.83828 0
M  V30 1418 H 133.527 -0.379981 1.57378 0
M  V30 1419 H 135.519 -3.40742 2.1835 0
M  V30 1420 H 134.089 -2.85319 1.27719 0
M  V30 1421 H 133.309 -1.77793 3.51828 0
M  V30 1422 H 134.597 -2.70229 4.31107 0
M  V30 1423 H 133.995 -5.16791 2.30094 0
M  V30 1424 H 132.552 -5.78778 2.99764 0
M  V30 1425 N 135.985 -1.50799 -0.457987 0
M  V30 1426 C 137.231 -1.63648 -1.20792 0
M  V30 1427 C 137.586 -0.338662 -1.89396 0
M  V30 1428 O 136.879 0.664291 -1.79716 0
M  V30 1429 C 137.073 -2.76358 -2.2663 0
M  V30 1430 C 136.902 -4.16974 -1.68411 0
M  V30 1431 C 135.672 -4.83199 -1.47807 0
M  V30 1432 C 137.87 -5.00774 -1.17176 0
M  V30 1433 N 135.852 -6.07991 -0.849692 0
M  V30 1434 C 137.223 -6.16397 -0.667403 0
M  V30 1435 C 139.278 -4.86452 -1.06155 0
M  V30 1436 C 137.981 -7.19272 -0.0636908 0
M  V30 1437 C 140.007 -5.89515 -0.471759 0
M  V30 1438 C 139.369 -7.04397 0.0221557 0
M  V30 1439 H 135.468 -0.652888 -0.43042 0
M  V30 1440 H 138.052 -1.87962 -0.507785 0
M  V30 1441 H 136.223 -2.53744 -2.94056 0
M  V30 1442 H 137.955 -2.78496 -2.93636 0
M  V30 1443 H 134.71 -4.40714 -1.73403 0
M  V30 1444 H 135.134 -6.74733 -0.553537 0
M  V30 1445 H 139.776 -3.97907 -1.42932 0
M  V30 1446 H 137.494 -8.07481 0.316253 0
M  V30 1447 H 141.08 -5.805 -0.388671 0
M  V30 1448 H 139.96 -7.82782 0.471375 0
M  V30 1449 N 137.463 0.71206 -1.40597 0
M  V30 1450 C 138.395 1.83704 -1.37061 0
M  V30 1451 C 139.408 1.60453 -0.275426 0
M  V30 1452 O 140.597 1.70262 -0.53602 0
M  V30 1453 C 137.697 3.20172 -1.11099 0
M  V30 1454 C 136.87 3.7059 -2.3234 0
M  V30 1455 C 135.929 4.85681 -2.02485 0
M  V30 1456 O 134.955 4.9815 -2.75382 0
M  V30 1457 N 136.157 5.71735 -1.00497 0
M  V30 1458 H 138.922 1.87235 -2.34016 0
M  V30 1459 H 136.483 0.893739 -1.34996 0
M  V30 1460 H 138.475 3.94768 -0.891064 0
M  V30 1461 H 137.045 3.11767 -0.227989 0
M  V30 1462 H 136.265 2.87085 -2.7014 0
M  V30 1463 H 137.553 4.01011 -3.13157 0
M  V30 1464 H 136.951 5.64275 -0.401298 0
M  V30 1465 H 135.508 6.463 -0.844942 0
M  V30 1466 N 138.941 1.26152 0.944643 0
M  V30 1467 C 139.871 1.09902 2.06019 0
M  V30 1468 C 140.852 0.00519538 1.70099 0
M  V30 1469 O 142.037 0.176583 1.93396 0
M  V30 1470 C 139.167 0.727562 3.39594 0
M  V30 1471 C 138.121 1.77274 3.89561 0
M  V30 1472 C 137.447 1.25569 5.19747 0
M  V30 1473 C 138.747 3.17357 4.14827 0
M  V30 1474 H 140.441 2.03217 2.19871 0
M  V30 1475 H 137.987 0.978452 1.05652 0
M  V30 1476 H 139.94 0.600777 4.17095 0
M  V30 1477 H 138.664 -0.241287 3.25707 0
M  V30 1478 H 137.323 1.88814 3.14237 0
M  V30 1479 H 136.971 0.276783 5.02238 0
M  V30 1480 H 136.671 1.95433 5.54148 0
M  V30 1481 H 138.195 1.1415 5.99835 0
M  V30 1482 H 139.609 3.08914 4.82954 0
M  V30 1483 H 138.006 3.84781 4.60504 0
M  V30 1484 H 139.076 3.63673 3.20734 0
M  V30 1485 N 140.419 -1.14872 1.07899 0
M  V30 1486 C 141.349 -2.2193 0.725887 0
M  V30 1487 C 142.33 -1.67622 -0.28927 0
M  V30 1488 O 143.515 -1.93533 -0.160787 0
M  V30 1489 C 140.645 -3.47061 0.128856 0
M  V30 1490 C 139.599 -4.14363 1.07178 0
M  V30 1491 C 138.925 -5.33636 0.337229 0
M  V30 1492 C 140.225 -4.63492 2.40775 0
M  V30 1493 H 141.919 -2.51724 1.62097 0
M  V30 1494 H 139.465 -1.20991 0.780838 0
M  V30 1495 H 141.418 -4.21199 -0.130147 0
M  V30 1496 H 140.142 -3.16617 -0.80134 0
M  V30 1497 H 138.801 -3.42173 1.3158 0
M  V30 1498 H 138.449 -4.99449 -0.596606 0
M  V30 1499 H 138.149 -5.79609 0.965788 0
M  V30 1500 H 139.673 -6.10539 0.0861567 0
M  V30 1501 H 141.087 -5.2913 2.20669 0
M  V30 1502 H 139.484 -5.20148 2.99276 0
M  V30 1503 H 140.554 -3.78834 3.02676 0
M  V30 1504 N 141.898 -0.863906 -1.31812 0
M  V30 1505 C 143.175 -0.39275 -1.91616 0
M  V30 1506 C 143.555 1.12461 -1.7865 0
M  V30 1507 O 142.903 1.95045 -1.19037 0
M  V30 1508 C 143.113 -0.867385 -3.38049 0
M  V30 1509 C 144.461 -0.889966 -4.15168 0
M  V30 1510 O 145.485 -0.812635 -3.46806 0
M  V30 1511 O 144.344 -1.00079 -5.37258 0
M  V30 1512 H 141.438 -0.116358 -0.818773 0
M  V30 1513 H 143.984 -0.951418 -1.40521 0
M  V30 1514 H 142.756 -1.91081 -3.41473 0
M  V30 1515 H 142.379 -0.286687 -3.96565 0
M  V30 1516 N 143.376 1.44774 -0.622745 0
M  V30 1517 C 144.787 1.85546 -0.207226 0
M  V30 1518 C 145.138 1.52093 1.23944 0
M  V30 1519 O 144.263 0.95492 1.94191 0
M  V30 1520 C 144.858 3.36781 -0.369313 0
M  V30 1521 C 143.417 3.76399 -0.00836847 0
M  V30 1522 C 142.564 2.68664 -0.686651 0
M  V30 1523 H 145.515 1.3536 -0.828454 0
M  V30 1524 H 145.536 3.78453 0.394162 0
M  V30 1525 H 145.048 3.61098 -1.42231 0
M  V30 1526 H 143.149 3.57698 1.04322 0
M  V30 1527 H 143.262 4.7732 -0.412584 0
M  V30 1528 H 141.626 2.54404 -0.122777 0
M  V30 1529 H 142.409 2.95815 -1.74208 0
M  V30 1530 N 144.854 0.36279 1.53368 0
M  V30 1531 C 145.802 -0.500155 2.27159 0
M  V30 1532 C 146.796 -1.08575 1.3003 0
M  V30 1533 O 148.002 -1.02927 1.47668 0
M  V30 1534 H 144.377 -0.180009 0.730138 0
M  V30 1535 H 146.348 0.14401 2.98052 0
M  V30 1536 C 145.097 -1.62937 3.07159 0
M  V30 1537 H 144.42 -1.18806 3.8174 0
M  V30 1538 H 145.86 -2.20795 3.61975 0
M  V30 1539 C 144.319 -2.57007 2.17829 0
M  V30 1540 O 144.849 -3.59752 1.78721 0
M  V30 1541 N 143.055 -2.26131 1.82518 0
M  V30 1542 H 142.602 -1.42616 2.14519 0
M  V30 1543 H 142.56 -2.89327 1.23034 0
M  V30 1544 N 146.332 -1.57332 0.0918853 0
M  V30 1545 C 147.295 -2.12708 -0.85369 0
M  V30 1546 C 148.295 -1.05561 -1.213 0
M  V30 1547 O 149.485 -1.31461 -1.14296 0
M  V30 1548 C 146.617 -2.64503 -2.15061 0
M  V30 1549 H 147.81 -2.97573 -0.3729 0
M  V30 1550 H 145.363 -1.55509 -0.157072 0
M  V30 1551 H 146.098 -1.83149 -2.67632 0
M  V30 1552 H 145.883 -3.4284 -1.90272 0
M  V30 1553 H 147.373 -3.07351 -2.82711 0
M  V30 1554 N 147.81 0.181792 -1.56548 0
M  V30 1555 C 149.038 0.915947 -1.85521 0
M  V30 1556 C 149.453 1.76282 -0.676016 0
M  V30 1557 O 148.81 1.79012 0.355077 0
M  V30 1558 C 148.861 1.80126 -3.13427 0
M  V30 1559 O 148.582 0.988562 -4.26801 0
M  V30 1560 C 150.083 2.64597 -3.55673 0
M  V30 1561 H 147.303 0.26661 -0.61576 0
M  V30 1562 H 149.847 0.185039 -2.03661 0
M  V30 1563 H 148.002 2.48563 -2.97145 0
M  V30 1564 H 148.416 1.59308 -4.99721 0
M  V30 1565 H 149.89 3.2235 -4.48101 0
M  V30 1566 H 150.367 3.38958 -2.79292 0
M  V30 1567 H 150.973 2.0151 -3.74532 0
M  V30 1568 N 149.288 1.51039 0.449983 0
M  V30 1569 C 150.251 1.70863 1.5277 0
M  V30 1570 C 151.251 0.578846 1.5002 0
M  V30 1571 O 152.441 0.846213 1.52266 0
M  V30 1572 C 149.573 1.75341 2.9235 0
M  V30 1573 H 150.766 2.67034 1.36502 0
M  V30 1574 H 148.319 1.40838 0.677812 0
M  V30 1575 H 149.054 0.809383 3.14037 0
M  V30 1576 H 148.839 2.57436 2.95752 0
M  V30 1577 H 150.329 1.92559 3.70555 0
M  V30 1578 N 150.766 -0.704594 1.40972 0
M  V30 1579 C 151.994 -1.49354 1.43182 0
M  V30 1580 C 152.409 -1.88768 0.0345508 0
M  V30 1581 O 151.766 -1.56184 -0.944081 0
M  V30 1582 C 151.817 -2.76187 2.33244 0
M  V30 1583 O 151.538 -2.38436 3.67532 0
M  V30 1584 C 153.039 -3.7 2.44162 0
M  V30 1585 H 150.259 -0.460559 0.487982 0
M  V30 1586 H 152.803 -0.868261 1.85153 0
M  V30 1587 H 150.958 -3.34974 1.94606 0
M  V30 1588 H 151.372 -3.20126 4.15475 0
M  V30 1589 H 152.846 -4.55803 3.11364 0
M  V30 1590 H 153.323 -4.13867 1.47006 0
M  V30 1591 H 153.929 -3.17121 2.83398 0
M  V30 1592 N 152.244 -1.26651 -0.937939 0
M  V30 1593 C 153.469 -1.15279 -1.72411 0
M  V30 1594 C 153.894 0.287866 -1.85884 0
M  V30 1595 O 153.252 1.20855 -1.35143 0
M  V30 1596 C 153.3 -1.83028 -3.10698 0
M  V30 1597 O 152.404 -1.12128 -3.96864 0
M  V30 1598 H 151.745 -0.401504 -0.528858 0
M  V30 1599 H 154.275 -1.67531 -1.1745 0
M  V30 1600 H 154.285 -1.89981 -3.6107 0
M  V30 1601 H 152.96 -2.87833 -3.00208 0
M  V30 1602 H 151.537 -1.13173 -3.55312 0
M  V30 1603 N 153.722 1.14298 -1.08507 0
M  V30 1604 C 154.968 1.85854 -0.826438 0
M  V30 1605 C 155.323 1.81413 0.640878 0
M  V30 1606 O 154.616 1.23463 1.46518 0
M  V30 1607 C 154.81 3.33547 -1.28379 0
M  V30 1608 C 154.639 3.52369 -2.79403 0
M  V30 1609 C 153.409 3.67159 -3.47164 0
M  V30 1610 C 155.607 3.49203 -3.77573 0
M  V30 1611 N 153.589 3.74149 -4.86709 0
M  V30 1612 C 154.96 3.6245 -5.03021 0
M  V30 1613 C 157.015 3.32547 -3.70563 0
M  V30 1614 C 155.718 3.60761 -6.2229 0
M  V30 1615 C 157.744 3.32162 -4.89308 0
M  V30 1616 C 157.106 3.45949 -6.13595 0
M  V30 1617 H 153.205 0.696705 -0.355143 0
M  V30 1618 H 155.789 1.36981 -1.38362 0
M  V30 1619 H 153.96 3.81008 -0.754166 0
M  V30 1620 H 155.692 3.92867 -0.971469 0
M  V30 1621 H 152.447 3.68433 -2.9758 0
M  V30 1622 H 152.871 3.81359 -5.5937 0
M  V30 1623 H 157.513 3.20797 -2.75407 0
M  V30 1624 H 155.231 3.71286 -7.17755 0
M  V30 1625 H 158.817 3.20485 -4.85573 0
M  V30 1626 H 157.697 3.456 -7.03939 0
M  V30 1627 N 155.201 0.870884 1.31352 0
M  V30 1628 C 156.426 0.495957 2.01383 0
M  V30 1629 C 156.851 -0.904324 1.64935 0
M  V30 1630 O 156.209 -1.59687 0.858466 0
M  V30 1631 C 156.257 0.661433 3.54482 0
M  V30 1632 O 155.361 -0.298851 4.11316 0
M  V30 1633 H 154.702 0.197158 0.634054 0
M  V30 1634 H 157.232 1.17455 1.67527 0
M  V30 1635 H 157.242 0.555072 4.04207 0
M  V30 1636 H 155.917 1.68246 3.8035 0
M  V30 1637 H 154.494 -0.147368 3.72609 0
M  V30 1638 N 156.679 -1.44442 0.630414 0
M  V30 1639 C 157.589 -2.34476 -0.0761693 0
M  V30 1640 C 158.605 -1.52576 -0.836449 0
M  V30 1641 O 159.781 -1.85307 -0.788874 0
M  V30 1642 C 156.846 -3.30545 -1.04599 0
M  V30 1643 C 155.907 -4.28352 -0.28516 0
M  V30 1644 C 155.14 -5.19831 -1.20878 0
M  V30 1645 O 155.363 -5.15223 -2.44747 0
M  V30 1646 O 154.297 -5.97892 -0.693491 0
M  V30 1647 H 158.123 -2.96345 0.664324 0
M  V30 1648 H 155.708 -1.44203 0.39061 0
M  V30 1649 H 157.59 -3.89681 -1.60396 0
M  V30 1650 H 156.265 -2.7121 -1.76711 0
M  V30 1651 H 155.172 -3.72764 0.315837 0
M  V30 1652 H 156.505 -4.90605 0.395924 0
M  V30 1653 N 158.157 -0.370918 -1.53173 0
M  V30 1654 C 159.12 0.460778 -2.24521 0
M  V30 1655 C 160.12 1.00536 -1.25496 0
M  V30 1656 O 161.31 0.890266 -1.49733 0
M  V30 1657 C 158.442 1.64457 -2.98608 0
M  V30 1658 H 159.635 -0.163613 -2.99453 0
M  V30 1659 H 157.188 -0.122699 -1.55818 0
M  V30 1660 H 157.923 2.30691 -2.2793 0
M  V30 1661 H 157.708 1.26099 -3.7127 0
M  V30 1662 H 159.198 2.23384 -3.5283 0
M  V30 1663 N 159.635 1.57281 -0.100228 0
M  V30 1664 C 160.912 1.86014 0.604812 0
M  V30 1665 C 161.292 0.998025 1.86018 0
M  V30 1666 O 160.64 0.0718184 2.28387 0
M  V30 1667 C 160.85 3.36784 0.915278 0
M  V30 1668 C 162.198 4.04957 1.27651 0
M  V30 1669 O 163.222 3.41695 1.00613 0
M  V30 1670 O 162.081 5.16593 1.7831 0
M  V30 1671 H 159.175 0.76942 0.303185 0
M  V30 1672 H 161.721 1.69176 -0.133313 0
M  V30 1673 H 160.493 3.91292 0.0248896 0
M  V30 1674 H 160.116 3.58987 1.70921 0
M  V30 1675 N 161.113 -0.173488 1.56642 0
M  V30 1676 C 162.341 -0.906095 1.86004 0
M  V30 1677 C 162.756 -1.75921 0.685355 0
M  V30 1678 O 162.113 -1.79198 -0.345578 0
M  V30 1679 C 162.164 -1.78462 3.14378 0
M  V30 1680 O 161.885 -0.965914 4.27319 0
M  V30 1681 C 163.386 -2.62707 3.57071 0
M  V30 1682 H 160.606 -0.263341 0.617165 0
M  V30 1683 H 163.15 -0.174236 2.03756 0
M  V30 1684 H 161.305 -2.46984 2.98459 0
M  V30 1685 H 161.719 -1.56655 5.00559 0
M  V30 1686 H 163.193 -3.19969 4.49804 0
M  V30 1687 H 163.67 -3.37472 2.81086 0
M  V30 1688 H 164.276 -1.99521 3.75595 0
M  V30 1689 N 162.591 -1.51276 -0.441967 0
M  V30 1690 C 163.501 -1.75092 -1.56141 0
M  V30 1691 C 164.517 -0.634963 -1.62001 0
M  V30 1692 O 165.693 -0.916686 -1.79329 0
M  V30 1693 C 162.758 -1.86666 -2.92158 0
M  V30 1694 C 161.819 -3.10506 -2.96453 0
M  V30 1695 C 161.052 -3.21519 -4.25982 0
M  V30 1696 O 161.275 -2.38586 -5.18105 0
M  V30 1697 O 160.209 -4.14465 -4.36466 0
M  V30 1698 H 164.035 -2.70044 -1.38961 0
M  V30 1699 H 161.62 -1.35722 -0.624499 0
M  V30 1700 H 163.502 -1.96292 -3.72891 0
M  V30 1701 H 162.177 -0.949014 -3.09476 0
M  V30 1702 H 161.084 -3.06363 -2.14692 0
M  V30 1703 H 162.417 -4.01945 -2.84079 0
M  V30 1704 N 164.069 0.697108 -1.41344 0
M  V30 1705 C 165.48 1.27697 -1.36199 0
M  V30 1706 C 165.831 1.9615 -0.0443463 0
M  V30 1707 O 164.956 1.98689 0.857419 0
M  V30 1708 C 165.551 2.32223 -2.46694 0
M  V30 1709 C 164.11 2.8579 -2.44952 0
M  V30 1710 C 163.257 1.59807 -2.26621 0
M  V30 1711 H 166.208 0.491968 -1.50882 0
M  V30 1712 H 166.229 3.1348 -2.15664 0
M  V30 1713 H 165.741 1.82373 -3.42581 0
M  V30 1714 H 163.842 3.3982 -1.52817 0
M  V30 1715 H 163.955 3.36325 -3.41207 0
M  V30 1716 H 162.319 1.8556 -1.7447 0
M  V30 1717 H 163.102 1.11956 -3.24532 0
M  V30 1718 N 165.547 1.27147 0.931209 0
M  V30 1719 C 166.787 1.14511 1.69312 0
M  V30 1720 C 167.151 -0.304638 1.89568 0
M  V30 1721 O 168.352 -0.553343 2.63043 0
M  V30 1722 C 166.623 1.90349 3.02493 0
M  V30 1723 S 168.182 1.93884 3.93642 0
M  V30 1724 H 165 0.408858 0.581684 0
M  V30 1725 H 167.602 1.61006 1.10893 0
M  V30 1726 H 166.306 2.94877 2.85439 0
M  V30 1727 H 165.837 1.44333 3.65966 0
M  V30 1728 H 167.852 1.03273 4.85334 0
M  V30 1729 N 167.025 -1.13721 1.09112 0
M  V30 1730 C 168.271 -1.85198 0.826414 0
M  V30 1731 C 168.604 -1.83129 -0.646319 0
M  V30 1732 O 167.879 -1.2671 -1.47563 0
M  V30 1733 C 168.162 -3.33507 1.35812 0
M  V30 1734 C 168.015 -3.44108 2.89672 0
M  V30 1735 C 169.334 -4.28838 0.989256 0
M  V30 1736 H 166.453 -0.67243 0.301675 0
M  V30 1737 H 169.095 -1.33499 1.35197 0
M  V30 1738 H 167.245 -3.77666 0.911082 0
M  V30 1739 H 168.917 -3.08684 3.428 0
M  V30 1740 H 167.16 -2.85087 3.26967 0
M  V30 1741 H 167.831 -4.48388 3.21951 0
M  V30 1742 H 170.307 -3.92734 1.37475 0
M  V30 1743 H 169.183 -5.31051 1.38838 0
M  V30 1744 H 169.444 -4.4198 -0.102924 0
M  V30 1745 N 168.503 -0.877838 -1.30888 0
M  V30 1746 C 169.78 -0.413052 -1.91189 0
M  V30 1747 C 170.16 1.1056 -1.79832 0
M  V30 1748 O 169.508 1.93771 -1.21099 0
M  V30 1749 C 169.718 -0.903191 -3.3711 0
M  V30 1750 C 171.066 -0.93395 -4.14201 0
M  V30 1751 O 172.09 -0.849373 -3.45925 0
M  V30 1752 O 170.949 -1.05772 -5.36167 0
M  V30 1753 H 168.043 -0.125035 -0.817493 0
M  V30 1754 H 170.589 -0.966269 -1.39504 0
M  V30 1755 H 169.361 -1.94692 -3.39427 0
M  V30 1756 H 168.984 -0.328732 -3.96239 0
M  V30 1757 N 169.982 1.44106 -0.638065 0
M  V30 1758 C 171.23 2.01579 -0.145043 0
M  V30 1759 C 171.551 1.50496 1.24 0
M  V30 1760 O 170.821 0.711374 1.82527 0
M  V30 1761 H 169.401 0.745282 -0.05063 0
M  V30 1762 H 172.063 1.76516 -0.826327 0
M  V30 1763 H 171.159 3.11877 -0.118039 0
M  V30 1764 N 171.46 0.379036 1.52974 0
M  V30 1765 C 172.706 -0.199244 2.02422 0
M  V30 1766 C 173.061 -1.4532 1.26095 0
M  V30 1767 O 172.354 -1.88377 0.34996 0
M  V30 1768 C 172.548 -0.53096 3.53434 0
M  V30 1769 C 172.377 0.689298 4.44386 0
M  V30 1770 C 171.147 1.20546 4.9071 0
M  V30 1771 C 173.345 1.55856 4.90116 0
M  V30 1772 N 171.327 2.38434 5.65705 0
M  V30 1773 C 172.698 2.58396 5.63588 0
M  V30 1774 C 174.753 1.57986 4.7217 0
M  V30 1775 C 173.456 3.62939 6.21022 0
M  V30 1776 C 175.482 2.6143 5.30479 0
M  V30 1777 C 174.844 3.62693 6.03849 0
M  V30 1778 H 170.943 -0.0352671 0.781204 0
M  V30 1779 H 173.527 0.526614 1.87443 0
M  V30 1780 H 171.698 -1.22588 3.68547 0
M  V30 1781 H 173.43 -1.0955 3.89591 0
M  V30 1782 H 170.185 0.768022 4.67331 0
M  V30 1783 H 170.609 2.98055 6.07859 0
M  V30 1784 H 175.251 0.810475 4.14959 0
M  V30 1785 H 172.969 4.40751 6.77321 0
M  V30 1786 H 176.555 2.63949 5.18481 0
M  V30 1787 H 175.435 4.41424 6.48163 0
M  V30 1788 N 172.938 -1.57226 0.108567 0
M  V30 1789 C 174.184 -1.95121 -0.552761 0
M  V30 1790 C 174.517 -0.991345 -1.66991 0
M  V30 1791 O 173.792 -0.0267211 -1.94482 0
M  V30 1792 C 174.075 -3.43039 -1.09528 0
M  V30 1793 C 173.928 -4.49797 0.0177332 0
M  V30 1794 C 175.247 -3.92567 -1.98945 0
M  V30 1795 H 172.366 -0.709496 -0.199461 0
M  V30 1796 H 175.008 -1.89126 0.182011 0
M  V30 1797 H 173.158 -3.48279 -1.72146 0
M  V30 1798 H 174.83 -4.56661 0.652584 0
M  V30 1799 H 173.073 -4.284 0.682309 0
M  V30 1800 H 173.744 -5.50528 -0.402919 0
M  V30 1801 H 176.22 -3.89565 -1.46214 0
M  V30 1802 H 175.096 -4.96605 -2.33827 0
M  V30 1803 H 175.357 -3.32648 -2.91201 0
M  V30 1804 N 174.416 0.165178 -1.56732 0
M  V30 1805 C 175.646 0.894919 -1.86212 0
M  V30 1806 C 176.054 1.76066 -0.692627 0
M  V30 1807 O 175.397 1.80387 0.347303 0
M  V30 1808 C 175.459 1.8174 -3.10179 0
M  V30 1809 C 175.123 1.13064 -4.42793 0
M  V30 1810 C 176.12 0.493169 -5.17556 0
M  V30 1811 C 173.805 1.12556 -4.89527 0
M  V30 1812 C 175.799 -0.140209 -6.37246 0
M  V30 1813 C 173.486 0.488366 -6.09145 0
M  V30 1814 C 174.484 -0.143411 -6.82849 0
M  V30 1815 O 174.172 -0.77055 -8.00199 0
M  V30 1816 H 173.904 0.265114 -0.621844 0
M  V30 1817 H 176.458 0.168242 -2.0471 0
M  V30 1818 H 174.688 2.58455 -2.87642 0
M  V30 1819 H 176.377 2.4175 -3.26055 0
M  V30 1820 H 177.143 0.489023 -4.82528 0
M  V30 1821 H 173.022 1.60672 -4.32094 0
M  V30 1822 H 176.566 -0.633932 -6.94714 0
M  V30 1823 H 172.463 0.490116 -6.43637 0
M  V30 1824 H 173.231 -0.670408 -8.1575 0
M  V30 1825 N 175.894 1.51508 0.433938 0
M  V30 1826 C 177.171 1.54888 1.19453 0
M  V30 1827 C 177.551 0.315154 2.08734 0
M  V30 1828 O 176.899 -0.699558 2.17528 0
M  V30 1829 C 177.109 2.86467 1.99342 0
M  V30 1830 C 178.457 3.38545 2.56267 0
M  V30 1831 O 179.481 2.88041 2.0955 0
M  V30 1832 O 178.34 4.26675 3.41483 0
M  V30 1833 H 175.434 0.622863 0.544032 0
M  V30 1834 H 177.98 1.63823 0.442732 0
M  V30 1835 H 176.752 3.67718 1.33788 0
M  V30 1836 H 176.375 2.8071 2.8158 0
M  V30 1837 N 177.372 -0.689602 1.41712 0
M  V30 1838 C 178.788 -1.00093 1.24312 0
M  V30 1839 C 178.988 -2.01036 0.136729 0
M  V30 1840 O 178.044 -2.47562 -0.496918 0
M  V30 1841 C 179.357 -1.51985 2.59463 0
M  V30 1842 C 180.905 -1.63838 2.66695 0
M  V30 1843 C 181.38 -2.1913 4.02177 0
M  V30 1844 N 182.871 -2.26483 4.04054 0
M  V30 1845 C 183.606 -2.70306 5.0569 0
M  V30 1846 N 183.102 -3.13691 6.17713 0
M  V30 1847 N 184.895 -2.69923 4.9305 0
M  V30 1848 H 177.046 -0.0210029 2.1239 0
M  V30 1849 H 179.309 -0.0718733 0.945272 0
M  V30 1850 H 179.015 -0.85269 3.41207 0
M  V30 1851 H 178.889 -2.50103 2.82362 0
M  V30 1852 H 181.276 -2.29664 1.85306 0
M  V30 1853 H 181.357 -0.642492 2.476 0
M  V30 1854 H 181.001 -1.53918 4.84016 0
M  V30 1855 H 180.931 -3.19482 4.18615 0
M  V30 1856 H 183.422 -1.95874 3.23174 0
M  V30 1857 H 183.735 -3.45773 6.9113 0
M  V30 1858 H 182.08 -3.11585 6.21241 0
M  V30 1859 H 185.271 -2.35382 4.04614 0
M  V30 1860 H 185.444 -3.03758 5.72394 0
M  V30 1861 N 178.85 -1.27639 -0.924453 0
M  V30 1862 C 180.075 -1.17101 -1.71179 0
M  V30 1863 C 180.5 0.268134 -1.86179 0
M  V30 1864 O 179.858 1.19415 -1.36418 0
M  V30 1865 C 179.906 -1.86313 -3.08739 0
M  V30 1866 O 179.01 -1.16331 -3.95652 0
M  V30 1867 H 178.351 -0.407091 -0.524569 0
M  V30 1868 H 180.881 -1.68767 -1.15666 0
M  V30 1869 H 180.891 -1.938 -3.59034 0
M  V30 1870 H 179.566 -2.91001 -2.97138 0
M  V30 1871 H 178.143 -1.16935 -3.54091 0
M  V30 1872 N 180.328 1.1314 -1.09713 0
M  V30 1873 C 181.574 1.84757 -0.836224 0
M  V30 1874 C 181.907 1.8347 0.636598 0
M  V30 1875 O 181.182 1.27491 1.46889 0
M  V30 1876 C 181.465 3.32782 -1.37578 0
M  V30 1877 C 181.318 3.42567 -2.91493 0
M  V30 1878 C 182.637 4.28307 -1.01198 0
M  V30 1879 H 179.756 0.67082 -0.305236 0
M  V30 1880 H 182.398 1.3278 -1.35903 0
M  V30 1881 H 180.548 3.77177 -0.931097 0
M  V30 1882 H 182.22 3.06862 -3.44432 0
M  V30 1883 H 180.463 2.83349 -3.28475 0
M  V30 1884 H 181.134 4.46674 -3.24324 0
M  V30 1885 H 183.61 3.91999 -1.39556 0
M  V30 1886 H 182.486 5.30307 -1.41653 0
M  V30 1887 H 182.747 4.42029 0.0794833 0
M  V30 1888 N 181.806 0.884767 1.30421 0
M  V30 1889 C 183.053 0.503105 1.96151 0
M  V30 1890 C 183.381 -0.947676 1.69851 0
M  V30 1891 O 182.636 -1.68467 0.995861 0
M  V30 1892 C 182.935 0.724318 3.49983 0
M  V30 1893 C 182.601 2.15015 3.96332 0
M  V30 1894 C 181.263 2.54005 4.08699 0
M  V30 1895 C 183.615 3.07936 4.20505 0
M  V30 1896 C 180.943 3.85128 4.42599 0
M  V30 1897 C 183.295 4.3859 4.55874 0
M  V30 1898 C 181.959 4.77474 4.66449 0
M  V30 1899 H 181.229 0.184099 0.717766 0
M  V30 1900 H 183.876 1.12058 1.55291 0
M  V30 1901 H 182.181 0.0238086 3.91793 0
M  V30 1902 H 183.878 0.408617 3.98913 0
M  V30 1903 H 180.468 1.8375 3.87213 0
M  V30 1904 H 184.652 2.79033 4.10431 0
M  V30 1905 H 179.908 4.14996 4.48986 0
M  V30 1906 H 184.082 5.10629 4.7353 0
M  V30 1907 H 181.709 5.79115 4.92473 0
M  V30 1908 N 183.284 -1.43765 0.645699 0
M  V30 1909 C 184.512 -2.06253 0.163556 0
M  V30 1910 C 184.927 -1.48352 -1.16778 0
M  V30 1911 O 184.284 -0.611932 -1.71935 0
M  V30 1912 C 184.335 -3.61453 0.0583186 0
M  V30 1913 O 184.056 -4.172 1.33702 0
M  V30 1914 C 185.557 -4.41002 -0.450795 0
M  V30 1915 H 182.777 -0.665413 0.0864077 0
M  V30 1916 H 185.321 -1.84396 0.884222 0
M  V30 1917 H 183.476 -3.82522 -0.612865 0
M  V30 1918 H 183.89 -5.10791 1.19131 0
M  V30 1919 H 185.364 -5.49966 -0.473403 0
M  V30 1920 H 185.841 -4.13488 -1.48068 0
M  V30 1921 H 186.447 -4.24886 0.187637 0
M  V30 1922 N 184.763 -0.387143 -1.52771 0
M  V30 1923 C 185.988 0.198407 -2.06449 0
M  V30 1924 C 186.413 1.39918 -1.25716 0
M  V30 1925 O 185.771 1.79099 -0.281657 0
M  V30 1926 C 185.819 0.548893 -3.56398 0
M  V30 1927 O 184.923 1.64315 -3.78252 0
M  V30 1928 H 184.264 0.0237731 -0.663574 0
M  V30 1929 H 186.794 -0.553989 -1.96957 0
M  V30 1930 H 186.804 0.813812 -3.99801 0
M  V30 1931 H 185.479 -0.329005 -4.14597 0
M  V30 1932 H 184.056 1.37211 -3.46738 0
M  V30 1933 N 186.241 1.57166 -0.116904 0
M  V30 1934 C 187.469 1.99473 0.549383 0
M  V30 1935 C 187.884 0.996541 1.60357 0
M  V30 1936 O 187.241 -0.0108731 1.82497 0
M  V30 1937 C 187.292 3.41788 1.17741 0
M  V30 1938 O 187.013 4.37788 0.165362 0
M  V30 1939 C 188.514 3.99216 1.92722 0
M  V30 1940 H 185.734 0.655009 0.145616 0
M  V30 1941 H 188.278 2.03494 -0.202625 0
M  V30 1942 H 186.433 3.38713 1.88021 0
M  V30 1943 H 186.847 5.20806 0.621403 0
M  V30 1944 H 188.321 5.00882 2.31995 0
M  V30 1945 H 188.798 3.3824 2.80161 0
M  V30 1946 H 189.404 4.0583 1.27209 0
M  V30 1947 N 187.719 -0.156864 1.56817 0
M  V30 1948 C 188.968 -0.869504 1.81996 0
M  V30 1949 C 189.281 -1.82777 0.696545 0
M  V30 1950 O 190.487 -2.58384 0.833658 0
M  V30 1951 C 188.943 -1.59679 3.22538 0
M  V30 1952 C 188.551 -0.681431 4.42787 0
M  V30 1953 C 190.295 -2.2968 3.56997 0
M  V30 1954 C 188.202 -1.40978 5.74351 0
M  V30 1955 H 187.132 -0.328438 0.678708 0
M  V30 1956 H 189.783 -0.1223 1.83092 0
M  V30 1957 H 188.165 -2.38927 3.158 0
M  V30 1958 H 189.339 0.0751166 4.60739 0
M  V30 1959 H 187.654 -0.0903431 4.16302 0
M  V30 1960 H 190.251 -2.84794 4.52544 0
M  V30 1961 H 190.594 -3.05707 2.82576 0
M  V30 1962 H 191.127 -1.57361 3.65352 0
M  V30 1963 H 187.866 -0.691561 6.51842 0
M  V30 1964 H 187.386 -2.13929 5.60352 0
M  V30 1965 H 189.065 -1.95337 6.16808 0
M  V30 1966 N 189.197 -1.51736 -0.425897 0
M  V30 1967 C 190.443 -1.65214 -1.1761 0
M  V30 1968 C 190.776 -0.372778 -1.90589 0
M  V30 1969 O 190.051 0.628139 -1.84078 0
M  V30 1970 C 190.334 -2.86312 -2.18398 0
M  V30 1971 C 190.187 -4.24254 -1.49426 0
M  V30 1972 C 191.506 -3.02925 -3.19256 0
M  V30 1973 H 188.625 -0.601263 -0.426206 0
M  V30 1974 H 191.267 -1.8425 -0.463882 0
M  V30 1975 H 189.417 -2.70213 -2.79137 0
M  V30 1976 H 191.089 -4.52046 -0.919362 0
M  V30 1977 H 189.332 -4.26426 -0.796432 0
M  V30 1978 H 190.003 -5.05001 -2.22885 0
M  V30 1979 H 192.479 -3.1781 -2.68581 0
M  V30 1980 H 191.355 -3.89199 -3.8706 0
M  V30 1981 H 191.616 -2.15497 -3.86023 0
M  V30 1982 N 190.675 0.682077 -1.42076 0
M  V30 1983 C 191.638 1.77756 -1.44691 0
M  V30 1984 C 192.638 1.5726 -0.335535 0
M  V30 1985 O 193.828 1.63686 -0.596037 0
M  V30 1986 C 190.96 3.16301 -1.27146 0
M  V30 1987 H 192.153 1.76826 -2.42224 0
M  V30 1988 H 189.706 0.891012 -1.28416 0
M  V30 1989 H 190.441 3.22862 -0.305075 0
M  V30 1990 H 190.226 3.32581 -2.07683 0
M  V30 1991 H 191.716 3.96241 -1.31843 0
M  V30 1992 N 192.153 1.28127 0.917671 0
M  V30 1993 C 193.1 1.11717 2.0196 0
M  V30 1994 C 194.07 0.0153929 1.66093 0
M  V30 1995 O 195.255 0.179596 1.89953 0
M  V30 1996 C 192.395 0.780927 3.36148 0
M  V30 1997 C 191.508 1.96135 3.84909 0
M  V30 1998 C 190.643 1.56609 5.0759 0
M  V30 1999 C 189.682 2.71339 5.48673 0
M  V30 2000 N 188.819 2.32332 6.62545 0
M  V30 2001 H 193.659 2.06003 2.15329 0
M  V30 2002 H 191.196 1.02535 1.05475 0
M  V30 2003 H 193.154 0.56675 4.13333 0
M  V30 2004 H 191.784 -0.124998 3.22558 0
M  V30 2005 H 190.836 2.28777 3.03916 0
M  V30 2006 H 192.148 2.82165 4.1132 0
M  V30 2007 H 191.302 1.31374 5.92305 0
M  V30 2008 H 190.041 0.677014 4.82978 0
M  V30 2009 H 189.046 2.97276 4.62501 0
M  V30 2010 H 190.271 3.60882 5.75274 0
M  V30 2011 H 188.217 1.45889 6.39572 0
M  V30 2012 H 188.134 3.11899 6.88662 0
M  V30 2013 H 189.402 2.10371 7.50576 0
M  V30 2014 N 193.631 -1.12557 1.10312 0
M  V30 2015 C 194.877 -1.84515 0.855901 0
M  V30 2016 C 195.232 -1.82409 -0.611936 0
M  V30 2017 O 194.525 -1.25778 -1.44535 0
M  V30 2018 C 194.719 -3.31462 1.33669 0
M  V30 2019 C 194.548 -3.47879 2.84974 0
M  V30 2020 C 193.318 -3.61589 3.52961 0
M  V30 2021 C 195.516 -3.43152 3.83081 0
M  V30 2022 N 193.498 -3.66359 4.926 0
M  V30 2023 C 194.869 -3.54401 5.08724 0
M  V30 2024 C 196.924 -3.2661 3.75807 0
M  V30 2025 C 195.627 -3.50815 6.2795 0
M  V30 2026 C 197.653 -3.24335 4.94531 0
M  V30 2027 C 197.015 -3.36144 6.19021 0
M  V30 2028 H 193.114 -0.690967 0.366182 0
M  V30 2029 H 195.698 -1.34763 1.40524 0
M  V30 2030 H 193.869 -3.7976 0.814686 0
M  V30 2031 H 195.601 -3.91272 1.03385 0
M  V30 2032 H 192.356 -3.63652 3.03404 0
M  V30 2033 H 192.78 -3.72411 5.65366 0
M  V30 2034 H 197.422 -3.16375 2.80476 0
M  V30 2035 H 195.14 -3.5982 7.23571 0
M  V30 2036 H 198.726 -3.12719 4.9061 0
M  V30 2037 H 197.606 -3.34357 7.09348 0
M  V30 2038 N 195.109 -0.891671 -1.2995 0
M  V30 2039 C 196.386 -0.433307 -1.9074 0
M  V30 2040 C 196.766 1.08646 -1.80995 0
M  V30 2041 O 196.114 1.92476 -1.23147 0
M  V30 2042 C 196.324 -0.938895 -3.36134 0
M  V30 2043 C 197.672 -0.977829 -4.13187 0
M  V30 2044 O 198.696 -0.886015 -3.45005 0
M  V30 2045 O 197.555 -1.11453 -5.35015 0
M  V30 2046 H 194.649 -0.133699 -0.816121 0
M  V30 2047 H 197.195 -0.981011 -1.38471 0
M  V30 2048 H 195.967 -1.98281 -3.37343 0
M  V30 2049 H 195.59 -0.37074 -3.95868 0
M  V30 2050 N 196.587 1.43421 -0.653314 0
M  V30 2051 C 197.517 2.33487 0.0246656 0
M  V30 2052 C 198.498 1.49475 0.811863 0
M  V30 2053 O 199.683 1.78139 0.773322 0
M  V30 2054 C 196.813 3.32841 0.99166 0
M  V30 2055 C 195.767 4.26842 0.314568 0
M  V30 2056 C 195.093 5.16236 1.39302 0
M  V30 2057 C 196.393 5.16243 -0.793095 0
M  V30 2058 H 198.087 2.90427 -0.727481 0
M  V30 2059 H 195.633 1.39649 -0.351287 0
M  V30 2060 H 197.586 3.94747 1.47487 0
M  V30 2061 H 196.31 2.74158 1.77497 0
M  V30 2062 H 194.969 3.663 -0.148199 0
M  V30 2063 H 194.617 4.53891 2.16776 0
M  V30 2064 H 194.317 5.79948 0.945223 0
M  V30 2065 H 195.841 5.81015 1.87759 0
M  V30 2066 H 197.255 5.71958 -0.392039 0
M  V30 2067 H 195.652 5.88676 -1.16536 0
M  V30 2068 H 196.722 4.55927 -1.65103 0
M  V30 2069 N 198.065 0.39524 1.52563 0
M  V30 2070 C 199.311 -0.185318 2.01952 0
M  V30 2071 C 199.644 -1.45964 1.28095 0
M  V30 2072 O 198.919 -1.90689 0.38315 0
M  V30 2073 C 199.202 -0.447193 3.57312 0
M  V30 2074 C 199.055 0.842828 4.41833 0
M  V30 2075 C 200.374 -1.23529 4.22408 0
M  V30 2076 H 197.493 -0.0658788 0.73405 0
M  V30 2077 H 200.135 0.525975 1.82575 0
M  V30 2078 H 198.285 -1.05312 3.73954 0
M  V30 2079 H 199.957 1.4795 4.36931 0
M  V30 2080 H 198.2 1.45686 4.08605 0
M  V30 2081 H 198.871 0.614165 5.48573 0
M  V30 2082 H 201.347 -0.722445 4.0978 0
M  V30 2083 H 200.223 -1.38727 5.3108 0
M  V30 2084 H 200.484 -2.25213 3.80436 0
M  V30 2085 N 199.544 -1.57102 0.125237 0
M  V30 2086 C 200.784 -1.97294 -0.534259 0
M  V30 2087 C 201.148 -1.0074 -1.63449 0
M  V30 2088 O 202.349 -1.29893 -2.35332 0
M  V30 2089 C 200.62 -3.41705 -1.04748 0
M  V30 2090 S 202.179 -4.03913 -1.71463 0
M  V30 2091 H 198.997 -0.689517 -0.173458 0
M  V30 2092 H 201.599 -1.94349 0.211797 0
M  V30 2093 H 200.303 -4.09723 -0.235649 0
M  V30 2094 H 199.834 -3.48315 -1.82867 0
M  V30 2095 H 201.849 -3.95182 -3.00077 0
M  V30 2096 N 201.022 0.148545 -1.56898 0
M  V30 2097 C 202.247 0.880385 -1.87787 0
M  V30 2098 C 202.672 1.74018 -0.714093 0
M  V30 2099 O 202.03 1.78153 0.336343 0
M  V30 2100 C 202.078 1.71422 -3.17249 0
M  V30 2101 O 201.182 2.8183 -3.01074 0
M  V30 2102 H 200.523 0.245301 -0.617028 0
M  V30 2103 H 203.053 0.139826 -2.04122 0
M  V30 2104 H 203.063 2.10954 -3.49231 0
M  V30 2105 H 201.738 1.08284 -4.01556 0
M  V30 2106 H 200.315 2.45715 -2.80497 0
M  V30 2107 N 202.5 1.5196 0.417844 0
M  V30 2108 C 203.725 1.69717 1.1921 0
M  V30 2109 C 204.15 0.402148 1.83751 0
M  V30 2110 O 203.508 -0.639593 1.69643 0
M  V30 2111 C 203.556 2.82794 2.2374 0
M  V30 2112 O 202.66 2.47756 3.29683 0
M  V30 2113 H 202.001 0.565263 0.348387 0
M  V30 2114 H 204.531 1.98621 0.490985 0
M  V30 2115 H 204.541 3.07452 2.68212 0
M  V30 2116 H 203.216 3.76756 1.76146 0
M  V30 2117 H 201.793 2.33739 2.90552 0
M  V30 2118 N 203.978 -0.674533 1.42435 0
M  V30 2119 C 204.91 -1.80005 1.41883 0
M  V30 2120 C 205.923 -1.59667 0.31787 0
M  V30 2121 O 207.112 -1.68781 0.580973 0
M  V30 2122 C 204.212 -3.17114 1.19549 0
M  V30 2123 C 203.385 -3.64299 2.42084 0
M  V30 2124 C 202.444 -4.80142 2.15291 0
M  V30 2125 O 201.47 -4.90673 2.88493 0
M  V30 2126 N 202.672 -5.68869 1.1562 0
M  V30 2127 H 205.437 -1.80964 2.38898 0
M  V30 2128 H 202.998 -0.857633 1.37318 0
M  V30 2129 H 204.99 -3.92267 0.995417 0
M  V30 2130 H 203.56 -3.11053 0.310569 0
M  V30 2131 H 202.78 -2.79822 2.77657 0
M  V30 2132 H 204.068 -3.92567 3.23679 0
M  V30 2133 H 203.466 -5.63012 0.550765 0
M  V30 2134 H 202.023 -6.43833 1.016 0
M  V30 2135 N 205.456 -1.28612 -0.910864 0
M  V30 2136 C 206.704 -1.15705 -1.65701 0
M  V30 2137 C 207.025 0.29416 -1.92769 0
M  V30 2138 O 206.295 1.20331 -1.54588 0
M  V30 2139 H 204.875 -0.425216 -0.614167 0
M  V30 2140 H 207.537 -1.61381 -1.0928 0
M  V30 2141 H 206.633 -1.6988 -2.61815 0
M  V30 2142 N 206.934 1.1197 -1.10907 0
M  V30 2143 C 207.864 2.19928 -0.784473 0
M  V30 2144 C 208.845 1.6833 0.244726 0
M  V30 2145 O 210.03 1.93892 0.109418 0
M  V30 2146 C 207.16 3.46597 -0.220827 0
M  V30 2147 C 206.114 4.11376 -1.18127 0
M  V30 2148 C 205.44 5.32554 -0.478594 0
M  V30 2149 C 206.74 4.56945 -2.52979 0
M  V30 2150 H 208.434 2.47337 -1.68715 0
M  V30 2151 H 205.98 1.18879 -0.812642 0
M  V30 2152 H 207.933 4.21396 0.0184278 0
M  V30 2153 H 206.657 3.1863 0.717113 0
M  V30 2154 H 205.316 3.38564 -1.40606 0
M  V30 2155 H 204.964 5.00856 0.463976 0
M  V30 2156 H 204.664 5.76844 -1.11912 0
M  V30 2157 H 206.188 6.10096 -0.248 0
M  V30 2158 H 207.602 5.23093 -2.3462 0
M  V30 2159 H 205.999 5.1203 -3.12962 0
M  V30 2160 H 207.069 3.70676 -3.12614 0
M  V30 2161 N 208.412 0.89855 1.29475 0
M  V30 2162 C 209.359 0.373819 2.27753 0
M  V30 2163 C 210.329 -0.543444 1.56958 0
M  V30 2164 O 211.514 -0.468934 1.84948 0
M  V30 2165 C 208.654 -0.393648 3.42848 0
M  V30 2166 C 207.767 0.554379 4.28428 0
M  V30 2167 C 206.902 -0.230026 5.30702 0
M  V30 2168 C 205.941 0.712599 6.07938 0
M  V30 2169 N 205.078 -0.0373283 7.0209 0
M  V30 2170 H 209.918 1.21699 2.72017 0
M  V30 2171 H 207.455 0.611456 1.33789 0
M  V30 2172 H 209.413 -0.85466 4.08352 0
M  V30 2173 H 208.043 -1.20128 2.99615 0
M  V30 2174 H 207.095 1.13391 3.63107 0
M  V30 2175 H 208.407 1.27597 4.82204 0
M  V30 2176 H 207.561 -0.752288 6.02018 0
M  V30 2177 H 206.3 -0.984758 4.77654 0
M  V30 2178 H 205.305 1.24637 5.35486 0
M  V30 2179 H 206.53 1.46664 6.63074 0
M  V30 2180 H 204.476 -0.774348 6.51414 0
M  V30 2181 H 204.393 0.624374 7.53417 0
M  V30 2182 H 205.661 -0.539891 7.77628 0
M  V30 2183 N 209.89 -1.43072 0.660911 0
M  V30 2184 C 211.301 -1.84932 0.256348 0
M  V30 2185 C 211.652 -1.55325 -1.19868 0
M  V30 2186 O 210.777 -1.00607 -1.91591 0
M  V30 2187 C 211.372 -3.35684 0.458475 0
M  V30 2188 C 209.931 -3.76245 0.108161 0
M  V30 2189 C 209.078 -2.66749 0.757641 0
M  V30 2190 H 212.029 -1.33116 0.864051 0
M  V30 2191 H 212.05 -3.79365 -0.293683 0
M  V30 2192 H 211.562 -3.572 1.51755 0
M  V30 2193 H 209.663 -3.60338 -0.948014 0
M  V30 2194 H 209.776 -4.76058 0.538992 0
M  V30 2195 H 208.14 -2.53989 0.190185 0
M  V30 2196 H 208.923 -2.91092 1.81989 0
M  V30 2197 N 211.368 -0.403325 -1.52352 0
M  V30 2198 C 212.298 0.416205 -2.29761 0
M  V30 2199 C 213.279 1.05123 -1.33728 0
M  V30 2200 O 214.464 1.06134 -1.62632 0
M  V30 2201 C 211.594 1.53624 -3.11475 0
M  V30 2202 C 210.548 1.02653 -4.15507 0
M  V30 2203 C 209.874 2.23971 -4.85532 0
M  V30 2204 C 211.174 0.08463 -5.22231 0
M  V30 2205 H 212.868 -0.229701 -2.98518 0
M  V30 2206 H 210.414 -0.111913 -1.43564 0
M  V30 2207 H 212.367 2.1165 -3.64393 0
M  V30 2208 H 211.091 2.20994 -2.40477 0
M  V30 2209 H 209.75 0.46871 -3.63591 0
M  V30 2210 H 209.398 2.89883 -4.11068 0
M  V30 2211 H 209.098 1.90521 -5.55856 0
M  V30 2212 H 210.622 2.82614 -5.41259 0
M  V30 2213 H 212.036 0.573509 -5.70424 0
M  V30 2214 H 210.433 -0.160783 -5.99885 0
M  V30 2215 H 211.503 -0.86237 -4.7717 0
M  V30 2216 N 212.846 1.57033 -0.133567 0
M  V30 2217 C 214.071 2.00475 0.531477 0
M  V30 2218 C 214.496 1.01291 1.58499 0
M  V30 2219 O 213.854 -0.0133279 1.81295 0
M  V30 2220 C 213.902 3.42729 1.12113 0
M  V30 2221 O 213.006 3.46498 2.23636 0
M  V30 2222 H 212.347 0.650876 0.131362 0
M  V30 2223 H 214.877 2.03344 -0.22634 0
M  V30 2224 H 214.887 3.81246 1.4531 0
M  V30 2225 H 213.562 4.14428 0.349557 0
M  V30 2226 H 212.139 3.19811 1.91769 0
M  V30 2227 N 214.325 -0.140222 1.56975 0
M  V30 2228 C 215.257 -1.19818 1.95388 0
M  V30 2229 C 216.27 -1.38816 0.850525 0
M  V30 2230 O 217.459 -1.38267 1.12891 0
M  V30 2231 C 214.559 -2.56189 2.21857 0
M  V30 2232 C 213.732 -2.58077 3.5315 0
M  V30 2233 C 212.791 -3.76037 3.6808 0
M  V30 2234 O 211.817 -3.60598 4.40406 0
M  V30 2235 N 213.019 -4.93763 3.05251 0
M  V30 2236 H 215.784 -0.871609 2.86746 0
M  V30 2237 H 213.345 -0.32972 1.58507 0
M  V30 2238 H 215.337 -3.33623 2.2908 0
M  V30 2239 H 213.907 -2.81111 1.36731 0
M  V30 2240 H 213.127 -1.6651 3.57307 0
M  V30 2241 H 214.415 -2.56377 4.39486 0
M  V30 2242 H 213.813 -5.09209 2.46419 0
M  V30 2243 H 212.37 -5.68949 3.18026 0
M  V30 2244 N 215.803 -1.52179 -0.40978 0
M  V30 2245 C 217.028 -1.70347 -1.18308 0
M  V30 2246 C 217.453 -0.411887 -1.83535 0
M  V30 2247 O 216.811 0.630587 -1.6998 0
M  V30 2248 C 216.859 -2.83977 -2.22238 0
M  V30 2249 O 215.963 -2.495 -3.28365 0
M  V30 2250 H 215.304 -0.567103 -0.345384 0
M  V30 2251 H 217.834 -1.98879 -0.480445 0
M  V30 2252 H 217.844 -3.0887 -2.66577 0
M  V30 2253 H 216.519 -3.77685 -1.74146 0
M  V30 2254 H 215.096 -2.35277 -2.89308 0
M  V30 2255 N 217.281 0.66697 -1.42791 0
M  V30 2256 C 218.53 1.42278 -1.42968 0
M  V30 2257 C 218.843 1.9553 -0.0524489 0
M  V30 2258 O 220.049 2.71414 0.068363 0
M  V30 2259 C 218.505 2.57418 -2.51524 0
M  V30 2260 C 218.113 2.10832 -3.9529 0
M  V30 2261 C 219.857 3.34878 -2.60877 0
M  V30 2262 C 217.764 3.23101 -4.95338 0
M  V30 2263 H 216.694 0.534533 -0.531781 0
M  V30 2264 H 219.345 0.721302 -1.68729 0
M  V30 2265 H 217.727 3.29971 -2.18941 0
M  V30 2266 H 218.901 1.4538 -4.37266 0
M  V30 2267 H 217.216 1.46289 -3.89857 0
M  V30 2268 H 219.813 4.18505 -3.32802 0
M  V30 2269 H 220.156 3.81993 -1.6549 0
M  V30 2270 H 220.689 2.69398 -2.92693 0
M  V30 2271 H 217.428 2.80969 -5.9223 0
M  V30 2272 H 216.948 3.87309 -4.57987 0
M  V30 2273 H 218.627 3.88447 -5.17415 0
M  V30 2274 N 218.759 1.29093 0.90403 0
M  V30 2275 C 220.006 1.16813 1.65411 0
M  V30 2276 C 220.334 -0.28128 1.92455 0
M  V30 2277 O 219.589 -1.22006 1.53013 0
M  V30 2278 C 219.888 1.92224 3.01305 0
M  V30 2279 C 219.554 3.41968 2.93885 0
M  V30 2280 C 218.216 3.82807 2.91569 0
M  V30 2281 C 220.568 4.37409 2.83413 0
M  V30 2282 C 217.896 5.1741 2.76594 0
M  V30 2283 C 220.248 5.72097 2.69977 0
M  V30 2284 C 218.912 6.12199 2.66024 0
M  V30 2285 H 218.182 0.42745 0.605283 0
M  V30 2286 H 220.829 1.59981 1.05254 0
M  V30 2287 H 219.134 1.41635 3.65304 0
M  V30 2288 H 220.831 1.80131 3.58265 0
M  V30 2289 H 217.421 3.09504 2.96488 0
M  V30 2290 H 221.605 4.06813 2.84283 0
M  V30 2291 H 216.861 5.47596 2.71935 0
M  V30 2292 H 221.035 6.45704 2.60844 0
M  V30 2293 H 218.662 7.16448 2.54178 0
M  V30 2294 N 220.237 -1.11381 1.11499 0
M  V30 2295 C 221.17 -2.16621 0.71769 0
M  V30 2296 C 222.148 -1.60058 -0.286413 0
M  V30 2297 O 223.332 -1.87613 -0.182689 0
M  V30 2298 C 220.459 -3.38646 0.0607265 0
M  V30 2299 C 219.505 -4.13874 1.03008 0
M  V30 2300 S 220.338 -4.70731 2.55289 0
M  V30 2301 C 221.494 -5.96079 1.90895 0
M  V30 2302 H 221.727 -2.49987 1.60915 0
M  V30 2303 H 219.26 -1.23015 0.933092 0
M  V30 2304 H 221.218 -4.09313 -0.311965 0
M  V30 2305 H 219.879 -3.03537 -0.807702 0
M  V30 2306 H 219.072 -5.01333 0.517853 0
M  V30 2307 H 218.674 -3.4897 1.34522 0
M  V30 2308 H 220.966 -6.65948 1.24577 0
M  V30 2309 H 221.909 -6.51946 2.76354 0
M  V30 2310 H 222.317 -5.47652 1.36885 0
M  V30 2311 N 221.715 -0.905404 -1.28997 0
M  V30 2312 C 222.94 -0.549175 -1.99997 0
M  V30 2313 C 223.365 0.860276 -1.67275 0
M  V30 2314 O 222.723 1.57355 -0.900502 0
M  V30 2315 C 222.771 -0.755185 -3.52604 0
M  V30 2316 O 221.875 0.189692 -4.11964 0
M  V30 2317 H 221.216 -0.213899 -0.628604 0
M  V30 2318 H 223.746 -1.21856 -1.64354 0
M  V30 2319 H 223.756 -0.662045 -4.02593 0
M  V30 2320 H 222.431 -1.78271 -3.75755 0
M  V30 2321 H 221.008 0.0485257 -3.72868 0
M  V30 2322 N 223.193 1.4272 -0.668489 0
M  V30 2323 C 224.441 2.01226 -0.187769 0
M  V30 2324 C 224.762 1.53092 1.2078 0
M  V30 2325 O 224.032 0.74993 1.80977 0
M  V30 2326 H 222.612 0.744041 -0.0664272 0
M  V30 2327 H 225.274 1.74723 -0.863583 0
M  V30 2328 H 224.37 3.11556 -0.184166 0
M  V30 2329 N 224.671 0.411399 1.52136 0
M  V30 2330 C 225.92 -0.165009 2.01024 0
M  V30 2331 C 226.233 -1.4603 1.30133 0
M  V30 2332 O 227.439 -2.1181 1.69849 0
M  V30 2333 C 225.895 -0.344618 3.58246 0
M  V30 2334 C 225.503 0.938716 4.38055 0
M  V30 2335 C 227.247 -0.876195 4.15359 0
M  V30 2336 C 225.154 0.726172 5.86925 0
M  V30 2337 H 224.084 -0.0654407 0.751155 0
M  V30 2338 H 226.735 0.537192 1.75461 0
M  V30 2339 H 225.117 -1.10921 3.80148 0
M  V30 2340 H 226.291 1.70963 4.27912 0
M  V30 2341 H 224.606 1.39688 3.92271 0
M  V30 2342 H 227.203 -1.05128 5.24263 0
M  V30 2343 H 227.546 -1.85152 3.7286 0
M  V30 2344 H 228.079 -0.170607 3.97434 0
M  V30 2345 H 224.818 1.67312 6.33788 0
M  V30 2346 H 224.338 -0.00540283 5.998 0
M  V30 2347 H 226.017 0.369231 6.45946 0
M  V30 2348 N 226.149 -1.5696 0.141893 0
M  V30 2349 C 227.079 -2.19516 -0.795936 0
M  V30 2350 C 228.06 -1.14187 -1.26077 0
M  V30 2351 O 229.245 -1.42511 -1.31925 0
M  V30 2352 C 226.375 -2.81272 -2.03723 0
M  V30 2353 C 225.329 -3.92384 -1.70936 0
M  V30 2354 C 224.655 -4.41052 -3.02287 0
M  V30 2355 C 225.955 -5.13403 -0.959954 0
M  V30 2356 H 227.649 -2.98138 -0.274596 0
M  V30 2357 H 225.195 -1.43406 -0.130636 0
M  V30 2358 H 227.148 -3.237 -2.69808 0
M  V30 2359 H 225.872 -1.99973 -2.58221 0
M  V30 2360 H 224.531 -3.50566 -1.07232 0
M  V30 2361 H 224.179 -3.56582 -3.54765 0
M  V30 2362 H 223.879 -5.15993 -2.81114 0
M  V30 2363 H 225.403 -4.86146 -3.69451 0
M  V30 2364 H 226.817 -5.52706 -1.52279 0
M  V30 2365 H 225.214 -5.94073 -0.848357 0
M  V30 2366 H 226.284 -4.84875 0.0492434 0
M  V30 2367 N 227.627 0.131896 -1.57047 0
M  V30 2368 C 228.873 0.843179 -1.84441 0
M  V30 2369 C 229.206 1.80129 -0.725749 0
M  V30 2370 O 228.481 1.92624 0.269469 0
M  V30 2371 C 228.764 1.60442 -3.22382 0
M  V30 2372 C 228.617 0.666782 -4.4483 0
M  V30 2373 C 229.936 2.56354 -3.5773 0
M  V30 2374 H 227.055 0.305081 -0.670891 0
M  V30 2375 H 229.697 0.107839 -1.89694 0
M  V30 2376 H 227.847 2.23128 -3.18035 0
M  V30 2377 H 229.519 0.0497646 -4.61273 0
M  V30 2378 H 227.762 -0.022609 -4.33794 0
M  V30 2379 H 228.433 1.23579 -5.37989 0
M  V30 2380 H 230.909 2.0378 -3.62785 0
M  V30 2381 H 229.785 3.06657 -4.5525 0
M  V30 2382 H 230.046 3.38419 -2.84473 0
M  V30 2383 N 229.106 1.52395 0.401703 0
M  V30 2384 C 230.354 1.66488 1.14569 0
M  V30 2385 C 230.675 0.400897 1.90835 0
M  V30 2386 O 229.945 -0.584415 1.8698 0
M  V30 2387 H 228.525 0.613672 0.425929 0
M  V30 2388 H 231.187 1.89464 0.457093 0
M  V30 2389 H 230.283 2.50942 1.85566 0
M  V30 2390 N 230.584 -0.659388 1.43143 0
M  V30 2391 C 231.809 -1.45221 1.48073 0
M  V30 2392 C 232.234 -1.87845 0.097995 0
M  V30 2393 O 231.592 -1.56985 -0.90694 0
M  V30 2394 C 231.64 -2.66748 2.42647 0
M  V30 2395 O 230.744 -3.65583 1.90848 0
M  V30 2396 H 230.085 -0.435669 0.501088 0
M  V30 2397 H 232.615 -0.807432 1.87994 0
M  V30 2398 H 232.625 -3.14637 2.59745 0
M  V30 2399 H 231.3 -2.35067 3.43098 0
M  V30 2400 H 229.877 -3.24693 1.83381 0
M  V30 2401 N 232.062 -1.29571 -0.897171 0
M  V30 2402 C 233.309 -1.17689 -1.6479 0
M  V30 2403 C 233.637 0.27107 -1.92602 0
M  V30 2404 O 232.892 1.21193 -1.53658 0
M  V30 2405 C 233.191 -1.9382 -3.00281 0
M  V30 2406 C 232.857 -3.43522 -2.92068 0
M  V30 2407 C 231.519 -3.84348 -2.89535 0
M  V30 2408 C 233.871 -4.38906 -2.81089 0
M  V30 2409 C 231.199 -5.18869 -2.73846 0
M  V30 2410 C 233.551 -5.73521 -2.66939 0
M  V30 2411 C 232.215 -6.13601 -2.62774 0
M  V30 2412 H 231.485 -0.430654 -0.603008 0
M  V30 2413 H 234.132 -1.60536 -1.04404 0
M  V30 2414 H 232.437 -1.4357 -3.64547 0
M  V30 2415 H 234.134 -1.82028 -3.57305 0
M  V30 2416 H 230.724 -3.11072 -2.94842 0
M  V30 2417 H 234.908 -4.08315 -2.82121 0
M  V30 2418 H 230.164 -5.4903 -2.69027 0
M  V30 2419 H 234.338 -6.47078 -2.57416 0
M  V30 2420 H 231.965 -7.17786 -2.50375 0
M  V30 2421 N 233.54 1.10788 -1.12088 0
M  V30 2422 C 234.789 1.82036 -0.868659 0
M  V30 2423 C 235.102 1.85929 0.607426 0
M  V30 2424 O 236.308 2.53346 0.97613 0
M  V30 2425 C 234.764 3.26951 -1.50435 0
M  V30 2426 C 234.372 3.31367 -3.01496 0
M  V30 2427 C 236.116 4.03053 -1.33225 0
M  V30 2428 C 234.023 4.7072 -3.58017 0
M  V30 2429 H 232.953 0.682108 -0.321318 0
M  V30 2430 H 235.604 1.24618 -1.34694 0
M  V30 2431 H 233.986 3.84343 -0.953735 0
M  V30 2432 H 235.16 2.83819 -3.6302 0
M  V30 2433 H 233.475 2.6875 -3.18061 0
M  V30 2434 H 236.072 5.05981 -1.72878 0
M  V30 2435 H 236.415 4.15387 -0.275529 0
M  V30 2436 H 236.948 3.52066 -1.85188 0
M  V30 2437 H 233.687 4.63585 -4.63432 0
M  V30 2438 H 233.207 5.1865 -3.01268 0
M  V30 2439 H 234.886 5.39685 -3.56859 0
M  V30 2440 N 235.018 0.912232 1.28515 0
M  V30 2441 C 236.264 0.554851 1.95686 0
M  V30 2442 C 236.619 -0.89138 1.70506 0
M  V30 2443 O 235.912 -1.62529 1.01464 0
M  V30 2444 C 236.106 0.798392 3.48368 0
M  V30 2445 C 235.935 2.26674 3.88393 0
M  V30 2446 C 234.705 2.91657 4.12631 0
M  V30 2447 C 236.903 3.24303 3.99164 0
M  V30 2448 N 234.885 4.28805 4.39317 0
M  V30 2449 C 236.256 4.4661 4.30046 0
M  V30 2450 C 238.311 3.19723 3.81683 0
M  V30 2451 C 237.014 5.64915 4.45268 0
M  V30 2452 C 239.04 4.37325 3.98121 0
M  V30 2453 C 238.402 5.58406 4.29375 0
M  V30 2454 H 234.501 0.252876 0.739985 0
M  V30 2455 H 237.085 1.17565 1.55199 0
M  V30 2456 H 235.256 0.20688 3.87849 0
M  V30 2457 H 236.988 0.405193 4.02666 0
M  V30 2458 H 233.743 2.42393 4.06869 0
M  V30 2459 H 234.167 4.99712 4.56746 0
M  V30 2460 H 238.809 2.27191 3.56573 0
M  V30 2461 H 236.527 6.57927 4.6921 0
M  V30 2462 H 240.113 4.35282 3.86033 0
M  V30 2463 H 238.993 6.47889 4.41825 0
M  V30 2464 N 236.496 -1.42363 0.676048 0
M  V30 2465 C 237.744 -2.01123 0.198437 0
M  V30 2466 C 238.065 -1.53731 -1.19966 0
M  V30 2467 O 237.335 -0.759518 -1.80577 0
M  V30 2468 H 235.915 -0.743678 0.0703721 0
M  V30 2469 H 238.577 -1.74263 0.872837 0
M  V30 2470 H 237.673 -3.11454 0.200686 0
M  V30 2471 N 237.974 -0.419461 -1.51915 0
M  V30 2472 C 238.904 0.391813 -2.30189 0
M  V30 2473 C 239.885 1.03699 -1.34836 0
M  V30 2474 O 241.07 1.04403 -1.63748 0
M  V30 2475 C 238.2 1.50312 -3.13087 0
M  V30 2476 C 237.154 0.9824 -4.16573 0
M  V30 2477 C 236.48 2.18809 -4.8788 0
M  V30 2478 C 237.78 0.0292356 -5.22292 0
M  V30 2479 H 239.474 -0.26135 -2.98257 0
M  V30 2480 H 237.02 -0.127134 -1.43438 0
M  V30 2481 H 238.973 2.07773 -3.66617 0
M  V30 2482 H 237.697 2.18431 -2.42807 0
M  V30 2483 H 236.356 0.430119 -3.64068 0
M  V30 2484 H 236.004 2.85507 -4.14119 0
M  V30 2485 H 235.704 1.84615 -5.57845 0
M  V30 2486 H 237.228 2.76858 -5.44226 0
M  V30 2487 H 238.642 0.512976 -5.71 0
M  V30 2488 H 237.039 -0.2244 -5.9968 0
M  V30 2489 H 238.109 -0.912931 -4.76228 0
M  V30 2490 N 239.452 1.56882 -0.150215 0
M  V30 2491 C 240.382 2.19935 0.784284 0
M  V30 2492 C 241.363 1.14854 1.25469 0
M  V30 2493 O 242.548 1.43209 1.31168 0
M  V30 2494 C 239.678 2.82349 2.02229 0
M  V30 2495 C 238.632 3.93285 1.68853 0
M  V30 2496 C 237.958 4.42649 2.99944 0
M  V30 2497 C 239.258 5.13904 0.932714 0
M  V30 2498 H 240.952 2.9828 0.258781 0
M  V30 2499 H 238.498 1.43473 0.123029 0
M  V30 2500 H 240.451 3.25126 2.68088 0
M  V30 2501 H 239.175 2.0134 2.57157 0
M  V30 2502 H 237.834 3.5113 1.05371 0
M  V30 2503 H 237.482 3.58458 3.52869 0
M  V30 2504 H 237.182 5.17476 2.78374 0
M  V30 2505 H 238.706 4.88099 3.66868 0
M  V30 2506 H 240.12 5.53506 1.49345 0
M  V30 2507 H 238.517 5.94515 0.81684 0
M  V30 2508 H 239.587 4.84842 -0.0749568 0
M  V30 2509 N 240.93 -0.123565 1.57115 0
M  V30 2510 C 242.155 -0.850398 1.89164 0
M  V30 2511 C 242.58 -1.7286 0.741688 0
M  V30 2512 O 241.938 -1.78665 -0.307958 0
M  V30 2513 C 241.986 -1.66353 3.19936 0
M  V30 2514 O 241.09 -2.77004 3.0552 0
M  V30 2515 H 240.431 -0.235454 0.620852 0
M  V30 2516 H 242.961 -0.107335 2.04318 0
M  V30 2517 H 242.971 -2.05372 3.52543 0
M  V30 2518 H 241.646 -1.01881 4.03228 0
M  V30 2519 H 240.223 -2.41221 2.84371 0
M  V30 2520 N 242.408 -1.52605 -0.393616 0
M  V30 2521 C 243.638 -1.71046 -1.15874 0
M  V30 2522 C 244.046 -0.426483 -1.84331 0
M  V30 2523 O 243.389 0.608513 -1.73329 0
M  V30 2524 C 243.451 -2.80118 -2.25332 0
M  V30 2525 C 243.115 -4.21381 -1.76881 0
M  V30 2526 C 244.112 -5.04697 -1.24808 0
M  V30 2527 C 241.797 -4.67683 -1.83244 0
M  V30 2528 C 243.791 -6.32393 -0.797387 0
M  V30 2529 C 241.478 -5.95364 -1.37787 0
M  V30 2530 C 242.476 -6.77549 -0.861208 0
M  V30 2531 O 242.164 -8.02837 -0.413252 0
M  V30 2532 H 241.896 -0.576155 -0.353583 0
M  V30 2533 H 244.45 -2.00018 -0.467123 0
M  V30 2534 H 242.68 -2.46557 -2.97904 0
M  V30 2535 H 244.369 -2.87006 -2.87023 0
M  V30 2536 H 245.135 -4.70111 -1.19252 0
M  V30 2537 H 241.014 -4.03805 -2.22401 0
M  V30 2538 H 244.558 -6.9649 -0.393437 0
M  V30 2539 H 240.455 -6.29455 -1.43026 0
M  V30 2540 H 241.223 -8.16749 -0.53515 0
M  V30 2541 N 243.887 0.651787 -1.4349 0
M  V30 2542 C 245.303 0.96762 -1.26922 0
M  V30 2543 C 245.503 2.00602 -0.189982 0
M  V30 2544 O 244.559 2.48793 0.431107 0
M  V30 2545 C 245.872 1.45052 -2.63401 0
M  V30 2546 C 247.42 1.5671 -2.70945 0
M  V30 2547 C 247.895 2.0839 -4.07845 0
M  V30 2548 N 249.386 2.1569 -4.09917 0
M  V30 2549 C 250.121 2.56804 -5.12679 0
M  V30 2550 N 249.617 2.97203 -6.25813 0
M  V30 2551 N 251.41 2.56756 -5.00033 0
M  V30 2552 H 243.561 -0.0353158 -2.12371 0
M  V30 2553 H 245.824 0.0467858 -0.946845 0
M  V30 2554 H 245.53 0.761926 -3.43348 0
M  V30 2555 H 245.404 2.42529 -2.88894 0
M  V30 2556 H 247.791 2.2467 -1.9133 0
M  V30 2557 H 247.872 0.57662 -2.49216 0
M  V30 2558 H 247.516 1.41031 -4.87927 0
M  V30 2559 H 247.446 3.08271 -4.26938 0
M  V30 2560 H 249.937 1.87237 -3.28254 0
M  V30 2561 H 250.25 3.27328 -7.00055 0
M  V30 2562 H 248.595 2.95004 -6.29283 0
M  V30 2563 H 251.786 2.24572 -4.10713 0
M  V30 2564 H 251.959 2.88475 -5.80247 0
M  V30 2565 N 245.365 1.30045 0.890287 0
M  V30 2566 C 246.612 1.18561 1.64163 0
M  V30 2567 C 246.94 -0.260852 1.92743 0
M  V30 2568 O 246.195 -1.20376 1.54299 0
M  V30 2569 C 246.494 1.95409 2.99249 0
M  V30 2570 C 246.16 3.45066 2.90242 0
M  V30 2571 C 244.822 3.85878 2.87492 0
M  V30 2572 C 247.174 4.4039 2.78758 0
M  V30 2573 C 244.502 5.20314 2.7109 0
M  V30 2574 C 246.854 5.74928 2.63894 0
M  V30 2575 C 245.518 6.14986 2.59516 0
M  V30 2576 H 244.788 0.433846 0.600715 0
M  V30 2577 H 247.435 1.61088 1.03552 0
M  V30 2578 H 245.74 1.45501 3.63781 0
M  V30 2579 H 247.437 1.8392 3.56334 0
M  V30 2580 H 244.027 3.12631 2.93189 0
M  V30 2581 H 248.211 4.09806 2.79952 0
M  V30 2582 H 243.467 5.50449 2.66112 0
M  V30 2583 H 247.641 6.48434 2.53981 0
M  V30 2584 H 245.268 7.19104 2.46565 0
M  V30 2585 N 246.843 -1.10192 1.12674 0
M  V30 2586 C 248.091 -1.81845 0.881861 0
M  V30 2587 C 248.412 -1.85737 -0.593867 0
M  V30 2588 O 247.682 -1.33724 -1.4316 0
M  V30 2589 H 246.262 -0.673432 0.323261 0
M  V30 2590 H 248.924 -1.33316 1.42172 0
M  V30 2591 H 248.02 -2.85288 1.2656 0
M  V30 2592 N 248.321 -0.919034 -1.28029 0
M  V30 2593 C 249.737 -0.617972 -1.4715 0
M  V30 2594 C 249.937 0.835242 -1.83374 0
M  V30 2595 O 248.993 1.61388 -1.94191 0
M  V30 2596 C 250.306 -1.56041 -2.57044 0
M  V30 2597 C 251.854 -1.56769 -2.7091 0
M  V30 2598 C 252.329 -2.49688 -3.83953 0
M  V30 2599 N 253.82 -2.47845 -3.91314 0
M  V30 2600 C 254.555 -3.16437 -4.78179 0
M  V30 2601 N 254.051 -3.94376 -5.69596 0
M  V30 2602 N 255.844 -3.05498 -4.71834 0
M  V30 2603 H 247.995 -1.85866 -1.02798 0
M  V30 2604 H 250.258 -0.797506 -0.512531 0
M  V30 2605 H 249.964 -2.59671 -2.372 0
M  V30 2606 H 249.838 -1.29551 -3.54255 0
M  V30 2607 H 252.225 -0.538745 -2.90141 0
M  V30 2608 H 252.306 -1.87305 -1.74214 0
M  V30 2609 H 251.95 -3.52688 -3.65477 0
M  V30 2610 H 251.88 -2.16453 -4.80058 0
M  V30 2611 H 254.371 -1.91234 -3.25941 0
M  V30 2612 H 254.684 -4.43721 -6.32718 0
M  V30 2613 H 253.029 -3.98481 -5.69419 0
M  V30 2614 H 256.22 -2.44108 -3.99411 0
M  V30 2615 H 256.393 -3.59225 -5.39316 0
M  V30 2616 N 249.799 1.42003 -0.683588 0
M  V30 2617 C 250.746 2.30798 -0.0107309 0
M  V30 2618 C 251.716 1.4645 0.783688 0
M  V30 2619 O 252.901 1.75263 0.754156 0
M  V30 2620 C 250.041 3.3238 0.928306 0
M  V30 2621 C 249.154 4.31814 0.126776 0
M  V30 2622 C 248.289 5.20468 1.06236 0
M  V30 2623 C 247.328 6.11577 0.253035 0
M  V30 2624 N 246.465 6.92754 1.14179 0
M  V30 2625 H 251.305 2.8778 -0.773727 0
M  V30 2626 H 248.842 1.41745 -0.393283 0
M  V30 2627 H 250.8 3.89813 1.48666 0
M  V30 2628 H 249.43 2.76976 1.65783 0
M  V30 2629 H 248.482 3.76427 -0.54833 0
M  V30 2630 H 249.794 4.96276 -0.501192 0
M  V30 2631 H 248.948 5.82677 1.69035 0
M  V30 2632 H 247.687 4.56204 1.7242 0
M  V30 2633 H 246.692 5.48428 -0.388108 0
M  V30 2634 H 247.917 6.77892 -0.404839 0
M  V30 2635 H 245.863 6.3111 1.78987 0
M  V30 2636 H 245.78 7.53855 0.569111 0
M  V30 2637 H 247.048 7.59441 1.75697 0
M  V30 2638 N 251.277 0.427512 1.51691 0
M  V30 2639 C 252.688 -0.0378867 1.86662 0
M  V30 2640 C 253.039 -1.42819 1.34525 0
M  V30 2641 O 252.164 -2.05037 0.692014 0
M  V30 2642 C 252.759 -0.0755266 3.38716 0
M  V30 2643 C 251.318 -0.485309 3.73258 0
M  V30 2644 C 250.465 0.328399 2.75349 0
M  V30 2645 H 253.416 0.64379 1.45055 0
M  V30 2646 H 253.437 -0.887056 3.70016 0
M  V30 2647 H 252.949 0.936487 3.76632 0
M  V30 2648 H 251.05 -1.50329 3.40928 0
M  V30 2649 H 251.163 -0.21693 4.78609 0
M  V30 2650 H 249.527 -0.211905 2.53817 0
M  V30 2651 H 250.31 1.3391 3.16106 0
M  V30 2652 N 252.755 -1.56801 0.158532 0
M  V30 2653 C 253.688 -2.13148 -0.815065 0
M  V30 2654 C 254.666 -1.0581 -1.23462 0
M  V30 2655 O 255.85 -1.3371 -1.32868 0
M  V30 2656 C 252.977 -2.6606 -2.09594 0
M  V30 2657 C 252.023 -3.85651 -1.82141 0
M  V30 2658 S 252.856 -5.26041 -1.00207 0
M  V30 2659 C 254.012 -5.8235 -2.29389 0
M  V30 2660 H 254.245 -2.95396 -0.335937 0
M  V30 2661 H 251.778 -1.54299 -0.0559391 0
M  V30 2662 H 253.736 -2.97195 -2.8317 0
M  V30 2663 H 252.397 -1.83921 -2.54621 0
M  V30 2664 H 251.59 -4.20958 -2.77147 0
M  V30 2665 H 251.192 -3.55338 -1.16667 0
M  V30 2666 H 253.484 -5.94485 -3.24952 0
M  V30 2667 H 254.427 -6.79688 -1.9857 0
M  V30 2668 H 254.835 -5.10675 -2.40564 0
M  V30 2669 N 254.233 0.115231 -1.57178 0
M  V30 2670 C 255.163 1.1423 -2.03651 0
M  V30 2671 C 256.144 1.42967 -0.921655 0
M  V30 2672 O 257.329 1.53343 -1.19162 0
M  V30 2673 C 254.459 2.4675 -2.44401 0
M  V30 2674 C 253.413 2.32467 -3.59365 0
M  V30 2675 C 252.739 3.69984 -3.86026 0
M  V30 2676 C 254.039 1.78203 -4.90959 0
M  V30 2677 H 255.733 0.755749 -2.89705 0
M  V30 2678 H 253.279 0.362093 -1.39373 0
M  V30 2679 H 255.232 3.18854 -2.75517 0
M  V30 2680 H 253.956 2.87302 -1.55322 0
M  V30 2681 H 252.615 1.62811 -3.28463 0
M  V30 2682 H 252.263 4.08028 -2.94147 0
M  V30 2683 H 251.963 3.61279 -4.63412 0
M  V30 2684 H 253.487 4.43587 -4.19599 0
M  V30 2685 H 254.901 2.40128 -5.20587 0
M  V30 2686 H 253.298 1.8031 -5.72371 0
M  V30 2687 H 254.368 0.739876 -4.79222 0
M  V30 2688 N 255.711 1.52812 0.385517 0
M  V30 2689 C 256.936 1.72207 1.15583 0
M  V30 2690 C 257.361 0.441034 1.82857 0
M  V30 2691 O 256.719 -0.603465 1.70962 0
M  V30 2692 C 256.767 2.87476 2.17692 0
M  V30 2693 O 255.871 2.54693 3.24354 0
M  V30 2694 H 255.212 0.572526 0.336319 0
M  V30 2695 H 257.742 1.99618 0.448744 0
M  V30 2696 H 257.752 3.13072 2.6163 0
M  V30 2697 H 256.427 3.80408 1.68115 0
M  V30 2698 H 255.004 2.3985 2.85529 0
M  V30 2699 N 257.189 -0.644168 1.43834 0
M  V30 2700 C 258.435 -1.40431 1.47141 0
M  V30 2701 C 258.79 -1.92153 0.0975577 0
M  V30 2702 O 258.083 -1.69924 -0.885232 0
M  V30 2703 C 258.277 -2.59615 2.45631 0
M  V30 2704 C 258.106 -2.1956 3.92458 0
M  V30 2705 C 256.876 -2.07456 4.60749 0
M  V30 2706 C 259.074 -1.79281 4.8204 0
M  V30 2707 N 257.056 -1.60827 5.92459 0
M  V30 2708 C 258.427 -1.43801 6.03093 0
M  V30 2709 C 260.482 -1.66545 4.6922 0
M  V30 2710 C 259.185 -0.968599 7.12749 0
M  V30 2711 C 261.211 -1.21008 5.78888 0
M  V30 2712 C 260.573 -0.864711 6.99072 0
M  V30 2713 H 256.672 -0.509182 0.593513 0
M  V30 2714 H 259.256 -0.740351 1.80075 0
M  V30 2715 H 257.427 -3.23658 2.1471 0
M  V30 2716 H 259.159 -3.26357 2.39318 0
M  V30 2717 H 255.914 -2.275 4.1538 0
M  V30 2718 H 256.338 -1.39848 6.62398 0
M  V30 2719 H 260.98 -1.91883 3.7675 0
M  V30 2720 H 258.698 -0.702715 8.05039 0
M  V30 2721 H 262.284 -1.11631 5.7099 0
M  V30 2722 H 261.164 -0.517736 7.82489 0
M  V30 2723 N 258.668 -1.30515 -0.883378 0
M  V30 2724 C 259.908 -1.20716 -1.64946 0
M  V30 2725 C 260.272 0.234072 -1.90568 0
M  V30 2726 O 261.473 0.455335 -2.64915 0
M  V30 2727 C 259.744 -2.01444 -2.9522 0
M  V30 2728 S 261.303 -2.0836 -3.86175 0
M  V30 2729 H 258.121 -0.430165 -0.566109 0
M  V30 2730 H 260.723 -1.65011 -1.04841 0
M  V30 2731 H 259.427 -3.05268 -2.74298 0
M  V30 2732 H 258.958 -1.57817 -3.60357 0
M  V30 2733 H 260.973 -1.21215 -4.81167 0
M  V30 2734 N 260.146 1.09593 -1.13257 0
M  V30 2735 C 261.386 1.83349 -0.903472 0
M  V30 2736 C 261.75 1.83641 0.560351 0
M  V30 2737 O 262.951 2.53037 0.906947 0
M  V30 2738 C 261.222 3.25629 -1.47311 0
M  V30 2739 S 262.781 4.16408 -1.38382 0
M  V30 2740 H 259.599 0.632014 -0.325699 0
M  V30 2741 H 262.201 1.31817 -1.44376 0
M  V30 2742 H 260.905 3.22991 -2.53189 0
M  V30 2743 H 260.436 3.82233 -0.930689 0
M  V30 2744 H 262.451 4.94884 -0.361113 0
M  V30 2745 N 261.624 0.925811 1.2754 0
M  V30 2746 C 262.554 0.440748 2.29303 0
M  V30 2747 C 263.535 -0.497971 1.62648 0
M  V30 2748 O 264.72 -0.403126 1.8997 0
M  V30 2749 C 261.85 -0.309048 3.45922 0
M  V30 2750 C 260.804 0.54166 4.24559 0
M  V30 2751 C 260.13 -0.337191 5.33636 0
M  V30 2752 C 261.43 1.80516 4.90114 0
M  V30 2753 H 263.124 1.29121 2.70126 0
M  V30 2754 H 260.67 0.622323 1.29858 0
M  V30 2755 H 262.623 -0.659315 4.1621 0
M  V30 2756 H 261.347 -1.19352 3.04011 0
M  V30 2757 H 260.006 0.874609 3.56014 0
M  V30 2758 H 259.654 -1.22056 4.87966 0
M  V30 2759 H 259.354 0.228497 5.87156 0
M  V30 2760 H 260.878 -0.683072 6.06767 0
M  V30 2761 H 262.292 1.52307 5.52698 0
M  V30 2762 H 260.689 2.3142 5.53683 0
M  V30 2763 H 261.759 2.52581 4.13921 0
M  V30 2764 N 263.102 -1.41638 0.69111 0
M  V30 2765 C 264.034 -2.29194 -0.0161523 0
M  V30 2766 C 265.047 -1.44549 -0.748955 0
M  V30 2767 O 266.236 -1.681 -0.6004 0
M  V30 2768 C 263.336 -3.22325 -1.0469 0
M  V30 2769 C 262.509 -4.35706 -0.384621 0
M  V30 2770 C 261.568 -5.09443 -1.31737 0
M  V30 2771 O 260.594 -5.63386 -0.811451 0
M  V30 2772 N 261.796 -5.16487 -2.64993 0
M  V30 2773 H 264.561 -2.90534 0.735523 0
M  V30 2774 H 262.122 -1.52742 0.53679 0
M  V30 2775 H 264.114 -3.68522 -1.67252 0
M  V30 2776 H 262.684 -2.62323 -1.70015 0
M  V30 2777 H 261.904 -3.91948 0.420804 0
M  V30 2778 H 263.192 -5.08743 0.0760765 0
M  V30 2779 H 262.59 -4.741 -3.08619 0
M  V30 2780 H 261.147 -5.66276 -3.22761 0
M  V30 2781 N 264.58 -0.43555 -1.51462 0
M  V30 2782 C 265.51 0.367376 -2.30592 0
M  V30 2783 C 266.491 1.02263 -1.35928 0
M  V30 2784 O 267.676 1.02661 -1.64847 0
M  V30 2785 C 264.806 1.46983 -3.14664 0
M  V30 2786 C 263.76 0.938161 -4.17591 0
M  V30 2787 C 263.086 2.13622 -4.90173 0
M  V30 2788 C 264.386 -0.0261621 -5.22293 0
M  V30 2789 H 266.08 -0.292969 -2.97963 0
M  V30 2790 H 263.626 -0.14234 -1.43295 0
M  V30 2791 H 265.579 2.03873 -3.688 0
M  V30 2792 H 264.303 2.15843 -2.4511 0
M  V30 2793 H 262.962 0.391481 -3.64504 0
M  V30 2794 H 262.61 2.81098 -4.17124 0
M  V30 2795 H 262.31 1.78688 -5.59772 0
M  V30 2796 H 263.834 2.7107 -5.47132 0
M  V30 2797 H 265.248 0.452384 -5.71512 0
M  V30 2798 H 263.645 -0.287992 -5.99409 0
M  V30 2799 H 264.715 -0.963391 -4.75233 0
M  V30 2800 N 266.058 1.56714 -0.166846 0
M  V30 2801 C 267.021 2.16539 0.751232 0
M  V30 2802 C 268.021 1.11228 1.16125 0
M  V30 2803 O 269.211 1.36765 1.07894 0
M  V30 2804 C 266.343 2.74462 2.02196 0
M  V30 2805 H 267.536 2.99013 0.230499 0
M  V30 2806 H 265.089 1.56081 0.0826982 0
M  V30 2807 H 265.824 1.95709 2.58589 0
M  V30 2808 H 265.609 3.51527 1.73698 0
M  V30 2809 H 267.099 3.20489 2.67725 0
M  V30 2810 N 267.536 -0.106894 1.57237 0
M  V30 2811 C 268.782 -0.81373 1.85759 0
M  V30 2812 C 269.115 -1.78952 0.754315 0
M  V30 2813 O 268.39 -1.93029 -0.23879 0
M  V30 2814 C 268.673 -1.55293 3.24894 0
M  V30 2815 C 268.526 -0.595929 4.45835 0
M  V30 2816 C 269.845 -2.5063 3.61763 0
M  V30 2817 H 266.964 -0.294369 0.67566 0
M  V30 2818 H 269.606 -0.0776472 1.89841 0
M  V30 2819 H 267.756 -2.1804 3.21544 0
M  V30 2820 H 269.428 0.0236262 4.61294 0
M  V30 2821 H 267.671 0.0916191 4.33703 0
M  V30 2822 H 268.342 -1.15004 5.39887 0
M  V30 2823 H 270.818 -1.97982 3.65981 0
M  V30 2824 H 269.694 -2.99376 4.60071 0
M  V30 2825 H 269.955 -3.3385 2.89821 0
M  V30 2826 N 269.014 -1.53014 -0.377408 0
M  V30 2827 C 269.977 -1.77957 -1.44444 0
M  V30 2828 C 270.977 -0.649763 -1.47087 0
M  V30 2829 O 272.167 -0.917897 -1.48055 0
M  V30 2830 C 269.299 -1.89089 -2.83651 0
M  V30 2831 H 270.492 -2.73243 -1.23606 0
M  V30 2832 H 268.045 -1.43912 -0.609844 0
M  V30 2833 H 268.78 -0.958293 -3.09818 0
M  V30 2834 H 268.565 -2.71254 -2.83132 0
M  V30 2835 H 270.055 -2.1002 -3.60945 0
M  V30 2836 N 270.492 0.636531 -1.44174 0
M  V30 2837 C 271.74 1.39343 -1.46383 0
M  V30 2838 C 272.061 1.94766 -0.0955715 0
M  V30 2839 O 271.331 1.75452 0.871395 0
M  V30 2840 H 269.911 0.517199 -0.538994 0
M  V30 2841 H 272.573 0.74957 -1.7991 0
M  V30 2842 H 271.669 2.22746 -2.18611 0
M  V30 2843 N 271.97 1.30982 0.876444 0
M  V30 2844 C 273.198 1.23242 1.6619 0
M  V30 2845 C 273.613 -0.203345 1.87702 0
M  V30 2846 O 272.97 -1.13317 1.43057 0
M  V30 2847 C 273.021 1.96623 3.03351 0
M  V30 2848 O 272.742 3.34594 2.82804 0
M  V30 2849 C 274.243 1.95644 3.97792 0
M  V30 2850 H 271.463 0.426126 0.518322 0
M  V30 2851 H 274.007 1.7275 1.09442 0
M  V30 2852 H 272.162 1.50892 3.56806 0
M  V30 2853 H 272.576 3.71873 3.69879 0
M  V30 2854 H 274.05 2.51511 4.91372 0
M  V30 2855 H 274.527 0.937395 4.2908 0
M  V30 2856 H 275.133 2.41225 3.50272 0
M  V30 2857 N 273.449 -1.08991 1.13837 0
M  V30 2858 C 274.674 -1.85551 0.926585 0
M  V30 2859 C 275.099 -1.80782 -0.519566 0
M  V30 2860 O 274.457 -1.18855 -1.36906 0
M  V30 2861 C 274.505 -3.31266 1.42462 0
M  V30 2862 O 273.609 -4.07822 0.612789 0
M  V30 2863 H 272.95 -0.575192 0.331738 0
M  V30 2864 H 275.48 -1.37604 1.51414 0
M  V30 2865 H 275.49 -3.82112 1.43019 0
M  V30 2866 H 274.165 -3.34052 2.47754 0
M  V30 2867 H 272.742 -3.66731 0.675463 0
M  V30 2868 N 274.927 -0.932562 -1.27047 0
M  V30 2869 C 276.155 -0.592031 -1.98249 0
M  V30 2870 C 276.57 0.831062 -1.69525 0
M  V30 2871 O 275.927 1.55299 -0.958561 0
M  V30 2872 C 275.978 -0.814279 -3.5221 0
M  V30 2873 O 275.699 -2.18139 -3.7993 0
M  V30 2874 C 277.2 -0.483121 -4.4066 0
M  V30 2875 H 274.42 -0.223896 -0.632544 0
M  V30 2876 H 276.964 -1.25091 -1.61779 0
M  V30 2877 H 275.119 -0.20213 -3.86872 0
M  V30 2878 H 275.533 -2.235 -4.74498 0
M  V30 2879 H 277.007 -0.689298 -5.47679 0
M  V30 2880 H 277.484 0.581546 -4.35333 0
M  V30 2881 H 278.09 -1.07362 -4.11526 0
M  V30 2882 N 276.405 1.4127 -0.698611 0
M  V30 2883 C 277.654 2.00408 -0.227949 0
M  V30 2884 C 277.967 1.55981 1.18023 0
M  V30 2885 O 279.173 2.07699 1.74852 0
M  V30 2886 C 277.629 3.58129 -0.356636 0
M  V30 2887 C 277.237 4.11536 -1.77037 0
M  V30 2888 C 278.981 4.24466 0.0540969 0
M  V30 2889 C 276.888 5.61701 -1.85055 0
M  V30 2890 H 275.818 0.749586 -0.0814657 0
M  V30 2891 H 278.469 1.61713 -0.867249 0
M  V30 2892 H 276.851 3.94442 0.350965 0
M  V30 2893 H 278.025 3.86636 -2.50698 0
M  V30 2894 H 276.34 3.57736 -2.13105 0
M  V30 2895 H 278.937 5.34698 0.0146723 0
M  V30 2896 H 279.28 4.01687 1.09332 0
M  V30 2897 H 279.813 3.93198 -0.603337 0
M  V30 2898 H 276.552 5.89312 -2.8704 0
M  V30 2899 H 276.072 5.88519 -1.15783 0
M  V30 2900 H 277.751 6.26524 -1.61484 0
M  V30 2901 N 277.883 0.443576 1.51229 0
M  V30 2902 C 279.13 -0.120796 2.02139 0
M  V30 2903 C 279.458 -1.42166 1.32736 0
M  V30 2904 O 278.713 -1.90849 0.43301 0
M  V30 2905 C 279.012 -0.380579 3.55368 0
M  V30 2906 C 278.678 0.83523 4.43097 0
M  V30 2907 C 277.34 1.16864 4.66794 0
M  V30 2908 C 279.692 1.64601 4.94526 0
M  V30 2909 C 277.02 2.31339 5.39165 0
M  V30 2910 C 279.372 2.78181 5.68153 0
M  V30 2911 C 278.036 3.11969 5.90112 0
M  V30 2912 H 277.306 -0.0442023 0.73968 0
M  V30 2913 H 279.953 0.592046 1.82118 0
M  V30 2914 H 278.258 -1.17538 3.73754 0
M  V30 2915 H 279.955 -0.830777 3.923 0
M  V30 2916 H 276.545 0.565437 4.24854 0
M  V30 2917 H 280.729 1.40163 4.76097 0
M  V30 2918 H 275.985 2.57823 5.5438 0
M  V30 2919 H 280.159 3.41371 6.06992 0
M  V30 2920 H 277.786 4.00784 6.45969 0
M  V30 2921 N 279.361 -1.56624 0.175154 0
M  V30 2922 C 280.324 -2.16934 -0.739738 0
M  V30 2923 C 281.324 -1.11842 -1.15533 0
M  V30 2924 O 282.514 -1.37335 -1.07167 0
M  V30 2925 C 279.646 -2.75531 -2.00738 0
M  V30 2926 H 280.839 -2.99131 -0.214639 0
M  V30 2927 H 278.392 -1.56123 -0.0744197 0
M  V30 2928 H 279.127 -1.97078 -2.57548 0
M  V30 2929 H 278.912 -3.52444 -1.71831 0
M  V30 2930 H 280.402 -3.21904 -2.66021 0
M  V30 2931 N 280.839 0.0985539 -1.57292 0
M  V30 2932 C 282.25 0.653457 -1.74891 0
M  V30 2933 C 282.601 1.7929 -0.796838 0
M  V30 2934 O 281.726 2.16385 0.0254886 0
M  V30 2935 C 282.321 1.19216 -3.17133 0
M  V30 2936 C 280.88 1.69316 -3.36168 0
M  V30 2937 C 280.027 0.601294 -2.70702 0
M  V30 2938 H 282.978 -0.127497 -1.58187 0
M  V30 2939 H 282.999 2.06154 -3.19814 0
M  V30 2940 H 282.511 0.362635 -3.86402 0
M  V30 2941 H 280.612 2.5468 -2.71972 0
M  V30 2942 H 280.725 1.78853 -4.44464 0
M  V30 2943 H 279.089 1.0399 -2.32504 0
M  V30 2944 H 279.872 -0.217592 -3.4261 0
M  V30 2945 N 282.317 1.53212 0.369288 0
M  V30 2946 C 283.545 1.73119 1.13303 0
M  V30 2947 C 283.96 0.458455 1.83149 0
M  V30 2948 O 283.317 -0.568403 1.73423 0
M  V30 2949 C 283.368 2.89413 2.16616 0
M  V30 2950 O 283.089 4.11761 1.49614 0
M  V30 2951 C 284.59 3.21161 3.05566 0
M  V30 2952 H 281.81 0.579107 0.338934 0
M  V30 2953 H 284.354 1.99942 0.429338 0
M  V30 2954 H 282.509 2.64994 2.82589 0
M  V30 2955 H 282.923 4.76858 2.18419 0
M  V30 2956 H 284.397 4.05949 3.74045 0
M  V30 2957 H 284.874 2.36369 3.70171 0
M  V30 2958 H 285.48 3.47492 2.45213 0
M  V30 2959 N 283.795 -0.628877 1.44509 0
M  V30 2960 C 285.042 -1.38839 1.47411 0
M  V30 2961 C 285.37 -1.94202 0.10757 0
M  V30 2962 O 284.625 -1.74243 -0.890947 0
M  V30 2963 C 284.924 -2.56995 2.48371 0
M  V30 2964 C 284.59 -2.19908 3.93639 0
M  V30 2965 C 283.252 -2.09506 4.33198 0
M  V30 2966 C 285.604 -1.9064 4.85083 0
M  V30 2967 C 282.932 -1.68028 5.62124 0
M  V30 2968 C 285.284 -1.50655 6.14399 0
M  V30 2969 C 283.948 -1.38796 6.5291 0
M  V30 2970 H 283.218 -0.508048 0.539414 0
M  V30 2971 H 285.865 -0.712913 1.77735 0
M  V30 2972 H 284.17 -3.29786 2.11538 0
M  V30 2973 H 285.867 -3.15223 2.47861 0
M  V30 2974 H 282.457 -2.28922 3.62343 0
M  V30 2975 H 286.641 -1.97585 4.55273 0
M  V30 2976 H 281.897 -1.57452 5.90778 0
M  V30 2977 H 286.071 -1.27048 6.84713 0
M  V30 2978 H 283.698 -1.06429 7.52713 0
M  V30 2979 N 285.273 -1.31445 -0.869486 0
M  V30 2980 C 286.519 -1.21337 -1.62496 0
M  V30 2981 C 286.852 0.227872 -1.92858 0
M  V30 2982 O 286.127 1.16094 -1.56053 0
M  V30 2983 C 286.41 -2.05814 -2.95487 0
M  V30 2984 C 286.263 -3.5824 -2.72 0
M  V30 2985 C 287.582 -1.9079 -3.96594 0
M  V30 2986 H 284.701 -0.442135 -0.589649 0
M  V30 2987 H 287.343 -1.6124 -1.00507 0
M  V30 2988 H 285.493 -1.71913 -3.48394 0
M  V30 2989 H 287.165 -4.0228 -2.25762 0
M  V30 2990 H 285.408 -3.81647 -2.06224 0
M  V30 2991 H 286.079 -4.12657 -3.66631 0
M  V30 2992 H 288.555 -2.20459 -3.52898 0
M  V30 2993 H 287.431 -2.52199 -4.87531 0
M  V30 2994 H 287.692 -0.871341 -4.33428 0
M  V30 2995 N 286.751 1.08385 -1.14413 0
M  V30 2996 C 288 1.80153 -0.907076 0
M  V30 2997 C 288.313 1.87176 0.567851 0
M  V30 2998 O 289.519 2.55359 0.922172 0
M  V30 2999 C 287.975 3.23687 -1.57336 0
M  V30 3000 C 287.583 3.24897 -3.08457 0
M  V30 3001 C 289.327 4.00136 -1.41744 0
M  V30 3002 C 287.234 4.6302 -3.67921 0
M  V30 3003 H 286.164 0.675139 -0.335714 0
M  V30 3004 H 288.815 1.21733 -1.37307 0
M  V30 3005 H 287.197 3.82234 -1.03505 0
M  V30 3006 H 288.371 2.76055 -3.68958 0
M  V30 3007 H 286.686 2.61943 -3.2369 0
M  V30 3008 H 289.283 5.02201 -1.83572 0
M  V30 3009 H 289.626 4.14709 -0.363576 0
M  V30 3010 H 290.159 3.48058 -1.92614 0
M  V30 3011 H 286.898 4.5365 -4.73161 0
M  V30 3012 H 286.418 5.12143 -3.12201 0
M  V30 3013 H 288.097 5.31994 -3.68227 0
M  V30 3014 N 288.23 0.939286 1.26551 0
M  V30 3015 C 289.46 0.601663 1.97645 0
M  V30 3016 C 289.868 -0.827206 1.70159 0
M  V30 3017 O 289.211 -1.56291 0.965338 0
M  V30 3018 C 289.273 0.761725 3.51337 0
M  V30 3019 C 288.937 2.16487 4.0247 0
M  V30 3020 C 289.934 3.14016 4.14355 0
M  V30 3021 C 287.619 2.48494 4.36527 0
M  V30 3022 C 289.613 4.41654 4.59587 0
M  V30 3023 C 287.3 3.76364 4.81449 0
M  V30 3024 C 288.298 4.72758 4.92939 0
M  V30 3025 O 287.986 5.98352 5.36871 0
M  V30 3026 H 287.718 0.225758 0.637189 0
M  V30 3027 H 290.272 1.26178 1.62075 0
M  V30 3028 H 288.502 0.0444808 3.86674 0
M  V30 3029 H 290.191 0.427442 4.03643 0
M  V30 3030 H 290.957 2.90613 3.8829 0
M  V30 3031 H 286.836 1.74202 4.26819 0
M  V30 3032 H 290.38 5.16896 4.68471 0
M  V30 3033 H 286.277 3.99582 5.06956 0
M  V30 3034 H 287.045 6.01507 5.55096 0
M  V30 3035 N 289.708 -1.40897 0.706093 0
M  V30 3036 C 290.948 -2.02916 0.245827 0
M  V30 3037 C 291.312 -1.54751 -1.13649 0
M  V30 3038 O 292.513 -2.08768 -1.69321 0
M  V30 3039 C 290.784 -3.56031 0.312537 0
M  V30 3040 S 292.343 -4.38741 -0.0721388 0
M  V30 3041 H 289.161 -0.704186 0.0982007 0
M  V30 3042 H 291.763 -1.72168 0.926207 0
M  V30 3043 H 290.467 -3.88579 1.32039 0
M  V30 3044 H 289.998 -3.91495 -0.386641 0
M  V30 3045 H 292.013 -4.78952 -1.29692 0
M  V30 3046 N 291.186 -0.45159 -1.50991 0
M  V30 3047 C 292.434 0.109857 -2.01801 0
M  V30 3048 C 292.755 1.41958 -1.3369 0
M  V30 3049 O 292.025 1.9003 -0.475951 0
M  V30 3050 H 290.605 0.0435884 -0.745727 0
M  V30 3051 H 293.267 -0.597557 -1.85514 0
M  V30 3052 H 292.363 0.275489 -3.10882 0
M  V30 3053 N 292.664 1.56529 -0.183458 0
M  V30 3054 C 293.594 2.21549 0.737456 0
M  V30 3055 C 294.575 1.17489 1.23005 0
M  V30 3056 O 295.76 1.45959 1.281 0
M  V30 3057 C 292.89 2.86575 1.96194 0
M  V30 3058 C 291.844 3.96778 1.60473 0
M  V30 3059 C 291.17 4.48911 2.90487 0
M  V30 3060 C 292.47 5.15767 0.823497 0
M  V30 3061 H 294.164 2.98761 0.195453 0
M  V30 3062 H 291.71 1.43702 0.0925686 0
M  V30 3063 H 293.663 3.30739 2.61131 0
M  V30 3064 H 292.387 2.06749 2.52828 0
M  V30 3065 H 291.046 3.53286 0.978997 0
M  V30 3066 H 290.694 3.65862 3.45186 0
M  V30 3067 H 290.394 5.23265 2.67335 0
M  V30 3068 H 291.918 4.95771 3.56432 0
M  V30 3069 H 293.332 5.56549 1.37571 0
M  V30 3070 H 291.729 5.96114 0.690551 0
M  V30 3071 H 292.799 4.84574 -0.177782 0
M  V30 3072 N 294.142 -0.090211 1.57342 0
M  V30 3073 C 295.558 -0.444547 1.53284 0
M  V30 3074 C 295.758 -1.80238 0.900914 0
M  V30 3075 O 294.814 -2.4759 0.495513 0
M  V30 3076 C 296.127 -0.402543 2.97993 0
M  V30 3077 C 297.675 -0.48405 3.09234 0
M  V30 3078 C 298.15 -0.472144 4.5556 0
M  V30 3079 N 299.641 -0.532757 4.60126 0
M  V30 3080 C 300.376 -0.545462 5.708 0
M  V30 3081 N 299.872 -0.514082 6.9089 0
M  V30 3082 N 301.665 -0.59064 5.58988 0
M  V30 3083 H 293.816 0.799121 1.96794 0
M  V30 3084 H 296.079 0.297965 0.899956 0
M  V30 3085 H 295.785 0.528106 3.47712 0
M  V30 3086 H 295.659 -1.21969 3.56936 0
M  V30 3087 H 298.046 -1.40512 2.595 0
M  V30 3088 H 298.127 0.361328 2.53235 0
M  V30 3089 H 297.771 0.445 5.05947 0
M  V30 3090 H 297.701 -1.3348 5.09402 0
M  V30 3091 H 300.192 -0.562006 3.73698 0
M  V30 3092 H 300.505 -0.527195 7.71 0
M  V30 3093 H 298.85 -0.481054 6.93333 0
M  V30 3094 H 302.041 -0.61272 4.64073 0
M  V30 3095 H 302.214 -0.597073 6.45243 0
M  V30 3096 N 295.62 -1.53406 -0.361157 0
M  V30 3097 C 296.867 -1.69802 -1.10333 0
M  V30 3098 C 297.195 -0.452087 -1.89173 0
M  V30 3099 O 296.45 0.566017 -1.87336 0
M  V30 3100 C 296.749 -2.90211 -2.08596 0
M  V30 3101 C 296.415 -4.26539 -1.46203 0
M  V30 3102 C 295.077 -4.6361 -1.28915 0
M  V30 3103 C 297.429 -5.113 -1.01101 0
M  V30 3104 C 294.757 -5.83075 -0.651157 0
M  V30 3105 C 297.109 -6.31415 -0.387007 0
M  V30 3106 C 295.773 -6.67195 -0.201657 0
M  V30 3107 H 295.043 -0.621351 -0.403737 0
M  V30 3108 H 297.69 -1.87598 -0.384609 0
M  V30 3109 H 295.995 -2.66946 -2.86788 0
M  V30 3110 H 297.692 -3.00091 -2.65982 0
M  V30 3111 H 294.282 -3.97352 -1.60653 0
M  V30 3112 H 298.466 -4.83206 -1.13249 0
M  V30 3113 H 293.722 -6.09385 -0.496006 0
M  V30 3114 H 297.896 -6.96394 -0.0293563 0
M  V30 3115 H 295.523 -7.59628 0.294766 0
M  V30 3116 N 297.098 0.621204 -1.44841 0
M  V30 3117 C 298.344 1.3826 -1.48365 0
M  V30 3118 C 298.677 1.93831 -0.119624 0
M  V30 3119 O 297.952 1.74251 0.864111 0
M  V30 3120 C 298.235 2.54058 -2.55199 0
M  V30 3121 C 298.088 2.03772 -4.00995 0
M  V30 3122 C 299.407 3.56225 -2.58442 0
M  V30 3123 H 296.526 0.501374 -0.540179 0
M  V30 3124 H 299.168 0.7015 -1.76576 0
M  V30 3125 H 297.318 3.12162 -2.31274 0
M  V30 3126 H 298.99 1.50423 -4.36086 0
M  V30 3127 H 297.233 1.34876 -4.12299 0
M  V30 3128 H 297.904 2.87185 -4.71411 0
M  V30 3129 H 300.38 3.07939 -2.79844 0
M  V30 3130 H 299.256 4.34756 -3.3508 0
M  V30 3131 H 299.517 4.10949 -1.63013 0
M  V30 3132 N 298.576 1.31904 0.862503 0
M  V30 3133 C 299.539 1.20131 1.95195 0
M  V30 3134 C 300.539 0.126409 1.60302 0
M  V30 3135 O 301.729 0.376234 1.70089 0
M  V30 3136 C 298.861 0.845691 3.30244 0
M  V30 3137 H 300.054 2.16943 2.07064 0
M  V30 3138 H 297.607 1.15622 1.05172 0
M  V30 3139 H 298.342 -0.120957 3.24074 0
M  V30 3140 H 298.127 1.62276 3.56944 0
M  V30 3141 H 299.617 0.787418 4.10109 0
M  V30 3142 N 300.054 -1.07777 1.14986 0
M  V30 3143 C 301.017 -2.13041 0.845358 0
M  V30 3144 C 302.017 -1.60071 -0.152931 0
M  V30 3145 O 303.207 -1.74033 0.0761879 0
M  V30 3146 C 300.339 -3.39896 0.261383 0
M  V30 3147 H 301.532 -2.41485 1.77834 0
M  V30 3148 H 299.085 -1.23595 0.956757 0
M  V30 3149 H 299.82 -3.17091 -0.68 0
M  V30 3150 H 299.605 -3.79642 0.980514 0
M  V30 3151 H 301.095 -4.17548 0.0657687 0
M  V30 3152 N 301.532 -0.945985 -1.26051 0
M  V30 3153 C 302.779 -0.596118 -1.93527 0
M  V30 3154 C 303.107 0.865559 -1.74179 0
M  V30 3155 O 302.362 1.63524 -1.0751 0
M  V30 3156 C 302.661 -0.890475 -3.46129 0
M  V30 3157 C 302.327 -2.3368 -3.85622 0
M  V30 3158 C 300.989 -2.73216 -3.96114 0
M  V30 3159 C 303.341 -3.27648 -4.05334 0
M  V30 3160 C 300.669 -4.05806 -4.2372 0
M  V30 3161 C 303.021 -4.59841 -4.3443 0
M  V30 3162 C 301.685 -4.99185 -4.43137 0
M  V30 3163 H 300.955 -0.218135 -0.708165 0
M  V30 3164 H 303.602 -1.1934 -1.49768 0
M  V30 3165 H 301.907 -0.210711 -3.91233 0
M  V30 3166 H 303.604 -0.598478 -3.96509 0
M  V30 3167 H 300.194 -2.02015 -3.78005 0
M  V30 3168 H 304.378 -2.98298 -3.96651 0
M  V30 3169 H 299.634 -4.35945 -4.28675 0
M  V30 3170 H 303.808 -5.32641 -4.48628 0
M  V30 3171 H 301.435 -6.01952 -4.64282 0
M  V30 3172 N 303.011 1.40521 -0.713556 0
M  V30 3173 C 304.259 2.00527 -0.251692 0
M  V30 3174 C 304.58 1.56857 1.15848 0
M  V30 3175 O 303.85 0.807127 1.785 0
M  V30 3176 H 302.43 0.741551 -0.0900646 0
M  V30 3177 H 305.092 1.71887 -0.918733 0
M  V30 3178 H 304.188 3.10813 -0.283192 0
M  V30 3179 N 304.489 0.459591 1.5075 0
M  V30 3180 C 305.422 -0.386257 2.24907 0
M  V30 3181 C 306.4 -1.006 1.27744 0
M  V30 3182 O 307.584 -1.04416 1.56938 0
M  V30 3183 C 304.711 -1.54021 3.01654 0
M  V30 3184 C 303.757 -1.03898 4.13651 0
M  V30 3185 S 304.59 0.0370501 5.35487 0
M  V30 3186 C 305.746 -1.12105 6.15779 0
M  V30 3187 H 305.979 0.243272 2.96303 0
M  V30 3188 H 303.512 0.244339 1.52454 0
M  V30 3189 H 305.47 -2.20163 3.46466 0
M  V30 3190 H 304.131 -2.14121 2.29806 0
M  V30 3191 H 303.324 -1.90254 4.66711 0
M  V30 3192 H 302.926 -0.45545 3.71216 0
M  V30 3193 H 305.218 -2.03501 6.46215 0
M  V30 3194 H 306.161 -0.62995 7.05292 0
M  V30 3195 H 306.569 -1.36967 5.47631 0
M  V30 3196 N 305.967 -1.56429 0.191757 0
M  V30 3197 C 306.93 -2.17707 -0.716688 0
M  V30 3198 C 307.93 -1.13061 -1.14341 0
M  V30 3199 O 309.12 -1.38464 -1.05704 0
M  V30 3200 C 306.252 -2.77644 -1.97804 0
M  V30 3201 H 307.445 -2.99342 -0.1829 0
M  V30 3202 H 304.998 -1.56193 -0.0578566 0
M  V30 3203 H 305.733 -1.99799 -2.55443 0
M  V30 3204 H 305.518 -3.54246 -1.68083 0
M  V30 3205 H 307.008 -3.24708 -2.62592 0
M  V30 3206 N 307.445 0.0818655 -1.57387 0
M  V30 3207 C 308.693 0.781368 -1.86384 0
M  V30 3208 C 309.014 1.78618 -0.782342 0
M  V30 3209 O 308.284 1.94976 0.190061 0
M  V30 3210 H 306.864 0.291562 -0.687751 0
M  V30 3211 H 309.526 0.060348 -1.94807 0
M  V30 3212 H 308.622 1.3038 -2.83562 0
M  V30 3213 N 308.923 1.53595 0.353017 0
M  V30 3214 C 310.172 1.69603 1.09168 0
M  V30 3215 C 310.485 0.460925 1.90092 0
M  V30 3216 O 311.691 0.501774 2.66823 0
M  V30 3217 C 310.147 2.99872 1.9901 0
M  V30 3218 C 309.755 4.30687 1.23339 0
M  V30 3219 C 311.499 3.25246 2.72792 0
M  V30 3220 C 309.406 5.52036 2.12156 0
M  V30 3221 H 308.336 0.631966 0.411261 0
M  V30 3222 H 310.987 1.80096 0.351802 0
M  V30 3223 H 309.369 2.83212 2.7678 0
M  V30 3224 H 310.543 4.58019 0.505456 0
M  V30 3225 H 308.858 4.11853 0.613663 0
M  V30 3226 H 311.455 4.13095 3.39495 0
M  V30 3227 H 311.798 2.41846 3.38846 0
M  V30 3228 H 312.331 3.42638 2.021 0
M  V30 3229 H 309.07 6.37951 1.50659 0
M  V30 3230 H 308.59 5.28966 2.82764 0
M  V30 3231 H 310.269 5.87313 2.71427 0
M  V30 3232 N 310.401 -0.613514 1.45168 0
M  V30 3233 C 311.648 -1.37268 1.48875 0
M  V30 3234 C 311.976 -1.94077 0.128161 0
M  V30 3235 O 311.231 -1.75178 -0.872416 0
M  V30 3236 C 311.53 -2.54347 2.51083 0
M  V30 3237 C 311.196 -2.1572 3.95949 0
M  V30 3238 C 309.858 -2.04899 4.35396 0
M  V30 3239 C 312.21 -1.85485 4.87078 0
M  V30 3240 C 309.538 -1.62057 5.63875 0
M  V30 3241 C 311.89 -1.4413 6.15962 0
M  V30 3242 C 310.554 -1.31863 6.54346 0
M  V30 3243 H 309.824 -0.502299 0.544773 0
M  V30 3244 H 312.471 -0.694021 1.78481 0
M  V30 3245 H 310.776 -3.27524 2.15024 0
M  V30 3246 H 312.473 -3.12577 2.51191 0
M  V30 3247 H 309.063 -2.25066 3.64751 0
M  V30 3248 H 313.247 -1.92745 4.57343 0
M  V30 3249 H 308.503 -1.51177 5.92415 0
M  V30 3250 H 312.677 -1.19778 6.86022 0
M  V30 3251 H 310.304 -0.984392 7.538 0
M  V30 3252 N 311.879 -1.3236 -0.855495 0
M  V30 3253 C 312.809 -1.23833 -1.97958 0
M  V30 3254 C 313.79 -0.122361 -1.69659 0
M  V30 3255 O 314.975 -0.30939 -1.9172 0
M  V30 3256 C 312.105 -0.959772 -3.33775 0
M  V30 3257 C 311.059 -2.03689 -3.76424 0
M  V30 3258 C 310.385 -1.61075 -5.09862 0
M  V30 3259 C 311.685 -3.4518 -3.9198 0
M  V30 3260 H 313.379 -2.1788 -2.0535 0
M  V30 3261 H 310.925 -1.04891 -0.986605 0
M  V30 3262 H 312.878 -0.886678 -4.11966 0
M  V30 3263 H 311.602 0.0163404 -3.26596 0
M  V30 3264 H 310.261 -2.10012 -3.00484 0
M  V30 3265 H 309.909 -0.622107 -4.99138 0
M  V30 3266 H 309.609 -2.33143 -5.39368 0
M  V30 3267 H 311.133 -1.55201 -5.90546 0
M  V30 3268 H 312.547 -3.4145 -4.60526 0
M  V30 3269 H 310.944 -4.1559 -4.32903 0
M  V30 3270 H 312.014 -3.84903 -2.94919 0
M  V30 3271 N 313.357 1.07166 -1.15556 0
M  V30 3272 C 314.582 1.84053 -0.955988 0
M  V30 3273 C 315.007 1.81586 0.490739 0
M  V30 3274 O 314.365 1.21018 1.34997 0
M  V30 3275 C 314.413 3.28957 -1.47714 0
M  V30 3276 O 313.517 4.06795 -0.677593 0
M  V30 3277 H 312.858 0.569842 -0.340847 0
M  V30 3278 H 315.388 1.35178 -1.53584 0
M  V30 3279 H 315.398 3.79788 -1.4908 0
M  V30 3280 H 314.073 3.30068 -2.53037 0
M  V30 3281 H 312.65 3.6561 -0.733721 0
M  V30 3282 N 314.835 0.952656 1.25548 0
M  V30 3283 C 316.06 0.623025 1.97821 0
M  V30 3284 C 316.485 -0.7976 1.70352 0
M  V30 3285 O 315.843 -1.53905 0.958283 0
M  V30 3286 C 315.891 0.885532 3.49558 0
M  V30 3287 O 314.995 -0.0366641 4.12384 0
M  V30 3288 H 314.336 0.237082 0.620232 0
M  V30 3289 H 316.866 1.27871 1.59719 0
M  V30 3290 H 316.876 0.811009 3.99858 0
M  V30 3291 H 315.551 1.92094 3.6888 0
M  V30 3292 H 314.128 0.0898954 3.72792 0
M  V30 3293 N 316.313 -1.40141 0.720998 0
M  V30 3294 C 317.243 -2.33339 0.0867621 0
M  V30 3295 C 318.224 -1.53178 -0.739622 0
M  V30 3296 O 319.409 -1.81625 -0.687449 0
M  V30 3297 C 316.539 -3.37194 -0.831728 0
M  V30 3298 C 315.493 -4.27857 -0.110558 0
M  V30 3299 C 314.819 -5.22294 -1.14513 0
M  V30 3300 C 316.119 -5.11872 1.0385 0
M  V30 3301 H 317.813 -2.86626 0.865219 0
M  V30 3302 H 315.359 -1.37814 0.417516 0
M  V30 3303 H 317.312 -4.01335 -1.28485 0
M  V30 3304 H 316.036 -2.82314 -1.64214 0
M  V30 3305 H 314.695 -3.65176 0.322797 0
M  V30 3306 H 314.343 -4.63717 -1.94874 0
M  V30 3307 H 314.043 -5.83797 -0.667446 0
M  V30 3308 H 315.567 -5.89312 -1.59824 0
M  V30 3309 H 316.981 -5.69436 0.664482 0
M  V30 3310 H 315.378 -5.82445 1.4449 0
M  V30 3311 H 316.448 -4.4753 1.86668 0
M  V30 3312 N 317.792 -0.46758 -1.50504 0
M  V30 3313 C 319.02 0.0864133 -2.06719 0
M  V30 3314 C 319.435 1.33819 -1.33184 0
M  V30 3315 O 318.792 1.78061 -0.400083 0
M  V30 3316 C 318.843 0.378079 -3.59517 0
M  V30 3317 O 318.564 -0.824044 -4.3028 0
M  V30 3318 C 320.065 0.979426 -4.32345 0
M  V30 3319 H 317.285 -0.00551697 -0.670977 0
M  V30 3320 H 319.829 -0.655354 -1.93715 0
M  V30 3321 H 317.984 1.06977 -3.72337 0
M  V30 3322 H 318.398 -0.566518 -5.21432 0
M  V30 3323 H 319.872 1.1333 -5.40241 0
M  V30 3324 H 320.349 1.9686 -3.9261 0
M  V30 3325 H 320.955 0.326216 -4.24047 0
M  V30 3326 N 319.27 1.56325 -0.20005 0
M  V30 3327 C 320.2 2.22318 0.713916 0
M  V30 3328 C 321.181 1.18788 1.21752 0
M  V30 3329 O 322.366 1.47309 1.26545 0
M  V30 3330 C 319.496 2.88639 1.93144 0
M  V30 3331 C 318.45 3.98457 1.56255 0
M  V30 3332 C 317.776 4.51967 2.85709 0
M  V30 3333 C 319.076 5.16612 0.768747 0
M  V30 3334 H 320.77 2.98952 0.163755 0
M  V30 3335 H 318.316 1.43792 0.0773219 0
M  V30 3336 H 320.269 3.33491 2.57608 0
M  V30 3337 H 318.993 2.09419 2.50621 0
M  V30 3338 H 317.652 3.54305 0.941471 0
M  V30 3339 H 317.3 3.69503 3.41287 0
M  V30 3340 H 317 5.26071 2.6177 0
M  V30 3341 H 318.524 4.99523 3.51154 0
M  V30 3342 H 319.938 5.57977 1.3166 0
M  V30 3343 H 318.335 5.96812 0.627286 0
M  V30 3344 H 319.405 4.84358 -0.229168 0
M  V30 3345 N 320.748 -0.0735177 1.57428 0
M  V30 3346 C 321.681 -1.11932 1.98863 0
M  V30 3347 C 322.659 -1.37666 0.865266 0
M  V30 3348 O 323.843 -1.51068 1.12742 0
M  V30 3349 C 320.97 -2.46403 2.32386 0
M  V30 3350 C 320.016 -2.36815 3.54713 0
M  V30 3351 S 320.849 -1.76392 5.05614 0
M  V30 3352 C 322.005 -3.12444 5.42337 0
M  V30 3353 H 322.238 -0.766212 2.87257 0
M  V30 3354 H 319.771 -0.281987 1.51803 0
M  V30 3355 H 321.729 -3.23755 2.52375 0
M  V30 3356 H 320.39 -2.78876 1.44524 0
M  V30 3357 H 319.583 -3.35977 3.7568 0
M  V30 3358 H 319.185 -1.67598 3.34345 0
M  V30 3359 H 321.477 -4.08753 5.40303 0
M  V30 3360 H 322.42 -2.96258 6.43146 0
M  V30 3361 H 322.828 -3.1297 4.69798 0
M  V30 3362 N 322.226 -1.5378 -0.344866 0
M  V30 3363 C 323.472 -1.71216 -1.08687 0
M  V30 3364 C 323.805 -0.473281 -1.88345 0
M  V30 3365 O 323.08 0.52968 -1.87149 0
M  V30 3366 C 323.363 -2.97486 -2.02914 0
M  V30 3367 C 323.216 -4.31579 -1.26727 0
M  V30 3368 C 324.535 -3.19422 -3.0275 0
M  V30 3369 H 321.654 -0.62301 -0.393735 0
M  V30 3370 H 324.296 -1.8645 -0.365563 0
M  V30 3371 H 322.446 -2.84629 -2.64421 0
M  V30 3372 H 324.118 -4.56284 -0.67845 0
M  V30 3373 H 322.361 -4.30049 -0.569273 0
M  V30 3374 H 323.032 -5.16106 -1.95803 0
M  V30 3375 H 325.508 -3.316 -2.51357 0
M  V30 3376 H 324.384 -4.09169 -3.65885 0
M  V30 3377 H 324.645 -2.35656 -3.74057 0
M  V30 3378 N 323.704 0.605807 -1.45491 0
M  V30 3379 C 324.614 1.74466 -1.56839 0
M  V30 3380 C 325.63 1.68006 -0.452772 0
M  V30 3381 O 326.806 1.8833 -0.713708 0
M  V30 3382 C 323.871 3.10931 -1.53371 0
M  V30 3383 C 322.932 3.28832 -2.75986 0
M  V30 3384 C 322.165 4.58787 -2.72673 0
M  V30 3385 O 322.388 5.4122 -1.80102 0
M  V30 3386 O 321.322 4.79438 -3.63899 0
M  V30 3387 H 325.148 1.67843 -2.53106 0
M  V30 3388 H 322.733 0.770108 -1.28022 0
M  V30 3389 H 324.615 3.92233 -1.54051 0
M  V30 3390 H 323.29 3.18042 -0.602572 0
M  V30 3391 H 322.197 2.47112 -2.80867 0
M  V30 3392 H 323.53 3.26599 -3.68231 0
M  V30 3393 N 325.182 1.32811 0.848464 0
M  V30 3394 C 326.428 1.24917 1.60522 0
M  V30 3395 C 326.783 -0.185761 1.91501 0
M  V30 3396 O 326.076 -1.12524 1.55077 0
M  V30 3397 C 326.27 2.04831 2.92881 0
M  V30 3398 C 326.099 3.55949 2.74828 0
M  V30 3399 C 324.869 4.25277 2.72887 0
M  V30 3400 C 327.067 4.50476 2.48145 0
M  V30 3401 N 325.049 5.62408 2.46111 0
M  V30 3402 C 326.42 5.75427 2.30832 0
M  V30 3403 C 328.475 4.39665 2.33664 0
M  V30 3404 C 327.178 6.90789 2.00508 0
M  V30 3405 C 329.204 5.54833 2.04731 0
M  V30 3406 C 328.566 6.78787 1.88223 0
M  V30 3407 H 324.665 0.512279 0.590842 0
M  V30 3408 H 327.249 1.67246 0.996839 0
M  V30 3409 H 325.42 1.64837 3.51686 0
M  V30 3410 H 327.152 1.88782 3.57971 0
M  V30 3411 H 323.907 3.77456 2.86049 0
M  V30 3412 H 324.331 6.3467 2.35634 0
M  V30 3413 H 328.973 3.44477 2.45144 0
M  V30 3414 H 326.691 7.85984 1.87765 0
M  V30 3415 H 330.277 5.48398 1.94295 0
M  V30 3416 H 329.157 7.66396 1.66155 0
M  V30 3417 N 326.66 -1.06551 1.16123 0
M  V30 3418 C 327.888 -1.83005 0.965237 0
M  V30 3419 C 328.303 -1.82423 -0.486542 0
M  V30 3420 O 327.66 -1.24152 -1.33763 0
M  V30 3421 C 327.711 -3.29733 1.48183 0
M  V30 3422 O 327.432 -3.30416 2.87674 0
M  V30 3423 C 328.933 -4.22926 1.32848 0
M  V30 3424 H 326.153 -0.577118 0.342309 0
M  V30 3425 H 328.697 -1.3445 1.54089 0
M  V30 3426 H 326.852 -3.75609 0.948517 0
M  V30 3427 H 327.266 -4.22149 3.11272 0
M  V30 3428 H 328.74 -5.23916 1.73827 0
M  V30 3429 H 329.217 -4.38346 0.273692 0
M  V30 3430 H 329.823 -3.82894 1.85127 0
M  V30 3431 N 328.138 -0.959301 -1.25041 0
M  V30 3432 C 329.366 -0.633949 -1.96948 0
M  V30 3433 C 329.781 0.794916 -1.7125 0
M  V30 3434 O 329.138 1.53231 -0.991287 0
M  V30 3435 C 329.189 -0.888805 -3.50403 0
M  V30 3436 O 328.91 -2.26149 -3.75218 0
M  V30 3437 C 330.411 -0.576482 -4.39536 0
M  V30 3438 H 327.631 -0.237263 -0.627652 0
M  V30 3439 H 330.175 -1.28495 -1.59089 0
M  V30 3440 H 328.33 -0.284145 -3.86357 0
M  V30 3441 H 328.744 -2.33514 -4.6965 0
M  V30 3442 H 330.218 -0.805314 -5.46094 0
M  V30 3443 H 330.695 0.489075 -4.36468 0
M  V30 3444 H 331.301 -1.16067 -4.09156 0
M  V30 3445 N 329.616 1.39756 -0.72842 0
M  V30 3446 C 330.844 2.04948 -0.283528 0
M  V30 3447 C 331.259 1.54908 1.0793 0
M  V30 3448 O 330.616 0.711135 1.68075 0
M  V30 3449 C 330.667 3.60498 -0.268957 0
M  V30 3450 O 330.388 4.08695 -1.57798 0
M  V30 3451 C 331.889 4.4288 0.192912 0
M  V30 3452 H 329.109 0.659243 -0.125056 0
M  V30 3453 H 331.653 1.78927 -0.990226 0
M  V30 3454 H 329.808 3.85444 0.388801 0
M  V30 3455 H 330.222 5.02977 -1.48709 0
M  V30 3456 H 331.696 5.51791 0.151952 0
M  V30 3457 H 332.173 4.21418 1.23708 0
M  V30 3458 H 332.779 4.23069 -0.435039 0
M  V30 3459 N 331.094 0.475555 1.50254 0
M  V30 3460 C 332.319 -0.0777042 2.07254 0
M  V30 3461 C 332.744 -1.3235 1.3366 0
M  V30 3462 O 332.102 -1.77152 0.385597 0
M  V30 3463 C 332.15 -0.340169 3.58992 0
M  V30 3464 O 331.254 -1.41982 3.87188 0
M  V30 3465 H 330.595 0.0149556 0.663832 0
M  V30 3466 H 333.125 0.667878 1.93392 0
M  V30 3467 H 333.135 -0.579332 4.03866 0
M  V30 3468 H 331.81 0.570167 4.11973 0
M  V30 3469 H 330.387 -1.16762 3.54148 0
M  V30 3470 N 332.573 -1.56217 0.208337 0
M  V30 3471 C 333.989 -1.58919 -0.14729 0
M  V30 3472 C 334.189 -1.22486 -1.59998 0
M  V30 3473 O 333.245 -0.953849 -2.3379 0
M  V30 3474 C 334.558 -3.00236 0.167048 0
M  V30 3475 C 336.106 -3.12813 0.108219 0
M  V30 3476 C 336.581 -4.56284 0.396049 0
M  V30 3477 N 338.072 -4.61912 0.345142 0
M  V30 3478 C 338.807 -5.70837 0.541523 0
M  V30 3479 N 338.303 -6.88178 0.798968 0
M  V30 3480 N 340.096 -5.60091 0.474867 0
M  V30 3481 H 332.247 -1.78177 1.15614 0
M  V30 3482 H 334.51 -0.827555 0.462446 0
M  V30 3483 H 334.216 -3.31499 1.1748 0
M  V30 3484 H 334.09 -3.7354 -0.524184 0
M  V30 3485 H 336.477 -2.81354 -0.890157 0
M  V30 3486 H 336.558 -2.41866 0.832729 0
M  V30 3487 H 336.202 -4.88458 1.3918 0
M  V30 3488 H 336.132 -5.25439 -0.349502 0
M  V30 3489 H 338.623 -3.77589 0.153316 0
M  V30 3490 H 338.936 -7.67095 0.93727 0
M  V30 3491 H 337.281 -6.89953 0.836013 0
M  V30 3492 H 340.472 -4.67297 0.274064 0
M  V30 3493 H 340.645 -6.44917 0.631326 0
M  V30 3494 N 334.051 0.0651679 -1.57465 0
M  V30 3495 C 335.467 0.420105 -1.53972 0
M  V30 3496 C 335.667 1.78782 -0.929474 0
M  V30 3497 O 334.723 2.46771 -0.534839 0
M  V30 3498 C 336.036 0.355084 -2.98596 0
M  V30 3499 C 337.584 0.434792 -3.09965 0
M  V30 3500 C 338.059 0.399609 -4.56253 0
M  V30 3501 N 339.55 0.459488 -4.60915 0
M  V30 3502 C 340.285 0.454584 -5.71595 0
M  V30 3503 N 339.781 0.404102 -6.9162 0
M  V30 3504 N 341.574 0.501635 -5.59857 0
M  V30 3505 H 333.725 -0.830328 -1.95498 0
M  V30 3506 H 335.988 -0.312244 -0.895102 0
M  V30 3507 H 335.694 -0.583357 -3.46828 0
M  V30 3508 H 335.568 1.16275 -3.58831 0
M  V30 3509 H 337.955 1.36366 -2.61703 0
M  V30 3510 H 338.036 -0.40157 -2.52628 0
M  V30 3511 H 337.68 -0.525436 -5.05175 0
M  V30 3512 H 337.61 1.25359 -5.11461 0
M  V30 3513 H 340.101 0.502482 -3.74544 0
M  V30 3514 H 340.414 0.404468 -7.71741 0
M  V30 3515 H 338.759 0.37069 -6.94011 0
M  V30 3516 H 341.95 0.538812 -4.64989 0
M  V30 3517 H 342.123 0.494345 -6.46112 0
M  V30 3518 N 335.529 1.53961 0.336706 0
M  V30 3519 C 336.492 1.81724 1.39675 0
M  V30 3520 C 337.492 0.688532 1.45313 0
M  V30 3521 O 338.682 0.956829 1.45569 0
M  V30 3522 C 335.814 1.96543 2.78538 0
M  V30 3523 H 337.007 2.76424 1.16318 0
M  V30 3524 H 334.56 1.45478 0.571474 0
M  V30 3525 H 335.295 1.0401 3.07168 0
M  V30 3526 H 335.08 2.78665 2.75841 0
M  V30 3527 H 336.57 2.19516 3.5525 0
M  V30 3528 N 337.007 -0.598083 1.45811 0
M  V30 3529 C 338.253 -1.35882 1.50545 0
M  V30 3530 C 338.586 -1.93616 0.150445 0
M  V30 3531 O 337.861 -1.75604 -0.83628 0
M  V30 3532 C 338.144 -2.49966 2.59208 0
M  V30 3533 C 337.997 -1.97367 4.04186 0
M  V30 3534 C 339.316 -3.52068 2.64076 0
M  V30 3535 H 336.435 -0.492717 0.548087 0
M  V30 3536 H 339.077 -0.673319 1.77669 0
M  V30 3537 H 337.227 -3.08443 2.3621 0
M  V30 3538 H 338.899 -1.43466 4.38423 0
M  V30 3539 H 337.142 -1.283 4.14393 0
M  V30 3540 H 337.813 -2.79649 4.75921 0
M  V30 3541 H 340.289 -3.03448 2.84708 0
M  V30 3542 H 339.165 -4.2937 3.41954 0
M  V30 3543 H 339.426 -4.08304 1.69531 0
M  V30 3544 N 338.485 -1.33259 -0.841409 0
M  V30 3545 C 339.713 -1.27605 -1.62864 0
M  V30 3546 C 340.128 0.153507 -1.88175 0
M  V30 3547 O 339.485 1.09485 -1.46011 0
M  V30 3548 C 339.536 -2.04596 -2.98031 0
M  V30 3549 O 339.257 -3.41975 -2.73834 0
M  V30 3550 C 340.758 -2.06122 -3.92465 0
M  V30 3551 H 337.978 -0.439718 -0.506842 0
M  V30 3552 H 340.522 -1.75591 -1.04824 0
M  V30 3553 H 338.677 -1.60299 -3.5268 0
M  V30 3554 H 339.091 -3.81549 -3.59889 0
M  V30 3555 H 340.565 -2.64451 -4.84531 0
M  V30 3556 H 341.042 -1.05083 -4.26444 0
M  V30 3557 H 341.648 -2.50427 -3.43753 0
M  V30 3558 N 339.963 1.05934 -1.16686 0
M  V30 3559 C 340.896 2.1295 -0.820225 0
M  V30 3560 C 341.874 1.61242 0.209722 0
M  V30 3561 O 343.058 1.88271 0.0929688 0
M  V30 3562 C 340.185 3.3797 -0.22223 0
M  V30 3563 C 339.231 4.08488 -1.22637 0
M  V30 3564 S 340.064 4.58015 -2.77457 0
M  V30 3565 C 341.22 5.86292 -2.19117 0
M  V30 3566 H 341.453 2.42025 -1.72659 0
M  V30 3567 H 338.986 1.18423 -0.990722 0
M  V30 3568 H 340.944 4.10335 0.116322 0
M  V30 3569 H 339.605 3.07045 0.66196 0
M  V30 3570 H 338.798 4.98291 -0.756455 0
M  V30 3571 H 338.4 3.42154 -1.51019 0
M  V30 3572 H 340.692 6.59246 -1.56209 0
M  V30 3573 H 341.635 6.38019 -3.07144 0
M  V30 3574 H 342.043 5.40497 -1.62858 0
M  V30 3575 N 341.441 0.965919 1.2453 0
M  V30 3576 C 342.669 0.644385 1.96609 0
M  V30 3577 C 343.084 -0.785823 1.71669 0
M  V30 3578 O 342.441 -1.52703 0.999399 0
M  V30 3579 C 342.492 0.907375 3.49927 0
M  V30 3580 O 342.213 2.28136 3.74013 0
M  V30 3581 C 343.714 0.599784 4.39224 0
M  V30 3582 H 340.934 0.240588 0.626385 0
M  V30 3583 H 343.478 1.29337 1.58405 0
M  V30 3584 H 341.633 0.304631 3.862 0
M  V30 3585 H 342.047 2.36002 4.68405 0
M  V30 3586 H 343.521 0.834263 5.45659 0
M  V30 3587 H 343.998 -0.465921 4.36722 0
M  V30 3588 H 344.604 1.18235 4.08535 0
M  V30 3589 N 342.919 -1.39368 0.735821 0
M  V30 3590 C 344.165 -2.00794 0.284544 0
M  V30 3591 C 344.498 -1.58255 -1.12557 0
M  V30 3592 O 343.773 -0.811819 -1.76748 0
M  V30 3593 C 344.056 -3.58011 0.387337 0
M  V30 3594 C 343.909 -4.10566 1.83728 0
M  V30 3595 C 345.228 -4.395 -0.22975 0
M  V30 3596 H 342.347 -0.729501 0.104866 0
M  V30 3597 H 344.989 -1.65564 0.93213 0
M  V30 3598 H 343.139 -3.88154 -0.164006 0
M  V30 3599 H 344.811 -3.91139 2.44556 0
M  V30 3600 H 343.054 -3.64095 2.35833 0
M  V30 3601 H 343.725 -5.19702 1.86047 0
M  V30 3602 H 346.201 -4.15406 0.240257 0
M  V30 3603 H 345.077 -5.48752 -0.127485 0
M  V30 3604 H 345.338 -4.22062 -1.3159 0
M  V30 3605 N 344.397 -0.483516 -1.5 0
M  V30 3606 C 345.643 0.0672592 -2.02688 0
M  V30 3607 C 345.976 1.38247 -1.36387 0
M  V30 3608 O 345.251 1.88131 -0.493675 0
M  V30 3609 C 345.534 0.238109 -3.59312 0
M  V30 3610 C 345.387 -1.099 -4.36168 0
M  V30 3611 C 346.706 0.986916 -4.28892 0
M  V30 3612 H 343.825 0.0229696 -0.736642 0
M  V30 3613 H 346.467 -0.631527 -1.79197 0
M  V30 3614 H 344.617 0.8333 -3.79458 0
M  V30 3615 H 346.289 -1.73172 -4.27562 0
M  V30 3616 H 344.532 -1.69261 -3.99416 0
M  V30 3617 H 345.203 -0.932954 -5.44059 0
M  V30 3618 H 347.679 0.482302 -4.13295 0
M  V30 3619 H 346.555 1.07527 -5.38265 0
M  V30 3620 H 346.816 2.0265 -3.92919 0
M  V30 3621 N 345.875 1.56104 -0.216619 0
M  V30 3622 C 347.123 1.97781 0.415593 0
M  V30 3623 C 347.444 1.10536 1.60645 0
M  V30 3624 O 346.714 0.181303 1.95059 0
M  V30 3625 H 345.294 0.730415 0.156534 0
M  V30 3626 H 347.956 1.92445 -0.308366 0
M  V30 3627 H 347.052 3.03072 0.74525 0
M  V30 3628 N 347.353 -0.0568162 1.57498 0
M  V30 3629 C 348.593 -0.758273 1.89815 0
M  V30 3630 C 348.957 -1.73978 0.812132 0
M  V30 3631 O 350.158 -2.48744 1.01881 0
M  V30 3632 C 348.429 -1.43465 3.27342 0
M  V30 3633 S 349.988 -2.1691 3.81439 0
M  V30 3634 H 346.806 -0.251836 0.664906 0
M  V30 3635 H 349.408 -0.0137997 1.95495 0
M  V30 3636 H 348.112 -0.706693 4.0427 0
M  V30 3637 H 347.643 -2.21825 3.24896 0
M  V30 3638 H 349.658 -3.43658 3.5793 0
M  V30 3639 N 348.832 -1.54138 -0.328536 0
M  V30 3640 C 349.795 -1.82462 -1.38709 0
M  V30 3641 C 350.795 -0.696229 -1.44946 0
M  V30 3642 O 351.985 -0.964535 -1.4506 0
M  V30 3643 C 349.117 -1.98018 -2.77492 0
M  V30 3644 H 350.31 -2.77037 -1.14851 0
M  V30 3645 H 347.863 -1.45779 -0.563751 0
M  V30 3646 H 348.598 -1.05637 -3.06613 0
M  V30 3647 H 348.383 -2.80124 -2.74359 0
M  V30 3648 H 349.873 -2.21396 -3.54081 0
M  V30 3649 N 350.31 0.590341 -1.46126 0
M  V30 3650 C 351.557 1.34882 -1.5104 0
M  V30 3651 C 351.885 1.93849 -0.159021 0
M  V30 3652 O 351.14 1.76544 0.844436 0
M  V30 3653 C 351.439 2.5032 -2.55097 0
M  V30 3654 C 351.105 2.09394 -3.99331 0
M  V30 3655 C 349.767 1.97947 -4.38601 0
M  V30 3656 C 352.119 1.77712 -4.89967 0
M  V30 3657 C 349.447 1.53065 -5.66381 0
M  V30 3658 C 351.799 1.34312 -6.18177 0
M  V30 3659 C 350.463 1.21436 -6.56361 0
M  V30 3660 H 349.733 0.493568 -0.552695 0
M  V30 3661 H 352.38 0.665539 -1.79563 0
M  V30 3662 H 350.685 3.24062 -2.20207 0
M  V30 3663 H 352.382 3.08541 -2.56132 0
M  V30 3664 H 348.972 2.19235 -3.68285 0
M  V30 3665 H 353.156 1.85445 -4.60352 0
M  V30 3666 H 348.412 1.41733 -5.94745 0
M  V30 3667 H 352.586 1.08849 -6.87841 0
M  V30 3668 H 350.213 0.864345 -7.5527 0
M  V30 3669 N 351.788 1.33704 0.83433 0
M  V30 3670 C 353.013 1.28615 1.62705 0
M  V30 3671 C 353.438 -0.139242 1.87584 0
M  V30 3672 O 352.796 -1.09734 1.4432 0
M  V30 3673 C 352.844 2.07139 2.95171 0
M  V30 3674 O 351.948 1.4331 3.86699 0
M  V30 3675 H 351.289 0.44226 0.49528 0
M  V30 3676 H 353.819 1.76335 1.03766 0
M  V30 3677 H 353.829 2.18073 3.44831 0
M  V30 3678 H 352.504 3.10779 2.76386 0
M  V30 3679 H 351.081 1.4105 3.45195 0
M  V30 3680 N 353.266 -1.05314 1.17247 0
M  V30 3681 C 354.229 -2.112 0.890357 0
M  V30 3682 C 355.229 -1.60359 -0.118943 0
M  V30 3683 O 356.419 -1.73833 0.113086 0
M  V30 3684 C 353.551 -3.39266 0.333422 0
M  V30 3685 H 354.744 -2.37659 1.82916 0
M  V30 3686 H 352.297 -1.21538 0.982758 0
M  V30 3687 H 353.032 -3.18462 -0.612587 0
M  V30 3688 H 352.817 -3.77477 1.06082 0
M  V30 3689 H 354.307 -4.17315 0.154322 0
M  V30 3690 N 354.744 -0.972509 -1.24016 0
M  V30 3691 C 355.992 -0.635776 -1.91839 0
M  V30 3692 C 356.313 0.832312 -1.76345 0
M  V30 3693 O 355.583 1.5946 -1.13795 0
M  V30 3694 H 354.163 -0.232157 -0.710009 0
M  V30 3695 H 356.825 -1.23462 -1.50809 0
M  V30 3696 H 355.921 -0.880545 -2.99421 0
M  V30 3697 N 356.222 1.38976 -0.743202 0
M  V30 3698 C 357.154 2.29096 -0.0689228 0
M  V30 3699 C 358.167 1.47229 0.694791 0
M  V30 3700 O 359.356 1.70212 0.537597 0
M  V30 3701 C 356.456 3.25988 0.926548 0
M  V30 3702 C 355.629 4.36833 0.222647 0
M  V30 3703 C 354.688 5.13981 1.12739 0
M  V30 3704 O 353.714 5.6601 0.601795 0
M  V30 3705 N 354.916 5.25966 2.45641 0
M  V30 3706 H 357.681 2.87604 -0.842846 0
M  V30 3707 H 355.242 1.50645 -0.593109 0
M  V30 3708 H 357.234 3.74476 1.5346 0
M  V30 3709 H 355.804 2.68453 1.60162 0
M  V30 3710 H 355.024 3.90116 -0.565983 0
M  V30 3711 H 356.312 5.0811 -0.264841 0
M  V30 3712 H 355.71 4.85228 2.9081 0
M  V30 3713 H 354.267 5.77865 3.01522 0
M  V30 3714 N 357.7 0.491464 1.49741 0
M  V30 3715 C 358.663 -0.280906 2.27472 0
M  V30 3716 C 359.663 -0.902454 1.33088 0
M  V30 3717 O 360.853 -0.768465 1.56334 0
M  V30 3718 C 357.985 -1.40209 3.10732 0
M  V30 3719 H 359.178 0.401056 2.97206 0
M  V30 3720 H 356.731 0.246131 1.5435 0
M  V30 3721 H 357.466 -2.11849 2.45541 0
M  V30 3722 H 357.251 -0.961969 3.80117 0
M  V30 3723 H 358.741 -1.9464 3.69466 0
M  V30 3724 N 359.178 -1.55987 0.224894 0
M  V30 3725 C 360.141 -2.19178 -0.670348 0
M  V30 3726 C 361.141 -1.15461 -1.11917 0
M  V30 3727 O 362.331 -1.40675 -1.02743 0
M  V30 3728 C 359.463 -2.81777 -1.9187 0
M  V30 3729 H 360.656 -2.99662 -0.119364 0
M  V30 3730 H 358.209 -1.5628 -0.0247128 0
M  V30 3731 H 358.944 -2.05172 -2.51147 0
M  V30 3732 H 358.729 -3.57732 -1.60531 0
M  V30 3733 H 360.219 -3.30205 -2.55645 0
M  V30 3734 N 360.656 0.0484629 -1.57525 0
M  V30 3735 C 361.586 1.0549 -2.08313 0
M  V30 3736 C 362.567 1.38929 -0.981463 0
M  V30 3737 O 363.752 1.48151 -1.25558 0
M  V30 3738 C 360.882 2.36162 -2.54646 0
M  V30 3739 C 359.836 2.17016 -3.68901 0
M  V30 3740 C 359.162 3.53278 -4.01371 0
M  V30 3741 C 360.462 1.57219 -4.98076 0
M  V30 3742 H 362.156 0.632195 -2.92649 0
M  V30 3743 H 359.702 0.302654 -1.40784 0
M  V30 3744 H 361.655 3.06882 -2.88793 0
M  V30 3745 H 360.379 2.80456 -1.67368 0
M  V30 3746 H 359.038 1.48733 -3.35073 0
M  V30 3747 H 358.686 3.95185 -3.11188 0
M  V30 3748 H 358.386 3.41299 -4.78318 0
M  V30 3749 H 359.91 4.25391 -4.38035 0
M  V30 3750 H 361.324 2.17832 -5.30304 0
M  V30 3751 H 359.721 1.55871 -5.79503 0
M  V30 3752 H 360.791 0.535956 -4.81929 0
M  V30 3753 N 362.134 1.5431 0.320358 0
M  V30 3754 C 363.382 1.72327 1.05583 0
M  V30 3755 C 363.703 0.50149 1.88441 0
M  V30 3756 O 362.973 -0.48448 1.89815 0
M  V30 3757 H 361.553 0.635387 0.3928 0
M  V30 3758 H 364.215 1.91621 0.356019 0
M  V30 3759 H 363.311 2.60426 1.72003 0
M  V30 3760 N 363.613 -0.582584 1.46437 0
M  V30 3761 C 364.861 -1.33814 1.51453 0
M  V30 3762 C 365.182 -1.94277 0.167792 0
M  V30 3763 O 364.452 -1.78566 -0.805677 0
M  V30 3764 H 363.032 -0.496838 0.557818 0
M  V30 3765 H 365.694 -0.682281 1.82568 0
M  V30 3766 H 364.79 -2.14479 2.26728 0
M  V30 3767 N 365.091 -1.34144 -0.827227 0
M  V30 3768 C 366.021 -1.28005 -1.95287 0
M  V30 3769 C 367.002 -0.158321 -1.69362 0
M  V30 3770 O 368.187 -0.349987 -1.9102 0
M  V30 3771 C 365.317 -1.03036 -3.31664 0
M  V30 3772 C 364.271 -2.11628 -3.72019 0
M  V30 3773 C 363.597 -1.71854 -5.0633 0
M  V30 3774 C 364.897 -3.53417 -3.8457 0
M  V30 3775 H 366.591 -2.22187 -2.00682 0
M  V30 3776 H 364.137 -1.0696 -0.964135 0
M  V30 3777 H 366.09 -0.973863 -4.09993 0
M  V30 3778 H 364.814 -0.0529391 -3.26557 0
M  V30 3779 H 363.473 -2.16339 -2.95961 0
M  V30 3780 H 363.121 -0.727841 -4.97706 0
M  V30 3781 H 362.821 -2.44531 -5.34302 0
M  V30 3782 H 364.345 -1.67692 -5.87122 0
M  V30 3783 H 365.759 -3.51142 -4.5318 0
M  V30 3784 H 364.156 -4.24679 -4.2399 0
M  V30 3785 H 365.226 -3.91072 -2.86689 0
M  V30 3786 N 366.569 1.04691 -1.17803 0
M  V30 3787 C 367.532 2.10724 -0.901545 0
M  V30 3788 C 368.532 1.6042 0.110437 0
M  V30 3789 O 369.722 1.7377 -0.122303 0
M  V30 3790 C 366.854 3.39084 -0.351409 0
M  V30 3791 H 368.047 2.36686 -1.84174 0
M  V30 3792 H 365.6 1.21015 -0.98919 0
M  V30 3793 H 366.335 3.18782 0.59569 0
M  V30 3794 H 366.12 3.76909 -1.08083 0
M  V30 3795 H 367.61 4.17227 -0.176451 0
M  V30 3796 N 368.047 0.979072 1.23499 0
M  V30 3797 C 369.294 0.647219 1.91878 0
M  V30 3798 C 369.622 -0.819074 1.76413 0
M  V30 3799 O 368.877 -1.60616 1.11808 0
M  V30 3800 C 369.176 0.981932 3.43646 0
M  V30 3801 C 368.842 2.43822 3.79291 0
M  V30 3802 C 367.504 2.83622 3.88731 0
M  V30 3803 C 369.856 3.3828 3.96505 0
M  V30 3804 C 367.184 4.16897 4.12812 0
M  V30 3805 C 369.536 4.71197 4.22085 0
M  V30 3806 C 368.2 5.10758 4.29747 0
M  V30 3807 H 367.47 0.236834 0.702133 0
M  V30 3808 H 370.117 1.23268 1.46551 0
M  V30 3809 H 368.422 0.314365 3.90537 0
M  V30 3810 H 370.119 0.703395 3.94783 0
M  V30 3811 H 366.709 2.11966 3.72516 0
M  V30 3812 H 370.893 3.0871 3.88603 0
M  V30 3813 H 366.149 4.47157 4.16966 0
M  V30 3814 H 370.323 5.44348 4.34348 0
M  V30 3815 H 367.95 6.1405 4.48159 0
M  V30 3816 N 369.525 -1.3858 0.750561 0
M  V30 3817 C 370.488 -2.28836 0.129152 0
M  V30 3818 C 371.488 -1.47045 -0.650714 0
M  V30 3819 O 372.678 -1.6753 -0.477428 0
M  V30 3820 C 369.81 -3.30751 -0.825622 0
M  V30 3821 H 371.003 -2.85294 0.924516 0
M  V30 3822 H 368.556 -1.47489 0.517376 0
M  V30 3823 H 369.291 -2.79378 -1.64677 0
M  V30 3824 H 369.076 -3.91177 -0.268852 0
M  V30 3825 H 370.566 -3.98249 -1.2565 0
M  V30 3826 N 371.003 -0.499398 -1.49478 0
M  V30 3827 C 371.933 0.269244 -2.31943 0
M  V30 3828 C 372.914 0.964054 -1.40143 0
M  V30 3829 O 374.099 0.955767 -1.69052 0
M  V30 3830 C 371.229 1.33504 -3.20615 0
M  V30 3831 C 370.183 0.760202 -4.21195 0
M  V30 3832 C 369.509 1.9264 -4.98792 0
M  V30 3833 C 370.809 -0.247661 -5.21712 0
M  V30 3834 H 372.503 -0.419082 -2.96452 0
M  V30 3835 H 370.049 -0.202988 -1.42562 0
M  V30 3836 H 372.002 1.88048 -3.77115 0
M  V30 3837 H 370.726 2.05253 -2.54045 0
M  V30 3838 H 369.385 0.23653 -3.65836 0
M  V30 3839 H 369.033 2.63154 -4.28671 0
M  V30 3840 H 368.733 1.54785 -5.66847 0
M  V30 3841 H 370.257 2.4762 -5.58137 0
M  V30 3842 H 371.671 0.209579 -5.72917 0
M  V30 3843 H 370.068 -0.541962 -5.97648 0
M  V30 3844 H 371.138 -1.16409 -4.7072 0
M  V30 3845 N 372.481 1.55866 -0.233164 0
M  V30 3846 C 373.897 1.59133 0.121988 0
M  V30 3847 C 374.097 1.25016 1.58029 0
M  V30 3848 O 373.153 0.990922 2.32243 0
M  V30 3849 C 374.466 2.99932 -0.214792 0
M  V30 3850 C 376.014 3.12601 -0.157971 0
M  V30 3851 C 376.489 4.55597 -0.46859 0
M  V30 3852 N 377.98 4.61305 -0.418585 0
M  V30 3853 C 378.715 5.69903 -0.63227 0
M  V30 3854 N 378.211 6.86819 -0.90835 0
M  V30 3855 N 380.004 5.59264 -0.563913 0
M  V30 3856 H 372.155 1.76315 -1.18434 0
M  V30 3857 H 374.418 0.820093 -0.475553 0
M  V30 3858 H 374.124 3.29588 -1.22739 0
M  V30 3859 H 373.998 3.74327 0.464691 0
M  V30 3860 H 376.385 2.82735 0.845283 0
M  V30 3861 H 376.466 2.40511 -0.871102 0
M  V30 3862 H 376.11 4.86182 -1.46934 0
M  V30 3863 H 376.04 5.25928 0.265865 0
M  V30 3864 H 378.531 3.77297 -0.213368 0
M  V30 3865 H 378.844 7.65507 -1.05919 0
M  V30 3866 H 377.189 6.88536 -0.945673 0
M  V30 3867 H 380.38 4.66802 -0.348372 0
M  V30 3868 H 380.553 6.43831 -0.733847 0
M  V30 3869 N 373.959 -0.0401083 1.57549 0
M  V30 3870 C 375.236 -0.767917 1.79896 0
M  V30 3871 C 375.616 -1.9416 0.82856 0
M  V30 3872 O 374.964 -2.2812 -0.131671 0
M  V30 3873 C 375.174 -1.2113 3.27305 0
M  V30 3874 C 376.522 -1.63175 3.91994 0
M  V30 3875 O 377.546 -1.30616 3.31388 0
M  V30 3876 O 376.405 -2.23565 4.98679 0
M  V30 3877 H 373.499 -0.370441 0.739393 0
M  V30 3878 H 376.045 -0.017737 1.69691 0
M  V30 3879 H 374.817 -0.372937 3.89519 0
M  V30 3880 H 374.44 -2.02183 3.42356 0
M  V30 3881 N 375.437 -1.54477 -0.31217 0
M  V30 3882 C 376.683 -1.74417 -1.04644 0
M  V30 3883 C 377.038 -0.517641 -1.85306 0
M  V30 3884 O 376.331 0.489973 -1.85229 0
M  V30 3885 C 376.525 -2.967 -1.99258 0
M  V30 3886 C 376.354 -4.31128 -1.27901 0
M  V30 3887 C 375.124 -4.95087 -1.01079 0
M  V30 3888 C 377.322 -5.09662 -0.689119 0
M  V30 3889 N 375.304 -6.13322 -0.266323 0
M  V30 3890 C 376.675 -6.19952 -0.0768523 0
M  V30 3891 C 378.73 -4.94355 -0.593061 0
M  V30 3892 C 377.433 -7.16604 0.622165 0
M  V30 3893 C 379.459 -5.91328 0.0922792 0
M  V30 3894 C 378.821 -7.00978 0.693443 0
M  V30 3895 H 374.92 -0.69094 -0.366231 0
M  V30 3896 H 377.504 -1.91946 -0.326319 0
M  V30 3897 H 375.675 -2.80616 -2.68532 0
M  V30 3898 H 377.407 -3.05216 -2.65755 0
M  V30 3899 H 374.162 -4.55235 -1.30607 0
M  V30 3900 H 374.586 -6.76937 0.0920973 0
M  V30 3901 H 379.228 -4.09719 -1.04355 0
M  V30 3902 H 376.946 -8.0079 1.08445 0
M  V30 3903 H 380.532 -5.81562 0.166396 0
M  V30 3904 H 379.412 -7.74725 1.21533 0
M  V30 3905 N 376.915 0.57481 -1.46744 0
M  V30 3906 C 378.331 0.898981 -1.31873 0
M  V30 3907 C 378.531 1.99313 -0.29605 0
M  V30 3908 O 377.587 2.50728 0.298621 0
M  V30 3909 C 378.9 1.30886 -2.7072 0
M  V30 3910 C 380.448 1.42127 -2.78871 0
M  V30 3911 C 380.923 1.86478 -4.18318 0
M  V30 3912 N 382.414 1.93658 -4.20774 0
M  V30 3913 C 383.149 2.29267 -5.2557 0
M  V30 3914 N 382.645 2.63612 -6.40688 0
M  V30 3915 N 384.438 2.29889 -5.1294 0
M  V30 3916 H 376.589 -0.147839 -2.11885 0
M  V30 3917 H 378.852 -0.00347013 -0.947994 0
M  V30 3918 H 378.558 0.578853 -3.46904 0
M  V30 3919 H 378.432 2.26874 -3.01343 0
M  V30 3920 H 380.819 2.14213 -2.0297 0
M  V30 3921 H 380.9 0.443705 -2.51922 0
M  V30 3922 H 380.544 1.14968 -4.94717 0
M  V30 3923 H 380.474 2.85207 -4.42679 0
M  V30 3924 H 382.965 1.69574 -3.37718 0
M  V30 3925 H 383.278 2.89759 -7.16421 0
M  V30 3926 H 381.623 2.61232 -6.44036 0
M  V30 3927 H 384.814 2.02485 -4.22039 0
M  V30 3928 H 384.987 2.57312 -5.94722 0
M  V30 3929 N 378.394 1.34581 0.820102 0
M  V30 3930 C 379.622 1.3018 1.60813 0
M  V30 3931 C 380.037 -0.123551 1.88395 0
M  V30 3932 O 379.394 -1.07148 1.47735 0
M  V30 3933 C 379.445 2.09312 2.94739 0
M  V30 3934 O 379.166 3.46288 2.68358 0
M  V30 3935 C 380.667 2.1234 3.89136 0
M  V30 3936 H 377.887 0.447726 0.499782 0
M  V30 3937 H 380.431 1.77237 1.02017 0
M  V30 3938 H 378.586 1.65889 3.50085 0
M  V30 3939 H 379 3.87227 3.53774 0
M  V30 3940 H 380.474 2.72126 4.80262 0
M  V30 3941 H 380.951 1.11854 4.24718 0
M  V30 3942 H 381.557 2.55864 3.39726 0
M  V30 3943 N 379.872 -1.04064 1.18357 0
M  V30 3944 C 380.802 -2.14001 0.934113 0
M  V30 3945 C 381.783 -1.69616 -0.128186 0
M  V30 3946 O 382.968 -1.94185 0.0244093 0
M  V30 3947 C 380.098 -3.44253 0.459066 0
M  V30 3948 C 379.052 -4.02261 1.46185 0
M  V30 3949 C 378.378 -5.27992 0.844322 0
M  V30 3950 C 379.678 -4.38432 2.83856 0
M  V30 3951 H 381.372 -2.35127 1.85352 0
M  V30 3952 H 378.918 -1.12998 0.892604 0
M  V30 3953 H 380.871 -4.20522 0.271907 0
M  V30 3954 H 379.595 -3.22813 -0.495912 0
M  V30 3955 H 378.254 -3.28074 1.63595 0
M  V30 3956 H 377.902 -5.02862 -0.117845 0
M  V30 3957 H 377.602 -5.67765 1.51384 0
M  V30 3958 H 379.126 -6.06938 0.667693 0
M  V30 3959 H 380.54 -5.05688 2.70098 0
M  V30 3960 H 378.937 -4.89254 3.47491 0
M  V30 3961 H 380.007 -3.4826 3.37406 0
M  V30 3962 N 381.35 -0.985608 -1.22978 0
M  V30 3963 C 382.282 -0.488154 -2.23941 0
M  V30 3964 C 383.295 0.41282 -1.57479 0
M  V30 3965 O 384.484 0.216121 -1.77187 0
M  V30 3966 C 381.584 0.312611 -3.37455 0
M  V30 3967 C 380.757 -0.582741 -4.33501 0
M  V30 3968 C 379.816 0.165064 -5.25941 0
M  V30 3969 O 378.842 -0.447077 -5.67442 0
M  V30 3970 N 380.044 1.44953 -5.62111 0
M  V30 3971 H 382.809 -1.3563 -2.67254 0
M  V30 3972 H 380.37 -0.859477 -1.37203 0
M  V30 3973 H 382.362 0.821357 -3.96277 0
M  V30 3974 H 380.932 1.0818 -2.93285 0
M  V30 3975 H 380.152 -1.27225 -3.73105 0
M  V30 3976 H 381.44 -1.19275 -4.94622 0
M  V30 3977 H 380.838 1.9683 -5.30353 0
M  V30 3978 H 379.395 1.90361 -6.23383 0
M  V30 3979 N 382.828 1.3818 -0.7579 0
M  V30 3980 C 383.758 2.33027 -0.148597 0
M  V30 3981 C 384.739 1.55085 0.69875 0
M  V30 3982 O 385.924 1.83384 0.639053 0
M  V30 3983 C 383.054 3.3928 0.742034 0
M  V30 3984 C 382.008 4.28 -0.00291946 0
M  V30 3985 C 381.334 5.25146 1.00625 0
M  V30 3986 C 382.634 5.08938 -1.17385 0
M  V30 3987 H 384.328 2.84231 -0.940909 0
M  V30 3988 H 381.874 1.36659 -0.453908 0
M  V30 3989 H 383.827 4.046 1.17799 0
M  V30 3990 H 382.551 2.86569 1.56671 0
M  V30 3991 H 381.21 3.64192 -0.419504 0
M  V30 3992 H 380.858 4.68721 1.8251 0
M  V30 3993 H 380.558 5.85361 0.512428 0
M  V30 3994 H 382.082 5.93342 1.44143 0
M  V30 3995 H 383.496 5.67474 -0.815224 0
M  V30 3996 H 381.893 5.7841 -1.59882 0
M  V30 3997 H 382.963 4.42424 -1.98468 0
M  V30 3998 N 384.306 0.507319 1.49211 0
M  V30 3999 C 385.269 -0.256763 2.27757 0
M  V30 4000 C 386.269 -0.888287 1.34038 0
M  V30 4001 O 387.459 -0.751841 1.5714 0
M  V30 4002 C 384.591 -1.36905 3.12202 0
M  V30 4003 H 385.784 0.432557 2.96764 0
M  V30 4004 H 383.337 0.262488 1.5408 0
M  V30 4005 H 384.072 -2.09233 2.47775 0
M  V30 4006 H 383.857 -0.921599 3.81115 0
M  V30 4007 H 385.347 -1.9071 3.7151 0
M  V30 4008 N 385.784 -1.5574 0.241426 0
M  V30 4009 C 386.747 -2.19877 -0.647063 0
M  V30 4010 C 387.747 -1.16642 -1.10686 0
M  V30 4011 O 388.937 -1.41757 -1.01245 0
M  V30 4012 C 386.069 -2.83797 -1.88871 0
M  V30 4013 H 387.262 -2.99772 -0.087574 0
M  V30 4014 H 384.815 -1.56298 -0.00813574 0
M  V30 4015 H 385.55 -2.07824 -2.48957 0
M  V30 4016 H 385.335 -3.59414 -1.56728 0
M  V30 4017 H 386.825 -3.32898 -2.52129 0
M  V30 4018 N 387.262 0.0317525 -1.57568 0
M  V30 4019 C 388.487 0.738664 -1.938 0
M  V30 4020 C 388.912 1.68242 -0.841208 0
M  V30 4021 O 388.27 1.80157 0.203267 0
M  V30 4022 C 388.318 1.47417 -3.29091 0
M  V30 4023 O 387.422 2.5872 -3.2115 0
M  V30 4024 H 386.763 0.198856 -0.633524 0
M  V30 4025 H 389.293 -0.0119713 -2.04596 0
M  V30 4026 H 389.303 1.84468 -3.63917 0
M  V30 4027 H 387.978 0.781988 -4.08482 0
M  V30 4028 H 386.555 2.24231 -2.97951 0
M  V30 4029 N 388.74 1.54641 0.303973 0
M  V30 4030 C 389.986 1.74038 1.04109 0
M  V30 4031 C 390.319 0.523051 1.87024 0
M  V30 4032 O 389.594 -0.479874 1.88487 0
M  V30 4033 C 389.877 3.02761 1.94955 0
M  V30 4034 C 389.73 4.34787 1.1524 0
M  V30 4035 C 391.049 3.27336 2.94175 0
M  V30 4036 H 388.168 0.63323 0.377079 0
M  V30 4037 H 390.81 1.87354 0.316001 0
M  V30 4038 H 388.96 2.9154 2.56782 0
M  V30 4039 H 390.632 4.57922 0.557236 0
M  V30 4040 H 388.875 4.31407 0.455053 0
M  V30 4041 H 389.546 5.21116 1.8205 0
M  V30 4042 H 392.022 3.38148 2.42477 0
M  V30 4043 H 390.898 4.18726 3.54908 0
M  V30 4044 H 391.159 2.45491 3.67677 0
M  V30 4045 N 390.218 -0.567019 1.47046 0
M  V30 4046 C 391.629 -1.14916 1.47143 0
M  V30 4047 C 391.98 -1.94954 0.220767 0
M  V30 4048 O 391.105 -2.05602 -0.67505 0
M  V30 4049 C 391.7 -2.09069 2.666 0
M  V30 4050 C 390.259 -2.62575 2.69687 0
M  V30 4051 C 389.406 -1.38755 2.40088 0
M  V30 4052 H 392.357 -0.354126 1.54699 0
M  V30 4053 H 392.378 -2.92789 2.43011 0
M  V30 4054 H 391.89 -1.50789 3.57609 0
M  V30 4055 H 389.991 -3.24681 1.82792 0
M  V30 4056 H 390.104 -3.04239 3.70102 0
M  V30 4057 H 388.468 -1.69098 1.90468 0
M  V30 4058 H 389.251 -0.822822 3.33293 0
M  V30 4059 N 391.696 -1.35014 -0.812953 0
M  V30 4060 C 392.943 -1.27931 -1.56971 0
M  V30 4061 C 393.271 0.148034 -1.93936 0
M  V30 4062 O 392.526 1.11175 -1.61054 0
M  V30 4063 C 392.825 -2.12524 -2.87347 0
M  V30 4064 C 392.491 -3.61401 -2.6963 0
M  V30 4065 C 391.153 -4.01983 -2.64506 0
M  V30 4066 C 393.505 -4.55894 -2.52607 0
M  V30 4067 C 390.833 -5.35235 -2.40293 0
M  V30 4068 C 393.185 -5.89336 -2.29925 0
M  V30 4069 C 391.849 -6.2907 -2.23219 0
M  V30 4070 H 391.119 -0.468131 -0.574399 0
M  V30 4071 H 393.766 -1.66851 -0.939836 0
M  V30 4072 H 392.071 -1.66463 -3.54679 0
M  V30 4073 H 393.768 -2.04383 -3.45005 0
M  V30 4074 H 390.358 -3.29193 -2.74463 0
M  V30 4075 H 394.542 -4.25431 -2.55583 0
M  V30 4076 H 389.798 -5.65028 -2.33566 0
M  V30 4077 H 393.972 -6.62139 -2.15743 0
M  V30 4078 H 391.599 -7.32256 -2.04219 0
M  V30 4079 N 393.175 1.03435 -1.18907 0
M  V30 4080 C 394.422 1.76743 -0.988334 0
M  V30 4081 C 394.75 1.88447 0.481441 0
M  V30 4082 O 394.005 1.39383 1.37371 0
M  V30 4083 C 394.304 3.19792 -1.59586 0
M  V30 4084 C 393.97 3.28108 -3.09283 0
M  V30 4085 C 392.632 3.30084 -3.5014 0
M  V30 4086 C 394.984 3.27696 -4.05296 0
M  V30 4087 C 392.312 3.29299 -4.85571 0
M  V30 4088 C 394.664 3.28451 -5.4065 0
M  V30 4089 C 393.328 3.28723 -5.80946 0
M  V30 4090 H 392.598 0.64675 -0.361657 0
M  V30 4091 H 395.245 1.21442 -1.48068 0
M  V30 4092 H 393.55 3.78136 -1.02568 0
M  V30 4093 H 395.247 3.75171 -1.41589 0
M  V30 4094 H 391.837 3.27294 -2.76725 0
M  V30 4095 H 396.021 3.25354 -3.74778 0
M  V30 4096 H 391.277 3.2783 -5.16079 0
M  V30 4097 H 395.451 3.27082 -6.14809 0
M  V30 4098 H 393.078 3.27868 -6.85862 0
M  V30 4099 N 394.653 0.992116 1.22453 0
M  V30 4100 C 395.616 0.546883 2.2258 0
M  V30 4101 C 396.616 -0.369829 1.56489 0
M  V30 4102 O 397.806 -0.161896 1.73446 0
M  V30 4103 C 394.938 -0.204659 3.40285 0
M  V30 4104 H 396.131 1.43234 2.63484 0
M  V30 4105 H 393.684 0.779239 1.3549 0
M  V30 4106 H 394.419 -1.10614 3.04853 0
M  V30 4107 H 394.204 0.45354 3.89468 0
M  V30 4108 H 395.694 -0.504358 4.14543 0
M  V30 4109 N 396.131 -1.37776 0.765217 0
M  V30 4110 C 397.38 -1.99092 0.323307 0
M  V30 4111 C 397.693 -1.61434 -1.10446 0
M  V30 4112 O 398.899 -2.15805 -1.64743 0
M  V30 4113 C 397.355 -3.56019 0.527098 0
M  V30 4114 C 396.963 -4.0262 1.96471 0
M  V30 4115 C 398.707 -4.2424 0.148483 0
M  V30 4116 C 396.614 -5.52233 2.11644 0
M  V30 4117 H 395.544 -0.744846 0.117137 0
M  V30 4118 H 398.195 -1.57391 0.943417 0
M  V30 4119 H 396.577 -3.95667 -0.162372 0
M  V30 4120 H 397.751 -3.74234 2.68859 0
M  V30 4121 H 396.066 -3.47161 2.29931 0
M  V30 4122 H 398.663 -5.34159 0.240456 0
M  V30 4123 H 399.006 -4.06446 -0.900422 0
M  V30 4124 H 399.539 -3.89872 0.79025 0
M  V30 4125 H 396.278 -5.74945 3.1483 0
M  V30 4126 H 395.798 -5.82324 1.4373 0
M  V30 4127 H 397.477 -6.18106 1.91193 0
M  V30 4128 N 397.609 -0.515225 -1.4894 0
M  V30 4129 C 398.834 0.022727 -2.07388 0
M  V30 4130 C 399.259 1.2876 -1.37122 0
M  V30 4131 O 398.617 1.76067 -0.432431 0
M  V30 4132 C 398.665 0.244869 -3.59768 0
M  V30 4133 O 397.769 1.31667 -3.90817 0
M  V30 4134 H 397.11 -0.0325506 -0.663202 0
M  V30 4135 H 399.64 -0.718918 -1.91553 0
M  V30 4136 H 399.65 0.47205 -4.0526 0
M  V30 4137 H 398.325 -0.679194 -4.10317 0
M  V30 4138 H 396.902 1.07331 -3.5712 0
M  V30 4139 N 399.087 1.5561 -0.249682 0
M  V30 4140 C 400.017 2.24477 0.642826 0
M  V30 4141 C 400.998 1.22601 1.17911 0
M  V30 4142 O 402.183 1.5126 1.21795 0
M  V30 4143 C 399.313 2.94638 1.83863 0
M  V30 4144 C 398.267 4.03227 1.435 0
M  V30 4145 C 397.593 4.60828 2.71186 0
M  V30 4146 C 398.893 5.18796 0.604002 0
M  V30 4147 H 400.587 2.99321 0.0685625 0
M  V30 4148 H 398.133 1.43965 0.0315363 0
M  V30 4149 H 400.086 3.41517 2.46868 0
M  V30 4150 H 398.81 2.17287 2.43832 0
M  V30 4151 H 397.469 3.57121 0.828275 0
M  V30 4152 H 397.117 3.80174 3.29358 0
M  V30 4153 H 396.817 5.34132 2.44901 0
M  V30 4154 H 398.341 5.10442 3.35084 0
M  V30 4155 H 399.755 5.61883 1.13842 0
M  V30 4156 H 398.152 5.98506 0.437097 0
M  V30 4157 H 399.222 4.83384 -0.383147 0
M  V30 4158 N 400.565 -0.0233959 1.57583 0
M  V30 4159 C 401.814 -0.712133 1.8871 0
M  V30 4160 C 402.127 -1.76217 0.848944 0
M  V30 4161 O 403.333 -2.50389 1.04964 0
M  V30 4162 C 401.789 -1.3177 3.3491 0
M  V30 4163 C 401.397 -0.303715 4.46969 0
M  V30 4164 C 403.141 -1.98598 3.75179 0
M  V30 4165 C 401.048 -0.917945 5.84233 0
M  V30 4166 H 399.978 -0.269735 0.704101 0
M  V30 4167 H 402.629 0.0333114 1.8347 0
M  V30 4168 H 401.011 -2.11304 3.34913 0
M  V30 4169 H 402.185 0.465325 4.58445 0
M  V30 4170 H 400.5 0.2628 4.1557 0
M  V30 4171 H 403.097 -2.45416 4.75053 0
M  V30 4172 H 403.44 -2.80659 3.07468 0
M  V30 4173 H 403.973 -1.25831 3.77374 0
M  V30 4174 H 400.712 -0.136633 6.55358 0
M  V30 4175 H 400.232 -1.65669 5.76467 0
M  V30 4176 H 401.911 -1.4236 6.31144 0
M  V30 4177 N 402.043 -1.548 -0.295768 0
M  V30 4178 C 403.268 -1.78653 -1.05346 0
M  V30 4179 C 403.693 -0.546894 -1.79974 0
M  V30 4180 O 403.051 0.502763 -1.7419 0
M  V30 4181 C 403.099 -2.99679 -2.00561 0
M  V30 4182 O 402.203 -2.7317 -3.08953 0
M  V30 4183 H 401.544 -0.59116 -0.302367 0
M  V30 4184 H 404.074 -2.01895 -0.331598 0
M  V30 4185 H 404.084 -3.27793 -2.42932 0
M  V30 4186 H 402.759 -3.89562 -1.4565 0
M  V30 4187 H 401.336 -2.56089 -2.71059 0
M  V30 4188 N 403.521 0.559213 -1.47345 0
M  V30 4189 C 404.767 1.31614 -1.55079 0
M  V30 4190 C 405.122 1.91257 -0.209422 0
M  V30 4191 O 404.415 1.74796 0.784656 0
M  V30 4192 C 404.609 2.44853 -2.6035 0
M  V30 4193 C 404.438 1.96305 -4.04591 0
M  V30 4194 C 403.208 1.8024 -4.72061 0
M  V30 4195 C 405.406 1.50872 -4.91673 0
M  V30 4196 N 403.388 1.26011 -6.00828 0
M  V30 4197 C 404.759 1.08395 -6.10451 0
M  V30 4198 C 406.814 1.38905 -4.78132 0
M  V30 4199 C 405.517 0.551399 -7.17183 0
M  V30 4200 C 407.543 0.870518 -5.84958 0
M  V30 4201 C 406.905 0.455661 -7.02925 0
M  V30 4202 H 403.004 0.473712 -0.62219 0
M  V30 4203 H 405.588 0.634103 -1.84085 0
M  V30 4204 H 403.759 3.10589 -2.33215 0
M  V30 4205 H 405.491 3.11849 -2.57938 0
M  V30 4206 H 402.246 2.02895 -4.27937 0
M  V30 4207 H 402.67 1.00991 -6.69425 0
M  V30 4208 H 407.312 1.69591 -3.87297 0
M  V30 4209 H 405.03 0.232159 -8.07766 0
M  V30 4210 H 408.616 0.781507 -5.76527 0
M  V30 4211 H 407.496 0.0606414 -7.84177 0
M  V30 4212 N 404.999 1.35443 0.805782 0
M  V30 4213 C 406.245 1.2996 1.56467 0
M  V30 4214 C 406.6 -0.124742 1.91995 0
M  V30 4215 O 405.893 -1.07533 1.58579 0
M  V30 4216 C 406.087 2.14045 2.86216 0
M  V30 4217 C 405.916 3.64512 2.63365 0
M  V30 4218 C 404.686 4.33744 2.59219 0
M  V30 4219 C 406.884 4.58142 2.33688 0
M  V30 4220 N 404.866 5.69953 2.28094 0
M  V30 4221 C 406.237 5.8248 2.12408 0
M  V30 4222 C 408.292 4.46877 2.19558 0
M  V30 4223 C 406.995 6.96818 1.78429 0
M  V30 4224 C 409.021 5.61065 1.86976 0
M  V30 4225 C 408.383 6.84431 1.66532 0
M  V30 4226 H 404.482 0.530817 0.574245 0
M  V30 4227 H 407.066 1.70333 0.943126 0
M  V30 4228 H 405.237 1.75942 3.46264 0
M  V30 4229 H 406.969 2.00075 3.51784 0
M  V30 4230 H 403.724 3.86365 2.73896 0
M  V30 4231 H 404.148 6.41845 2.15323 0
M  V30 4232 H 408.79 3.52102 2.34061 0
M  V30 4233 H 406.508 7.91559 1.62664 0
M  V30 4234 H 410.094 5.54302 1.7675 0
M  V30 4235 H 408.974 7.71294 1.41688 0
M  V30 4236 N 406.477 -1.02803 1.19454 0
M  V30 4237 C 407.407 -2.12999 0.956758 0
M  V30 4238 C 408.388 -1.69743 -0.110188 0
M  V30 4239 O 409.573 -1.94148 0.0450038 0
M  V30 4240 C 406.703 -3.43746 0.495553 0
M  V30 4241 C 405.657 -4.00688 1.50443 0
M  V30 4242 C 404.983 -5.27067 0.900275 0
M  V30 4243 C 406.283 -4.35397 2.8849 0
M  V30 4244 H 407.977 -2.33148 1.87836 0
M  V30 4245 H 405.523 -1.12045 0.904539 0
M  V30 4246 H 407.476 -4.2021 0.316493 0
M  V30 4247 H 406.2 -3.23321 -0.461646 0
M  V30 4248 H 404.859 -3.2632 1.67065 0
M  V30 4249 H 404.507 -5.02959 -0.064503 0
M  V30 4250 H 404.207 -5.66127 1.57397 0
M  V30 4251 H 405.731 -6.06196 0.73203 0
M  V30 4252 H 407.145 -5.02795 2.75446 0
M  V30 4253 H 405.542 -4.85541 3.52661 0
M  V30 4254 H 406.612 -3.44662 3.41081 0
M  V30 4255 N 407.956 -0.998596 -1.21925 0
M  V30 4256 C 409.367 -0.711939 -1.72593 0
M  V30 4257 C 409.718 0.770842 -1.80423 0
M  V30 4258 O 408.843 1.60237 -1.4544 0
M  V30 4259 C 409.438 -1.28567 -3.13458 0
M  V30 4260 C 407.997 -1.04828 -3.61508 0
M  V30 4261 C 407.144 -1.4024 -2.39224 0
M  V30 4262 H 410.095 -1.17027 -1.07193 0
M  V30 4263 H 410.116 -0.667098 -3.74607 0
M  V30 4264 H 409.628 -2.36486 -3.07727 0
M  V30 4265 H 407.729 0.0140383 -3.72597 0
M  V30 4266 H 407.842 -1.71566 -4.47328 0
M  V30 4267 H 406.206 -0.821077 -2.41103 0
M  V30 4268 H 406.989 -2.49176 -2.36149 0
M  V30 4269 N 409.434 1.37368 -0.772513 0
M  V30 4270 C 410.344 2.34053 -0.160081 0
M  V30 4271 C 411.36 1.60216 0.678728 0
M  V30 4272 O 412.536 1.92303 0.59847 0
M  V30 4273 C 409.601 3.3939 0.708182 0
M  V30 4274 C 408.662 4.29048 -0.147172 0
M  V30 4275 C 407.895 5.29354 0.679744 0
M  V30 4276 O 408.118 5.3723 1.91678 0
M  V30 4277 O 407.052 6.01835 0.0885444 0
M  V30 4278 H 410.878 2.88159 -0.959053 0
M  V30 4279 H 408.463 1.39543 -0.533685 0
M  V30 4280 H 410.345 4.03839 1.20384 0
M  V30 4281 H 409.02 2.8761 1.48533 0
M  V30 4282 H 407.927 3.67697 -0.689205 0
M  V30 4283 H 409.26 4.84134 -0.887423 0
M  V30 4284 N 410.912 0.523116 1.48665 0
M  V30 4285 C 412.137 -0.0117284 2.07397 0
M  V30 4286 C 412.562 -1.28031 1.37803 0
M  V30 4287 O 411.92 -1.75836 0.441762 0
M  V30 4288 C 411.968 -0.225786 3.59892 0
M  V30 4289 O 411.072 -1.29592 3.91509 0
M  V30 4290 H 410.413 0.0360673 0.66302 0
M  V30 4291 H 412.943 0.729066 1.9117 0
M  V30 4292 H 412.953 -0.450552 4.05505 0
M  V30 4293 H 411.628 0.700944 4.09951 0
M  V30 4294 H 410.205 -1.05436 3.57684 0
M  V30 4295 N 412.39 -1.55475 0.257931 0
M  V30 4296 C 413.353 -2.20551 -0.623706 0
M  V30 4297 C 414.353 -1.17809 -1.09443 0
M  V30 4298 O 415.543 -1.42823 -0.997362 0
M  V30 4299 C 412.675 -2.85784 -1.8585 0
M  V30 4300 H 413.868 -2.99848 -0.0557743 0
M  V30 4301 H 411.421 -1.56298 0.0084422 0
M  V30 4302 H 412.156 -2.10453 -2.46739 0
M  V30 4303 H 411.941 -3.61057 -1.52907 0
M  V30 4304 H 413.431 -3.35553 -2.48584 0
M  V30 4305 N 413.868 0.0150385 -1.57593 0
M  V30 4306 C 415.284 0.370907 -1.5523 0
M  V30 4307 C 415.484 1.75735 -0.985882 0
M  V30 4308 O 414.54 2.44944 -0.613077 0
M  V30 4309 C 415.853 0.259908 -2.99575 0
M  V30 4310 C 417.401 0.335959 -3.11192 0
M  V30 4311 C 417.876 0.254253 -4.57294 0
M  V30 4312 N 419.367 0.312618 -4.62144 0
M  V30 4313 C 420.102 0.272505 -5.72752 0
M  V30 4314 N 419.598 0.183864 -6.92556 0
M  V30 4315 N 421.391 0.323267 -5.6117 0
M  V30 4316 H 413.542 -0.892104 -1.92757 0
M  V30 4317 H 415.805 -0.340563 -0.884715 0
M  V30 4318 H 415.511 -0.693403 -3.44797 0
M  V30 4319 H 415.385 1.048 -3.62349 0
M  V30 4320 H 417.772 1.27971 -2.65909 0
M  V30 4321 H 417.853 -0.481739 -2.51223 0
M  V30 4322 H 417.497 -0.685887 -5.03247 0
M  V30 4323 H 417.427 1.09024 -5.15191 0
M  V30 4324 H 419.918 0.38307 -3.75953 0
M  V30 4325 H 420.231 0.15874 -7.72637 0
M  V30 4326 H 418.576 0.149708 -6.94839 0
M  V30 4327 H 421.767 0.390607 -4.66467 0
M  V30 4328 H 421.94 0.288539 -6.47357 0
M  V30 4329 N 415.346 1.54954 0.287554 0
M  V30 4330 C 416.592 1.76059 1.01856 0
M  V30 4331 C 416.947 0.547056 1.84459 0
M  V30 4332 O 416.24 -0.460442 1.85985 0
M  V30 4333 C 416.434 2.99833 1.94512 0
M  V30 4334 C 416.263 4.33108 1.21026 0
M  V30 4335 C 415.033 4.96632 0.931896 0
M  V30 4336 C 417.231 5.10694 0.607949 0
M  V30 4337 N 415.213 6.13668 0.168716 0
M  V30 4338 C 416.584 6.19996 -0.0217865 0
M  V30 4339 C 418.639 4.95236 0.514338 0
M  V30 4340 C 417.342 7.15524 -0.736092 0
M  V30 4341 C 419.368 5.91106 -0.186343 0
M  V30 4342 C 418.73 6.99786 -0.804875 0
M  V30 4343 H 414.829 0.696679 0.355193 0
M  V30 4344 H 417.413 1.92441 0.295741 0
M  V30 4345 H 415.584 2.84853 2.64033 0
M  V30 4346 H 417.316 3.09405 2.60865 0
M  V30 4347 H 414.071 4.57255 1.23348 0
M  V30 4348 H 414.495 6.76705 -0.199781 0
M  V30 4349 H 419.137 4.11328 0.978234 0
M  V30 4350 H 416.855 7.98964 -1.21172 0
M  V30 4351 H 420.441 5.81224 -0.258897 0
M  V30 4352 H 419.321 7.72694 -1.33843 0
M  V30 4353 N 416.824 -0.551391 1.4764 0
M  V30 4354 C 417.754 -1.66757 1.63445 0
M  V30 4355 C 418.735 -1.63077 0.483742 0
M  V30 4356 O 419.92 -1.80607 0.71377 0
M  V30 4357 C 417.05 -3.05387 1.65396 0
M  V30 4358 C 416.004 -3.23918 2.79752 0
M  V30 4359 C 415.33 -4.63393 2.66779 0
M  V30 4360 C 416.63 -3.08735 4.21284 0
M  V30 4361 H 418.324 -1.53786 2.56886 0
M  V30 4362 H 415.87 -0.738415 1.23626 0
M  V30 4363 H 417.823 -3.83325 1.75043 0
M  V30 4364 H 416.547 -3.19332 0.685195 0
M  V30 4365 H 415.206 -2.48391 2.69625 0
M  V30 4366 H 414.854 -4.74144 1.67918 0
M  V30 4367 H 414.554 -4.7674 3.43501 0
M  V30 4368 H 416.078 -5.43458 2.78364 0
M  V30 4369 H 417.492 -3.76484 4.32357 0
M  V30 4370 H 415.889 -3.33588 4.98838 0
M  V30 4371 H 416.959 -2.0541 4.39243 0
M  V30 4372 N 418.302 -1.35869 -0.798587 0
M  V30 4373 C 419.551 -1.28921 -1.5512 0
M  V30 4374 C 419.864 0.13208 -1.95154 0
M  V30 4375 O 421.07 0.323879 -2.69561 0
M  V30 4376 C 419.526 -2.26141 -2.79979 0
M  V30 4377 C 419.134 -3.73658 -2.47151 0
M  V30 4378 C 420.878 -2.28152 -3.57976 0
M  V30 4379 C 418.785 -4.62679 -3.6835 0
M  V30 4380 H 417.715 -0.479031 -0.582276 0
M  V30 4381 H 420.366 -1.61179 -0.877125 0
M  V30 4382 H 418.748 -1.86865 -3.49138 0
M  V30 4383 H 419.922 -4.21616 -1.85947 0
M  V30 4384 H 418.237 -3.74333 -1.82383 0
M  V30 4385 H 420.834 -2.91875 -4.4801 0
M  V30 4386 H 421.177 -1.28748 -3.95891 0
M  V30 4387 H 421.71 -2.65998 -2.95787 0
M  V30 4388 H 418.449 -5.63111 -3.35538 0
M  V30 4389 H 417.969 -4.19442 -4.28752 0
M  V30 4390 H 419.648 -4.78498 -4.35487 0
M  V30 4391 N 419.78 1.02168 -1.19998 0
M  V30 4392 C 421.029 1.75091 -1.0013 0
M  V30 4393 C 421.342 1.89923 0.467835 0
M  V30 4394 O 422.548 2.59888 0.785515 0
M  V30 4395 C 421.004 3.14892 -1.74273 0
M  V30 4396 C 420.612 3.0809 -3.25245 0
M  V30 4397 C 422.356 3.9206 -1.62755 0
M  V30 4398 C 420.263 4.42867 -3.91948 0
M  V30 4399 H 419.193 0.656394 -0.37103 0
M  V30 4400 H 421.844 1.14284 -1.43567 0
M  V30 4401 H 420.226 3.7621 -1.2362 0
M  V30 4402 H 421.4 2.5611 -3.83072 0
M  V30 4403 H 419.715 2.44416 -3.3712 0
M  V30 4404 H 422.312 4.91764 -2.09934 0
M  V30 4405 H 422.655 4.12199 -0.582894 0
M  V30 4406 H 423.188 3.37359 -2.10793 0
M  V30 4407 H 419.927 4.27931 -4.96543 0
M  V30 4408 H 419.447 4.94874 -3.3891 0
M  V30 4409 H 421.126 5.11728 -3.95909 0
M  V30 4410 N 421.258 1.00505 1.21394 0
M  V30 4411 C 422.205 0.565496 2.23765 0
M  V30 4412 C 423.175 -0.408466 1.60999 0
M  V30 4413 O 424.36 -0.310503 1.88257 0
M  V30 4414 C 421.5 -0.101667 3.4495 0
M  V30 4415 C 420.613 0.915479 4.22188 0
M  V30 4416 C 419.748 0.220574 5.30742 0
M  V30 4417 C 418.787 1.22527 5.99711 0
M  V30 4418 N 417.924 0.557831 6.9988 0
M  V30 4419 H 422.764 1.44314 2.60725 0
M  V30 4420 H 420.301 0.722643 1.28126 0
M  V30 4421 H 422.259 -0.505504 4.14126 0
M  V30 4422 H 420.889 -0.94303 3.08718 0
M  V30 4423 H 419.941 1.43756 3.52191 0
M  V30 4424 H 421.253 1.68005 4.69655 0
M  V30 4425 H 420.407 -0.239368 6.06228 0
M  V30 4426 H 419.146 -0.576401 4.84282 0
M  V30 4427 H 418.151 1.69571 5.22997 0
M  V30 4428 H 419.376 2.02332 6.48258 0
M  V30 4429 H 417.322 -0.219486 6.55633 0
M  V30 4430 H 417.239 1.26065 7.45415 0
M  V30 4431 H 418.507 0.121095 7.79406 0
M  V30 4432 N 422.737 -1.36956 0.779787 0
M  V30 4433 C 423.985 -1.99097 0.347079 0
M  V30 4434 C 424.306 -1.62206 -1.08232 0
M  V30 4435 O 423.576 -0.891373 -1.74446 0
M  V30 4436 H 422.156 -0.736409 0.125342 0
M  V30 4437 H 424.818 -1.67308 0.999696 0
M  V30 4438 H 423.914 -3.09107 0.431162 0
M  V30 4439 N 424.215 -0.530993 -1.48385 0
M  V30 4440 C 425.162 0.231223 -2.29639 0
M  V30 4441 C 426.132 0.932864 -1.37429 0
M  V30 4442 O 427.317 0.933692 -1.66394 0
M  V30 4443 C 424.457 1.27155 -3.2082 0
M  V30 4444 C 423.57 0.578655 -4.28107 0
M  V30 4445 C 422.705 1.602 -5.06467 0
M  V30 4446 C 421.744 0.892625 -6.05556 0
M  V30 4447 N 420.881 1.86157 -6.76971 0
M  V30 4448 H 425.721 -0.467848 -2.94305 0
M  V30 4449 H 423.258 -0.242556 -1.45086 0
M  V30 4450 H 425.216 1.88703 -3.72085 0
M  V30 4451 H 423.846 1.939 -2.58075 0
M  V30 4452 H 422.898 -0.150782 -3.80101 0
M  V30 4453 H 424.21 0.0217065 -4.98795 0
M  V30 4454 H 423.364 2.29173 -5.61751 0
M  V30 4455 H 422.103 2.19285 -4.35621 0
M  V30 4456 H 421.108 0.188829 -5.49476 0
M  V30 4457 H 422.333 0.307878 -6.78402 0
M  V30 4458 H 420.279 2.44147 -6.08875 0
M  V30 4459 H 420.196 1.35608 -7.43738 0
M  V30 4460 H 421.464 2.54325 -7.36844 0
M  V30 4461 N 425.693 1.55336 -0.266172 0
M  V30 4462 C 427.104 1.85236 0.233315 0
M  V30 4463 C 427.455 1.18816 1.56132 0
M  V30 4464 O 426.58 0.473307 2.11161 0
M  V30 4465 C 427.175 3.36059 0.430113 0
M  V30 4466 C 425.734 3.66116 0.873842 0
M  V30 4467 C 424.881 2.77274 -0.0380016 0
M  V30 4468 H 427.832 1.51004 -0.488214 0
M  V30 4469 H 427.853 3.58681 1.26998 0
M  V30 4470 H 427.365 3.84373 -0.536588 0
M  V30 4471 H 425.466 3.23295 1.85233 0
M  V30 4472 H 425.579 4.73699 0.717358 0
M  V30 4473 H 423.943 2.50198 0.476759 0
M  V30 4474 H 424.726 3.284 -1.00042 0
M  V30 4475 N 427.171 -0.0066808 1.57599 0
M  V30 4476 C 428.448 -0.729586 1.81484 0
M  V30 4477 C 428.828 -1.92359 0.869558 0
M  V30 4478 O 428.176 -2.28348 -0.0832533 0
M  V30 4479 C 428.386 -1.1416 3.29801 0
M  V30 4480 C 429.734 -1.54823 3.95367 0
M  V30 4481 O 430.758 -1.23558 3.34084 0
M  V30 4482 O 429.617 -2.12937 5.03309 0
M  V30 4483 H 426.711 -0.354674 0.747085 0
M  V30 4484 H 429.257 0.0182609 1.6969 0
M  V30 4485 H 428.029 -0.290231 3.90222 0
M  V30 4486 H 427.652 -1.94876 3.46568 0
M  V30 4487 N 428.649 -1.55105 -0.279332 0
M  V30 4488 C 429.581 -1.83952 -1.36727 0
M  V30 4489 C 430.594 -0.723642 -1.45833 0
M  V30 4490 O 431.783 -1.00141 -1.47763 0
M  V30 4491 C 428.883 -1.98183 -2.74912 0
M  V30 4492 C 428.056 -3.28787 -2.88475 0
M  V30 4493 C 427.115 -3.33162 -4.07295 0
M  V30 4494 O 426.141 -4.06576 -3.98353 0
M  V30 4495 N 427.343 -2.60109 -5.18964 0
M  V30 4496 H 430.108 -2.77853 -1.12328 0
M  V30 4497 H 427.669 -1.54945 -0.469442 0
M  V30 4498 H 429.661 -1.98488 -3.52682 0
M  V30 4499 H 428.231 -1.11177 -2.92162 0
M  V30 4500 H 427.451 -3.41075 -1.97641 0
M  V30 4501 H 428.739 -4.14933 -2.94463 0
M  V30 4502 H 428.137 -2.00136 -5.29115 0
M  V30 4503 H 426.694 -2.66143 -5.94988 0
M  V30 4504 N 430.127 0.543554 -1.4793 0
M  V30 4505 C 431.09 1.63156 -1.60975 0
M  V30 4506 C 432.09 1.53346 -0.483899 0
M  V30 4507 O 433.28 1.5726 -0.749339 0
M  V30 4508 C 430.412 3.02743 -1.56716 0
M  V30 4509 H 431.605 1.52934 -2.57975 0
M  V30 4510 H 429.158 0.764557 -1.36324 0
M  V30 4511 H 429.893 3.18484 -0.611418 0
M  V30 4512 H 429.678 3.11272 -2.38438 0
M  V30 4513 H 431.168 3.81871 -1.6901 0
M  V30 4514 N 431.605 1.3629 0.791371 0
M  V30 4515 C 432.535 1.33137 1.91825 0
M  V30 4516 C 433.516 0.203168 1.68882 0
M  V30 4517 O 434.701 0.400509 1.90025 0
M  V30 4518 C 431.831 1.11793 3.28816 0
M  V30 4519 C 430.785 2.21417 3.66277 0
M  V30 4520 C 430.111 1.85218 5.01596 0
M  V30 4521 C 431.411 3.63489 3.75064 0
M  V30 4522 H 433.105 2.2743 1.9472 0
M  V30 4523 H 430.651 1.09479 0.935437 0
M  V30 4524 H 432.604 1.08222 4.07266 0
M  V30 4525 H 431.328 0.139501 3.26302 0
M  V30 4526 H 429.987 2.2411 2.90121 0
M  V30 4527 H 429.635 0.859544 4.95602 0
M  V30 4528 H 429.335 2.58611 5.27631 0
M  V30 4529 H 430.859 1.832 5.82469 0
M  V30 4530 H 432.273 3.63034 4.43711 0
M  V30 4531 H 430.67 4.35771 4.12582 0
M  V30 4532 H 431.74 3.98536 2.76219 0
M  V30 4533 N 433.083 -1.0153 1.20538 0
M  V30 4534 C 434.015 -2.10224 0.913155 0
M  V30 4535 C 435.028 -1.62495 -0.0995998 0
M  V30 4536 O 436.217 -1.78014 0.131582 0
M  V30 4537 C 433.317 -3.37111 0.347717 0
M  V30 4538 C 432.49 -4.13971 1.41233 0
M  V30 4539 C 431.549 -5.19158 0.857976 0
M  V30 4540 O 430.575 -5.48 1.53897 0
M  V30 4541 N 431.777 -5.7955 -0.331966 0
M  V30 4542 H 434.542 -2.35879 1.84881 0
M  V30 4543 H 432.103 -1.17931 1.10923 0
M  V30 4544 H 434.095 -4.04683 -0.0373026 0
M  V30 4545 H 432.665 -3.08696 -0.492527 0
M  V30 4546 H 431.885 -3.41351 1.97163 0
M  V30 4547 H 433.173 -4.62103 2.12928 0
M  V30 4548 H 432.571 -5.58455 -0.902478 0
M  V30 4549 H 431.128 -6.48464 -0.65861 0
M  V30 4550 N 434.561 -1.01147 -1.20859 0
M  V30 4551 C 435.471 -0.58686 -2.27141 0
M  V30 4552 C 436.487 0.373198 -1.69951 0
M  V30 4553 O 437.663 0.235423 -2.00019 0
M  V30 4554 C 434.728 0.0733602 -3.46622 0
M  V30 4555 C 433.789 -0.931995 -4.19061 0
M  V30 4556 C 433.022 -0.303186 -5.32838 0
M  V30 4557 O 433.245 0.898395 -5.63281 0
M  V30 4558 O 432.179 -1.01735 -5.9324 0
M  V30 4559 H 436.005 -1.47155 -2.65667 0
M  V30 4560 H 433.59 -0.780689 -1.2738 0
M  V30 4561 H 435.472 0.442333 -4.19072 0
M  V30 4562 H 434.147 0.932329 -3.09983 0
M  V30 4563 H 433.054 -1.35224 -3.48805 0
M  V30 4564 H 434.387 -1.76076 -4.59628 0
M  V30 4565 N 436.039 1.36541 -0.78704 0
M  V30 4566 C 436.969 2.32659 -0.197992 0
M  V30 4567 C 437.95 1.56533 0.665697 0
M  V30 4568 O 439.135 1.84698 0.60001 0
M  V30 4569 C 436.265 3.40778 0.669901 0
M  V30 4570 C 435.219 4.27897 -0.0937039 0
M  V30 4571 C 434.545 5.27163 0.894629 0
M  V30 4572 C 435.845 5.06334 -1.28154 0
M  V30 4573 H 437.539 2.82171 -1.00099 0
M  V30 4574 H 435.085 1.35665 -0.482793 0
M  V30 4575 H 437.038 4.07008 1.09191 0
M  V30 4576 H 435.762 2.89827 1.50558 0
M  V30 4577 H 434.421 3.6322 -0.49666 0
M  V30 4578 H 434.069 4.72486 1.72527 0
M  V30 4579 H 433.769 5.86317 0.388149 0
M  V30 4580 H 435.293 5.96266 1.31525 0
M  V30 4581 H 436.707 5.65617 -0.93541 0
M  V30 4582 H 435.104 5.74888 -1.72115 0
M  V30 4583 H 436.174 4.38114 -2.07807 0
M  V30 4584 N 437.518 0.538854 1.48102 0
M  V30 4585 C 438.934 0.19732 1.58376 0
M  V30 4586 C 439.134 -1.29971 1.5398 0
M  V30 4587 O 438.19 -2.07861 1.43352 0
M  V30 4588 C 439.503 0.807716 2.89649 0
M  V30 4589 C 441.051 0.77726 3.03196 0
M  V30 4590 C 441.526 1.36639 4.37143 0
M  V30 4591 N 443.017 1.32875 4.43732 0
M  V30 4592 C 443.752 1.7544 5.45901 0
M  V30 4593 N 443.248 2.25776 6.54979 0
M  V30 4594 N 445.041 1.66623 5.36836 0
M  V30 4595 H 437.192 1.5117 1.49202 0
M  V30 4596 H 439.455 0.629327 0.708979 0
M  V30 4597 H 439.161 1.85909 2.98548 0
M  V30 4598 H 439.035 0.289975 3.76084 0
M  V30 4599 H 441.422 -0.265374 2.93904 0
M  V30 4600 H 441.503 1.33256 2.18349 0
M  V30 4601 H 441.147 2.408 4.47189 0
M  V30 4602 H 441.077 0.786689 5.20691 0
M  V30 4603 H 443.568 0.96037 3.65493 0
M  V30 4604 H 443.881 2.56226 7.29087 0
M  V30 4605 H 442.226 2.29775 6.55918 0
M  V30 4606 H 445.417 1.27089 4.50517 0
M  V30 4607 H 445.59 2.00115 6.16326 0
M  V30 4608 N 438.996 -1.55193 0.274407 0
M  V30 4609 C 439.943 -2.225 -0.613374 0
M  V30 4610 C 440.913 -1.19823 -1.15029 0
M  V30 4611 O 442.098 -1.48362 -1.19973 0
M  V30 4612 C 439.238 -2.94927 -1.79199 0
M  V30 4613 C 438.351 -4.12322 -1.28899 0
M  V30 4614 C 437.486 -4.72394 -2.42934 0
M  V30 4615 C 436.525 -5.81984 -1.89634 0
M  V30 4616 N 435.662 -6.36123 -2.9714 0
M  V30 4617 H 440.502 -2.97982 -0.032756 0
M  V30 4618 H 438.039 -1.47099 -0.00440146 0
M  V30 4619 H 439.997 -3.35134 -2.48478 0
M  V30 4620 H 438.627 -2.2187 -2.34465 0
M  V30 4621 H 437.679 -3.7724 -0.489327 0
M  V30 4622 H 438.991 -4.91355 -0.858587 0
M  V30 4623 H 438.145 -5.15317 -3.20208 0
M  V30 4624 H 436.884 -3.92636 -2.8929 0
M  V30 4625 H 435.889 -5.38511 -1.1084 0
M  V30 4626 H 437.114 -6.6361 -1.44215 0
M  V30 4627 H 435.06 -5.59259 -3.42878 0
M  V30 4628 H 434.977 -7.10427 -2.58515 0
M  V30 4629 H 436.245 -6.83704 -3.74391 0
M  V30 4630 N 440.474 -0.00167713 -1.576 0
M  V30 4631 C 441.72 0.683832 -1.90923 0
M  V30 4632 C 442.053 1.7333 -0.875799 0
M  V30 4633 O 441.328 1.94215 0.10525 0
M  V30 4634 C 441.611 1.32543 -3.3482 0
M  V30 4635 C 441.464 0.287387 -4.48881 0
M  V30 4636 C 442.783 2.25114 -3.78169 0
M  V30 4637 H 439.902 0.247125 -0.694333 0
M  V30 4638 H 442.544 -0.0533149 -1.89925 0
M  V30 4639 H 440.694 1.95372 -3.35801 0
M  V30 4640 H 442.366 -0.341346 -4.60035 0
M  V30 4641 H 440.609 -0.39017 -4.32042 0
M  V30 4642 H 441.28 0.775393 -5.46527 0
M  V30 4643 H 443.756 1.723 -3.7875 0
M  V30 4644 H 442.632 2.66971 -4.79602 0
M  V30 4645 H 442.893 3.13092 -3.12131 0
M  V30 4646 N 441.952 1.55251 0.271103 0
M  V30 4647 C 442.915 1.87484 1.31842 0
M  V30 4648 C 443.915 0.749545 1.42262 0
M  V30 4649 O 445.105 1.01771 1.4138 0
M  V30 4650 C 442.237 2.0818 2.69951 0
M  V30 4651 H 443.43 2.81108 1.0449 0
M  V30 4652 H 440.983 1.47771 0.509258 0
M  V30 4653 H 441.718 1.16944 3.02481 0
M  V30 4654 H 441.503 2.90114 2.63774 0
M  V30 4655 H 442.993 2.34385 3.4562 0
M  V30 4656 N 443.43 -0.535701 1.48216 0
M  V30 4657 C 444.846 -0.863701 1.3421 0
M  V30 4658 C 445.046 -1.98458 0.34879 0
M  V30 4659 O 444.102 -2.51432 -0.23204 0
M  V30 4660 C 445.415 -1.23662 2.74095 0
M  V30 4661 C 446.963 -1.34683 2.82541 0
M  V30 4662 C 447.438 -1.75322 4.23115 0
M  V30 4663 N 448.929 -1.82434 4.2576 0
M  V30 4664 C 449.664 -2.15252 5.31464 0
M  V30 4665 N 449.16 -2.46533 6.47452 0
M  V30 4666 N 450.953 -2.16209 5.18855 0
M  V30 4667 H 443.104 0.203965 2.11418 0
M  V30 4668 H 445.367 0.0286033 0.947568 0
M  V30 4669 H 445.073 -0.486674 3.48316 0
M  V30 4670 H 444.947 -2.18805 3.07253 0
M  V30 4671 H 447.334 -2.08756 2.08579 0
M  V30 4672 H 447.415 -0.376756 2.5301 0
M  V30 4673 H 447.059 -1.01812 4.97591 0
M  V30 4674 H 446.989 -2.7337 4.50085 0
M  V30 4675 H 449.48 -1.6056 3.42095 0
M  V30 4676 H 449.793 -2.70662 7.23852 0
M  V30 4677 H 448.138 -2.44065 6.50736 0
M  V30 4678 H 451.329 -1.91224 4.2726 0
M  V30 4679 H 451.502 -2.41453 6.01335 0
M  V30 4680 N 444.908 -1.36708 -0.784132 0
M  V30 4681 C 446.157 -1.30559 -1.53744 0
M  V30 4682 C 446.47 0.111374 -1.95283 0
M  V30 4683 O 447.676 0.29527 -2.6989 0
M  V30 4684 C 446.132 -2.29098 -2.77565 0
M  V30 4685 C 445.74 -3.76258 -2.43174 0
M  V30 4686 C 447.484 -2.31936 -3.55536 0
M  V30 4687 C 445.391 -4.6656 -3.63422 0
M  V30 4688 H 444.321 -0.48518 -0.577162 0
M  V30 4689 H 446.972 -1.62101 -0.859981 0
M  V30 4690 H 445.354 -1.90557 -3.47137 0
M  V30 4691 H 446.528 -4.23565 -1.81465 0
M  V30 4692 H 444.843 -3.76246 -1.78403 0
M  V30 4693 H 447.44 -2.9661 -4.44889 0
M  V30 4694 H 447.783 -1.3294 -3.94503 0
M  V30 4695 H 448.316 -2.6912 -2.92949 0
M  V30 4696 H 445.055 -5.66638 -3.29547 0
M  V30 4697 H 444.575 -4.23966 -4.24279 0
M  V30 4698 H 446.254 -4.8309 -4.30387 0
M  V30 4699 N 446.386 1.0089 -1.21074 0
M  V30 4700 C 447.334 2.11707 -0.963476 0
M  V30 4701 C 448.328 1.69172 0.0879032 0
M  V30 4702 O 449.534 1.79889 -0.0631415 0
M  V30 4703 H 445.909 0.692026 -0.294287 0
M  V30 4704 H 447.88 2.29743 -1.90422 0
M  V30 4705 C 446.629 3.43473 -0.540509 0
M  V30 4706 H 445.952 3.76634 -1.34114 0
M  V30 4707 H 447.392 4.22044 -0.406777 0
M  V30 4708 C 445.851 3.2849 0.748079 0
M  V30 4709 O 446.381 3.58883 1.8046 0
M  V30 4710 N 444.587 2.81715 0.713081 0
M  V30 4711 H 444.134 2.5718 -0.146973 0
M  V30 4712 H 444.092 2.72071 1.57558 0
M  V30 4713 N 447.864 1.01787 1.20321 0
M  V30 4714 C 449.112 0.706538 1.89347 0
M  V30 4715 C 449.433 -0.766289 1.79313 0
M  V30 4716 O 448.703 -1.55126 1.19635 0
M  V30 4717 H 447.283 0.258348 0.700903 0
M  V30 4718 H 449.945 1.28974 1.46122 0
M  V30 4719 H 449.041 0.991066 2.95946 0
M  V30 4720 N 449.342 -1.36122 0.79427 0
M  V30 4721 C 450.292 -2.27373 0.169017 0
M  V30 4722 C 451.276 -1.4719 -0.649913 0
M  V30 4723 O 452.468 -1.69518 -0.50919 0
M  V30 4724 C 449.597 -3.36264 -0.691455 0
M  V30 4725 C 448.683 -4.2388 0.13653 0
M  V30 4726 N 449.074 -4.91519 1.19345 0
M  V30 4727 C 447.372 -4.45921 -0.0838499 0
M  V30 4728 C 448.073 -5.56369 1.6979 0
M  V30 4729 N 447.049 -5.34204 1.00634 0
M  V30 4730 H 450.851 -2.77154 0.977897 0
M  V30 4731 H 448.365 -1.49504 0.634208 0
M  V30 4732 H 450.362 -4.00572 -1.15534 0
M  V30 4733 H 449.022 -2.88037 -1.49883 0
M  V30 4734 H 450.033 -4.9334 1.57594 0
M  V30 4735 H 446.71 -4.08518 -0.861341 0
M  V30 4736 H 448.1 -6.20368 2.58055 0
M  V30 4737 N 450.82 -0.546701 -1.47814 0
M  V30 4738 C 451.767 0.206854 -2.29871 0
M  V30 4739 C 452.737 0.918235 -1.38411 0
M  V30 4740 O 453.922 0.915991 -1.67375 0
M  V30 4741 C 451.062 1.23746 -3.22151 0
M  V30 4742 C 450.175 0.533216 -4.28697 0
M  V30 4743 C 449.31 1.5482 -5.08138 0
M  V30 4744 C 448.349 0.828347 -6.06469 0
M  V30 4745 N 447.486 1.78966 -6.78908 0
M  V30 4746 H 452.326 -0.499037 -2.93792 0
M  V30 4747 H 449.863 -0.25793 -1.44821 0
M  V30 4748 H 451.821 1.84746 -3.74065 0
M  V30 4749 H 450.451 1.91151 -2.60117 0
M  V30 4750 H 449.503 -0.191089 -3.7992 0
M  V30 4751 H 450.815 -0.0311987 -4.9879 0
M  V30 4752 H 449.969 2.23202 -5.6415 0
M  V30 4753 H 448.708 2.14652 -4.37922 0
M  V30 4754 H 447.713 0.130539 -5.49645 0
M  V30 4755 H 448.938 0.235907 -6.7869 0
M  V30 4756 H 446.884 2.37675 -6.1143 0
M  V30 4757 H 446.801 1.27712 -7.45135 0
M  V30 4758 H 448.069 2.46496 -7.395 0
M  V30 4759 N 452.299 1.55045 -0.282633 0
M  V30 4760 C 453.209 2.26491 0.61147 0
M  V30 4761 C 454.225 1.29348 1.16384 0
M  V30 4762 O 455.401 1.62298 1.19253 0
M  V30 4763 C 452.466 2.97779 1.77563 0
M  V30 4764 C 451.527 4.10418 1.25919 0
M  V30 4765 C 450.76 4.78297 2.36786 0
M  V30 4766 O 450.983 4.45426 3.56303 0
M  V30 4767 O 449.917 5.66089 2.04517 0
M  V30 4768 H 453.743 3.03683 0.0324615 0
M  V30 4769 H 451.328 1.49317 -0.0497576 0
M  V30 4770 H 453.21 3.42554 2.45427 0
M  V30 4771 H 451.885 2.23498 2.34159 0
M  V30 4772 H 450.792 3.70082 0.546797 0
M  V30 4773 H 452.125 4.86622 0.738887 0
M  V30 4774 N 453.777 0.010035 1.57597 0
M  V30 4775 C 454.74 -0.963029 2.07986 0
M  V30 4776 C 455.74 -1.26619 0.991173 0
M  V30 4777 O 456.93 -1.2097 1.25347 0
M  V30 4778 C 454.062 -2.2851 2.52974 0
M  V30 4779 H 455.255 -0.526971 2.95234 0
M  V30 4780 H 452.808 -0.237639 1.54483 0
M  V30 4781 H 453.543 -2.76784 1.69 0
M  V30 4782 H 453.328 -2.07824 3.32493 0
M  V30 4783 H 454.818 -2.98294 2.9225 0
M  V30 4784 N 455.255 -1.55392 -0.262866 0
M  V30 4785 C 456.202 -1.88966 -1.32516 0
M  V30 4786 C 457.172 -0.742187 -1.48596 0
M  V30 4787 O 458.357 -0.99439 -1.62839 0
M  V30 4788 C 455.497 -2.17592 -2.67858 0
M  V30 4789 C 454.61 -3.45061 -2.59917 0
M  V30 4790 C 453.745 -3.63336 -3.87505 0
M  V30 4791 C 452.784 -4.84462 -3.74116 0
M  V30 4792 N 451.921 -4.99342 -4.93561 0
M  V30 4793 H 456.761 -2.79566 -1.03184 0
M  V30 4794 H 454.298 -1.38404 -0.498285 0
M  V30 4795 H 456.256 -2.3219 -3.46617 0
M  V30 4796 H 454.886 -1.30215 -2.95371 0
M  V30 4797 H 453.938 -3.38881 -1.72812 0
M  V30 4798 H 455.25 -4.3396 -2.45926 0
M  V30 4799 H 454.404 -3.77807 -4.74707 0
M  V30 4800 H 453.143 -2.72641 -4.04374 0
M  V30 4801 H 452.148 -4.69985 -2.85297 0
M  V30 4802 H 453.373 -5.76603 -3.58757 0
M  V30 4803 H 451.319 -4.1158 -5.10821 0
M  V30 4804 H 451.236 -5.82303 -4.82141 0
M  V30 4805 H 452.504 -5.18208 -5.82306 0
M  V30 4806 N 456.733 0.527833 -1.48498 0
M  V30 4807 C 457.681 1.65313 -1.63628 0
M  V30 4808 C 458.675 1.6177 -0.502676 0
M  V30 4809 O 459.881 1.66601 -0.681469 0
M  V30 4810 H 456.256 0.547518 -0.515488 0
M  V30 4811 H 458.227 1.49696 -2.58135 0
M  V30 4812 C 456.976 3.03576 -1.6952 0
M  V30 4813 H 456.299 3.06997 -2.56111 0
M  V30 4814 H 457.739 3.81923 -1.84149 0
M  V30 4815 C 456.198 3.34089 -0.43432 0
M  V30 4816 O 456.728 3.99151 0.451852 0
M  V30 4817 N 454.934 2.88991 -0.305368 0
M  V30 4818 H 454.481 2.36222 -1.02747 0
M  V30 4819 H 454.439 3.09776 0.537249 0
M  V30 4820 N 458.211 1.37122 0.776871 0
M  V30 4821 C 459.141 1.35164 1.90402 0
M  V30 4822 C 460.122 0.221069 1.68657 0
M  V30 4823 O 461.307 0.420642 1.8959 0
M  V30 4824 C 458.437 1.15274 3.27611 0
M  V30 4825 C 457.391 2.25289 3.63908 0
M  V30 4826 C 456.717 1.90527 4.99603 0
M  V30 4827 C 458.017 3.67446 3.71188 0
M  V30 4828 H 459.711 2.29482 1.92297 0
M  V30 4829 H 457.257 1.10465 0.923773 0
M  V30 4830 H 459.21 1.12536 4.06096 0
M  V30 4831 H 457.934 0.174102 3.26136 0
M  V30 4832 H 456.593 2.27174 2.87728 0
M  V30 4833 H 456.241 0.91206 4.94662 0
M  V30 4834 H 455.941 2.64193 5.24858 0
M  V30 4835 H 457.465 1.89367 5.80493 0
M  V30 4836 H 458.879 3.67719 4.39836 0
M  V30 4837 H 457.276 4.40123 4.07936 0
M  V30 4838 H 458.346 4.01443 2.71977 0
M  V30 4839 N 459.689 -1.00246 1.21608 0
M  V30 4840 C 460.917 -1.77631 1.06089 0
M  V30 4841 C 461.332 -1.84746 -0.38916 0
M  V30 4842 O 460.689 -1.31068 -1.26994 0
M  V30 4843 C 460.74 -3.21415 1.65453 0
M  V30 4844 O 460.461 -3.14703 3.04785 0
M  V30 4845 C 461.962 -4.15289 1.55079 0
M  V30 4846 H 459.182 -0.558162 0.37242 0
M  V30 4847 H 461.726 -1.26093 1.60999 0
M  V30 4848 H 459.881 -3.70053 1.14629 0
M  V30 4849 H 460.295 -4.05056 3.33212 0
M  V30 4850 H 461.769 -5.13965 2.01355 0
M  V30 4851 H 462.246 -4.36279 0.505665 0
M  V30 4852 H 462.852 -3.72543 2.05163 0
M  V30 4853 N 461.167 -1.02423 -1.1978 0
M  V30 4854 C 462.416 -0.713265 -1.88667 0
M  V30 4855 C 462.729 0.7609 -1.80193 0
M  V30 4856 O 463.935 1.18473 -2.44288 0
M  V30 4857 C 462.391 -1.22545 -3.38394 0
M  V30 4858 C 461.999 -2.72706 -3.55437 0
M  V30 4859 C 463.743 -0.990257 -4.12788 0
M  V30 4860 C 461.65 -3.17367 -4.99031 0
M  V30 4861 H 460.58 -0.263105 -0.706606 0
M  V30 4862 H 463.231 -1.23792 -1.35454 0
M  V30 4863 H 461.613 -0.628732 -3.90977 0
M  V30 4864 H 462.787 -3.37993 -3.13205 0
M  V30 4865 H 461.102 -2.94453 -2.94425 0
M  V30 4866 H 463.699 -1.29926 -5.18675 0
M  V30 4867 H 464.042 0.0730761 -4.16236 0
M  V30 4868 H 464.575 -1.55074 -3.66329 0
M  V30 4869 H 461.314 -4.23009 -5.00743 0
M  V30 4870 H 460.834 -2.56805 -5.42044 0
M  V30 4871 H 462.513 -3.10441 -5.67658 0
M  V30 4872 N 462.645 1.35699 -0.801477 0
M  V30 4873 C 463.555 2.33661 -0.209691 0
M  V30 4874 C 464.571 1.6162 0.644591 0
M  V30 4875 O 465.747 1.93529 0.557545 0
M  V30 4876 C 462.812 3.40816 0.636033 0
M  V30 4877 C 461.873 4.28639 -0.238147 0
M  V30 4878 C 461.106 5.30676 0.567307 0
M  V30 4879 O 461.329 5.41174 1.8024 0
M  V30 4880 O 460.263 6.01887 -0.0391336 0
M  V30 4881 H 464.089 2.8606 -1.01996 0
M  V30 4882 H 461.674 1.38379 -0.563164 0
M  V30 4883 H 463.556 4.06301 1.11791 0
M  V30 4884 H 462.231 2.90696 1.42399 0
M  V30 4885 H 461.138 3.66152 -0.767044 0
M  V30 4886 H 462.471 4.82143 -0.989915 0
M  V30 4887 N 464.123 0.554532 1.47522 0
M  V30 4888 C 465.369 0.0295227 2.02779 0
M  V30 4889 C 465.702 -1.31582 1.42828 0
M  V30 4890 O 464.977 -1.85561 0.582872 0
M  V30 4891 C 465.26 -0.0664057 3.60039 0
M  V30 4892 C 465.113 1.30585 4.30427 0
M  V30 4893 C 466.432 -0.781162 4.33112 0
M  V30 4894 H 463.551 0.0122027 0.736899 0
M  V30 4895 H 466.193 0.716305 1.7598 0
M  V30 4896 H 464.343 -0.651307 3.83002 0
M  V30 4897 H 466.015 1.93374 4.18813 0
M  V30 4898 H 464.258 1.88125 3.90886 0
M  V30 4899 H 464.929 1.19147 5.38988 0
M  V30 4900 H 467.405 -0.284565 4.15126 0
M  V30 4901 H 466.281 -0.817237 5.42782 0
M  V30 4902 H 466.542 -1.83672 4.0214 0
M  V30 4903 N 465.601 -1.54893 0.290851 0
M  V30 4904 C 466.531 -2.26103 -0.583084 0
M  V30 4905 C 467.512 -1.25684 -1.14619 0
M  V30 4906 O 468.697 -1.54436 -1.17741 0
M  V30 4907 C 465.827 -2.99409 -1.75987 0
M  V30 4908 C 464.781 -4.0689 -1.32758 0
M  V30 4909 C 464.107 -4.67856 -2.58872 0
M  V30 4910 C 465.407 -5.20215 -0.46624 0
M  V30 4911 H 467.101 -2.99398 0.0108214 0
M  V30 4912 H 464.647 -1.43998 0.00664468 0
M  V30 4913 H 466.6 -3.47943 -2.37727 0
M  V30 4914 H 465.324 -2.23675 -2.37985 0
M  V30 4915 H 463.983 -3.59191 -0.733299 0
M  V30 4916 H 463.631 -3.88772 -3.19163 0
M  V30 4917 H 463.331 -5.40438 -2.30653 0
M  V30 4918 H 464.855 -5.19147 -3.21433 0
M  V30 4919 H 466.269 -5.64704 -0.989047 0
M  V30 4920 H 464.666 -5.99455 -0.27826 0
M  V30 4921 H 465.736 -4.82198 0.511173 0
M  V30 4922 N 467.08 -0.0183926 -1.57589 0
M  V30 4923 C 468.013 1.00148 -2.0505 0
M  V30 4924 C 468.991 1.32387 -0.944058 0
M  V30 4925 O 470.175 1.44237 -1.21358 0
M  V30 4926 C 467.302 2.32435 -2.46357 0
M  V30 4927 C 466.348 2.15731 -3.67916 0
M  V30 4928 S 467.181 1.46613 -5.15039 0
M  V30 4929 C 468.337 2.80293 -5.59631 0
M  V30 4930 H 468.57 0.597429 -2.91235 0
M  V30 4931 H 466.103 0.193002 -1.53189 0
M  V30 4932 H 468.061 3.0849 -2.70822 0
M  V30 4933 H 466.722 2.69975 -1.60537 0
M  V30 4934 H 465.915 3.13502 -3.9463 0
M  V30 4935 H 465.517 1.4782 -3.43548 0
M  V30 4936 H 467.809 3.76557 -5.63215 0
M  V30 4937 H 468.752 2.58256 -6.59325 0
M  V30 4938 H 469.16 2.85047 -4.87246 0
M  V30 4939 N 468.558 1.5553 0.254621 0
M  V30 4940 C 469.783 1.81383 1.00573 0
M  V30 4941 C 470.208 0.594419 1.78461 0
M  V30 4942 O 469.566 -0.456403 1.75461 0
M  V30 4943 C 469.614 3.04892 1.92545 0
M  V30 4944 O 468.718 2.81266 3.01601 0
M  V30 4945 H 468.059 0.598969 0.286587 0
M  V30 4946 H 470.589 2.02703 0.277952 0
M  V30 4947 H 470.599 3.34119 2.34155 0
M  V30 4948 H 469.274 3.93287 1.3527 0
M  V30 4949 H 467.851 2.63185 2.64174 0
M  V30 4950 N 470.036 -0.519951 1.48776 0
M  V30 4951 C 471.261 -1.30447 1.6124 0
M  V30 4952 C 471.686 -1.86055 0.276591 0
M  V30 4953 O 471.044 -1.64915 -0.753183 0
M  V30 4954 C 471.092 -2.42406 2.66967 0
M  V30 4955 O 470.196 -3.45728 2.24824 0
M  V30 4956 H 469.537 -0.385924 0.540332 0
M  V30 4957 H 472.067 -0.624572 1.94834 0
M  V30 4958 H 472.077 -2.88447 2.88552 0
M  V30 4959 H 470.752 -2.01294 3.63941 0
M  V30 4960 H 469.329 -3.05737 2.13494 0
M  V30 4961 N 471.514 -1.37532 -0.769588 0
M  V30 4962 C 472.76 -1.33057 -1.53048 0
M  V30 4963 C 473.093 0.0841865 -1.94017 0
M  V30 4964 O 472.368 1.04198 -1.64235 0
M  V30 4965 C 472.651 -2.27166 -2.79406 0
M  V30 4966 C 472.504 -3.77429 -2.44677 0
M  V30 4967 C 473.823 -2.19683 -3.81349 0
M  V30 4968 H 470.942 -0.484655 -0.555228 0
M  V30 4969 H 473.584 -1.68251 -0.882702 0
M  V30 4970 H 471.734 -1.97283 -3.34682 0
M  V30 4971 H 473.406 -4.17918 -1.953 0
M  V30 4972 H 471.649 -3.95892 -1.77346 0
M  V30 4973 H 472.32 -4.38716 -3.35011 0
M  V30 4974 H 474.796 -2.46029 -3.35573 0
M  V30 4975 H 473.672 -2.87668 -4.67481 0
M  V30 4976 H 473.933 -1.19045 -4.25771 0
M  V30 4977 N 472.992 0.995999 -1.22138 0
M  V30 4978 C 473.939 2.08551 -0.988687 0
M  V30 4979 C 474.909 1.65864 0.0885021 0
M  V30 4980 O 476.094 1.90704 -0.0604589 0
M  V30 4981 C 473.234 3.40374 -0.569191 0
M  V30 4982 C 472.347 3.96421 -1.71681 0
M  V30 4983 C 471.482 5.1639 -1.2456 0
M  V30 4984 C 470.521 5.64567 -2.36497 0
M  V30 4985 N 469.658 6.75777 -1.90445 0
M  V30 4986 H 474.498 2.2779 -1.92135 0
M  V30 4987 H 472.035 1.1168 -0.957388 0
M  V30 4988 H 473.993 4.16068 -0.307166 0
M  V30 4989 H 472.623 3.21145 0.326462 0
M  V30 4990 H 471.675 3.17628 -2.09324 0
M  V30 4991 H 472.987 4.2816 -2.55891 0
M  V30 4992 H 472.141 5.99362 -0.940774 0
M  V30 4993 H 470.88 4.86266 -0.373662 0
M  V30 4994 H 469.885 4.80185 -2.67772 0
M  V30 4995 H 471.11 5.96716 -3.24202 0
M  V30 4996 H 469.056 6.47443 -1.05609 0
M  V30 4997 H 468.973 7.06818 -2.68223 0
M  V30 4998 H 470.241 7.62262 -1.63022 0
M  V30 4999 N 474.47 1.03057 1.19235 0
M  V30 5000 C 475.38 0.622922 2.26179 0
M  V30 5001 C 476.396 -0.346113 1.70523 0
M  V30 5002 O 477.572 -0.203572 2.00369 0
M  V30 5003 C 474.637 -0.0182063 3.46695 0
M  V30 5004 C 473.698 0.998546 4.17526 0
M  V30 5005 C 472.931 0.387917 5.32288 0
M  V30 5006 O 473.154 -0.808668 5.64639 0
M  V30 5007 O 472.088 1.1116 5.91546 0
M  V30 5008 H 475.914 1.51363 2.63292 0
M  V30 5009 H 473.499 0.800856 1.26122 0
M  V30 5010 H 475.381 -0.375606 4.19723 0
M  V30 5011 H 474.056 -0.882895 3.11427 0
M  V30 5012 H 472.963 1.40756 3.4661 0
M  V30 5013 H 474.296 1.83366 4.56769 0
M  V30 5014 N 475.948 -1.35272 0.808662 0
M  V30 5015 C 476.858 -2.33546 0.222079 0
M  V30 5016 C 477.874 -1.6196 -0.636011 0
M  V30 5017 O 479.05 -1.93822 -0.547274 0
M  V30 5018 C 476.115 -3.41148 -0.61795 0
M  V30 5019 C 475.176 -4.28507 0.260875 0
M  V30 5020 C 474.409 -5.3097 -0.539156 0
M  V30 5021 O 474.632 -5.42123 -1.77367 0
M  V30 5022 O 473.566 -6.01858 0.0710526 0
M  V30 5023 H 477.392 -2.85515 1.03512 0
M  V30 5024 H 474.977 -1.38079 0.570495 0
M  V30 5025 H 476.859 -4.06889 -1.09634 0
M  V30 5026 H 475.534 -2.91447 -1.40855 0
M  V30 5027 H 474.441 -3.6574 0.786451 0
M  V30 5028 H 475.774 -4.81611 1.01547 0
M  V30 5029 N 477.426 -0.562348 -1.47226 0
M  V30 5030 C 478.672 -0.0402761 -2.0276 0
M  V30 5031 C 479.005 1.30823 -1.43523 0
M  V30 5032 O 478.28 1.85249 -0.592705 0
M  V30 5033 C 478.563 0.047311 -3.60069 0
M  V30 5034 C 478.416 -1.32865 -4.29729 0
M  V30 5035 C 479.735 0.758182 -4.3352 0
M  V30 5036 H 476.854 -0.0161105 -0.736824 0
M  V30 5037 H 479.496 -0.725628 -1.75598 0
M  V30 5038 H 477.646 0.630986 -3.83342 0
M  V30 5039 H 479.318 -1.95593 -4.17781 0
M  V30 5040 H 477.561 -1.90195 -3.89882 0
M  V30 5041 H 478.232 -1.22004 -5.38349 0
M  V30 5042 H 480.708 0.262546 -4.15271 0
M  V30 5043 H 479.584 0.78844 -5.43208 0
M  V30 5044 H 479.845 1.81537 -4.03109 0
M  V30 5045 N 478.904 1.54736 -0.299062 0
M  V30 5046 C 479.867 2.22127 0.565012 0
M  V30 5047 C 480.867 1.20669 1.06281 0
M  V30 5048 O 482.057 1.45417 0.959145 0
M  V30 5049 C 479.189 2.90611 1.78208 0
M  V30 5050 H 480.382 2.99891 -0.0237448 0
M  V30 5051 H 477.935 1.5622 -0.0498788 0
M  V30 5052 H 478.67 2.16921 2.41072 0
M  V30 5053 H 478.455 3.64984 1.43281 0
M  V30 5054 H 479.945 3.42026 2.396 0
M  V30 5055 N 480.382 0.0267497 1.57577 0
M  V30 5056 C 481.607 -0.666227 1.96408 0
M  V30 5057 C 482.032 -1.65004 0.903071 0
M  V30 5058 O 481.39 -1.80787 -0.136263 0
M  V30 5059 C 481.438 -1.35101 3.34335 0
M  V30 5060 O 480.542 -2.46623 3.30531 0
M  V30 5061 H 479.883 -0.175206 0.640468 0
M  V30 5062 H 482.413 0.0878977 2.04411 0
M  V30 5063 H 482.423 -1.70834 3.70513 0
M  V30 5064 H 481.098 -0.629844 4.11103 0
M  V30 5065 H 479.675 -2.13019 3.06068 0
M  V30 5066 N 481.861 -1.55662 -0.24637 0
M  V30 5067 C 482.824 -1.89558 -1.28842 0
M  V30 5068 C 483.824 -0.772082 -1.41052 0
M  V30 5069 O 485.014 -1.04007 -1.39743 0
M  V30 5070 C 482.146 -2.12449 -2.66605 0
M  V30 5071 H 483.339 -2.82735 -1.00004 0
M  V30 5072 H 480.892 -1.48562 -0.485684 0
M  V30 5073 H 481.627 -1.21742 -3.00582 0
M  V30 5074 H 481.412 -2.94273 -2.59125 0
M  V30 5075 H 482.902 -2.39854 -3.41847 0
M  V30 5076 N 483.339 0.512053 -1.4905 0
M  V30 5077 C 484.286 1.6148 -1.64902 0
M  V30 5078 C 485.256 1.58687 -0.490673 0
M  V30 5079 O 486.441 1.76842 -0.71636 0
M  V30 5080 C 483.581 2.99676 -1.71139 0
M  V30 5081 C 482.694 3.12568 -2.98203 0
M  V30 5082 C 481.829 4.4143 -2.95487 0
M  V30 5083 C 480.868 4.47916 -4.17179 0
M  V30 5084 N 480.005 5.68191 -4.12437 0
M  V30 5085 H 484.845 1.47271 -2.59066 0
M  V30 5086 H 482.382 0.716713 -1.28459 0
M  V30 5087 H 484.34 3.79761 -1.72736 0
M  V30 5088 H 482.97 3.12614 -0.804508 0
M  V30 5089 H 482.022 2.25618 -3.06269 0
M  V30 5090 H 483.334 3.1322 -3.88194 0
M  V30 5091 H 482.488 5.29825 -2.95585 0
M  V30 5092 H 481.227 4.43326 -2.03256 0
M  V30 5093 H 480.232 3.57925 -4.17337 0
M  V30 5094 H 481.457 4.47744 -5.1059 0
M  V30 5095 H 479.403 5.7095 -3.23036 0
M  V30 5096 H 479.32 5.70413 -4.96151 0
M  V30 5097 H 480.588 6.58823 -4.16621 0
M  V30 5098 N 484.817 1.37938 0.762283 0
M  V30 5099 C 485.727 1.36681 1.90671 0
M  V30 5100 C 486.743 0.265078 1.71969 0
M  V30 5101 O 487.919 0.502055 1.95042 0
M  V30 5102 C 484.984 1.18211 3.25925 0
M  V30 5103 C 484.045 2.3811 3.57214 0
M  V30 5104 C 483.278 2.20512 4.86014 0
M  V30 5105 O 483.501 1.19429 5.57757 0
M  V30 5106 O 482.435 3.08911 5.16583 0
M  V30 5107 H 486.261 2.33091 1.94685 0
M  V30 5108 H 483.846 1.18767 0.906356 0
M  V30 5109 H 485.728 1.09937 4.06807 0
M  V30 5110 H 484.403 0.248807 3.22742 0
M  V30 5111 H 483.31 2.51958 2.76529 0
M  V30 5112 H 484.643 3.30041 3.65149 0
M  V30 5113 N 486.295 -0.989507 1.22664 0
M  V30 5114 C 487.706 -1.54406 1.04955 0
M  V30 5115 C 488.057 -1.92366 -0.385951 0
M  V30 5116 O 487.182 -1.75111 -1.27142 0
M  V30 5117 C 487.777 -2.80578 1.89899 0
M  V30 5118 C 486.336 -3.32464 1.76478 0
M  V30 5119 C 485.483 -2.05524 1.86159 0
M  V30 5120 H 488.434 -0.810211 1.3646 0
M  V30 5121 H 488.455 -3.53075 1.4184 0
M  V30 5122 H 487.967 -2.52918 2.94371 0
M  V30 5123 H 486.068 -3.65024 0.747528 0
M  V30 5124 H 486.181 -4.02838 2.59342 0
M  V30 5125 H 484.545 -2.19241 1.29636 0
M  V30 5126 H 485.328 -1.80258 2.92168 0
M  V30 5127 N 487.773 -1.03688 -1.18687 0
M  V30 5128 C 489.189 -0.755413 -1.4059 0
M  V30 5129 C 489.389 0.656659 -1.905 0
M  V30 5130 O 488.445 1.42144 -2.08689 0
M  V30 5131 C 489.758 -1.7983 -2.41001 0
M  V30 5132 C 491.306 -1.81877 -2.54735 0
M  V30 5133 C 491.781 -2.85148 -3.58406 0
M  V30 5134 N 493.272 -2.84015 -3.6591 0
M  V30 5135 C 494.007 -3.60573 -4.45841 0
M  V30 5136 N 493.503 -4.46871 -5.29413 0
M  V30 5137 N 495.296 -3.49079 -4.40568 0
M  V30 5138 H 487.447 -1.94818 -0.846148 0
M  V30 5139 H 489.71 -0.842727 -0.434184 0
M  V30 5140 H 489.416 -2.81097 -2.1137 0
M  V30 5141 H 489.29 -1.62727 -3.40294 0
M  V30 5142 H 491.677 -0.812836 -2.83685 0
M  V30 5143 H 491.758 -2.03057 -1.55568 0
M  V30 5144 H 491.402 -3.85918 -3.30197 0
M  V30 5145 H 491.332 -2.61224 -4.57241 0
M  V30 5146 H 493.823 -2.21431 -3.0623 0
M  V30 5147 H 494.136 -5.02007 -5.87545 0
M  V30 5148 H 492.481 -4.5094 -5.28846 0
M  V30 5149 H 495.672 -2.81066 -3.74325 0
M  V30 5150 H 495.845 -4.08994 -5.02621 0
M  V30 5151 N 489.251 1.34841 -0.815825 0
M  V30 5152 C 490.476 2.03261 -0.41226 0
M  V30 5153 C 490.901 1.61055 0.971751 0
M  V30 5154 O 490.259 0.7917 1.63101 0
M  V30 5155 C 490.307 3.56914 -0.514289 0
M  V30 5156 O 489.411 4.09728 0.468675 0
M  V30 5157 H 488.752 0.641664 -0.170771 0
M  V30 5158 H 491.282 1.72241 -1.10427 0
M  V30 5159 H 491.292 4.06156 -0.387457 0
M  V30 5160 H 489.967 3.86982 -1.52375 0
M  V30 5161 H 488.544 3.71681 0.301316 0
M  V30 5162 N 490.729 0.570148 1.46925 0
M  V30 5163 C 491.975 0.0510284 2.02736 0
M  V30 5164 C 492.308 -1.3006 1.44215 0
M  V30 5165 O 491.583 -1.84932 0.602521 0
M  V30 5166 C 491.866 -0.028215 3.60089 0
M  V30 5167 C 491.719 1.35142 4.29018 0
M  V30 5168 C 493.038 -0.735181 4.33916 0
M  V30 5169 H 490.157 0.0200178 0.736728 0
M  V30 5170 H 492.799 0.73493 1.75211 0
M  V30 5171 H 490.949 -0.610648 3.83671 0
M  V30 5172 H 492.621 1.97806 4.16738 0
M  V30 5173 H 490.864 1.9226 3.88868 0
M  V30 5174 H 491.535 1.24857 5.37694 0
M  V30 5175 H 494.011 -0.240519 4.15404 0
M  V30 5176 H 492.887 -0.759622 5.43618 0
M  V30 5177 H 493.148 -1.79397 4.04066 0
M  V30 5178 N 492.207 -1.54576 0.307264 0
M  V30 5179 C 493.137 -2.26708 -0.55907 0
M  V30 5180 C 494.118 -1.26893 -1.1328 0
M  V30 5181 O 495.303 -1.55677 -1.16097 0
M  V30 5182 C 492.433 -3.01259 -1.72801 0
M  V30 5183 C 491.387 -4.08275 -1.28435 0
M  V30 5184 C 490.713 -4.70575 -2.53895 0
M  V30 5185 C 492.013 -5.2068 -0.411038 0
M  V30 5186 H 493.707 -2.9937 0.042576 0
M  V30 5187 H 491.253 -1.43983 0.0219173 0
M  V30 5188 H 493.206 -3.50444 -2.34023 0
M  V30 5189 H 491.93 -2.26187 -2.356 0
M  V30 5190 H 490.589 -3.59949 -0.695161 0
M  V30 5191 H 490.237 -3.92136 -3.15021 0
M  V30 5192 H 489.937 -5.42854 -2.24908 0
M  V30 5193 H 491.461 -5.22527 -3.15908 0
M  V30 5194 H 492.875 -5.65721 -0.929097 0
M  V30 5195 H 491.272 -5.99716 -0.214664 0
M  V30 5196 H 492.342 -4.81629 0.562287 0
M  V30 5197 N 493.685 -0.035106 -1.57561 0
M  V30 5198 C 494.962 0.681212 -1.83354 0
M  V30 5199 C 495.342 1.89986 -0.920252 0
M  V30 5200 O 494.69 2.28489 0.0226815 0
M  V30 5201 C 494.9 1.05376 -3.32712 0
M  V30 5202 C 496.248 1.44286 -3.99333 0
M  V30 5203 O 497.272 1.14656 -3.37242 0
M  V30 5204 O 496.131 1.99518 -5.08778 0
M  V30 5205 H 493.225 0.334741 -0.756226 0
M  V30 5206 H 495.771 -0.0632448 -1.69582 0
M  V30 5207 H 494.543 0.186668 -3.90854 0
M  V30 5208 H 494.166 1.85619 -3.51613 0
M  V30 5209 N 495.163 1.55791 0.238111 0
M  V30 5210 C 496.093 1.94068 1.29846 0
M  V30 5211 C 497.074 0.806726 1.49753 0
M  V30 5212 O 498.259 1.06772 1.62214 0
M  V30 5213 C 495.389 2.24302 2.65153 0
M  V30 5214 C 494.343 3.40032 2.59927 0
M  V30 5215 C 493.669 3.55829 3.99111 0
M  V30 5216 C 494.969 4.75476 2.16148 0
M  V30 5217 H 496.663 2.82887 0.980563 0
M  V30 5218 H 494.209 1.36105 0.470253 0
M  V30 5219 H 496.162 2.4967 3.39475 0
M  V30 5220 H 494.886 1.32318 2.98596 0
M  V30 5221 H 493.545 3.14687 1.88063 0
M  V30 5222 H 493.193 2.6125 4.29834 0
M  V30 5223 H 492.893 4.3366 3.96501 0
M  V30 5224 H 494.417 3.83528 4.7512 0
M  V30 5225 H 495.831 5.00158 2.80205 0
M  V30 5226 H 494.228 5.56472 2.24631 0
M  V30 5227 H 495.298 4.71946 1.11333 0
M  V30 5228 N 496.642 -0.504142 1.49319 0
M  V30 5229 C 497.889 -1.25846 1.58647 0
M  V30 5230 C 498.217 -1.92592 0.27177 0
M  V30 5231 O 497.472 -1.81167 -0.74007 0
M  V30 5232 C 497.771 -2.35021 2.69258 0
M  V30 5233 C 497.437 -1.85755 4.1086 0
M  V30 5234 C 496.099 -1.72038 4.49395 0
M  V30 5235 C 498.451 -1.48844 4.99495 0
M  V30 5236 C 495.779 -1.19783 5.74342 0
M  V30 5237 C 498.131 -0.980422 6.24956 0
M  V30 5238 C 496.795 -0.829622 6.62324 0
M  V30 5239 H 496.065 -0.460505 0.580531 0
M  V30 5240 H 498.712 -0.559716 1.83138 0
M  V30 5241 H 497.017 -3.10672 2.38726 0
M  V30 5242 H 498.714 -2.93083 2.73685 0
M  V30 5243 H 495.304 -1.9739 3.80441 0
M  V30 5244 H 499.488 -1.5829 4.70381 0
M  V30 5245 H 494.744 -1.06817 6.01997 0
M  V30 5246 H 498.918 -0.685608 6.93017 0
M  V30 5247 H 496.545 -0.42253 7.59025 0
M  V30 5248 N 498.12 -1.38341 -0.754957 0
M  V30 5249 C 499.36 -1.35888 -1.52689 0
M  V30 5250 C 499.724 0.0513682 -1.91931 0
M  V30 5251 O 500.925 0.200761 -2.68049 0
M  V30 5252 C 499.196 -2.28666 -2.74676 0
M  V30 5253 S 500.755 -2.4422 -3.64558 0
M  V30 5254 H 497.573 -0.482165 -0.522531 0
M  V30 5255 H 500.175 -1.74253 -0.886358 0
M  V30 5256 H 498.879 -3.30023 -2.43953 0
M  V30 5257 H 498.41 -1.91445 -3.43675 0
M  V30 5258 H 500.425 -1.66525 -4.67423 0
M  V30 5259 N 499.598 0.982988 -1.23187 0
M  V30 5260 C 500.844 1.72648 -1.06398 0
M  V30 5261 C 501.177 1.90066 0.398561 0
M  V30 5262 O 500.452 1.45105 1.29518 0
M  V30 5263 C 500.735 3.12627 -1.78707 0
M  V30 5264 C 500.588 3.02795 -3.32618 0
M  V30 5265 C 501.907 4.11997 -1.54747 0
M  V30 5266 H 499.026 0.626649 -0.387918 0
M  V30 5267 H 501.668 1.14455 -1.51658 0
M  V30 5268 H 499.818 3.62308 -1.40234 0
M  V30 5269 H 501.49 2.60659 -3.80598 0
M  V30 5270 H 499.733 2.39362 -3.61785 0
M  V30 5271 H 500.404 4.01893 -3.78399 0
M  V30 5272 H 502.88 3.71114 -1.88186 0
M  V30 5273 H 501.756 5.08037 -2.07821 0
M  V30 5274 H 502.017 4.39462 -0.482249 0
M  V30 5275 N 501.076 1.04316 1.18135 0
M  V30 5276 C 502.487 0.775505 1.69832 0
M  V30 5277 C 502.838 -0.703348 1.8316 0
M  V30 5278 O 501.963 -1.54729 1.51287 0
M  V30 5279 C 502.558 1.40112 3.0847 0
M  V30 5280 C 501.117 1.18172 3.57368 0
M  V30 5281 C 500.264 1.49022 2.33854 0
M  V30 5282 H 503.215 1.20925 1.02775 0
M  V30 5283 H 503.236 0.805672 3.71873 0
M  V30 5284 H 502.748 2.47744 2.98738 0
M  V30 5285 H 500.849 0.124258 3.72393 0
M  V30 5286 H 500.962 1.8805 4.40652 0
M  V30 5287 H 499.326 0.909995 2.37889 0
M  V30 5288 H 500.109 2.57768 2.26738 0
M  V30 5289 N 502.554 -1.34406 0.822964 0
M  V30 5290 C 503.8 -1.98578 0.411666 0
M  V30 5291 C 504.133 -1.65093 -1.02264 0
M  V30 5292 O 503.408 -0.92258 -1.71227 0
M  V30 5293 C 503.691 -3.54823 0.614235 0
M  V30 5294 C 503.544 -3.9805 2.09466 0
M  V30 5295 C 504.863 -4.40071 0.050221 0
M  V30 5296 H 501.982 -0.721355 0.151047 0
M  V30 5297 H 504.624 -1.59301 1.03554 0
M  V30 5298 H 502.774 -3.88411 0.0831774 0
M  V30 5299 H 504.446 -3.74795 2.68936 0
M  V30 5300 H 502.689 -3.4836 2.5851 0
M  V30 5301 H 503.36 -5.06819 2.18721 0
M  V30 5302 H 505.836 -4.13037 0.503953 0
M  V30 5303 H 504.712 -5.48452 0.221759 0
M  V30 5304 H 504.973 -4.29576 -1.04482 0
M  V30 5305 N 504.032 -0.577932 -1.46621 0
M  V30 5306 C 504.962 0.145917 -2.33044 0
M  V30 5307 C 505.943 0.888412 -1.45056 0
M  V30 5308 O 507.128 0.864812 -1.73881 0
M  V30 5309 C 504.258 1.16322 -3.27241 0
M  V30 5310 C 503.212 0.535868 -4.24632 0
M  V30 5311 C 502.538 1.65929 -5.08303 0
M  V30 5312 C 503.838 -0.523861 -5.19666 0
M  V30 5313 H 505.532 -0.575636 -2.93814 0
M  V30 5314 H 503.078 -0.278272 -1.41286 0
M  V30 5315 H 505.031 1.67793 -3.86553 0
M  V30 5316 H 503.755 1.91498 -2.64567 0
M  V30 5317 H 502.414 0.0422759 -3.66576 0
M  V30 5318 H 502.062 2.40061 -4.42018 0
M  V30 5319 H 501.762 1.2452 -5.74255 0
M  V30 5320 H 503.286 2.17686 -5.70478 0
M  V30 5321 H 504.7 -0.0944059 -5.73222 0
M  V30 5322 H 503.097 -0.858 -5.93935 0
M  V30 5323 H 504.167 -1.41197 -4.63887 0
M  V30 5324 N 505.51 1.54411 -0.315457 0
M  V30 5325 C 506.926 1.59556 0.037464 0
M  V30 5326 C 507.126 1.33217 1.5118 0
M  V30 5327 O 506.182 1.11264 2.26664 0
M  V30 5328 C 507.495 2.98372 -0.373477 0
M  V30 5329 C 509.043 3.11324 -0.323452 0
M  V30 5330 C 509.518 4.52472 -0.709433 0
M  V30 5331 N 511.009 4.58437 -0.662524 0
M  V30 5332 C 511.744 5.65751 -0.933474 0
M  V30 5333 N 511.24 6.81039 -1.27114 0
M  V30 5334 N 513.033 5.55489 -0.859573 0
M  V30 5335 H 505.184 1.6979 -1.27614 0
M  V30 5336 H 507.447 0.793732 -0.518356 0
M  V30 5337 H 507.153 3.22618 -1.40037 0
M  V30 5338 H 507.027 3.76264 0.265615 0
M  V30 5339 H 509.414 2.86818 0.694223 0
M  V30 5340 H 509.495 2.35555 -0.997367 0
M  V30 5341 H 509.139 4.7771 -1.72498 0
M  V30 5342 H 509.069 5.26598 -0.0132923 0
M  V30 5343 H 511.56 3.75636 -0.413065 0
M  V30 5344 H 511.873 7.58816 -1.46348 0
M  V30 5345 H 510.218 6.82555 -1.30932 0
M  V30 5346 H 513.409 4.64299 -0.595324 0
M  V30 5347 H 513.582 6.39036 -1.0741 0
M  V30 5348 N 506.988 0.0434614 1.5754 0
M  V30 5349 C 508.234 -0.627109 1.93491 0
M  V30 5350 C 508.589 -1.68904 0.921362 0
M  V30 5351 O 507.882 -1.91504 -0.0605799 0
M  V30 5352 C 508.076 -1.2738 3.3393 0
M  V30 5353 C 507.905 -0.27603 4.48852 0
M  V30 5354 C 506.675 0.129244 5.05135 0
M  V30 5355 C 508.873 0.475462 5.12098 0
M  V30 5356 N 506.855 1.12068 6.03584 0
M  V30 5357 C 508.226 1.32021 6.05781 0
M  V30 5358 C 510.281 0.534611 4.95022 0
M  V30 5359 C 508.984 2.2188 6.84223 0
M  V30 5360 C 511.01 1.42059 5.74085 0
M  V30 5361 C 510.372 2.25309 6.67394 0
M  V30 5362 H 506.471 -0.201354 0.755633 0
M  V30 5363 H 509.055 0.113991 1.94366 0
M  V30 5364 H 507.226 -1.98496 3.33847 0
M  V30 5365 H 508.958 -1.90255 3.57191 0
M  V30 5366 H 505.713 -0.248145 4.72949 0
M  V30 5367 H 506.137 1.61306 6.57502 0
M  V30 5368 H 510.779 -0.0947817 4.22694 0
M  V30 5369 H 508.497 2.85868 7.55847 0
M  V30 5370 H 512.083 1.47083 5.62901 0
M  V30 5371 H 510.963 2.92754 7.27506 0
M  V30 5372 N 508.466 -1.55915 -0.229846 0
M  V30 5373 C 509.882 -1.48721 -0.579166 0
M  V30 5374 C 510.082 -0.736976 -1.87539 0
M  V30 5375 O 509.138 -0.273258 -2.51017 0
M  V30 5376 C 510.451 -2.9323 -0.666082 0
M  V30 5377 C 511.999 -3.03701 -0.757267 0
M  V30 5378 C 512.474 -4.49552 -0.8756 0
M  V30 5379 N 513.965 -4.53561 -0.940035 0
M  V30 5380 C 514.7 -5.63683 -1.05116 0
M  V30 5381 N 514.196 -6.83576 -1.12675 0
M  V30 5382 N 515.989 -5.51516 -1.08565 0
M  V30 5383 H 508.14 -2.03123 0.620857 0
M  V30 5384 H 510.403 -0.922898 0.21671 0
M  V30 5385 H 510.109 -3.51032 0.21664 0
M  V30 5386 H 509.983 -3.44668 -1.53243 0
M  V30 5387 H 512.37 -2.45969 -1.63043 0
M  V30 5388 H 512.451 -2.55446 0.134583 0
M  V30 5389 H 512.095 -5.079 -0.00692351 0
M  V30 5390 H 512.025 -4.95506 -1.78274 0
M  V30 5391 H 514.516 -3.67215 -0.892269 0
M  V30 5392 H 514.829 -7.63251 -1.21109 0
M  V30 5393 H 513.174 -6.86303 -1.09603 0
M  V30 5394 H 516.365 -4.5678 -1.02319 0
M  V30 5395 H 516.538 -6.37372 -1.1688 0
M  V30 5396 N 509.944 0.496216 -1.49584 0
M  V30 5397 C 511.169 1.27865 -1.63295 0
M  V30 5398 C 511.594 1.85592 -0.306156 0
M  V30 5399 O 510.952 1.66092 0.726851 0
M  V30 5400 C 511 2.38128 -2.7079 0
M  V30 5401 O 510.104 3.42108 -2.30296 0
M  V30 5402 H 509.445 0.377279 -0.546403 0
M  V30 5403 H 511.975 0.593497 -1.95803 0
M  V30 5404 H 511.985 2.8382 -2.93104 0
M  V30 5405 H 510.66 1.95479 -3.67098 0
M  V30 5406 H 509.237 3.02301 -2.18331 0
M  V30 5407 N 511.423 1.38739 0.74761 0
M  V30 5408 C 512.663 1.36695 1.51966 0
M  V30 5409 C 513.027 -0.0411889 1.91956 0
M  V30 5410 O 514.228 -0.186543 2.68152 0
M  V30 5411 C 512.499 2.30119 2.73459 0
M  V30 5412 S 514.058 2.4615 3.63257 0
M  V30 5413 H 510.876 0.484929 0.519966 0
M  V30 5414 H 513.478 1.7472 0.877104 0
M  V30 5415 H 512.182 3.31312 2.422 0
M  V30 5416 H 511.713 1.93265 3.42655 0
M  V30 5417 H 513.728 1.69001 4.66533 0
M  V30 5418 N 512.901 -0.976442 1.23707 0
M  V30 5419 C 513.864 -2.0511 1.02287 0
M  V30 5420 C 514.864 -1.60791 -0.0167195 0
M  V30 5421 O 516.054 -1.72761 0.223408 0
M  V30 5422 C 513.186 -3.36458 0.548507 0
M  V30 5423 H 514.379 -2.25545 1.9766 0
M  V30 5424 H 511.932 -1.15042 1.05806 0
M  V30 5425 H 512.667 -3.21713 -0.408818 0
M  V30 5426 H 512.452 -3.69967 1.29874 0
M  V30 5427 H 513.942 -4.15489 0.419406 0
M  V30 5428 N 514.379 -1.04941 -1.1758 0
M  V30 5429 C 515.312 -0.592518 -2.20373 0
M  V30 5430 C 516.29 0.377561 -1.58156 0
M  V30 5431 O 517.474 0.28978 -1.86259 0
M  V30 5432 C 514.601 0.133215 -3.38438 0
M  V30 5433 C 513.647 -0.791484 -4.19092 0
M  V30 5434 S 514.48 -2.27925 -4.84572 0
M  V30 5435 C 515.636 -1.56462 -6.06028 0
M  V30 5436 H 515.869 -1.46342 -2.58788 0
M  V30 5437 H 513.402 -0.861148 -1.28155 0
M  V30 5438 H 515.36 0.545746 -4.06856 0
M  V30 5439 H 514.021 0.980124 -2.98416 0
M  V30 5440 H 513.214 -0.230039 -5.03475 0
M  V30 5441 H 512.816 -1.14326 -3.56098 0
M  V30 5442 H 515.108 -0.862539 -6.71987 0
M  V30 5443 H 516.051 -2.38583 -6.66696 0
M  V30 5444 H 516.459 -1.05313 -5.5459 0
M  V30 5445 N 515.857 1.33968 -0.830081 0
M  V30 5446 C 516.787 2.31911 -0.271911 0
M  V30 5447 C 517.768 1.58571 0.61556 0
M  V30 5448 O 518.953 1.86514 0.540946 0
M  V30 5449 C 516.083 3.42737 0.561146 0
M  V30 5450 C 515.037 4.27383 -0.229789 0
M  V30 5451 C 514.363 5.29742 0.726463 0
M  V30 5452 C 515.663 5.02 -1.44197 0
M  V30 5453 H 517.357 2.78844 -1.09025 0
M  V30 5454 H 514.903 1.34061 -0.52571 0
M  V30 5455 H 516.856 4.10276 0.961867 0
M  V30 5456 H 515.58 2.94471 1.41261 0
M  V30 5457 H 514.239 3.61456 -0.611964 0
M  V30 5458 H 513.887 4.77736 1.57408 0
M  V30 5459 H 513.587 5.87255 0.20142 0
M  V30 5460 H 515.111 6.00149 1.12489 0
M  V30 5461 H 516.525 5.62355 -1.11488 0
M  V30 5462 H 514.922 5.69122 -1.90317 0
M  V30 5463 H 515.992 4.31281 -2.2164 0
M  V30 5464 N 517.335 0.585699 1.46312 0
M  V30 5465 C 518.581 0.0725284 2.0267 0
M  V30 5466 C 518.914 -1.28523 1.45586 0
M  V30 5467 O 518.189 -1.84283 0.622101 0
M  V30 5468 C 518.472 0.0099788 3.60099 0
M  V30 5469 C 518.325 1.39685 4.27561 0
M  V30 5470 C 519.644 -0.689117 4.34671 0
M  V30 5471 H 516.763 0.0278307 0.736474 0
M  V30 5472 H 519.405 0.753472 1.74421 0
M  V30 5473 H 517.555 -0.56992 3.84297 0
M  V30 5474 H 519.227 2.02215 4.14617 0
M  V30 5475 H 517.47 1.96374 3.86807 0
M  V30 5476 H 518.141 1.30553 5.36339 0
M  V30 5477 H 520.617 -0.196446 4.15636 0
M  V30 5478 H 519.493 -0.701921 5.44393 0
M  V30 5479 H 519.754 -1.75101 4.05946 0
M  V30 5480 N 518.813 -1.54241 0.323641 0
M  V30 5481 C 520.059 -2.00867 -0.279323 0
M  V30 5482 C 520.392 -1.21146 -1.5178 0
M  V30 5483 O 519.667 -0.29378 -1.92269 0
M  V30 5484 C 519.95 -3.54837 -0.613387 0
M  V30 5485 C 519.803 -4.45284 0.635803 0
M  V30 5486 C 521.122 -4.16186 -1.43099 0
M  V30 5487 H 518.241 -0.730177 -0.100049 0
M  V30 5488 H 520.883 -1.84829 0.440235 0
M  V30 5489 H 519.033 -3.68634 -1.22641 0
M  V30 5490 H 520.705 -4.43357 1.27406 0
M  V30 5491 H 518.948 -4.14956 1.26466 0
M  V30 5492 H 519.619 -5.5084 0.357597 0
M  V30 5493 H 522.095 -4.05964 -0.912814 0
M  V30 5494 H 520.971 -5.24031 -1.6335 0
M  V30 5495 H 521.232 -3.69516 -2.42715 0
M  V30 5496 N 520.291 -0.0518155 -1.57515 0
M  V30 5497 C 521.239 0.940195 -2.12751 0
M  V30 5498 C 522.233 1.3218 -1.05948 0
M  V30 5499 O 523.439 1.30138 -1.24355 0
M  V30 5500 H 519.814 0.321066 -0.680015 0
M  V30 5501 H 521.785 0.449217 -2.94999 0
M  V30 5502 C 520.534 2.2055 -2.68799 0
M  V30 5503 H 519.857 1.92066 -3.50643 0
M  V30 5504 H 521.297 2.88119 -3.11068 0
M  V30 5505 C 519.756 2.95061 -1.62605 0
M  V30 5506 O 520.286 3.88025 -1.03921 0
M  V30 5507 N 518.492 2.57804 -1.34111 0
M  V30 5508 H 518.039 1.82281 -1.8202 0
M  V30 5509 H 517.997 3.07964 -0.632872 0
M  V30 5510 N 521.769 1.56035 0.221574 0
M  V30 5511 C 523.016 1.79047 0.94597 0
M  V30 5512 C 523.344 0.62057 1.84334 0
M  V30 5513 O 522.599 -0.395053 1.91671 0
M  V30 5514 C 522.898 3.07813 1.8162 0
M  V30 5515 C 522.564 4.3797 1.07206 0
M  V30 5516 C 521.226 4.73334 0.866508 0
M  V30 5517 C 523.578 5.18326 0.546565 0
M  V30 5518 C 520.906 5.8657 0.123549 0
M  V30 5519 C 523.258 6.32335 -0.18305 0
M  V30 5520 C 521.922 6.66301 -0.399861 0
M  V30 5521 H 521.192 0.655178 0.346155 0
M  V30 5522 H 523.839 1.90299 0.214146 0
M  V30 5523 H 522.144 2.91682 2.61589 0
M  V30 5524 H 523.841 3.2282 2.37884 0
M  V30 5525 H 520.431 4.10202 1.24226 0
M  V30 5526 H 524.615 4.9144 0.692847 0
M  V30 5527 H 519.871 6.11376 -0.0546591 0
M  V30 5528 H 524.045 6.9383 -0.59775 0
M  V30 5529 H 521.672 7.53889 -0.977489 0
M  V30 5530 N 523.247 -0.488276 1.49845 0
M  V30 5531 C 524.472 -1.26997 1.63971 0
M  V30 5532 C 524.897 -1.85427 0.315994 0
M  V30 5533 O 524.255 -1.66475 -0.718032 0
M  V30 5534 C 524.303 -2.36689 2.72049 0
M  V30 5535 O 523.407 -3.40882 2.32107 0
M  V30 5536 H 522.748 -0.374376 0.548396 0
M  V30 5537 H 525.278 -0.583104 1.96115 0
M  V30 5538 H 525.288 -2.82262 2.94605 0
M  V30 5539 H 523.963 -1.93529 3.68129 0
M  V30 5540 H 522.54 -3.01139 2.19931 0
M  V30 5541 N 524.725 -1.39134 -0.740242 0
M  V30 5542 C 525.655 -1.40165 -1.86751 0
M  V30 5543 C 526.636 -0.265708 -1.68012 0
M  V30 5544 O 527.821 -0.47076 -1.88408 0
M  V30 5545 C 524.951 -1.2392 -3.2444 0
M  V30 5546 C 523.905 -2.34858 -3.57807 0
M  V30 5547 C 523.231 -2.03707 -4.94376 0
M  V30 5548 C 524.531 -3.77159 -3.61315 0
M  V30 5549 H 526.225 -2.345 -1.86145 0
M  V30 5550 H 523.771 -1.12875 -0.89416 0
M  V30 5551 H 525.724 -1.23263 -4.02969 0
M  V30 5552 H 524.448 -0.26051 -3.25559 0
M  V30 5553 H 523.107 -2.34723 -2.81604 0
M  V30 5554 H 522.755 -1.04289 -4.9207 0
M  V30 5555 H 522.455 -2.78016 -5.17669 0
M  V30 5556 H 523.979 -2.04691 -5.75268 0
M  V30 5557 H 525.393 -3.79252 -4.29931 0
M  V30 5558 H 523.79 -4.50784 -3.96124 0
M  V30 5559 H 524.86 -4.08513 -2.61238 0
M  V30 5560 N 526.204 0.969867 -1.24223 0
M  V30 5561 C 527.134 2.08191 -1.05729 0
M  V30 5562 C 528.115 1.70075 0.0290765 0
M  V30 5563 O 529.3 1.93712 -0.137583 0
M  V30 5564 C 526.43 3.40991 -0.658995 0
M  V30 5565 C 525.384 3.93054 -1.69389 0
M  V30 5566 C 524.71 5.22171 -1.15072 0
M  V30 5567 C 526.01 4.21137 -3.08935 0
M  V30 5568 H 527.704 2.23921 -1.98746 0
M  V30 5569 H 525.25 1.07602 -0.956967 0
M  V30 5570 H 527.203 4.18221 -0.51662 0
M  V30 5571 H 525.927 3.25155 0.30686 0
M  V30 5572 H 524.586 3.17977 -1.82444 0
M  V30 5573 H 524.234 5.02694 -0.175539 0
M  V30 5574 H 523.934 5.57973 -1.84229 0
M  V30 5575 H 525.458 6.02013 -1.02042 0
M  V30 5576 H 526.872 4.8908 -2.99121 0
M  V30 5577 H 525.269 4.68163 -3.75425 0
M  V30 5578 H 526.339 3.27996 -3.57137 0
M  V30 5579 N 527.682 1.05563 1.17022 0
M  V30 5580 C 528.931 0.763036 1.8671 0
M  V30 5581 C 529.244 -0.712857 1.82147 0
M  V30 5582 O 530.45 -1.11955 2.47343 0
M  V30 5583 C 528.906 1.31474 3.35026 0
M  V30 5584 C 528.514 2.82034 3.48081 0
M  V30 5585 C 530.258 1.09935 4.10018 0
M  V30 5586 C 528.165 3.30486 4.90442 0
M  V30 5587 H 527.095 0.281747 0.699382 0
M  V30 5588 H 529.746 1.2734 1.32124 0
M  V30 5589 H 528.128 0.732171 3.89173 0
M  V30 5590 H 529.302 3.46178 3.04133 0
M  V30 5591 H 527.617 3.02156 2.86515 0
M  V30 5592 H 530.214 1.43632 5.15048 0
M  V30 5593 H 530.557 0.0373072 4.16283 0
M  V30 5594 H 531.09 1.64732 3.62089 0
M  V30 5595 H 527.829 4.36137 4.89352 0
M  V30 5596 H 527.349 2.71086 5.35044 0
M  V30 5597 H 529.028 3.25382 5.59227 0
M  V30 5598 N 529.16 -1.33526 0.837174 0
M  V30 5599 C 530.385 -2.0258 0.444545 0
M  V30 5600 C 530.81 -1.6258 -0.946006 0
M  V30 5601 O 530.168 -0.817548 -1.6182 0
M  V30 5602 C 530.216 -3.5605 0.571006 0
M  V30 5603 O 529.32 -4.10422 -0.403431 0
M  V30 5604 H 528.661 -0.638866 0.180958 0
M  V30 5605 H 531.191 -1.70462 1.13154 0
M  V30 5606 H 531.201 -4.05488 0.452024 0
M  V30 5607 H 529.876 -3.84509 1.58512 0
M  V30 5608 H 528.453 -3.72113 -0.242147 0
M  V30 5609 N 530.638 -0.59345 -1.46 0
M  V30 5610 C 531.868 -0.0889642 -2.06408 0
M  V30 5611 C 532.276 1.22597 -1.44106 0
M  V30 5612 O 531.619 1.75448 -0.544398 0
M  V30 5613 C 531.681 0.139902 -3.59228 0
M  V30 5614 C 531.345 -1.09107 -4.43784 0
M  V30 5615 C 532.342 -2.00577 -4.79651 0
M  V30 5616 C 530.027 -1.31593 -4.84756 0
M  V30 5617 C 532.021 -3.12873 -5.55328 0
M  V30 5618 C 529.708 -2.44192 -5.60191 0
M  V30 5619 C 530.706 -3.34661 -5.95392 0
M  V30 5620 O 530.394 -4.45302 -6.69299 0
M  V30 5621 H 530.126 -0.0594613 -0.67338 0
M  V30 5622 H 532.68 -0.817 -1.88452 0
M  V30 5623 H 530.91 0.922672 -3.75531 0
M  V30 5624 H 532.599 0.594228 -4.01527 0
M  V30 5625 H 533.365 -1.84425 -4.48567 0
M  V30 5626 H 529.244 -0.620801 -4.56801 0
M  V30 5627 H 532.788 -3.83511 -5.82722 0
M  V30 5628 H 528.685 -2.60303 -5.90688 0
M  V30 5629 H 529.453 -4.43805 -6.87735 0
M  V30 5630 N 532.116 1.54067 -0.331816 0
M  V30 5631 C 533.346 2.04833 0.269605 0
M  V30 5632 C 533.754 1.20714 1.45687 0
M  V30 5633 O 533.097 0.232539 1.82222 0
M  V30 5634 C 533.159 3.51386 0.759499 0
M  V30 5635 C 532.823 4.55971 -0.306557 0
M  V30 5636 C 533.82 5.07126 -1.14538 0
M  V30 5637 C 531.505 5.00216 -0.457116 0
M  V30 5638 C 533.499 6.01096 -2.12042 0
M  V30 5639 C 531.186 5.93999 -1.43556 0
M  V30 5640 C 532.184 6.44326 -2.26568 0
M  V30 5641 O 531.872 7.36267 -3.22749 0
M  V30 5642 H 531.604 0.673509 0.0579763 0
M  V30 5643 H 534.158 1.99748 -0.478521 0
M  V30 5644 H 532.388 3.53896 1.55867 0
M  V30 5645 H 534.077 3.85184 1.28017 0
M  V30 5646 H 534.843 4.73716 -1.04009 0
M  V30 5647 H 530.722 4.60652 0.179142 0
M  V30 5648 H 534.266 6.40302 -2.76873 0
M  V30 5649 H 530.163 6.26825 -1.54146 0
M  V30 5650 H 530.931 7.54165 -3.18083 0
M  V30 5651 N 533.594 0.0601682 1.57485 0
M  V30 5652 C 534.842 -0.610386 1.92662 0
M  V30 5653 C 535.163 -1.70849 0.939981 0
M  V30 5654 O 534.433 -1.95895 -0.0137455 0
M  V30 5655 H 533.013 -0.228457 0.711208 0
M  V30 5656 H 535.675 0.115288 1.94559 0
M  V30 5657 H 534.771 -1.0432 2.94149 0
M  V30 5658 N 535.072 -1.5615 -0.213296 0
M  V30 5659 C 536.002 -1.96109 -1.26742 0
M  V30 5660 C 536.983 -0.830448 -1.48451 0
M  V30 5661 O 538.168 -1.09339 -1.60495 0
M  V30 5662 C 535.298 -2.28492 -2.61551 0
M  V30 5663 C 534.252 -3.44124 -2.54485 0
M  V30 5664 C 533.578 -3.62134 -3.93399 0
M  V30 5665 C 534.878 -4.78855 -2.08556 0
M  V30 5666 H 536.572 -2.84412 -0.935434 0
M  V30 5667 H 534.118 -1.36836 -0.44854 0
M  V30 5668 H 536.071 -2.55039 -3.3546 0
M  V30 5669 H 534.795 -1.37052 -2.96453 0
M  V30 5670 H 533.454 -3.17639 -1.83033 0
M  V30 5671 H 533.102 -2.68055 -4.25623 0
M  V30 5672 H 532.802 -4.39913 -3.89551 0
M  V30 5673 H 534.326 -3.91038 -4.68958 0
M  V30 5674 H 535.74 -5.04552 -2.72213 0
M  V30 5675 H 534.137 -5.59975 -2.1575 0
M  V30 5676 H 535.207 -4.73657 -1.03811 0
M  V30 5677 N 536.55 0.480323 -1.50102 0
M  V30 5678 C 537.796 1.23489 -1.60867 0
M  V30 5679 C 538.129 1.91809 -0.303827 0
M  V30 5680 O 537.404 1.81694 0.694092 0
M  V30 5681 C 537.687 2.28578 -2.78252 0
M  V30 5682 C 537.54 1.64624 -4.18592 0
M  V30 5683 C 538.859 3.2997 -2.91218 0
M  V30 5684 H 535.978 0.447605 -0.585507 0
M  V30 5685 H 538.62 0.530005 -1.82458 0
M  V30 5686 H 536.77 2.88697 -2.59974 0
M  V30 5687 H 538.442 1.08173 -4.48438 0
M  V30 5688 H 536.685 0.949645 -4.23278 0
M  V30 5689 H 537.356 2.40946 -4.96638 0
M  V30 5690 H 539.832 2.79864 -3.07921 0
M  V30 5691 H 538.708 4.00839 -3.74993 0
M  V30 5692 H 538.969 3.93541 -2.0144 0
M  V30 5693 N 538.028 1.39524 0.732853 0
M  V30 5694 C 539.275 1.36865 1.49246 0
M  V30 5695 C 539.603 -0.0347118 1.94469 0
M  V30 5696 O 538.858 -1.01596 1.67262 0
M  V30 5697 C 539.157 2.28916 2.74468 0
M  V30 5698 C 538.823 3.76506 2.481 0
M  V30 5699 C 537.485 4.16721 2.40619 0
M  V30 5700 C 539.837 4.69846 2.25598 0
M  V30 5701 C 537.165 5.48334 2.08679 0
M  V30 5702 C 539.517 6.01739 1.95174 0
M  V30 5703 C 538.181 6.41015 1.86163 0
M  V30 5704 H 537.451 0.500824 0.546129 0
M  V30 5705 H 540.098 1.72047 0.840958 0
M  V30 5706 H 538.403 1.86859 3.4437 0
M  V30 5707 H 540.1 2.2415 3.32502 0
M  V30 5708 H 536.69 3.44635 2.54803 0
M  V30 5709 H 540.874 4.39608 2.30344 0
M  V30 5710 H 536.13 5.77685 2.00226 0
M  V30 5711 H 540.304 6.73591 1.76771 0
M  V30 5712 H 537.931 7.42917 1.61179 0
M  V30 5713 N 539.506 -0.963266 1.24736 0
M  V30 5714 C 540.783 -1.68248 0.9976 0
M  V30 5715 C 541.163 -2.05599 -0.478776 0
M  V30 5716 O 540.511 -1.7626 -1.45412 0
M  V30 5717 C 540.721 -2.91118 1.92487 0
M  V30 5718 C 542.069 -3.63261 2.19833 0
M  V30 5719 O 543.093 -3.01184 1.90176 0
M  V30 5720 O 541.952 -4.75019 2.7022 0
M  V30 5721 H 539.046 -0.735744 0.377637 0
M  V30 5722 H 541.592 -1.01696 1.35853 0
M  V30 5723 H 540.364 -2.60242 2.92215 0
M  V30 5724 H 539.987 -3.65402 1.56738 0
M  V30 5725 N 540.985 -1.06182 -1.16461 0
M  V30 5726 C 541.915 -0.692861 -2.22984 0
M  V30 5727 C 542.896 0.314122 -1.67174 0
M  V30 5728 O 544.081 0.189499 -1.93273 0
M  V30 5729 C 541.211 -0.07732 -3.47214 0
M  V30 5730 C 540.165 -1.01015 -4.15909 0
M  V30 5731 C 539.491 -0.257973 -5.34077 0
M  V30 5732 C 540.791 -2.33868 -4.67015 0
M  V30 5733 H 542.485 -1.58343 -2.54102 0
M  V30 5734 H 540.031 -0.76279 -1.22137 0
M  V30 5735 H 541.984 0.19266 -4.20959 0
M  V30 5736 H 540.708 0.848254 -3.15392 0
M  V30 5737 H 539.367 -1.26486 -3.44088 0
M  V30 5738 H 539.015 0.670684 -4.98509 0
M  V30 5739 H 538.715 -0.879638 -5.80979 0
M  V30 5740 H 540.239 0.00448788 -6.106 0
M  V30 5741 H 541.653 -2.1279 -5.32347 0
M  V30 5742 H 540.05 -2.91522 -5.24533 0
M  V30 5743 H 541.12 -2.97019 -3.83286 0
M  V30 5744 N 542.463 1.3308 -0.844243 0
M  V30 5745 C 543.395 2.27954 -0.238671 0
M  V30 5746 C 544.408 1.51978 0.583665 0
M  V30 5747 O 545.597 1.73731 0.409857 0
M  V30 5748 C 542.697 3.31963 0.682185 0
M  V30 5749 C 541.87 4.37281 -0.101998 0
M  V30 5750 C 540.929 5.20928 0.743022 0
M  V30 5751 O 539.955 5.68914 0.180285 0
M  V30 5752 N 541.157 5.42738 2.0595 0
M  V30 5753 H 543.922 2.8056 -1.05386 0
M  V30 5754 H 541.483 1.4583 -0.70322 0
M  V30 5755 H 543.475 3.84828 1.25259 0
M  V30 5756 H 542.045 2.79594 1.39808 0
M  V30 5757 H 541.265 3.84843 -0.853802 0
M  V30 5758 H 542.553 5.04746 -0.641015 0
M  V30 5759 H 541.951 5.05463 2.54016 0
M  V30 5760 H 540.508 5.98639 2.57827 0
M  V30 5761 N 543.941 0.601185 1.45683 0
M  V30 5762 C 545.166 0.0982245 2.07167 0
M  V30 5763 C 545.591 -1.20546 1.44396 0
M  V30 5764 O 544.949 -1.73247 0.534347 0
M  V30 5765 C 544.997 -0.0346976 3.60583 0
M  V30 5766 O 544.101 -1.08657 3.97828 0
M  V30 5767 H 543.442 0.0711618 0.660176 0
M  V30 5768 H 545.972 0.829376 1.87036 0
M  V30 5769 H 545.982 -0.234969 4.07323 0
M  V30 5770 H 544.657 0.917265 4.05659 0
M  V30 5771 H 543.234 -0.863275 3.6277 0
M  V30 5772 N 545.419 -1.53889 0.339982 0
M  V30 5773 C 546.349 -2.27843 -0.510856 0
M  V30 5774 C 547.33 -1.29267 -1.10563 0
M  V30 5775 O 548.515 -1.58104 -1.12768 0
M  V30 5776 C 545.645 -3.04857 -1.66372 0
M  V30 5777 C 544.599 -4.10907 -1.19746 0
M  V30 5778 C 543.925 -4.75855 -2.43857 0
M  V30 5779 C 545.225 -5.21435 -0.300501 0
M  V30 5780 H 546.919 -2.99212 0.106067 0
M  V30 5781 H 544.465 -1.43904 0.0524533 0
M  V30 5782 H 546.418 -3.5533 -2.26537 0
M  V30 5783 H 545.142 -2.31133 -2.30749 0
M  V30 5784 H 543.801 -3.61342 -0.618654 0
M  V30 5785 H 543.449 -3.9873 -3.06633 0
M  V30 5786 H 543.149 -5.47502 -2.13343 0
M  V30 5787 H 544.673 -5.2911 -3.04754 0
M  V30 5788 H 546.087 -5.67565 -0.80889 0
M  V30 5789 H 544.484 -6.00036 -0.0874076 0
M  V30 5790 H 545.554 -4.80328 0.664321 0
M  V30 5791 N 546.897 -0.0685191 -1.57451 0
M  V30 5792 C 548.145 0.60016 -1.92983 0
M  V30 5793 C 548.466 1.70348 -0.949028 0
M  V30 5794 O 547.736 1.959 0.00335647 0
M  V30 5795 H 546.316 0.224682 -0.712409 0
M  V30 5796 H 548.978 -0.125605 -1.94495 0
M  V30 5797 H 548.074 1.02759 -2.94698 0
M  V30 5798 N 548.375 1.56261 0.205012 0
M  V30 5799 C 549.791 1.49623 0.555433 0
M  V30 5800 C 549.991 0.766719 1.86343 0
M  V30 5801 O 549.047 0.313158 2.50551 0
M  V30 5802 C 550.36 2.94253 0.619347 0
M  V30 5803 C 551.908 3.04868 0.708855 0
M  V30 5804 C 552.383 4.50888 0.803969 0
M  V30 5805 N 553.874 4.54999 0.867758 0
M  V30 5806 C 554.609 5.65284 0.96135 0
M  V30 5807 N 554.105 6.85282 1.01786 0
M  V30 5808 N 555.898 5.53174 0.997771 0
M  V30 5809 H 548.049 2.0211 -0.653094 0
M  V30 5810 H 550.312 0.919333 -0.231366 0
M  V30 5811 H 550.018 3.50643 -0.272458 0
M  V30 5812 H 549.892 3.47063 1.47741 0
M  V30 5813 H 552.279 2.48532 1.5911 0
M  V30 5814 H 552.36 2.55199 -0.175205 0
M  V30 5815 H 552.004 5.07846 -0.0738798 0
M  V30 5816 H 551.934 4.98279 1.70369 0
M  V30 5817 H 554.425 3.68588 0.833735 0
M  V30 5818 H 554.738 7.65081 1.08951 0
M  V30 5819 H 553.083 6.8796 0.986706 0
M  V30 5820 H 556.274 4.5835 0.950392 0
M  V30 5821 H 556.447 6.39151 1.06725 0
M  V30 5822 N 549.853 -0.472356 1.50355 0
M  V30 5823 C 551.13 -1.23356 1.51798 0
M  V30 5824 C 551.51 -2.09469 0.26193 0
M  V30 5825 O 550.858 -2.15677 -0.754691 0
M  V30 5826 C 551.068 -2.06568 2.81302 0
M  V30 5827 C 552.416 -2.648 3.31913 0
M  V30 5828 O 553.44 -2.16812 2.82614 0
M  V30 5829 O 552.299 -3.52231 4.17846 0
M  V30 5830 H 549.393 -0.559707 0.608816 0
M  V30 5831 H 551.939 -0.48428 1.62643 0
M  V30 5832 H 550.711 -1.43103 3.64194 0
M  V30 5833 H 550.334 -2.88633 2.73454 0
M  V30 5834 N 551.331 -1.39911 -0.725443 0
M  V30 5835 C 552.58 -1.36963 -1.48068 0
M  V30 5836 C 552.893 0.0284478 -1.95579 0
M  V30 5837 O 554.099 0.180535 -2.70899 0
M  V30 5838 C 552.555 -2.40664 -2.67598 0
M  V30 5839 C 552.163 -3.86234 -2.26997 0
M  V30 5840 C 553.907 -2.46807 -3.45379 0
M  V30 5841 C 551.814 -4.81554 -3.43307 0
M  V30 5842 H 550.744 -0.509223 -0.556065 0
M  V30 5843 H 553.395 -1.65602 -0.790454 0
M  V30 5844 H 551.777 -2.05109 -3.38742 0
M  V30 5845 H 552.951 -4.3088 -1.63337 0
M  V30 5846 H 551.266 -3.83475 -1.62284 0
M  V30 5847 H 553.863 -3.15213 -4.31909 0
M  V30 5848 H 554.206 -1.49552 -3.8851 0
M  V30 5849 H 554.739 -2.81303 -2.81271 0
M  V30 5850 H 551.478 -5.80106 -3.05217 0
M  V30 5851 H 550.998 -4.4158 -4.05915 0
M  V30 5852 H 552.677 -5.0091 -4.0951 0
M  V30 5853 N 552.809 0.956637 -1.25245 0
M  V30 5854 C 554.056 1.701 -1.09874 0
M  V30 5855 C 554.384 1.91128 0.36062 0
M  V30 5856 O 553.639 1.47837 1.28229 0
M  V30 5857 C 553.938 3.08996 -1.79601 0
M  V30 5858 C 553.604 3.07774 -3.29523 0
M  V30 5859 C 552.266 3.07149 -3.70423 0
M  V30 5860 C 554.618 3.01257 -4.25316 0
M  V30 5861 C 551.946 2.97752 -5.0553 0
M  V30 5862 C 554.298 2.93403 -5.60444 0
M  V30 5863 C 552.962 2.91111 -6.00675 0
M  V30 5864 H 552.232 0.62244 -0.402056 0
M  V30 5865 H 554.879 1.1178 -1.55491 0
M  V30 5866 H 553.184 3.70848 -1.26408 0
M  V30 5867 H 554.881 3.65407 -1.65162 0
M  V30 5868 H 551.471 3.09032 -2.9698 0
M  V30 5869 H 555.655 3.00861 -3.9471 0
M  V30 5870 H 550.911 2.94346 -5.35883 0
M  V30 5871 H 555.085 2.87321 -6.34366 0
M  V30 5872 H 552.712 2.83586 -7.05325 0
M  V30 5873 N 554.287 1.06798 1.15896 0
M  V30 5874 C 555.217 0.704677 2.22613 0
M  V30 5875 C 556.198 -0.305252 1.67339 0
M  V30 5876 O 557.383 -0.179247 1.93371 0
M  V30 5877 C 554.513 0.0957325 3.47168 0
M  V30 5878 C 553.467 1.0322 4.15367 0
M  V30 5879 C 552.793 0.286293 5.33933 0
M  V30 5880 C 554.093 2.36341 4.65768 0
M  V30 5881 H 555.787 1.59688 2.53259 0
M  V30 5882 H 553.333 0.769257 1.21731 0
M  V30 5883 H 555.286 -0.170333 4.21056 0
M  V30 5884 H 554.01 -0.831516 3.15838 0
M  V30 5885 H 552.669 1.28309 3.43413 0
M  V30 5886 H 552.317 -0.644237 4.98857 0
M  V30 5887 H 552.017 0.910436 5.80504 0
M  V30 5888 H 553.541 0.0278938 6.10594 0
M  V30 5889 H 554.955 2.1561 5.31211 0
M  V30 5890 H 553.352 2.94299 5.2298 0
M  V30 5891 H 554.422 2.99047 3.81705 0
M  V30 5892 N 555.766 -1.3263 0.851289 0
M  V30 5893 C 556.696 -2.31449 0.308771 0
M  V30 5894 C 557.677 -1.59531 -0.590255 0
M  V30 5895 O 558.862 -1.87351 -0.511205 0
M  V30 5896 C 555.992 -3.43586 -0.506548 0
M  V30 5897 C 554.946 -4.26963 0.297753 0
M  V30 5898 C 554.272 -5.30831 -0.642094 0
M  V30 5899 C 555.572 -4.99643 1.52166 0
M  V30 5900 H 557.266 -2.77074 1.13447 0
M  V30 5901 H 554.812 -1.33207 0.546971 0
M  V30 5902 H 556.765 -4.11754 -0.896474 0
M  V30 5903 H 555.489 -2.96681 -1.36558 0
M  V30 5904 H 554.148 -3.60437 0.669391 0
M  V30 5905 H 553.796 -4.8018 -1.49788 0
M  V30 5906 H 553.496 -5.87501 -0.107968 0
M  V30 5907 H 555.02 -6.01862 -1.02927 0
M  V30 5908 H 556.434 -5.6051 1.20421 0
M  V30 5909 H 554.831 -5.66022 1.99347 0
M  V30 5910 H 555.901 -4.27701 2.28474 0
M  V30 5911 N 557.244 -0.608902 -1.45362 0
M  V30 5912 C 558.176 0.147318 -2.28726 0
M  V30 5913 C 559.189 0.830468 -1.40025 0
M  V30 5914 O 560.378 0.695636 -1.64387 0
M  V30 5915 C 557.478 1.22968 -3.15804 0
M  V30 5916 C 556.651 0.633391 -4.3279 0
M  V30 5917 C 555.71 1.60682 -5.01067 0
M  V30 5918 O 554.736 1.13261 -5.57818 0
M  V30 5919 N 555.938 2.94123 -5.00472 0
M  V30 5920 H 558.703 -0.568014 -2.94268 0
M  V30 5921 H 556.264 -0.448479 -1.55564 0
M  V30 5922 H 558.256 1.88072 -3.58345 0
M  V30 5923 H 556.826 1.84752 -2.52162 0
M  V30 5924 H 556.046 -0.195762 -3.93714 0
M  V30 5925 H 557.334 0.215255 -5.08344 0
M  V30 5926 H 556.732 3.3525 -4.55657 0
M  V30 5927 H 555.289 3.54646 -5.46872 0
M  V30 5928 N 558.722 1.53707 -0.348139 0
M  V30 5929 C 559.685 2.23812 0.494058 0
M  V30 5930 C 560.685 1.23989 1.02388 0
M  V30 5931 O 561.875 1.48395 0.912396 0
M  V30 5932 C 559.007 2.96133 1.68872 0
M  V30 5933 H 560.2 2.99663 -0.119141 0
M  V30 5934 H 557.753 1.55983 -0.0995539 0
M  V30 5935 H 558.488 2.24481 2.34049 0
M  V30 5936 H 558.273 3.69357 1.31596 0
M  V30 5937 H 559.763 3.49475 2.28597 0
M  V30 5938 N 560.2 0.0768682 1.57412 0
M  V30 5939 C 561.13 -0.886026 2.16037 0
M  V30 5940 C 562.111 -1.30691 1.08876 0
M  V30 5941 O 563.296 -1.37705 1.36934 0
M  V30 5942 C 560.426 -2.1518 2.72608 0
M  V30 5943 C 559.38 -1.87015 3.8498 0
M  V30 5944 C 558.706 -3.20266 4.28175 0
M  V30 5945 C 560.006 -1.17143 5.08994 0
M  V30 5946 H 561.7 -0.397642 2.96748 0
M  V30 5947 H 559.246 -0.189823 1.42743 0
M  V30 5948 H 561.199 -2.82962 3.12266 0
M  V30 5949 H 559.923 -2.66269 1.89125 0
M  V30 5950 H 558.582 -1.21636 3.45833 0
M  V30 5951 H 558.23 -3.69207 3.41607 0
M  V30 5952 H 557.93 -3.0221 5.03927 0
M  V30 5953 H 559.454 -3.89237 4.70454 0
M  V30 5954 H 560.868 -1.75003 5.45937 0
M  V30 5955 H 559.265 -1.09328 5.90057 0
M  V30 5956 H 560.335 -0.151295 4.84664 0
M  V30 5957 N 561.678 -1.56367 -0.196722 0
M  V30 5958 C 562.925 -1.80529 -0.917366 0
M  V30 5959 C 563.253 -0.649817 -1.83324 0
M  V30 5960 O 562.508 0.36451 -1.92275 0
M  V30 5961 C 562.807 -3.10663 -1.767 0
M  V30 5962 C 562.473 -4.3962 -1.00225 0
M  V30 5963 C 561.135 -4.74653 -0.791095 0
M  V30 5964 C 563.487 -5.1913 -0.464035 0
M  V30 5965 C 560.815 -5.86692 -0.0302155 0
M  V30 5966 C 563.167 -6.31964 0.283625 0
M  V30 5967 C 561.831 -6.65581 0.505813 0
M  V30 5968 H 561.101 -0.660602 -0.335688 0
M  V30 5969 H 563.748 -1.90615 -0.183844 0
M  V30 5970 H 562.053 -2.95807 -2.56915 0
M  V30 5971 H 563.75 -3.26563 -2.32718 0
M  V30 5972 H 560.34 -4.12127 -1.17684 0
M  V30 5973 H 564.524 -4.9248 -0.614575 0
M  V30 5974 H 559.78 -6.11211 0.151917 0
M  V30 5975 H 563.954 -6.92791 0.708057 0
M  V30 5976 H 561.581 -7.52239 1.0973 0
M  V30 5977 N 563.156 0.464375 -1.50603 0
M  V30 5978 C 564.404 1.21356 -1.61608 0
M  V30 5979 C 564.725 1.92329 -0.321643 0
M  V30 5980 O 563.995 1.84403 0.661232 0
M  V30 5981 H 562.575 0.45094 -0.595535 0
M  V30 5982 H 565.237 0.535046 -1.87412 0
M  V30 5983 H 564.333 1.95783 -2.43054 0
M  V30 5984 N 564.634 1.40294 0.718013 0
M  V30 5985 C 565.597 1.4012 1.81381 0
M  V30 5986 C 566.597 0.295405 1.58063 0
M  V30 5987 O 567.787 0.554187 1.6515 0
M  V30 5988 C 564.919 1.19056 3.19435 0
M  V30 5989 H 566.112 2.37645 1.82933 0
M  V30 5990 H 563.665 1.26107 0.923405 0
M  V30 5991 H 564.4 0.222809 3.23534 0
M  V30 5992 H 564.185 1.99152 3.37758 0
M  V30 5993 H 565.675 1.21716 3.99468 0
M  V30 5994 N 566.112 -0.949982 1.2575 0
M  V30 5995 C 567.358 -1.69766 1.10938 0
M  V30 5996 C 567.691 -1.91056 -0.348028 0
M  V30 5997 O 566.966 -1.48488 -1.25625 0
M  V30 5998 C 567.249 -3.07779 1.86933 0
M  V30 5999 C 567.102 -2.9387 3.4053 0
M  V30 6000 C 568.421 -4.07749 1.65616 0
M  V30 6001 H 565.54 -0.616144 0.404396 0
M  V30 6002 H 568.182 -1.10394 1.54639 0
M  V30 6003 H 566.332 -3.58462 1.4979 0
M  V30 6004 H 568.004 -2.50476 3.87375 0
M  V30 6005 H 566.247 -2.29686 3.68004 0
M  V30 6006 H 566.918 -3.91719 3.88922 0
M  V30 6007 H 569.394 -3.65994 1.97959 0
M  V30 6008 H 568.27 -5.02348 2.21218 0
M  V30 6009 H 568.531 -4.38029 0.598595 0
M  V30 6010 N 567.59 -1.07411 -1.15328 0
M  V30 6011 C 568.867 -0.710732 -1.82231 0
M  V30 6012 C 569.247 0.806732 -1.95077 0
M  V30 6013 O 568.595 1.72139 -1.50268 0
M  V30 6014 C 568.805 -1.42586 -3.18544 0
M  V30 6015 C 570.153 -1.57836 -3.94174 0
M  V30 6016 O 571.177 -1.38669 -3.281 0
M  V30 6017 O 570.036 -1.8938 -5.12638 0
M  V30 6018 H 567.13 -0.25297 -0.78736 0
M  V30 6019 H 569.676 -1.17508 -1.22434 0
M  V30 6020 H 568.448 -2.46008 -3.04296 0
M  V30 6021 H 568.071 -0.952332 -3.86026 0
M  V30 6022 N 569.068 1.32177 -0.85831 0
M  V30 6023 C 570.315 1.97125 -0.463484 0
M  V30 6024 C 570.643 1.67907 0.981705 0
M  V30 6025 O 569.898 0.961717 1.70439 0
M  V30 6026 C 570.197 3.51372 -0.653658 0
M  V30 6027 C 569.863 4.00584 -2.06987 0
M  V30 6028 C 568.525 4.13733 -2.4572 0
M  V30 6029 C 570.877 4.26624 -2.99402 0
M  V30 6030 C 568.205 4.50268 -3.76132 0
M  V30 6031 C 570.557 4.64618 -4.29316 0
M  V30 6032 C 569.221 4.75975 -4.67979 0
M  V30 6033 H 568.491 0.72133 -0.169601 0
M  V30 6034 H 571.138 1.57517 -1.08907 0
M  V30 6035 H 569.443 3.91761 0.0551328 0
M  V30 6036 H 571.14 3.99655 -0.328163 0
M  V30 6037 H 567.73 3.90837 -1.75911 0
M  V30 6038 H 571.914 4.1597 -2.70708 0
M  V30 6039 H 567.17 4.57256 -4.05865 0
M  V30 6040 H 571.344 4.83722 -5.00985 0
M  V30 6041 H 568.971 5.04041 -5.69076 0
M  V30 6042 N 570.547 0.616602 1.45037 0
M  V30 6043 C 571.477 -0.0840787 2.33349 0
M  V30 6044 C 572.458 -0.849641 1.4736 0
M  V30 6045 O 573.643 -0.818407 1.76113 0
M  V30 6046 C 570.773 -1.07604 3.3021 0
M  V30 6047 C 569.727 -0.423096 4.25904 0
M  V30 6048 C 569.053 -1.52394 5.12523 0
M  V30 6049 C 570.353 0.661457 5.18095 0
M  V30 6050 H 572.047 0.653333 2.92185 0
M  V30 6051 H 569.593 0.315634 1.40498 0
M  V30 6052 H 571.546 -1.57485 3.90866 0
M  V30 6053 H 570.27 -1.84416 2.69552 0
M  V30 6054 H 568.929 0.05493 3.66559 0
M  V30 6055 H 568.577 -2.28257 4.48227 0
M  V30 6056 H 568.277 -1.09251 5.77354 0
M  V30 6057 H 569.801 -2.02485 5.76049 0
M  V30 6058 H 571.215 0.246353 5.7277 0
M  V30 6059 H 569.612 1.01517 5.91451 0
M  V30 6060 H 570.682 1.53446 4.59981 0
M  V30 6061 N 572.025 -1.5352 0.356285 0
M  V30 6062 C 573.273 -2.00719 -0.235837 0
M  V30 6063 C 573.594 -1.24551 -1.5004 0
M  V30 6064 O 572.864 -0.356185 -1.92635 0
M  V30 6065 H 571.444 -0.741542 -0.0901366 0
M  V30 6066 H 574.106 -1.88887 0.480378 0
M  V30 6067 H 573.202 -3.08551 -0.469357 0
M  V30 6068 N 573.503 -0.0852151 -1.57369 0
M  V30 6069 C 574.919 0.271436 -1.57275 0
M  V30 6070 C 575.119 1.69109 -1.09565 0
M  V30 6071 O 574.175 2.40549 -0.767611 0
M  V30 6072 C 575.488 0.0688638 -3.00621 0
M  V30 6073 C 577.036 0.137373 -3.12698 0
M  V30 6074 C 577.511 -0.0370832 -4.57985 0
M  V30 6075 N 579.002 0.0180794 -4.63196 0
M  V30 6076 C 579.737 -0.0922953 -5.73326 0
M  V30 6077 N 579.233 -0.256948 -6.92323 0
M  V30 6078 N 581.026 -0.0342702 -5.6209 0
M  V30 6079 H 573.177 -1.01288 -1.86693 0
M  V30 6080 H 575.44 -0.396138 -0.861266 0
M  V30 6081 H 575.146 -0.911277 -3.39689 0
M  V30 6082 H 575.02 0.815442 -3.6828 0
M  V30 6083 H 577.407 1.10801 -2.73509 0
M  V30 6084 H 577.488 -0.640532 -2.47651 0
M  V30 6085 H 577.132 -1.00455 -4.97867 0
M  V30 6086 H 577.062 0.760392 -5.21081 0
M  V30 6087 H 579.553 0.143202 -3.77629 0
M  V30 6088 H 579.866 -0.332949 -7.72082 0
M  V30 6089 H 578.211 -0.292487 -6.94384 0
M  V30 6090 H 581.402 0.0931605 -4.68007 0
M  V30 6091 H 581.575 -0.12374 -6.47882 0
M  V30 6092 N 574.981 1.5647 0.188427 0
M  V30 6093 C 575.944 1.9421 1.21718 0
M  V30 6094 C 576.944 0.823901 1.38089 0
M  V30 6095 O 578.134 1.09122 1.35787 0
M  V30 6096 C 575.266 2.22197 2.58537 0
M  V30 6097 H 576.459 2.86252 0.894418 0
M  V30 6098 H 574.012 1.50263 0.430211 0
M  V30 6099 H 574.747 1.32814 2.95856 0
M  V30 6100 H 574.532 3.03688 2.48025 0
M  V30 6101 H 576.022 2.52376 3.3271 0
M  V30 6102 N 576.459 -0.456382 1.50847 0
M  V30 6103 C 577.687 -1.23026 1.66349 0
M  V30 6104 C 578.102 -1.85473 0.352868 0
M  V30 6105 O 577.459 -1.69885 -0.666739 0
M  V30 6106 C 577.51 -2.32827 2.76539 0
M  V30 6107 O 577.231 -1.72938 4.02522 0
M  V30 6108 C 578.732 -3.23448 3.03144 0
M  V30 6109 H 575.952 -0.371527 0.558756 0
M  V30 6110 H 578.496 -0.543082 1.97157 0
M  V30 6111 H 576.651 -2.97294 2.48384 0
M  V30 6112 H 577.065 -2.45357 4.63573 0
M  V30 6113 H 578.539 -3.96669 3.83872 0
M  V30 6114 H 579.016 -3.83094 2.14793 0
M  V30 6115 H 579.622 -2.64702 3.32886 0
M  V30 6116 N 577.937 -1.40673 -0.710563 0
M  V30 6117 C 579.165 -1.42547 -1.4996 0
M  V30 6118 C 579.58 -0.0265485 -1.88781 0
M  V30 6119 O 578.937 0.950694 -1.55782 0
M  V30 6120 C 578.988 -2.32071 -2.77173 0
M  V30 6121 O 578.709 -3.66518 -2.39992 0
M  V30 6122 C 580.21 -2.42591 -3.71032 0
M  V30 6123 H 577.43 -0.486025 -0.462623 0
M  V30 6124 H 579.974 -1.84783 -0.876102 0
M  V30 6125 H 578.129 -1.93184 -3.35795 0
M  V30 6126 H 578.543 -4.14115 -3.21884 0
M  V30 6127 H 580.017 -3.09429 -4.57119 0
M  V30 6128 H 580.494 -1.4525 -4.14486 0
M  V30 6129 H 581.1 -2.82051 -3.18319 0
M  V30 6130 N 579.415 0.9433 -1.26252 0
M  V30 6131 C 580.378 2.02326 -1.07689 0
M  V30 6132 C 581.378 1.60779 -0.0259174 0
M  V30 6133 O 582.568 1.72108 -0.269134 0
M  V30 6134 C 579.7 3.34886 -0.63752 0
M  V30 6135 H 580.893 2.20225 -2.0357 0
M  V30 6136 H 578.446 1.12197 -1.08819 0
M  V30 6137 H 579.181 3.22684 0.323377 0
M  V30 6138 H 578.966 3.66393 -1.39637 0
M  V30 6139 H 580.456 4.14231 -0.529418 0
M  V30 6140 N 580.893 1.08022 1.14757 0
M  V30 6141 C 581.823 0.728248 2.21853 0
M  V30 6142 C 582.804 -0.287486 1.67653 0
M  V30 6143 O 583.989 -0.158727 1.9355 0
M  V30 6144 C 581.119 0.132549 3.47047 0
M  V30 6145 C 580.073 1.07619 4.14249 0
M  V30 6146 C 579.399 0.342907 5.33599 0
M  V30 6147 C 580.699 2.41268 4.63235 0
M  V30 6148 H 582.393 1.62365 2.51551 0
M  V30 6149 H 579.939 0.782125 1.20908 0
M  V30 6150 H 581.892 -0.125665 4.21213 0
M  V30 6151 H 580.616 -0.797971 3.16702 0
M  V30 6152 H 579.275 1.31944 3.42033 0
M  V30 6153 H 578.923 -0.59129 4.99513 0
M  V30 6154 H 578.623 0.971955 5.79506 0
M  V30 6155 H 580.147 0.0926538 6.1053 0
M  V30 6156 H 581.561 2.21232 5.28894 0
M  V30 6157 H 579.958 2.9983 5.19829 0
M  V30 6158 H 581.028 3.03079 3.78512 0
M  V30 6159 N 582.371 -1.3172 0.865308 0
M  V30 6160 C 583.301 -2.31109 0.333302 0
M  V30 6161 C 584.282 -1.60148 -0.573301 0
M  V30 6162 O 585.467 -1.87882 -0.491305 0
M  V30 6163 C 582.597 -3.44104 -0.470078 0
M  V30 6164 C 581.551 -4.26623 0.343021 0
M  V30 6165 C 580.877 -5.31482 -0.585756 0
M  V30 6166 C 582.177 -4.98001 1.57456 0
M  V30 6167 H 583.871 -2.75855 1.1638 0
M  V30 6168 H 581.417 -1.3262 0.561069 0
M  V30 6169 H 583.37 -4.12682 -0.852752 0
M  V30 6170 H 582.094 -2.98112 -1.33404 0
M  V30 6171 H 580.753 -3.59707 0.707583 0
M  V30 6172 H 580.401 -4.81741 -1.44686 0
M  V30 6173 H 580.101 -5.87582 -0.0456494 0
M  V30 6174 H 581.625 -6.0292 -0.965375 0
M  V30 6175 H 583.039 -5.59201 1.26359 0
M  V30 6176 H 581.436 -5.63876 2.05339 0
M  V30 6177 H 582.506 -4.25253 2.32997 0
M  V30 6178 N 583.85 -0.624285 -1.44708 0
M  V30 6179 C 584.779 0.0717025 -2.3339 0
M  V30 6180 C 585.76 0.841814 -1.47809 0
M  V30 6181 O 586.946 0.809056 -1.76544 0
M  V30 6182 C 584.076 1.05852 -3.30776 0
M  V30 6183 C 583.029 0.400503 -4.26122 0
M  V30 6184 C 582.356 1.49674 -5.13324 0
M  V30 6185 C 583.656 -0.688924 -5.17737 0
M  V30 6186 H 585.35 -0.668819 -2.91834 0
M  V30 6187 H 582.896 -0.32308 -1.40329 0
M  V30 6188 H 584.849 1.5541 -3.91696 0
M  V30 6189 H 583.572 1.82984 -2.70526 0
M  V30 6190 H 582.231 -0.0743687 -3.66525 0
M  V30 6191 H 581.88 2.25877 -4.49431 0
M  V30 6192 H 581.58 1.06188 -5.77926 0
M  V30 6193 H 583.104 1.99427 -5.77115 0
M  V30 6194 H 584.518 -0.276724 -5.72632 0
M  V30 6195 H 582.915 -1.04652 -5.90904 0
M  V30 6196 H 583.985 -1.55884 -4.5916 0
M  V30 6197 N 585.328 1.53329 -0.364422 0
M  V30 6198 C 586.553 2.06132 0.229033 0
M  V30 6199 C 586.978 1.23625 1.41769 0
M  V30 6200 O 586.336 0.255038 1.79497 0
M  V30 6201 C 586.384 3.55544 0.60174 0
M  V30 6202 O 585.488 3.75771 1.69912 0
M  V30 6203 H 584.829 0.663148 0.0336213 0
M  V30 6204 H 587.359 1.97758 -0.524689 0
M  V30 6205 H 587.369 3.98549 0.873073 0
M  V30 6206 H 586.044 4.15039 -0.267421 0
M  V30 6207 H 584.621 3.44663 1.42343 0
M  V30 6208 N 586.806 0.0935595 1.57322 0
M  V30 6209 C 588.053 -0.570509 1.94297 0
M  V30 6210 C 588.381 -1.68286 0.97519 0
M  V30 6211 O 587.636 -1.95699 -0.00548655 0
M  V30 6212 C 587.935 -1.16692 3.37813 0
M  V30 6213 C 587.601 -0.178509 4.50547 0
M  V30 6214 C 586.263 0.0933475 4.81109 0
M  V30 6215 C 588.615 0.496472 5.1883 0
M  V30 6216 C 585.943 1.0469 5.77284 0
M  V30 6217 C 588.295 1.43849 6.16028 0
M  V30 6218 C 586.959 1.71859 6.44997 0
M  V30 6219 H 586.229 -0.208764 0.710984 0
M  V30 6220 H 588.876 0.169066 1.90752 0
M  V30 6221 H 587.181 -1.98271 3.37929 0
M  V30 6222 H 588.878 -1.6884 3.63722 0
M  V30 6223 H 585.468 -0.400584 4.26724 0
M  V30 6224 H 589.652 0.299584 4.95395 0
M  V30 6225 H 584.908 1.27094 5.98044 0
M  V30 6226 H 589.082 1.96734 6.68034 0
M  V30 6227 H 586.709 2.45906 7.19329 0
M  V30 6228 N 588.284 -1.56567 -0.180126 0
M  V30 6229 C 589.214 -1.98753 -1.22553 0
M  V30 6230 C 590.195 -0.86175 -1.46656 0
M  V30 6231 O 591.38 -1.12719 -1.58139 0
M  V30 6232 C 588.51 -2.33988 -2.56645 0
M  V30 6233 C 587.464 -3.49445 -2.47128 0
M  V30 6234 C 586.79 -3.70397 -3.8563 0
M  V30 6235 C 588.09 -4.83171 -1.98352 0
M  V30 6236 H 589.784 -2.86332 -0.874896 0
M  V30 6237 H 587.33 -1.37757 -0.419414 0
M  V30 6238 H 589.283 -2.62097 -3.29974 0
M  V30 6239 H 588.007 -1.43309 -2.93479 0
M  V30 6240 H 586.666 -3.2145 -1.76254 0
M  V30 6241 H 586.314 -2.77023 -4.19842 0
M  V30 6242 H 586.014 -4.48077 -3.80132 0
M  V30 6243 H 587.538 -4.00897 -4.60558 0
M  V30 6244 H 588.952 -5.10213 -2.61449 0
M  V30 6245 H 587.349 -5.64425 -2.03823 0
M  V30 6246 H 588.419 -4.75753 -0.937402 0
M  V30 6247 N 589.762 0.448376 -1.51087 0
M  V30 6248 C 591.01 1.19635 -1.62886 0
M  V30 6249 C 591.331 1.91977 -0.342024 0
M  V30 6250 O 590.601 1.85094 0.641636 0
M  V30 6251 H 589.181 0.444598 -0.600285 0
M  V30 6252 H 591.843 0.515138 -1.87969 0
M  V30 6253 H 590.939 1.93194 -2.45117 0
M  V30 6254 N 591.24 1.41047 0.703093 0
M  V30 6255 C 592.656 1.23351 1.01275 0
M  V30 6256 C 592.856 0.11754 2.01157 0
M  V30 6257 O 591.912 -0.520518 2.47077 0
M  V30 6258 C 593.225 2.58001 1.54454 0
M  V30 6259 C 594.773 2.65119 1.66376 0
M  V30 6260 C 595.248 4.00067 2.22958 0
M  V30 6261 N 596.739 4.01875 2.30328 0
M  V30 6262 C 597.474 5.03087 2.75119 0
M  V30 6263 N 596.97 6.14692 3.19571 0
M  V30 6264 N 598.763 4.90451 2.74616 0
M  V30 6265 H 590.914 2.1236 0.0412686 0
M  V30 6266 H 593.177 0.944543 0.08089 0
M  V30 6267 H 592.883 3.40378 0.88521 0
M  V30 6268 H 592.757 2.79962 2.52786 0
M  V30 6269 H 595.144 1.83106 2.31422 0
M  V30 6270 H 595.225 2.46975 0.666089 0
M  V30 6271 H 594.869 4.82526 1.58529 0
M  V30 6272 H 594.799 4.15547 3.23462 0
M  V30 6273 H 597.29 3.21291 1.98949 0
M  V30 6274 H 597.603 6.87799 3.52352 0
M  V30 6275 H 595.948 6.18239 3.17498 0
M  V30 6276 H 599.139 4.0235 2.39233 0
M  V30 6277 H 599.312 5.6947 3.09206 0
M  V30 6278 N 592.718 -0.936591 1.26751 0
M  V30 6279 C 594.134 -1.21095 1.03963 0
M  V30 6280 C 594.334 -2.00156 -0.232372 0
M  V30 6281 O 593.39 -2.3434 -0.940274 0
M  V30 6282 C 594.703 -1.96775 2.27377 0
M  V30 6283 C 596.251 -2.09749 2.32324 0
M  V30 6284 C 596.726 -2.88832 3.55443 0
M  V30 6285 N 598.217 -2.96404 3.55948 0
M  V30 6286 C 598.952 -3.58036 4.47881 0
M  V30 6287 N 598.448 -4.21132 5.50109 0
M  V30 6288 N 600.241 -3.55353 4.35523 0
M  V30 6289 H 592.392 -0.408173 2.08441 0
M  V30 6290 H 594.655 -0.243139 0.91629 0
M  V30 6291 H 594.361 -1.46094 3.19921 0
M  V30 6292 H 594.235 -2.97424 2.31989 0
M  V30 6293 H 596.622 -2.5962 1.40291 0
M  V30 6294 H 596.703 -1.08347 2.31721 0
M  V30 6295 H 596.347 -2.39647 4.47808 0
M  V30 6296 H 596.277 -3.90499 3.53296 0
M  V30 6297 H 598.768 -2.51552 2.82011 0
M  V30 6298 H 599.081 -4.66071 6.16439 0
M  V30 6299 H 597.426 -4.19705 5.53961 0
M  V30 6300 H 600.617 -3.05256 3.54875 0
M  V30 6301 H 600.79 -4.03097 5.07363 0
M  V30 6302 N 594.196 -1.08629 -1.14182 0
M  V30 6303 C 595.424 -0.838889 -1.8913 0
M  V30 6304 C 595.839 0.609153 -1.78703 0
M  V30 6305 O 595.196 1.41876 -1.14794 0
M  V30 6306 C 595.247 -1.25477 -3.39025 0
M  V30 6307 O 594.968 -2.64601 -3.49167 0
M  V30 6308 C 596.469 -1.03856 -4.30963 0
M  V30 6309 H 593.689 -0.302377 -0.599007 0
M  V30 6310 H 596.233 -1.44615 -1.44592 0
M  V30 6311 H 594.388 -0.691571 -3.81177 0
M  V30 6312 H 594.802 -2.81922 -4.42289 0
M  V30 6313 H 596.276 -1.37892 -5.345 0
M  V30 6314 H 596.753 0.0242522 -4.39193 0
M  V30 6315 H 597.359 -1.58731 -3.94569 0
M  V30 6316 N 595.674 1.31259 -0.872281 0
M  V30 6317 C 596.923 1.95893 -0.480493 0
M  V30 6318 C 597.236 1.697 0.972688 0
M  V30 6319 O 598.442 2.28214 1.47073 0
M  V30 6320 C 596.898 3.50705 -0.808342 0
M  V30 6321 C 596.506 3.85735 -2.27844 0
M  V30 6322 C 598.25 4.21719 -0.485136 0
M  V30 6323 C 596.157 5.33668 -2.54858 0
M  V30 6324 H 595.087 0.733182 -0.175955 0
M  V30 6325 H 597.738 1.49396 -1.0655 0
M  V30 6326 H 596.12 3.95706 -0.152558 0
M  V30 6327 H 597.294 3.51686 -2.97748 0
M  V30 6328 H 595.609 3.27792 -2.56791 0
M  V30 6329 H 598.206 5.30559 -0.664166 0
M  V30 6330 H 598.549 4.12316 0.574592 0
M  V30 6331 H 599.082 3.82359 -1.09756 0
M  V30 6332 H 595.821 5.48109 -3.59523 0
M  V30 6333 H 595.341 5.69061 -1.8955 0
M  V30 6334 H 597.02 6.00958 -2.39706 0
M  V30 6335 N 597.152 0.631951 1.44375 0
M  V30 6336 C 598.084 -0.110911 2.28931 0
M  V30 6337 C 599.097 -0.808086 1.41329 0
M  V30 6338 O 600.286 -0.669396 1.65473 0
M  V30 6339 C 597.386 -1.17928 3.1772 0
M  V30 6340 C 596.559 -0.564458 4.33743 0
M  V30 6341 C 595.618 -1.5269 5.0356 0
M  V30 6342 O 594.644 -1.04372 5.59549 0
M  V30 6343 N 595.846 -2.86123 5.05088 0
M  V30 6344 H 598.611 0.614758 2.93327 0
M  V30 6345 H 596.172 0.473171 1.54831 0
M  V30 6346 H 598.164 -1.82348 3.61291 0
M  V30 6347 H 596.734 -1.80717 2.55069 0
M  V30 6348 H 595.954 0.258373 3.93352 0
M  V30 6349 H 597.242 -0.134355 5.08623 0
M  V30 6350 H 596.64 -3.27959 4.60933 0
M  V30 6351 H 595.197 -3.45901 5.52445 0
M  V30 6352 N 598.631 -1.53133 0.372548 0
M  V30 6353 C 599.594 -2.24569 -0.458389 0
M  V30 6354 C 600.594 -1.25603 -1.00402 0
M  V30 6355 O 601.784 -1.49827 -0.888672 0
M  V30 6356 C 598.916 -2.98783 -1.6414 0
M  V30 6357 H 600.109 -2.99436 0.166799 0
M  V30 6358 H 597.662 -1.55805 0.124357 0
M  V30 6359 H 598.397 -2.28176 -2.30448 0
M  V30 6360 H 598.182 -3.71404 -1.25704 0
M  V30 6361 H 599.672 -3.53068 -2.23008 0
M  V30 6362 N 600.109 -0.101901 -1.5727 0
M  V30 6363 C 601.357 0.559091 -1.94213 0
M  V30 6364 C 601.678 1.68297 -0.984948 0
M  V30 6365 O 600.948 1.95863 -0.0381975 0
M  V30 6366 H 599.528 0.20952 -0.717015 0
M  V30 6367 H 602.19 -0.166831 -1.94185 0
M  V30 6368 H 601.286 0.96485 -2.96811 0
M  V30 6369 N 601.587 1.56661 0.17182 0
M  V30 6370 C 602.812 1.86459 0.908165 0
M  V30 6371 C 603.237 0.688181 1.75059 0
M  V30 6372 O 602.595 -0.362753 1.77634 0
M  V30 6373 C 602.643 3.14669 1.76112 0
M  V30 6374 O 601.747 2.96858 2.86268 0
M  V30 6375 H 601.088 0.613318 0.254434 0
M  V30 6376 H 603.618 2.03892 0.170113 0
M  V30 6377 H 603.628 3.46061 2.16115 0
M  V30 6378 H 602.303 3.99905 1.14233 0
M  V30 6379 H 600.88 2.76819 2.49852 0
M  V30 6380 N 603.065 -0.440357 1.51323 0
M  V30 6381 C 603.997 -1.55254 1.68609 0
M  V30 6382 C 605.01 -1.52614 0.566812 0
M  V30 6383 O 606.199 -1.57445 0.841032 0
M  V30 6384 C 603.299 -2.94169 1.68279 0
M  V30 6385 C 602.472 -3.21346 2.96742 0
M  V30 6386 C 601.531 -4.3997 2.8864 0
M  V30 6387 O 600.557 -4.38771 3.62586 0
M  V30 6388 N 601.759 -5.43367 2.04285 0
M  V30 6389 H 604.524 -1.40831 2.6455 0
M  V30 6390 H 602.085 -0.629251 1.49171 0
M  V30 6391 H 604.077 -3.71543 1.60431 0
M  V30 6392 H 602.647 -3.02205 0.799441 0
M  V30 6393 H 601.867 -2.32299 3.18482 0
M  V30 6394 H 603.155 -3.3633 3.81785 0
M  V30 6395 H 602.553 -5.47176 1.43578 0
M  V30 6396 H 601.11 -6.19605 2.02318 0
M  V30 6397 N 604.543 -1.41418 -0.695603 0
M  V30 6398 C 605.506 -1.42988 -1.79129 0
M  V30 6399 C 606.506 -0.320514 -1.57573 0
M  V30 6400 O 607.696 -0.58039 -1.64247 0
M  V30 6401 C 604.828 -1.24122 -3.175 0
M  V30 6402 H 606.021 -2.40526 -1.7913 0
M  V30 6403 H 603.574 -1.2756 -0.903225 0
M  V30 6404 H 604.309 -0.274253 -3.23138 0
M  V30 6405 H 604.094 -2.045 -3.34547 0
M  V30 6406 H 605.584 -1.28056 -3.97481 0
M  V30 6407 N 606.021 0.929856 -1.27246 0
M  V30 6408 C 606.954 2.03069 -1.04106 0
M  V30 6409 C 607.932 1.62556 0.0378417 0
M  V30 6410 O 609.116 1.88197 -0.106869 0
M  V30 6411 C 606.243 3.33718 -0.578778 0
M  V30 6412 C 605.289 3.93209 -1.65193 0
M  V30 6413 S 606.122 4.26068 -3.24386 0
M  V30 6414 C 607.278 5.598 -2.79954 0
M  V30 6415 H 607.511 2.22386 -1.97311 0
M  V30 6416 H 605.044 1.07269 -1.11053 0
M  V30 6417 H 607.002 4.09261 -0.31874 0
M  V30 6418 H 605.663 3.12328 0.333182 0
M  V30 6419 H 604.856 4.87482 -1.27973 0
M  V30 6420 H 604.458 3.24243 -1.86393 0
M  V30 6421 H 606.75 6.39004 -2.25123 0
M  V30 6422 H 607.693 6.01917 -3.72963 0
M  V30 6423 H 608.101 5.20219 -2.19164 0
M  V30 6424 N 607.499 1.09233 1.13605 0
M  V30 6425 C 608.462 0.733553 2.17144 0
M  V30 6426 C 609.462 -0.235873 1.59061 0
M  V30 6427 O 610.652 -0.0143167 1.74194 0
M  V30 6428 C 607.784 0.084471 3.40795 0
M  V30 6429 H 608.977 1.65049 2.50397 0
M  V30 6430 H 606.53 0.891264 1.28399 0
M  V30 6431 H 607.265 -0.843795 3.1313 0
M  V30 6432 H 607.05 0.781985 3.84223 0
M  V30 6433 H 608.54 -0.151216 4.17326 0
M  V30 6434 N 608.977 -1.30795 0.87923 0
M  V30 6435 C 610.225 -1.95974 0.493809 0
M  V30 6436 C 610.546 -1.69787 -0.959021 0
M  V30 6437 O 609.816 -1.01832 -1.67353 0
M  V30 6438 H 608.396 -0.725083 0.179622 0
M  V30 6439 H 611.058 -1.59432 1.12105 0
M  V30 6440 H 610.154 -3.05058 0.659263 0
M  V30 6441 N 610.455 -0.639598 -1.44038 0
M  V30 6442 C 611.385 0.0469443 -2.33453 0
M  V30 6443 C 612.366 0.82609 -1.48694 0
M  V30 6444 O 613.551 0.790285 -1.77393 0
M  V30 6445 C 610.681 1.02338 -3.3188 0
M  V30 6446 C 609.635 0.355284 -4.26523 0
M  V30 6447 C 608.961 1.44221 -5.14883 0
M  V30 6448 C 610.261 -0.743798 -5.16977 0
M  V30 6449 H 611.955 -0.699735 -2.91108 0
M  V30 6450 H 609.501 -0.337946 -1.39978 0
M  V30 6451 H 611.454 1.51247 -3.93322 0
M  V30 6452 H 610.178 1.80105 -2.72451 0
M  V30 6453 H 608.837 -0.113239 -3.66425 0
M  V30 6454 H 608.485 2.21097 -4.51802 0
M  V30 6455 H 608.185 1.00052 -5.79019 0
M  V30 6456 H 609.709 1.93295 -5.79197 0
M  V30 6457 H 611.123 -0.337444 -5.72306 0
M  V30 6458 H 609.52 -1.10914 -5.89761 0
M  V30 6459 H 610.59 -1.60745 -4.57481 0
M  V30 6460 N 611.933 1.52934 -0.380664 0
M  V30 6461 C 612.896 2.24809 0.446473 0
M  V30 6462 C 613.896 1.26133 0.997347 0
M  V30 6463 O 615.086 1.50297 0.880714 0
M  V30 6464 C 612.218 2.99649 1.62553 0
M  V30 6465 H 613.411 2.99343 -0.182677 0
M  V30 6466 H 610.964 1.55736 -0.132618 0
M  V30 6467 H 611.699 2.29395 2.29235 0
M  V30 6468 H 611.484 3.72066 1.23732 0
M  V30 6469 H 612.974 3.54246 2.21133 0
M  V30 6470 N 613.412 0.11024 1.57214 0
M  V30 6471 C 614.661 -0.549638 1.94067 0
M  V30 6472 C 614.974 -1.68388 0.995234 0
M  V30 6473 O 616.18 -2.40593 1.25807 0
M  V30 6474 C 614.636 -1.02912 3.44873 0
M  V30 6475 C 614.244 0.0761861 4.47935 0
M  V30 6476 C 615.988 -1.66087 3.9066 0
M  V30 6477 C 613.895 -0.419502 5.8991 0
M  V30 6478 H 612.825 -0.209092 0.724428 0
M  V30 6479 H 615.476 0.188683 1.82527 0
M  V30 6480 H 613.858 -1.82159 3.51616 0
M  V30 6481 H 615.032 0.852185 4.52851 0
M  V30 6482 H 613.347 0.614052 4.11847 0
M  V30 6483 H 615.944 -2.04272 4.94143 0
M  V30 6484 H 616.287 -2.53591 3.30148 0
M  V30 6485 H 616.82 -0.933959 3.86681 0
M  V30 6486 H 613.559 0.419277 6.54158 0
M  V30 6487 H 613.079 -1.16217 5.88433 0
M  V30 6488 H 614.758 -0.883577 6.40938 0
M  V30 6489 N 614.89 -1.56749 -0.16351 0
M  V30 6490 C 615.82 -2.00042 -1.20438 0
M  V30 6491 C 616.801 -0.877256 -1.45733 0
M  V30 6492 O 617.986 -1.1439 -1.56935 0
M  V30 6493 C 615.116 -2.36697 -2.54149 0
M  V30 6494 C 614.07 -3.52046 -2.43408 0
M  V30 6495 C 613.396 -3.74466 -3.81679 0
M  V30 6496 C 614.696 -4.85247 -1.93216 0
M  V30 6497 H 616.39 -2.87244 -0.844477 0
M  V30 6498 H 613.936 -1.38194 -0.40478 0
M  V30 6499 H 615.889 -2.65582 -3.27176 0
M  V30 6500 H 614.613 -1.46414 -2.91943 0
M  V30 6501 H 613.272 -3.23301 -1.72834 0
M  V30 6502 H 612.92 -2.81461 -4.1688 0
M  V30 6503 H 612.62 -4.52084 -3.75359 0
M  V30 6504 H 614.144 -4.0576 -4.5628 0
M  V30 6505 H 615.558 -5.12957 -2.56023 0
M  V30 6506 H 613.955 -5.66556 -1.97825 0
M  V30 6507 H 615.025 -4.7672 -0.88689 0
M  V30 6508 N 616.368 0.432326 -1.51554 0
M  V30 6509 C 617.331 1.50765 -1.72634 0
M  V30 6510 C 618.331 1.49334 -0.596314 0
M  V30 6511 O 619.521 1.51268 -0.863925 0
M  V30 6512 C 616.653 2.90284 -1.7874 0
M  V30 6513 H 617.846 1.33377 -2.68609 0
M  V30 6514 H 615.399 0.661329 -1.4162 0
M  V30 6515 H 616.134 3.13071 -0.845977 0
M  V30 6516 H 615.919 2.92727 -2.6087 0
M  V30 6517 H 617.409 3.68282 -1.96871 0
M  V30 6518 N 617.846 1.41785 0.688094 0
M  V30 6519 C 618.794 1.44436 1.82321 0
M  V30 6520 C 619.788 0.321544 1.6632 0
M  V30 6521 O 620.994 0.493931 1.73091 0
M  V30 6522 H 617.369 0.452084 0.600936 0
M  V30 6523 H 619.34 2.40087 1.77202 0
M  V30 6524 C 618.089 1.35071 3.20392 0
M  V30 6525 H 617.412 2.2076 3.33324 0
M  V30 6526 H 618.852 1.40988 3.99873 0
M  V30 6527 C 617.311 0.0639127 3.36839 0
M  V30 6528 O 617.841 -0.888495 3.91751 0
M  V30 6529 N 616.047 -0.0146114 2.90596 0
M  V30 6530 H 615.594 0.761191 2.46097 0
M  V30 6531 H 615.552 -0.874988 3.01979 0
M  V30 6532 N 619.324 -0.923095 1.27737 0
M  V30 6533 C 620.257 -2.02515 1.05181 0
M  V30 6534 C 621.235 -1.62574 -0.0292204 0
M  V30 6535 O 622.419 -1.88137 0.116848 0
M  V30 6536 C 619.546 -3.33407 0.596468 0
M  V30 6537 C 618.592 -3.92328 1.67276 0
M  V30 6538 S 619.425 -4.24342 3.26641 0
M  V30 6539 C 620.581 -5.58308 2.82919 0
M  V30 6540 H 620.814 -2.21336 1.98488 0
M  V30 6541 H 618.347 -1.06679 1.1162 0
M  V30 6542 H 620.305 -4.09086 0.34044 0
M  V30 6543 H 618.966 -3.125 -0.316614 0
M  V30 6544 H 618.159 -4.86797 1.30556 0
M  V30 6545 H 617.761 -3.2325 1.8811 0
M  V30 6546 H 620.053 -6.37801 2.28509 0
M  V30 6547 H 620.996 -5.99931 3.7615 0
M  V30 6548 H 621.404 -5.19049 2.21919 0
M  V30 6549 N 620.802 -1.09834 -1.13024 0
M  V30 6550 C 621.732 -0.763451 -2.20666 0
M  V30 6551 C 622.713 0.260778 -1.68089 0
M  V30 6552 O 623.898 0.127915 -1.93778 0
M  V30 6553 C 621.028 -0.187744 -3.46792 0
M  V30 6554 C 619.982 -1.14196 -4.12484 0
M  V30 6555 C 619.308 -0.427755 -5.32986 0
M  V30 6556 C 620.608 -2.48607 -4.59338 0
M  V30 6557 H 622.302 -1.66347 -2.48936 0
M  V30 6558 H 619.848 -0.801261 -1.19649 0
M  V30 6559 H 621.801 0.0586375 -4.21359 0
M  V30 6560 H 620.525 0.747485 -3.17931 0
M  V30 6561 H 619.184 -1.37369 -3.3989 0
M  V30 6562 H 618.832 0.511747 -5.0039 0
M  V30 6563 H 618.532 -1.06403 -5.77886 0
M  V30 6564 H 620.056 -0.189772 -6.10305 0
M  V30 6565 H 621.47 -2.29618 -5.25308 0
M  V30 6566 H 619.867 -3.08062 -5.14993 0
M  V30 6567 H 620.937 -3.09062 -3.73642 0
M  V30 6568 N 622.28 1.30327 -0.886154 0
M  V30 6569 C 623.526 1.96388 -0.505941 0
M  V30 6570 C 623.859 1.69784 0.942712 0
M  V30 6571 O 623.134 1.00322 1.6663 0
M  V30 6572 C 623.417 3.51488 -0.782826 0
M  V30 6573 C 623.27 3.87603 -2.28219 0
M  V30 6574 C 624.589 4.39331 -0.260128 0
M  V30 6575 H 621.708 0.713327 -0.185292 0
M  V30 6576 H 624.35 1.54178 -1.11036 0
M  V30 6577 H 622.5 3.87572 -0.268399 0
M  V30 6578 H 624.172 3.61537 -2.86512 0
M  V30 6579 H 622.415 3.3563 -2.74837 0
M  V30 6580 H 623.086 4.95806 -2.42653 0
M  V30 6581 H 625.562 4.10162 -0.700444 0
M  V30 6582 H 624.438 5.46769 -0.483179 0
M  V30 6583 H 624.699 4.34072 0.838674 0
M  V30 6584 N 623.758 0.647228 1.43697 0
M  V30 6585 C 625.169 0.238689 1.85168 0
M  V30 6586 C 625.52 -1.21345 1.54175 0
M  V30 6587 O 624.645 -1.92542 0.987743 0
M  V30 6588 C 625.24 0.426422 3.36106 0
M  V30 6589 C 623.799 0.0722541 3.76331 0
M  V30 6590 C 622.946 0.732153 2.6746 0
M  V30 6591 H 625.897 0.851309 1.33934 0
M  V30 6592 H 625.918 -0.32987 3.79067 0
M  V30 6593 H 625.43 1.48339 3.58632 0
M  V30 6594 H 623.531 -0.982355 3.59417 0
M  V30 6595 H 623.644 0.493541 4.76551 0
M  V30 6596 H 622.008 0.16594 2.54159 0
M  V30 6597 H 622.791 1.79204 2.92816 0
M  V30 6598 N 625.236 -1.5273 0.388769 0
M  V30 6599 C 626.168 -2.24081 -0.481704 0
M  V30 6600 C 627.181 -1.26307 -1.02715 0
M  V30 6601 O 628.37 -1.52386 -0.929565 0
M  V30 6602 C 625.47 -2.94315 -1.68024 0
M  V30 6603 C 624.643 -4.18791 -1.26226 0
M  V30 6604 C 623.702 -4.72028 -2.32542 0
M  V30 6605 O 622.728 -5.35129 -1.93972 0
M  V30 6606 N 623.93 -4.51838 -3.64448 0
M  V30 6607 H 626.695 -2.9942 0.129591 0
M  V30 6608 H 624.256 -1.60465 0.2151 0
M  V30 6609 H 626.248 -3.26831 -2.38671 0
M  V30 6610 H 624.818 -2.22287 -2.19789 0
M  V30 6611 H 624.038 -3.92318 -0.384703 0
M  V30 6612 H 625.326 -4.99668 -0.959647 0
M  V30 6613 H 624.724 -4.01468 -3.98547 0
M  V30 6614 H 623.281 -4.88845 -4.31131 0
M  V30 6615 N 626.714 -0.118576 -1.57153 0
M  V30 6616 C 627.991 0.583062 -1.86708 0
M  V30 6617 C 628.371 1.84841 -1.01967 0
M  V30 6618 O 627.719 2.28288 -0.0984673 0
M  V30 6619 C 627.929 0.875912 -3.3783 0
M  V30 6620 C 629.277 1.22916 -4.0642 0
M  V30 6621 O 630.301 0.966188 -3.42846 0
M  V30 6622 O 629.16 1.72269 -5.18638 0
M  V30 6623 H 626.254 0.294185 -0.772906 0
M  V30 6624 H 628.8 -0.153048 -1.69008 0
M  V30 6625 H 627.572 -0.0207776 -3.91294 0
M  V30 6626 H 627.195 1.66719 -3.60958 0
M  V30 6627 N 628.193 1.56834 0.155195 0
M  V30 6628 C 629.123 2.00678 1.19376 0
M  V30 6629 C 630.104 0.884973 1.45266 0
M  V30 6630 O 631.289 1.1522 1.56326 0
M  V30 6631 C 628.419 2.38042 2.5289 0
M  V30 6632 C 627.373 3.53332 2.41538 0
M  V30 6633 C 626.699 3.76485 3.79688 0
M  V30 6634 C 627.999 4.86265 1.9064 0
M  V30 6635 H 629.693 2.87688 0.829232 0
M  V30 6636 H 627.239 1.38407 0.397445 0
M  V30 6637 H 629.192 2.67314 3.25763 0
M  V30 6638 H 627.916 1.4796 2.91162 0
M  V30 6639 H 626.575 3.24213 1.71117 0
M  V30 6640 H 626.223 2.83667 4.15382 0
M  V30 6641 H 625.923 4.54068 3.72956 0
M  V30 6642 H 627.447 4.08174 4.54122 0
M  V30 6643 H 628.861 5.14308 2.53299 0
M  V30 6644 H 627.258 5.67597 1.94818 0
M  V30 6645 H 628.328 4.77184 0.861596 0
M  V30 6646 N 629.671 -0.424282 1.51781 0
M  V30 6647 C 630.603 -1.53457 1.70246 0
M  V30 6648 C 631.616 -1.52004 0.582967 0
M  V30 6649 O 632.805 -1.56544 0.857683 0
M  V30 6650 C 629.905 -2.92368 1.71389 0
M  V30 6651 C 629.078 -3.1818 3.00133 0
M  V30 6652 C 628.137 -4.36884 2.9329 0
M  V30 6653 O 627.163 -4.34901 3.67219 0
M  V30 6654 N 628.365 -5.4117 2.10036 0
M  V30 6655 H 631.13 -1.38017 2.66029 0
M  V30 6656 H 628.691 -0.613394 1.4983 0
M  V30 6657 H 630.683 -3.6982 1.64362 0
M  V30 6658 H 629.253 -3.0134 0.831449 0
M  V30 6659 H 628.473 -2.28908 3.20928 0
M  V30 6660 H 629.761 -3.32261 3.85331 0
M  V30 6661 H 629.159 -5.45623 1.49373 0
M  V30 6662 H 627.716 -6.17425 2.08878 0
M  V30 6663 N 631.149 -1.42148 -0.680565 0
M  V30 6664 C 632.377 -1.45696 -1.46902 0
M  V30 6665 C 632.792 -0.0665858 -1.88683 0
M  V30 6666 O 632.149 0.917436 -1.57764 0
M  V30 6667 C 632.2 -2.37898 -2.72188 0
M  V30 6668 O 631.921 -3.71526 -2.32163 0
M  V30 6669 C 633.422 -2.50407 -3.65802 0
M  V30 6670 H 630.642 -0.495729 -0.45221 0
M  V30 6671 H 633.186 -1.866 -0.836709 0
M  V30 6672 H 631.341 -2.00263 -3.31622 0
M  V30 6673 H 631.755 -4.20849 -3.13027 0
M  V30 6674 H 633.229 -3.19056 -4.50452 0
M  V30 6675 H 633.706 -1.5401 -4.11312 0
M  V30 6676 H 634.312 -2.8874 -3.12265 0
M  V30 6677 N 632.627 0.916307 -1.28225 0
M  V30 6678 C 633.557 2.0352 -1.14464 0
M  V30 6679 C 634.538 1.70045 -0.0430844 0
M  V30 6680 O 635.723 1.92954 -0.219619 0
M  V30 6681 C 632.853 3.37889 -0.803027 0
M  V30 6682 C 631.807 3.85516 -1.85908 0
M  V30 6683 C 631.133 5.1682 -1.37116 0
M  V30 6684 C 632.433 4.07655 -3.26519 0
M  V30 6685 H 634.127 2.1529 -2.08064 0
M  V30 6686 H 631.673 1.03446 -1.00174 0
M  V30 6687 H 633.626 4.15654 -0.693537 0
M  V30 6688 H 632.35 3.26164 0.168674 0
M  V30 6689 H 631.009 3.09953 -1.95767 0
M  V30 6690 H 630.657 5.01497 -0.38859 0
M  V30 6691 H 630.357 5.49657 -2.07728 0
M  V30 6692 H 631.881 5.97143 -1.27484 0
M  V30 6693 H 633.295 4.75953 -3.19596 0
M  V30 6694 H 631.692 4.51818 -3.94943 0
M  V30 6695 H 632.762 3.12553 -3.70727 0
M  V30 6696 N 634.105 1.10431 1.1244 0
M  V30 6697 C 635.521 0.836096 1.35947 0
M  V30 6698 C 635.721 -0.544475 1.94004 0
M  V30 6699 O 634.777 -1.29735 2.16622 0
M  V30 6700 C 636.09 1.93575 2.30107 0
M  V30 6701 C 637.638 1.9642 2.43697 0
M  V30 6702 C 638.113 3.05559 3.41171 0
M  V30 6703 N 639.604 3.04865 3.48728 0
M  V30 6704 C 640.339 3.85954 4.24061 0
M  V30 6705 N 639.835 4.76977 5.02458 0
M  V30 6706 N 641.628 3.74172 4.19466 0
M  V30 6707 H 633.779 1.9942 0.731124 0
M  V30 6708 H 636.042 0.866607 0.384312 0
M  V30 6709 H 635.748 2.92943 1.94621 0
M  V30 6710 H 635.622 1.8229 3.30227 0
M  V30 6711 H 638.009 0.97685 2.78463 0
M  V30 6712 H 638.09 2.11782 1.43465 0
M  V30 6713 H 637.734 4.04513 3.07135 0
M  V30 6714 H 637.664 2.87438 4.41234 0
M  V30 6715 H 640.155 2.38908 2.92799 0
M  V30 6716 H 640.468 5.35409 5.57277 0
M  V30 6717 H 638.813 4.81006 5.01655 0
M  V30 6718 H 642.004 3.02412 3.57302 0
M  V30 6719 H 642.177 4.37602 4.77921 0
M  V30 6720 N 635.583 -1.29855 0.893053 0
M  V30 6721 C 636.829 -1.96116 0.516349 0
M  V30 6722 C 637.162 -1.70281 -0.933695 0
M  V30 6723 O 636.437 -1.01205 -1.66096 0
M  V30 6724 C 636.72 -3.51068 0.801455 0
M  V30 6725 C 636.573 -3.86387 2.30272 0
M  V30 6726 C 637.892 -4.39186 0.283423 0
M  V30 6727 H 635.011 -0.712335 0.189072 0
M  V30 6728 H 637.653 -1.53587 1.11852 0
M  V30 6729 H 635.803 -3.87424 0.288949 0
M  V30 6730 H 637.475 -3.60012 2.88425 0
M  V30 6731 H 635.718 -3.34167 2.76613 0
M  V30 6732 H 636.389 -4.94512 2.45279 0
M  V30 6733 H 638.865 -4.09785 0.722187 0
M  V30 6734 H 637.741 -5.46505 0.512169 0
M  V30 6735 H 638.002 -4.34511 -0.815643 0
M  V30 6736 N 637.061 -0.65484 -1.43351 0
M  V30 6737 C 638.307 -0.169142 -2.02093 0
M  V30 6738 C 638.64 1.21431 -1.51553 0
M  V30 6739 O 637.915 1.81105 -0.709317 0
M  V30 6740 C 638.198 -0.181775 -3.59641 0
M  V30 6741 C 638.051 -1.59926 -4.20409 0
M  V30 6742 C 639.37 0.480945 -4.37464 0
M  V30 6743 H 636.489 -0.0629371 -0.734308 0
M  V30 6744 H 639.131 -0.835833 -1.70628 0
M  V30 6745 H 637.281 0.385918 -3.86578 0
M  V30 6746 H 638.953 -2.21766 -4.04497 0
M  V30 6747 H 637.196 -2.14605 -3.76998 0
M  V30 6748 H 637.867 -1.55994 -5.295 0
M  V30 6749 H 640.343 -0.00208273 -4.161 0
M  V30 6750 H 639.219 0.441384 -5.47122 0
M  V30 6751 H 639.48 1.55533 -4.13838 0
M  V30 6752 N 638.539 1.52521 -0.396863 0
M  V30 6753 C 639.786 2.01672 0.182898 0
M  V30 6754 C 640.114 1.28302 1.46181 0
M  V30 6755 O 639.369 0.374118 1.92091 0
M  V30 6756 C 639.668 3.5403 0.489677 0
M  V30 6757 C 639.334 4.45456 -0.698581 0
M  V30 6758 C 637.996 4.70166 -1.02454 0
M  V30 6759 C 640.348 4.99354 -1.49316 0
M  V30 6760 C 637.676 5.46024 -2.1465 0
M  V30 6761 C 640.028 5.76439 -2.60579 0
M  V30 6762 C 638.692 5.99426 -2.93675 0
M  V30 6763 H 637.962 0.737971 0.066927 0
M  V30 6764 H 640.609 1.83853 -0.535764 0
M  V30 6765 H 638.914 3.69963 1.28976 0
M  V30 6766 H 640.611 3.8956 0.951018 0
M  V30 6767 H 637.201 4.26392 -0.434525 0
M  V30 6768 H 641.385 4.80182 -1.25457 0
M  V30 6769 H 636.641 5.62046 -2.40654 0
M  V30 6770 H 640.815 6.17202 -3.22544 0
M  V30 6771 H 638.442 6.57988 -3.80731 0
M  V30 6772 N 640.017 0.126909 1.57088 0
M  V30 6773 C 640.98 -0.806097 2.14557 0
M  V30 6774 C 641.98 -1.18918 1.08236 0
M  V30 6775 O 643.17 -1.11339 1.33975 0
M  V30 6776 C 640.302 -2.09116 2.69227 0
M  V30 6777 H 641.495 -0.306522 2.98329 0
M  V30 6778 H 639.048 -0.122393 1.5582 0
M  V30 6779 H 639.783 -2.63486 1.89065 0
M  V30 6780 H 639.568 -1.82588 3.46993 0
M  V30 6781 H 641.058 -2.75794 3.13572 0
M  V30 6782 N 641.495 -1.56914 -0.146875 0
M  V30 6783 C 642.741 -1.83628 -0.860741 0
M  V30 6784 C 643.074 -0.708528 -1.80813 0
M  V30 6785 O 642.349 0.287838 -1.92358 0
M  V30 6786 C 642.632 -3.20836 -1.63511 0
M  V30 6787 C 642.485 -4.44174 -0.709199 0
M  V30 6788 C 643.804 -3.55268 -2.59756 0
M  V30 6789 H 640.923 -0.667949 -0.311468 0
M  V30 6790 H 643.565 -1.89582 -0.125936 0
M  V30 6791 H 641.715 -3.15891 -2.26153 0
M  V30 6792 H 643.387 -4.61205 -0.0937781 0
M  V30 6793 H 641.63 -4.33796 -0.0187856 0
M  V30 6794 H 642.301 -5.36785 -1.28707 0
M  V30 6795 H 644.777 -3.60824 -2.07232 0
M  V30 6796 H 643.653 -4.52303 -3.10987 0
M  V30 6797 H 643.914 -2.81231 -3.41118 0
M  V30 6798 N 642.974 0.416227 -1.52004 0
M  V30 6799 C 643.904 1.51365 -1.77795 0
M  V30 6800 C 644.885 1.58059 -0.628601 0
M  V30 6801 O 646.07 1.73447 -0.873478 0
M  V30 6802 C 643.2 2.89256 -1.92219 0
M  V30 6803 C 642.154 2.97415 -3.0778 0
M  V30 6804 C 641.48 4.37492 -3.07417 0
M  V30 6805 C 642.78 2.69551 -4.47369 0
M  V30 6806 H 644.474 1.30033 -2.69688 0
M  V30 6807 H 642.02 0.624112 -1.29772 0
M  V30 6808 H 643.973 3.66008 -2.08845 0
M  V30 6809 H 642.697 3.11866 -0.969917 0
M  V30 6810 H 641.356 2.23107 -2.90893 0
M  V30 6811 H 641.004 4.571 -2.09925 0
M  V30 6812 H 640.704 4.43877 -3.85029 0
M  V30 6813 H 642.228 5.16188 -3.26162 0
M  V30 6814 H 643.642 3.36028 -4.64497 0
M  V30 6815 H 642.039 2.87321 -5.26846 0
M  V30 6816 H 643.109 1.65029 -4.55953 0
M  V30 6817 N 644.452 1.42507 0.673017 0
M  V30 6818 C 645.7 1.42789 1.43023 0
M  V30 6819 C 646.021 0.0459738 1.94946 0
M  V30 6820 O 645.291 -0.915765 1.73178 0
M  V30 6821 H 643.871 0.525657 0.530748 0
M  V30 6822 H 646.533 1.77944 0.795113 0
M  V30 6823 H 645.629 2.12872 2.28237 0
M  V30 6824 N 645.93 -0.909495 1.28709 0
M  V30 6825 C 646.877 -2.01245 1.13 0
M  V30 6826 C 647.847 -1.6608 0.0259684 0
M  V30 6827 O 649.032 -1.89835 0.191687 0
M  V30 6828 C 646.172 -3.35644 0.802315 0
M  V30 6829 C 645.285 -3.83653 1.98582 0
M  V30 6830 C 644.42 -5.06582 1.59837 0
M  V30 6831 C 643.459 -5.46934 2.74827 0
M  V30 6832 N 642.596 -6.61053 2.36546 0
M  V30 6833 H 647.436 -2.14013 2.0737 0
M  V30 6834 H 644.973 -1.0482 1.03205 0
M  V30 6835 H 646.931 -4.12963 0.593057 0
M  V30 6836 H 645.561 -3.22631 -0.104457 0
M  V30 6837 H 644.613 -3.02454 2.30708 0
M  V30 6838 H 645.925 -4.09515 2.84779 0
M  V30 6839 H 645.079 -5.91457 1.35143 0
M  V30 6840 H 643.818 -4.82537 0.707753 0
M  V30 6841 H 642.823 -4.60599 3.00215 0
M  V30 6842 H 644.048 -5.72965 3.64538 0
M  V30 6843 H 641.994 -6.3863 1.49959 0
M  V30 6844 H 641.911 -6.86662 3.16277 0
M  V30 6845 H 643.179 -7.49221 2.15146 0
M  V30 6846 N 647.408 -1.11026 -1.11852 0
M  V30 6847 C 648.656 -0.854769 -1.83134 0
M  V30 6848 C 648.977 0.621375 -1.84835 0
M  V30 6849 O 648.247 1.45129 -1.31584 0
M  V30 6850 H 646.827 -0.313229 -0.678157 0
M  V30 6851 H 649.489 -1.40178 -1.35411 0
M  V30 6852 H 648.585 -1.22311 -2.87135 0
M  V30 6853 N 648.886 1.2938 -0.899927 0
M  V30 6854 C 650.126 1.97332 -0.532871 0
M  V30 6855 C 650.49 1.69385 0.904029 0
M  V30 6856 O 651.691 2.30793 1.37797 0
M  V30 6857 C 649.962 3.47927 -0.817393 0
M  V30 6858 S 651.521 4.3528 -0.55468 0
M  V30 6859 H 648.339 0.682966 -0.197683 0
M  V30 6860 H 650.941 1.57189 -1.16241 0
M  V30 6861 H 649.645 3.65761 -1.86138 0
M  V30 6862 H 649.176 3.93006 -0.175978 0
M  V30 6863 H 651.191 4.92557 0.600182 0
M  V30 6864 N 650.364 0.662433 1.43002 0
M  V30 6865 C 651.611 0.179591 2.01702 0
M  V30 6866 C 651.939 -1.20964 1.52309 0
M  V30 6867 O 651.194 -1.82343 0.7106 0
M  V30 6868 C 651.493 0.149363 3.57088 0
M  V30 6869 C 651.159 1.48158 4.25864 0
M  V30 6870 C 649.821 1.84638 4.44367 0
M  V30 6871 C 652.173 2.35953 4.64732 0
M  V30 6872 C 649.501 3.08561 4.99006 0
M  V30 6873 C 651.853 3.59176 5.20745 0
M  V30 6874 C 650.517 3.95841 5.37463 0
M  V30 6875 H 649.787 0.0657172 0.73808 0
M  V30 6876 H 652.434 0.854968 1.71355 0
M  V30 6877 H 650.739 -0.609491 3.8703 0
M  V30 6878 H 652.436 -0.241241 4.00274 0
M  V30 6879 H 649.026 1.18777 4.11813 0
M  V30 6880 H 653.21 2.09058 4.50121 0
M  V30 6881 H 648.466 3.37005 5.10135 0
M  V30 6882 H 652.64 4.27417 5.49807 0
M  V30 6883 H 650.267 4.91942 5.79566 0
M  V30 6884 N 651.842 -1.52309 0.404946 0
M  V30 6885 C 653.09 -2.01368 -0.17186 0
M  V30 6886 C 653.411 -1.29261 -1.46002 0
M  V30 6887 O 652.681 -0.41729 -1.91404 0
M  V30 6888 H 651.261 -0.744034 -0.0664993 0
M  V30 6889 H 653.923 -1.87263 0.540228 0
M  V30 6890 H 653.019 -3.09888 -0.370957 0
M  V30 6891 N 653.32 -0.135238 -1.57019 0
M  V30 6892 C 654.569 0.518694 -1.94917 0
M  V30 6893 C 654.882 1.66783 -1.0219 0
M  V30 6894 O 656.088 2.38561 -1.29619 0
M  V30 6895 C 654.544 0.974123 -3.46466 0
M  V30 6896 C 654.152 -0.147439 -4.47757 0
M  V30 6897 C 655.896 1.59851 -3.93253 0
M  V30 6898 C 653.803 0.325599 -5.90503 0
M  V30 6899 H 652.733 0.19754 -0.727663 0
M  V30 6900 H 655.384 -0.217698 -1.82204 0
M  V30 6901 H 653.766 1.76542 -3.5447 0
M  V30 6902 H 654.94 -0.924122 -4.51438 0
M  V30 6903 H 653.255 -0.679496 -4.10818 0
M  V30 6904 H 655.852 1.96385 -4.9733 0
M  V30 6905 H 656.195 2.48306 -3.3414 0
M  V30 6906 H 656.728 0.872323 -3.88118 0
M  V30 6907 H 653.467 -0.523295 -6.53408 0
M  V30 6908 H 652.987 1.06841 -5.90208 0
M  V30 6909 H 654.666 0.781498 -6.42263 0
M  V30 6910 N 654.798 1.5699 0.138552 0
M  V30 6911 C 656.023 1.88344 0.86841 0
M  V30 6912 C 656.448 0.725159 1.7356 0
M  V30 6913 O 655.806 -0.324992 1.78363 0
M  V30 6914 C 655.854 3.18334 1.69398 0
M  V30 6915 O 654.958 3.02863 2.79907 0
M  V30 6916 H 654.299 0.618577 0.241367 0
M  V30 6917 H 656.829 2.04207 0.126826 0
M  V30 6918 H 656.839 3.50567 2.08726 0
M  V30 6919 H 655.514 4.02238 1.05725 0
M  V30 6920 H 654.091 2.82056 2.43924 0
M  V30 6921 N 656.276 -0.40816 1.52223 0
M  V30 6922 C 657.206 -1.5042 1.78595 0
M  V30 6923 C 658.187 -1.57723 0.636974 0
M  V30 6924 O 659.372 -1.72982 0.882664 0
M  V30 6925 C 656.502 -2.88232 1.93751 0
M  V30 6926 C 655.456 -2.95779 3.09352 0
M  V30 6927 C 654.782 -4.35855 3.09732 0
M  V30 6928 C 656.082 -2.67175 4.48793 0
M  V30 6929 H 657.776 -1.28601 2.70374 0
M  V30 6930 H 655.322 -0.617221 1.30101 0
M  V30 6931 H 657.275 -3.64895 2.10783 0
M  V30 6932 H 655.999 -3.11347 0.986443 0
M  V30 6933 H 654.658 -2.21561 2.92072 0
M  V30 6934 H 654.306 -4.55981 2.12346 0
M  V30 6935 H 654.006 -4.41829 3.87377 0
M  V30 6936 H 655.53 -5.14451 3.28895 0
M  V30 6937 H 656.944 -3.3356 4.66273 0
M  V30 6938 H 655.341 -2.84523 5.28362 0
M  V30 6939 H 656.411 -1.62609 4.56822 0
M  V30 6940 N 657.755 -1.42862 -0.66545 0
M  V30 6941 C 658.983 -1.47246 -1.45349 0
M  V30 6942 C 659.398 -0.0865944 -1.88601 0
M  V30 6943 O 658.755 0.900652 -1.58728 0
M  V30 6944 C 658.806 -2.40772 -2.6965 0
M  V30 6945 O 658.527 -3.73968 -2.2821 0
M  V30 6946 C 660.028 -2.54272 -3.63126 0
M  V30 6947 H 657.248 -0.500497 -0.446927 0
M  V30 6948 H 659.792 -1.87477 -0.816871 0
M  V30 6949 H 657.947 -2.0377 -3.29479 0
M  V30 6950 H 658.361 -4.24146 -3.08546 0
M  V30 6951 H 659.835 -3.23815 -4.47043 0
M  V30 6952 H 660.312 -1.58364 -4.09656 0
M  V30 6953 H 660.918 -2.92036 -3.09185 0
M  V30 6954 N 659.233 0.902656 -1.29189 0
M  V30 6955 C 660.473 1.6672 -1.18254 0
M  V30 6956 C 660.837 1.90199 0.262336 0
M  V30 6957 O 662.038 2.6421 0.494612 0
M  V30 6958 C 660.309 2.98178 -1.9704 0
M  V30 6959 S 661.868 3.89226 -2.02605 0
M  V30 6960 H 658.686 0.572432 -0.421714 0
M  V30 6961 H 661.288 1.07279 -1.63436 0
M  V30 6962 H 659.992 2.788 -3.01163 0
M  V30 6963 H 659.523 3.62661 -1.5245 0
M  V30 6964 H 661.538 4.82913 -1.14059 0
M  V30 6965 N 660.711 1.11618 1.11262 0
M  V30 6966 C 661.641 0.79846 2.19424 0
M  V30 6967 C 662.622 -0.234003 1.68483 0
M  V30 6968 O 663.807 -0.0970704 1.93957 0
M  V30 6969 C 660.937 0.242892 3.4645 0
M  V30 6970 C 659.891 1.20744 4.10615 0
M  V30 6971 C 659.217 0.512494 5.32238 0
M  V30 6972 C 660.517 2.55884 4.55325 0
M  V30 6973 H 662.211 1.70286 2.46258 0
M  V30 6974 H 659.757 0.820195 1.18359 0
M  V30 6975 H 661.71 0.00840447 4.21399 0
M  V30 6976 H 660.434 -0.696811 3.1908 0
M  V30 6977 H 659.093 1.42759 3.37662 0
M  V30 6978 H 658.741 -0.432075 5.01141 0
M  V30 6979 H 658.441 1.15583 5.7612 0
M  V30 6980 H 659.965 0.286842 6.09926 0
M  V30 6981 H 661.379 2.37946 5.21588 0
M  V30 6982 H 659.776 3.16216 5.10027 0
M  V30 6983 H 660.846 3.14968 3.68678 0
M  V30 6984 N 662.189 -1.289 0.906776 0
M  V30 6985 C 663.417 -1.99401 0.551969 0
M  V30 6986 C 663.832 -1.67816 -0.865048 0
M  V30 6987 O 663.189 -0.927078 -1.57199 0
M  V30 6988 C 663.24 -3.53779 0.743152 0
M  V30 6989 O 662.961 -3.84248 2.1044 0
M  V30 6990 C 664.462 -4.41543 0.39424 0
M  V30 6991 H 661.682 -0.636926 0.211106 0
M  V30 6992 H 664.226 -1.64266 1.21807 0
M  V30 6993 H 662.381 -3.87201 0.124143 0
M  V30 6994 H 662.795 -4.78904 2.13895 0
M  V30 6995 H 664.269 -5.48957 0.578814 0
M  V30 6996 H 664.746 -4.34073 -0.669137 0
M  V30 6997 H 665.352 -4.13605 0.990491 0
M  V30 6998 N 663.667 -0.670007 -1.42649 0
M  V30 6999 C 664.916 -0.187526 -2.00826 0
M  V30 7000 C 665.229 1.21142 -1.53571 0
M  V30 7001 O 666.435 1.79001 -2.04134 0
M  V30 7002 C 664.891 -0.284409 -3.58774 0
M  V30 7003 C 664.499 -1.6871 -4.15019 0
M  V30 7004 C 666.243 0.139605 -4.2427 0
M  V30 7005 C 664.15 -1.73701 -5.65316 0
M  V30 7006 H 663.08 -0.0663468 -0.751075 0
M  V30 7007 H 665.731 -0.834492 -1.63427 0
M  V30 7008 H 664.113 0.430364 -3.93655 0
M  V30 7009 H 665.287 -2.42857 -3.91608 0
M  V30 7010 H 663.602 -2.05855 -3.61957 0
M  V30 7011 H 666.199 0.122398 -5.3456 0
M  V30 7012 H 666.542 1.17403 -3.99402 0
M  V30 7013 H 667.075 -0.523995 -3.94334 0
M  V30 7014 H 663.814 -2.75109 -5.94975 0
M  V30 7015 H 663.334 -1.03903 -5.90732 0
M  V30 7016 H 665.013 -1.48829 -6.2965 0
M  V30 7017 N 665.145 1.52092 -0.413018 0
M  V30 7018 C 666.375 2.05974 0.160648 0
M  V30 7019 C 666.783 1.28267 1.39084 0
M  V30 7020 O 666.126 0.328805 1.80733 0
M  V30 7021 C 666.188 3.54918 0.572169 0
M  V30 7022 C 665.852 4.53705 -0.547826 0
M  V30 7023 C 666.849 5.00342 -1.41259 0
M  V30 7024 C 664.534 4.97089 -0.721627 0
M  V30 7025 C 666.528 5.89011 -2.43607 0
M  V30 7026 C 664.215 5.85554 -1.74841 0
M  V30 7027 C 665.213 6.3141 -2.60403 0
M  V30 7028 O 664.901 7.18123 -3.61323 0
M  V30 7029 H 664.633 0.675636 0.0221936 0
M  V30 7030 H 667.187 1.96931 -0.58373 0
M  V30 7031 H 665.417 3.61661 1.36889 0
M  V30 7032 H 667.106 3.91428 1.0742 0
M  V30 7033 H 667.872 4.67537 -1.28974 0
M  V30 7034 H 663.751 4.60954 -0.0652911 0
M  V30 7035 H 667.295 6.24725 -3.10425 0
M  V30 7036 H 663.192 6.17773 -1.87156 0
M  V30 7037 H 663.96 7.36244 -3.57613 0
M  V30 7038 N 666.623 0.143563 1.56945 0
M  V30 7039 C 667.57 -0.797433 2.16586 0
M  V30 7040 C 668.54 -1.24654 1.09775 0
M  V30 7041 O 669.725 -1.31968 1.37801 0
M  V30 7042 C 666.865 -2.03253 2.78895 0
M  V30 7043 C 665.978 -1.62954 4.00087 0
M  V30 7044 C 665.113 -2.81617 4.50406 0
M  V30 7045 C 664.152 -2.37675 5.64072 0
M  V30 7046 N 663.289 -3.49335 6.09023 0
M  V30 7047 H 668.129 -0.282023 2.96662 0
M  V30 7048 H 665.666 -0.127494 1.46546 0
M  V30 7049 H 667.624 -2.75653 3.13163 0
M  V30 7050 H 666.254 -2.52211 2.01469 0
M  V30 7051 H 665.306 -0.803322 3.71821 0
M  V30 7052 H 666.618 -1.26679 4.82446 0
M  V30 7053 H 665.772 -3.62212 4.86711 0
M  V30 7054 H 664.511 -3.21134 3.67048 0
M  V30 7055 H 663.516 -1.55519 5.27346 0
M  V30 7056 H 664.741 -1.99247 6.49213 0
M  V30 7057 H 662.687 -3.8848 5.28601 0
M  V30 7058 H 662.604 -3.17064 6.86299 0
M  V30 7059 H 663.872 -4.30297 6.49973 0
M  V30 7060 N 668.101 -1.57061 -0.130224 0
M  V30 7061 C 669.064 -1.98593 -1.14426 0
M  V30 7062 C 670.064 -0.874584 -1.34936 0
M  V30 7063 O 671.254 -1.14086 -1.31643 0
M  V30 7064 C 668.386 -2.31639 -2.50112 0
M  V30 7065 H 669.579 -2.89374 -0.787561 0
M  V30 7066 H 667.132 -1.51756 -0.374146 0
M  V30 7067 H 667.867 -1.43703 -2.90723 0
M  V30 7068 H 667.652 -3.12684 -2.36583 0
M  V30 7069 H 669.142 -2.64551 -3.23114 0
M  V30 7070 N 669.579 0.400081 -1.52437 0
M  V30 7071 C 670.489 1.51253 -1.79331 0
M  V30 7072 C 671.505 1.60188 -0.679396 0
M  V30 7073 O 672.681 1.76733 -0.965791 0
M  V30 7074 C 669.746 2.869 -1.94652 0
M  V30 7075 C 668.807 2.87777 -3.18564 0
M  V30 7076 C 668.04 4.16954 -3.33145 0
M  V30 7077 O 668.263 5.11329 -2.52783 0
M  V30 7078 O 667.197 4.2487 -4.26343 0
M  V30 7079 H 671.023 1.31461 -2.73773 0
M  V30 7080 H 668.608 0.586834 -1.37392 0
M  V30 7081 H 670.49 3.67336 -2.065 0
M  V30 7082 H 669.165 3.06741 -1.034 0
M  V30 7083 H 668.072 2.06162 -3.12167 0
M  V30 7084 H 669.405 2.72886 -4.09627 0
M  V30 7085 N 671.057 1.43213 0.657864 0
M  V30 7086 C 671.987 1.50815 1.78262 0
M  V30 7087 C 672.968 0.363211 1.66177 0
M  V30 7088 O 674.153 0.579806 1.85343 0
M  V30 7089 C 671.283 1.42625 3.16663 0
M  V30 7090 C 670.237 2.5532 3.43505 0
M  V30 7091 C 669.563 2.32184 4.81658 0
M  V30 7092 C 670.863 3.97583 3.38711 0
M  V30 7093 H 672.557 2.44954 1.72157 0
M  V30 7094 H 670.103 1.17896 0.82683 0
M  V30 7095 H 672.056 1.46548 3.95097 0
M  V30 7096 H 670.78 0.449877 3.23487 0
M  V30 7097 H 669.439 2.50742 2.6744 0
M  V30 7098 H 669.087 1.32801 4.85153 0
M  V30 7099 H 668.787 3.07724 5.00579 0
M  V30 7100 H 670.311 2.37883 5.62356 0
M  V30 7101 H 671.725 4.03673 4.07089 0
M  V30 7102 H 670.122 4.73112 3.69168 0
M  V30 7103 H 671.192 4.23049 2.36976 0
M  V30 7104 N 672.536 -0.895792 1.29666 0
M  V30 7105 C 673.783 -1.64664 1.17864 0
M  V30 7106 C 674.111 -1.92631 -0.26902 0
M  V30 7107 O 673.366 -1.53787 -1.21029 0
M  V30 7108 C 673.665 -3.00075 1.94139 0
M  V30 7109 C 673.331 -2.91702 3.43833 0
M  V30 7110 C 671.993 -2.89126 3.84656 0
M  V30 7111 C 674.345 -2.80622 4.39205 0
M  V30 7112 C 671.673 -2.73293 5.1916 0
M  V30 7113 C 674.025 -2.66329 5.73805 0
M  V30 7114 C 672.689 -2.62121 6.1388 0
M  V30 7115 H 671.959 -0.602549 0.431295 0
M  V30 7116 H 674.606 -1.04234 1.60648 0
M  V30 7117 H 672.911 -3.64394 1.43958 0
M  V30 7118 H 674.608 -3.57111 1.82408 0
M  V30 7119 H 671.198 -2.94511 3.11386 0
M  V30 7120 H 675.382 -2.81686 4.08615 0
M  V30 7121 H 670.638 -2.68443 5.49316 0
M  V30 7122 H 674.812 -2.56727 6.47352 0
M  V30 7123 H 672.439 -2.49611 7.18052 0
M  V30 7124 N 674.014 -1.12206 -1.10668 0
M  V30 7125 C 675.425 -0.890657 -1.64086 0
M  V30 7126 C 675.776 0.575502 -1.8757 0
M  V30 7127 O 674.901 1.4394 -1.61587 0
M  V30 7128 C 675.496 -1.61029 -2.98085 0
M  V30 7129 C 674.055 -1.4251 -3.48379 0
M  V30 7130 C 673.202 -1.64778 -2.23033 0
M  V30 7131 H 676.153 -1.27718 -0.94201 0
M  V30 7132 H 676.174 -1.05993 -3.65439 0
M  V30 7133 H 675.686 -2.67735 -2.80962 0
M  V30 7134 H 673.787 -0.380497 -3.70652 0
M  V30 7135 H 673.9 -2.17959 -4.26651 0
M  V30 7136 H 672.264 -1.07171 -2.31055 0
M  V30 7137 H 673.047 -2.72776 -2.08443 0
M  V30 7138 N 675.492 1.28418 -0.913599 0
M  V30 7139 C 676.72 1.99106 -0.562536 0
M  V30 7140 C 677.135 1.68273 0.856137 0
M  V30 7141 O 676.492 0.935401 1.56705 0
M  V30 7142 C 676.543 3.5338 -0.761903 0
M  V30 7143 O 676.264 3.83127 -2.12475 0
M  V30 7144 C 677.765 4.41328 -0.417651 0
M  V30 7145 H 674.985 0.635798 -0.214481 0
M  V30 7146 H 677.529 1.63618 -1.22676 0
M  V30 7147 H 675.684 3.8713 -0.144676 0
M  V30 7148 H 676.098 4.77763 -2.16431 0
M  V30 7149 H 677.572 5.48642 -0.607919 0
M  V30 7150 H 678.049 4.34422 0.646108 0
M  V30 7151 H 678.655 4.13074 -1.01241 0
M  V30 7152 N 676.97 0.677563 1.42291 0
M  V30 7153 C 678.381 0.277912 1.8462 0
M  V30 7154 C 678.732 -1.18048 1.56714 0
M  V30 7155 O 677.857 -1.90404 1.02836 0
M  V30 7156 C 678.452 0.497619 3.35126 0
M  V30 7157 C 677.011 0.152063 3.76093 0
M  V30 7158 C 676.158 0.78872 2.65847 0
M  V30 7159 H 679.109 0.879527 1.32098 0
M  V30 7160 H 679.13 -0.24939 3.79682 0
M  V30 7161 H 678.642 1.55913 3.55405 0
M  V30 7162 H 676.743 -0.905896 3.6142 0
M  V30 7163 H 676.856 0.594514 4.75397 0
M  V30 7164 H 675.22 0.219813 2.5375 0
M  V30 7165 H 676.003 1.85374 2.88949 0
M  V30 7166 N 678.448 -1.51871 0.421078 0
M  V30 7167 C 679.694 -2.02237 -0.151014 0
M  V30 7168 C 680.027 -1.30554 -1.43768 0
M  V30 7169 O 679.302 -0.41546 -1.90011 0
M  V30 7170 C 679.585 -3.5802 -0.386482 0
M  V30 7171 C 679.438 -4.40339 0.9177 0
M  V30 7172 C 680.757 -4.24444 -1.16342 0
M  V30 7173 H 677.876 -0.735062 -0.0534102 0
M  V30 7174 H 680.518 -1.81656 0.556888 0
M  V30 7175 H 678.668 -3.75688 -0.989494 0
M  V30 7176 H 680.34 -4.34357 1.55344 0
M  V30 7177 H 678.583 -4.06073 1.526 0
M  V30 7178 H 679.254 -5.47451 0.707187 0
M  V30 7179 H 681.73 -4.10948 -0.652788 0
M  V30 7180 H 680.606 -5.33358 -1.29693 0
M  V30 7181 H 680.867 -3.84204 -2.18724 0
M  V30 7182 N 679.926 -0.151884 -1.56866 0
M  V30 7183 C 681.342 0.204486 -1.58285 0
M  V30 7184 C 681.542 1.6431 -1.16639 0
M  V30 7185 O 680.598 2.37077 -0.868946 0
M  V30 7186 C 681.911 -0.0587019 -3.00643 0
M  V30 7187 C 683.459 0.00462303 -3.13 0
M  V30 7188 C 683.934 -0.231297 -4.57416 0
M  V30 7189 N 685.425 -0.178394 -4.62856 0
M  V30 7190 C 686.16 -0.335379 -5.72418 0
M  V30 7191 N 685.656 -0.550355 -6.90611 0
M  V30 7192 N 687.449 -0.272641 -5.61438 0
M  V30 7193 H 679.6 -1.09116 -1.82229 0
M  V30 7194 H 681.863 -0.432311 -0.843689 0
M  V30 7195 H 681.569 -1.05453 -3.35518 0
M  V30 7196 H 681.443 0.658508 -3.71407 0
M  V30 7197 H 683.83 0.991009 -2.77962 0
M  V30 7198 H 683.911 -0.744992 -2.44711 0
M  V30 7199 H 683.555 -1.2148 -4.93158 0
M  V30 7200 H 683.485 0.5387 -5.23837 0
M  V30 7201 H 685.976 -0.0170923 -3.77896 0
M  V30 7202 H 686.289 -0.660116 -7.69976 0
M  V30 7203 H 684.634 -0.586736 -6.92519 0
M  V30 7204 H 687.825 -0.105421 -4.67981 0
M  V30 7205 H 687.998 -0.398418 -6.46774 0
M  V30 7206 N 681.404 1.57128 0.121893 0
M  V30 7207 C 682.337 1.95327 1.17995 0
M  V30 7208 C 683.315 0.822524 1.40262 0
M  V30 7209 O 684.499 1.08044 1.54463 0
M  V30 7210 C 681.626 2.24699 2.53432 0
M  V30 7211 C 680.672 3.47263 2.4761 0
M  V30 7212 S 681.505 4.99951 1.91857 0
M  V30 7213 C 682.661 5.32473 3.28973 0
M  V30 7214 H 682.894 2.84765 0.854182 0
M  V30 7215 H 680.427 1.50864 0.328534 0
M  V30 7216 H 682.385 2.423 3.31362 0
M  V30 7217 H 681.046 1.3588 2.83188 0
M  V30 7218 H 680.239 3.65171 3.4737 0
M  V30 7219 H 679.841 3.29034 1.778 0
M  V30 7220 H 682.133 5.27478 4.25175 0
M  V30 7221 H 683.076 6.33732 3.15895 0
M  V30 7222 H 683.484 4.59952 3.27268 0
M  V30 7223 N 682.882 -0.391992 1.52647 0
M  V30 7224 C 684.11 -1.1586 1.71418 0
M  V30 7225 C 684.525 -1.8381 0.431216 0
M  V30 7226 O 683.882 -1.7256 -0.594085 0
M  V30 7227 C 683.933 -2.20888 2.86165 0
M  V30 7228 O 683.654 -1.5571 4.09495 0
M  V30 7229 C 685.155 -3.103 3.1659 0
M  V30 7230 H 682.375 -0.347494 0.574011 0
M  V30 7231 H 684.919 -0.458972 1.99283 0
M  V30 7232 H 683.074 -2.86492 2.6077 0
M  V30 7233 H 683.488 -2.25474 4.73563 0
M  V30 7234 H 684.962 -3.8003 4.00351 0
M  V30 7235 H 685.439 -3.73639 2.30848 0
M  V30 7236 H 686.045 -2.50345 3.43813 0
M  V30 7237 N 684.36 -1.4356 -0.65026 0
M  V30 7238 C 685.323 -1.48615 -1.74489 0
M  V30 7239 C 686.323 -0.370483 -1.56474 0
M  V30 7240 O 687.513 -0.632351 -1.62317 0
M  V30 7241 C 684.645 -1.34161 -3.13391 0
M  V30 7242 H 685.838 -2.46103 -1.71387 0
M  V30 7243 H 683.391 -1.30369 -0.862186 0
M  V30 7244 H 684.126 -0.376918 -3.22102 0
M  V30 7245 H 683.911 -2.1504 -3.27872 0
M  V30 7246 H 685.401 -1.40637 -3.93206 0
M  V30 7247 N 685.838 0.888903 -1.30139 0
M  V30 7248 C 687.115 1.62145 -1.094 0
M  V30 7249 C 687.495 2.08041 0.358091 0
M  V30 7250 O 686.843 1.84438 1.34888 0
M  V30 7251 C 687.053 2.794 -2.09133 0
M  V30 7252 C 688.401 3.49826 -2.40638 0
M  V30 7253 O 689.425 2.89583 -2.07412 0
M  V30 7254 O 688.284 4.58457 -2.97455 0
M  V30 7255 H 685.378 0.712475 -0.41989 0
M  V30 7256 H 687.924 0.936023 -1.41551 0
M  V30 7257 H 686.696 2.42762 -3.06891 0
M  V30 7258 H 686.319 3.55643 -1.77776 0
M  V30 7259 N 687.317 1.12792 1.10072 0
M  V30 7260 C 688.565 0.883796 1.81751 0
M  V30 7261 C 688.886 -0.591891 1.858 0
M  V30 7262 O 688.156 -1.43017 1.33876 0
M  V30 7263 H 686.736 0.323978 0.673088 0
M  V30 7264 H 689.398 1.42314 1.33164 0
M  V30 7265 H 688.494 1.26863 2.85153 0
M  V30 7266 N 688.795 -1.27931 0.920396 0
M  V30 7267 C 690.044 -1.93975 0.552867 0
M  V30 7268 C 690.357 -1.73193 -0.909035 0
M  V30 7269 O 691.563 -2.33515 -1.38502 0
M  V30 7270 C 690.019 -3.47463 0.937947 0
M  V30 7271 C 689.627 -3.77013 2.42003 0
M  V30 7272 C 691.371 -4.19628 0.64132 0
M  V30 7273 C 689.278 -5.23841 2.74489 0
M  V30 7274 H 688.208 -0.726146 0.203046 0
M  V30 7275 H 690.859 -1.45339 1.12022 0
M  V30 7276 H 689.241 -3.94867 0.299317 0
M  V30 7277 H 690.415 -3.40393 3.10595 0
M  V30 7278 H 688.73 -3.18035 2.6878 0
M  V30 7279 H 691.327 -5.27729 0.860622 0
M  V30 7280 H 691.67 -4.14164 -0.421168 0
M  V30 7281 H 692.203 -3.78022 1.23872 0
M  V30 7282 H 688.942 -5.34388 3.79618 0
M  V30 7283 H 688.462 -5.61634 2.1054 0
M  V30 7284 H 690.141 -5.91647 2.61845 0
M  V30 7285 N 690.273 -0.685099 -1.4193 0
M  V30 7286 C 691.203 -0.0273506 -2.33484 0
M  V30 7287 C 692.184 0.778366 -1.51246 0
M  V30 7288 O 693.369 0.733449 -1.79817 0
M  V30 7289 C 690.499 0.917272 -3.34968 0
M  V30 7290 C 689.453 0.21941 -4.27437 0
M  V30 7291 C 688.779 1.27768 -5.1921 0
M  V30 7292 C 690.079 -0.907894 -5.14349 0
M  V30 7293 H 691.773 -0.791994 -2.88735 0
M  V30 7294 H 689.319 -0.382308 -1.38832 0
M  V30 7295 H 691.272 1.38657 -3.97935 0
M  V30 7296 H 689.996 1.71346 -2.78043 0
M  V30 7297 H 688.655 -0.229757 -3.65879 0
M  V30 7298 H 688.303 2.06612 -4.58607 0
M  V30 7299 H 688.003 0.815803 -5.81909 0
M  V30 7300 H 689.527 1.7477 -5.85054 0
M  V30 7301 H 690.941 -0.519348 -5.70943 0
M  V30 7302 H 689.338 -1.2962 -5.85934 0
M  V30 7303 H 690.408 -1.75218 -4.52136 0
M  V30 7304 N 691.751 1.51645 -0.429126 0
M  V30 7305 C 692.701 2.24388 0.404217 0
M  V30 7306 C 693.685 1.26294 0.996933 0
M  V30 7307 O 694.877 1.51428 0.916434 0
M  V30 7308 C 692.006 3.08338 1.50938 0
M  V30 7309 C 691.092 4.13857 0.926464 0
M  V30 7310 N 691.483 5.05749 0.0719732 0
M  V30 7311 C 689.781 4.29695 1.19491 0
M  V30 7312 C 690.482 5.81143 -0.254528 0
M  V30 7313 N 689.458 5.42408 0.359763 0
M  V30 7314 H 693.26 2.92794 -0.254697 0
M  V30 7315 H 690.774 1.60606 -0.240712 0
M  V30 7316 H 692.771 3.59022 2.11918 0
M  V30 7317 H 691.431 2.41475 2.17072 0
M  V30 7318 H 692.442 5.17066 -0.293854 0
M  V30 7319 H 689.119 3.74059 1.85434 0
M  V30 7320 H 690.509 6.65159 -0.949365 0
M  V30 7321 N 693.229 0.160201 1.56784 0
M  V30 7322 C 694.457 -0.494165 2.00912 0
M  V30 7323 C 694.872 -1.57548 1.04038 0
M  V30 7324 O 694.229 -1.82457 0.0394581 0
M  V30 7325 C 694.28 -1.08271 3.44905 0
M  V30 7326 O 694.001 -0.0445704 4.38077 0
M  V30 7327 C 695.502 -1.8164 4.04378 0
M  V30 7328 H 692.722 -0.127498 0.658776 0
M  V30 7329 H 695.266 0.258665 2.02858 0
M  V30 7330 H 693.421 -1.78609 3.4377 0
M  V30 7331 H 693.835 -0.477544 5.22322 0
M  V30 7332 H 695.309 -2.18094 5.07089 0
M  V30 7333 H 695.786 -2.70727 3.45838 0
M  V30 7334 H 696.392 -1.15969 4.09184 0
M  V30 7335 N 694.707 -1.5719 -0.113559 0
M  V30 7336 C 695.953 -1.85412 -0.821597 0
M  V30 7337 C 696.286 -0.746722 -1.7927 0
M  V30 7338 O 695.561 0.246971 -1.92926 0
M  V30 7339 C 695.844 -3.24233 -1.56669 0
M  V30 7340 C 695.697 -4.45578 -0.614823 0
M  V30 7341 C 697.016 -3.60697 -2.52161 0
M  V30 7342 H 694.135 -0.674406 -0.29723 0
M  V30 7343 H 696.777 -1.89807 -0.085694 0
M  V30 7344 H 694.927 -3.20617 -2.19401 0
M  V30 7345 H 696.599 -4.613 0.00407137 0
M  V30 7346 H 694.842 -4.33738 0.0732332 0
M  V30 7347 H 695.513 -5.39395 -1.17292 0
M  V30 7348 H 697.989 -3.65139 -1.99532 0
M  V30 7349 H 696.865 -4.58798 -3.01323 0
M  V30 7350 H 697.126 -2.88403 -3.35076 0
M  V30 7351 N 696.185 0.383891 -1.52853 0
M  V30 7352 C 697.433 1.12619 -1.67814 0
M  V30 7353 C 697.754 1.90354 -0.423141 0
M  V30 7354 O 697.024 1.87649 0.562554 0
M  V30 7355 H 695.604 0.418738 -0.618601 0
M  V30 7356 H 698.266 0.43495 -1.89985 0
M  V30 7357 H 697.362 1.82624 -2.5309 0
M  V30 7358 N 697.663 1.43903 0.642637 0
M  V30 7359 C 699.079 1.27536 0.959519 0
M  V30 7360 C 699.279 0.202751 2.00477 0
M  V30 7361 O 698.335 -0.415256 2.49062 0
M  V30 7362 C 699.648 2.6432 1.43372 0
M  V30 7363 C 701.196 2.71937 1.54981 0
M  V30 7364 C 701.671 4.09164 2.05789 0
M  V30 7365 N 703.162 4.11282 2.13076 0
M  V30 7366 C 703.897 5.14303 2.53534 0
M  V30 7367 N 703.393 6.27693 2.93212 0
M  V30 7368 N 705.186 5.01657 2.53567 0
M  V30 7369 H 697.337 2.12344 -0.0488376 0
M  V30 7370 H 699.6 0.947124 0.0407559 0
M  V30 7371 H 699.306 3.43826 0.740048 0
M  V30 7372 H 699.18 2.90432 2.40685 0
M  V30 7373 H 701.567 1.92757 2.23448 0
M  V30 7374 H 701.648 2.49578 0.560739 0
M  V30 7375 H 701.292 4.88815 1.37921 0
M  V30 7376 H 701.222 4.28893 3.05546 0
M  V30 7377 H 703.713 3.2944 1.85143 0
M  V30 7378 H 704.026 7.02125 3.22863 0
M  V30 7379 H 702.371 6.31149 2.90991 0
M  V30 7380 H 705.562 4.12134 2.21952 0
M  V30 7381 H 705.735 5.82072 2.84774 0
M  V30 7382 N 699.141 -0.881989 1.30609 0
M  V30 7383 C 700.071 -2.00413 1.1982 0
M  V30 7384 C 701.052 -1.69871 0.0881538 0
M  V30 7385 O 702.237 -1.92304 0.2707 0
M  V30 7386 C 699.367 -3.35641 0.89233 0
M  V30 7387 C 698.321 -3.80451 1.96064 0
M  V30 7388 C 697.647 -5.13003 1.5077 0
M  V30 7389 C 698.947 -3.98855 3.37213 0
M  V30 7390 H 700.641 -2.09698 2.13699 0
M  V30 7391 H 698.187 -1.00754 1.02882 0
M  V30 7392 H 700.14 -4.13669 0.803497 0
M  V30 7393 H 698.864 -3.26497 -0.0821381 0
M  V30 7394 H 697.523 -3.04654 2.03916 0
M  V30 7395 H 697.171 -5.0029 0.521417 0
M  V30 7396 H 696.871 -5.43956 2.22229 0
M  V30 7397 H 698.395 -5.93554 1.43271 0
M  V30 7398 H 699.809 -4.67312 3.32103 0
M  V30 7399 H 698.206 -4.41188 4.06784 0
M  V30 7400 H 699.276 -3.02614 3.78883 0
M  V30 7401 N 700.619 -1.13374 -1.09472 0
M  V30 7402 C 701.867 -0.893422 -1.8128 0
M  V30 7403 C 702.188 0.582029 -1.86111 0
M  V30 7404 O 701.458 1.42305 -1.34633 0
M  V30 7405 H 700.038 -0.327543 -0.67136 0
M  V30 7406 H 702.7 -1.43018 -1.32408 0
M  V30 7407 H 701.796 -1.28374 -2.84476 0
M  V30 7408 N 702.098 1.27442 -0.927168 0
M  V30 7409 C 703.061 2.2512 -0.430525 0
M  V30 7410 C 704.061 1.54357 0.450619 0
M  V30 7411 O 705.251 1.72371 0.251774 0
M  V30 7412 C 702.383 3.38763 0.381144 0
M  V30 7413 H 703.576 2.70569 -1.29354 0
M  V30 7414 H 701.129 1.39355 -0.707806 0
M  V30 7415 H 701.864 2.98695 1.263 0
M  V30 7416 H 701.649 3.91298 -0.250618 0
M  V30 7417 H 703.139 4.11364 0.719012 0
M  V30 7418 N 703.576 0.692616 1.41565 0
M  V30 7419 C 704.509 -0.025063 2.28186 0
M  V30 7420 C 705.487 -0.790912 1.42068 0
M  V30 7421 O 706.671 -0.782344 1.71498 0
M  V30 7422 C 703.798 -1.04285 3.22246 0
M  V30 7423 C 702.844 -0.370515 4.24888 0
M  V30 7424 S 703.677 0.884942 5.28137 0
M  V30 7425 C 704.833 -0.131324 6.25762 0
M  V30 7426 H 705.066 0.709626 2.88707 0
M  V30 7427 H 702.599 0.482783 1.46658 0
M  V30 7428 H 704.557 -1.62493 3.7697 0
M  V30 7429 H 703.218 -1.7501 2.60827 0
M  V30 7430 H 702.411 -1.13911 4.90959 0
M  V30 7431 H 702.013 0.138411 3.73744 0
M  V30 7432 H 704.305 -0.985527 6.70294 0
M  V30 7433 H 705.248 0.495384 7.06365 0
M  V30 7434 H 705.656 -0.484777 5.62415 0
M  V30 7435 N 705.054 -1.51416 0.437162 0
M  V30 7436 C 705.987 -2.24309 -0.419602 0
M  V30 7437 C 706.965 -1.26236 -1.02485 0
M  V30 7438 O 708.149 -1.5537 -1.06735 0
M  V30 7439 C 705.276 -2.99335 -1.58482 0
M  V30 7440 C 704.322 -4.12064 -1.10027 0
M  V30 7441 S 705.155 -5.35483 -0.0424476 0
M  V30 7442 C 706.311 -6.14047 -1.21234 0
M  V30 7443 H 706.544 -2.96632 0.199259 0
M  V30 7444 H 704.077 -1.528 0.22168 0
M  V30 7445 H 706.035 -3.43159 -2.25282 0
M  V30 7446 H 704.696 -2.26602 -2.17509 0
M  V30 7447 H 703.889 -4.63836 -1.97161 0
M  V30 7448 H 703.491 -3.70499 -0.510507 0
M  V30 7449 H 705.783 -6.43123 -2.13072 0
M  V30 7450 H 706.726 -7.04279 -0.734582 0
M  V30 7451 H 707.134 -5.45538 -1.45082 0
M  V30 7452 N 706.532 -0.168513 -1.56696 0
M  V30 7453 C 707.78 0.476216 -1.96409 0
M  V30 7454 C 708.101 1.63968 -1.05544 0
M  V30 7455 O 707.371 1.95525 -0.121235 0
M  V30 7456 H 705.951 0.178921 -0.725256 0
M  V30 7457 H 708.613 -0.249042 -1.93302 0
M  V30 7458 H 707.709 0.838094 -3.00637 0
M  V30 7459 N 708.01 1.57248 0.105221 0
M  V30 7460 C 709.421 1.74612 0.660865 0
M  V30 7461 C 709.772 0.789231 1.79626 0
M  V30 7462 O 708.897 -0.0346611 2.16372 0
M  V30 7463 C 709.492 3.16624 1.20559 0
M  V30 7464 C 708.051 3.35447 1.7074 0
M  V30 7465 C 707.198 2.70445 0.612764 0
M  V30 7466 H 710.149 1.5824 -0.12079 0
M  V30 7467 H 710.17 3.18937 2.07508 0
M  V30 7468 H 709.682 3.86245 0.379012 0
M  V30 7469 H 707.783 2.7089 2.5583 0
M  V30 7470 H 707.896 4.43702 1.80736 0
M  V30 7471 H 706.26 2.32061 1.04975 0
M  V30 7472 H 707.043 3.42699 -0.203066 0
M  V30 7473 N 709.488 -0.375779 1.53054 0
M  V30 7474 C 710.418 -1.46598 1.81745 0
M  V30 7475 C 711.399 -1.56337 0.670286 0
M  V30 7476 O 712.584 -1.71071 0.919158 0
M  V30 7477 C 709.714 -2.84058 1.99821 0
M  V30 7478 C 708.668 -2.8915 3.15557 0
M  V30 7479 C 707.994 -4.29187 3.18908 0
M  V30 7480 C 709.294 -2.57595 4.54359 0
M  V30 7481 H 710.988 -1.22837 2.73041 0
M  V30 7482 H 708.534 -0.589485 1.31381 0
M  V30 7483 H 710.487 -3.60342 2.18475 0
M  V30 7484 H 709.211 -3.09184 1.05226 0
M  V30 7485 H 707.87 -2.15316 2.96706 0
M  V30 7486 H 707.518 -4.51374 2.2197 0
M  V30 7487 H 707.218 -4.33512 3.96662 0
M  V30 7488 H 708.742 -5.07359 3.39734 0
M  V30 7489 H 710.156 -3.23595 4.73243 0
M  V30 7490 H 708.553 -2.73252 5.34279 0
M  V30 7491 H 709.623 -1.52882 4.60169 0
M  V30 7492 N 710.966 -1.44241 -0.634997 0
M  V30 7493 C 712.215 -1.46102 -1.39058 0
M  V30 7494 C 712.528 -0.0959909 -1.95364 0
M  V30 7495 O 713.734 0.00788751 -2.71499 0
M  V30 7496 C 712.19 -2.57195 -2.51751 0
M  V30 7497 C 711.798 -3.99888 -2.01974 0
M  V30 7498 C 713.542 -2.68272 -3.28984 0
M  V30 7499 C 711.449 -5.02412 -3.11987 0
M  V30 7500 H 710.379 -0.543556 -0.522554 0
M  V30 7501 H 713.03 -1.70294 -0.683538 0
M  V30 7502 H 711.412 -2.26237 -3.25012 0
M  V30 7503 H 712.586 -4.40396 -1.35604 0
M  V30 7504 H 710.901 -3.93019 -1.37568 0
M  V30 7505 H 713.498 -3.42042 -4.10988 0
M  V30 7506 H 713.841 -1.73957 -3.78212 0
M  V30 7507 H 714.374 -2.98622 -2.62812 0
M  V30 7508 H 711.113 -5.98342 -2.67707 0
M  V30 7509 H 710.633 -4.66501 -3.77011 0
M  V30 7510 H 712.312 -5.25939 -3.76825 0
M  V30 7511 N 712.444 0.87505 -1.31075 0
M  V30 7512 C 713.374 1.99775 -1.20881 0
M  V30 7513 C 714.355 1.69822 -0.0971612 0
M  V30 7514 O 715.54 1.92158 -0.280895 0
M  V30 7515 C 712.67 3.35163 -0.910118 0
M  V30 7516 C 711.624 3.79406 -1.98078 0
M  V30 7517 C 710.95 5.12197 -1.53488 0
M  V30 7518 C 712.25 3.97061 -3.39323 0
M  V30 7519 H 713.944 2.08562 -2.14808 0
M  V30 7520 H 711.49 1.00207 -1.03415 0
M  V30 7521 H 713.443 4.13237 -0.825423 0
M  V30 7522 H 712.167 3.26536 0.064822 0
M  V30 7523 H 710.826 3.03568 -2.05528 0
M  V30 7524 H 710.474 5.00007 -0.547941 0
M  V30 7525 H 710.174 5.4277 -2.2511 0
M  V30 7526 H 711.698 5.92785 -1.46417 0
M  V30 7527 H 713.112 4.65545 -3.34576 0
M  V30 7528 H 711.509 4.39025 -4.09118 0
M  V30 7529 H 712.579 3.00601 -3.80483 0
M  V30 7530 N 713.922 1.13953 1.08869 0
M  V30 7531 C 714.855 0.765765 2.14968 0
M  V30 7532 C 715.833 -0.250689 1.60656 0
M  V30 7533 O 717.017 -0.140852 1.87973 0
M  V30 7534 C 714.144 0.136146 3.38426 0
M  V30 7535 C 713.19 1.12201 4.11477 0
M  V30 7536 S 714.023 2.65711 4.64928 0
M  V30 7537 C 715.179 2.04125 5.91679 0
M  V30 7538 H 715.412 1.66444 2.46341 0
M  V30 7539 H 712.945 0.960263 1.20906 0
M  V30 7540 H 714.903 -0.220712 4.09906 0
M  V30 7541 H 713.564 -0.739887 3.05261 0
M  V30 7542 H 712.757 0.629398 5.00055 0
M  V30 7543 H 712.359 1.42262 3.45886 0
M  V30 7544 H 714.651 1.39381 6.63008 0
M  V30 7545 H 715.594 2.90808 6.45629 0
M  V30 7546 H 716.002 1.4905 5.44467 0
M  V30 7547 N 715.4 -1.26948 0.933913 0
M  V30 7548 C 716.625 -1.98724 0.593589 0
M  V30 7549 C 717.05 -1.6915 -0.822801 0
M  V30 7550 O 716.408 -0.93533 -1.5531 0
M  V30 7551 C 716.456 -3.50834 0.833542 0
M  V30 7552 O 715.56 -4.12284 -0.0978788 0
M  V30 7553 H 714.901 -0.623683 0.227849 0
M  V30 7554 H 717.431 -1.61599 1.25486 0
M  V30 7555 H 717.441 -4.01018 0.75156 0
M  V30 7556 H 716.116 -3.71691 1.86597 0
M  V30 7557 H 714.693 -3.72884 0.0345443 0
M  V30 7558 N 716.879 -0.700114 -1.41195 0
M  V30 7559 C 718.295 -0.372114 -1.55201 0
M  V30 7560 C 718.495 1.12053 -1.6747 0
M  V30 7561 O 717.551 1.90642 -1.65566 0
M  V30 7562 C 718.864 -1.12462 -2.78878 0
M  V30 7563 C 720.412 -1.10941 -2.92679 0
M  V30 7564 C 720.887 -1.84376 -4.19249 0
M  V30 7565 N 722.378 -1.81368 -4.26216 0
M  V30 7566 C 723.113 -2.35024 -5.23021 0
M  V30 7567 N 722.609 -2.9717 -6.25829 0
M  V30 7568 N 724.402 -2.25254 -5.14992 0
M  V30 7569 H 716.553 -1.66816 -1.31477 0
M  V30 7570 H 718.816 -0.704223 -0.634644 0
M  V30 7571 H 718.522 -2.17937 -2.76037 0
M  V30 7572 H 718.396 -0.706152 -3.70531 0
M  V30 7573 H 720.783 -0.062911 -2.95033 0
M  V30 7574 H 720.864 -1.56698 -2.02187 0
M  V30 7575 H 720.508 -2.89008 -4.17656 0
M  V30 7576 H 720.438 -1.3605 -5.08722 0
M  V30 7577 H 722.929 -1.36062 -3.52556 0
M  V30 7578 H 723.242 -3.35668 -6.96094 0
M  V30 7579 H 721.587 -3.01249 -6.26318 0
M  V30 7580 H 724.778 -1.76372 -4.33602 0
M  V30 7581 H 724.951 -2.67373 -5.90268 0
M  V30 7582 N 718.357 1.51182 -0.445186 0
M  V30 7583 C 719.289 2.25714 0.398206 0
M  V30 7584 C 720.302 1.30032 0.979562 0
M  V30 7585 O 721.491 1.55731 0.872368 0
M  V30 7586 C 718.591 3.00348 1.56985 0
M  V30 7587 C 717.764 4.23187 1.10596 0
M  V30 7588 C 716.823 4.80334 2.14863 0
M  V30 7589 O 715.849 5.4196 1.73977 0
M  V30 7590 N 717.051 4.65053 3.47427 0
M  V30 7591 H 719.816 2.98732 -0.240629 0
M  V30 7592 H 717.377 1.59556 -0.274507 0
M  V30 7593 H 719.369 3.35464 2.26376 0
M  V30 7594 H 717.939 2.30291 2.11387 0
M  V30 7595 H 717.159 3.93476 0.238832 0
M  V30 7596 H 718.447 5.02886 0.773537 0
M  V30 7597 H 717.845 4.15984 3.83372 0
M  V30 7598 H 716.402 5.04509 4.12691 0
M  V30 7599 N 719.835 0.176821 1.56605 0
M  V30 7600 C 720.798 -0.737429 2.17013 0
M  V30 7601 C 721.798 -1.15414 1.11965 0
M  V30 7602 O 722.988 -1.0702 1.37449 0
M  V30 7603 C 720.12 -2.00445 2.75744 0
M  V30 7604 H 721.313 -0.211455 2.99154 0
M  V30 7605 H 718.866 -0.0727582 1.56131 0
M  V30 7606 H 719.601 -2.57338 1.97352 0
M  V30 7607 H 719.386 -1.71456 3.52626 0
M  V30 7608 H 720.876 -2.65679 3.22187 0
M  V30 7609 N 721.313 -1.57302 -0.09688 0
M  V30 7610 C 722.243 -2.0497 -1.11846 0
M  V30 7611 C 723.224 -0.938278 -1.41882 0
M  V30 7612 O 724.409 -1.20943 -1.51942 0
M  V30 7613 C 721.539 -2.47264 -2.43881 0
M  V30 7614 C 720.493 -3.62053 -2.28257 0
M  V30 7615 C 719.819 -3.90318 -3.65453 0
M  V30 7616 C 721.119 -4.93005 -1.72461 0
M  V30 7617 H 722.813 -2.90567 -0.721888 0
M  V30 7618 H 720.359 -1.39786 -0.345803 0
M  V30 7619 H 722.312 -2.7922 -3.15617 0
M  V30 7620 H 721.036 -1.58664 -2.8547 0
M  V30 7621 H 719.695 -3.30341 -1.58967 0
M  V30 7622 H 719.343 -2.98889 -4.04567 0
M  V30 7623 H 719.043 -4.67597 -3.55846 0
M  V30 7624 H 720.567 -4.24747 -4.3866 0
M  V30 7625 H 721.981 -5.23354 -2.34036 0
M  V30 7626 H 720.378 -5.74436 -1.73618 0
M  V30 7627 H 721.448 -4.80053 -0.683898 0
M  V30 7628 N 722.791 0.367657 -1.53252 0
M  V30 7629 C 724.202 0.944563 -1.61043 0
M  V30 7630 C 724.553 1.90325 -0.476546 0
M  V30 7631 O 723.678 2.12721 0.397333 0
M  V30 7632 C 724.273 1.71992 -2.91898 0
M  V30 7633 C 722.832 2.2462 -3.02031 0
M  V30 7634 C 721.979 1.05799 -2.56324 0
M  V30 7635 H 724.93 0.146516 -1.58022 0
M  V30 7636 H 724.951 2.58095 -2.79584 0
M  V30 7637 H 724.463 1.02192 -3.74404 0
M  V30 7638 H 722.564 2.97668 -2.24108 0
M  V30 7639 H 722.677 2.52644 -4.07073 0
M  V30 7640 H 721.041 1.42435 -2.1115 0
M  V30 7641 H 721.824 0.375008 -3.41246 0
M  V30 7642 N 724.269 1.44576 0.627338 0
M  V30 7643 C 725.199 1.54562 1.75022 0
M  V30 7644 C 726.18 0.398378 1.65369 0
M  V30 7645 O 727.365 0.61899 1.84071 0
M  V30 7646 C 724.495 1.49309 3.13567 0
M  V30 7647 C 723.449 2.62549 3.38012 0
M  V30 7648 C 722.775 2.42348 4.76625 0
M  V30 7649 C 724.075 4.04678 3.30202 0
M  V30 7650 H 725.769 2.4855 1.66922 0
M  V30 7651 H 723.315 1.19624 0.801636 0
M  V30 7652 H 725.268 1.54895 3.919 0
M  V30 7653 H 723.992 0.518392 3.2246 0
M  V30 7654 H 722.651 2.56358 2.62061 0
M  V30 7655 H 722.299 1.43062 4.82226 0
M  V30 7656 H 721.999 3.18273 4.93939 0
M  V30 7657 H 723.523 2.49758 5.57183 0
M  V30 7658 H 724.937 4.12217 3.98435 0
M  V30 7659 H 723.334 4.80836 3.5905 0
M  V30 7660 H 724.404 4.2798 2.27949 0
M  V30 7661 N 725.747 -0.868086 1.31537 0
M  V30 7662 C 726.677 -1.99131 1.21939 0
M  V30 7663 C 727.658 -1.69768 0.106166 0
M  V30 7664 O 728.843 -1.92006 0.291081 0
M  V30 7665 C 725.973 -3.34676 0.927879 0
M  V30 7666 C 724.927 -3.7835 2.00088 0
M  V30 7667 C 724.253 -5.11375 1.56203 0
M  V30 7668 C 725.553 -3.95256 3.41424 0
M  V30 7669 H 727.247 -2.07419 2.15911 0
M  V30 7670 H 724.793 -0.996569 1.03945 0
M  V30 7671 H 726.746 -4.12793 0.847327 0
M  V30 7672 H 725.47 -3.26565 -0.0475042 0
M  V30 7673 H 724.129 -3.02474 2.07135 0
M  V30 7674 H 723.777 -4.99709 0.57445 0
M  V30 7675 H 723.477 -5.41568 2.27985 0
M  V30 7676 H 725.001 -5.92001 1.49558 0
M  V30 7677 H 726.415 -4.63764 3.3704 0
M  V30 7678 H 724.812 -4.36849 4.1144 0
M  V30 7679 H 725.882 -2.98579 3.82072 0
M  V30 7680 N 727.225 -1.14528 -1.08264 0
M  V30 7681 C 728.636 -0.925261 -1.6216 0
M  V30 7682 C 728.987 0.535587 -1.88748 0
M  V30 7683 O 728.112 1.4048 -1.64604 0
M  V30 7684 C 728.707 -1.67316 -2.94603 0
M  V30 7685 C 727.266 -1.49868 -3.45278 0
M  V30 7686 C 726.413 -1.69471 -2.19487 0
M  V30 7687 H 729.364 -1.29687 -0.914707 0
M  V30 7688 H 729.385 -1.13721 -3.63109 0
M  V30 7689 H 728.897 -2.73635 -2.75219 0
M  V30 7690 H 726.998 -0.459032 -3.69762 0
M  V30 7691 H 727.111 -2.2696 -4.21931 0
M  V30 7692 H 725.475 -1.12048 -2.2873 0
M  V30 7693 H 726.258 -2.77136 -2.0261 0
M  V30 7694 N 728.703 1.26451 -0.940633 0
M  V30 7695 C 730.114 1.75726 -0.630653 0
M  V30 7696 C 730.465 1.76631 0.854167 0
M  V30 7697 O 729.59 1.37807 1.66848 0
M  V30 7698 C 730.185 3.19114 -1.13805 0
M  V30 7699 C 728.744 3.66005 -0.878497 0
M  V30 7700 C 727.891 2.45505 -1.28928 0
M  V30 7701 H 730.842 1.12535 -1.119 0
M  V30 7702 H 730.863 3.77311 -0.491625 0
M  V30 7703 H 730.375 3.18424 -2.21874 0
M  V30 7704 H 728.476 3.72126 0.187833 0
M  V30 7705 H 728.589 4.54844 -1.50512 0
M  V30 7706 H 726.953 2.4467 -0.707713 0
M  V30 7707 H 727.736 2.47516 -2.37888 0
M  V30 7708 N 730.181 0.707592 1.40822 0
M  V30 7709 C 731.111 0.0644925 2.33411 0
M  V30 7710 C 732.092 -0.754205 1.52466 0
M  V30 7711 O 733.277 -0.704749 1.80961 0
M  V30 7712 C 730.407 -0.863865 3.36385 0
M  V30 7713 C 729.361 -0.15138 4.27732 0
M  V30 7714 C 728.687 -1.19491 5.21177 0
M  V30 7715 C 729.987 0.989607 5.12839 0
M  V30 7716 H 731.681 0.837829 2.87438 0
M  V30 7717 H 729.227 0.404346 1.38207 0
M  V30 7718 H 731.18 -1.32309 4.0009 0
M  V30 7719 H 729.904 -1.66901 2.80734 0
M  V30 7720 H 728.563 0.287937 3.65467 0
M  V30 7721 H 728.211 -1.9929 4.61836 0
M  V30 7722 H 727.911 -0.723123 5.83134 0
M  V30 7723 H 729.435 -1.6544 5.8776 0
M  V30 7724 H 730.849 0.610114 5.70044 0
M  V30 7725 H 729.246 1.38926 5.83798 0
M  V30 7726 H 730.316 1.82389 4.49291 0
M  V30 7727 N 731.66 -1.50943 0.453197 0
M  V30 7728 C 732.59 -2.31005 -0.34044 0
M  V30 7729 C 733.571 -1.37112 -1.00669 0
M  V30 7730 O 734.756 -1.66033 -1.0073 0
M  V30 7731 C 731.886 -3.16358 -1.433 0
M  V30 7732 C 730.84 -4.18658 -0.889363 0
M  V30 7733 C 730.166 -4.92633 -2.07887 0
M  V30 7734 C 731.466 -5.22227 0.0871142 0
M  V30 7735 H 733.16 -2.97601 0.327723 0
M  V30 7736 H 730.706 -1.43119 0.159054 0
M  V30 7737 H 732.659 -3.71155 -1.99555 0
M  V30 7738 H 731.383 -2.47613 -2.12968 0
M  V30 7739 H 730.042 -3.64936 -0.348915 0
M  V30 7740 H 729.69 -4.20376 -2.76211 0
M  V30 7741 H 729.39 -5.61819 -1.72143 0
M  V30 7742 H 730.914 -5.50258 -2.64666 0
M  V30 7743 H 732.328 -5.72001 -0.385656 0
M  V30 7744 H 730.725 -5.99032 0.357926 0
M  V30 7745 H 731.795 -4.74077 1.01879 0
M  V30 7746 N 733.138 -0.185124 -1.56509 0
M  V30 7747 C 734.368 0.461469 -2.0138 0
M  V30 7748 C 734.776 1.56417 -1.06445 0
M  V30 7749 O 734.119 1.83603 -0.0597515 0
M  V30 7750 C 734.181 1.08731 -3.42663 0
M  V30 7751 C 733.845 0.124581 -4.5683 0
M  V30 7752 C 734.842 -0.662295 -5.15664 0
M  V30 7753 C 732.527 0.0163947 -5.02297 0
M  V30 7754 C 734.521 -1.54442 -6.18406 0
M  V30 7755 C 732.208 -0.869301 -6.04885 0
M  V30 7756 C 733.206 -1.64828 -6.62813 0
M  V30 7757 O 732.894 -2.51915 -7.63409 0
M  V30 7758 H 732.626 0.1212 -0.665046 0
M  V30 7759 H 735.18 -0.288119 -2.03369 0
M  V30 7760 H 733.41 1.8853 -3.37629 0
M  V30 7761 H 735.099 1.63753 -3.71403 0
M  V30 7762 H 735.865 -0.588963 -4.81411 0
M  V30 7763 H 731.744 0.61253 -4.56913 0
M  V30 7764 H 735.288 -2.15289 -6.63548 0
M  V30 7765 H 731.185 -0.943786 -6.38563 0
M  V30 7766 H 731.953 -2.45584 -7.80789 0
M  V30 7767 N 734.616 1.57351 0.0885366 0
M  V30 7768 C 735.864 1.86051 0.789262 0
M  V30 7769 C 736.185 0.774763 1.78948 0
M  V30 7770 O 735.455 -0.198324 1.94894 0
M  V30 7771 H 734.035 0.686508 0.294475 0
M  V30 7772 H 736.697 1.94779 0.0686055 0
M  V30 7773 H 735.793 2.83007 1.31581 0
M  V30 7774 N 736.094 -0.359525 1.53444 0
M  V30 7775 C 737.34 -1.10315 1.70172 0
M  V30 7776 C 737.673 -1.88788 0.455287 0
M  V30 7777 O 736.948 -1.86635 -0.547514 0
M  V30 7778 C 737.231 -2.05744 2.95536 0
M  V30 7779 C 737.084 -1.3084 4.3035 0
M  V30 7780 C 738.403 -3.05784 3.16518 0
M  V30 7781 H 735.522 -0.399662 0.619225 0
M  V30 7782 H 738.164 -0.383338 1.86093 0
M  V30 7783 H 736.314 -2.67125 2.82093 0
M  V30 7784 H 737.986 -0.721959 4.55615 0
M  V30 7785 H 736.229 -0.610283 4.29486 0
M  V30 7786 H 736.9 -2.00718 5.14214 0
M  V30 7787 H 739.376 -2.5451 3.29187 0
M  V30 7788 H 738.252 -3.69772 4.05659 0
M  V30 7789 H 738.513 -3.76289 2.32076 0
M  V30 7790 N 737.572 -1.44907 -0.619662 0
M  V30 7791 C 738.821 -1.47569 -1.37501 0
M  V30 7792 C 739.134 -0.116707 -1.95252 0
M  V30 7793 O 740.34 -0.020909 -2.71492 0
M  V30 7794 C 738.796 -2.59851 -2.49009 0
M  V30 7795 C 738.404 -4.02008 -1.97722 0
M  V30 7796 C 740.148 -2.71746 -3.2612 0
M  V30 7797 C 738.055 -5.05693 -3.0664 0
M  V30 7798 H 736.985 -0.549068 -0.51676 0
M  V30 7799 H 739.636 -1.71009 -0.665437 0
M  V30 7800 H 738.018 -2.29671 -3.22594 0
M  V30 7801 H 739.192 -4.41809 -1.30925 0
M  V30 7802 H 737.507 -3.94456 -1.33392 0
M  V30 7803 H 740.104 -3.46382 -4.07337 0
M  V30 7804 H 740.447 -1.77959 -3.76346 0
M  V30 7805 H 740.98 -3.01392 -2.5963 0
M  V30 7806 H 737.719 -6.01148 -2.61345 0
M  V30 7807 H 737.239 -4.70473 -3.72042 0
M  V30 7808 H 738.918 -5.29906 -3.71226 0
M  V30 7809 N 739.05 0.861098 -1.31996 0
M  V30 7810 C 740.275 1.65264 -1.2531 0
M  V30 7811 C 740.7 1.87265 0.177007 0
M  V30 7812 O 740.058 1.4208 1.12619 0
M  V30 7813 C 740.106 2.99284 -2.0115 0
M  V30 7814 O 739.21 3.89508 -1.3549 0
M  V30 7815 H 738.551 0.50409 -0.432192 0
M  V30 7816 H 741.081 1.07297 -1.74208 0
M  V30 7817 H 741.091 3.49154 -2.11081 0
M  V30 7818 H 739.766 2.82591 -3.05148 0
M  V30 7819 H 738.343 3.47966 -1.34066 0
M  V30 7820 N 740.528 1.15101 1.07655 0
M  V30 7821 C 741.777 0.918528 1.79572 0
M  V30 7822 C 742.09 -0.555922 1.87534 0
M  V30 7823 O 743.296 -0.905893 2.55941 0
M  V30 7824 C 741.752 1.59394 3.22679 0
M  V30 7825 C 741.36 3.1052 3.22927 0
M  V30 7826 C 743.104 1.44289 3.99225 0
M  V30 7827 C 741.011 3.70862 4.60668 0
M  V30 7828 H 739.941 0.340006 0.672987 0
M  V30 7829 H 742.592 1.38079 1.20857 0
M  V30 7830 H 740.974 1.05936 3.81567 0
M  V30 7831 H 742.148 3.70708 2.737 0
M  V30 7832 H 740.463 3.25351 2.59876 0
M  V30 7833 H 743.06 1.86766 5.01022 0
M  V30 7834 H 743.403 0.389975 4.14469 0
M  V30 7835 H 743.936 1.94826 3.46825 0
M  V30 7836 H 740.675 4.7604 4.50628 0
M  V30 7837 H 740.195 3.15456 5.10145 0
M  V30 7838 H 741.874 3.71607 5.29639 0
M  V30 7839 N 742.006 -1.2595 0.947325 0
M  V30 7840 C 742.969 -2.24407 0.466285 0
M  V30 7841 C 743.969 -1.55054 -0.426005 0
M  V30 7842 O 745.159 -1.7275 -0.224319 0
M  V30 7843 C 742.291 -3.39326 -0.327201 0
M  V30 7844 H 743.484 -2.68477 1.33642 0
M  V30 7845 H 741.037 -1.38211 0.729887 0
M  V30 7846 H 741.772 -3.00667 -1.21532 0
M  V30 7847 H 741.557 -3.9085 0.312839 0
M  V30 7848 H 743.047 -4.12455 -0.653477 0
M  V30 7849 N 743.484 -0.715051 -1.40445 0
M  V30 7850 C 744.709 -0.26254 -2.05732 0
M  V30 7851 C 745.134 1.08691 -1.53519 0
M  V30 7852 O 744.492 1.68453 -0.670328 0
M  V30 7853 C 744.54 -0.25195 -3.59719 0
M  V30 7854 O 743.644 0.766998 -4.05205 0
M  V30 7855 H 742.985 -0.123398 -0.652433 0
M  V30 7856 H 745.515 -0.975382 -1.79854 0
M  V30 7857 H 745.525 -0.0894537 -4.07902 0
M  V30 7858 H 744.2 -1.23672 -3.97087 0
M  V30 7859 H 742.777 0.572269 -3.68483 0
M  V30 7860 N 744.962 1.50701 -0.461195 0
M  V30 7861 C 746.187 2.07171 0.0974773 0
M  V30 7862 C 746.612 1.32391 1.3362 0
M  V30 7863 O 745.97 0.368676 1.77512 0
M  V30 7864 C 746.018 3.58651 0.374409 0
M  V30 7865 O 745.122 3.85816 1.4567 0
M  V30 7866 H 744.463 0.663944 -0.00862047 0
M  V30 7867 H 746.993 1.94021 -0.649394 0
M  V30 7868 H 747.003 4.03295 0.617843 0
M  V30 7869 H 745.678 4.12498 -0.530829 0
M  V30 7870 H 744.255 3.53018 1.20136 0
M  V30 7871 N 746.441 0.193421 1.56409 0
M  V30 7872 C 747.371 -0.723334 2.22014 0
M  V30 7873 C 748.352 -1.22254 1.1827 0
M  V30 7874 O 749.537 -1.27168 1.46771 0
M  V30 7875 C 746.667 -1.94366 2.87818 0
M  V30 7876 C 745.621 -1.57943 3.97791 0
M  V30 7877 C 744.947 -2.87623 4.50752 0
M  V30 7878 C 746.247 -0.790639 5.16281 0
M  V30 7879 H 747.941 -0.176426 2.9888 0
M  V30 7880 H 745.487 -0.0834166 1.43758 0
M  V30 7881 H 747.44 -2.5902 3.32396 0
M  V30 7882 H 746.164 -2.51507 2.08355 0
M  V30 7883 H 744.823 -0.956482 3.53903 0
M  V30 7884 H 744.471 -3.4285 3.68053 0
M  V30 7885 H 744.171 -2.63998 5.24956 0
M  V30 7886 H 745.695 -3.53268 4.9803 0
M  V30 7887 H 747.109 -1.34024 5.57414 0
M  V30 7888 H 745.506 -0.65258 5.96541 0
M  V30 7889 H 746.576 0.208633 4.84451 0
M  V30 7890 N 747.919 -1.57396 -0.0801906 0
M  V30 7891 C 749.165 -1.87113 -0.782083 0
M  V30 7892 C 749.498 -0.78458 -1.77646 0
M  V30 7893 O 748.773 0.205993 -1.93406 0
M  V30 7894 C 749.056 -3.27483 -1.49756 0
M  V30 7895 C 748.909 -4.46782 -0.520171 0
M  V30 7896 C 750.228 -3.65965 -2.44454 0
M  V30 7897 H 747.347 -0.680559 -0.282858 0
M  V30 7898 H 749.989 -1.89946 -0.0454139 0
M  V30 7899 H 748.139 -3.25199 -2.12551 0
M  V30 7900 H 749.811 -4.61187 0.101919 0
M  V30 7901 H 748.054 -4.33485 0.165219 0
M  V30 7902 H 748.725 -5.41761 -1.05824 0
M  V30 7903 H 751.201 -3.69289 -1.91742 0
M  V30 7904 H 750.077 -4.65086 -2.91524 0
M  V30 7905 H 750.338 -2.95446 -3.28883 0
M  V30 7906 N 749.397 0.351382 -1.53633 0
M  V30 7907 C 750.643 1.09411 -1.70754 0
M  V30 7908 C 750.976 1.88544 -0.465293 0
M  V30 7909 O 750.251 1.86923 0.537608 0
M  V30 7910 C 750.534 2.04173 -2.96623 0
M  V30 7911 C 750.387 1.28556 -4.31038 0
M  V30 7912 C 751.706 3.04102 -3.18136 0
M  V30 7913 H 748.825 0.396373 -0.621335 0
M  V30 7914 H 751.467 0.373464 -1.86293 0
M  V30 7915 H 749.617 2.65625 -2.83506 0
M  V30 7916 H 751.289 0.697786 -4.55992 0
M  V30 7917 H 749.532 0.587498 -4.29803 0
M  V30 7918 H 750.203 1.97989 -5.15271 0
M  V30 7919 H 752.679 2.5276 -3.30532 0
M  V30 7920 H 751.555 3.67616 -4.07615 0
M  V30 7921 H 751.816 3.75053 -2.34068 0
M  V30 7922 N 750.875 1.45233 0.611969 0
M  V30 7923 C 751.805 1.5641 1.73373 0
M  V30 7924 C 752.786 0.415896 1.64937 0
M  V30 7925 O 753.971 0.638478 1.83404 0
M  V30 7926 C 751.101 1.52627 3.11965 0
M  V30 7927 C 750.055 2.66119 3.35208 0
M  V30 7928 C 749.381 2.4739 4.74028 0
M  V30 7929 C 750.681 4.08157 3.25891 0
M  V30 7930 H 752.375 2.50307 1.64277 0
M  V30 7931 H 749.921 1.20467 0.788904 0
M  V30 7932 H 751.874 1.59043 3.90235 0
M  V30 7933 H 750.598 0.552564 3.21892 0
M  V30 7934 H 749.257 2.59123 2.59327 0
M  V30 7935 H 748.905 1.48168 4.80682 0
M  V30 7936 H 748.605 3.23494 4.90536 0
M  V30 7937 H 750.129 2.55653 5.54503 0
M  V30 7938 H 751.543 4.1642 3.9404 0
M  V30 7939 H 749.94 4.84617 3.5393 0
M  V30 7940 H 751.01 4.30374 2.23397 0
M  V30 7941 N 752.353 -0.854086 1.3245 0
M  V30 7942 C 753.6 -1.60831 1.23043 0
M  V30 7943 C 753.928 -1.93389 -0.2076 0
M  V30 7944 O 753.183 -1.5756 -1.16075 0
M  V30 7945 C 753.482 -2.93746 2.03587 0
M  V30 7946 C 753.148 -2.80615 3.52939 0
M  V30 7947 C 751.81 -2.76742 3.93659 0
M  V30 7948 C 754.162 -2.66507 4.4791 0
M  V30 7949 C 751.49 -2.56638 5.27592 0
M  V30 7950 C 753.842 -2.47939 5.81987 0
M  V30 7951 C 752.506 -2.42458 6.21909 0
M  V30 7952 H 751.776 -0.588523 0.450247 0
M  V30 7953 H 754.423 -0.990699 1.63882 0
M  V30 7954 H 752.728 -3.5963 1.55478 0
M  V30 7955 H 754.425 -3.51127 1.93677 0
M  V30 7956 H 751.015 -2.84456 3.20598 0
M  V30 7957 H 755.199 -2.68544 4.1737 0
M  V30 7958 H 750.455 -2.50831 5.57579 0
M  V30 7959 H 754.629 -2.36002 6.55192 0
M  V30 7960 H 752.256 -2.2664 7.2563 0
M  V30 7961 N 753.831 -1.1567 -1.07043 0
M  V30 7962 C 755.078 -0.933517 -1.79699 0
M  V30 7963 C 755.406 0.539162 -1.86878 0
M  V30 7964 O 754.661 1.41592 -1.35093 0
M  V30 7965 C 754.96 -1.49677 -3.24548 0
M  V30 7966 C 754.626 -2.99047 -3.37463 0
M  V30 7967 C 753.288 -3.39824 -3.40695 0
M  V30 7968 C 755.64 -3.95027 -3.40004 0
M  V30 7969 C 752.968 -4.75215 -3.44075 0
M  V30 7970 C 755.32 -5.30295 -3.44921 0
M  V30 7971 C 753.984 -5.70562 -3.46432 0
M  V30 7972 H 753.254 -0.341598 -0.657565 0
M  V30 7973 H 755.901 -1.44263 -1.25938 0
M  V30 7974 H 754.206 -0.908915 -3.81111 0
M  V30 7975 H 755.903 -1.29986 -3.79348 0
M  V30 7976 H 752.493 -2.6653 -3.35648 0
M  V30 7977 H 756.677 -3.64596 -3.36725 0
M  V30 7978 H 751.933 -5.05754 -3.43545 0
M  V30 7979 H 756.107 -6.0446 -3.45833 0
M  V30 7980 H 753.734 -6.75456 -3.48803 0
M  V30 7981 N 755.309 1.25446 -0.953992 0
M  V30 7982 C 756.239 2.28264 -0.491717 0
M  V30 7983 C 757.22 1.63717 0.461617 0
M  V30 7984 O 758.405 1.90821 0.36071 0
M  V30 7985 C 755.535 3.46525 0.231915 0
M  V30 7986 C 754.489 4.23247 -0.636098 0
M  V30 7987 C 753.815 5.34254 0.218238 0
M  V30 7988 C 755.115 4.85971 -1.91389 0
M  V30 7989 H 756.809 2.67183 -1.35106 0
M  V30 7990 H 754.355 1.2844 -0.651095 0
M  V30 7991 H 756.308 4.17576 0.566439 0
M  V30 7992 H 755.032 3.06594 1.12551 0
M  V30 7993 H 753.691 3.53978 -0.953696 0
M  V30 7994 H 753.339 4.90564 1.11156 0
M  V30 7995 H 753.039 5.86501 -0.359232 0
M  V30 7996 H 754.563 6.08138 0.547743 0
M  V30 7997 H 755.977 5.49168 -1.64581 0
M  V30 7998 H 754.374 5.48391 -2.43696 0
M  V30 7999 H 755.444 4.08192 -2.61738 0
M  V30 8000 N 756.787 0.722489 1.40064 0
M  V30 8001 C 758.198 0.336507 1.83642 0
M  V30 8002 C 758.549 -1.13002 1.6039 0
M  V30 8003 O 757.674 -1.87036 1.08842 0
M  V30 8004 C 758.269 0.603985 3.33373 0
M  V30 8005 C 756.828 0.271637 3.75419 0
M  V30 8006 C 755.975 0.872898 2.63203 0
M  V30 8007 H 758.926 0.921108 1.29233 0
M  V30 8008 H 758.947 -0.128471 3.80283 0
M  V30 8009 H 758.459 1.67141 3.50265 0
M  V30 8010 H 756.56 -0.790455 3.64119 0
M  V30 8011 H 756.673 0.745457 4.73265 0
M  V30 8012 H 755.037 0.300431 2.52922 0
M  V30 8013 H 755.82 1.94473 2.82905 0
M  V30 8014 N 758.265 -1.50454 0.469181 0
M  V30 8015 C 759.175 -2.32248 -0.331349 0
M  V30 8016 C 760.191 -1.42548 -0.997807 0
M  V30 8017 O 761.367 -1.75602 -0.9862 0
M  V30 8018 C 758.432 -3.17171 -1.40012 0
M  V30 8019 C 757.493 -4.2269 -0.750463 0
M  V30 8020 C 756.726 -5.03554 -1.76831 0
M  V30 8021 O 756.949 -4.85469 -2.99459 0
M  V30 8022 O 755.883 -5.86767 -1.3412 0
M  V30 8023 H 759.709 -3.01821 0.337279 0
M  V30 8024 H 757.294 -1.47602 0.231066 0
M  V30 8025 H 759.176 -3.69871 -2.01924 0
M  V30 8026 H 757.851 -2.50328 -2.05226 0
M  V30 8027 H 756.758 -3.73986 -0.0924446 0
M  V30 8028 H 758.091 -4.91997 -0.14131 0
M  V30 8029 N 759.743 -0.201713 -1.56304 0
M  V30 8030 C 760.971 0.440723 -2.02152 0
M  V30 8031 C 761.386 1.54735 -1.08179 0
M  V30 8032 O 760.743 1.82289 -0.0878196 0
M  V30 8033 C 760.794 0.990884 -3.47655 0
M  V30 8034 O 760.515 -0.0715937 -4.38041 0
M  V30 8035 C 762.016 1.70854 -4.09052 0
M  V30 8036 H 759.236 0.109987 -0.661924 0
M  V30 8037 H 761.78 -0.312358 -2.021 0
M  V30 8038 H 759.935 1.69432 -3.48384 0
M  V30 8039 H 760.349 0.338892 -5.23404 0
M  V30 8040 H 761.823 2.04572 -5.12693 0
M  V30 8041 H 762.3 2.61462 -3.52894 0
M  V30 8042 H 762.906 1.0508 -4.12114 0
M  V30 8043 N 761.222 1.57436 0.0718424 0
M  V30 8044 C 762.154 2.00412 1.1121 0
M  V30 8045 C 763.167 0.910074 1.34987 0
M  V30 8046 O 764.356 1.18796 1.33228 0
M  V30 8047 C 761.456 2.32786 2.46301 0
M  V30 8048 C 760.629 3.64036 2.4248 0
M  V30 8049 C 759.688 3.8408 3.59679 0
M  V30 8050 O 758.714 4.55667 3.4111 0
M  V30 8051 N 759.916 3.2643 4.80025 0
M  V30 8052 H 762.681 2.90264 0.746118 0
M  V30 8053 H 760.242 1.59791 0.260495 0
M  V30 8054 H 762.234 2.43368 3.23348 0
M  V30 8055 H 760.804 1.48824 2.74901 0
M  V30 8056 H 760.024 3.64208 1.50818 0
M  V30 8057 H 761.312 4.50217 2.37027 0
M  V30 8058 H 760.71 2.68325 4.98014 0
M  V30 8059 H 759.267 3.42461 5.54584 0
M  V30 8060 N 762.7 -0.34323 1.53817 0
M  V30 8061 C 763.948 -1.0813 1.70741 0
M  V30 8062 C 764.269 -1.89165 0.473461 0
M  V30 8063 O 763.539 -1.89075 -0.512605 0
M  V30 8064 H 762.119 -0.40219 0.629486 0
M  V30 8065 H 764.781 -0.384426 1.91071 0
M  V30 8066 H 763.877 -1.7585 2.57843 0
M  V30 8067 N 764.178 -1.45556 -0.604258 0
M  V30 8068 C 765.108 -1.57327 -1.72541 0
M  V30 8069 C 766.089 -0.424637 -1.64714 0
M  V30 8070 O 767.274 -0.648196 -1.83063 0
M  V30 8071 C 764.404 -1.54279 -3.11152 0
M  V30 8072 C 763.358 -2.67893 -3.33792 0
M  V30 8073 C 762.684 -2.499 -4.72709 0
M  V30 8074 C 763.984 -4.0988 -3.23722 0
M  V30 8075 H 765.678 -2.51175 -1.62947 0
M  V30 8076 H 763.224 -1.20884 -0.782504 0
M  V30 8077 H 765.177 -1.6111 -3.89386 0
M  V30 8078 H 763.901 -0.569627 -3.21594 0
M  V30 8079 H 762.56 -2.60495 -2.57949 0
M  V30 8080 H 762.208 -1.50715 -4.79889 0
M  V30 8081 H 761.908 -3.26091 -4.88813 0
M  V30 8082 H 763.432 -2.5859 -5.5314 0
M  V30 8083 H 764.846 -4.18503 -3.91826 0
M  V30 8084 H 763.243 -4.86487 -3.51355 0
M  V30 8085 H 764.313 -4.31553 -2.21111 0
M  V30 8086 N 765.656 0.84705 -1.32902 0
M  V30 8087 C 767.067 1.41785 -1.21466 0
M  V30 8088 C 767.418 1.95464 0.169767 0
M  V30 8089 O 766.543 1.88157 1.06892 0
M  V30 8090 C 767.138 2.57734 -2.19906 0
M  V30 8091 C 765.697 3.10791 -2.12334 0
M  V30 8092 C 764.844 1.83562 -2.07847 0
M  V30 8093 H 767.795 0.653532 -1.44619 0
M  V30 8094 H 767.816 3.35123 -1.80202 0
M  V30 8095 H 767.328 2.18635 -3.20656 0
M  V30 8096 H 765.429 3.54455 -1.14858 0
M  V30 8097 H 765.542 3.71519 -3.02506 0
M  V30 8098 H 763.906 2.03475 -1.53199 0
M  V30 8099 H 764.689 1.4667 -3.10392 0
M  V30 8100 N 767.134 1.16236 1.06428 0
M  V30 8101 C 768.064 0.890807 2.1584 0
M  V30 8102 C 769.045 -0.162333 1.69324 0
M  V30 8103 O 770.23 -0.0147191 1.94194 0
M  V30 8104 C 767.36 0.389615 3.45108 0
M  V30 8105 C 766.314 1.38051 4.05125 0
M  V30 8106 C 765.64 0.737773 5.29586 0
M  V30 8107 C 766.94 2.74965 4.44062 0
M  V30 8108 H 768.634 1.80577 2.38814 0
M  V30 8109 H 766.18 0.869657 1.14774 0
M  V30 8110 H 768.133 0.187127 4.20984 0
M  V30 8111 H 766.857 -0.560851 3.21748 0
M  V30 8112 H 765.516 1.56952 3.31303 0
M  V30 8113 H 765.164 -0.219135 5.02522 0
M  V30 8114 H 764.864 1.39914 5.70699 0
M  V30 8115 H 766.388 0.545275 6.0816 0
M  V30 8116 H 767.802 2.59855 5.11027 0
M  V30 8117 H 766.199 3.37563 4.96156 0
M  V30 8118 H 767.269 3.30321 3.54987 0
M  V30 8119 N 768.612 -1.24939 0.960631 0
M  V30 8120 C 770.023 -1.74701 0.658529 0
M  V30 8121 C 770.374 -1.77967 -0.825959 0
M  V30 8122 O 769.499 -1.40444 -1.64634 0
M  V30 8123 C 770.094 -3.17263 1.18867 0
M  V30 8124 C 768.653 -3.64561 0.936614 0
M  V30 8125 C 767.8 -2.43423 1.32817 0
M  V30 8126 H 770.751 -1.10741 1.13676 0
M  V30 8127 H 770.772 -3.76481 0.551589 0
M  V30 8128 H 770.284 -3.14854 2.26912 0
M  V30 8129 H 768.385 -3.72378 -0.128608 0
M  V30 8130 H 768.498 -4.52392 1.57729 0
M  V30 8131 H 766.862 -2.43513 0.746548 0
M  V30 8132 H 767.645 -2.437 2.41796 0
M  V30 8133 N 770.09 -0.729906 -1.39679 0
M  V30 8134 C 771.367 -0.202149 -1.94553 0
M  V30 8135 C 771.747 1.29507 -1.66707 0
M  V30 8136 O 771.095 2.05819 -0.992517 0
M  V30 8137 C 771.305 -0.530279 -3.44948 0
M  V30 8138 C 772.653 -0.476808 -4.21914 0
M  V30 8139 O 773.677 -0.467171 -3.53123 0
M  V30 8140 O 772.536 -0.466869 -5.44502 0
M  V30 8141 H 769.63 -0.0351644 -0.826252 0
M  V30 8142 H 772.176 -0.808417 -1.49207 0
M  V30 8143 H 770.948 -1.56526 -3.5863 0
M  V30 8144 H 770.571 0.10522 -3.97461 0
M  V30 8145 N 771.568 1.50203 -0.477153 0
M  V30 8146 C 772.796 2.0677 0.0732489 0
M  V30 8147 C 773.211 1.34033 1.32968 0
M  V30 8148 O 772.568 0.411412 1.77802 0
M  V30 8149 C 772.619 3.59751 0.35518 0
M  V30 8150 O 772.34 4.29747 -0.851425 0
M  V30 8151 C 773.841 4.3296 0.951877 0
M  V30 8152 H 771.061 0.670929 -0.00978923 0
M  V30 8153 H 773.605 1.93293 -0.667676 0
M  V30 8154 H 771.76 3.7301 1.04605 0
M  V30 8155 H 772.174 5.2106 -0.599708 0
M  V30 8156 H 773.648 5.40952 1.09888 0
M  V30 8157 H 774.125 3.93856 1.94356 0
M  V30 8158 H 774.731 4.24246 0.299208 0
M  V30 8159 N 773.046 0.209999 1.56195 0
M  V30 8160 C 774.295 -0.425106 1.97169 0
M  V30 8161 C 774.608 -1.61718 1.10031 0
M  V30 8162 O 775.814 -2.32105 1.40853 0
M  V30 8163 C 774.27 -0.80771 3.50719 0
M  V30 8164 C 773.878 0.360902 4.46544 0
M  V30 8165 C 775.622 -1.40906 4.00432 0
M  V30 8166 C 773.529 -0.0434919 5.91384 0
M  V30 8167 H 772.459 -0.162598 0.736259 0
M  V30 8168 H 775.11 0.304382 1.80958 0
M  V30 8169 H 773.492 -1.59429 3.62489 0
M  V30 8170 H 774.666 1.13846 4.46515 0
M  V30 8171 H 772.981 0.874729 4.07109 0
M  V30 8172 H 775.578 -1.72433 5.06133 0
M  V30 8173 H 775.921 -2.32081 3.45607 0
M  V30 8174 H 776.454 -0.686154 3.91838 0
M  V30 8175 H 773.193 0.834448 6.50167 0
M  V30 8176 H 772.713 -0.785598 5.94633 0
M  V30 8177 H 774.392 -0.474176 6.4526 0
M  V30 8178 N 774.524 -1.57472 -0.0634922 0
M  V30 8179 C 775.456 -2.00999 -1.10145 0
M  V30 8180 C 776.469 -0.917219 -1.34503 0
M  V30 8181 O 777.658 -1.19501 -1.32596 0
M  V30 8182 C 774.758 -2.34089 -2.45063 0
M  V30 8183 C 773.931 -3.65317 -2.40546 0
M  V30 8184 C 772.99 -3.85982 -3.57637 0
M  V30 8185 O 772.016 -4.5747 -3.38689 0
M  V30 8186 N 773.218 -3.28971 -4.78287 0
M  V30 8187 H 775.983 -2.90656 -0.730714 0
M  V30 8188 H 773.544 -1.59926 -0.252017 0
M  V30 8189 H 775.536 -2.4508 -3.22053 0
M  V30 8190 H 774.106 -1.50279 -2.74107 0
M  V30 8191 H 773.326 -3.65003 -1.48885 0
M  V30 8192 H 774.614 -4.51468 -2.34636 0
M  V30 8193 H 774.012 -2.70962 -4.96584 0
M  V30 8194 H 772.569 -3.45398 -5.5276 0
M  V30 8195 N 776.003 0.335068 -1.53997 0
M  V30 8196 C 777.28 1.09188 -1.62288 0
M  V30 8197 C 777.66 2.0626 -0.449458 0
M  V30 8198 O 777.008 2.21596 0.557444 0
M  V30 8199 C 777.218 1.80403 -2.98757 0
M  V30 8200 C 778.566 2.33841 -3.54406 0
M  V30 8201 O 779.59 1.90487 -3.00987 0
M  V30 8202 O 778.449 3.1318 -4.47862 0
M  V30 8203 H 775.543 0.502621 -0.656736 0
M  V30 8204 H 778.089 0.33588 -1.66343 0
M  V30 8205 H 776.861 1.09732 -3.75599 0
M  V30 8206 H 776.484 2.62841 -2.9833 0
M  V30 8207 N 777.481 1.45874 0.596531 0
M  V30 8208 C 778.411 1.5824 1.71705 0
M  V30 8209 C 779.392 0.433366 1.64487 0
M  V30 8210 O 780.577 0.657895 1.82717 0
M  V30 8211 C 777.707 1.55927 3.10329 0
M  V30 8212 C 776.661 2.69659 3.32367 0
M  V30 8213 C 775.987 2.52403 4.71377 0
M  V30 8214 C 777.287 4.11591 3.21544 0
M  V30 8215 H 778.981 2.52035 1.61613 0
M  V30 8216 H 776.527 1.21297 0.776082 0
M  V30 8217 H 778.48 1.63173 3.88526 0
M  V30 8218 H 777.204 0.586674 3.21288 0
M  V30 8219 H 775.863 2.61859 2.56564 0
M  V30 8220 H 775.511 1.53258 4.79083 0
M  V30 8221 H 775.211 3.28679 4.87077 0
M  V30 8222 H 776.735 2.6152 5.5176 0
M  V30 8223 H 778.149 4.20576 3.89601 0
M  V30 8224 H 776.546 4.88344 3.4877 0
M  V30 8225 H 777.616 4.32719 2.1882 0
M  V30 8226 N 778.959 -0.83999 1.33349 0
M  V30 8227 C 779.869 -1.98182 1.25543 0
M  V30 8228 C 780.885 -1.73204 0.166208 0
M  V30 8229 O 782.061 -1.97596 0.389589 0
M  V30 8230 C 779.126 -3.32157 0.993614 0
M  V30 8231 C 778.187 -3.70258 2.17273 0
M  V30 8232 C 777.42 -4.9784 1.92331 0
M  V30 8233 O 777.643 -5.63679 0.873074 0
M  V30 8234 O 776.577 -5.33418 2.78835 0
M  V30 8235 H 780.403 -2.07708 2.21565 0
M  V30 8236 H 777.988 -0.972852 1.13384 0
M  V30 8237 H 779.87 -4.12433 0.864711 0
M  V30 8238 H 778.545 -3.23637 0.0636596 0
M  V30 8239 H 777.452 -2.90497 2.35716 0
M  V30 8240 H 778.785 -3.83442 3.08598 0
M  V30 8241 N 780.437 -1.16799 -1.0581 0
M  V30 8242 C 781.662 -0.977402 -1.82925 0
M  V30 8243 C 782.087 0.469514 -1.82146 0
M  V30 8244 O 781.445 1.33576 -1.22585 0
M  V30 8245 C 781.493 -1.51543 -3.27211 0
M  V30 8246 O 780.597 -0.725021 -4.05977 0
M  V30 8247 H 779.938 -0.347474 -0.565825 0
M  V30 8248 H 782.468 -1.55151 -1.33376 0
M  V30 8249 H 782.478 -1.53502 -3.78023 0
M  V30 8250 H 781.153 -2.56872 -3.27093 0
M  V30 8251 H 779.73 -0.77634 -3.64729 0
M  V30 8252 N 781.915 1.24427 -0.967243 0
M  V30 8253 C 782.847 2.24641 -0.454856 0
M  V30 8254 C 783.86 1.56849 0.436152 0
M  V30 8255 O 785.049 1.76846 0.242401 0
M  V30 8256 C 782.149 3.36954 0.362672 0
M  V30 8257 C 781.322 4.34318 -0.518324 0
M  V30 8258 C 780.381 5.25638 0.243122 0
M  V30 8259 O 779.407 5.68043 -0.362791 0
M  V30 8260 N 780.609 5.59897 1.53282 0
M  V30 8261 H 783.374 2.69238 -1.31648 0
M  V30 8262 H 780.935 1.38464 -0.839015 0
M  V30 8263 H 782.927 3.95014 0.880094 0
M  V30 8264 H 781.497 2.91646 1.12522 0
M  V30 8265 H 780.717 3.74953 -1.21672 0
M  V30 8266 H 782.005 4.96338 -1.11919 0
M  V30 8267 H 781.403 5.27373 2.04682 0
M  V30 8268 H 779.96 6.20488 1.99594 0
M  V30 8269 N 783.393 0.737304 1.3929 0
M  V30 8270 C 784.34 0.0988364 2.30588 0
M  V30 8271 C 785.31 -0.727206 1.49335 0
M  V30 8272 O 786.495 -0.686694 1.78014 0
M  V30 8273 C 783.635 -0.800734 3.35682 0
M  V30 8274 C 782.748 0.0381731 4.31983 0
M  V30 8275 C 781.883 -0.862884 5.24145 0
M  V30 8276 C 780.922 -0.0193639 6.12097 0
M  V30 8277 N 780.059 -0.87648 6.96608 0
M  V30 8278 H 784.899 0.883031 2.84617 0
M  V30 8279 H 782.436 0.447111 1.4014 0
M  V30 8280 H 784.394 -1.33676 3.95205 0
M  V30 8281 H 783.024 -1.55088 2.83103 0
M  V30 8282 H 782.076 0.691641 3.74059 0
M  V30 8283 H 783.388 0.690294 4.94 0
M  V30 8284 H 782.542 -1.46667 5.88705 0
M  V30 8285 H 781.281 -1.54878 4.62454 0
M  V30 8286 H 780.286 0.597202 5.46547 0
M  V30 8287 H 781.511 0.663348 6.75852 0
M  V30 8288 H 779.457 -1.54762 6.37483 0
M  V30 8289 H 779.374 -0.280892 7.55478 0
M  V30 8290 H 780.642 -1.46575 7.65595 0
M  V30 8291 N 784.871 -1.49948 0.485112 0
M  V30 8292 C 786.096 -2.073 -0.0645059 0
M  V30 8293 C 786.521 -1.345 -1.31497 0
M  V30 8294 O 785.879 -0.39687 -1.76903 0
M  V30 8295 C 785.927 -3.59201 -0.317304 0
M  V30 8296 O 785.031 -3.88085 -1.39514 0
M  V30 8297 H 784.372 -0.663723 0.0191822 0
M  V30 8298 H 786.902 -1.92963 0.680179 0
M  V30 8299 H 786.912 -4.04227 -0.553604 0
M  V30 8300 H 785.587 -4.11602 0.596387 0
M  V30 8301 H 784.164 -3.54885 -1.14504 0
M  V30 8302 N 786.349 -0.21828 -1.56081 0
M  V30 8303 C 787.577 0.419258 -2.02608 0
M  V30 8304 C 787.992 1.53578 -1.09814 0
M  V30 8305 O 787.349 1.82185 -0.107149 0
M  V30 8306 C 787.4 0.953955 -3.48686 0
M  V30 8307 O 787.121 -0.11805 -4.37941 0
M  V30 8308 C 788.622 1.66506 -4.10841 0
M  V30 8309 H 785.842 0.10296 -0.663054 0
M  V30 8310 H 788.386 -0.333776 -2.01758 0
M  V30 8311 H 786.541 1.65727 -3.50162 0
M  V30 8312 H 786.955 0.283359 -5.23734 0
M  V30 8313 H 788.429 1.99123 -5.14834 0
M  V30 8314 H 788.906 2.57705 -3.55647 0
M  V30 8315 H 789.512 1.00703 -4.13206 0
M  V30 8316 N 787.827 1.57504 0.0551401 0
M  V30 8317 C 788.79 2.03826 1.04821 0
M  V30 8318 C 789.79 0.937968 1.30609 0
M  V30 8319 O 790.98 1.20237 1.2605 0
M  V30 8320 C 788.112 2.43309 2.38775 0
M  V30 8321 H 789.305 2.92802 0.6486 0
M  V30 8322 H 786.858 1.53368 0.301315 0
M  V30 8323 H 787.593 1.5741 2.83536 0
M  V30 8324 H 787.378 3.23615 2.21395 0
M  V30 8325 H 788.868 2.79666 3.10124 0
M  V30 8326 N 789.305 -0.326896 1.54172 0
M  V30 8327 C 790.268 -1.38515 1.8261 0
M  V30 8328 C 791.268 -1.44872 0.697771 0
M  V30 8329 O 792.458 -1.44957 0.966078 0
M  V30 8330 C 789.59 -2.77281 1.98313 0
M  V30 8331 H 790.783 -1.14556 2.77159 0
M  V30 8332 H 788.336 -0.562199 1.45839 0
M  V30 8333 H 789.071 -3.065 1.05964 0
M  V30 8334 H 788.856 -2.74061 2.80416 0
M  V30 8335 H 790.346 -3.53845 2.21773 0
M  V30 8336 N 790.784 -1.46188 -0.588786 0
M  V30 8337 C 791.716 -1.52319 -1.71265 0
M  V30 8338 C 792.729 -0.412096 -1.57498 0
M  V30 8339 O 793.918 -0.680146 -1.65034 0
M  V30 8340 C 791.018 -1.38164 -3.09458 0
M  V30 8341 C 790.191 -2.63284 -3.49286 0
M  V30 8342 C 789.25 -2.43415 -4.66514 0
M  V30 8343 O 788.276 -3.17113 -4.72682 0
M  V30 8344 N 789.478 -1.49187 -5.61002 0
M  V30 8345 H 792.243 -2.49219 -1.66463 0
M  V30 8346 H 789.804 -1.42167 -0.774601 0
M  V30 8347 H 791.796 -1.22653 -3.85666 0
M  V30 8348 H 790.366 -0.494678 -3.08661 0
M  V30 8349 H 789.586 -2.93779 -2.62845 0
M  V30 8350 H 790.874 -3.46413 -3.7266 0
M  V30 8351 H 790.272 -0.884027 -5.5875 0
M  V30 8352 H 788.829 -1.39642 -6.36666 0
M  V30 8353 N 792.262 0.832906 -1.33792 0
M  V30 8354 C 793.51 1.58539 -1.25338 0
M  V30 8355 C 793.831 1.94175 0.179204 0
M  V30 8356 O 793.101 1.61458 1.10941 0
M  V30 8357 H 791.681 0.58784 -0.460926 0
M  V30 8358 H 794.343 0.995064 -1.67584 0
M  V30 8359 H 793.439 2.51268 -1.85123 0
M  V30 8360 N 793.74 1.17359 1.05189 0
M  V30 8361 C 794.688 0.886527 2.15043 0
M  V30 8362 C 795.682 -0.148834 1.68745 0
M  V30 8363 O 796.888 -0.00175123 1.8 0
M  V30 8364 H 793.263 0.269147 0.702185 0
M  V30 8365 H 795.234 1.82016 2.36459 0
M  V30 8366 C 793.983 0.416333 3.45198 0
M  V30 8367 H 793.306 1.20449 3.81225 0
M  V30 8368 H 794.746 0.254362 4.23236 0
M  V30 8369 C 793.205 -0.866016 3.25579 0
M  V30 8370 O 793.735 -1.9328 3.52144 0
M  V30 8371 N 791.941 -0.814179 2.78961 0
M  V30 8372 H 791.488 0.0541618 2.57543 0
M  V30 8373 H 791.446 -1.67264 2.66214 0
M  V30 8374 N 795.218 -1.23913 0.973828 0
M  V30 8375 C 796.634 -1.44325 0.681363 0
M  V30 8376 C 796.834 -1.86832 -0.754728 0
M  V30 8377 O 795.89 -2.01024 -1.52793 0
M  V30 8378 C 797.203 -2.50017 1.67069 0
M  V30 8379 C 798.751 -2.63838 1.68399 0
M  V30 8380 C 799.226 -3.72734 2.66145 0
M  V30 8381 N 800.717 -3.80169 2.64624 0
M  V30 8382 C 801.452 -4.6397 3.36927 0
M  V30 8383 N 800.948 -5.51911 4.18767 0
M  V30 8384 N 802.741 -4.58106 3.25722 0
M  V30 8385 H 794.892 -0.946204 1.9016 0
M  V30 8386 H 797.155 -0.477374 0.819035 0
M  V30 8387 H 796.861 -2.25686 2.69738 0
M  V30 8388 H 796.735 -3.48287 1.4483 0
M  V30 8389 H 799.122 -2.87524 0.664379 0
M  V30 8390 H 799.203 -1.65906 1.94702 0
M  V30 8391 H 798.847 -3.49797 3.68245 0
M  V30 8392 H 798.777 -4.70193 2.3712 0
M  V30 8393 H 801.268 -3.17319 2.05224 0
M  V30 8394 H 801.581 -6.12828 4.70809 0
M  V30 8395 H 799.926 -5.51556 4.2286 0
M  V30 8396 H 803.117 -3.8842 2.61242 0
M  V30 8397 H 803.29 -5.23188 3.82333 0
M  V30 8398 N 796.696 -0.74468 -1.38897 0
M  V30 8399 C 797.628 -0.0713608 -2.29089 0
M  V30 8400 C 798.641 0.693224 -1.47303 0
M  V30 8401 O 799.83 0.535785 -1.70269 0
M  V30 8402 C 796.93 0.923078 -3.26087 0
M  V30 8403 C 796.103 0.217998 -4.36856 0
M  V30 8404 C 795.162 1.12192 -5.14101 0
M  V30 8405 O 794.188 0.595771 -5.66073 0
M  V30 8406 N 795.39 2.45082 -5.26227 0
M  V30 8407 H 798.155 -0.845906 -2.87514 0
M  V30 8408 H 795.716 -0.594712 -1.50581 0
M  V30 8409 H 797.708 1.53061 -3.74639 0
M  V30 8410 H 796.278 1.59876 -2.68623 0
M  V30 8411 H 795.498 -0.570134 -3.90055 0
M  V30 8412 H 796.786 -0.270248 -5.08082 0
M  V30 8413 H 796.184 2.90294 -4.85537 0
M  V30 8414 H 794.741 3.00907 -5.78185 0
M  V30 8415 N 798.174 1.49689 -0.493057 0
M  V30 8416 C 799.084 2.32746 0.294358 0
M  V30 8417 C 800.1 1.44117 0.975003 0
M  V30 8418 O 801.276 1.77149 0.958138 0
M  V30 8419 C 798.341 3.19358 1.34949 0
M  V30 8420 C 797.402 4.2383 0.683122 0
M  V30 8421 C 796.635 5.06303 1.68798 0
M  V30 8422 O 796.858 4.90172 2.91698 0
M  V30 8423 O 795.792 5.88826 1.24768 0
M  V30 8424 H 799.618 3.01247 -0.385254 0
M  V30 8425 H 797.203 1.47216 -0.254519 0
M  V30 8426 H 799.085 3.73037 1.96014 0
M  V30 8427 H 797.76 2.53561 2.01217 0
M  V30 8428 H 796.667 3.74086 0.0329351 0
M  V30 8429 H 798 4.9216 0.0630192 0
M  V30 8430 N 799.652 0.226554 1.55963 0
M  V30 8431 C 800.615 -0.668015 2.19249 0
M  V30 8432 C 801.615 -1.11794 1.1558 0
M  V30 8433 O 802.805 -1.02593 1.40784 0
M  V30 8434 C 799.937 -1.91571 2.81981 0
M  V30 8435 H 801.13 -0.116175 2.99675 0
M  V30 8436 H 798.683 -0.0230497 1.56283 0
M  V30 8437 H 799.418 -2.50929 2.05439 0
M  V30 8438 H 799.203 -1.6015 3.57903 0
M  V30 8439 H 800.693 -2.55294 3.30477 0
M  V30 8440 N 801.13 -1.57531 -0.0467866 0
M  V30 8441 C 802.376 -1.8873 -0.742218 0
M  V30 8442 C 802.709 -0.822084 -1.75941 0
M  V30 8443 O 801.984 0.164922 -1.938 0
M  V30 8444 C 802.267 -3.30586 -1.42776 0
M  V30 8445 C 802.12 -4.47785 -0.425285 0
M  V30 8446 C 803.439 -3.71068 -2.36636 0
M  V30 8447 H 800.558 -0.686406 -0.268359 0
M  V30 8448 H 803.2 -1.89999 -0.00511341 0
M  V30 8449 H 801.35 -3.29634 -2.05605 0
M  V30 8450 H 803.022 -4.60867 0.199721 0
M  V30 8451 H 801.265 -4.33037 0.25713 0
M  V30 8452 H 801.936 -5.43884 -0.943086 0
M  V30 8453 H 804.412 -3.73273 -1.83866 0
M  V30 8454 H 803.288 -4.71165 -2.81593 0
M  V30 8455 H 803.549 -3.02355 -3.22542 0
M  V30 8456 N 802.608 0.318715 -1.54344 0
M  V30 8457 C 803.836 1.0755 -1.7675 0
M  V30 8458 C 804.251 1.81543 -0.518422 0
M  V30 8459 O 803.608 1.75198 0.511078 0
M  V30 8460 C 803.659 2.06983 -2.96378 0
M  V30 8461 O 803.38 1.35995 -4.16458 0
M  V30 8462 C 804.881 2.94841 -3.31034 0
M  V30 8463 H 802.101 0.319711 -0.589937 0
M  V30 8464 H 804.645 0.363369 -2.01246 0
M  V30 8465 H 802.8 2.73724 -2.74142 0
M  V30 8466 H 803.214 2.02623 -4.83781 0
M  V30 8467 H 804.688 3.60496 -4.18027 0
M  V30 8468 H 805.165 3.62199 -2.48412 0
M  V30 8469 H 805.771 2.33656 -3.55366 0
M  V30 8470 N 804.086 1.46499 0.581025 0
M  V30 8471 C 805.332 1.52121 1.34116 0
M  V30 8472 C 805.665 0.173031 1.93428 0
M  V30 8473 O 804.94 -0.815729 1.76568 0
M  V30 8474 C 805.223 2.62108 2.46924 0
M  V30 8475 C 805.076 4.06462 1.92636 0
M  V30 8476 C 806.395 2.68167 3.48962 0
M  V30 8477 H 803.514 0.5538 0.486287 0
M  V30 8478 H 806.156 1.78443 0.652538 0
M  V30 8479 H 804.306 2.39794 3.05665 0
M  V30 8480 H 805.978 4.40068 1.3834 0
M  V30 8481 H 804.221 4.15862 1.23455 0
M  V30 8482 H 804.892 4.79152 2.74076 0
M  V30 8483 H 807.368 2.8823 3.00104 0
M  V30 8484 H 806.244 3.46942 4.2535 0
M  V30 8485 H 806.505 1.74284 4.06297 0
M  V30 8486 N 805.565 -0.825799 1.34232 0
M  V30 8487 C 806.475 -1.9684 1.27638 0
M  V30 8488 C 807.491 -1.73018 0.184569 0
M  V30 8489 O 808.667 -1.97172 0.410525 0
M  V30 8490 C 805.732 -3.31084 1.02879 0
M  V30 8491 C 804.793 -3.67933 2.21188 0
M  V30 8492 C 804.026 -4.95772 1.976 0
M  V30 8493 O 804.249 -5.62721 0.93281 0
M  V30 8494 O 803.183 -5.30431 2.84477 0
M  V30 8495 H 807.009 -2.05346 2.23756 0
M  V30 8496 H 804.594 -0.960772 1.1441 0
M  V30 8497 H 806.476 -4.11492 0.908406 0
M  V30 8498 H 805.151 -3.23552 0.0979821 0
M  V30 8499 H 804.058 -2.87981 2.38784 0
M  V30 8500 H 805.391 -3.80147 3.12648 0
M  V30 8501 N 807.043 -1.17915 -1.04565 0
M  V30 8502 C 808.268 -0.996749 -1.81878 0
M  V30 8503 C 808.693 0.450169 -1.82634 0
M  V30 8504 O 808.051 1.32268 -1.23995 0
M  V30 8505 C 808.099 -1.55005 -3.25585 0
M  V30 8506 O 807.203 -0.76804 -4.05185 0
M  V30 8507 H 806.544 -0.353456 -0.562108 0
M  V30 8508 H 809.074 -1.56557 -1.31723 0
M  V30 8509 H 809.084 -1.57503 -3.76373 0
M  V30 8510 H 807.759 -2.60327 -3.2435 0
M  V30 8511 H 806.336 -0.81498 -3.63885 0
M  V30 8512 N 808.521 1.23394 -0.980386 0
M  V30 8513 C 809.749 1.95844 -0.667286 0
M  V30 8514 C 810.164 1.72574 0.765735 0
M  V30 8515 O 809.521 1.01715 1.51526 0
M  V30 8516 C 809.572 3.48844 -0.948151 0
M  V30 8517 O 809.293 3.71325 -2.32485 0
M  V30 8518 C 810.794 4.38494 -0.651002 0
M  V30 8519 H 808.014 0.623535 -0.247882 0
M  V30 8520 H 810.558 1.56885 -1.31176 0
M  V30 8521 H 808.713 3.85819 -0.349681 0
M  V30 8522 H 809.127 4.65619 -2.41452 0
M  V30 8523 H 810.601 5.44648 -0.897887 0
M  V30 8524 H 811.078 4.37236 0.414922 0
M  V30 8525 H 811.684 4.07127 -1.22995 0
M  V30 8526 N 809.999 0.752036 1.385 0
M  V30 8527 C 811.224 0.316993 2.04963 0
M  V30 8528 C 811.649 -1.04582 1.56346 0
M  V30 8529 O 811.007 -1.66616 0.714755 0
M  V30 8530 C 811.055 0.347235 3.58924 0
M  V30 8531 O 810.159 -0.659296 4.07096 0
M  V30 8532 H 809.5 0.140652 0.648932 0
M  V30 8533 H 812.03 1.02272 1.77205 0
M  V30 8534 H 812.04 0.19757 4.07521 0
M  V30 8535 H 810.715 1.34157 3.93668 0
M  V30 8536 H 809.292 -0.474371 3.6987 0
M  V30 8537 N 811.477 -1.49425 0.500989 0
M  V30 8538 C 812.407 -2.31971 -0.266775 0
M  V30 8539 C 813.388 -1.40245 -0.962563 0
M  V30 8540 O 814.573 -1.69154 -0.953968 0
M  V30 8541 C 811.703 -3.20757 -1.33163 0
M  V30 8542 C 810.657 -4.21275 -0.75572 0
M  V30 8543 C 809.983 -4.98997 -1.92109 0
M  V30 8544 C 811.283 -5.21686 0.253213 0
M  V30 8545 H 812.977 -2.96408 0.422237 0
M  V30 8546 H 810.523 -1.4254 0.204505 0
M  V30 8547 H 812.476 -3.77315 -1.87646 0
M  V30 8548 H 811.2 -2.54263 -2.04983 0
M  V30 8549 H 809.859 -3.65861 -0.232637 0
M  V30 8550 H 809.507 -4.28951 -2.62698 0
M  V30 8551 H 809.207 -5.67011 -1.54182 0
M  V30 8552 H 810.731 -5.584 -2.47026 0
M  V30 8553 H 812.145 -5.72939 -0.203483 0
M  V30 8554 H 810.542 -5.9759 0.548322 0
M  V30 8555 H 811.612 -4.70596 1.16909 0
M  V30 8556 O 812.994 -0.376506 -1.5705 0
M  V30 8557 H 813.685 0.171595 -1.92938 0
M  V30 END ATOM
M  V30 BEGIN BOND
M  V30 END BOND
M  V30 END CTAB
M  END
$$$$
