445580
  -OEChem-10051720213D

 56 55  0     0  0  0  0  0  0999 V2000
   -3.3950   -1.4509    1.3010 O   0  0  0  0  0  0  0  0  0  0  0  0
   -4.6390   -2.6325   -0.1892 O   0  0  0  0  0  0  0  0  0  0  0  0
   -2.7398   -0.4666   -1.7205 C   0  0  0  0  0  0  0  0  0  0  0  0
   -0.4045    1.6390   -1.8489 C   0  0  0  0  0  0  0  0  0  0  0  0
   -1.3045    2.0927    0.9781 C   0  0  0  0  0  0  0  0  0  0  0  0
    1.0375    0.8212    2.3842 C   0  0  0  0  0  0  0  0  0  0  0  0
   -3.9313   -0.3955   -0.7693 C   0  0  0  0  0  0  0  0  0  0  0  0
   -2.6563    0.7361   -2.6177 C   0  0  0  0  0  0  0  0  0  0  0  0
    0.5361   -1.9697    0.9573 C   0  0  0  0  0  0  0  0  0  0  0  0
   -1.6605    1.6347   -2.6709 C   0  0  0  0  0  0  0  0  0  0  0  0
   -0.2252    2.9370   -1.1186 C   0  0  0  0  0  0  0  0  0  0  0  0
   -0.6272    3.1408    0.1452 C   0  0  0  0  0  0  0  0  0  0  0  0
   -1.0073    2.2749    2.4381 C   0  0  0  0  0  0  0  0  0  0  0  0
    2.3566   -1.2961   -1.5586 C   0  0  0  0  0  0  0  0  0  0  0  0
    0.0361    1.7077    3.0621 C   0  0  0  0  0  0  0  0  0  0  0  0
    1.0833   -0.5459    3.0001 C   0  0  0  0  0  0  0  0  0  0  0  0
    0.8719   -1.7274    2.3998 C   0  0  0  0  0  0  0  0  0  0  0  0
    1.5575   -2.8527    0.2988 C   0  0  0  0  0  0  0  0  0  0  0  0
    2.3205   -2.5714   -0.7689 C   0  0  0  0  0  0  0  0  0  0  0  0
    3.7293   -1.0331   -2.1069 C   0  0  0  0  0  0  0  0  0  0  0  0
    4.4815    0.2468   -0.0893 C   0  0  0  0  0  0  0  0  0  0  0  0
    4.6771   -0.3455   -1.4529 C   0  0  0  0  0  0  0  0  0  0  0  0
   -4.0409   -1.6102    0.1192 C   0  0  0  0  0  0  0  0  0  0  0  0
    3.9441    1.6667   -0.1719 C   0  0  0  0  0  0  0  0  0  0  0  0
   -1.8259   -0.6269   -1.1428 H   0  0  0  0  0  0  0  0  0  0  0  0
   -2.8406   -1.3560   -2.3558 H   0  0  0  0  0  0  0  0  0  0  0  0
    0.4423    1.5382   -2.5413 H   0  0  0  0  0  0  0  0  0  0  0  0
   -0.3098    0.7764   -1.1905 H   0  0  0  0  0  0  0  0  0  0  0  0
   -2.3881    2.2227    0.8587 H   0  0  0  0  0  0  0  0  0  0  0  0
   -1.1040    1.0647    0.6731 H   0  0  0  0  0  0  0  0  0  0  0  0
    2.0249    1.2766    2.5377 H   0  0  0  0  0  0  0  0  0  0  0  0
    0.9208    0.7810    1.3012 H   0  0  0  0  0  0  0  0  0  0  0  0
   -4.8726   -0.3089   -1.3265 H   0  0  0  0  0  0  0  0  0  0  0  0
   -3.8763    0.4970   -0.1349 H   0  0  0  0  0  0  0  0  0  0  0  0
   -3.4939    0.8763   -3.2987 H   0  0  0  0  0  0  0  0  0  0  0  0
   -0.4304   -2.4877    0.9195 H   0  0  0  0  0  0  0  0  0  0  0  0
    0.3906   -1.0423    0.4022 H   0  0  0  0  0  0  0  0  0  0  0  0
   -1.7571    2.4382   -3.3998 H   0  0  0  0  0  0  0  0  0  0  0  0
    0.2285    3.7618   -1.6624 H   0  0  0  0  0  0  0  0  0  0  0  0
   -0.4968    4.1336    0.5698 H   0  0  0  0  0  0  0  0  0  0  0  0
   -1.6699    2.9204    3.0093 H   0  0  0  0  0  0  0  0  0  0  0  0
    1.9966   -0.4449   -0.9752 H   0  0  0  0  0  0  0  0  0  0  0  0
    1.6709   -1.3921   -2.4096 H   0  0  0  0  0  0  0  0  0  0  0  0
    0.1799    1.9131    4.1203 H   0  0  0  0  0  0  0  0  0  0  0  0
    1.3264   -0.5740    4.0620 H   0  0  0  0  0  0  0  0  0  0  0  0
    0.9411   -2.6167    3.0252 H   0  0  0  0  0  0  0  0  0  0  0  0
    1.6570   -3.8513    0.7233 H   0  0  0  0  0  0  0  0  0  0  0  0
    2.9623   -3.3763   -1.1272 H   0  0  0  0  0  0  0  0  0  0  0  0
    3.9611   -1.4350   -3.0901 H   0  0  0  0  0  0  0  0  0  0  0  0
    3.8204   -0.3651    0.5331 H   0  0  0  0  0  0  0  0  0  0  0  0
    5.4497    0.2543    0.4255 H   0  0  0  0  0  0  0  0  0  0  0  0
    5.6408   -0.1943   -1.9316 H   0  0  0  0  0  0  0  0  0  0  0  0
    2.9561    1.7006   -0.6418 H   0  0  0  0  0  0  0  0  0  0  0  0
    4.6162    2.3108   -0.7493 H   0  0  0  0  0  0  0  0  0  0  0  0
    3.8525    2.0933    0.8320 H   0  0  0  0  0  0  0  0  0  0  0  0
   -3.4663   -2.2480    1.8683 H   0  0  0  0  0  0  0  0  0  0  0  0
  1 23  1  0  0  0  0
  1 56  1  0  0  0  0
  2 23  2  0  0  0  0
  3  7  1  0  0  0  0
  3  8  1  0  0  0  0
  3 25  1  0  0  0  0
  3 26  1  0  0  0  0
  4 10  1  0  0  0  0
  4 11  1  0  0  0  0
  4 27  1  0  0  0  0
  4 28  1  0  0  0  0
  5 12  1  0  0  0  0
  5 13  1  0  0  0  0
  5 29  1  0  0  0  0
  5 30  1  0  0  0  0
  6 15  1  0  0  0  0
  6 16  1  0  0  0  0
  6 31  1  0  0  0  0
  6 32  1  0  0  0  0
  7 23  1  0  0  0  0
  7 33  1  0  0  0  0
  7 34  1  0  0  0  0
  8 10  2  0  0  0  0
  8 35  1  0  0  0  0
  9 17  1  0  0  0  0
  9 18  1  0  0  0  0
  9 36  1  0  0  0  0
  9 37  1  0  0  0  0
 10 38  1  0  0  0  0
 11 12  2  0  0  0  0
 11 39  1  0  0  0  0
 12 40  1  0  0  0  0
 13 15  2  0  0  0  0
 13 41  1  0  0  0  0
 14 19  1  0  0  0  0
 14 20  1  0  0  0  0
 14 42  1  0  0  0  0
 14 43  1  0  0  0  0
 15 44  1  0  0  0  0
 16 17  2  0  0  0  0
 16 45  1  0  0  0  0
 17 46  1  0  0  0  0
 18 19  2  0  0  0  0
 18 47  1  0  0  0  0
 19 48  1  0  0  0  0
 20 22  2  0  0  0  0
 20 49  1  0  0  0  0
 21 22  1  0  0  0  0
 21 24  1  0  0  0  0
 21 50  1  0  0  0  0
 21 51  1  0  0  0  0
 22 52  1  0  0  0  0
 24 53  1  0  0  0  0
 24 54  1  0  0  0  0
 24 55  1  0  0  0  0
M  END
> <DATABASE_ID>
DB03756

> <DATABASE_NAME>
drugbank

> <ORIGINAL_SOURCE>
PUBCHEM

> <ORIGINAL_SOURCE_URL>
https://pubchem.ncbi.nlm.nih.gov/rest/pug/compound/inchikey/MBMBGCFOFBJSGT-KUBAVDMBSA-N/SDF?record_type=3d

> <SMILES>
CC\C=C/C\C=C/C\C=C/C\C=C/C\C=C/C\C=C/CCC(O)=O

> <INCHI_IDENTIFIER>
InChI=1S/C22H32O2/c1-2-3-4-5-6-7-8-9-10-11-12-13-14-15-16-17-18-19-20-21-22(23)24/h3-4,6-7,9-10,12-13,15-16,18-19H,2,5,8,11,14,17,20-21H2,1H3,(H,23,24)/b4-3-,7-6-,10-9-,13-12-,16-15-,19-18-

> <INCHI_KEY>
MBMBGCFOFBJSGT-KUBAVDMBSA-N

> <FORMULA>
C22H32O2

> <MOLECULAR_WEIGHT>
328.4883

> <EXACT_MASS>
328.240230268

> <JCHEM_ACCEPTOR_COUNT>
2

> <JCHEM_AVERAGE_POLARIZABILITY>
38.62627799097257

> <JCHEM_BIOAVAILABILITY>
0

> <JCHEM_DONOR_COUNT>
1

> <JCHEM_FORMAL_CHARGE>
0

> <JCHEM_GHOSE_FILTER>
0

> <JCHEM_IUPAC>
(4Z,7Z,10Z,13Z,16Z,19Z)-docosa-4,7,10,13,16,19-hexaenoic acid

> <ALOGPS_LOGP>
6.83

> <JCHEM_LOGP>
6.752464827666667

> <ALOGPS_LOGS>
-6.25

> <JCHEM_MDDR_LIKE_RULE>
0

> <JCHEM_NUMBER_OF_RINGS>
0

> <JCHEM_PHYSIOLOGICAL_CHARGE>
-1

> <JCHEM_PKA_STRONGEST_ACIDIC>
4.8854984143453795

> <JCHEM_POLAR_SURFACE_AREA>
37.3

> <JCHEM_REFRACTIVITY>
111.3892

> <JCHEM_ROTATABLE_BOND_COUNT>
14

> <JCHEM_RULE_OF_FIVE>
0

> <ALOGPS_SOLUBILITY>
1.86e-04 g/l

> <JCHEM_TRADITIONAL_IUPAC>
docosahexaenoic acid

> <JCHEM_VEBER_RULE>
0

> <DRUGBANK_ID>
DB03756

> <SECONDARY_ACCESSION_NUMBERS>
EXPT01798; DB11070

> <DRUG_GROUPS>
approved; investigational

> <GENERIC_NAME>
Doconexent

> <SYNONYMS>
(4Z,7Z,10Z,13Z,16Z,19Z)-Docosahexaenoic acid; 22:6-4, 7,10,13,16,19; 22:6(n-3); 4,7,10,13,16,19-docosahexaenoic acid; all-cis-4,7,10,13,16,19-docosahexaenoic acid; all-cis-DHA; cervonic acid; DHA; Doconexent; docosa-4,7,10,13,16,19-hexaenoic acid; Docosahexaenoic acid

> <PRODUCTS>
Active OB; Animi-3; Animi-3 with Vitamin D; BP Vit 3; Calcium PNV; Cavan Folate DHA; Cavan One; Choice OB DHA; CitraNatal Assure; CitraNatal DHA; CitraNatal Essence; CitraNatal Harmony; CitraNatal Harmony 3.0; CitraNatal Medley; Complete Natal DHA; Docosavit; Dothelle DHA; Extra-Virt Plus DHA; Focalgin 90 DHA; Focalgin CA; Folcal DHA; Folcaps Care One; Folcaps Omega-3; Folet DHA; Folet One; Folivane-PRx DHA; Foltabs Prenatal Plus DHA; Gesticare DHA; HemeNatal OB plus DHA; Herbalifeline; Iron Polysaccharides Folic Acid DHA; Luvira; Multinate DHA; Multinate DHA Extra; NESTABS ABC Prenatal Multi-vitamin/Mineral Supplement with DHA/EPA; NESTABS DHA Prenatal Multi-vitamin/Mineral Supplement with DHA/EPA; Natalvirt 90dha; Natalvirt Ca; Natelle One; Nestabs ONE; Nexa Select; Nutri-Tab OB plus DHA; OB Complete 400; OB Complete Petite; Omega-3 Iq Childrens Chewable; Oveeza; PNV-Omega; PRENATE Enhance; PRENATE Restore; Paire OB Plus DHA; Pnv Ob DHA; Pnv-OB-dha; Pnv-dha; Pre-Tabs DHA Prenatal Multi-vitamin/Mineral Supplement with DHA/EPA; PreFol-DHA; PreNexa; PreNexa premier; PreQue 10; PreferaOB One; Premium Omega 3; Prena1; Prena1 Plus; Prenaissance; Prenaissance Plus; Prenatal, DHA; Prenate DHA; Prenate Essential; Prenate Mini; Re Ob 90 DHA; Renate; Renate DHA; Rulavite DHA; Se-Plete DHA; Se-Tan DHA; Select-OB Plus DHA Prenatal Supplement Plus DHA; Super Omega 3; TL-Care DHA; TL-Select; Taliment; Taliva; Taron-prex Prenatal; Tendera-OB; TriStart DHA; Tricare Prenatal 2-part Daily Prenatal Vitamin System; Tricare Prenatal Compleat; Tricare Prenatal DHA One; Tricare Prenatal DHA One Rx Multivitamin; Tricare Prenatal DHA One With Folate; Tricare Prenatal Twist-off DHA Soft Quick Dissolve; Triveen-Duo DHA; Triveen-PRx RNF; Ultimate OB DHA; UltimateCare ONE NF; Ultra Omega 3; VITAFOL Gummies; VP CH Plus; VP CH Ultra; VP-HEME One; VemaVite-PRx 2 with Fish-Based DHA; Virt-Bal DHA Plus; Virt-C DHA; Virt-Care One; Virt-PN DHA; Virt-PN Plus; Virt-Pn DHA; Virt-Select PRENATAL/POSTNATAL; VirtPrex; Vitafol Fe Plus; Vitafol Ultra; Vitafol-OB Plus DHA Prenatal Supplement Plus DHA; Vitaphil 90 DHA; Vitaphil DHA; Vp-CH-pnv; Vp-pnv-dha; WestGel DHA; Zatean-CH; Zatean-Pn DHA; Zatean-Pn Plus; natelle COMPLETE; vitaMedMD One Rx; vitaMedMD Rx Plus

> <SALTS>
Doconexent sodium

$$$$