drugbank_target|P22309 UDP-glucuronosyltransferase 1-1 (DB12010)
 OpenBabel12092120343D

  0  0  0     0  0            999 V3000
M  V30 BEGIN CTAB
M  V30 COUNTS 8414 8521 0 0 0
M  V30 BEGIN ATOM
M  V30 1 H -0.908 1.98254 -0.117106 0
M  V30 2 N 0 1.576 0 0
M  V30 3 C 0.933 2.03868 1.02534 0
M  V30 4 C 1.911 0.928543 1.3348 0
M  V30 5 O 3.095 1.19667 1.45644 0
M  V30 6 C 0.222 2.43627 2.35294 0
M  V30 7 C -0.732 3.65373 2.2001 0
M  V30 8 S 0.101 5.13292 1.52614 0
M  V30 9 C 1.257 5.56322 2.86805 0
M  V30 10 H 1.49 2.90518 0.631377 0
M  V30 11 H -0.977 1.52953 0.210867 0
M  V30 12 H 0.981 2.67203 3.11629 0
M  V30 13 H -0.358 1.57376 2.7183 0
M  V30 14 H -1.165 3.90944 3.18086 0
M  V30 15 H -1.563 3.418 1.51819 0
M  V30 16 H 0.729 5.58782 3.83104 0
M  V30 17 H 1.672 6.56266 2.65933 0
M  V30 18 H 2.08 4.83886 2.90714 0
M  V30 19 N 1.4781 -0.272755 1.55222 0
M  V30 20 C 2.4411 -1.32041 1.87344 0
M  V30 21 C 3.4411 -1.42342 0.74803 0
M  V30 22 O 4.6311 -1.41488 1.0162 0
M  V30 23 C 1.7631 -2.70173 2.07893 0
M  V30 24 H 2.9561 -1.04789 2.80997 0
M  V30 25 H 0.5091 -0.51083 1.47717 0
M  V30 26 H 1.2441 -3.02605 1.16622 0
M  V30 27 H 1.0291 -2.64082 2.89833 0
M  V30 28 H 2.5191 -3.45869 2.34017 0
M  V30 29 N 2.9562 -1.48159 -0.537278 0
M  V30 30 C 4.2022 -1.56035 -1.29541 0
M  V30 31 C 4.5352 -0.230377 -1.92829 0
M  V30 32 O 3.8102 0.762952 -1.78911 0
M  V30 33 C 4.0932 -2.69323 -2.39034 0
M  V30 34 C 3.9462 -4.12002 -1.80485 0
M  V30 35 C 5.2652 -2.78408 -3.40847 0
M  V30 36 H 2.3842 -0.567992 -0.469632 0
M  V30 37 H 5.0262 -1.80302 -0.599277 0
M  V30 38 H 3.1762 -2.48763 -2.98412 0
M  V30 39 H 4.8482 -4.43981 -1.25215 0
M  V30 40 H 3.0912 -4.19344 -1.11055 0
M  V30 41 H 3.7622 -4.87077 -2.59731 0
M  V30 42 H 6.2382 -2.97012 -2.91416 0
M  V30 43 H 5.1142 -3.59416 -4.14863 0
M  V30 44 H 5.3752 -1.86269 -4.00944 0
M  V30 45 N 4.4343 0.785586 -1.36625 0
M  V30 46 C 5.3443 1.92964 -1.33425 0
M  V30 47 C 6.3603 1.72394 -0.235851 0
M  V30 48 O 7.5363 1.95866 -0.468878 0
M  V30 49 C 4.6013 3.27884 -1.12662 0
M  V30 50 C 3.6623 3.61204 -2.32013 0
M  V30 51 C 2.8953 4.89687 -2.12231 0
M  V30 52 O 3.1183 5.59704 -1.09945 0
M  V30 53 O 2.0523 5.21752 -3.00098 0
M  V30 54 H 5.8783 1.98613 -2.29753 0
M  V30 55 H 3.4633 0.926384 -1.17211 0
M  V30 56 H 5.3453 4.08614 -1.03016 0
M  V30 57 H 4.0203 3.23118 -0.193991 0
M  V30 58 H 2.9273 2.80765 -2.47228 0
M  V30 59 H 4.2603 3.70698 -3.23796 0
M  V30 60 N 5.9124 1.20967 1.01018 0
M  V30 61 C 7.1374 1.0503 1.78839 0
M  V30 62 C 7.5624 -0.395752 1.8389 0
M  V30 63 O 6.9204 -1.28529 1.27867 0
M  V30 64 C 6.9684 1.64602 3.2084 0
M  V30 65 O 6.0724 0.887988 4.02726 0
M  V30 66 H 5.4134 0.369987 0.551367 0
M  V30 67 H 7.9434 1.60399 1.27018 0
M  V30 68 H 7.9534 1.68607 3.71532 0
M  V30 69 H 6.6284 2.69841 3.16479 0
M  V30 70 H 5.2054 0.922648 3.61305 0
M  V30 71 N 7.3905 -1.2043 1.01659 0
M  V30 72 C 8.3225 -2.22626 0.544988 0
M  V30 73 C 9.3355 -1.58479 -0.372609 0
M  V30 74 O 10.5245 -1.77679 -0.170958 0
M  V30 75 C 7.6245 -3.38141 -0.22663 0
M  V30 76 C 6.7975 -4.31877 0.692876 0
M  V30 77 C 5.8565 -5.26191 -0.0311616 0
M  V30 78 O 4.8825 -5.6612 0.591343 0
M  V30 79 N 6.0845 -5.65618 -1.30601 0
M  V30 80 H 8.8495 -2.63716 1.42388 0
M  V30 81 H 6.4105 -1.34971 0.894116 0
M  V30 82 H 8.4025 -3.98239 -0.72024 0
M  V30 83 H 6.9725 -2.95943 -1.00681 0
M  V30 84 H 6.1925 -3.69746 1.36679 0
M  V30 85 H 7.4805 -4.91426 1.31824 0
M  V30 86 H 6.8785 -5.3519 -1.83269 0
M  V30 87 H 5.4355 -6.28025 -1.74435 0
M  V30 88 N 8.8686 -0.792821 -1.36206 0
M  V30 89 C 10.1166 -0.366062 -1.98757 0
M  V30 90 C 10.4376 1.0668 -1.63231 0
M  V30 91 O 9.7076 1.73587 -0.907978 0
M  V30 92 H 8.2876 -0.132364 -0.735179 0
M  V30 93 H 10.9496 -1.01562 -1.66347 0
M  V30 94 H 10.0456 -0.460638 -3.08682 0
M  V30 95 N 10.3467 1.47872 -0.545128 0
M  V30 96 C 11.5947 2.02093 -0.016553 0
M  V30 97 C 11.9157 1.42305 1.3332 0
M  V30 98 O 11.1857 0.593853 1.86682 0
M  V30 99 H 9.7657 0.746993 -0.00313038 0
M  V30 100 H 12.4277 1.81414 -0.712397 0
M  V30 101 H 11.5237 3.11996 0.0805422 0
M  V30 102 N 11.8248 0.280983 1.55075 0
M  V30 103 C 13.2408 -0.0729964 1.59433 0
M  V30 104 C 13.4408 -1.5411 1.29817 0
M  V30 105 O 12.4968 -2.29086 1.06187 0
M  V30 106 C 13.8098 0.306921 2.9913 0
M  V30 107 C 15.3578 0.254023 3.11968 0
M  V30 108 C 15.8328 0.608467 4.5394 0
M  V30 109 N 17.3238 0.560241 4.59799 0
M  V30 110 C 18.0588 0.80722 5.6769 0
M  V30 111 N 17.5548 1.11912 6.83701 0
M  V30 112 N 19.3478 0.735623 5.57266 0
M  V30 113 H 11.4988 1.238 1.7259 0
M  V30 114 H 13.7618 0.500547 0.805082 0
M  V30 115 H 13.4678 1.32816 3.25657 0
M  V30 116 H 13.3418 -0.349363 3.75579 0
M  V30 117 H 15.7288 -0.75794 2.852 0
M  V30 118 H 15.8098 0.944649 2.37718 0
M  V30 119 H 15.4538 1.61814 4.81434 0
M  V30 120 H 15.3838 -0.104013 5.26497 0
M  V30 121 H 17.8748 0.329288 3.76463 0
M  V30 122 H 18.1878 1.29409 7.61888 0
M  V30 123 H 16.5328 1.15695 6.85303 0
M  V30 124 H 19.7238 0.491752 4.6551 0
M  V30 125 H 19.8968 0.931482 6.4127 0
M  V30 126 N 13.3029 -1.57598 0.00835791 0
M  V30 127 C 14.7139 -1.7892 -0.53333 0
M  V30 128 C 15.0649 -0.916609 -1.73473 0
M  V30 129 O 14.1899 -0.121336 -2.1606 0
M  V30 130 C 14.7849 -3.24488 -0.974313 0
M  V30 131 C 13.3439 -3.46878 -1.46125 0
M  V30 132 C 12.4909 -2.74157 -0.416302 0
M  V30 133 H 15.4419 -1.56958 0.234495 0
M  V30 134 H 15.4629 -3.3306 -1.83988 0
M  V30 135 H 14.9749 -3.87972 -0.099718 0
M  V30 136 H 13.0759 -2.8862 -2.35646 0
M  V30 137 H 13.1889 -4.55572 -1.48295 0
M  V30 138 H 11.5529 -2.39022 -0.87981 0
M  V30 139 H 12.3359 -3.40345 0.44947 0
M  V30 140 N 14.781 0.264519 -1.55364 0
M  V30 141 C 15.711 1.33121 -1.91836 0
M  V30 142 C 16.692 1.51101 -0.781192 0
M  V30 143 O 17.877 1.64003 -1.04003 0
M  V30 144 C 15.007 2.68921 -2.19769 0
M  V30 145 C 13.961 2.65661 -3.35571 0
M  V30 146 C 13.287 4.05093 -3.49004 0
M  V30 147 C 14.587 2.24187 -4.71739 0
M  V30 148 H 16.281 1.02844 -2.81182 0
M  V30 149 H 13.827 0.493286 -1.35287 0
M  V30 150 H 15.78 3.43663 -2.43872 0
M  V30 151 H 14.504 3.00799 -1.27231 0
M  V30 152 H 13.163 1.93377 -3.1145 0
M  V30 153 H 12.811 4.34206 -2.53917 0
M  V30 154 H 12.511 4.03804 -4.26868 0
M  V30 155 H 14.035 4.81561 -3.75408 0
M  V30 156 H 15.449 2.88654 -4.9533 0
M  V30 157 H 13.846 2.34044 -5.52579 0
M  V30 158 H 14.916 1.19327 -4.69988 0
M  V30 159 N 16.2591 1.48442 0.529413 0
M  V30 160 C 17.5051 1.5672 1.28711 0
M  V30 161 C 17.8381 0.2406 1.92704 0
M  V30 162 O 17.1131 -0.753454 1.79313 0
M  V30 163 C 17.3961 2.70587 2.37603 0
M  V30 164 C 17.2491 4.12953 1.78297 0
M  V30 165 C 18.5681 2.80212 3.39366 0
M  V30 166 H 15.6871 0.570474 0.466613 0
M  V30 167 H 18.3291 1.80617 0.589706 0
M  V30 168 H 16.4791 2.50342 2.97088 0
M  V30 169 H 18.1511 4.44639 1.22858 0
M  V30 170 H 16.3941 4.19927 1.0883 0
M  V30 171 H 17.0651 4.88448 2.57144 0
M  V30 172 H 19.5411 2.98553 2.89836 0
M  V30 173 H 18.4171 3.61611 4.12951 0
M  V30 174 H 18.6781 1.88393 3.99951 0
M  V30 175 N 17.7372 -0.778329 1.37039 0
M  V30 176 C 18.6672 -1.90546 1.34962 0
M  V30 177 C 19.6482 -1.68681 0.219274 0
M  V30 178 O 20.8332 -1.89634 0.418624 0
M  V30 179 C 17.9632 -3.27734 1.14925 0
M  V30 180 C 16.9172 -3.64147 2.24902 0
M  V30 181 C 16.2432 -4.99806 1.89996 0
M  V30 182 C 17.5432 -3.71579 3.67051 0
M  V30 183 H 19.2372 -1.92541 2.29277 0
M  V30 184 H 16.7832 -0.924948 1.10366 0
M  V30 185 H 18.7362 -4.06215 1.12104 0
M  V30 186 H 17.4602 -3.26154 0.170631 0
M  V30 187 H 16.1192 -2.8797 2.26868 0
M  V30 188 H 15.7672 -4.94759 0.906796 0
M  V30 189 H 15.4672 -5.25139 2.63634 0
M  V30 190 H 16.9912 -5.80694 1.88749 0
M  V30 191 H 18.4052 -4.40227 3.67251 0
M  V30 192 H 16.8022 -4.08405 4.39688 0
M  V30 193 H 17.8722 -2.72404 4.01154 0
M  V30 194 N 19.2153 -1.21501 -1.00376 0
M  V30 195 C 20.4633 -1.03095 -1.73827 0
M  V30 196 C 20.7843 0.436341 -1.90055 0
M  V30 197 O 20.0543 1.31466 -1.45236 0
M  V30 198 H 18.6343 -0.378487 -0.644016 0
M  V30 199 H 21.2963 -1.52831 -1.20949 0
M  V30 200 H 20.3923 -1.49991 -2.73695 0
M  V30 201 N 20.6934 1.19889 -1.02296 0
M  V30 202 C 21.6234 2.25141 -0.619174 0
M  V30 203 C 22.6044 1.66051 0.368915 0
M  V30 204 O 23.7894 1.92546 0.252941 0
M  V30 205 C 20.9194 3.4728 0.0368783 0
M  V30 206 C 19.8734 4.19005 -0.872865 0
M  V30 207 C 19.1994 5.34637 -0.0822402 0
M  V30 208 C 20.4994 4.74452 -2.18387 0
M  V30 209 H 22.1934 2.59171 -1.49903 0
M  V30 210 H 19.7394 1.24579 -0.722222 0
M  V30 211 H 21.6924 4.20098 0.330958 0
M  V30 212 H 20.4164 3.12433 0.95149 0
M  V30 213 H 19.0754 3.48061 -1.15105 0
M  V30 214 H 18.7234 4.96034 0.83422 0
M  V30 215 H 18.4234 5.83557 -0.688149 0
M  V30 216 H 19.9474 6.10255 0.205238 0
M  V30 217 H 21.3614 5.39055 -1.95172 0
M  V30 218 H 19.7584 5.33834 -2.74119 0
M  V30 219 H 20.8284 3.92844 -2.84257 0
M  V30 220 N 22.1715 0.800033 1.35784 0
M  V30 221 C 23.1015 0.220184 2.3246 0
M  V30 222 C 24.0825 -0.65073 1.57161 0
M  V30 223 O 25.2675 -0.582359 1.85263 0
M  V30 224 C 22.3975 -0.637353 3.41402 0
M  V30 225 C 21.3515 0.134531 4.27789 0
M  V30 226 C 20.6775 -0.844285 5.27992 0
M  V30 227 C 21.9775 1.32979 5.05088 0
M  V30 228 H 23.6715 1.02787 2.81203 0
M  V30 229 H 21.2175 0.495717 1.35199 0
M  V30 230 H 23.1705 -1.05302 4.08031 0
M  V30 231 H 21.8945 -1.47785 2.91251 0
M  V30 232 H 20.5535 0.531296 3.6273 0
M  V30 233 H 20.2015 -1.68011 4.74111 0
M  V30 234 H 19.9015 -0.332184 5.8666 0
M  V30 235 H 21.4255 -1.2583 5.97494 0
M  V30 236 H 22.8395 0.98934 5.64699 0
M  V30 237 H 21.2365 1.77593 5.7322 0
M  V30 238 H 22.3065 2.11978 4.36111 0
M  V30 239 N 23.6496 -1.47581 0.552962 0
M  V30 240 C 24.5796 -2.32762 -0.185451 0
M  V30 241 C 25.5606 -1.43527 -0.912905 0
M  V30 242 O 26.7456 -1.72388 -0.894201 0
M  V30 243 C 23.8756 -3.25219 -1.21859 0
M  V30 244 C 22.8296 -4.23661 -0.607864 0
M  V30 245 C 22.1556 -5.05413 -1.74533 0
M  V30 246 C 23.4556 -5.20481 0.435582 0
M  V30 247 H 25.1496 -2.94749 0.525684 0
M  V30 248 H 22.6956 -1.41738 0.254251 0
M  V30 249 H 24.6486 -3.8365 -1.7433 0
M  V30 250 H 23.3726 -2.61279 -1.95961 0
M  V30 251 H 22.0316 -3.66451 -0.104489 0
M  V30 252 H 21.6796 -4.3788 -2.47529 0
M  V30 253 H 21.3796 -5.72059 -1.34249 0
M  V30 254 H 22.9036 -5.66701 -2.27338 0
M  V30 255 H 24.3176 -5.733 -0.00290157 0
M  V30 256 H 22.7146 -5.95305 0.757067 0
M  V30 257 H 23.7846 -4.66217 1.33303 0
M  V30 258 N 25.1277 -0.289203 -1.54924 0
M  V30 259 C 26.3677 0.324536 -2.01807 0
M  V30 260 C 26.7317 1.5199 -1.17316 0
M  V30 261 O 27.9327 2.20422 -1.53843 0
M  V30 262 C 26.2037 0.683578 -3.50802 0
M  V30 263 S 27.7627 1.28185 -4.19659 0
M  V30 264 H 24.5807 0.100236 -0.703899 0
M  V30 265 H 27.1827 -0.414325 -1.91059 0
M  V30 266 H 25.8867 -0.195073 -4.09936 0
M  V30 267 H 25.4177 1.45354 -3.65562 0
M  V30 268 H 27.4327 2.57006 -4.24456 0
M  V30 269 N 26.6058 1.57591 -0.0167156 0
M  V30 270 C 27.8518 1.91567 0.665582 0
M  V30 271 C 28.1848 0.892298 1.72487 0
M  V30 272 O 27.4598 -0.0867127 1.94307 0
M  V30 273 C 27.7428 3.36069 1.29342 0
M  V30 274 C 27.5958 4.49135 0.244541 0
M  V30 275 C 28.9148 3.803 2.21495 0
M  V30 276 H 26.0338 0.69666 0.240488 0
M  V30 277 H 28.6758 1.89866 -0.0714356 0
M  V30 278 H 26.8258 3.3765 1.92158 0
M  V30 279 H 28.4978 4.59689 -0.385228 0
M  V30 280 H 26.7408 4.3165 -0.431379 0
M  V30 281 H 27.4118 5.47242 0.723207 0
M  V30 282 H 29.8878 3.80377 1.68678 0
M  V30 283 H 28.7638 4.82127 2.62382 0
M  V30 284 H 29.0248 3.15104 3.101 0
M  V30 285 N 28.0839 -0.256276 1.55502 0
M  V30 286 C 29.0139 -1.32102 1.92539 0
M  V30 287 C 29.9949 -1.50684 0.789194 0
M  V30 288 O 31.1799 -1.63449 1.04872 0
M  V30 289 C 28.3099 -2.67752 2.21192 0
M  V30 290 C 27.2639 -2.63878 3.36975 0
M  V30 291 C 26.5899 -4.03236 3.51147 0
M  V30 292 C 27.8899 -2.21682 4.72921 0
M  V30 293 H 29.5839 -1.01351 2.81724 0
M  V30 294 H 27.1299 -0.486105 1.35547 0
M  V30 295 H 29.0829 -3.42365 2.45691 0
M  V30 296 H 27.8069 -3.0012 1.28824 0
M  V30 297 H 26.4659 -1.91722 3.12471 0
M  V30 298 H 26.1139 -4.32854 2.56216 0
M  V30 299 H 25.8139 -4.01535 4.29003 0
M  V30 300 H 27.3379 -4.79563 3.77957 0
M  V30 301 H 28.7519 -2.86023 4.96854 0
M  V30 302 H 27.1489 -2.3111 5.53812 0
M  V30 303 H 28.2189 -1.16833 4.70615 0
M  V30 304 N 29.562 -1.4872 -0.521534 0
M  V30 305 C 30.81 -1.56857 -1.27437 0
M  V30 306 C 31.131 -0.247982 -1.93417 0
M  V30 307 O 30.401 0.731151 -1.81744 0
M  V30 308 H 28.981 -0.577885 -0.473347 0
M  V30 309 H 31.643 -1.85233 -0.606205 0
M  V30 310 H 30.739 -2.35402 -2.0492 0
M  V30 311 N 31.0401 0.771051 -1.3745 0
M  V30 312 C 32.4511 1.34737 -1.29239 0
M  V30 313 C 32.8021 1.96109 0.0596908 0
M  V30 314 O 31.9271 1.93865 0.961534 0
M  V30 315 C 32.5221 2.44973 -2.34037 0
M  V30 316 C 31.0811 2.98372 -2.29458 0
M  V30 317 C 30.2281 1.71595 -2.17831 0
M  V30 318 H 33.1791 0.571256 -1.48062 0
M  V30 319 H 33.2001 3.24471 -1.98744 0
M  V30 320 H 32.7121 2.00276 -3.32432 0
M  V30 321 H 30.8131 3.47443 -1.34589 0
M  V30 322 H 30.9261 3.53939 -3.229 0
M  V30 323 H 29.2901 1.94547 -1.64388 0
M  V30 324 H 30.0731 1.29001 -3.18141 0
M  V30 325 N 32.5182 1.22032 0.997298 0
M  V30 326 C 33.7642 1.04376 1.73878 0
M  V30 327 C 34.0972 -0.420716 1.89588 0
M  V30 328 O 33.3722 -1.31202 1.43583 0
M  V30 329 C 33.6552 1.75047 3.14691 0
M  V30 330 C 33.5082 3.29062 3.06656 0
M  V30 331 C 34.8272 1.49928 4.13775 0
M  V30 332 H 31.9462 0.380578 0.631133 0
M  V30 333 H 34.5882 1.50312 1.16217 0
M  V30 334 H 32.7382 1.35996 3.63919 0
M  V30 335 H 34.4102 3.7753 2.65083 0
M  V30 336 H 32.6532 3.58967 2.43568 0
M  V30 337 H 33.3242 3.73683 4.06282 0
M  V30 338 H 35.8002 1.83842 3.73285 0
M  V30 339 H 34.6762 2.01878 5.10428 0
M  V30 340 H 34.9372 0.430929 4.39995 0
M  V30 341 N 33.9963 -1.19345 1.0293 0
M  V30 342 C 35.2423 -1.89318 0.727083 0
M  V30 343 C 35.5753 -1.79446 -0.742483 0
M  V30 344 O 34.8503 -1.1871 -1.54072 0
M  V30 345 C 35.1333 -3.40238 1.17942 0
M  V30 346 C 34.9863 -3.58979 2.71024 0
M  V30 347 C 36.3053 -4.33479 0.760548 0
M  V30 348 H 33.4243 -0.687475 0.265606 0
M  V30 349 H 36.0663 -1.40477 1.2793 0
M  V30 350 H 34.2163 -3.81964 0.709608 0
M  V30 351 H 35.8883 -3.26421 3.25955 0
M  V30 352 H 34.1313 -3.02018 3.11396 0
M  V30 353 H 34.8023 -4.64823 2.9773 0
M  V30 354 H 37.2783 -3.99469 1.16464 0
M  V30 355 H 36.1543 -5.37664 1.10493 0
M  V30 356 H 36.4153 -4.40813 -0.337063 0
M  V30 357 N 35.4744 -0.807222 -1.35358 0
M  V30 358 C 36.6994 -0.399309 -2.0352 0
M  V30 359 C 37.1244 0.981986 -1.60433 0
M  V30 360 O 36.4824 1.63601 -0.781299 0
M  V30 361 C 36.5304 -0.491552 -3.57234 0
M  V30 362 O 35.6344 0.494754 -4.09421 0
M  V30 363 H 34.9754 -0.166682 -0.642739 0
M  V30 364 H 37.5054 -1.09328 -1.72941 0
M  V30 365 H 37.5154 -0.361588 -4.06395 0
M  V30 366 H 36.1904 -1.49907 -3.87944 0
M  V30 367 H 34.7674 0.324977 -3.71481 0
M  V30 368 N 36.9525 1.47285 -0.560781 0
M  V30 369 C 37.9025 2.27073 0.205384 0
M  V30 370 C 38.8865 1.34569 0.882044 0
M  V30 371 O 40.0785 1.58899 0.77976 0
M  V30 372 C 37.2075 3.20414 1.23247 0
M  V30 373 C 36.2935 4.20399 0.559041 0
M  V30 374 N 36.6845 5.04423 -0.372927 0
M  V30 375 C 34.9825 4.38536 0.812522 0
M  V30 376 C 35.6835 5.76655 -0.764446 0
M  V30 377 N 34.6595 5.43471 -0.11848 0
M  V30 378 H 38.4615 2.89422 -0.511117 0
M  V30 379 H 35.9755 1.57868 -0.380975 0
M  V30 380 H 37.9725 3.76262 1.79534 0
M  V30 381 H 36.6325 2.59623 1.95002 0
M  V30 382 H 37.6435 5.1248 -0.747287 0
M  V30 383 H 34.3205 3.88913 1.51832 0
M  V30 384 H 35.7105 6.54238 -1.53045 0
M  V30 385 N 38.4306 0.297415 1.54768 0
M  V30 386 C 39.3936 -0.567375 2.22066 0
M  V30 387 C 40.3936 -1.06409 1.20556 0
M  V30 388 O 41.5836 -0.960691 1.45315 0
M  V30 389 C 38.7156 -1.78517 2.90421 0
M  V30 390 H 39.9086 0.0205534 2.99893 0
M  V30 391 H 37.4616 0.0482163 1.56226 0
M  V30 392 H 38.1966 -2.41303 2.16664 0
M  V30 393 H 37.9816 -1.43669 3.64831 0
M  V30 394 H 39.4716 -2.39964 3.41771 0
M  V30 395 N 39.9087 -1.5758 0.0250728 0
M  V30 396 C 41.1567 -1.91255 -0.653151 0
M  V30 397 C 41.4777 -0.901691 -1.729 0
M  V30 398 O 40.7477 0.0573785 -1.95816 0
M  V30 399 H 39.3277 -0.705942 -0.244243 0
M  V30 400 H 41.9897 -1.94767 0.0719209 0
M  V30 401 H 41.0857 -2.91752 -1.10847 0
M  V30 402 N 41.3868 0.248026 -1.55636 0
M  V30 403 C 42.3338 1.30707 -1.90222 0
M  V30 404 C 43.3038 1.47881 -0.756332 0
M  V30 405 O 44.4888 1.61883 -1.00988 0
M  V30 406 C 41.6288 2.65769 -2.20138 0
M  V30 407 C 40.7418 2.56612 -3.47526 0
M  V30 408 C 39.8768 3.8402 -3.67017 0
M  V30 409 C 38.9158 3.69476 -4.8801 0
M  V30 410 N 38.0528 4.88774 -5.04029 0
M  V30 411 H 42.8928 1.00512 -2.80538 0
M  V30 412 H 40.4298 0.485055 -1.38873 0
M  V30 413 H 42.3878 3.44386 -2.35487 0
M  V30 414 H 41.0178 2.94115 -1.33027 0
M  V30 415 H 40.0698 1.69571 -3.40514 0
M  V30 416 H 41.3818 2.41774 -4.36287 0
M  V30 417 H 40.5358 4.7108 -3.8232 0
M  V30 418 H 39.2748 4.01754 -2.76487 0
M  V30 419 H 38.2798 2.80799 -4.72686 0
M  V30 420 H 39.5048 3.53238 -5.8 0
M  V30 421 H 37.4508 5.0687 -4.16435 0
M  V30 422 H 37.3678 4.76562 -5.86877 0
M  V30 423 H 38.6358 5.77335 -5.23741 0
M  V30 424 N 42.8649 1.48995 0.513639 0
M  V30 425 C 44.1139 1.57093 1.2651 0
M  V30 426 C 44.4269 0.257091 1.93903 0
M  V30 427 O 45.6329 0.216478 2.70636 0
M  V30 428 C 44.0889 2.77118 2.29638 0
M  V30 429 C 43.6969 4.15209 1.68241 0
M  V30 430 C 45.4409 2.94538 3.05692 0
M  V30 431 C 43.3479 5.26474 2.69406 0
M  V30 432 H 42.2779 0.584876 0.475854 0
M  V30 433 H 44.9289 1.7536 0.540487 0
M  V30 434 H 43.3109 2.52319 3.05207 0
M  V30 435 H 44.4849 4.50094 0.987505 0
M  V30 436 H 42.7999 4.03042 1.04623 0
M  V30 437 H 45.3969 3.74832 3.8132 0
M  V30 438 H 45.7399 2.04614 3.62545 0
M  V30 439 H 46.2729 3.19316 2.37238 0
M  V30 440 H 43.0119 6.18417 2.17351 0
M  V30 441 H 42.5319 4.96058 3.37175 0
M  V30 442 H 44.2109 5.55277 3.32078 0
M  V30 443 N 44.343 -0.763751 1.37857 0
M  V30 444 C 45.273 -1.89103 1.36975 0
M  V30 445 C 46.254 -1.68439 0.237152 0
M  V30 446 O 47.439 -1.8918 0.438713 0
M  V30 447 C 44.569 -3.26496 1.18395 0
M  V30 448 C 43.523 -3.61741 2.28751 0
M  V30 449 C 42.849 -4.97762 1.95286 0
M  V30 450 C 44.149 -3.67665 3.70972 0
M  V30 451 H 45.843 -1.90099 2.31307 0
M  V30 452 H 43.389 -0.91319 1.11341 0
M  V30 453 H 45.342 -4.05003 1.16406 0
M  V30 454 H 44.066 -3.25955 0.205215 0
M  V30 455 H 42.725 -2.85547 2.29909 0
M  V30 456 H 42.373 -4.93769 0.959221 0
M  V30 457 H 42.073 -5.22313 2.69189 0
M  V30 458 H 43.597 -5.7866 1.94898 0
M  V30 459 H 45.011 -4.36307 3.719 0
M  V30 460 H 43.408 -4.03718 4.43995 0
M  V30 461 H 44.478 -2.68134 4.0402 0
M  V30 462 N 45.8211 -1.22559 -0.990812 0
M  V30 463 C 46.7511 -1.0218 -2.09956 0
M  V30 464 C 47.7321 0.0579394 -1.70001 0
M  V30 465 O 48.9171 -0.104684 -1.93918 0
M  V30 466 C 46.0471 -0.601023 -3.4206 0
M  V30 467 C 45.0011 -1.62694 -3.95872 0
M  V30 468 C 44.3271 -1.06193 -5.24049 0
M  V30 469 C 45.6271 -3.01743 -4.2632 0
M  V30 470 H 47.3211 -1.94916 -2.27262 0
M  V30 471 H 44.8671 -0.938566 -1.09211 0
M  V30 472 H 46.8201 -0.445561 -4.19038 0
M  V30 473 H 45.5441 0.362005 -3.24588 0
M  V30 474 H 44.2031 -1.77021 -3.21028 0
M  V30 475 H 43.8511 -0.0901903 -5.02919 0
M  V30 476 H 43.5511 -1.74732 -5.61019 0
M  V30 477 H 45.0751 -0.918092 -6.03658 0
M  V30 478 H 46.4891 -2.90777 -4.94087 0
M  V30 479 H 44.8861 -3.67425 -4.74467 0
M  V30 480 H 45.9561 -3.51518 -3.34011 0
M  V30 481 N 47.2992 1.18797 -1.03562 0
M  V30 482 C 48.5482 1.87978 -0.731235 0
M  V30 483 C 48.8612 1.80911 0.743671 0
M  V30 484 O 50.0672 2.45407 1.16137 0
M  V30 485 C 48.5232 3.3721 -1.25768 0
M  V30 486 C 48.1312 3.52818 -2.76085 0
M  V30 487 C 49.8752 4.11825 -1.0296 0
M  V30 488 C 47.7822 4.9598 -3.22114 0
M  V30 489 H 46.7122 0.704063 -0.269835 0
M  V30 490 H 49.3632 1.34266 -1.25079 0
M  V30 491 H 47.7452 3.90359 -0.666011 0
M  V30 492 H 48.9192 3.09965 -3.40966 0
M  V30 493 H 47.2342 2.91602 -2.97249 0
M  V30 494 H 49.8312 5.17411 -1.34869 0
M  V30 495 H 50.1742 4.16287 0.0333546 0
M  V30 496 H 50.7072 3.64833 -1.58562 0
M  V30 497 H 47.4462 4.96684 -4.27768 0
M  V30 498 H 46.9662 5.39569 -2.61965 0
M  V30 499 H 48.6452 5.6467 -3.15844 0
M  V30 500 N 48.7773 0.814389 1.34928 0
M  V30 501 C 50.1883 0.458364 1.80986 0
M  V30 502 C 50.5393 -1.02042 1.67577 0
M  V30 503 O 49.6643 -1.79352 1.21086 0
M  V30 504 C 50.2593 0.825212 3.28597 0
M  V30 505 C 48.8183 0.521677 3.72767 0
M  V30 506 C 47.9653 1.04668 2.56788 0
M  V30 507 H 50.9163 1.00533 1.22795 0
M  V30 508 H 50.9373 0.12571 3.80292 0
M  V30 509 H 50.4493 1.90154 3.38324 0
M  V30 510 H 48.5503 -0.545589 3.68584 0
M  V30 511 H 48.6633 1.05977 4.67232 0
M  V30 512 H 47.0273 0.468622 2.50352 0
M  V30 513 H 47.8103 2.12927 2.6929 0
M  V30 514 N 50.2554 -1.46986 0.568584 0
M  V30 515 C 51.5014 -2.02741 0.0488709 0
M  V30 516 C 51.8344 -1.44077 -1.30214 0
M  V30 517 O 51.1094 -0.600552 -1.84996 0
M  V30 518 C 51.3924 -3.60086 -0.032047 0
M  V30 519 C 51.2454 -4.29162 1.34686 0
M  V30 520 C 52.5644 -4.33838 -0.739798 0
M  V30 521 H 49.6834 -0.736749 0.0192338 0
M  V30 522 H 52.3254 -1.75289 0.733065 0
M  V30 523 H 50.4754 -3.83606 -0.61473 0
M  V30 524 H 52.1474 -4.16948 1.97362 0
M  V30 525 H 50.3904 -3.89073 1.91846 0
M  V30 526 H 51.0614 -5.37826 1.24285 0
M  V30 527 H 53.5374 -4.15378 -0.244939 0
M  V30 528 H 52.4134 -5.43537 -0.765406 0
M  V30 529 H 52.6744 -4.03875 -1.79827 0
M  V30 530 N 51.7335 -0.305618 -1.54608 0
M  V30 531 C 53.0105 0.355652 -1.92339 0
M  V30 532 C 53.3905 1.71324 -1.23335 0
M  V30 533 O 52.7385 2.25473 -0.370702 0
M  V30 534 C 52.9485 0.46572 -3.45879 0
M  V30 535 C 54.2965 0.734426 -4.182 0
M  V30 536 O 55.3205 0.54935 -3.51938 0
M  V30 537 O 54.1795 1.09024 -5.35515 0
M  V30 538 H 51.2735 0.199666 -0.802535 0
M  V30 539 H 53.8195 -0.354017 -1.65966 0
M  V30 540 H 52.5915 -0.488461 -3.88239 0
M  V30 541 H 52.2145 1.22367 -3.78301 0
M  V30 542 N 53.2116 1.57565 -0.0334293 0
M  V30 543 C 54.4596 1.91598 0.642999 0
M  V30 544 C 54.7806 0.910847 1.7242 0
M  V30 545 O 54.0506 -0.0469931 1.95844 0
M  V30 546 H 52.6306 0.707228 0.240496 0
M  V30 547 H 55.2926 1.94726 -0.0822488 0
M  V30 548 H 54.3886 2.92336 1.09298 0
M  V30 549 N 54.6897 -0.239769 1.55765 0
M  V30 550 C 55.9147 -0.988373 1.82335 0
M  V30 551 C 56.3397 -1.77886 0.611421 0
M  V30 552 O 55.6977 -1.75889 -0.439639 0
M  V30 553 C 55.7457 -1.89627 3.06715 0
M  V30 554 O 54.8497 -2.98904 2.84131 0
M  V30 555 H 54.1907 -0.280858 0.601677 0
M  V30 556 H 56.7207 -0.258597 2.02959 0
M  V30 557 H 56.7307 -2.30957 3.36338 0
M  V30 558 H 55.4057 -1.31511 3.9456 0
M  V30 559 H 53.9827 -2.61651 2.65694 0
M  V30 560 N 56.1678 -1.49265 -0.50573 0
M  V30 561 C 57.1178 -1.6198 -1.60457 0
M  V30 562 C 58.1018 -0.47568 -1.53708 0
M  V30 563 O 59.2938 -0.728392 -1.61318 0
M  V30 564 C 56.4228 -1.68526 -2.99089 0
M  V30 565 C 55.5088 -2.885 -3.10852 0
M  V30 566 N 55.8998 -4.12635 -2.92517 0
M  V30 567 C 54.1978 -2.86338 -3.41945 0
M  V30 568 C 54.8988 -4.93258 -3.08337 0
M  V30 569 N 53.8748 -4.26533 -3.37003 0
M  V30 570 H 57.6768 -2.55681 -1.44928 0
M  V30 571 H 55.1908 -1.45972 -0.711752 0
M  V30 572 H 57.1878 -1.75732 -3.78053 0
M  V30 573 H 55.8478 -0.759584 -3.1569 0
M  V30 574 H 56.8588 -4.42689 -2.68787 0
M  V30 575 H 53.5358 -2.03129 -3.64753 0
M  V30 576 H 54.9258 -6.01856 -2.98695 0
M  V30 577 N 57.6459 0.756429 -1.3826 0
M  V30 578 C 58.8919 1.5168 -1.35517 0
M  V30 579 C 59.2469 1.9232 0.0554451 0
M  V30 580 O 58.5399 1.62352 1.01746 0
M  V30 581 C 58.7339 2.78313 -2.24224 0
M  V30 582 C 58.5629 2.50053 -3.7377 0
M  V30 583 C 57.3329 2.43414 -4.42807 0
M  V30 584 C 59.5309 2.1702 -4.66269 0
M  V30 585 N 57.5129 2.07398 -5.77805 0
M  V30 586 C 58.8839 1.91271 -5.89759 0
M  V30 587 C 60.9389 2.03305 -4.54501 0
M  V30 588 C 59.6419 1.53192 -7.02798 0
M  V30 589 C 61.6679 1.66627 -5.67441 0
M  V30 590 C 61.0299 1.4175 -6.8999 0
M  V30 591 H 57.1289 0.554735 -0.551174 0
M  V30 592 H 59.7129 0.881106 -1.73622 0
M  V30 593 H 57.8839 3.39696 -1.88311 0
M  V30 594 H 59.6159 3.44343 -2.12627 0
M  V30 595 H 56.3709 2.59789 -3.95988 0
M  V30 596 H 56.7949 1.92044 -6.4919 0
M  V30 597 H 61.4369 2.21215 -3.60311 0
M  V30 598 H 59.1549 1.34022 -7.96909 0
M  V30 599 H 62.7409 1.56652 -5.60314 0
M  V30 600 H 61.6209 1.1379 -7.759 0
M  V30 601 N 59.124 1.23083 0.984299 0
M  V30 602 C 60.054 1.03292 2.09411 0
M  V30 603 C 61.035 -0.048923 1.7003 0
M  V30 604 O 62.22 0.114967 1.93859 0
M  V30 605 C 59.35 0.619155 3.41736 0
M  V30 606 C 58.304 1.64791 3.95004 0
M  V30 607 C 57.63 1.0897 5.23478 0
M  V30 608 C 58.93 3.03999 4.24714 0
M  V30 609 H 60.624 1.96119 2.26225 0
M  V30 610 H 58.17 0.944344 1.08711 0
M  V30 611 H 60.123 0.467777 4.18796 0
M  V30 612 H 58.847 -0.344786 3.24775 0
M  V30 613 H 57.506 1.78721 3.20085 0
M  V30 614 H 57.154 0.11686 5.02864 0
M  V30 615 H 56.854 1.77704 5.60085 0
M  V30 616 H 58.378 0.950093 6.03163 0
M  V30 617 H 59.792 2.93393 4.92538 0
M  V30 618 H 58.189 3.69936 4.72512 0
M  V30 619 H 59.259 3.53285 3.32142 0
M  V30 620 N 60.6021 -1.18246 1.0419 0
M  V30 621 C 61.8271 -1.92736 0.765996 0
M  V30 622 C 62.2521 -1.75728 -0.67091 0
M  V30 623 O 61.6101 -1.06825 -1.46486 0
M  V30 624 C 61.6581 -3.42148 1.13875 0
M  V30 625 O 60.7621 -4.11548 0.264954 0
M  V30 626 H 60.1031 -0.601238 0.281797 0
M  V30 627 H 62.6331 -1.49942 1.39207 0
M  V30 628 H 62.6431 -3.92858 1.1012 0
M  V30 629 H 61.3181 -3.53848 2.18551 0
M  V30 630 H 59.8951 -3.71137 0.362226 0
M  V30 631 N 62.0802 -0.821533 -1.34494 0
M  V30 632 C 63.0132 -0.187704 -2.27427 0
M  V30 633 C 63.9912 0.65507 -1.48821 0
M  V30 634 O 65.1752 0.619111 -1.78043 0
M  V30 635 C 62.3022 0.737996 -3.30562 0
M  V30 636 C 61.3482 -0.0270713 -4.26491 0
M  V30 637 S 62.1812 -1.37329 -5.17592 0
M  V30 638 C 63.3372 -0.452427 -6.24263 0
M  V30 639 H 63.5702 -0.975598 -2.80837 0
M  V30 640 H 61.1032 -0.61736 -1.4152 0
M  V30 641 H 63.0612 1.26654 -3.90473 0
M  V30 642 H 61.7222 1.4994 -2.76001 0
M  V30 643 H 60.9152 0.6766 -4.99438 0
M  V30 644 H 60.5172 -0.48612 -3.70827 0
M  V30 645 H 62.8092 0.356557 -6.76561 0
M  V30 646 H 63.7522 -1.15153 -6.98674 0
M  V30 647 H 64.1602 -0.0414755 -5.64485 0
M  V30 648 N 63.5583 1.46682 -0.576371 0
M  V30 649 C 64.4883 2.33028 0.148397 0
M  V30 650 C 65.4693 1.44961 0.889956 0
M  V30 651 O 66.6543 1.73789 0.866662 0
M  V30 652 C 63.7843 3.27117 1.1667 0
M  V30 653 C 62.7383 4.24575 0.540386 0
M  V30 654 C 62.0643 5.08126 1.6647 0
M  V30 655 C 63.3643 5.19722 -0.518331 0
M  V30 656 H 65.0583 2.93875 -0.572509 0
M  V30 657 H 62.6043 1.41315 -0.276768 0
M  V30 658 H 64.5573 3.86374 1.68204 0
M  V30 659 H 63.2813 2.64364 1.9178 0
M  V30 660 H 61.9403 3.66571 0.0461769 0
M  V30 661 H 61.5883 4.41762 2.40531 0
M  V30 662 H 61.2883 5.74122 1.25131 0
M  V30 663 H 62.8123 5.70246 2.18293 0
M  V30 664 H 64.2263 5.73232 -0.0883058 0
M  V30 665 H 62.6233 5.94026 -0.851679 0
M  V30 666 H 63.6933 4.64037 -1.40703 0
M  V30 667 N 65.0364 0.313813 1.54444 0
M  V30 668 C 66.2844 -0.291099 1.99993 0
M  V30 669 C 66.6054 -1.53418 1.20366 0
M  V30 670 O 65.8754 -1.93544 0.302927 0
M  V30 671 H 64.4554 -0.110552 0.738774 0
M  V30 672 H 67.1174 0.428106 1.9014 0
M  V30 673 H 66.2134 -0.554268 3.07139 0
M  V30 674 N 66.5145 -1.57545 0.0417849 0
M  V30 675 C 67.4775 -2.09885 -0.92093 0
M  V30 676 C 68.4775 -1.01648 -1.24596 0
M  V30 677 O 69.6675 -1.27759 -1.1842 0
M  V30 678 C 66.7995 -2.57527 -2.23367 0
M  V30 679 H 67.9925 -2.96236 -0.467382 0
M  V30 680 H 65.5455 -1.5493 -0.206467 0
M  V30 681 H 66.2805 -1.74542 -2.73323 0
M  V30 682 H 66.0655 -3.36613 -2.01083 0
M  V30 683 H 67.5555 -2.98201 -2.92346 0
M  V30 684 N 67.9926 0.231505 -1.5589 0
M  V30 685 C 69.2416 0.955346 -1.7764 0
M  V30 686 C 69.5546 1.85893 -0.608546 0
M  V30 687 O 70.7606 2.62067 -0.70943 0
M  V30 688 C 69.2166 1.74886 -3.14552 0
M  V30 689 C 68.8246 0.891915 -4.39032 0
M  V30 690 C 70.5686 2.46452 -3.45633 0
M  V30 691 C 68.4756 1.68221 -5.66971 0
M  V30 692 H 67.4056 0.360446 -0.662265 0
M  V30 693 H 70.0566 0.209516 -1.823 0
M  V30 694 H 68.4386 2.53723 -3.04041 0
M  V30 695 H 69.6126 0.144793 -4.60572 0
M  V30 696 H 67.9276 0.288863 -4.15397 0
M  V30 697 H 70.5246 3.06061 -4.38441 0
M  V30 698 H 70.8676 3.18841 -2.67668 0
M  V30 699 H 71.4006 1.74613 -3.57428 0
M  V30 700 H 68.1396 1.00178 -6.478 0
M  V30 701 H 67.6596 2.4042 -5.49507 0
M  V30 702 H 69.3386 2.24544 -6.06786 0
M  V30 703 N 69.4707 1.49531 0.497807 0
M  V30 704 C 70.4027 1.62559 1.61578 0
M  V30 705 C 71.4157 0.508134 1.54667 0
M  V30 706 O 72.6047 0.780309 1.60541 0
M  V30 707 C 69.7047 1.56925 3.00379 0
M  V30 708 C 68.8777 2.84257 3.3244 0
M  V30 709 C 67.9367 2.71632 4.50669 0
M  V30 710 O 66.9627 3.4557 4.52294 0
M  V30 711 N 68.1647 1.83391 5.5077 0
M  V30 712 H 70.9297 2.58981 1.50828 0
M  V30 713 H 68.4907 1.4666 0.685743 0
M  V30 714 H 70.4827 1.46129 3.77397 0
M  V30 715 H 69.0527 0.683483 3.05037 0
M  V30 716 H 68.2727 3.09381 2.44289 0
M  V30 717 H 69.5607 3.68666 3.5066 0
M  V30 718 H 68.9587 1.22583 5.52259 0
M  V30 719 H 67.5157 1.78515 6.26878 0
M  V30 720 N 70.9488 -0.749086 1.3866 0
M  V30 721 C 71.8808 -1.87273 1.32142 0
M  V30 722 C 72.8938 -1.61127 0.232787 0
M  V30 723 O 74.0828 -1.71623 0.49069 0
M  V30 724 C 71.1828 -3.23005 1.02571 0
M  V30 725 C 70.3558 -3.7662 2.22433 0
M  V30 726 C 69.4148 -4.90879 1.89537 0
M  V30 727 O 68.4408 -5.05276 2.62078 0
M  V30 728 N 69.6428 -5.74198 0.853031 0
M  V30 729 H 72.4078 -1.93373 2.28969 0
M  V30 730 H 69.9688 -0.929216 1.32579 0
M  V30 731 H 71.9608 -3.96992 0.786085 0
M  V30 732 H 70.5308 -3.12262 0.145249 0
M  V30 733 H 69.7508 -2.94147 2.62434 0
M  V30 734 H 71.0388 -4.09173 3.02415 0
M  V30 735 H 70.4368 -5.6514 0.25155 0
M  V30 736 H 68.9938 -6.48313 0.67329 0
M  V30 737 N 72.4269 -1.23603 -0.977757 0
M  V30 738 C 73.3569 -1.04401 -2.0886 0
M  V30 739 C 74.3379 0.0399052 -1.70053 0
M  V30 740 O 75.5229 -0.125246 -1.93796 0
M  V30 741 C 72.6529 -0.637269 -3.41403 0
M  V30 742 C 71.6069 -1.66883 -3.94124 0
M  V30 743 C 70.9329 -1.11745 -5.22893 0
M  V30 744 C 72.2329 -3.06247 -4.23096 0
M  V30 745 H 73.9269 -1.97316 -2.25182 0
M  V30 746 H 71.4729 -0.950096 -1.08209 0
M  V30 747 H 73.4259 -0.48998 -4.18542 0
M  V30 748 H 72.1499 0.327557 -3.24953 0
M  V30 749 H 70.8089 -1.80416 -3.19133 0
M  V30 750 H 70.4569 -0.143527 -5.02795 0
M  V30 751 H 70.1569 -1.80672 -5.59134 0
M  V30 752 H 71.6809 -0.982067 -6.02651 0
M  V30 753 H 73.0949 -2.96001 -4.90975 0
M  V30 754 H 71.4919 -3.72436 -4.70544 0
M  V30 755 H 72.5619 -3.55041 -3.30263 0
M  V30 756 N 73.905 1.17692 -1.04816 0
M  V30 757 C 74.837 2.21103 -0.603822 0
M  V30 758 C 75.85 1.59411 0.33046 0
M  V30 759 O 77.039 1.7807 0.12379 0
M  V30 760 C 74.139 3.38623 0.136898 0
M  V30 761 C 73.312 4.29888 -0.807137 0
M  V30 762 C 72.371 5.26088 -0.10836 0
M  V30 763 O 71.397 5.64353 -0.741232 0
M  V30 764 N 72.599 5.68882 1.15558 0
M  V30 765 H 75.364 2.59848 -1.49329 0
M  V30 766 H 72.925 1.32553 -0.929587 0
M  V30 767 H 74.917 4.00009 0.614401 0
M  V30 768 H 73.487 2.98508 0.927993 0
M  V30 769 H 72.707 3.65993 -1.46434 0
M  V30 770 H 73.995 4.87759 -1.44807 0
M  V30 771 H 73.393 5.39861 1.69015 0
M  V30 772 H 71.95 6.32429 1.57722 0
M  V30 773 N 75.3831 0.828654 1.34056 0
M  V30 774 C 76.3151 0.212052 2.28217 0
M  V30 775 C 77.3281 -0.601362 1.51286 0
M  V30 776 O 78.5171 -0.430104 1.73241 0
M  V30 777 C 75.6171 -0.72088 3.31144 0
M  V30 778 C 74.7901 0.0509587 4.3737 0
M  V30 779 C 73.8491 -0.803766 5.20025 0
M  V30 780 O 72.8751 -0.246667 5.68665 0
M  V30 781 N 74.0771 -2.1227 5.40298 0
M  V30 782 H 76.8421 1.02105 2.81771 0
M  V30 783 H 74.4031 0.686153 1.46641 0
M  V30 784 H 76.3951 -1.29742 3.8334 0
M  V30 785 H 74.9651 -1.43061 2.77943 0
M  V30 786 H 74.1851 0.808831 3.85813 0
M  V30 787 H 75.4731 0.582065 5.0546 0
M  V30 788 H 74.8711 -2.59898 5.02464 0
M  V30 789 H 73.4281 -2.64796 5.95589 0
M  V30 790 N 76.8612 -1.46375 0.584142 0
M  V30 791 C 78.2772 -1.57694 0.245929 0
M  V30 792 C 78.4772 -1.57903 -1.25175 0
M  V30 793 O 77.5332 -1.49676 -2.03355 0
M  V30 794 C 78.8462 -2.87028 0.896402 0
M  V30 795 C 80.3942 -3.00662 0.870127 0
M  V30 796 C 80.8692 -4.32734 1.50017 0
M  V30 797 N 82.3602 -4.39436 1.46458 0
M  V30 798 C 83.0952 -5.40248 1.92144 0
M  V30 799 N 82.5912 -6.47726 2.4581 0
M  V30 800 N 84.3842 -5.31459 1.83052 0
M  V30 801 H 76.5352 -1.44483 1.55687 0
M  V30 802 H 78.7982 -0.689291 0.650831 0
M  V30 803 H 78.5042 -2.9269 1.95002 0
M  V30 804 H 78.3782 -3.75014 0.405486 0
M  V30 805 H 80.7652 -2.94581 -0.174871 0
M  V30 806 H 80.8462 -2.14148 1.39908 0
M  V30 807 H 80.4902 -4.39573 2.54437 0
M  V30 808 H 80.4202 -5.18025 0.946432 0
M  V30 809 H 82.9112 -3.62367 1.07231 0
M  V30 810 H 83.2242 -7.20863 2.78525 0
M  V30 811 H 81.5692 -6.48542 2.49836 0
M  V30 812 H 84.7602 -4.46396 1.40883 0
M  V30 813 H 84.9332 -6.09881 2.18973 0
M  V30 814 N 78.3393 -0.321999 -1.54275 0
M  V30 815 C 79.5873 0.280489 -2.00144 0
M  V30 816 C 79.9083 1.52777 -1.21178 0
M  V30 817 O 79.1783 1.9338 -0.313187 0
M  V30 818 H 77.7583 0.106632 -0.73935 0
M  V30 819 H 80.4203 -0.438184 -1.8991 0
M  V30 820 H 79.5163 0.537972 -3.07428 0
M  V30 821 N 79.8174 1.5752 -0.0501392 0
M  V30 822 C 80.7674 2.07981 0.934231 0
M  V30 823 C 81.7514 0.984745 1.27246 0
M  V30 824 O 82.9434 1.24809 1.25506 0
M  V30 825 C 80.0724 2.62751 2.20945 0
M  V30 826 C 79.1584 3.79225 1.89865 0
M  V30 827 N 79.5494 4.89036 1.29142 0
M  V30 828 C 77.8474 3.88111 2.19741 0
M  V30 829 C 78.5484 5.70084 1.15669 0
M  V30 830 N 77.5244 5.17659 1.65923 0
M  V30 831 H 81.3264 2.90277 0.460053 0
M  V30 832 H 78.8404 1.61665 0.15434 0
M  V30 833 H 80.8374 2.97205 2.9236 0
M  V30 834 H 79.4974 1.81894 2.6897 0
M  V30 835 H 80.5084 5.08854 0.963756 0
M  V30 836 H 77.1854 3.18194 2.70293 0
M  V30 837 H 78.5754 6.68395 0.685356 0
M  V30 838 N 81.2955 -0.223234 1.56011 0
M  V30 839 C 82.2055 -1.29766 1.95443 0
M  V30 840 C 83.2215 -1.51373 0.858028 0
M  V30 841 O 84.3975 -1.64536 1.16146 0
M  V30 842 C 81.4625 -2.62772 2.26167 0
M  V30 843 C 80.5235 -2.49482 3.49367 0
M  V30 844 C 79.7565 -3.76145 3.78616 0
M  V30 845 O 79.9795 -4.79087 3.09568 0
M  V30 846 O 78.9135 -3.73358 4.72109 0
M  V30 847 H 82.7395 -0.99309 2.87004 0
M  V30 848 H 80.3245 -0.425958 1.43199 0
M  V30 849 H 82.2065 -3.41327 2.47131 0
M  V30 850 H 80.8815 -2.92913 1.37781 0
M  V30 851 H 79.7885 -1.69133 3.33684 0
M  V30 852 H 81.1215 -2.2428 4.38131 0
M  V30 853 N 82.7736 -1.49793 -0.48987 0
M  V30 854 C 84.0226 -1.59085 -1.23995 0
M  V30 855 C 84.3356 -0.287907 -1.9347 0
M  V30 856 O 85.5416 -0.259506 -2.70257 0
M  V30 857 C 83.9976 -2.80736 -2.252 0
M  V30 858 C 83.6056 -4.17833 -1.61614 0
M  V30 859 C 85.3496 -2.99364 -3.00967 0
M  V30 860 C 83.2566 -5.30693 -2.60996 0
M  V30 861 H 82.1866 -0.592372 -0.466488 0
M  V30 862 H 84.8376 -1.76197 -0.51252 0
M  V30 863 H 83.2196 -2.57142 -3.01154 0
M  V30 864 H 84.3936 -4.51608 -0.915774 0
M  V30 865 H 82.7086 -4.04656 -0.981977 0
M  V30 866 H 85.3056 -3.80851 -3.75308 0
M  V30 867 H 85.6486 -2.10356 -3.59244 0
M  V30 868 H 86.1816 -3.2305 -2.32128 0
M  V30 869 H 82.9206 -6.21796 -2.07485 0
M  V30 870 H 82.4406 -5.01359 -3.2924 0
M  V30 871 H 84.1196 -5.6049 -3.23202 0
M  V30 872 N 84.2517 0.741722 -1.39055 0
M  V30 873 C 85.4977 1.50336 -1.36113 0
M  V30 874 C 85.8307 1.94148 0.0450796 0
M  V30 875 O 85.1057 1.66301 1.00868 0
M  V30 876 C 85.3887 2.74773 -2.32749 0
M  V30 877 C 85.2417 2.37023 -3.82283 0
M  V30 878 C 86.5607 3.76846 -2.27322 0
M  V30 879 H 83.6797 0.545351 -0.495743 0
M  V30 880 H 86.3217 0.848624 -1.69995 0
M  V30 881 H 84.4717 3.30639 -2.03986 0
M  V30 882 H 86.1437 1.8684 -4.21768 0
M  V30 883 H 84.3867 1.69334 -3.99385 0
M  V30 884 H 85.0577 3.26104 -4.45376 0
M  V30 885 H 87.5337 3.30548 -2.5274 0
M  V30 886 H 86.4097 4.6159 -2.97028 0
M  V30 887 H 86.6707 4.23286 -1.27599 0
M  V30 888 N 85.7298 1.2412 0.971189 0
M  V30 889 C 86.9758 1.08041 1.71625 0
M  V30 890 C 87.3088 -0.380407 1.90438 0
M  V30 891 O 86.5838 -1.28127 1.46334 0
M  V30 892 C 86.8668 1.81682 3.10908 0
M  V30 893 C 86.7198 3.35493 2.99608 0
M  V30 894 C 88.0388 1.58671 4.10501 0
M  V30 895 H 85.1578 0.39388 0.622919 0
M  V30 896 H 87.7998 1.52743 1.13003 0
M  V30 897 H 85.9498 1.43684 3.60953 0
M  V30 898 H 87.6218 3.83068 2.57015 0
M  V30 899 H 85.8648 3.64052 2.35899 0
M  V30 900 H 86.5358 3.82217 3.98264 0
M  V30 901 H 89.0118 1.91719 3.69301 0
M  V30 902 H 87.8878 2.1266 5.06031 0
M  V30 903 H 88.1488 0.524161 4.38982 0
M  V30 904 N 87.2079 -1.17134 1.05439 0
M  V30 905 C 88.1379 -2.2342 0.678649 0
M  V30 906 C 89.1189 -1.66971 -0.32476 0
M  V30 907 O 90.3039 -1.93149 -0.201802 0
M  V30 908 C 87.4339 -3.47256 0.0552099 0
M  V30 909 C 86.3879 -4.16543 0.98365 0
M  V30 910 C 85.7139 -5.34231 0.223961 0
M  V30 911 C 87.0139 -4.68495 2.3089 0
M  V30 912 H 88.7079 -2.55105 1.56722 0
M  V30 913 H 86.2539 -1.2262 0.754998 0
M  V30 914 H 88.2069 -4.20828 -0.21946 0
M  V30 915 H 86.9309 -3.14846 -0.868319 0
M  V30 916 H 85.5899 -3.44887 1.24293 0
M  V30 917 H 85.2379 -4.98071 -0.702412 0
M  V30 918 H 84.9379 -5.81527 0.842627 0
M  V30 919 H 86.4619 -6.10585 -0.0433671 0
M  V30 920 H 87.8759 -5.33691 2.09396 0
M  V30 921 H 86.2729 -5.26379 2.88176 0
M  V30 922 H 87.3429 -3.85169 2.94572 0
M  V30 923 N 88.686 -0.835752 -1.33615 0
M  V30 924 C 89.649 -0.272 -2.2758 0
M  V30 925 C 90.649 0.557487 -1.50827 0
M  V30 926 O 91.839 0.37173 -1.70188 0
M  V30 927 C 88.971 0.617173 -3.35267 0
M  V30 928 H 90.164 -1.10111 -2.78954 0
M  V30 929 H 87.717 -0.608594 -1.43965 0
M  V30 930 H 88.452 1.46884 -2.89129 0
M  V30 931 H 88.237 0.0237066 -3.92093 0
M  V30 932 H 89.727 1.005 -4.05326 0
M  V30 933 N 90.1641 1.46063 -0.591896 0
M  V30 934 C 91.5751 1.85944 -0.167822 0
M  V30 935 C 91.9261 1.49429 1.27143 0
M  V30 936 O 91.0511 0.913515 1.96173 0
M  V30 937 C 91.6461 3.37489 -0.297794 0
M  V30 938 C 90.2051 3.76332 0.0714732 0
M  V30 939 C 89.3521 2.7006 -0.629509 0
M  V30 940 H 92.3031 1.37087 -0.799555 0
M  V30 941 H 92.3241 3.77532 0.474349 0
M  V30 942 H 91.8361 3.64034 -1.3454 0
M  V30 943 H 89.9371 3.55405 1.11886 0
M  V30 944 H 90.0501 4.78088 -0.311245 0
M  V30 945 H 88.4141 2.54607 -0.0687867 0
M  V30 946 H 89.1971 2.99444 -1.67894 0
M  V30 947 N 91.6422 0.330177 1.54103 0
M  V30 948 C 92.9192 -0.325007 1.92881 0
M  V30 949 C 93.2992 -1.6934 1.26045 0
M  V30 950 O 92.6472 -2.24855 0.406526 0
M  V30 951 C 92.8572 -0.410634 3.46576 0
M  V30 952 C 94.2052 -0.667801 4.19316 0
M  V30 953 O 95.2292 -0.49329 3.52768 0
M  V30 954 O 94.0882 -1.00491 5.37181 0
M  V30 955 H 91.1822 -0.186873 0.80561 0
M  V30 956 H 93.7282 0.380376 1.65382 0
M  V30 957 H 92.5002 0.550164 3.87413 0
M  V30 958 H 92.1232 -1.16333 3.802 0
M  V30 959 N 93.1203 -1.57491 0.0584922 0
M  V30 960 C 94.0833 -2.1085 -0.898617 0
M  V30 961 C 95.0833 -1.02964 -1.23511 0
M  V30 962 O 96.2733 -1.29007 -1.17059 0
M  V30 963 C 93.4053 -2.59881 -2.20623 0
M  V30 964 H 94.5983 -2.96715 -0.435936 0
M  V30 965 H 92.1513 -1.55141 -0.190023 0
M  V30 966 H 92.8863 -1.77431 -2.71457 0
M  V30 967 H 92.6713 -3.38727 -1.97501 0
M  V30 968 H 94.1613 -3.01285 -2.89166 0
M  V30 969 N 94.5984 0.214957 -1.56127 0
M  V30 970 C 95.8234 0.95924 -1.83884 0
M  V30 971 C 96.2484 1.7689 -0.639644 0
M  V30 972 O 95.6064 1.76566 0.411601 0
M  V30 973 C 95.6544 1.84723 -3.09693 0
M  V30 974 O 94.7584 2.94346 -2.8885 0
M  V30 975 H 94.0994 0.27125 -0.606069 0
M  V30 976 H 96.6294 0.226276 -2.03345 0
M  V30 977 H 96.6394 2.25576 -3.39969 0
M  V30 978 H 95.3144 1.25218 -3.96602 0
M  V30 979 H 93.8914 2.57391 -2.69823 0
M  V30 980 N 96.0765 1.50051 0.48192 0
M  V30 981 C 97.0065 1.71046 1.58951 0
M  V30 982 C 97.9875 0.559288 1.60642 0
M  V30 983 O 99.1725 0.797243 1.77081 0
M  V30 984 C 96.3025 1.79462 2.97339 0
M  V30 985 C 95.2565 2.94558 3.10515 0
M  V30 986 C 94.5825 2.88105 4.50444 0
M  V30 987 C 95.8825 4.35227 2.88747 0
M  V30 988 H 97.5765 2.6378 1.41635 0
M  V30 989 H 95.1225 1.26936 0.679942 0
M  V30 990 H 97.0755 1.92734 3.74742 0
M  V30 991 H 95.7995 0.833412 3.15788 0
M  V30 992 H 94.4585 2.80918 2.35543 0
M  V30 993 H 94.1065 1.89853 4.65795 0
M  V30 994 H 93.8065 3.65366 4.60197 0
M  V30 995 H 95.3305 3.03412 5.29881 0
M  V30 996 H 96.7445 4.49449 3.55905 0
M  V30 997 H 95.1415 5.13856 3.09955 0
M  V30 998 H 96.2115 4.48347 1.84696 0
M  V30 999 N 97.5546 -0.734337 1.39446 0
M  V30 1000 C 98.7846 -1.52137 1.39778 0
M  V30 1001 C 99.1926 -1.89198 -0.00929312 0
M  V30 1002 O 98.5356 -1.54666 -0.991168 0
M  V30 1003 C 98.5976 -2.83762 2.20724 0
M  V30 1004 C 98.2616 -2.69131 3.69347 0
M  V30 1005 C 99.2586 -2.37635 4.62413 0
M  V30 1006 C 96.9436 -2.85982 4.1294 0
M  V30 1007 C 98.9376 -2.23172 5.97054 0
M  V30 1008 C 96.6246 -2.71137 5.47657 0
M  V30 1009 C 97.6226 -2.39777 6.39528 0
M  V30 1010 O 97.3106 -2.25026 7.71763 0
M  V30 1011 H 97.0426 -0.476717 0.479288 0
M  V30 1012 H 99.5966 -0.915012 1.83893 0
M  V30 1013 H 97.8266 -3.4666 1.71359 0
M  V30 1014 H 99.5156 -3.45383 2.13226 0
M  V30 1015 H 100.282 -2.24267 4.30034 0
M  V30 1016 H 96.1606 -3.09383 3.41765 0
M  V30 1017 H 99.7046 -1.98617 6.68728 0
M  V30 1018 H 95.6016 -2.84083 5.79626 0
M  V30 1019 H 96.3696 -2.40091 7.82495 0
M  V30 1020 N 99.0327 -1.24633 -0.964593 0
M  V30 1021 C 100.282 -1.08188 -1.7023 0
M  V30 1022 C 100.595 0.37873 -1.91898 0
M  V30 1023 O 101.801 0.663427 -2.6327 0
M  V30 1024 C 100.257 -1.88773 -3.06419 0
M  V30 1025 C 99.8647 -3.39263 -2.92582 0
M  V30 1026 C 101.609 -1.80867 -3.84041 0
M  V30 1027 C 99.5157 -4.1218 -4.24101 0
M  V30 1028 H 98.4457 -0.401245 -0.638372 0
M  V30 1029 H 101.097 -1.48742 -1.07462 0
M  V30 1030 H 99.4787 -1.41035 -3.70034 0
M  V30 1031 H 100.653 -3.94603 -2.37961 0
M  V30 1032 H 98.9677 -3.48154 -2.28424 0
M  V30 1033 H 101.565 -2.32646 -4.81435 0
M  V30 1034 H 101.908 -0.774543 -4.09031 0
M  V30 1035 H 102.441 -2.26301 -3.27159 0
M  V30 1036 H 99.1797 -5.15965 -4.04303 0
M  V30 1037 H 98.6997 -3.61626 -4.78526 0
M  V30 1038 H 100.379 -4.19349 -4.92702 0
M  V30 1039 N 100.511 1.16574 -1.06058 0
M  V30 1040 C 101.927 1.3904 -0.783585 0
M  V30 1041 C 102.127 1.91784 0.618145 0
M  V30 1042 O 101.183 2.11511 1.37911 0
M  V30 1043 C 102.496 2.37329 -1.84649 0
M  V30 1044 C 104.044 2.51018 -1.86973 0
M  V30 1045 C 104.519 3.52588 -2.92311 0
M  V30 1046 N 106.01 3.60113 -2.91329 0
M  V30 1047 C 106.745 4.38486 -3.69482 0
M  V30 1048 N 106.241 5.20302 -4.57447 0
M  V30 1049 N 108.034 4.33446 -3.57885 0
M  V30 1050 H 100.185 0.806725 -1.96483 0
M  V30 1051 H 102.448 0.417117 -0.851303 0
M  V30 1052 H 102.154 2.05663 -2.85299 0
M  V30 1053 H 102.028 3.36946 -1.6955 0
M  V30 1054 H 104.415 2.81989 -0.869827 0
M  V30 1055 H 104.496 1.51445 -2.0615 0
M  V30 1056 H 104.14 3.22354 -3.92492 0
M  V30 1057 H 104.07 4.51886 -2.70383 0
M  V30 1058 H 106.561 3.01707 -2.27555 0
M  V30 1059 H 106.874 5.77311 -5.13743 0
M  V30 1060 H 105.219 5.19653 -4.61503 0
M  V30 1061 H 108.41 3.68586 -2.88551 0
M  V30 1062 H 108.583 4.94279 -4.19037 0
M  V30 1063 N 101.989 0.842826 1.3317 0
M  V30 1064 C 103.266 0.362216 1.92217 0
M  V30 1065 C 103.646 -1.15289 1.76838 0
M  V30 1066 O 102.994 -1.96914 1.15919 0
M  V30 1067 C 103.204 0.813495 3.39387 0
M  V30 1068 C 104.552 0.823804 4.16532 0
M  V30 1069 O 105.576 0.757358 3.48055 0
M  V30 1070 O 104.435 0.915193 5.38782 0
M  V30 1071 H 101.529 0.103317 0.820521 0
M  V30 1072 H 104.075 0.928942 1.42017 0
M  V30 1073 H 102.847 1.85624 3.4447 0
M  V30 1074 H 102.47 0.223561 3.96971 0
M  V30 1075 N 103.467 -1.45747 0.599634 0
M  V30 1076 C 104.715 -2.01893 0.0915472 0
M  V30 1077 C 105.036 -1.47155 -1.27946 0
M  V30 1078 O 104.306 -0.66273 -1.84349 0
M  V30 1079 H 102.886 -0.746363 0.0308524 0
M  V30 1080 H 105.548 -1.78645 0.779237 0
M  V30 1081 H 104.644 -3.1208 0.0353086 0
M  V30 1082 N 104.945 -0.338344 -1.53925 0
M  V30 1083 C 105.908 0.508299 -2.23493 0
M  V30 1084 C 106.908 1.03175 -1.23335 0
M  V30 1085 O 108.098 0.921826 -1.47811 0
M  V30 1086 C 105.23 1.70754 -2.95052 0
M  V30 1087 H 106.423 -0.100058 -2.99733 0
M  V30 1088 H 103.976 -0.0896198 -1.56043 0
M  V30 1089 H 104.711 2.35474 -2.22986 0
M  V30 1090 H 104.496 1.33946 -3.68512 0
M  V30 1091 H 105.986 2.30818 -3.48013 0
M  V30 1092 N 106.423 1.57458 -0.0668435 0
M  V30 1093 C 107.67 1.93301 0.603406 0
M  V30 1094 C 107.998 0.946486 1.69917 0
M  V30 1095 O 107.253 -0.0387021 1.95662 0
M  V30 1096 C 107.552 3.35784 1.22409 0
M  V30 1097 C 107.218 4.50179 0.254955 0
M  V30 1098 C 105.88 4.81199 -0.0116746 0
M  V30 1099 C 108.232 5.19598 -0.408338 0
M  V30 1100 C 105.56 5.78978 -0.94877 0
M  V30 1101 C 107.912 6.18381 -1.33372 0
M  V30 1102 C 106.576 6.47821 -1.60887 0
M  V30 1103 H 105.846 0.707338 0.220802 0
M  V30 1104 H 108.493 1.91012 -0.136665 0
M  V30 1105 H 106.798 3.34515 2.03978 0
M  V30 1106 H 108.495 3.60804 1.74989 0
M  V30 1107 H 105.085 4.25983 0.472954 0
M  V30 1108 H 109.269 4.95832 -0.215456 0
M  V30 1109 H 104.525 6.00115 -1.16925 0
M  V30 1110 H 108.699 6.71277 -1.85367 0
M  V30 1111 H 106.326 7.23399 -2.33661 0
M  V30 1112 N 107.901 -0.206675 1.56239 0
M  V30 1113 C 109.131 -0.943975 1.83773 0
M  V30 1114 C 109.539 -1.77841 0.645703 0
M  V30 1115 O 108.882 -1.79403 -0.395008 0
M  V30 1116 C 108.944 -1.899 3.05251 0
M  V30 1117 C 108.608 -1.24764 4.39639 0
M  V30 1118 C 109.605 -0.630216 5.16066 0
M  V30 1119 C 107.29 -1.25496 4.8637 0
M  V30 1120 C 109.284 -0.0287946 6.37393 0
M  V30 1121 C 106.971 -0.649698 6.07637 0
M  V30 1122 C 107.969 -0.0376845 6.8299 0
M  V30 1123 O 107.657 0.55812 8.0196 0
M  V30 1124 H 107.389 -0.281508 0.614597 0
M  V30 1125 H 109.943 -0.222458 2.04192 0
M  V30 1126 H 108.173 -2.6599 2.80689 0
M  V30 1127 H 109.862 -2.5031 3.1953 0
M  V30 1128 H 110.628 -0.616785 4.81062 0
M  V30 1129 H 106.507 -1.72072 4.27683 0
M  V30 1130 H 110.051 0.449518 6.9615 0
M  V30 1131 H 105.948 -0.660592 6.42111 0
M  V30 1132 H 106.716 0.453891 8.17241 0
M  V30 1133 N 109.379 -1.50304 -0.473955 0
M  V30 1134 C 110.607 -1.64902 -1.24959 0
M  V30 1135 C 111.022 -0.331198 -1.85872 0
M  V30 1136 O 110.379 0.68652 -1.69095 0
M  V30 1137 C 110.43 -2.73803 -2.36038 0
M  V30 1138 O 110.151 -4.00477 -1.77624 0
M  V30 1139 C 111.652 -2.99349 -3.26964 0
M  V30 1140 H 108.872 -0.554383 -0.378022 0
M  V30 1141 H 111.416 -1.9651 -0.566054 0
M  V30 1142 H 109.571 -2.44898 -3.00173 0
M  V30 1143 H 109.985 -4.60678 -2.5075 0
M  V30 1144 H 111.459 -3.79217 -4.01121 0
M  V30 1145 H 111.936 -2.10307 -3.85574 0
M  V30 1146 H 112.542 -3.29774 -2.68569 0
M  V30 1147 N 110.857 0.726932 -1.39834 0
M  V30 1148 C 111.787 1.85405 -1.41941 0
M  V30 1149 C 112.768 1.67751 -0.281728 0
M  V30 1150 O 113.953 1.8795 -0.488717 0
M  V30 1151 C 111.083 3.23243 -1.2701 0
M  V30 1152 C 110.037 3.55549 -2.38262 0
M  V30 1153 C 109.363 4.9241 -2.08415 0
M  V30 1154 C 110.663 3.577 -3.80589 0
M  V30 1155 H 112.357 1.83899 -2.36266 0
M  V30 1156 H 109.903 0.883349 -1.13723 0
M  V30 1157 H 111.856 4.01775 -1.27103 0
M  V30 1158 H 110.58 3.25296 -0.291564 0
M  V30 1159 H 109.239 2.79351 -2.37399 0
M  V30 1160 H 108.887 4.91052 -1.0898 0
M  V30 1161 H 108.587 5.14992 -2.82943 0
M  V30 1162 H 110.111 5.73289 -2.10171 0
M  V30 1163 H 111.525 4.26293 -3.83337 0
M  V30 1164 H 109.922 3.91804 -4.54543 0
M  V30 1165 H 110.992 2.57328 -4.10987 0
M  V30 1166 N 112.336 1.25143 0.95797 0
M  V30 1167 C 113.283 1.05235 2.05412 0
M  V30 1168 C 114.253 -0.0374561 1.66058 0
M  V30 1169 O 115.438 0.119073 1.90428 0
M  V30 1170 C 112.578 0.673589 3.38462 0
M  V30 1171 C 111.691 1.8379 3.90954 0
M  V30 1172 C 110.826 1.40381 5.12315 0
M  V30 1173 C 109.865 2.53746 5.57027 0
M  V30 1174 N 109.002 2.11136 6.69601 0
M  V30 1175 H 113.842 1.99048 2.21774 0
M  V30 1176 H 111.379 0.991277 1.08683 0
M  V30 1177 H 113.337 0.434964 4.14926 0
M  V30 1178 H 111.967 -0.227554 3.21997 0
M  V30 1179 H 111.019 2.18992 3.11041 0
M  V30 1180 H 112.331 2.68937 4.20089 0
M  V30 1181 H 111.485 1.12464 5.96185 0
M  V30 1182 H 110.224 0.523015 4.84887 0
M  V30 1183 H 109.229 2.82412 4.71724 0
M  V30 1184 H 110.454 3.42398 5.86464 0
M  V30 1185 H 108.4 1.25468 6.4389 0
M  V30 1186 H 108.317 2.89832 6.98236 0
M  V30 1187 H 109.585 1.86385 7.56889 0
M  V30 1188 N 113.814 -1.1601 1.06675 0
M  V30 1189 C 115.042 -1.90527 0.806667 0
M  V30 1190 C 115.457 -1.77643 -0.639396 0
M  V30 1191 O 114.814 -1.12369 -1.43803 0
M  V30 1192 C 114.865 -3.41106 1.19705 0
M  V30 1193 O 114.586 -3.53608 2.58636 0
M  V30 1194 C 116.087 -4.32663 0.965266 0
M  V30 1195 H 113.307 -0.604053 0.292166 0
M  V30 1196 H 115.851 -1.47026 1.4214 0
M  V30 1197 H 114.006 -3.82296 0.626774 0
M  V30 1198 H 114.42 -4.47011 2.74375 0
M  V30 1199 H 115.894 -5.36763 1.288 0
M  V30 1200 H 116.371 -4.39089 -0.0987936 0
M  V30 1201 H 116.977 -3.97206 1.52011 0
M  V30 1202 N 115.292 -0.849877 -1.32721 0
M  V30 1203 C 116.522 -0.46408 -2.0132 0
M  V30 1204 C 116.93 0.94246 -1.64056 0
M  V30 1205 O 116.273 1.6257 -0.855379 0
M  V30 1206 C 116.335 -0.517887 -3.5575 0
M  V30 1207 C 115.999 -1.88248 -4.16427 0
M  V30 1208 C 116.996 -2.84726 -4.35002 0
M  V30 1209 C 114.681 -2.17832 -4.52609 0
M  V30 1210 C 116.675 -4.08945 -4.8892 0
M  V30 1211 C 114.362 -3.42304 -5.06232 0
M  V30 1212 C 115.36 -4.37677 -5.24335 0
M  V30 1213 O 115.048 -5.59946 -5.76815 0
M  V30 1214 H 114.78 -0.181327 -0.651227 0
M  V30 1215 H 117.334 -1.14713 -1.70382 0
M  V30 1216 H 115.564 0.221997 -3.86062 0
M  V30 1217 H 117.253 -0.148366 -4.05629 0
M  V30 1218 H 118.019 -2.63174 -4.07388 0
M  V30 1219 H 113.898 -1.44385 -4.37806 0
M  V30 1220 H 117.442 -4.83396 -5.02966 0
M  V30 1221 H 113.339 -3.63709 -5.33278 0
M  V30 1222 H 114.107 -5.61838 -5.95214 0
M  V30 1223 N 116.77 1.45427 -0.607355 0
M  V30 1224 C 118.181 1.85756 -0.187535 0
M  V30 1225 C 118.532 1.5077 1.25551 0
M  V30 1226 O 117.657 0.93427 1.95193 0
M  V30 1227 C 118.252 3.37154 -0.333572 0
M  V30 1228 C 116.811 3.76387 0.0315542 0
M  V30 1229 C 115.958 2.69377 -0.658117 0
M  V30 1230 H 118.909 1.36231 -0.81405 0
M  V30 1231 H 118.93 3.78014 0.43428 0
M  V30 1232 H 118.442 3.62586 -1.38393 0
M  V30 1233 H 116.543 3.56571 1.0811 0
M  V30 1234 H 116.656 4.77731 -0.361935 0
M  V30 1235 H 115.02 2.5452 -0.0957873 0
M  V30 1236 H 115.803 2.97646 -1.7106 0
M  V30 1237 N 118.248 0.346503 1.53744 0
M  V30 1238 C 119.494 -0.249473 2.0126 0
M  V30 1239 C 119.827 -1.49965 1.23386 0
M  V30 1240 O 119.102 -1.91811 0.32229 0
M  V30 1241 C 119.385 -0.560643 3.55709 0
M  V30 1242 C 119.238 0.701836 4.44291 0
M  V30 1243 C 120.557 -1.36905 4.18264 0
M  V30 1244 H 117.676 -0.0891987 0.731582 0
M  V30 1245 H 120.318 0.467624 1.84156 0
M  V30 1246 H 118.468 -1.17156 3.70414 0
M  V30 1247 H 120.14 1.33974 4.41417 0
M  V30 1248 H 118.383 1.32612 4.13033 0
M  V30 1249 H 119.054 0.43933 5.50249 0
M  V30 1250 H 121.53 -0.852448 4.07275 0
M  V30 1251 H 120.406 -1.55553 5.26398 0
M  V30 1252 H 120.667 -2.37203 3.73078 0
M  V30 1253 N 119.726 -1.57421 0.075193 0
M  V30 1254 C 121.137 -1.81021 -0.456964 0
M  V30 1255 C 121.488 -0.98936 -1.69429 0
M  V30 1256 O 120.613 -0.212865 -2.15351 0
M  V30 1257 C 121.208 -3.28329 -0.83581 0
M  V30 1258 C 119.767 -3.52764 -1.31281 0
M  V30 1259 C 118.914 -2.75676 -0.299648 0
M  V30 1260 H 121.865 -1.55822 0.300856 0
M  V30 1261 H 121.886 -3.40564 -1.69696 0
M  V30 1262 H 121.398 -3.88046 0.0649238 0
M  V30 1263 H 119.499 -2.98355 -2.23193 0
M  V30 1264 H 119.612 -4.61451 -1.28839 0
M  V30 1265 H 117.976 -2.42538 -0.777641 0
M  V30 1266 H 118.759 -3.38132 0.593417 0
M  V30 1267 N 121.204 0.198386 -1.56346 0
M  V30 1268 C 122.451 0.919286 -1.80431 0
M  V30 1269 C 122.779 1.83393 -0.647866 0
M  V30 1270 O 122.034 1.92236 0.366556 0
M  V30 1271 C 122.333 1.77031 -3.10475 0
M  V30 1272 C 121.999 1.00693 -4.39513 0
M  V30 1273 C 120.661 0.796145 -4.74568 0
M  V30 1274 C 123.013 0.469559 -5.19081 0
M  V30 1275 C 120.341 0.0364588 -5.86689 0
M  V30 1276 C 122.693 -0.2769 -6.31994 0
M  V30 1277 C 121.357 -0.49873 -6.65634 0
M  V30 1278 H 120.627 0.336391 -0.660244 0
M  V30 1279 H 123.274 0.185872 -1.90596 0
M  V30 1280 H 121.579 2.5723 -2.95533 0
M  V30 1281 H 123.276 2.33065 -3.26315 0
M  V30 1282 H 119.866 1.18122 -4.12001 0
M  V30 1283 H 124.05 0.619816 -4.92414 0
M  V30 1284 H 119.306 -0.145412 -6.11227 0
M  V30 1285 H 123.48 -0.700684 -6.92866 0
M  V30 1286 H 121.107 -1.0893 -7.52355 0
M  V30 1287 N 122.682 1.50554 0.465978 0
M  V30 1288 C 123.614 1.65949 1.58093 0
M  V30 1289 C 124.627 0.540827 1.53554 0
M  V30 1290 O 125.816 0.814187 1.5885 0
M  V30 1291 C 122.916 1.63261 2.96983 0
M  V30 1292 C 122.089 2.91245 3.26336 0
M  V30 1293 C 121.148 2.8113 4.44806 0
M  V30 1294 O 120.174 3.55086 4.44862 0
M  V30 1295 N 121.376 1.95032 5.46756 0
M  V30 1296 H 124.141 2.62122 1.45301 0
M  V30 1297 H 121.702 1.48082 0.65448 0
M  V30 1298 H 123.694 1.54101 3.74212 0
M  V30 1299 H 122.264 0.748032 3.03518 0
M  V30 1300 H 121.484 3.14493 2.37672 0
M  V30 1301 H 122.772 3.76022 3.42761 0
M  V30 1302 H 122.17 1.3427 5.49534 0
M  V30 1303 H 120.727 1.91772 6.2295 0
M  V30 1304 N 124.16 -0.719506 1.40217 0
M  V30 1305 C 125.576 -1.02707 1.22161 0
M  V30 1306 C 125.776 -2.0128 0.0940557 0
M  V30 1307 O 124.832 -2.46452 -0.549318 0
M  V30 1308 C 126.145 -1.57454 2.56181 0
M  V30 1309 C 127.693 -1.69458 2.63159 0
M  V30 1310 C 128.168 -2.27611 3.97438 0
M  V30 1311 N 129.659 -2.35002 3.99159 0
M  V30 1312 C 130.394 -2.80972 4.99842 0
M  V30 1313 N 129.89 -3.26723 6.10921 0
M  V30 1314 N 131.683 -2.80321 4.87213 0
M  V30 1315 H 123.834 -0.0660492 2.12297 0
M  V30 1316 H 126.097 -0.0919077 0.943534 0
M  V30 1317 H 125.803 -0.924873 3.39321 0
M  V30 1318 H 125.677 -2.56036 2.76993 0
M  V30 1319 H 128.064 -2.33543 1.80393 0
M  V30 1320 H 128.145 -0.694867 2.46181 0
M  V30 1321 H 127.789 -1.6415 4.80643 0
M  V30 1322 H 127.719 -3.2829 4.11744 0
M  V30 1323 H 130.21 -2.02685 3.18947 0
M  V30 1324 H 130.523 -3.60355 6.8364 0
M  V30 1325 H 128.868 -3.24692 6.14492 0
M  V30 1326 H 132.059 -2.43912 3.9953 0
M  V30 1327 H 132.232 -3.15831 5.65822 0
M  V30 1328 N 125.638 -1.25649 -0.95132 0
M  V30 1329 C 126.548 -1.08073 -2.08224 0
M  V30 1330 C 127.564 -0.0169666 -1.73992 0
M  V30 1331 O 128.74 -0.218593 -2.0021 0
M  V30 1332 C 125.805 -0.704922 -3.39458 0
M  V30 1333 C 124.866 -1.84699 -3.87537 0
M  V30 1334 C 124.099 -1.48902 -5.12508 0
M  V30 1335 O 124.322 -0.386156 -5.69091 0
M  V30 1336 O 123.256 -2.32033 -5.55378 0
M  V30 1337 H 127.082 -2.02924 -2.25954 0
M  V30 1338 H 124.667 -1.04618 -1.06656 0
M  V30 1339 H 126.549 -0.507609 -4.18332 0
M  V30 1340 H 125.224 0.214291 -3.2299 0
M  V30 1341 H 124.131 -2.09919 -3.09653 0
M  V30 1342 H 125.464 -2.74557 -4.08509 0
M  V30 1343 N 127.117 1.15442 -1.07289 0
M  V30 1344 C 128.394 1.82306 -0.708792 0
M  V30 1345 C 128.774 1.94991 0.808807 0
M  V30 1346 O 128.122 1.50085 1.72298 0
M  V30 1347 C 128.332 3.18695 -1.42247 0
M  V30 1348 C 129.68 3.94341 -1.57417 0
M  V30 1349 O 130.704 3.28247 -1.38319 0
M  V30 1350 O 129.563 5.12839 -1.88834 0
M  V30 1351 H 126.657 0.787628 -0.252132 0
M  V30 1352 H 129.203 1.22559 -1.17377 0
M  V30 1353 H 127.975 3.04557 -2.45684 0
M  V30 1354 H 127.598 3.86128 -0.948223 0
M  V30 1355 N 128.595 0.856903 1.32268 0
M  V30 1356 C 129.841 0.462069 1.97466 0
M  V30 1357 C 130.174 -0.980298 1.67642 0
M  V30 1358 O 129.449 -1.68824 0.965858 0
M  V30 1359 C 129.732 0.704336 3.53145 0
M  V30 1360 C 129.585 2.19529 3.9259 0
M  V30 1361 C 130.904 0.1622 4.39801 0
M  V30 1362 H 128.023 0.169357 0.717278 0
M  V30 1363 H 130.665 1.07574 1.56614 0
M  V30 1364 H 128.815 0.181999 3.88073 0
M  V30 1365 H 130.487 2.78387 3.67829 0
M  V30 1366 H 128.73 2.67292 3.41668 0
M  V30 1367 H 129.401 2.31549 5.01088 0
M  V30 1368 H 131.877 0.608905 4.11621 0
M  V30 1369 H 130.753 0.361265 5.4771 0
M  V30 1370 H 131.014 -0.935158 4.32096 0
M  V30 1371 N 130.073 -1.45103 0.615059 0
M  V30 1372 C 131.02 -2.30586 -0.0993978 0
M  V30 1373 C 131.99 -1.42544 -0.852669 0
M  V30 1374 O 133.175 -1.71465 -0.836917 0
M  V30 1375 C 130.315 -3.27572 -1.08583 0
M  V30 1376 C 129.428 -4.30717 -0.332656 0
M  V30 1377 C 128.563 -5.14807 -1.30947 0
M  V30 1378 C 127.602 -6.09673 -0.544538 0
M  V30 1379 N 126.739 -6.86517 -1.47101 0
M  V30 1380 H 131.579 -2.91144 0.635542 0
M  V30 1381 H 129.116 -1.4346 0.325206 0
M  V30 1382 H 131.074 -3.82276 -1.67095 0
M  V30 1383 H 129.704 -2.68751 -1.78809 0
M  V30 1384 H 128.756 -3.78615 0.368107 0
M  V30 1385 H 130.068 -4.98102 0.263842 0
M  V30 1386 H 129.222 -5.73948 -1.96643 0
M  V30 1387 H 127.961 -4.47458 -1.9399 0
M  V30 1388 H 126.966 -5.49656 0.126003 0
M  V30 1389 H 128.191 -6.79052 0.080947 0
M  V30 1390 H 126.137 -6.21851 -2.08895 0
M  V30 1391 H 126.054 -7.50281 -0.928137 0
M  V30 1392 H 127.322 -7.50194 -2.11731 0
M  V30 1393 N 131.551 -0.354651 -1.53558 0
M  V30 1394 C 132.461 0.50515 -2.29097 0
M  V30 1395 C 133.477 1.10223 -1.34636 0
M  V30 1396 O 134.653 1.11553 -1.67684 0
M  V30 1397 C 131.718 1.63479 -3.05738 0
M  V30 1398 C 130.779 1.06636 -4.15845 0
M  V30 1399 C 130.012 2.14217 -4.88822 0
M  V30 1400 O 130.235 3.35137 -4.61562 0
M  V30 1401 O 129.169 1.77887 -5.75013 0
M  V30 1402 H 132.995 -0.109237 -3.03503 0
M  V30 1403 H 130.58 -0.119357 -1.48922 0
M  V30 1404 H 132.462 2.2918 -3.5363 0
M  V30 1405 H 131.137 2.23478 -2.34178 0
M  V30 1406 H 130.044 0.373565 -3.7223 0
M  V30 1407 H 131.377 0.511081 -4.89539 0
M  V30 1408 N 133.029 1.57378 -0.0835403 0
M  V30 1409 C 134.254 1.98682 0.594987 0
M  V30 1410 C 134.679 0.961969 1.61641 0
M  V30 1411 O 134.037 -0.0709989 1.81161 0
M  V30 1412 C 134.085 3.38988 1.2296 0
M  V30 1413 O 133.189 3.39208 2.34546 0
M  V30 1414 H 132.53 0.646368 0.152002 0
M  V30 1415 H 135.06 2.03961 -0.161533 0
M  V30 1416 H 135.07 3.76431 1.57366 0
M  V30 1417 H 133.745 4.13107 0.481228 0
M  V30 1418 H 132.322 3.13548 2.01846 0
M  V30 1419 N 134.507 -0.190092 1.56449 0
M  V30 1420 C 135.754 -0.909705 1.80916 0
M  V30 1421 C 136.082 -1.83047 0.657583 0
M  V30 1422 O 135.337 -1.92428 -0.356356 0
M  V30 1423 C 135.636 -1.75382 3.1141 0
M  V30 1424 C 135.302 -0.983606 4.40041 0
M  V30 1425 C 133.964 -0.770967 4.74984 0
M  V30 1426 C 136.316 -0.442024 5.19322 0
M  V30 1427 C 133.644 -0.0053448 5.867 0
M  V30 1428 C 135.996 0.310412 6.31838 0
M  V30 1429 C 134.66 0.534023 6.6536 0
M  V30 1430 H 133.93 -0.332885 0.662019 0
M  V30 1431 H 136.577 -0.175762 1.90692 0
M  V30 1432 H 134.882 -2.55659 2.96893 0
M  V30 1433 H 136.579 -2.31331 3.27547 0
M  V30 1434 H 133.169 -1.15936 4.12622 0
M  V30 1435 H 137.353 -0.593693 4.92736 0
M  V30 1436 H 132.609 0.177825 6.11141 0
M  V30 1437 H 136.783 0.737419 6.92485 0
M  V30 1438 H 134.41 1.12918 7.51767 0
M  V30 1439 N 135.985 -1.50799 -0.457987 0
M  V30 1440 C 137.231 -1.62683 -1.21088 0
M  V30 1441 C 137.564 -0.332268 -1.91336 0
M  V30 1442 O 136.839 0.667043 -1.82704 0
M  V30 1443 C 137.122 -2.81615 -2.24422 0
M  V30 1444 C 136.975 -4.20989 -1.58392 0
M  V30 1445 C 138.294 -2.96085 -3.2561 0
M  V30 1446 H 135.413 -0.592087 -0.438864 0
M  V30 1447 H 138.055 -1.83225 -0.50286 0
M  V30 1448 H 136.205 -2.64231 -2.84806 0
M  V30 1449 H 137.877 -4.49994 -1.01504 0
M  V30 1450 H 136.12 -4.24641 -0.886704 0
M  V30 1451 H 136.791 -5.0016 -2.33547 0
M  V30 1452 H 139.267 -3.12042 -2.75262 0
M  V30 1453 H 138.143 -3.80902 -3.95228 0
M  V30 1454 H 138.404 -2.0726 -3.90507 0
M  V30 1455 N 137.463 0.71206 -1.40597 0
M  V30 1456 C 138.688 1.50617 -1.42581 0
M  V30 1457 C 139.113 1.88079 -0.0282102 0
M  V30 1458 O 138.471 1.53511 0.964579 0
M  V30 1459 C 138.519 2.7557 -2.3258 0
M  V30 1460 O 137.623 3.72414 -1.77148 0
M  V30 1461 H 136.964 0.453966 -0.484573 0
M  V30 1462 H 139.494 0.876649 -1.84868 0
M  V30 1463 H 139.504 3.2406 -2.47889 0
M  V30 1464 H 138.179 2.47639 -3.34138 0
M  V30 1465 H 136.756 3.31276 -1.71204 0
M  V30 1466 N 138.941 1.26152 0.944643 0
M  V30 1467 C 139.871 1.09902 2.06019 0
M  V30 1468 C 140.852 0.00519538 1.70099 0
M  V30 1469 O 142.037 0.176583 1.93396 0
M  V30 1470 C 139.167 0.727562 3.39594 0
M  V30 1471 C 138.121 1.77274 3.89561 0
M  V30 1472 C 137.447 1.25569 5.19747 0
M  V30 1473 C 138.747 3.17357 4.14827 0
M  V30 1474 H 140.441 2.03217 2.19871 0
M  V30 1475 H 137.987 0.978452 1.05652 0
M  V30 1476 H 139.94 0.600777 4.17095 0
M  V30 1477 H 138.664 -0.241287 3.25707 0
M  V30 1478 H 137.323 1.88814 3.14237 0
M  V30 1479 H 136.971 0.276783 5.02238 0
M  V30 1480 H 136.671 1.95433 5.54148 0
M  V30 1481 H 138.195 1.1415 5.99835 0
M  V30 1482 H 139.609 3.08914 4.82954 0
M  V30 1483 H 138.006 3.84781 4.60504 0
M  V30 1484 H 139.076 3.63673 3.20734 0
M  V30 1485 N 140.419 -1.14872 1.07899 0
M  V30 1486 C 141.667 -1.85422 0.803941 0
M  V30 1487 C 141.988 -1.83051 -0.67211 0
M  V30 1488 O 141.258 -1.27532 -1.48703 0
M  V30 1489 H 139.838 -0.686537 0.294408 0
M  V30 1490 H 142.5 -1.39226 1.3639 0
M  V30 1491 H 141.596 -2.90399 1.14346 0
M  V30 1492 N 141.898 -0.863906 -1.31812 0
M  V30 1493 C 142.848 -0.286898 -2.26188 0
M  V30 1494 C 143.832 0.572577 -1.50367 0
M  V30 1495 O 145.024 0.420447 -1.71934 0
M  V30 1496 C 142.153 0.515849 -3.39402 0
M  V30 1497 C 141.239 -0.356531 -4.22599 0
M  V30 1498 N 141.63 -1.44716 -4.84656 0
M  V30 1499 C 139.928 -0.147898 -4.45755 0
M  V30 1500 C 140.629 -1.98462 -5.46798 0
M  V30 1501 N 139.605 -1.28247 -5.28255 0
M  V30 1502 H 143.407 -1.12055 -2.717 0
M  V30 1503 H 140.921 -0.711012 -1.46008 0
M  V30 1504 H 142.918 0.945701 -4.06032 0
M  V30 1505 H 141.578 1.34718 -2.95434 0
M  V30 1506 H 142.589 -1.83008 -4.84488 0
M  V30 1507 H 139.266 0.647973 -4.12441 0
M  V30 1508 H 140.656 -2.89932 -6.06126 0
M  V30 1509 N 143.376 1.44774 -0.622745 0
M  V30 1510 C 144.324 2.32387 0.0994683 0
M  V30 1511 C 145.318 1.46859 0.844326 0
M  V30 1512 O 146.524 1.63254 0.758174 0
M  V30 1513 H 142.899 0.750273 0.0509291 0
M  V30 1514 H 144.87 2.91062 -0.65767 0
M  V30 1515 C 143.619 3.30723 1.07319 0
M  V30 1516 H 142.942 3.96541 0.509462 0
M  V30 1517 H 144.382 3.94725 1.54817 0
M  V30 1518 C 142.841 2.59021 2.15429 0
M  V30 1519 O 143.371 2.38286 3.23393 0
M  V30 1520 N 141.577 2.189 1.91131 0
M  V30 1521 H 141.124 2.35964 1.03337 0
M  V30 1522 H 141.082 1.71251 2.63668 0
M  V30 1523 N 144.854 0.36279 1.53368 0
M  V30 1524 C 146.1 -0.228113 2.01513 0
M  V30 1525 C 146.433 -1.48648 1.2497 0
M  V30 1526 O 145.708 -1.91459 0.342616 0
M  V30 1527 C 145.991 -0.522884 3.56284 0
M  V30 1528 C 145.844 0.74892 4.43521 0
M  V30 1529 C 147.163 -1.32461 4.19693 0
M  V30 1530 H 144.282 -0.0814343 0.732487 0
M  V30 1531 H 146.924 0.48713 1.83649 0
M  V30 1532 H 145.074 -1.1322 3.71636 0
M  V30 1533 H 146.746 1.38648 4.39971 0
M  V30 1534 H 144.989 1.36986 4.11603 0
M  V30 1535 H 145.66 0.497667 5.49752 0
M  V30 1536 H 148.136 -0.809203 4.08156 0
M  V30 1537 H 147.012 -1.49961 5.28018 0
M  V30 1538 H 147.273 -2.33232 3.75573 0
M  V30 1539 N 146.332 -1.57332 0.0918853 0
M  V30 1540 C 147.579 -1.94236 -0.572577 0
M  V30 1541 C 147.907 -0.973398 -1.6839 0
M  V30 1542 O 147.162 0.00756912 -1.95699 0
M  V30 1543 C 147.461 -3.37689 -1.17051 0
M  V30 1544 C 147.127 -4.50527 -0.183304 0
M  V30 1545 C 145.789 -4.81119 0.0882276 0
M  V30 1546 C 148.141 -5.18883 0.49095 0
M  V30 1547 C 145.469 -5.77395 1.04076 0
M  V30 1548 C 147.821 -6.1618 1.43193 0
M  V30 1549 C 146.485 -6.45179 1.71173 0
M  V30 1550 H 145.755 -0.710762 -0.209521 0
M  V30 1551 H 148.402 -1.9077 0.167036 0
M  V30 1552 H 146.707 -3.37718 -1.9863 0
M  V30 1553 H 148.404 -3.63543 -1.69227 0
M  V30 1554 H 144.994 -4.26681 -0.405124 0
M  V30 1555 H 149.178 -4.95427 0.294312 0
M  V30 1556 H 144.434 -5.98179 1.26457 0
M  V30 1557 H 148.608 -6.68243 1.96023 0
M  V30 1558 H 146.235 -7.1959 2.4514 0
M  V30 1559 N 147.81 0.181792 -1.56548 0
M  V30 1560 C 148.72 1.24538 -1.98815 0
M  V30 1561 C 149.736 1.49045 -0.897861 0
M  V30 1562 O 150.912 1.61399 -1.20467 0
M  V30 1563 C 147.977 2.56683 -2.33055 0
M  V30 1564 C 147.038 2.40131 -3.55859 0
M  V30 1565 C 146.271 3.65975 -3.88456 0
M  V30 1566 O 146.494 4.70711 -3.22161 0
M  V30 1567 O 145.428 3.6071 -4.81842 0
M  V30 1568 H 149.254 0.916647 -2.89536 0
M  V30 1569 H 146.839 0.387842 -1.44278 0
M  V30 1570 H 148.721 3.34655 -2.56094 0
M  V30 1571 H 147.396 2.89157 -1.45498 0
M  V30 1572 H 146.303 1.60226 -3.38051 0
M  V30 1573 H 147.636 2.12585 -4.43924 0
M  V30 1574 N 149.288 1.51039 0.449983 0
M  V30 1575 C 150.236 1.71995 1.5659 0
M  V30 1576 C 151.23 0.586029 1.5894 0
M  V30 1577 O 152.436 0.76709 1.62837 0
M  V30 1578 H 148.811 0.543233 0.520001 0
M  V30 1579 H 150.782 2.65562 1.36085 0
M  V30 1580 C 149.531 1.8506 2.9436 0
M  V30 1581 H 148.854 2.71712 2.93279 0
M  V30 1582 H 150.294 2.0374 3.71842 0
M  V30 1583 C 148.753 0.607277 3.31382 0
M  V30 1584 O 149.283 -0.243903 4.00959 0
M  V30 1585 N 147.489 0.455073 2.87015 0
M  V30 1586 H 147.036 1.14879 2.30566 0
M  V30 1587 H 146.994 -0.375611 3.12148 0
M  V30 1588 N 150.766 -0.704594 1.40972 0
M  V30 1589 C 152.043 -1.45847 1.30338 0
M  V30 1590 C 152.423 -2.10973 -0.0732344 0
M  V30 1591 O 151.771 -2.00997 -1.08685 0
M  V30 1592 C 151.981 -2.48525 2.45023 0
M  V30 1593 C 153.329 -3.1404 2.8577 0
M  V30 1594 O 154.353 -2.58848 2.44696 0
M  V30 1595 O 153.212 -4.13981 3.56766 0
M  V30 1596 H 150.306 -0.649092 0.512454 0
M  V30 1597 H 152.852 -0.735836 1.52917 0
M  V30 1598 H 151.624 -1.98994 3.36923 0
M  V30 1599 H 151.247 -3.2831 2.24272 0
M  V30 1600 N 152.244 -1.26651 -0.937939 0
M  V30 1601 C 153.469 -1.15279 -1.72411 0
M  V30 1602 C 153.894 0.287866 -1.85884 0
M  V30 1603 O 153.252 1.20855 -1.35143 0
M  V30 1604 C 153.3 -1.83028 -3.10698 0
M  V30 1605 O 152.404 -1.12128 -3.96864 0
M  V30 1606 H 151.745 -0.401504 -0.528858 0
M  V30 1607 H 154.275 -1.67531 -1.1745 0
M  V30 1608 H 154.285 -1.89981 -3.6107 0
M  V30 1609 H 152.96 -2.87833 -3.00208 0
M  V30 1610 H 151.537 -1.13173 -3.55312 0
M  V30 1611 N 153.722 1.14298 -1.08507 0
M  V30 1612 C 154.969 1.85359 -0.815373 0
M  V30 1613 C 155.297 1.83001 0.658865 0
M  V30 1614 O 154.552 1.25655 1.50031 0
M  V30 1615 C 154.851 3.33547 -1.28379 0
M  V30 1616 C 154.517 3.56093 -2.76602 0
M  V30 1617 C 153.179 3.61955 -3.17084 0
M  V30 1618 C 155.531 3.64834 -3.72217 0
M  V30 1619 C 152.859 3.74082 -4.51973 0
M  V30 1620 C 155.211 3.78487 -5.06883 0
M  V30 1621 C 153.875 3.82598 -5.46969 0
M  V30 1622 H 153.145 0.678276 -0.298366 0
M  V30 1623 H 155.792 1.35002 -1.35819 0
M  V30 1624 H 154.097 3.86191 -0.660593 0
M  V30 1625 H 155.794 3.86959 -1.05186 0
M  V30 1626 H 152.384 3.52179 -2.4427 0
M  V30 1627 H 156.568 3.59595 -3.42061 0
M  V30 1628 H 151.824 3.75527 -4.82483 0
M  V30 1629 H 155.998 3.84193 -5.80834 0
M  V30 1630 H 153.625 3.91747 -6.51489 0
M  V30 1631 N 155.201 0.870884 1.31352 0
M  V30 1632 C 156.131 0.343096 2.30966 0
M  V30 1633 C 157.112 -0.566507 1.60389 0
M  V30 1634 O 158.297 -0.483336 1.88089 0
M  V30 1635 C 155.427 -0.455487 3.443 0
M  V30 1636 C 154.381 0.361103 4.26474 0
M  V30 1637 C 153.707 -0.563221 5.31725 0
M  V30 1638 C 155.007 1.59566 4.97329 0
M  V30 1639 H 156.701 1.17548 2.75359 0
M  V30 1640 H 154.247 0.566686 1.32381 0
M  V30 1641 H 156.2 -0.83525 4.13039 0
M  V30 1642 H 154.924 -1.32139 2.98675 0
M  V30 1643 H 153.583 0.722825 3.59403 0
M  V30 1644 H 153.231 -1.42643 4.82351 0
M  V30 1645 H 152.931 -0.0207409 5.87596 0
M  V30 1646 H 154.455 -0.939808 6.03324 0
M  V30 1647 H 155.869 1.28728 5.58661 0
M  V30 1648 H 154.266 2.07728 5.63 0
M  V30 1649 H 155.336 2.34798 4.24262 0
M  V30 1650 N 156.679 -1.44442 0.630414 0
M  V30 1651 C 157.611 -2.2892 -0.113347 0
M  V30 1652 C 158.624 -1.41243 -0.80959 0
M  V30 1653 O 159.813 -1.65402 -0.671156 0
M  V30 1654 C 156.913 -3.17594 -1.18266 0
M  V30 1655 C 156.086 -4.33682 -0.569073 0
M  V30 1656 C 155.145 -5.03397 -1.53226 0
M  V30 1657 O 154.171 -5.59438 -1.04967 0
M  V30 1658 N 155.373 -5.04783 -2.86661 0
M  V30 1659 H 158.138 -2.93392 0.611636 0
M  V30 1660 H 155.699 -1.54881 0.471523 0
M  V30 1661 H 157.691 -3.61097 -1.82732 0
M  V30 1662 H 156.261 -2.54876 -1.80988 0
M  V30 1663 H 155.481 -3.9338 0.254187 0
M  V30 1664 H 156.769 -5.08608 -0.139767 0
M  V30 1665 H 156.167 -4.60584 -3.28449 0
M  V30 1666 H 154.724 -5.52077 -3.46489 0
M  V30 1667 N 158.157 -0.370918 -1.53173 0
M  V30 1668 C 159.573 -0.0200818 -1.59587 0
M  V30 1669 C 159.773 1.46279 -1.38581 0
M  V30 1670 O 158.829 2.22506 -1.19363 0
M  V30 1671 C 160.142 -0.4808 -2.96831 0
M  V30 1672 C 161.69 -0.435477 -3.09956 0
M  V30 1673 C 162.165 -0.872092 -4.4962 0
M  V30 1674 N 163.656 -0.827364 -4.55751 0
M  V30 1675 C 164.391 -1.13683 -5.62018 0
M  V30 1676 N 163.887 -1.51584 -6.76014 0
M  V30 1677 N 165.68 -1.05927 -5.52029 0
M  V30 1678 H 157.831 -1.33652 -1.65079 0
M  V30 1679 H 160.094 -0.546634 -0.774529 0
M  V30 1680 H 159.8 -1.51577 -3.1736 0
M  V30 1681 H 159.674 0.129796 -3.76977 0
M  V30 1682 H 162.061 0.590371 -2.89134 0
M  V30 1683 H 162.142 -1.08164 -2.31806 0
M  V30 1684 H 161.786 -1.89608 -4.71181 0
M  V30 1685 H 161.716 -0.203127 -5.26208 0
M  V30 1686 H 164.207 -0.548216 -3.73902 0
M  V30 1687 H 164.52 -1.73609 -7.53047 0
M  V30 1688 H 162.865 -1.55454 -6.77391 0
M  V30 1689 H 166.056 -0.762321 -4.61851 0
M  V30 1690 H 166.229 -1.30378 -6.34749 0
M  V30 1691 N 159.635 1.57281 -0.100228 0
M  V30 1692 C 160.881 1.94826 0.563101 0
M  V30 1693 C 161.214 0.982475 1.67514 0
M  V30 1694 O 160.489 0.0164069 1.94493 0
M  V30 1695 C 160.772 3.42453 1.11346 0
M  V30 1696 C 160.625 4.498 0.00612081 0
M  V30 1697 C 161.944 3.91506 2.01024 0
M  V30 1698 H 159.063 0.708428 0.203221 0
M  V30 1699 H 161.705 1.8922 -0.171979 0
M  V30 1700 H 159.855 3.47361 1.7399 0
M  V30 1701 H 161.527 4.57 -0.628357 0
M  V30 1702 H 159.77 4.28756 -0.659581 0
M  V30 1703 H 160.441 5.50306 0.432109 0
M  V30 1704 H 162.917 3.88784 1.48278 0
M  V30 1705 H 161.793 4.95358 2.36457 0
M  V30 1706 H 162.054 3.31099 2.92961 0
M  V30 1707 N 161.113 -0.173488 1.56642 0
M  V30 1708 C 162.362 -0.888758 1.81063 0
M  V30 1709 C 162.675 -1.83506 0.67712 0
M  V30 1710 O 163.881 -2.59254 0.806206 0
M  V30 1711 C 162.337 -1.63091 3.20826 0
M  V30 1712 C 161.945 -0.728357 4.4204 0
M  V30 1713 C 163.689 -2.33454 3.54541 0
M  V30 1714 C 161.596 -1.47062 5.72823 0
M  V30 1715 H 160.526 -0.335618 0.675186 0
M  V30 1716 H 163.177 -0.141712 1.82952 0
M  V30 1717 H 161.559 -2.42263 3.13248 0
M  V30 1718 H 162.733 0.0262449 4.60793 0
M  V30 1719 H 161.048 -0.134492 4.16183 0
M  V30 1720 H 163.645 -2.89578 4.49498 0
M  V30 1721 H 163.988 -3.08687 2.79317 0
M  V30 1722 H 164.521 -1.61227 3.63663 0
M  V30 1723 H 161.26 -0.760658 6.51072 0
M  V30 1724 H 160.78 -2.1986 5.58052 0
M  V30 1725 H 162.459 -2.01868 6.14702 0
M  V30 1726 N 162.591 -1.51276 -0.441967 0
M  V30 1727 C 163.538 -1.72256 -1.53612 0
M  V30 1728 C 164.508 -0.564164 -1.56225 0
M  V30 1729 O 165.693 -0.798074 -1.73307 0
M  V30 1730 C 162.833 -1.84932 -2.91366 0
M  V30 1731 C 161.946 -3.12459 -2.98317 0
M  V30 1732 C 161.081 -3.15758 -4.27166 0
M  V30 1733 C 160.12 -4.37619 -4.27967 0
M  V30 1734 N 159.257 -4.38493 -5.48333 0
M  V30 1735 H 164.097 -2.65654 -1.35026 0
M  V30 1736 H 161.634 -1.31662 -0.656009 0
M  V30 1737 H 163.592 -1.90263 -3.7129 0
M  V30 1738 H 162.222 -0.949461 -3.08521 0
M  V30 1739 H 161.274 -3.1646 -2.11086 0
M  V30 1740 H 162.586 -4.02382 -2.94771 0
M  V30 1741 H 161.74 -3.19979 -5.15459 0
M  V30 1742 H 160.479 -2.23715 -4.33362 0
M  V30 1743 H 159.484 -4.33579 -3.38067 0
M  V30 1744 H 160.709 -5.30921 -4.23438 0
M  V30 1745 H 158.655 -3.49318 -5.55259 0
M  V30 1746 H 158.572 -5.22219 -5.46647 0
M  V30 1747 H 159.84 -4.469 -6.38671 0
M  V30 1748 N 164.069 0.697108 -1.41344 0
M  V30 1749 C 165.297 1.48593 -1.43972 0
M  V30 1750 C 165.712 1.88747 -0.0445612 0
M  V30 1751 O 165.069 1.56682 0.935785 0
M  V30 1752 C 165.12 2.74946 -2.34706 0
M  V30 1753 O 164.841 2.36484 -3.68791 0
M  V30 1754 C 166.342 3.687 -2.46121 0
M  V30 1755 H 163.562 0.457964 -0.490418 0
M  V30 1756 H 166.106 0.858429 -1.8561 0
M  V30 1757 H 164.261 3.33937 -1.9638 0
M  V30 1758 H 164.675 3.17918 -4.17167 0
M  V30 1759 H 166.149 4.54145 -3.13777 0
M  V30 1760 H 166.626 4.13081 -1.49199 0
M  V30 1761 H 167.232 3.15613 -2.85076 0
M  V30 1762 N 165.547 1.27147 0.931209 0
M  V30 1763 C 166.777 1.15914 1.71019 0
M  V30 1764 C 167.185 -0.287112 1.87009 0
M  V30 1765 O 166.528 -1.20761 1.38429 0
M  V30 1766 C 166.59 1.76647 3.13107 0
M  V30 1767 C 166.254 3.25807 3.20467 0
M  V30 1768 C 167.251 4.22489 3.02983 0
M  V30 1769 C 164.936 3.66452 3.43538 0
M  V30 1770 C 166.93 5.57794 3.08454 0
M  V30 1771 C 164.617 5.01888 3.48643 0
M  V30 1772 C 165.615 5.97369 3.31119 0
M  V30 1773 O 165.303 7.30337 3.35952 0
M  V30 1774 H 165.035 0.404062 0.54195 0
M  V30 1775 H 167.589 1.68457 1.17521 0
M  V30 1776 H 165.819 1.18578 3.68071 0
M  V30 1777 H 167.508 1.60179 3.72958 0
M  V30 1778 H 168.274 3.92425 2.85004 0
M  V30 1779 H 164.153 2.92611 3.5623 0
M  V30 1780 H 167.697 6.32298 2.94694 0
M  V30 1781 H 163.594 5.31609 3.66145 0
M  V30 1782 H 164.362 7.38739 3.5243 0
M  V30 1783 N 167.025 -1.13721 1.09112 0
M  V30 1784 C 167.972 -2.19031 0.727591 0
M  V30 1785 C 168.942 -1.63555 -0.289656 0
M  V30 1786 O 170.127 -1.90023 -0.172026 0
M  V30 1787 C 167.267 -3.4477 0.15082 0
M  V30 1788 C 166.38 -4.14365 1.22172 0
M  V30 1789 C 165.515 -5.27709 0.608042 0
M  V30 1790 C 164.554 -5.89147 1.66047 0
M  V30 1791 N 163.691 -6.93929 1.06806 0
M  V30 1792 H 168.531 -2.49475 1.62991 0
M  V30 1793 H 166.068 -1.22499 0.81439 0
M  V30 1794 H 168.026 -4.16714 -0.201358 0
M  V30 1795 H 166.656 -3.14787 -0.714783 0
M  V30 1796 H 165.708 -3.40737 1.69122 0
M  V30 1797 H 167.02 -4.56114 2.01895 0
M  V30 1798 H 166.174 -6.06355 0.204523 0
M  V30 1799 H 164.913 -4.872 -0.220769 0
M  V30 1800 H 163.918 -5.09198 2.07357 0
M  V30 1801 H 165.143 -6.31729 2.49189 0
M  V30 1802 H 163.089 -6.55483 0.260476 0
M  V30 1803 H 163.006 -7.34202 1.8023 0
M  V30 1804 H 164.274 -7.76434 0.690644 0
M  V30 1805 N 168.503 -0.877838 -1.30888 0
M  V30 1806 C 169.45 -0.337538 -2.28318 0
M  V30 1807 C 170.42 0.568346 -1.56074 0
M  V30 1808 O 171.605 0.498298 -1.84178 0
M  V30 1809 C 168.745 0.448142 -3.42178 0
M  V30 1810 C 167.858 -0.48615 -4.29256 0
M  V30 1811 C 166.993 0.314427 -5.30269 0
M  V30 1812 C 166.032 -0.615791 -6.08995 0
M  V30 1813 N 165.169 0.14902 -7.01942 0
M  V30 1814 H 170.009 -1.17356 -2.73919 0
M  V30 1815 H 167.546 -0.590094 -1.34745 0
M  V30 1816 H 169.504 0.919517 -4.06941 0
M  V30 1817 H 168.134 1.24879 -2.97666 0
M  V30 1818 H 167.186 -1.076 -3.64865 0
M  V30 1819 H 168.498 -1.19909 -4.84173 0
M  V30 1820 H 167.652 0.847969 -6.00745 0
M  V30 1821 H 166.391 1.06062 -4.76027 0
M  V30 1822 H 165.396 -1.16102 -5.37401 0
M  V30 1823 H 166.621 -1.36097 -6.65323 0
M  V30 1824 H 164.567 0.877884 -6.50099 0
M  V30 1825 H 164.484 -0.504433 -7.54315 0
M  V30 1826 H 165.752 0.663537 -7.76671 0
M  V30 1827 N 169.982 1.44106 -0.638065 0
M  V30 1828 C 171.231 2.01194 -0.142744 0
M  V30 1829 C 171.544 1.50835 1.24532 0
M  V30 1830 O 172.75 2.00096 1.83504 0
M  V30 1831 C 171.206 3.59319 -0.20442 0
M  V30 1832 C 170.814 4.18674 -1.59423 0
M  V30 1833 C 172.558 4.23854 0.234079 0
M  V30 1834 C 170.465 5.69045 -1.61065 0
M  V30 1835 H 169.395 0.752367 -0.0495998 0
M  V30 1836 H 172.046 1.65246 -0.797881 0
M  V30 1837 H 170.428 3.92598 0.517946 0
M  V30 1838 H 171.602 3.96921 -2.34074 0
M  V30 1839 H 169.917 3.66453 -1.97741 0
M  V30 1840 H 172.514 5.34155 0.241443 0
M  V30 1841 H 172.857 3.96688 1.2627 0
M  V30 1842 H 173.39 3.95403 -0.436025 0
M  V30 1843 H 170.129 6.00956 -2.61787 0
M  V30 1844 H 169.649 5.929 -0.90718 0
M  V30 1845 H 171.328 6.32809 -1.34766 0
M  V30 1846 N 171.46 0.379036 1.52974 0
M  V30 1847 C 172.407 -0.461048 2.26148 0
M  V30 1848 C 173.377 -1.06637 1.27349 0
M  V30 1849 O 174.562 -1.09633 1.56157 0
M  V30 1850 C 171.702 -1.58782 3.06402 0
M  V30 1851 C 170.815 -1.00636 4.20115 0
M  V30 1852 C 169.95 -2.10334 4.87784 0
M  V30 1853 C 168.989 -1.49724 5.93506 0
M  V30 1854 N 168.126 -2.5331 6.54812 0
M  V30 1855 H 172.966 0.169429 2.97518 0
M  V30 1856 H 170.503 0.0953806 1.4679 0
M  V30 1857 H 172.461 -2.25174 3.51215 0
M  V30 1858 H 171.091 -2.18876 2.37261 0
M  V30 1859 H 170.143 -0.232332 3.7969 0
M  V30 1860 H 171.455 -0.523343 4.96047 0
M  V30 1861 H 170.609 -2.84519 5.35849 0
M  V30 1862 H 169.348 -2.61992 4.11353 0
M  V30 1863 H 168.353 -0.740598 5.44789 0
M  V30 1864 H 169.578 -0.988732 6.71864 0
M  V30 1865 H 167.524 -3.04156 5.81227 0
M  V30 1866 H 167.441 -2.09734 7.26325 0
M  V30 1867 H 168.709 -3.27155 7.07524 0
M  V30 1868 N 172.938 -1.57226 0.108567 0
M  V30 1869 C 173.885 -2.14756 -0.845481 0
M  V30 1870 C 174.855 -1.06971 -1.27068 0
M  V30 1871 O 176.04 -1.34827 -1.35005 0
M  V30 1872 C 173.18 -2.74298 -2.09415 0
M  V30 1873 C 172.293 -3.96358 -1.71826 0
M  V30 1874 C 171.428 -4.44021 -2.9158 0
M  V30 1875 C 170.467 -5.58637 -2.50181 0
M  V30 1876 N 169.604 -6.01091 -3.62814 0
M  V30 1877 H 174.444 -2.95961 -0.348035 0
M  V30 1878 H 171.981 -1.46226 -0.160106 0
M  V30 1879 H 173.939 -3.06945 -2.82561 0
M  V30 1880 H 172.569 -1.95801 -2.56636 0
M  V30 1881 H 171.621 -3.69939 -0.885947 0
M  V30 1882 H 172.933 -4.79504 -1.37394 0
M  V30 1883 H 172.087 -4.78522 -3.72963 0
M  V30 1884 H 170.826 -3.59803 -3.29231 0
M  V30 1885 H 169.831 -5.23751 -1.67228 0
M  V30 1886 H 171.056 -6.44613 -2.13659 0
M  V30 1887 H 169.002 -5.19817 -4.00158 0
M  V30 1888 H 168.919 -6.79066 -3.32273 0
M  V30 1889 H 170.187 -6.40227 -4.44668 0
M  V30 1890 N 174.416 0.165178 -1.56732 0
M  V30 1891 C 175.693 0.908443 -1.73224 0
M  V30 1892 C 176.073 2.0013 -0.67165 0
M  V30 1893 O 175.421 2.26353 0.31253 0
M  V30 1894 C 175.631 1.46756 -3.16644 0
M  V30 1895 C 176.979 1.93809 -3.77787 0
M  V30 1896 O 178.003 1.56537 -3.1996 0
M  V30 1897 O 176.862 2.62486 -4.79336 0
M  V30 1898 H 173.956 0.428025 -0.707618 0
M  V30 1899 H 176.502 0.152526 -1.69013 0
M  V30 1900 H 175.274 0.68129 -3.85323 0
M  V30 1901 H 174.897 2.28749 -3.25207 0
M  V30 1902 N 175.894 1.51508 0.433938 0
M  V30 1903 C 177.119 1.68443 1.21003 0
M  V30 1904 C 177.544 0.382636 1.84167 0
M  V30 1905 O 176.902 -0.65755 1.68956 0
M  V30 1906 C 176.95 2.80405 2.26727 0
M  V30 1907 O 176.054 2.44245 3.32292 0
M  V30 1908 H 175.395 0.561536 0.354363 0
M  V30 1909 H 177.925 1.9809 0.512024 0
M  V30 1910 H 177.935 3.0459 2.71457 0
M  V30 1911 H 176.61 3.74867 1.80132 0
M  V30 1912 H 175.187 2.30644 2.93015 0
M  V30 1913 N 177.372 -0.689602 1.41712 0
M  V30 1914 C 178.335 -1.78521 1.43746 0
M  V30 1915 C 179.335 -1.57436 0.327191 0
M  V30 1916 O 180.525 -1.64 0.587348 0
M  V30 1917 C 177.657 -3.16971 1.25467 0
M  V30 1918 H 178.85 -1.78108 2.41283 0
M  V30 1919 H 176.403 -0.89781 1.27942 0
M  V30 1920 H 177.138 -3.23019 0.287948 0
M  V30 1921 H 176.923 -3.33678 2.05917 0
M  V30 1922 H 178.413 -3.96935 1.2974 0
M  V30 1923 N 178.85 -1.27639 -0.924453 0
M  V30 1924 C 179.783 -1.04966 -2.02626 0
M  V30 1925 C 180.761 0.0309505 -1.62571 0
M  V30 1926 O 181.945 -0.114846 -1.8815 0
M  V30 1927 C 179.072 -0.59292 -3.3347 0
M  V30 1928 C 178.118 -1.66858 -3.92506 0
M  V30 1929 S 178.951 -3.2619 -4.24689 0
M  V30 1930 C 180.107 -2.82325 -5.58609 0
M  V30 1931 H 180.34 -1.98252 -2.21547 0
M  V30 1932 H 177.873 -1.11506 -1.06798 0
M  V30 1933 H 179.831 -0.336086 -4.09122 0
M  V30 1934 H 178.492 0.319939 -3.12466 0
M  V30 1935 H 177.685 -1.30038 -4.86935 0
M  V30 1936 H 177.287 -1.87766 -3.2345 0
M  V30 1937 H 179.579 -2.2783 -6.38044 0
M  V30 1938 H 180.522 -3.75511 -6.00331 0
M  V30 1939 H 180.93 -2.21367 -5.19285 0
M  V30 1940 N 180.328 1.1314 -1.09713 0
M  V30 1941 C 181.258 2.20748 -0.761102 0
M  V30 1942 C 182.239 1.68061 0.262566 0
M  V30 1943 O 183.424 1.93765 0.129977 0
M  V30 1944 C 180.554 3.46812 -0.184054 0
M  V30 1945 C 179.508 4.12606 -1.13757 0
M  V30 1946 C 178.834 5.33031 -0.422083 0
M  V30 1947 C 180.134 4.59603 -2.48118 0
M  V30 1948 H 181.828 2.49113 -1.66082 0
M  V30 1949 H 179.374 1.19734 -0.799987 0
M  V30 1950 H 181.327 4.21353 0.0631215 0
M  V30 1951 H 180.051 3.17851 0.750868 0
M  V30 1952 H 178.71 3.40036 -1.37007 0
M  V30 1953 H 178.358 5.00335 0.517072 0
M  V30 1954 H 178.058 5.77999 -1.05788 0
M  V30 1955 H 179.582 6.10325 -0.183277 0
M  V30 1956 H 180.996 5.25552 -2.29059 0
M  V30 1957 H 179.393 5.15321 -3.07514 0
M  V30 1958 H 180.463 3.73971 -3.08665 0
M  V30 1959 N 181.806 0.884767 1.30421 0
M  V30 1960 C 182.736 0.367574 2.30589 0
M  V30 1961 C 183.717 -0.549464 1.60981 0
M  V30 1962 O 184.902 -0.46336 1.88591 0
M  V30 1963 C 182.032 -0.418944 3.44764 0
M  V30 1964 C 180.986 0.406316 4.26067 0
M  V30 1965 C 180.312 -0.506793 5.32293 0
M  V30 1966 C 181.612 1.64832 4.95608 0
M  V30 1967 H 183.306 1.20462 2.74097 0
M  V30 1968 H 180.852 0.580695 1.31772 0
M  V30 1969 H 182.805 -0.791395 4.13902 0
M  V30 1970 H 181.529 -1.28964 3.0006 0
M  V30 1971 H 180.188 0.760903 3.58617 0
M  V30 1972 H 179.836 -1.37519 4.83836 0
M  V30 1973 H 179.536 0.0415828 5.87585 0
M  V30 1974 H 181.06 -0.875764 6.04287 0
M  V30 1975 H 182.474 1.34646 5.57264 0
M  V30 1976 H 180.871 2.13688 5.60765 0
M  V30 1977 H 181.941 2.39284 4.21748 0
M  V30 1978 N 183.284 -1.43765 0.645699 0
M  V30 1979 C 184.509 -2.06767 0.161883 0
M  V30 1980 C 184.934 -1.48034 -1.16049 0
M  V30 1981 O 184.292 -0.587369 -1.71522 0
M  V30 1982 C 184.34 -3.60519 0.0762003 0
M  V30 1983 O 183.444 -4.00982 -0.963721 0
M  V30 1984 H 182.785 -0.657675 0.091429 0
M  V30 1985 H 185.315 -1.84397 0.886499 0
M  V30 1986 H 185.325 -4.07853 -0.109604 0
M  V30 1987 H 184 -4.02646 1.04157 0
M  V30 1988 H 182.577 -3.65253 -0.751312 0
M  V30 1989 N 184.763 -0.387143 -1.52771 0
M  V30 1990 C 186.011 0.195349 -2.01154 0
M  V30 1991 C 186.332 1.475 -1.27549 0
M  V30 1992 O 185.602 1.91878 -0.394924 0
M  V30 1993 H 184.182 0.075178 -0.743207 0
M  V30 1994 H 186.844 -0.518337 -1.87881 0
M  V30 1995 H 185.94 0.407096 -3.09434 0
M  V30 1996 N 186.241 1.57166 -0.116904 0
M  V30 1997 C 187.481 1.97008 0.544715 0
M  V30 1998 C 187.845 0.998713 1.63981 0
M  V30 1999 O 189.046 1.28644 2.36018 0
M  V30 2000 C 187.317 3.41145 1.06559 0
M  V30 2001 S 188.876 4.02998 1.73603 0
M  V30 2002 H 185.694 0.688587 0.177112 0
M  V30 2003 H 188.296 1.94459 -0.201487 0
M  V30 2004 H 187 4.09592 0.257374 0
M  V30 2005 H 186.531 3.4734 1.84712 0
M  V30 2006 H 188.546 3.93585 3.02168 0
M  V30 2007 N 187.719 -0.156864 1.56817 0
M  V30 2008 C 188.944 -0.890331 1.87318 0
M  V30 2009 C 189.369 -1.74394 0.704855 0
M  V30 2010 O 188.727 -1.77972 -0.345786 0
M  V30 2011 C 188.775 -1.73102 3.16336 0
M  V30 2012 O 187.879 -2.83422 2.99576 0
M  V30 2013 H 187.22 -0.24857 0.615718 0
M  V30 2014 H 189.75 -0.150649 2.04045 0
M  V30 2015 H 189.76 -2.12803 3.48107 0
M  V30 2016 H 188.435 -1.10412 4.00976 0
M  V30 2017 H 187.012 -2.47199 2.7919 0
M  V30 2018 N 189.197 -1.51736 -0.425897 0
M  V30 2019 C 190.147 -1.70258 -1.51645 0
M  V30 2020 C 191.131 -0.556488 -1.5097 0
M  V30 2021 O 192.323 -0.812879 -1.5723 0
M  V30 2022 C 189.452 -1.84143 -2.89735 0
M  V30 2023 C 188.538 -3.04572 -2.95122 0
M  V30 2024 N 188.929 -4.2756 -2.70233 0
M  V30 2025 C 187.227 -3.04061 -3.26286 0
M  V30 2026 C 187.928 -5.08908 -2.81757 0
M  V30 2027 N 186.904 -4.43797 -3.13919 0
M  V30 2028 H 190.706 -2.63004 -1.31172 0
M  V30 2029 H 188.22 -1.4954 -0.633375 0
M  V30 2030 H 190.217 -1.95525 -3.68206 0
M  V30 2031 H 188.877 -0.925857 -3.1122 0
M  V30 2032 H 189.888 -4.56315 -2.44943 0
M  V30 2033 H 186.565 -2.22179 -3.53473 0
M  V30 2034 H 187.955 -6.16843 -2.66372 0
M  V30 2035 N 190.675 0.682077 -1.42076 0
M  V30 2036 C 191.605 1.80796 -1.47767 0
M  V30 2037 C 192.586 1.6677 -0.334954 0
M  V30 2038 O 193.771 1.863 -0.548264 0
M  V30 2039 C 190.901 3.19038 -1.37229 0
M  V30 2040 C 189.855 3.47789 -2.49453 0
M  V30 2041 C 189.181 4.8553 -2.23975 0
M  V30 2042 C 190.481 3.45411 -3.91776 0
M  V30 2043 H 192.175 1.7629 -2.41997 0
M  V30 2044 H 189.721 0.846721 -1.16476 0
M  V30 2045 H 191.674 3.97528 -1.39821 0
M  V30 2046 H 190.398 3.24204 -0.394907 0
M  V30 2047 H 189.057 2.71657 -2.46166 0
M  V30 2048 H 188.705 4.87337 -1.24547 0
M  V30 2049 H 188.405 5.0573 -2.99184 0
M  V30 2050 H 189.929 5.66312 -2.28304 0
M  V30 2051 H 191.343 4.13882 -3.96705 0
M  V30 2052 H 189.74 3.77145 -4.66778 0
M  V30 2053 H 190.81 2.44122 -4.18966 0
M  V30 2054 N 192.153 1.28127 0.917671 0
M  V30 2055 C 193.083 1.14248 2.03641 0
M  V30 2056 C 194.064 0.0412748 1.7005 0
M  V30 2057 O 195.249 0.217566 1.92977 0
M  V30 2058 C 192.379 0.799431 3.37974 0
M  V30 2059 C 191.333 1.85497 3.85713 0
M  V30 2060 C 190.659 1.36565 5.16966 0
M  V30 2061 C 191.959 3.26085 4.08002 0
M  V30 2062 H 193.653 2.07835 2.15511 0
M  V30 2063 H 191.199 1.00064 1.03553 0
M  V30 2064 H 193.152 0.689114 4.15727 0
M  V30 2065 H 191.876 -0.172145 3.26146 0
M  V30 2066 H 190.535 1.95437 3.10161 0
M  V30 2067 H 190.183 0.383253 5.01538 0
M  V30 2068 H 189.883 2.07143 5.49878 0
M  V30 2069 H 191.407 1.26848 5.97279 0
M  V30 2070 H 192.821 3.19089 4.76293 0
M  V30 2071 H 191.218 3.94462 4.52238 0
M  V30 2072 H 192.288 3.70394 3.12948 0
M  V30 2073 N 193.631 -1.12557 1.10312 0
M  V30 2074 C 194.581 -2.16331 0.720076 0
M  V30 2075 C 195.565 -1.58616 -0.270115 0
M  V30 2076 O 196.757 -1.76823 -0.0790507 0
M  V30 2077 C 193.886 -3.42963 0.152113 0
M  V30 2078 C 192.972 -4.07663 1.16927 0
M  V30 2079 N 193.363 -4.47392 2.35953 0
M  V30 2080 C 191.661 -4.34425 1.0095 0
M  V30 2081 C 192.362 -4.97932 3.0073 0
M  V30 2082 N 191.338 -4.93358 2.28252 0
M  V30 2083 H 195.14 -2.44813 1.62616 0
M  V30 2084 H 192.654 -1.29449 0.980654 0
M  V30 2085 H 194.651 -4.16664 -0.14037 0
M  V30 2086 H 193.311 -3.1595 -0.748701 0
M  V30 2087 H 194.322 -4.39802 2.73486 0
M  V30 2088 H 190.999 -4.17177 0.164134 0
M  V30 2089 H 192.389 -5.38397 4.01969 0
M  V30 2090 N 195.109 -0.891671 -1.2995 0
M  V30 2091 C 196.057 -0.353066 -2.29905 0
M  V30 2092 C 197.051 0.543509 -1.60444 0
M  V30 2093 O 198.257 0.4272 -1.74857 0
M  V30 2094 H 194.632 -0.095531 -0.745907 0
M  V30 2095 H 196.603 -1.20961 -2.72784 0
M  V30 2096 C 195.352 0.411475 -3.45257 0
M  V30 2097 H 194.675 -0.269182 -3.98893 0
M  V30 2098 H 196.115 0.753328 -4.17254 0
M  V30 2099 C 194.574 1.6111 -2.9588 0
M  V30 2100 O 195.104 2.71045 -2.96475 0
M  V30 2101 N 193.31 1.45054 -2.51809 0
M  V30 2102 H 192.857 0.556175 -2.51524 0
M  V30 2103 H 192.815 2.25453 -2.1913 0
M  V30 2104 N 196.587 1.43421 -0.653314 0
M  V30 2105 C 197.534 2.30768 0.0382271 0
M  V30 2106 C 198.504 1.44755 0.814576 0
M  V30 2107 O 199.689 1.73624 0.791162 0
M  V30 2108 C 196.829 3.30336 0.998599 0
M  V30 2109 C 195.942 4.31448 0.218342 0
M  V30 2110 C 195.077 5.18098 1.17252 0
M  V30 2111 C 194.116 6.10902 0.382702 0
M  V30 2112 N 193.253 6.90176 1.28848 0
M  V30 2113 H 198.093 2.89357 -0.712511 0
M  V30 2114 H 195.63 1.42548 -0.363128 0
M  V30 2115 H 197.588 3.86572 1.56901 0
M  V30 2116 H 196.218 2.73397 1.71621 0
M  V30 2117 H 195.27 3.77506 -0.46836 0
M  V30 2118 H 196.582 4.97227 -0.395812 0
M  V30 2119 H 195.736 5.7896 1.81356 0
M  V30 2120 H 194.475 4.52444 1.82058 0
M  V30 2121 H 193.48 5.49128 -0.27169 0
M  V30 2122 H 194.705 6.78598 -0.260957 0
M  V30 2123 H 192.651 6.27171 1.92334 0
M  V30 2124 H 192.568 7.52478 0.728887 0
M  V30 2125 H 193.836 7.55543 1.91766 0
M  V30 2126 N 198.065 0.39524 1.52563 0
M  V30 2127 C 198.975 -0.444232 2.30356 0
M  V30 2128 C 199.991 -1.06615 1.37511 0
M  V30 2129 O 201.167 -1.07067 1.70583 0
M  V30 2130 C 198.232 -1.55315 3.09964 0
M  V30 2131 C 197.293 -0.955734 4.18526 0
M  V30 2132 C 196.526 -2.01181 4.9433 0
M  V30 2133 O 196.749 -3.22781 4.70285 0
M  V30 2134 O 195.683 -1.62579 5.79527 0
M  V30 2135 H 199.509 0.189667 3.03107 0
M  V30 2136 H 197.094 0.1588 1.48554 0
M  V30 2137 H 198.976 -2.19724 3.59582 0
M  V30 2138 H 197.651 -2.17191 2.4002 0
M  V30 2139 H 196.558 -0.274743 3.7309 0
M  V30 2140 H 197.891 -0.381109 4.90722 0
M  V30 2141 N 199.544 -1.57102 0.125237 0
M  V30 2142 C 200.474 -2.18659 -0.819174 0
M  V30 2143 C 201.455 -1.12843 -1.27281 0
M  V30 2144 O 202.64 -1.41104 -1.33429 0
M  V30 2145 C 199.77 -2.79096 -2.06695 0
M  V30 2146 C 198.724 -3.90548 -1.75088 0
M  V30 2147 C 198.05 -4.37821 -3.06948 0
M  V30 2148 C 199.35 -5.12356 -1.01435 0
M  V30 2149 H 201.044 -2.9783 -0.306202 0
M  V30 2150 H 198.59 -1.4326 -0.145839 0
M  V30 2151 H 200.543 -3.2082 -2.73226 0
M  V30 2152 H 199.267 -1.97223 -2.60328 0
M  V30 2153 H 197.926 -3.49409 -1.10944 0
M  V30 2154 H 197.574 -3.52799 -3.58527 0
M  V30 2155 H 197.274 -5.12982 -2.86571 0
M  V30 2156 H 198.798 -4.822 -3.74587 0
M  V30 2157 H 200.212 -5.5106 -1.58132 0
M  V30 2158 H 198.609 -5.9314 -0.911319 0
M  V30 2159 H 199.679 -4.849 -0.00218681 0
M  V30 2160 N 201.022 0.148545 -1.56898 0
M  V30 2161 C 201.955 1.21293 -1.93296 0
M  V30 2162 C 202.933 1.41637 -0.798599 0
M  V30 2163 O 204.117 1.56275 -1.05406 0
M  V30 2164 C 201.244 2.5721 -2.20365 0
M  V30 2165 C 200.29 2.53469 -3.4301 0
M  V30 2166 S 201.123 2.00315 -4.96623 0
M  V30 2167 C 202.279 3.37964 -5.26812 0
M  V30 2168 H 202.512 0.902393 -2.83274 0
M  V30 2169 H 200.045 0.354094 -1.50285 0
M  V30 2170 H 202.003 3.35427 -2.36641 0
M  V30 2171 H 200.664 2.85454 -1.31054 0
M  V30 2172 H 199.857 3.53518 -3.59223 0
M  V30 2173 H 199.459 1.83359 -3.25968 0
M  V30 2174 H 201.751 4.34066 -5.20185 0
M  V30 2175 H 202.694 3.26606 -6.28279 0
M  V30 2176 H 203.102 3.35028 -4.54331 0
M  V30 2177 N 202.5 1.5196 0.417844 0
M  V30 2178 C 203.463 1.74065 1.49111 0
M  V30 2179 C 204.463 0.610537 1.48758 0
M  V30 2180 O 205.653 0.87832 1.50437 0
M  V30 2181 C 202.785 1.81502 2.88565 0
M  V30 2182 H 203.978 2.69869 1.30807 0
M  V30 2183 H 201.531 1.42244 0.647785 0
M  V30 2184 H 202.266 0.875813 3.1225 0
M  V30 2185 H 202.051 2.63651 2.90225 0
M  V30 2186 H 203.541 2.00376 3.66387 0
M  V30 2187 N 203.978 -0.674533 1.42435 0
M  V30 2188 C 205.203 -1.46784 1.46524 0
M  V30 2189 C 205.628 -1.87938 0.078066 0
M  V30 2190 O 204.986 -1.56014 -0.92354 0
M  V30 2191 C 205.034 -2.69307 2.39805 0
M  V30 2192 O 204.138 -3.67587 1.86959 0
M  V30 2193 H 203.479 -0.440959 0.496439 0
M  V30 2194 H 206.009 -0.827326 1.87127 0
M  V30 2195 H 206.019 -3.17374 2.56393 0
M  V30 2196 H 204.694 -2.38692 3.40586 0
M  V30 2197 H 203.271 -3.2662 1.79927 0
M  V30 2198 N 205.456 -1.28612 -0.910864 0
M  V30 2199 C 206.386 -1.15326 -2.03032 0
M  V30 2200 C 207.367 -0.0502924 -1.70026 0
M  V30 2201 O 208.552 -0.227797 -1.92859 0
M  V30 2202 C 205.682 -0.817343 -3.37545 0
M  V30 2203 C 204.636 -1.8754 -3.84724 0
M  V30 2204 C 203.962 -1.39305 -5.16235 0
M  V30 2205 C 205.262 -3.28244 -4.06267 0
M  V30 2206 H 206.956 -2.08975 -2.14406 0
M  V30 2207 H 204.502 -1.00612 -1.03021 0
M  V30 2208 H 206.455 -0.711151 -4.15356 0
M  V30 2209 H 205.179 0.154846 -3.26233 0
M  V30 2210 H 203.838 -1.97079 -3.09121 0
M  V30 2211 H 203.486 -0.409846 -5.01328 0
M  V30 2212 H 203.186 -2.10057 -5.48771 0
M  V30 2213 H 204.71 -1.30014 -5.96598 0
M  V30 2214 H 206.124 -3.21611 -4.74594 0
M  V30 2215 H 204.521 -3.96855 -4.5014 0
M  V30 2216 H 205.591 -3.72048 -3.10979 0
M  V30 2217 N 206.934 1.1197 -1.10907 0
M  V30 2218 C 207.897 2.16031 -0.765707 0
M  V30 2219 C 208.897 1.59393 0.212235 0
M  V30 2220 O 210.087 1.74196 -0.0115441 0
M  V30 2221 C 207.219 3.40632 -0.135053 0
M  V30 2222 H 208.412 2.47919 -1.68748 0
M  V30 2223 H 205.965 1.27061 -0.910226 0
M  V30 2224 H 206.7 3.14348 0.797218 0
M  V30 2225 H 206.485 3.8302 -0.838937 0
M  V30 2226 H 207.975 4.17505 0.0892469 0
M  V30 2227 N 208.412 0.89855 1.29475 0
M  V30 2228 C 209.322 0.379974 2.31502 0
M  V30 2229 C 210.338 -0.524695 1.659 0
M  V30 2230 O 211.514 -0.414551 1.97087 0
M  V30 2231 C 208.579 -0.385138 3.44554 0
M  V30 2232 C 207.64 0.550914 4.2575 0
M  V30 2233 C 206.873 -0.177778 5.33404 0
M  V30 2234 O 207.096 -1.40189 5.52904 0
M  V30 2235 O 206.03 0.479106 5.9999 0
M  V30 2236 H 209.856 1.22639 2.77837 0
M  V30 2237 H 207.441 0.662834 1.33891 0
M  V30 2238 H 209.323 -0.817841 4.13388 0
M  V30 2239 H 207.998 -1.20763 3.0033 0
M  V30 2240 H 206.905 1.03271 3.59564 0
M  V30 2241 H 208.238 1.33979 4.73614 0
M  V30 2242 N 209.89 -1.43072 0.660911 0
M  V30 2243 C 211.115 -2.06584 0.183805 0
M  V30 2244 C 211.54 -1.49257 -1.14472 0
M  V30 2245 O 210.898 -0.605528 -1.70889 0
M  V30 2246 C 210.946 -3.60418 0.114434 0
M  V30 2247 O 210.05 -4.01981 -0.921137 0
M  V30 2248 H 209.391 -0.656669 0.0983994 0
M  V30 2249 H 211.921 -1.83447 0.906006 0
M  V30 2250 H 211.931 -4.07946 -0.0663394 0
M  V30 2251 H 210.606 -4.01519 1.08422 0
M  V30 2252 H 209.183 -3.66029 -0.71253 0
M  V30 2253 N 211.368 -0.403325 -1.52352 0
M  V30 2254 C 212.593 0.176499 -2.06648 0
M  V30 2255 C 213.018 1.38577 -1.27193 0
M  V30 2256 O 212.376 1.7879 -0.300637 0
M  V30 2257 C 212.424 0.511061 -3.5696 0
M  V30 2258 O 211.528 1.60294 -3.79973 0
M  V30 2259 H 210.869 0.0167337 -0.663789 0
M  V30 2260 H 213.399 -0.574848 -1.96359 0
M  V30 2261 H 213.409 0.771362 -4.00642 0
M  V30 2262 H 212.084 -0.37296 -4.14224 0
M  V30 2263 H 210.661 1.33526 -3.48174 0
M  V30 2264 N 212.846 1.57033 -0.133567 0
M  V30 2265 C 214.093 1.95686 0.520877 0
M  V30 2266 C 214.421 1.0177 1.6575 0
M  V30 2267 O 213.676 0.0443195 1.9565 0
M  V30 2268 C 213.975 3.40674 1.08057 0
M  V30 2269 C 213.641 4.50855 0.0637899 0
M  V30 2270 C 212.303 4.80716 -0.215757 0
M  V30 2271 C 214.655 5.17398 -0.62835 0
M  V30 2272 C 211.983 5.74433 -1.19348 0
M  V30 2273 C 214.335 6.12167 -1.5948 0
M  V30 2274 C 212.999 6.40414 -1.88218 0
M  V30 2275 H 212.269 0.716067 0.190602 0
M  V30 2276 H 214.916 1.9026 -0.217556 0
M  V30 2277 H 213.221 3.42865 1.89606 0
M  V30 2278 H 214.918 3.67902 1.59529 0
M  V30 2279 H 211.508 4.27605 0.291855 0
M  V30 2280 H 215.692 4.94472 -0.425562 0
M  V30 2281 H 210.948 5.94616 -1.42272 0
M  V30 2282 H 215.122 6.6281 -2.13671 0
M  V30 2283 H 212.749 7.12838 -2.64133 0
M  V30 2284 N 214.325 -0.140222 1.56975 0
M  V30 2285 C 215.602 -0.880769 1.74648 0
M  V30 2286 C 215.982 -1.99036 0.703404 0
M  V30 2287 O 215.33 -2.26821 -0.27648 0
M  V30 2288 C 215.54 -1.417 3.18939 0
M  V30 2289 C 216.888 -1.87774 3.80823 0
M  V30 2290 O 217.912 -1.51427 3.2241 0
M  V30 2291 O 216.771 -2.54827 4.83452 0
M  V30 2292 H 213.865 -0.416713 0.714338 0
M  V30 2293 H 216.411 -0.125618 1.69234 0
M  V30 2294 H 215.183 -0.619902 3.86359 0
M  V30 2295 H 214.806 -2.23546 3.28805 0
M  V30 2296 N 215.803 -1.52179 -0.40978 0
M  V30 2297 C 217.049 -1.66453 -1.15851 0
M  V30 2298 C 217.382 -0.392972 -1.90182 0
M  V30 2299 O 216.657 0.608579 -1.84734 0
M  V30 2300 C 216.94 -2.88612 -2.15349 0
M  V30 2301 C 216.793 -4.25815 -1.44918 0
M  V30 2302 C 218.112 -3.06294 -3.16026 0
M  V30 2303 H 215.231 -0.60575 -0.419805 0
M  V30 2304 H 217.873 -1.84732 -0.444314 0
M  V30 2305 H 216.023 -2.73158 -2.76255 0
M  V30 2306 H 217.695 -4.52995 -0.871365 0
M  V30 2307 H 215.938 -4.27247 -0.751159 0
M  V30 2308 H 216.609 -5.07337 -2.17516 0
M  V30 2309 H 219.085 -3.20641 -2.65195 0
M  V30 2310 H 217.961 -3.93283 -3.8291 0
M  V30 2311 H 218.222 -2.19579 -3.83715 0
M  V30 2312 N 217.281 0.66697 -1.42791 0
M  V30 2313 C 218.214 1.79177 -1.41318 0
M  V30 2314 C 219.192 1.60234 -0.276401 0
M  V30 2315 O 220.376 1.82602 -0.46785 0
M  V30 2316 C 217.503 3.16289 -1.21157 0
M  V30 2317 C 216.549 3.53964 -2.37932 0
M  V30 2318 S 217.382 3.55501 -4.00474 0
M  V30 2319 C 218.538 4.95292 -3.8267 0
M  V30 2320 H 218.771 1.80153 -2.365 0
M  V30 2321 H 216.304 0.838357 -1.29657 0
M  V30 2322 H 218.262 3.95428 -1.10212 0
M  V30 2323 H 216.923 3.1289 -0.275481 0
M  V30 2324 H 216.116 4.53646 -2.19594 0
M  V30 2325 H 215.718 2.82204 -2.45432 0
M  V30 2326 H 218.01 5.83584 -3.44145 0
M  V30 2327 H 218.953 5.18679 -4.82055 0
M  V30 2328 H 219.361 4.68179 -3.15386 0
M  V30 2329 N 218.759 1.29093 0.90403 0
M  V30 2330 C 219.689 1.16401 2.02418 0
M  V30 2331 C 220.67 0.0593085 1.69997 0
M  V30 2332 O 221.855 0.238021 1.92736 0
M  V30 2333 C 218.985 0.835233 3.37107 0
M  V30 2334 C 217.939 1.89578 3.83724 0
M  V30 2335 C 217.265 1.42041 5.15489 0
M  V30 2336 C 218.565 3.30394 4.04521 0
M  V30 2337 H 220.259 2.10109 2.13295 0
M  V30 2338 H 217.805 1.01157 1.02486 0
M  V30 2339 H 219.758 0.733169 4.14973 0
M  V30 2340 H 218.482 -0.137543 3.2631 0
M  V30 2341 H 217.141 1.98715 3.08071 0
M  V30 2342 H 216.789 0.436426 5.01103 0
M  V30 2343 H 216.489 2.12964 5.4765 0
M  V30 2344 H 218.013 1.33176 5.959 0
M  V30 2345 H 219.427 3.24123 4.72882 0
M  V30 2346 H 217.824 3.99237 4.48029 0
M  V30 2347 H 218.894 3.73692 3.09002 0
M  V30 2348 N 220.237 -1.11381 1.11499 0
M  V30 2349 C 221.465 -1.86934 0.88675 0
M  V30 2350 C 221.88 -1.80195 -0.563476 0
M  V30 2351 O 221.237 -1.18367 -1.38908 0
M  V30 2352 C 221.288 -3.35722 1.34064 0
M  V30 2353 O 221.009 -3.4232 2.73401 0
M  V30 2354 C 222.51 -4.2818 1.14791 0
M  V30 2355 H 219.73 -0.591117 0.317523 0
M  V30 2356 H 222.274 -1.40865 1.48248 0
M  V30 2357 H 220.429 -3.79294 0.788355 0
M  V30 2358 H 220.843 -4.34971 2.93087 0
M  V30 2359 H 222.317 -5.30817 1.5145 0
M  V30 2360 H 222.794 -4.39113 0.0875279 0
M  V30 2361 H 223.4 -3.90402 1.68721 0
M  V30 2362 N 221.715 -0.905404 -1.28997 0
M  V30 2363 C 222.992 -0.453513 -1.9027 0
M  V30 2364 C 223.372 1.06721 -1.82137 0
M  V30 2365 O 222.72 1.91159 -1.25182 0
M  V30 2366 C 222.93 -0.974494 -3.35119 0
M  V30 2367 C 224.278 -1.0216 -4.12127 0
M  V30 2368 O 225.302 -0.922557 -3.44046 0
M  V30 2369 O 224.161 -1.17121 -5.33802 0
M  V30 2370 H 221.255 -0.142347 -0.814657 0
M  V30 2371 H 223.801 -0.995642 -1.37423 0
M  V30 2372 H 222.573 -2.01848 -3.35221 0
M  V30 2373 H 222.196 -0.412706 -3.95452 0
M  V30 2374 N 223.193 1.4272 -0.668489 0
M  V30 2375 C 224.604 1.84793 -0.266151 0
M  V30 2376 C 224.955 1.55959 1.19043 0
M  V30 2377 O 224.08 1.01622 1.91055 0
M  V30 2378 C 224.675 3.35436 -0.476271 0
M  V30 2379 C 223.234 3.76182 -0.128113 0
M  V30 2380 C 222.381 2.66344 -0.771777 0
M  V30 2381 H 225.332 1.32656 -0.871098 0
M  V30 2382 H 225.353 3.79515 0.273561 0
M  V30 2383 H 224.865 3.5639 -1.53647 0
M  V30 2384 H 222.966 3.60836 0.928891 0
M  V30 2385 H 223.079 4.75766 -0.564231 0
M  V30 2386 H 221.443 2.53885 -0.203652 0
M  V30 2387 H 222.226 2.90123 -1.83531 0
M  V30 2388 N 224.671 0.411399 1.52136 0
M  V30 2389 C 225.918 -0.163645 2.01838 0
M  V30 2390 C 226.246 -1.4495 1.29691 0
M  V30 2391 O 225.501 -1.91725 0.392431 0
M  V30 2392 C 225.8 -0.455872 3.54481 0
M  V30 2393 C 225.466 0.741055 4.44769 0
M  V30 2394 C 224.128 1.06936 4.69167 0
M  V30 2395 C 226.48 1.54075 4.97906 0
M  V30 2396 C 223.808 2.19851 5.43951 0
M  V30 2397 C 226.16 2.66067 5.73926 0
M  V30 2398 C 224.824 2.99381 5.96596 0
M  V30 2399 H 224.094 -0.0598821 0.738576 0
M  V30 2400 H 226.741 0.553283 1.83333 0
M  V30 2401 H 225.046 -1.2544 3.71177 0
M  V30 2402 H 226.743 -0.913802 3.90449 0
M  V30 2403 H 223.333 0.475192 4.25958 0
M  V30 2404 H 227.517 1.30033 4.78963 0
M  V30 2405 H 222.773 2.46006 5.59724 0
M  V30 2406 H 226.947 3.28419 6.14096 0
M  V30 2407 H 224.574 3.86992 6.54325 0
M  V30 2408 N 226.149 -1.5696 0.141893 0
M  V30 2409 C 227.079 -2.19516 -0.795936 0
M  V30 2410 C 228.06 -1.14187 -1.26077 0
M  V30 2411 O 229.245 -1.42511 -1.31925 0
M  V30 2412 C 226.375 -2.81272 -2.03723 0
M  V30 2413 C 225.329 -3.92384 -1.70936 0
M  V30 2414 C 224.655 -4.41052 -3.02287 0
M  V30 2415 C 225.955 -5.13403 -0.959954 0
M  V30 2416 H 227.649 -2.98138 -0.274596 0
M  V30 2417 H 225.195 -1.43406 -0.130636 0
M  V30 2418 H 227.148 -3.237 -2.69808 0
M  V30 2419 H 225.872 -1.99973 -2.58221 0
M  V30 2420 H 224.531 -3.50566 -1.07232 0
M  V30 2421 H 224.179 -3.56582 -3.54765 0
M  V30 2422 H 223.879 -5.15993 -2.81114 0
M  V30 2423 H 225.403 -4.86146 -3.69451 0
M  V30 2424 H 226.817 -5.52706 -1.52279 0
M  V30 2425 H 225.214 -5.94073 -0.848357 0
M  V30 2426 H 226.284 -4.84875 0.0492434 0
M  V30 2427 N 227.627 0.131896 -1.57047 0
M  V30 2428 C 229.038 0.690407 -1.73465 0
M  V30 2429 C 229.389 1.8094 -0.758629 0
M  V30 2430 O 228.514 2.16282 0.0713813 0
M  V30 2431 C 229.109 1.25916 -3.14532 0
M  V30 2432 C 227.668 1.76409 -3.32501 0
M  V30 2433 C 226.815 0.658579 -2.69366 0
M  V30 2434 H 229.766 -0.0939144 -1.58422 0
M  V30 2435 H 229.787 2.12892 -3.15369 0
M  V30 2436 H 229.299 0.444515 -3.85546 0
M  V30 2437 H 227.4 2.60391 -2.66509 0
M  V30 2438 H 227.513 1.88241 -4.4057 0
M  V30 2439 H 225.877 1.08899 -2.30246 0
M  V30 2440 H 226.66 -0.14487 -3.42994 0
M  V30 2441 N 229.106 1.52395 0.401703 0
M  V30 2442 C 230.346 1.68498 1.15705 0
M  V30 2443 C 230.71 0.409748 1.87577 0
M  V30 2444 O 231.911 0.446983 2.65058 0
M  V30 2445 C 230.182 2.87789 2.11924 0
M  V30 2446 S 231.741 3.24415 2.95466 0
M  V30 2447 H 228.559 0.593267 0.391862 0
M  V30 2448 H 231.161 1.90408 0.443282 0
M  V30 2449 H 229.865 3.7884 1.57824 0
M  V30 2450 H 229.396 2.68175 2.87829 0
M  V30 2451 H 231.411 2.73614 4.13944 0
M  V30 2452 N 230.584 -0.659388 1.43143 0
M  V30 2453 C 231.809 -1.45221 1.48073 0
M  V30 2454 C 232.234 -1.87845 0.097995 0
M  V30 2455 O 231.592 -1.56985 -0.90694 0
M  V30 2456 C 231.64 -2.66748 2.42647 0
M  V30 2457 O 230.744 -3.65583 1.90848 0
M  V30 2458 H 230.085 -0.435669 0.501088 0
M  V30 2459 H 232.615 -0.807432 1.87994 0
M  V30 2460 H 232.625 -3.14637 2.59745 0
M  V30 2461 H 231.3 -2.35067 3.43098 0
M  V30 2462 H 229.877 -3.24693 1.83381 0
M  V30 2463 N 232.062 -1.29571 -0.897171 0
M  V30 2464 C 233.473 -1.15964 -1.46319 0
M  V30 2465 C 233.824 0.244267 -1.94674 0
M  V30 2466 O 232.949 1.13998 -1.83939 0
M  V30 2467 C 233.544 -2.09906 -2.65942 0
M  V30 2468 C 232.103 -2.00314 -3.18671 0
M  V30 2469 C 231.25 -2.00687 -1.91363 0
M  V30 2470 H 234.201 -1.42019 -0.708268 0
M  V30 2471 H 234.222 -1.67276 -3.41759 0
M  V30 2472 H 233.734 -3.12075 -2.30718 0
M  V30 2473 H 231.835 -1.01242 -3.58582 0
M  V30 2474 H 231.948 -2.88102 -3.82798 0
M  V30 2475 H 230.312 -1.45319 -2.09175 0
M  V30 2476 H 231.095 -3.04566 -1.58413 0
M  V30 2477 N 233.54 1.10788 -1.12088 0
M  V30 2478 C 234.789 1.82036 -0.868659 0
M  V30 2479 C 235.102 1.85929 0.607426 0
M  V30 2480 O 236.308 2.53346 0.97613 0
M  V30 2481 C 234.764 3.26951 -1.50435 0
M  V30 2482 C 234.372 3.31367 -3.01496 0
M  V30 2483 C 236.116 4.03053 -1.33225 0
M  V30 2484 C 234.023 4.7072 -3.58017 0
M  V30 2485 H 232.953 0.682108 -0.321318 0
M  V30 2486 H 235.604 1.24618 -1.34694 0
M  V30 2487 H 233.986 3.84343 -0.953735 0
M  V30 2488 H 235.16 2.83819 -3.6302 0
M  V30 2489 H 233.475 2.6875 -3.18061 0
M  V30 2490 H 236.072 5.05981 -1.72878 0
M  V30 2491 H 236.415 4.15387 -0.275529 0
M  V30 2492 H 236.948 3.52066 -1.85188 0
M  V30 2493 H 233.687 4.63585 -4.63432 0
M  V30 2494 H 233.207 5.1865 -3.01268 0
M  V30 2495 H 234.886 5.39685 -3.56859 0
M  V30 2496 N 235.018 0.912232 1.28515 0
M  V30 2497 C 236.264 0.545405 1.95328 0
M  V30 2498 C 236.597 -0.908313 1.71649 0
M  V30 2499 O 235.872 -1.64575 1.03659 0
M  V30 2500 C 236.155 0.853483 3.4984 0
M  V30 2501 C 236.008 2.35982 3.82926 0
M  V30 2502 C 237.327 0.348589 4.38717 0
M  V30 2503 H 234.446 0.199626 0.709449 0
M  V30 2504 H 237.088 1.1412 1.5191 0
M  V30 2505 H 235.238 0.34643 3.86952 0
M  V30 2506 H 236.91 2.93738 3.55691 0
M  V30 2507 H 235.153 2.81543 3.30024 0
M  V30 2508 H 235.824 2.52593 4.90816 0
M  V30 2509 H 238.3 0.78294 4.08668 0
M  V30 2510 H 237.176 0.593242 5.45685 0
M  V30 2511 H 237.437 -0.751049 4.35674 0
M  V30 2512 N 236.496 -1.42363 0.676048 0
M  V30 2513 C 237.459 -2.29199 0.00766941 0
M  V30 2514 C 238.459 -1.43389 -0.727745 0
M  V30 2515 O 239.649 -1.64764 -0.56556 0
M  V30 2516 C 236.781 -3.2591 -0.999785 0
M  V30 2517 H 237.974 -2.89794 0.771988 0
M  V30 2518 H 235.527 -1.50024 0.438468 0
M  V30 2519 H 236.262 -2.70256 -1.79255 0
M  V30 2520 H 236.047 -3.89202 -0.475829 0
M  V30 2521 H 237.537 -3.91028 -1.46583 0
M  V30 2522 N 237.974 -0.419461 -1.51915 0
M  V30 2523 C 238.906 0.43646 -2.25006 0
M  V30 2524 C 239.919 1.00149 -1.28351 0
M  V30 2525 O 241.108 0.898674 -1.54227 0
M  V30 2526 C 238.208 1.6206 -2.9764 0
M  V30 2527 C 237.381 1.17763 -4.21249 0
M  V30 2528 C 236.44 2.22985 -4.76617 0
M  V30 2529 O 235.466 1.83151 -5.38929 0
M  V30 2530 N 236.668 3.55271 -4.59089 0
M  V30 2531 H 239.433 -0.18989 -2.99098 0
M  V30 2532 H 236.994 -0.247386 -1.59999 0
M  V30 2533 H 238.986 2.32038 -3.31573 0
M  V30 2534 H 237.556 2.15266 -2.2667 0
M  V30 2535 H 236.776 0.305582 -3.93014 0
M  V30 2536 H 238.064 0.858781 -5.015 0
M  V30 2537 H 237.462 3.90377 -4.09417 0
M  V30 2538 H 236.019 4.21195 -4.97432 0
M  V30 2539 N 239.452 1.56882 -0.150215 0
M  V30 2540 C 240.682 2.00302 0.506213 0
M  V30 2541 C 241.09 1.02934 1.58749 0
M  V30 2542 O 240.433 0.0188384 1.8369 0
M  V30 2543 C 240.495 3.40156 1.16337 0
M  V30 2544 C 240.159 4.56439 0.226311 0
M  V30 2545 C 241.156 5.17012 -0.547265 0
M  V30 2546 C 238.841 5.02136 0.128279 0
M  V30 2547 C 240.835 6.21693 -1.40629 0
M  V30 2548 C 238.522 6.06672 -0.734345 0
M  V30 2549 C 239.52 6.6632 -1.50023 0
M  V30 2550 O 239.208 7.68831 -2.34848 0
M  V30 2551 H 238.94 0.662182 0.135984 0
M  V30 2552 H 241.494 2.03961 -0.242746 0
M  V30 2553 H 239.724 3.33346 1.96004 0
M  V30 2554 H 241.413 3.67663 1.71985 0
M  V30 2555 H 242.179 4.82603 -0.48158 0
M  V30 2556 H 238.058 4.55435 0.714157 0
M  V30 2557 H 241.602 6.68179 -2.00455 0
M  V30 2558 H 237.499 6.40507 -0.801309 0
M  V30 2559 H 238.267 7.86065 -2.28131 0
M  V30 2560 N 240.93 -0.123565 1.57115 0
M  V30 2561 C 241.86 -1.15309 2.03042 0
M  V30 2562 C 242.841 -1.43454 0.914061 0
M  V30 2563 O 244.026 -1.53973 1.18347 0
M  V30 2564 C 241.156 -2.48043 2.43089 0
M  V30 2565 C 240.11 -2.3437 3.58127 0
M  V30 2566 C 239.436 -3.72026 3.84059 0
M  V30 2567 C 240.736 -1.80804 4.90007 0
M  V30 2568 H 242.43 -0.771102 2.893 0
M  V30 2569 H 239.976 -0.369479 1.39179 0
M  V30 2570 H 241.929 -3.20311 2.73823 0
M  V30 2571 H 240.653 -2.88122 1.53796 0
M  V30 2572 H 239.312 -1.64551 3.27595 0
M  V30 2573 H 238.96 -4.09582 2.91979 0
M  V30 2574 H 238.66 -3.63732 4.6149 0
M  V30 2575 H 240.184 -4.45806 4.1724 0
M  V30 2576 H 241.598 -2.42886 5.19307 0
M  V30 2577 H 239.995 -1.83343 5.71407 0
M  V30 2578 H 241.065 -0.76528 4.78823 0
M  V30 2579 N 242.408 -1.52605 -0.393616 0
M  V30 2580 C 243.633 -1.71592 -1.16495 0
M  V30 2581 C 244.058 -0.43133 -1.83088 0
M  V30 2582 O 243.416 0.612523 -1.7064 0
M  V30 2583 C 243.464 -2.86318 -2.19213 0
M  V30 2584 O 242.568 -2.52969 -3.257 0
M  V30 2585 H 241.909 -0.570734 -0.33935 0
M  V30 2586 H 244.439 -1.99377 -0.459324 0
M  V30 2587 H 244.449 -3.1168 -2.63286 0
M  V30 2588 H 243.124 -3.79511 -1.7013 0
M  V30 2589 H 241.701 -2.38332 -2.86797 0
M  V30 2590 N 243.887 0.651787 -1.4349 0
M  V30 2591 C 244.817 1.77621 -1.51569 0
M  V30 2592 C 245.798 1.66022 -0.370253 0
M  V30 2593 O 246.983 1.85095 -0.587658 0
M  V30 2594 C 244.113 3.16056 -1.43966 0
M  V30 2595 C 243.067 3.4242 -2.56774 0
M  V30 2596 C 242.393 4.8067 -2.34223 0
M  V30 2597 C 243.693 3.37023 -3.99015 0
M  V30 2598 H 245.387 1.71117 -2.45681 0
M  V30 2599 H 242.933 0.821825 -1.18246 0
M  V30 2600 H 244.886 3.94472 -1.48221 0
M  V30 2601 H 243.61 3.23293 -0.463586 0
M  V30 2602 H 242.269 2.66375 -2.51873 0
M  V30 2603 H 241.917 4.84585 -1.34856 0
M  V30 2604 H 241.617 4.9927 -3.09844 0
M  V30 2605 H 243.141 5.61342 -2.40265 0
M  V30 2606 H 244.555 4.05374 -4.05395 0
M  V30 2607 H 242.952 3.67159 -4.74673 0
M  V30 2608 H 244.022 2.3518 -4.2405 0
M  V30 2609 N 245.365 1.30045 0.890287 0
M  V30 2610 C 246.776 1.16738 1.45702 0
M  V30 2611 C 247.127 -0.233939 1.948 0
M  V30 2612 O 246.252 -1.13021 1.84541 0
M  V30 2613 C 246.847 2.11313 2.64825 0
M  V30 2614 C 245.406 2.02001 3.17604 0
M  V30 2615 C 244.553 2.01699 1.90296 0
M  V30 2616 H 247.504 1.42392 0.700726 0
M  V30 2617 H 247.525 1.69086 3.40867 0
M  V30 2618 H 247.037 3.13294 2.2906 0
M  V30 2619 H 245.138 1.03142 3.5804 0
M  V30 2620 H 245.251 2.90128 3.81264 0
M  V30 2621 H 243.615 1.46427 2.08402 0
M  V30 2622 H 244.398 3.05402 1.56795 0
M  V30 2623 N 246.843 -1.10192 1.12674 0
M  V30 2624 C 248.071 -1.85983 0.906527 0
M  V30 2625 C 248.486 -1.80783 -0.544333 0
M  V30 2626 O 247.843 -1.19834 -1.37645 0
M  V30 2627 C 247.894 -3.34281 1.37618 0
M  V30 2628 O 247.615 -3.39401 2.77017 0
M  V30 2629 C 249.116 -4.26938 1.19325 0
M  V30 2630 H 246.336 -0.587716 0.323775 0
M  V30 2631 H 248.88 -1.39284 1.49734 0
M  V30 2632 H 247.035 -3.78436 0.828539 0
M  V30 2633 H 247.449 -4.31838 2.97684 0
M  V30 2634 H 248.923 -5.29181 1.57071 0
M  V30 2635 H 249.4 -4.38995 0.134097 0
M  V30 2636 H 250.006 -3.8859 1.72852 0
M  V30 2637 N 248.321 -0.919034 -1.28029 0
M  V30 2638 C 249.567 -0.555757 -1.95036 0
M  V30 2639 C 249.9 0.899198 -1.72128 0
M  V30 2640 O 249.175 1.64023 -1.04531 0
M  V30 2641 C 249.458 -0.872024 -3.49382 0
M  V30 2642 C 249.311 -2.3801 -3.81669 0
M  V30 2643 C 250.63 -0.37185 -4.38526 0
M  V30 2644 H 247.749 -0.203386 -0.708381 0
M  V30 2645 H 250.391 -1.14924 -1.51303 0
M  V30 2646 H 248.541 -0.366946 -3.86763 0
M  V30 2647 H 250.213 -2.9562 -3.54128 0
M  V30 2648 H 248.456 -2.83289 -3.28526 0
M  V30 2649 H 249.127 -2.55192 -4.8947 0
M  V30 2650 H 251.603 -0.804602 -4.08247 0
M  V30 2651 H 250.479 -0.622173 -5.45362 0
M  V30 2652 H 250.74 0.727934 -4.36066 0
M  V30 2653 N 249.799 1.42003 -0.683588 0
M  V30 2654 C 251.046 2.01413 -0.209514 0
M  V30 2655 C 251.374 1.54088 1.1869 0
M  V30 2656 O 250.629 0.737591 1.81268 0
M  V30 2657 C 250.928 3.56827 -0.202357 0
M  V30 2658 C 250.594 4.23617 -1.54464 0
M  V30 2659 C 249.256 4.41577 -1.91215 0
M  V30 2660 C 251.608 4.61178 -2.42826 0
M  V30 2661 C 248.936 4.9437 -3.15935 0
M  V30 2662 C 251.288 5.15355 -3.66867 0
M  V30 2663 C 249.952 5.31528 -4.03776 0
M  V30 2664 H 249.222 0.737023 -0.0766668 0
M  V30 2665 H 251.869 1.70067 -0.880312 0
M  V30 2666 H 250.174 3.87892 0.551969 0
M  V30 2667 H 251.871 4.00588 0.181793 0
M  V30 2668 H 248.461 4.10004 -1.24877 0
M  V30 2669 H 252.645 4.46968 -2.15717 0
M  V30 2670 H 247.901 5.05076 -3.44541 0
M  V30 2671 H 252.075 5.43402 -4.35531 0
M  V30 2672 H 249.702 5.72199 -5.00492 0
M  V30 2673 N 251.277 0.427512 1.51691 0
M  V30 2674 C 252.524 -0.142229 2.02 0
M  V30 2675 C 252.852 -1.43566 1.31221 0
M  V30 2676 O 252.107 -1.91298 0.412744 0
M  V30 2677 C 252.406 -0.418249 3.54944 0
M  V30 2678 C 252.072 0.788187 4.43958 0
M  V30 2679 C 250.734 1.11906 4.68007 0
M  V30 2680 C 253.086 1.59347 4.96244 0
M  V30 2681 C 250.414 2.25608 5.41588 0
M  V30 2682 C 252.766 2.7214 5.71072 0
M  V30 2683 C 251.43 3.05692 5.93387 0
M  V30 2684 H 250.7 -0.0520451 0.73917 0
M  V30 2685 H 253.347 0.572697 1.82736 0
M  V30 2686 H 251.652 -1.21496 3.72486 0
M  V30 2687 H 253.349 -0.872339 3.91397 0
M  V30 2688 H 249.939 0.520344 4.2543 0
M  V30 2689 H 254.123 1.35106 4.77556 0
M  V30 2690 H 249.379 2.51929 5.57083 0
M  V30 2691 H 253.553 3.34914 6.10578 0
M  V30 2692 H 251.18 3.9391 6.50184 0
M  V30 2693 N 252.755 -1.56801 0.158532 0
M  V30 2694 C 253.685 -2.20347 -0.772609 0
M  V30 2695 C 254.666 -1.15518 -1.24859 0
M  V30 2696 O 255.851 -1.43902 -1.30406 0
M  V30 2697 C 252.981 -2.83417 -2.00729 0
M  V30 2698 C 251.935 -3.94174 -1.66765 0
M  V30 2699 C 251.261 -4.44233 -2.97592 0
M  V30 2700 C 252.561 -5.14392 -0.905447 0
M  V30 2701 H 254.255 -2.98413 -0.242959 0
M  V30 2702 H 251.801 -1.43537 -0.115419 0
M  V30 2703 H 253.754 -3.26543 -2.6636 0
M  V30 2704 H 252.478 -2.02701 -2.56086 0
M  V30 2705 H 251.137 -3.51684 -1.03508 0
M  V30 2706 H 250.785 -3.60325 -3.50963 0
M  V30 2707 H 250.485 -5.18945 -2.75626 0
M  V30 2708 H 252.009 -4.90037 -3.64274 0
M  V30 2709 H 253.423 -5.5429 -1.46408 0
M  V30 2710 H 251.82 -5.9494 -0.7853 0
M  V30 2711 H 252.89 -4.84795 0.100668 0
M  V30 2712 N 254.233 0.115231 -1.57178 0
M  V30 2713 C 255.183 1.14707 -1.97044 0
M  V30 2714 C 256.167 1.36866 -0.845957 0
M  V30 2715 O 257.359 1.37895 -1.10968 0
M  V30 2716 C 254.488 2.47266 -2.38148 0
M  V30 2717 C 253.574 2.28566 -3.57237 0
M  V30 2718 N 253.965 1.79685 -4.72807 0
M  V30 2719 C 252.263 2.59208 -3.62943 0
M  V30 2720 C 252.964 1.74781 -5.54821 0
M  V30 2721 N 251.94 2.19264 -4.97417 0
M  V30 2722 H 255.742 0.761754 -2.83857 0
M  V30 2723 H 253.256 0.322928 -1.59157 0
M  V30 2724 H 255.253 3.219 -2.64927 0
M  V30 2725 H 253.913 2.86552 -1.52702 0
M  V30 2726 H 254.924 1.49177 -4.9595 0
M  V30 2727 H 251.601 3.02154 -2.88113 0
M  V30 2728 H 252.991 1.38212 -6.57531 0
M  V30 2729 N 255.711 1.52812 0.385517 0
M  V30 2730 C 256.674 1.77188 1.45386 0
M  V30 2731 C 257.674 0.641953 1.4743 0
M  V30 2732 O 258.864 0.910033 1.4854 0
M  V30 2733 C 255.996 1.87582 2.8465 0
M  V30 2734 H 257.189 2.72583 1.25054 0
M  V30 2735 H 254.742 1.43586 0.617467 0
M  V30 2736 H 255.477 0.941849 3.10322 0
M  V30 2737 H 255.262 2.69748 2.84567 0
M  V30 2738 H 256.752 2.08102 3.62054 0
M  V30 2739 N 257.189 -0.644168 1.43834 0
M  V30 2740 C 258.119 -1.76814 1.52509 0
M  V30 2741 C 259.1 -1.65823 0.379052 0
M  V30 2742 O 260.285 -1.84781 0.597466 0
M  V30 2743 C 257.415 -3.15288 1.4564 0
M  V30 2744 C 256.369 -3.41053 2.58586 0
M  V30 2745 C 255.695 -4.79421 2.36769 0
M  V30 2746 C 256.995 -3.34902 4.00797 0
M  V30 2747 H 258.689 -1.69812 2.46586 0
M  V30 2748 H 256.235 -0.815542 1.1868 0
M  V30 2749 H 258.188 -3.93681 1.50311 0
M  V30 2750 H 256.912 -3.23043 0.480725 0
M  V30 2751 H 255.571 -2.65035 2.53282 0
M  V30 2752 H 255.219 -4.83863 1.37424 0
M  V30 2753 H 254.919 -4.9762 3.12487 0
M  V30 2754 H 256.443 -5.6006 2.43238 0
M  V30 2755 H 257.857 -4.03218 4.07539 0
M  V30 2756 H 256.254 -3.64637 4.76613 0
M  V30 2757 H 257.324 -2.32928 4.25291 0
M  V30 2758 N 258.668 -1.30515 -0.883378 0
M  V30 2759 C 260.079 -1.17509 -1.45081 0
M  V30 2760 C 260.43 0.223605 -1.94922 0
M  V30 2761 O 259.555 1.12041 -1.85137 0
M  V30 2762 C 260.15 -2.12715 -2.63701 0
M  V30 2763 C 258.709 -2.03682 -3.16529 0
M  V30 2764 C 257.856 -2.02706 -1.89224 0
M  V30 2765 H 260.807 -1.42762 -0.693165 0
M  V30 2766 H 260.828 -1.70891 -3.39965 0
M  V30 2767 H 260.34 -3.14505 -2.27395 0
M  V30 2768 H 258.441 -1.05039 -3.57488 0
M  V30 2769 H 258.554 -2.92146 -3.7972 0
M  V30 2770 H 256.918 -1.4753 -2.07622 0
M  V30 2771 H 257.701 -3.06229 -1.55174 0
M  V30 2772 N 260.146 1.09593 -1.13257 0
M  V30 2773 C 261.386 1.83349 -0.903472 0
M  V30 2774 C 261.75 1.83641 0.560351 0
M  V30 2775 O 262.951 2.53037 0.906947 0
M  V30 2776 C 261.222 3.25629 -1.47311 0
M  V30 2777 S 262.781 4.16408 -1.38382 0
M  V30 2778 H 259.599 0.632014 -0.325699 0
M  V30 2779 H 262.201 1.31817 -1.44376 0
M  V30 2780 H 260.905 3.22991 -2.53189 0
M  V30 2781 H 260.436 3.82233 -0.930689 0
M  V30 2782 H 262.451 4.94884 -0.361113 0
M  V30 2783 N 261.624 0.925811 1.2754 0
M  V30 2784 C 262.849 0.580924 1.99098 0
M  V30 2785 C 263.274 -0.833555 1.68622 0
M  V30 2786 O 262.632 -1.55903 0.925422 0
M  V30 2787 C 262.68 0.811186 3.51358 0
M  V30 2788 O 261.784 -0.124129 4.12213 0
M  V30 2789 H 261.125 0.223873 0.625122 0
M  V30 2790 H 263.655 1.24455 1.62395 0
M  V30 2791 H 263.665 0.72601 4.01489 0
M  V30 2792 H 262.34 1.84227 3.72872 0
M  V30 2793 H 260.917 0.0108006 3.72898 0
M  V30 2794 N 263.102 -1.41638 0.69111 0
M  V30 2795 C 264.032 -2.3347 0.037248 0
M  V30 2796 C 265.013 -1.51575 -0.771947 0
M  V30 2797 O 266.198 -1.80126 -0.72582 0
M  V30 2798 C 263.328 -3.35354 -0.903064 0
M  V30 2799 C 262.282 -4.27526 -0.201288 0
M  V30 2800 C 261.608 -5.19747 -1.25565 0
M  V30 2801 C 262.908 -5.13959 0.929689 0
M  V30 2802 H 264.602 -2.88397 0.804227 0
M  V30 2803 H 262.148 -1.38669 0.388189 0
M  V30 2804 H 264.101 -3.98519 -1.36969 0
M  V30 2805 H 262.825 -2.78767 -1.70166 0
M  V30 2806 H 261.484 -3.65779 0.245265 0
M  V30 2807 H 261.132 -4.59479 -2.04666 0
M  V30 2808 H 260.832 -5.8225 -0.791128 0
M  V30 2809 H 262.356 -5.85789 -1.72288 0
M  V30 2810 H 263.77 -5.70718 0.543546 0
M  V30 2811 H 262.167 -5.85379 1.32103 0
M  V30 2812 H 263.237 -4.51389 1.77133 0
M  V30 2813 N 264.58 -0.43555 -1.51462 0
M  V30 2814 C 265.49 0.383001 -2.31453 0
M  V30 2815 C 266.506 1.02931 -1.4029 0
M  V30 2816 O 267.682 1.02507 -1.73362 0
M  V30 2817 C 264.747 1.47043 -3.13973 0
M  V30 2818 C 263.808 0.844433 -4.20913 0
M  V30 2819 C 263.041 1.88004 -4.9949 0
M  V30 2820 O 263.264 3.10199 -4.78678 0
M  V30 2821 O 262.198 1.47157 -5.83634 0
M  V30 2822 H 266.024 -0.269964 -3.02498 0
M  V30 2823 H 263.609 -0.19813 -1.4808 0
M  V30 2824 H 265.491 2.10113 -3.65281 0
M  V30 2825 H 264.166 2.10751 -2.45695 0
M  V30 2826 H 263.073 0.175729 -3.73687 0
M  V30 2827 H 264.406 0.250869 -4.9156 0
M  V30 2828 N 266.058 1.56714 -0.166846 0
M  V30 2829 C 267.305 1.96747 0.479252 0
M  V30 2830 C 267.633 1.05263 1.63554 0
M  V30 2831 O 266.888 0.0858098 1.95512 0
M  V30 2832 C 267.187 3.42889 1.00806 0
M  V30 2833 C 266.853 4.50889 -0.0318574 0
M  V30 2834 C 265.515 4.8015 -0.317675 0
M  V30 2835 C 267.867 5.15949 -0.737956 0
M  V30 2836 C 265.195 5.71772 -1.31506 0
M  V30 2837 C 267.547 6.08647 -1.72429 0
M  V30 2838 C 266.211 6.36277 -2.0176 0
M  V30 2839 H 265.481 0.719949 0.175371 0
M  V30 2840 H 268.128 1.89756 -0.257864 0
M  V30 2841 H 266.433 3.4681 1.82291 0
M  V30 2842 H 268.13 3.71203 1.51689 0
M  V30 2843 H 264.72 4.28128 0.201088 0
M  V30 2844 H 268.904 4.93458 -0.530351 0
M  V30 2845 H 264.16 5.91465 -1.54853 0
M  V30 2846 H 268.334 6.58129 -2.27682 0
M  V30 2847 H 265.961 7.07075 -2.79194 0
M  V30 2848 N 267.536 -0.106894 1.57237 0
M  V30 2849 C 268.446 -1.14911 2.0453 0
M  V30 2850 C 269.462 -1.44592 0.96795 0
M  V30 2851 O 270.638 -1.55468 1.2803 0
M  V30 2852 C 267.703 -2.45272 2.45036 0
M  V30 2853 C 266.764 -2.22879 3.66911 0
M  V30 2854 C 265.997 -3.47024 4.05475 0
M  V30 2855 O 266.22 -4.54804 3.44252 0
M  V30 2856 O 265.154 -3.3731 4.98504 0
M  V30 2857 H 268.98 -0.777461 2.9358 0
M  V30 2858 H 266.565 -0.318563 1.45964 0
M  V30 2859 H 268.447 -3.22055 2.71769 0
M  V30 2860 H 267.122 -2.81886 1.59129 0
M  V30 2861 H 266.029 -1.43915 3.45311 0
M  V30 2862 H 267.362 -1.91163 4.53561 0
M  V30 2863 N 269.014 -1.53014 -0.377408 0
M  V30 2864 C 269.977 -1.77957 -1.44444 0
M  V30 2865 C 270.977 -0.649763 -1.47087 0
M  V30 2866 O 272.167 -0.917897 -1.48055 0
M  V30 2867 C 269.299 -1.89089 -2.83651 0
M  V30 2868 H 270.492 -2.73243 -1.23606 0
M  V30 2869 H 268.045 -1.43912 -0.609844 0
M  V30 2870 H 268.78 -0.958293 -3.09818 0
M  V30 2871 H 268.565 -2.71254 -2.83132 0
M  V30 2872 H 270.055 -2.1002 -3.60945 0
M  V30 2873 N 270.492 0.636531 -1.44174 0
M  V30 2874 C 271.72 1.42353 -1.50144 0
M  V30 2875 C 272.135 1.88389 -0.124575 0
M  V30 2876 O 271.492 1.6051 0.868489 0
M  V30 2877 C 271.543 2.64744 -2.46156 0
M  V30 2878 O 271.264 2.20629 -3.7849 0
M  V30 2879 C 272.765 3.57929 -2.61537 0
M  V30 2880 H 269.985 0.436752 -0.5094 0
M  V30 2881 H 272.529 0.778933 -1.89084 0
M  V30 2882 H 270.684 3.25307 -2.10366 0
M  V30 2883 H 271.098 2.99938 -4.30276 0
M  V30 2884 H 272.572 4.40428 -3.32757 0
M  V30 2885 H 273.049 4.06382 -1.66585 0
M  V30 2886 H 273.655 3.03238 -2.98206 0
M  V30 2887 N 271.97 1.30982 0.876444 0
M  V30 2888 C 272.902 1.13902 1.98894 0
M  V30 2889 C 273.915 0.0798815 1.62604 0
M  V30 2890 O 275.104 0.326743 1.75484 0
M  V30 2891 C 272.204 0.716699 3.31235 0
M  V30 2892 C 271.377 1.85945 3.95908 0
M  V30 2893 C 270.436 1.42426 5.06558 0
M  V30 2894 O 269.462 2.13287 5.27729 0
M  V30 2895 N 270.664 0.308025 5.79682 0
M  V30 2896 H 273.429 2.09724 2.14094 0
M  V30 2897 H 270.99 1.2323 1.05004 0
M  V30 2898 H 272.982 0.408403 4.02634 0
M  V30 2899 H 271.552 -0.149719 3.12241 0
M  V30 2900 H 270.772 2.33541 3.17573 0
M  V30 2901 H 272.06 2.62503 4.35855 0
M  V30 2902 H 271.458 -0.282241 5.64995 0
M  V30 2903 H 270.015 0.0592282 6.51773 0
M  V30 2904 N 273.449 -1.08991 1.13837 0
M  V30 2905 C 274.689 -1.82867 0.913183 0
M  V30 2906 C 275.053 -1.83936 -0.550604 0
M  V30 2907 O 276.254 -2.53515 -0.893515 0
M  V30 2908 C 274.525 -3.24843 1.49036 0
M  V30 2909 S 276.084 -4.15669 1.40588 0
M  V30 2910 H 272.902 -0.630278 0.329046 0
M  V30 2911 H 275.504 -1.31049 1.45073 0
M  V30 2912 H 274.208 -3.21644 2.54899 0
M  V30 2913 H 273.739 -3.81734 0.950947 0
M  V30 2914 H 275.754 -4.94686 0.387353 0
M  V30 2915 N 274.927 -0.932562 -1.27047 0
M  V30 2916 C 276.338 -0.619451 -1.76124 0
M  V30 2917 C 276.689 0.865397 -1.76083 0
M  V30 2918 O 275.814 1.67722 -1.36742 0
M  V30 2919 C 276.409 -1.11771 -3.19832 0
M  V30 2920 C 274.968 -0.855174 -3.66557 0
M  V30 2921 C 274.115 -1.27362 -2.46321 0
M  V30 2922 H 277.066 -1.11181 -1.13245 0
M  V30 2923 H 277.087 -0.46759 -3.77616 0
M  V30 2924 H 276.599 -2.19842 -3.1983 0
M  V30 2925 H 274.7 0.211524 -3.71999 0
M  V30 2926 H 274.813 -1.47613 -4.55793 0
M  V30 2927 H 273.177 -0.692119 -2.45116 0
M  V30 2928 H 273.96 -2.36307 -2.49025 0
M  V30 2929 N 276.405 1.4127 -0.698611 0
M  V30 2930 C 277.353 2.32588 -0.023855 0
M  V30 2931 C 278.347 1.51128 0.765292 0
M  V30 2932 O 279.553 1.67043 0.670571 0
M  V30 2933 H 275.928 0.751918 0.0110871 0
M  V30 2934 H 277.899 2.87167 -0.811031 0
M  V30 2935 C 276.648 3.35947 0.896369 0
M  V30 2936 H 275.971 3.98684 0.298548 0
M  V30 2937 H 277.411 4.02376 1.33676 0
M  V30 2938 C 275.87 2.70076 2.01396 0
M  V30 2939 O 276.4 2.55093 3.10307 0
M  V30 2940 N 274.606 2.28724 1.79259 0
M  V30 2941 H 274.153 2.4111 0.906841 0
M  V30 2942 H 274.111 1.84986 2.54219 0
M  V30 2943 N 277.883 0.443576 1.51229 0
M  V30 2944 C 279.294 -0.0180867 1.86691 0
M  V30 2945 C 279.645 -1.41384 1.36033 0
M  V30 2946 O 278.77 -2.04291 0.713722 0
M  V30 2947 C 279.365 -0.039597 3.38777 0
M  V30 2948 C 277.924 -0.445692 3.73752 0
M  V30 2949 C 277.071 0.357584 2.74985 0
M  V30 2950 H 280.022 0.659138 1.44364 0
M  V30 2951 H 280.043 -0.847761 3.70936 0
M  V30 2952 H 279.555 0.976382 3.75617 0
M  V30 2953 H 277.656 -1.46704 3.42503 0
M  V30 2954 H 277.769 -0.166155 4.78812 0
M  V30 2955 H 276.133 -0.184973 2.54027 0
M  V30 2956 H 276.916 1.37256 3.14668 0
M  V30 2957 N 279.361 -1.56624 0.175154 0
M  V30 2958 C 280.608 -1.96999 -0.468811 0
M  V30 2959 C 280.936 -1.06129 -1.62994 0
M  V30 2960 O 280.191 -0.0961771 -1.95464 0
M  V30 2961 C 280.49 -3.43419 -0.989864 0
M  V30 2962 C 280.156 -4.50866 0.0557687 0
M  V30 2963 C 278.818 -4.79975 0.343134 0
M  V30 2964 C 281.17 -5.15551 0.765308 0
M  V30 2965 C 278.498 -5.71066 1.34536 0
M  V30 2966 C 280.85 -6.07724 1.75654 0
M  V30 2967 C 279.514 -6.35199 2.05132 0
M  V30 2968 H 278.784 -0.720869 -0.17155 0
M  V30 2969 H 281.431 -1.89616 0.267924 0
M  V30 2970 H 279.736 -3.47772 -1.80449 0
M  V30 2971 H 281.433 -3.72002 -1.49719 0
M  V30 2972 H 278.023 -4.28229 -0.178381 0
M  V30 2973 H 282.207 -4.9317 0.556513 0
M  V30 2974 H 277.463 -5.90635 1.57988 0
M  V30 2975 H 281.637 -6.56912 2.31169 0
M  V30 2976 H 279.264 -7.05584 2.8294 0
M  V30 2977 N 280.839 0.0985539 -1.57292 0
M  V30 2978 C 282.064 0.820196 -1.90493 0
M  V30 2979 C 282.489 1.71658 -0.769094 0
M  V30 2980 O 281.847 1.79133 0.279495 0
M  V30 2981 C 281.895 1.61242 -3.22542 0
M  V30 2982 O 280.999 2.72108 -3.09888 0
M  V30 2983 H 280.34 0.225547 -0.62452 0
M  V30 2984 H 282.87 0.0748159 -2.04463 0
M  V30 2985 H 282.88 1.99737 -3.55766 0
M  V30 2986 H 281.555 0.954535 -4.04798 0
M  V30 2987 H 280.132 2.36667 -2.88172 0
M  V30 2988 N 282.317 1.53212 0.369288 0
M  V30 2989 C 283.547 1.72868 1.13139 0
M  V30 2990 C 283.955 0.455754 1.83629 0
M  V30 2991 O 283.298 -0.580861 1.74275 0
M  V30 2992 C 283.36 2.83667 2.20847 0
M  V30 2993 C 283.024 4.24142 1.70155 0
M  V30 2994 C 284.021 5.06619 1.16763 0
M  V30 2995 C 281.706 4.70539 1.7578 0
M  V30 2996 C 283.7 6.33581 0.696678 0
M  V30 2997 C 281.387 5.97481 1.28297 0
M  V30 2998 C 282.385 6.78833 0.753307 0
M  V30 2999 O 282.073 8.03393 0.285475 0
M  V30 3000 H 281.805 0.581707 0.344373 0
M  V30 3001 H 284.359 2.00736 0.435243 0
M  V30 3002 H 282.589 2.51265 2.93944 0
M  V30 3003 H 284.278 2.91536 2.82421 0
M  V30 3004 H 285.044 4.71948 1.11758 0
M  V30 3005 H 280.923 4.07293 2.15949 0
M  V30 3006 H 284.467 6.97027 0.282581 0
M  V30 3007 H 280.364 6.31651 1.32994 0
M  V30 3008 H 281.132 8.17497 0.405145 0
M  V30 3009 N 283.795 -0.628877 1.44509 0
M  V30 3010 C 285.041 -1.39045 1.47629 0
M  V30 3011 C 285.374 -1.93892 0.109343 0
M  V30 3012 O 284.649 -1.7379 -0.87334 0
M  V30 3013 C 284.932 -2.55408 2.53848 0
M  V30 3014 C 284.785 -2.05896 3.99909 0
M  V30 3015 C 286.104 -3.5759 2.56549 0
M  V30 3016 H 283.223 -0.504232 0.537512 0
M  V30 3017 H 285.865 -0.710854 1.76201 0
M  V30 3018 H 284.015 -3.13384 2.29615 0
M  V30 3019 H 285.687 -1.52734 4.35282 0
M  V30 3020 H 283.93 -1.37061 4.11578 0
M  V30 3021 H 284.601 -2.89681 4.69882 0
M  V30 3022 H 287.077 -3.09419 2.78207 0
M  V30 3023 H 285.953 -4.36527 3.32769 0
M  V30 3024 H 286.214 -4.11808 1.60832 0
M  V30 3025 N 285.273 -1.31445 -0.869486 0
M  V30 3026 C 286.684 -1.19042 -1.43826 0
M  V30 3027 C 287.035 0.202919 -1.95148 0
M  V30 3028 O 286.16 1.10071 -1.86315 0
M  V30 3029 C 286.755 -2.15499 -2.6143 0
M  V30 3030 C 285.314 -2.07028 -3.14351 0
M  V30 3031 C 284.461 -2.04701 -1.87063 0
M  V30 3032 H 287.412 -1.43489 -0.677984 0
M  V30 3033 H 287.433 -1.74488 -3.38134 0
M  V30 3034 H 286.945 -3.16899 -2.24046 0
M  V30 3035 H 285.046 -1.08825 -3.56354 0
M  V30 3036 H 285.159 -2.96157 -3.766 0
M  V30 3037 H 283.523 -1.49724 -2.06046 0
M  V30 3038 H 284.306 -3.07857 -1.51917 0
M  V30 3039 N 286.751 1.08385 -1.14413 0
M  V30 3040 C 288.167 1.32844 -0.884563 0
M  V30 3041 C 288.367 1.95841 0.474181 0
M  V30 3042 O 287.423 2.21158 1.21842 0
M  V30 3043 C 288.736 2.22978 -2.01745 0
M  V30 3044 C 290.284 2.36458 -2.05077 0
M  V30 3045 C 290.759 3.29934 -3.1766 0
M  V30 3046 N 292.25 3.37511 -3.17239 0
M  V30 3047 C 292.985 4.09871 -4.0099 0
M  V30 3048 N 292.481 4.84936 -4.94781 0
M  V30 3049 N 294.274 4.05704 -3.89051 0
M  V30 3050 H 286.425 0.658756 -2.01926 0
M  V30 3051 H 288.688 0.352821 -0.879899 0
M  V30 3052 H 288.394 1.83934 -2.99769 0
M  V30 3053 H 288.268 3.23441 -1.94077 0
M  V30 3054 H 290.655 2.7476 -1.0766 0
M  V30 3055 H 290.736 1.35736 -2.16816 0
M  V30 3056 H 290.38 2.92352 -4.15322 0
M  V30 3057 H 290.31 4.30584 -3.03158 0
M  V30 3058 H 292.801 2.83996 -2.49308 0
M  V30 3059 H 293.114 5.37612 -5.55151 0
M  V30 3060 H 291.459 4.83988 -4.98779 0
M  V30 3061 H 294.65 3.46167 -3.15097 0
M  V30 3062 H 294.823 4.61834 -4.54547 0
M  V30 3063 N 288.23 0.939286 1.26551 0
M  V30 3064 C 289.641 0.628782 1.75793 0
M  V30 3065 C 289.992 -0.856046 1.7654 0
M  V30 3066 O 289.117 -1.66994 1.3763 0
M  V30 3067 C 289.712 1.13465 3.19235 0
M  V30 3068 C 288.271 0.874601 3.66098 0
M  V30 3069 C 287.418 1.28667 2.45642 0
M  V30 3070 H 290.369 1.1178 1.12654 0
M  V30 3071 H 290.39 0.487609 3.77363 0
M  V30 3072 H 289.902 2.21535 3.1866 0
M  V30 3073 H 288.003 -0.191793 3.72106 0
M  V30 3074 H 288.116 1.50028 4.55004 0
M  V30 3075 H 286.48 0.705109 2.44745 0
M  V30 3076 H 287.263 2.37625 2.47769 0
M  V30 3077 N 289.708 -1.40897 0.706093 0
M  V30 3078 C 290.638 -2.33418 0.0620085 0
M  V30 3079 C 291.619 -1.52385 -0.755827 0
M  V30 3080 O 292.804 -1.80886 -0.706674 0
M  V30 3081 C 289.934 -3.36293 -0.867445 0
M  V30 3082 C 288.888 -4.27716 -0.155932 0
M  V30 3083 C 288.214 -5.2105 -1.20046 0
M  V30 3084 C 289.514 -5.12944 0.984149 0
M  V30 3085 H 291.208 -2.87527 0.83477 0
M  V30 3086 H 288.754 -1.38249 0.402875 0
M  V30 3087 H 290.707 -3.99949 -1.32735 0
M  V30 3088 H 289.431 -2.80556 -1.67199 0
M  V30 3089 H 288.09 -3.65498 0.284047 0
M  V30 3090 H 287.738 -4.61624 -1.99781 0
M  V30 3091 H 287.438 -5.83056 -0.729328 0
M  V30 3092 H 288.962 -5.87584 -1.66066 0
M  V30 3093 H 290.376 -5.70109 0.604048 0
M  V30 3094 H 288.773 -5.83945 1.38304 0
M  V30 3095 H 289.843 -4.49485 1.81911 0
M  V30 3096 N 291.186 -0.45159 -1.50991 0
M  V30 3097 C 292.411 0.110667 -2.07105 0
M  V30 3098 C 292.836 1.3446 -1.31538 0
M  V30 3099 O 292.194 1.77743 -0.357365 0
M  V30 3100 C 292.242 0.397238 -3.58405 0
M  V30 3101 O 291.346 1.48124 -3.84881 0
M  V30 3102 H 290.687 -0.00439271 -0.663985 0
M  V30 3103 H 293.217 -0.637026 -1.9443 0
M  V30 3104 H 293.227 0.64351 -4.02893 0
M  V30 3105 H 291.902 -0.504553 -4.12828 0
M  V30 3106 H 290.479 1.22381 -3.52246 0
M  V30 3107 N 292.664 1.56529 -0.183458 0
M  V30 3108 C 293.889 2.02064 0.467428 0
M  V30 3109 C 294.314 1.06282 1.55196 0
M  V30 3110 O 293.672 0.0443565 1.81246 0
M  V30 3111 C 293.72 3.46122 1.01153 0
M  V30 3112 O 292.824 3.53437 2.12499 0
M  V30 3113 H 292.165 0.654726 0.110588 0
M  V30 3114 H 294.695 2.02521 -0.290917 0
M  V30 3115 H 294.705 3.85676 1.33108 0
M  V30 3116 H 293.38 4.15331 0.217533 0
M  V30 3117 H 291.957 3.2575 1.81497 0
M  V30 3118 N 294.142 -0.090211 1.57342 0
M  V30 3119 C 295.092 -1.11557 1.98844 0
M  V30 3120 C 296.076 -1.35503 0.867624 0
M  V30 3121 O 297.268 -1.36113 1.13148 0
M  V30 3122 C 294.397 -2.43446 2.42051 0
M  V30 3123 C 293.483 -2.22853 3.60828 0
M  V30 3124 N 293.874 -1.72141 4.75606 0
M  V30 3125 C 292.172 -2.53401 3.67021 0
M  V30 3126 C 292.873 -1.65932 5.57531 0
M  V30 3127 N 291.849 -2.11323 5.00843 0
M  V30 3128 H 295.651 -0.716499 2.85032 0
M  V30 3129 H 293.165 -0.297567 1.59651 0
M  V30 3130 H 295.162 -3.17644 2.70014 0
M  V30 3131 H 293.822 -2.84087 1.57241 0
M  V30 3132 H 294.833 -1.41268 4.98261 0
M  V30 3133 H 291.51 -2.97532 2.92884 0
M  V30 3134 H 292.9 -1.27733 6.59647 0
M  V30 3135 N 295.62 -1.53406 -0.361157 0
M  V30 3136 C 296.845 -1.74024 -1.12829 0
M  V30 3137 C 297.27 -0.470069 -1.82132 0
M  V30 3138 O 296.628 0.57619 -1.719 0
M  V30 3139 C 296.676 -2.90903 -2.13091 0
M  V30 3140 O 295.78 -2.59821 -3.20261 0
M  V30 3141 H 295.121 -0.577804 -0.327168 0
M  V30 3142 H 297.651 -2.00307 -0.41693 0
M  V30 3143 H 297.661 -3.17194 -2.56616 0
M  V30 3144 H 296.336 -3.83034 -1.62042 0
M  V30 3145 H 294.913 -2.44362 -2.81677 0
M  V30 3146 N 297.098 0.621204 -1.44841 0
M  V30 3147 C 298.375 1.38 -1.38619 0
M  V30 3148 C 298.755 2.11041 -0.0498935 0
M  V30 3149 O 298.103 2.06992 0.967816 0
M  V30 3150 C 298.313 2.33817 -2.59096 0
M  V30 3151 C 299.661 2.96844 -3.03593 0
M  V30 3152 O 300.685 2.44141 -2.59371 0
M  V30 3153 O 299.544 3.92476 -3.80296 0
M  V30 3154 H 296.638 0.61811 -0.549426 0
M  V30 3155 H 299.184 0.645429 -1.56947 0
M  V30 3156 H 297.956 1.79012 -3.47952 0
M  V30 3157 H 297.579 3.14676 -2.43032 0
M  V30 3158 N 298.576 1.31904 0.862503 0
M  V30 3159 C 299.526 1.16772 1.95827 0
M  V30 3160 C 300.51 0.0767098 1.60717 0
M  V30 3161 O 301.702 0.302407 1.74398 0
M  V30 3162 C 298.831 0.884858 3.317 0
M  V30 3163 C 297.917 2.0172 3.73055 0
M  V30 3164 N 298.308 3.265 3.86305 0
M  V30 3165 C 296.606 1.91861 4.02623 0
M  V30 3166 C 297.307 4.00616 4.2176 0
M  V30 3167 N 296.283 3.28847 4.32852 0
M  V30 3168 H 300.085 2.11382 2.04193 0
M  V30 3169 H 297.599 1.2357 1.05377 0
M  V30 3170 H 299.596 0.757419 4.09962 0
M  V30 3171 H 298.256 -0.0529448 3.24657 0
M  V30 3172 H 299.267 3.61529 3.70833 0
M  V30 3173 H 295.944 1.05593 4.03926 0
M  V30 3174 H 297.334 5.08182 4.39546 0
M  V30 3175 N 300.054 -1.07777 1.14986 0
M  V30 3176 C 300.987 -2.14228 0.786243 0
M  V30 3177 C 301.965 -1.60888 -0.235347 0
M  V30 3178 O 303.149 -1.88099 -0.122909 0
M  V30 3179 C 300.276 -3.38281 0.168433 0
M  V30 3180 C 299.322 -4.10387 1.16123 0
M  V30 3181 S 300.155 -4.62371 2.70135 0
M  V30 3182 C 301.311 -5.89704 2.09762 0
M  V30 3183 H 301.544 -2.44741 1.68787 0
M  V30 3184 H 299.077 -1.19984 0.971756 0
M  V30 3185 H 301.035 -4.10098 -0.181588 0
M  V30 3186 H 299.696 -3.05953 -0.710725 0
M  V30 3187 H 298.889 -4.99431 0.677086 0
M  V30 3188 H 298.491 -3.44513 1.45556 0
M  V30 3189 H 300.783 -6.61648 1.45701 0
M  V30 3190 H 301.726 -6.42824 2.96955 0
M  V30 3191 H 302.134 -5.4302 1.54239 0
M  V30 3192 N 301.532 -0.945985 -1.26051 0
M  V30 3193 C 302.76 -0.613025 -1.9761 0
M  V30 3194 C 303.175 0.813035 -1.70397 0
M  V30 3195 O 302.532 1.54274 -0.974979 0
M  V30 3196 C 302.583 -0.85159 -3.51326 0
M  V30 3197 O 302.304 -2.22157 -3.77595 0
M  V30 3198 C 303.805 -0.529831 -4.40122 0
M  V30 3199 H 301.025 -0.230593 -0.630133 0
M  V30 3200 H 303.569 -1.268 -1.60443 0
M  V30 3201 H 301.724 -0.243151 -3.86636 0
M  V30 3202 H 302.138 -2.2852 -4.721 0
M  V30 3203 H 303.612 -0.747348 -5.46917 0
M  V30 3204 H 304.089 0.535341 -4.35925 0
M  V30 3205 H 304.695 -1.11721 -4.10364 0
M  V30 3206 N 303.011 1.40521 -0.713556 0
M  V30 3207 C 304.258 2.00923 -0.25219 0
M  V30 3208 C 304.586 1.56571 1.15395 0
M  V30 3209 O 303.841 0.775874 1.79663 0
M  V30 3210 C 304.14 3.56317 -0.278 0
M  V30 3211 C 303.806 4.20246 -1.63415 0
M  V30 3212 C 302.468 4.37422 -2.00538 0
M  V30 3213 C 304.82 4.55923 -2.52554 0
M  V30 3214 C 302.148 4.87558 -3.2635 0
M  V30 3215 C 304.5 5.07458 -3.77716 0
M  V30 3216 C 303.164 5.22843 -4.14959 0
M  V30 3217 H 302.434 0.735231 -0.0922829 0
M  V30 3218 H 305.081 1.68161 -0.916188 0
M  V30 3219 H 303.386 3.88976 0.469567 0
M  V30 3220 H 305.083 4.00883 0.0967819 0
M  V30 3221 H 301.673 4.07263 -1.33546 0
M  V30 3222 H 305.857 4.42291 -2.25149 0
M  V30 3223 H 301.113 4.97654 -3.55176 0
M  V30 3224 H 305.287 5.34041 -4.4696 0
M  V30 3225 H 302.914 5.61454 -5.12516 0
M  V30 3226 N 304.489 0.459591 1.5075 0
M  V30 3227 C 305.419 -0.330644 2.31147 0
M  V30 3228 C 306.4 -1.00087 1.37538 0
M  V30 3229 O 307.585 -1.00025 1.66459 0
M  V30 3230 C 304.715 -1.41958 3.16962 0
M  V30 3231 C 303.669 -0.871608 4.19031 0
M  V30 3232 C 302.995 -2.05797 4.9351 0
M  V30 3233 C 304.295 0.109251 5.22186 0
M  V30 3234 H 305.989 0.340336 2.97459 0
M  V30 3235 H 303.535 0.165119 1.4305 0
M  V30 3236 H 305.488 -1.9798 3.71997 0
M  V30 3237 H 304.212 -2.11917 2.48513 0
M  V30 3238 H 302.871 -0.333442 3.6508 0
M  V30 3239 H 302.519 -2.74427 4.21544 0
M  V30 3240 H 302.219 -1.6976 5.62544 0
M  V30 3241 H 303.743 -2.62331 5.51375 0
M  V30 3242 H 305.157 -0.361405 5.7216 0
M  V30 3243 H 303.554 0.383316 5.98875 0
M  V30 3244 H 304.624 1.03887 4.73641 0
M  V30 3245 N 305.967 -1.56429 0.191757 0
M  V30 3246 C 306.899 -2.16154 -0.762245 0
M  V30 3247 C 307.912 -1.12247 -1.17917 0
M  V30 3248 O 309.101 -1.39353 -1.11548 0
M  V30 3249 C 306.201 -2.70606 -2.04024 0
M  V30 3250 C 305.374 -3.99381 -1.78364 0
M  V30 3251 C 304.433 -4.38692 -2.90578 0
M  V30 3252 O 303.459 -5.06179 -2.6033 0
M  V30 3253 N 304.661 -4.01922 -4.18854 0
M  V30 3254 H 307.426 -2.98643 -0.251526 0
M  V30 3255 H 304.987 -1.61897 0.00967373 0
M  V30 3256 H 306.979 -2.93891 -2.78227 0
M  V30 3257 H 305.549 -1.9259 -2.46227 0
M  V30 3258 H 304.769 -3.84262 -0.879581 0
M  V30 3259 H 306.057 -4.83445 -1.58614 0
M  V30 3260 H 305.455 -3.47631 -4.46283 0
M  V30 3261 H 304.012 -4.30165 -4.89695 0
M  V30 3262 N 307.445 0.0818655 -1.57387 0
M  V30 3263 C 308.861 0.436412 -1.53517 0
M  V30 3264 C 309.061 1.79758 -0.910459 0
M  V30 3265 O 308.117 2.47324 -0.508636 0
M  V30 3266 C 309.43 0.386734 -2.98203 0
M  V30 3267 C 310.978 0.467644 -3.09487 0
M  V30 3268 C 311.453 0.447978 -4.55804 0
M  V30 3269 N 312.944 0.508348 -4.60402 0
M  V30 3270 C 313.679 0.515184 -5.71081 0
M  V30 3271 N 313.175 0.477435 -6.91153 0
M  V30 3272 N 314.968 0.560988 -5.59294 0
M  V30 3273 H 307.119 -0.809546 -1.96367 0
M  V30 3274 H 309.382 -0.302733 -0.898363 0
M  V30 3275 H 309.088 -0.546539 -3.47427 0
M  V30 3276 H 308.962 1.20075 -3.57578 0
M  V30 3277 H 311.349 1.39134 -2.60242 0
M  V30 3278 H 311.43 -0.374753 -2.5304 0
M  V30 3279 H 311.074 -0.471826 -5.05704 0
M  V30 3280 H 311.004 1.30777 -5.10103 0
M  V30 3281 H 313.495 0.54218 -3.7399 0
M  V30 3282 H 313.808 0.486299 -7.71268 0
M  V30 3283 H 312.153 0.444278 -6.93579 0
M  V30 3284 H 315.344 0.5881 -4.64391 0
M  V30 3285 H 315.517 0.562846 -6.45551 0
M  V30 3286 N 308.923 1.53595 0.353017 0
M  V30 3287 C 310.169 1.70638 1.09593 0
M  V30 3288 C 310.502 0.463286 1.88593 0
M  V30 3289 O 309.777 -0.539597 1.86865 0
M  V30 3290 C 310.06 2.96406 2.04489 0
M  V30 3291 C 309.913 4.30901 1.29014 0
M  V30 3292 C 311.232 3.17812 3.0444 0
M  V30 3293 H 308.351 0.620913 0.397034 0
M  V30 3294 H 310.993 1.86254 0.375446 0
M  V30 3295 H 309.143 2.83223 2.65927 0
M  V30 3296 H 310.815 4.55917 0.702638 0
M  V30 3297 H 309.058 4.29741 0.592071 0
M  V30 3298 H 309.729 5.1506 1.98537 0
M  V30 3299 H 312.205 3.30263 2.53112 0
M  V30 3300 H 311.081 4.07223 3.6805 0
M  V30 3301 H 311.342 2.33669 3.75301 0
M  V30 3302 N 310.401 -0.613514 1.45168 0
M  V30 3303 C 311.348 -1.72456 1.53387 0
M  V30 3304 C 312.318 -1.6169 0.380191 0
M  V30 3305 O 313.503 -1.81356 0.592836 0
M  V30 3306 C 310.643 -3.10753 1.50088 0
M  V30 3307 C 309.756 -3.32368 2.75963 0
M  V30 3308 C 308.891 -4.60737 2.64376 0
M  V30 3309 C 307.93 -4.7559 3.85332 0
M  V30 3310 N 307.067 -5.95253 3.72315 0
M  V30 3311 H 311.907 -1.64768 2.48305 0
M  V30 3312 H 309.444 -0.803503 1.23216 0
M  V30 3313 H 311.402 -3.90758 1.46164 0
M  V30 3314 H 310.032 -3.17413 0.587243 0
M  V30 3315 H 309.084 -2.4618 2.89999 0
M  V30 3316 H 310.396 -3.39218 3.65695 0
M  V30 3317 H 309.55 -5.48928 2.58385 0
M  V30 3318 H 308.289 -4.56275 1.72233 0
M  V30 3319 H 307.294 -3.85824 3.91688 0
M  V30 3320 H 308.519 -4.81854 4.78533 0
M  V30 3321 H 306.465 -5.91847 2.82937 0
M  V30 3322 H 306.382 -6.03236 4.55677 0
M  V30 3323 H 307.65 -6.85958 3.70246 0
M  V30 3324 N 311.879 -1.3236 -0.855495 0
M  V30 3325 C 312.827 -1.2118 -1.9854 0
M  V30 3326 C 313.821 -0.116788 -1.68997 0
M  V30 3327 O 315.027 -0.279657 -1.77814 0
M  V30 3328 H 311.402 -0.375608 -0.651477 0
M  V30 3329 H 313.373 -2.16743 -2.05098 0
M  V30 3330 C 312.122 -0.950849 -3.34446 0
M  V30 3331 H 311.445 -1.78563 -3.57708 0
M  V30 3332 H 312.885 -0.912863 -4.14057 0
M  V30 3333 C 311.344 0.346404 -3.35114 0
M  V30 3334 O 311.874 1.35855 -3.7803 0
M  V30 3335 N 310.08 0.36808 -2.88259 0
M  V30 3336 H 309.627 -0.456102 -2.5353 0
M  V30 3337 H 309.585 1.23591 -2.89089 0
M  V30 3338 N 313.357 1.07166 -1.15556 0
M  V30 3339 C 314.29 2.13808 -0.797593 0
M  V30 3340 C 315.268 1.6101 0.226812 0
M  V30 3341 O 316.452 1.88161 0.112932 0
M  V30 3342 C 313.579 3.38187 -0.186371 0
M  V30 3343 C 312.625 4.09766 -1.18297 0
M  V30 3344 S 313.458 4.60932 -2.72584 0
M  V30 3345 C 314.614 5.88583 -2.12886 0
M  V30 3346 H 314.847 2.43843 -1.70083 0
M  V30 3347 H 312.38 1.19467 -0.978106 0
M  V30 3348 H 314.338 4.10189 0.159837 0
M  V30 3349 H 312.999 3.06326 0.694489 0
M  V30 3350 H 312.192 4.99065 -0.703562 0
M  V30 3351 H 311.794 3.43736 -1.47381 0
M  V30 3352 H 314.086 6.60866 -1.49208 0
M  V30 3353 H 315.029 6.41241 -3.0036 0
M  V30 3354 H 315.437 5.42194 -1.57116 0
M  V30 3355 N 314.835 0.952656 1.25548 0
M  V30 3356 C 315.765 0.489287 2.28316 0
M  V30 3357 C 316.746 -0.463359 1.63667 0
M  V30 3358 O 317.931 -0.36274 1.90782 0
M  V30 3359 C 315.061 -0.235603 3.465 0
M  V30 3360 C 314.015 0.631593 4.23314 0
M  V30 3361 C 313.341 -0.223923 5.34231 0
M  V30 3362 C 314.641 1.90871 4.86174 0
M  V30 3363 H 316.335 1.34822 2.67326 0
M  V30 3364 H 313.881 0.649728 1.28509 0
M  V30 3365 H 315.834 -0.570882 4.17515 0
M  V30 3366 H 314.558 -1.12877 3.06474 0
M  V30 3367 H 313.217 0.949929 3.54079 0
M  V30 3368 H 312.865 -1.11678 4.90446 0
M  V30 3369 H 312.565 0.35299 5.86539 0
M  V30 3370 H 314.089 -0.554214 6.0808 0
M  V30 3371 H 315.503 1.63997 5.49343 0
M  V30 3372 H 313.9 2.43112 5.4865 0
M  V30 3373 H 314.97 2.61304 4.08471 0
M  V30 3374 N 316.313 -1.40141 0.720998 0
M  V30 3375 C 317.562 -2.0002 0.259804 0
M  V30 3376 C 317.875 -1.57839 -1.15526 0
M  V30 3377 O 319.081 -2.10455 -1.71525 0
M  V30 3378 C 317.537 -3.57516 0.413566 0
M  V30 3379 C 317.145 -4.08667 1.83562 0
M  V30 3380 C 318.889 -4.24498 0.0134387 0
M  V30 3381 C 316.796 -5.58686 1.93968 0
M  V30 3382 H 315.726 -0.748195 0.0933806 0
M  V30 3383 H 318.377 -1.60313 0.892866 0
M  V30 3384 H 316.759 -3.9495 -0.288169 0
M  V30 3385 H 317.933 -3.82598 2.56817 0
M  V30 3386 H 316.248 -3.543 2.1877 0
M  V30 3387 H 318.845 -5.34654 0.0703954 0
M  V30 3388 H 319.188 -4.03375 -1.02927 0
M  V30 3389 H 319.721 -3.92188 0.665815 0
M  V30 3390 H 316.46 -5.8467 2.96379 0
M  V30 3391 H 315.98 -5.86602 1.25131 0
M  V30 3392 H 317.659 -6.23875 1.71431 0
M  V30 3393 N 317.792 -0.46758 -1.50504 0
M  V30 3394 C 318.755 0.317059 -2.26996 0
M  V30 3395 C 319.755 0.923513 -1.31635 0
M  V30 3396 O 320.945 0.793239 -1.55091 0
M  V30 3397 C 318.077 1.45134 -3.08462 0
M  V30 3398 H 319.27 -0.353723 -2.97807 0
M  V30 3399 H 316.823 -0.221545 -1.54722 0
M  V30 3400 H 317.558 2.15728 -2.4214 0
M  V30 3401 H 317.343 1.02232 -3.78538 0
M  V30 3402 H 318.833 2.00493 -3.66323 0
M  V30 3403 N 319.27 1.56325 -0.20005 0
M  V30 3404 C 320.517 1.97719 0.437411 0
M  V30 3405 C 320.845 1.08709 1.61284 0
M  V30 3406 O 320.1 0.127261 1.95286 0
M  V30 3407 C 320.399 3.4495 0.935103 0
M  V30 3408 C 320.065 4.5072 -0.12749 0
M  V30 3409 C 318.727 4.79368 -0.419451 0
M  V30 3410 C 321.079 5.14268 -0.847231 0
M  V30 3411 C 318.407 5.68854 -1.43604 0
M  V30 3412 C 320.759 6.04852 -1.85301 0
M  V30 3413 C 319.423 6.31855 -2.15211 0
M  V30 3414 H 318.693 0.723507 0.16006 0
M  V30 3415 H 321.34 1.89166 -0.298056 0
M  V30 3416 H 319.645 3.50599 1.74894 0
M  V30 3417 H 321.342 3.74337 1.43781 0
M  V30 3418 H 317.932 4.28458 0.11023 0
M  V30 3419 H 322.116 4.92222 -0.634901 0
M  V30 3420 H 317.372 5.88047 -1.67364 0
M  V30 3421 H 321.546 6.53152 -2.41591 0
M  V30 3422 H 319.173 7.00994 -2.94129 0
M  V30 3423 N 320.748 -0.0735177 1.57428 0
M  V30 3424 C 321.973 -0.789787 1.91774 0
M  V30 3425 C 322.398 -1.70413 0.796306 0
M  V30 3426 O 321.756 -1.79555 -0.250961 0
M  V30 3427 C 321.804 -1.5609 3.25067 0
M  V30 3428 O 320.908 -2.67144 3.14178 0
M  V30 3429 H 320.249 -0.215582 0.628029 0
M  V30 3430 H 322.779 -0.0422781 2.04556 0
M  V30 3431 H 322.789 -1.94052 3.58898 0
M  V30 3432 H 321.464 -0.890015 4.06265 0
M  V30 3433 H 320.041 -2.32052 2.91901 0
M  V30 3434 N 322.226 -1.5378 -0.344866 0
M  V30 3435 C 323.158 -1.77988 -1.44406 0
M  V30 3436 C 324.171 -0.661138 -1.48771 0
M  V30 3437 O 325.36 -0.937842 -1.51877 0
M  V30 3438 C 322.46 -1.86345 -2.8307 0
M  V30 3439 C 321.633 -3.16256 -3.0216 0
M  V30 3440 C 320.692 -3.15588 -4.21059 0
M  V30 3441 O 319.718 -3.89314 -4.15239 0
M  V30 3442 N 320.92 -2.37864 -5.29529 0
M  V30 3443 H 323.685 -2.72839 -1.24012 0
M  V30 3444 H 321.246 -1.52814 -0.534737 0
M  V30 3445 H 323.238 -1.83351 -3.60783 0
M  V30 3446 H 321.808 -0.986858 -2.96614 0
M  V30 3447 H 321.028 -3.32385 -2.11929 0
M  V30 3448 H 322.316 -4.0207 -3.11797 0
M  V30 3449 H 321.714 -1.77514 -5.37127 0
M  V30 3450 H 320.271 -2.40668 -6.05741 0
M  V30 3451 N 323.704 0.605807 -1.45491 0
M  V30 3452 C 324.652 1.73754 -1.54636 0
M  V30 3453 C 325.646 1.64207 -0.416219 0
M  V30 3454 O 326.852 1.69979 -0.592199 0
M  V30 3455 H 323.227 0.574073 -0.485741 0
M  V30 3456 H 325.198 1.63169 -2.49837 0
M  V30 3457 C 323.947 3.12135 -1.53189 0
M  V30 3458 H 323.27 3.20141 -2.39478 0
M  V30 3459 H 324.71 3.91147 -1.63645 0
M  V30 3460 C 323.169 3.35921 -0.256616 0
M  V30 3461 O 323.699 3.96194 0.662798 0
M  V30 3462 N 321.905 2.90204 -0.151751 0
M  V30 3463 H 321.452 2.41336 -0.90081 0
M  V30 3464 H 321.41 3.06492 0.700699 0
M  V30 3465 N 325.182 1.32811 0.848464 0
M  V30 3466 C 326.429 1.23724 1.60308 0
M  V30 3467 C 326.757 -0.1994 1.93475 0
M  V30 3468 O 326.012 -1.15406 1.5805 0
M  V30 3469 C 326.311 2.04831 2.92881 0
M  V30 3470 C 325.977 3.54125 2.79117 0
M  V30 3471 C 324.639 3.94829 2.7507 0
M  V30 3472 C 326.991 4.49036 2.64606 0
M  V30 3473 C 324.319 5.28675 2.544 0
M  V30 3474 C 326.671 5.83033 2.4547 0
M  V30 3475 C 325.335 6.22931 2.39819 0
M  V30 3476 H 324.605 0.452737 0.586609 0
M  V30 3477 H 327.252 1.64301 0.983743 0
M  V30 3478 H 325.557 1.57001 3.58968 0
M  V30 3479 H 327.254 1.95164 3.50303 0
M  V30 3480 H 323.844 3.21801 2.83094 0
M  V30 3481 H 328.028 4.18505 2.66772 0
M  V30 3482 H 323.284 5.58637 2.48465 0
M  V30 3483 H 327.458 6.56186 2.33222 0
M  V30 3484 H 325.085 7.26584 2.23562 0
M  V30 3485 N 326.66 -1.06551 1.16123 0
M  V30 3486 C 327.59 -2.15935 0.88851 0
M  V30 3487 C 328.571 -1.69306 -0.164135 0
M  V30 3488 O 329.756 -1.94193 -0.0167857 0
M  V30 3489 C 326.886 -3.45149 0.385942 0
M  V30 3490 C 325.84 -4.05271 1.3762 0
M  V30 3491 C 325.166 -5.29664 0.732137 0
M  V30 3492 C 326.466 -4.44355 2.74493 0
M  V30 3493 H 328.16 -2.39006 1.80323 0
M  V30 3494 H 325.706 -1.14866 0.868435 0
M  V30 3495 H 327.659 -4.21004 0.182647 0
M  V30 3496 H 326.383 -3.21689 -0.564274 0
M  V30 3497 H 325.042 -3.3147 1.56599 0
M  V30 3498 H 324.69 -5.02499 -0.224483 0
M  V30 3499 H 324.39 -5.70848 1.39307 0
M  V30 3500 H 325.914 -6.08218 0.538802 0
M  V30 3501 H 327.328 -5.11303 2.59311 0
M  V30 3502 H 325.725 -4.96515 3.37035 0
M  V30 3503 H 326.795 -3.55339 3.29943 0
M  V30 3504 N 328.138 -0.959301 -1.25041 0
M  V30 3505 C 329.378 -0.624343 -1.94631 0
M  V30 3506 C 329.742 0.82403 -1.73418 0
M  V30 3507 O 330.943 1.26881 -2.3697 0
M  V30 3508 C 329.214 -0.978805 -3.43736 0
M  V30 3509 S 330.773 -0.757127 -4.32219 0
M  V30 3510 H 327.591 -0.229327 -0.673001 0
M  V30 3511 H 330.193 -1.23447 -1.51595 0
M  V30 3512 H 328.897 -2.02997 -3.56679 0
M  V30 3513 H 328.428 -0.359117 -3.91757 0
M  V30 3514 H 330.443 0.369759 -4.9482 0
M  V30 3515 N 329.616 1.39756 -0.72842 0
M  V30 3516 C 330.893 1.94574 -0.200079 0
M  V30 3517 C 331.273 1.66569 1.29684 0
M  V30 3518 O 330.621 0.990326 2.05924 0
M  V30 3519 C 330.831 3.45004 -0.526608 0
M  V30 3520 C 332.179 4.21965 -0.472318 0
M  V30 3521 O 333.203 3.53173 -0.463413 0
M  V30 3522 O 332.062 5.44552 -0.461075 0
M  V30 3523 H 329.156 0.826289 -0.0342851 0
M  V30 3524 H 331.702 1.49293 -0.806829 0
M  V30 3525 H 330.474 3.58796 -1.56144 0
M  V30 3526 H 330.097 3.97449 0.109449 0
M  V30 3527 N 331.094 0.475555 1.50254 0
M  V30 3528 C 332.34 -0.0780073 2.0265 0
M  V30 3529 C 332.673 -1.38968 1.35652 0
M  V30 3530 O 331.948 -1.8839 0.483691 0
M  V30 3531 C 332.231 -0.257161 3.59181 0
M  V30 3532 C 332.084 1.07585 4.36744 0
M  V30 3533 C 333.403 -1.00965 4.28362 0
M  V30 3534 H 330.522 -0.0268758 0.73651 0
M  V30 3535 H 333.164 0.622015 1.7953 0
M  V30 3536 H 331.314 -0.853412 3.79011 0
M  V30 3537 H 332.986 1.70902 4.28474 0
M  V30 3538 H 331.229 1.6714 4.00308 0
M  V30 3539 H 331.9 0.904088 5.44546 0
M  V30 3540 H 334.376 -0.504214 4.13034 0
M  V30 3541 H 333.252 -1.10381 5.37687 0
M  V30 3542 H 333.513 -2.04731 3.91839 0
M  V30 3543 N 332.573 -1.56217 0.208337 0
M  V30 3544 C 333.819 -1.98242 -0.427552 0
M  V30 3545 C 334.152 -1.09554 -1.60348 0
M  V30 3546 O 333.427 -0.15035 -1.93918 0
M  V30 3547 C 333.71 -3.4931 -0.874907 0
M  V30 3548 C 333.563 -4.48773 0.303751 0
M  V30 3549 C 334.882 -4.04424 -1.73577 0
M  V30 3550 H 332.001 -0.720744 -0.153936 0
M  V30 3551 H 334.643 -1.87586 0.30192 0
M  V30 3552 H 332.793 -3.58522 -1.49648 0
M  V30 3553 H 334.465 -4.51586 0.941682 0
M  V30 3554 H 332.708 -4.23194 0.953375 0
M  V30 3555 H 333.379 -5.51976 -0.0519883 0
M  V30 3556 H 335.855 -3.98075 -1.21143 0
M  V30 3557 H 334.731 -5.1047 -2.01771 0
M  V30 3558 H 334.992 -3.50494 -2.69456 0
M  V30 3559 N 334.051 0.0651679 -1.57465 0
M  V30 3560 C 335.281 0.774683 -1.91526 0
M  V30 3561 C 335.689 1.71305 -0.803196 0
M  V30 3562 O 335.032 1.82231 0.231881 0
M  V30 3563 C 335.094 1.61645 -3.21109 0
M  V30 3564 C 334.758 0.846753 -4.49087 0
M  V30 3565 C 335.755 0.163024 -5.19644 0
M  V30 3566 C 333.44 0.811966 -4.95694 0
M  V30 3567 C 335.434 -0.54519 -6.35064 0
M  V30 3568 C 333.121 0.0999836 -6.11018 0
M  V30 3569 C 334.119 -0.577388 -6.80555 0
M  V30 3570 O 333.807 -1.27789 -7.93678 0
M  V30 3571 H 333.539 0.225031 -0.637446 0
M  V30 3572 H 336.093 0.0377134 -2.05365 0
M  V30 3573 H 334.323 2.39638 -3.03497 0
M  V30 3574 H 336.012 2.20525 -3.40769 0
M  V30 3575 H 336.778 0.181163 -4.84662 0
M  V30 3576 H 332.657 1.32867 -4.41438 0
M  V30 3577 H 336.201 -1.07446 -6.89276 0
M  V30 3578 H 332.098 0.0797945 -6.45451 0
M  V30 3579 H 332.866 -1.18784 -8.09835 0
M  V30 3580 N 335.529 1.53961 0.336706 0
M  V30 3581 C 336.754 1.75797 1.10046 0
M  V30 3582 C 337.179 0.498985 1.81361 0
M  V30 3583 O 336.537 -0.548769 1.72795 0
M  V30 3584 C 336.585 2.94257 2.08436 0
M  V30 3585 O 335.689 2.64883 3.16087 0
M  V30 3586 H 335.03 0.582936 0.317934 0
M  V30 3587 H 337.56 2.00945 0.38501 0
M  V30 3588 H 337.57 3.21237 2.51537 0
M  V30 3589 H 336.245 3.85564 1.55927 0
M  V30 3590 H 334.822 2.48812 2.77753 0
M  V30 3591 N 337.007 -0.598083 1.45811 0
M  V30 3592 C 338.418 -1.18011 1.44673 0
M  V30 3593 C 338.769 -1.95378 0.179364 0
M  V30 3594 O 337.894 -2.04124 -0.718509 0
M  V30 3595 C 338.489 -2.14677 2.62105 0
M  V30 3596 C 337.048 -2.68236 2.64057 0
M  V30 3597 C 336.195 -1.43816 2.37091 0
M  V30 3598 H 339.146 -0.38686 1.53913 0
M  V30 3599 H 339.167 -2.97878 2.36746 0
M  V30 3600 H 338.679 -1.5834 3.5433 0
M  V30 3601 H 336.78 -3.28486 1.75864 0
M  V30 3602 H 336.893 -3.12021 3.63566 0
M  V30 3603 H 335.257 -1.731 1.86838 0
M  V30 3604 H 336.04 -0.893333 3.31473 0
M  V30 3605 N 338.485 -1.33259 -0.841409 0
M  V30 3606 C 339.715 -1.2742 -1.62628 0
M  V30 3607 C 340.123 0.157604 -1.88542 0
M  V30 3608 O 339.466 1.10938 -1.46419 0
M  V30 3609 C 339.528 -1.97797 -3.00194 0
M  V30 3610 C 339.192 -3.47109 -2.97261 0
M  V30 3611 C 340.189 -4.42358 -2.73159 0
M  V30 3612 C 337.874 -3.89247 -3.17478 0
M  V30 3613 C 339.868 -5.77718 -2.69296 0
M  V30 3614 C 337.555 -5.24713 -3.13241 0
M  V30 3615 C 338.553 -6.1876 -2.89181 0
M  V30 3616 O 338.241 -7.51745 -2.84843 0
M  V30 3617 H 337.973 -0.440436 -0.512827 0
M  V30 3618 H 340.527 -1.76153 -1.05638 0
M  V30 3619 H 338.757 -1.43652 -3.59028 0
M  V30 3620 H 340.446 -1.8549 -3.61038 0
M  V30 3621 H 341.212 -4.11127 -2.57294 0
M  V30 3622 H 337.091 -3.16456 -3.35226 0
M  V30 3623 H 340.635 -6.51097 -2.50436 0
M  V30 3624 H 336.532 -5.55569 -3.28654 0
M  V30 3625 H 337.3 -7.61262 -3.00702 0
M  V30 3626 N 339.963 1.05934 -1.16686 0
M  V30 3627 C 340.926 2.11669 -0.879144 0
M  V30 3628 C 341.926 1.60294 0.127445 0
M  V30 3629 O 343.116 1.7389 -0.103865 0
M  V30 3630 C 340.248 3.39438 -0.315425 0
M  V30 3631 H 341.441 2.38626 -1.81653 0
M  V30 3632 H 338.994 1.22058 -0.976299 0
M  V30 3633 H 339.729 3.18132 0.629468 0
M  V30 3634 H 339.514 3.78034 -1.04079 0
M  V30 3635 H 341.004 4.17391 -0.132189 0
M  V30 3636 N 341.441 0.965919 1.2453 0
M  V30 3637 C 342.669 0.644385 1.96609 0
M  V30 3638 C 343.084 -0.785823 1.71669 0
M  V30 3639 O 342.441 -1.52703 0.999399 0
M  V30 3640 C 342.492 0.907375 3.49927 0
M  V30 3641 O 342.213 2.28136 3.74013 0
M  V30 3642 C 343.714 0.599784 4.39224 0
M  V30 3643 H 340.934 0.240588 0.626385 0
M  V30 3644 H 343.478 1.29337 1.58405 0
M  V30 3645 H 341.633 0.304631 3.862 0
M  V30 3646 H 342.047 2.36002 4.68405 0
M  V30 3647 H 343.521 0.834263 5.45659 0
M  V30 3648 H 343.998 -0.465921 4.36722 0
M  V30 3649 H 344.604 1.18235 4.08535 0
M  V30 3650 N 342.919 -1.39368 0.735821 0
M  V30 3651 C 343.849 -2.33234 0.111506 0
M  V30 3652 C 344.83 -1.53954 -0.723334 0
M  V30 3653 O 346.015 -1.82344 -0.668147 0
M  V30 3654 C 343.145 -3.38057 -0.795917 0
M  V30 3655 C 342.099 -4.2795 -0.065172 0
M  V30 3656 C 341.425 -5.23479 -1.08967 0
M  V30 3657 C 342.725 -5.10741 1.09273 0
M  V30 3658 H 344.419 -2.85692 0.895571 0
M  V30 3659 H 341.965 -1.37364 0.432109 0
M  V30 3660 H 343.918 -4.02675 -1.24221 0
M  V30 3661 H 342.642 -2.8404 -1.61211 0
M  V30 3662 H 341.301 -3.64813 0.361511 0
M  V30 3663 H 340.949 -4.65758 -1.89944 0
M  V30 3664 H 340.649 -5.84472 -0.605489 0
M  V30 3665 H 342.173 -5.90974 -1.53565 0
M  V30 3666 H 343.587 -5.68699 0.724841 0
M  V30 3667 H 341.984 -5.8088 1.50659 0
M  V30 3668 H 343.054 -4.45525 1.91404 0
M  V30 3669 N 344.397 -0.483516 -1.5 0
M  V30 3670 C 345.36 0.292965 -2.2732 0
M  V30 3671 C 346.36 0.909499 -1.32608 0
M  V30 3672 O 347.55 0.776745 -1.55924 0
M  V30 3673 C 344.682 1.41854 -3.09984 0
M  V30 3674 H 345.875 -0.385289 -2.97415 0
M  V30 3675 H 343.428 -0.237942 -1.54478 0
M  V30 3676 H 344.163 2.13148 -2.44414 0
M  V30 3677 H 343.948 0.982114 -3.79601 0
M  V30 3678 H 345.438 1.96597 -3.68429 0
M  V30 3679 N 345.875 1.56104 -0.216619 0
M  V30 3680 C 347.1 2.0301 0.424462 0
M  V30 3681 C 347.525 1.0955 1.52907 0
M  V30 3682 O 346.883 0.0827914 1.81111 0
M  V30 3683 C 346.931 3.4819 0.937883 0
M  V30 3684 O 346.035 3.57865 2.04955 0
M  V30 3685 H 345.376 0.656925 0.0966755 0
M  V30 3686 H 347.906 2.01859 -0.33381 0
M  V30 3687 H 347.916 3.88413 1.24897 0
M  V30 3688 H 346.591 4.15699 0.129387 0
M  V30 3689 H 345.168 3.29527 1.74546 0
M  V30 3690 N 347.353 -0.0568162 1.57498 0
M  V30 3691 C 348.263 -1.08346 2.08083 0
M  V30 3692 C 349.279 -1.41439 1.01346 0
M  V30 3693 O 350.455 -1.51316 1.32912 0
M  V30 3694 C 347.52 -2.37352 2.52715 0
M  V30 3695 C 346.581 -2.11093 3.73816 0
M  V30 3696 C 345.814 -3.33949 4.1631 0
M  V30 3697 O 346.037 -4.43622 3.58547 0
M  V30 3698 O 344.971 -3.21279 5.08983 0
M  V30 3699 H 348.797 -0.683667 2.95905 0
M  V30 3700 H 346.382 -0.271965 1.46904 0
M  V30 3701 H 348.264 -3.13246 2.81877 0
M  V30 3702 H 346.939 -2.76681 1.68016 0
M  V30 3703 H 345.846 -1.32856 3.49714 0
M  V30 3704 H 347.179 -1.76637 4.59413 0
M  V30 3705 N 348.832 -1.54138 -0.328536 0
M  V30 3706 C 350.079 -1.72105 -1.06706 0
M  V30 3707 C 350.407 -0.492111 -1.88171 0
M  V30 3708 O 349.662 0.526153 -1.88494 0
M  V30 3709 C 349.961 -2.9457 -2.02393 0
M  V30 3710 C 349.627 -4.29544 -1.37122 0
M  V30 3711 C 348.289 -4.6624 -1.19052 0
M  V30 3712 C 350.641 -5.1333 -0.902331 0
M  V30 3713 C 347.969 -5.84325 -0.527331 0
M  V30 3714 C 350.321 -6.32094 -0.252988 0
M  V30 3715 C 348.985 -6.67473 -0.0600901 0
M  V30 3716 H 348.255 -0.629775 -0.390466 0
M  V30 3717 H 350.902 -1.88372 -0.34473 0
M  V30 3718 H 349.207 -2.72969 -2.81061 0
M  V30 3719 H 350.904 -3.05665 -2.59557 0
M  V30 3720 H 347.494 -4.0067 -1.52188 0
M  V30 3721 H 351.678 -4.855 -1.02974 0
M  V30 3722 H 346.934 -6.103 -0.366634 0
M  V30 3723 H 351.108 -6.96299 0.118366 0
M  V30 3724 H 348.735 -7.58832 0.455828 0
M  V30 3725 N 350.31 0.590341 -1.46126 0
M  V30 3726 C 351.24 1.71032 -1.58966 0
M  V30 3727 C 352.221 1.64302 -0.440335 0
M  V30 3728 O 353.406 1.82436 -0.665634 0
M  V30 3729 C 350.536 3.09665 -1.57241 0
M  V30 3730 C 349.49 3.31221 -2.71066 0
M  V30 3731 C 348.816 4.70303 -2.54399 0
M  V30 3732 C 350.116 3.19796 -4.1295 0
M  V30 3733 H 351.81 1.60543 -2.52718 0
M  V30 3734 H 349.356 0.770933 -1.21625 0
M  V30 3735 H 351.309 3.87831 -1.64819 0
M  V30 3736 H 350.033 3.21036 -0.600289 0
M  V30 3737 H 348.692 2.55452 -2.62944 0
M  V30 3738 H 348.34 4.78429 -1.55288 0
M  V30 3739 H 348.04 4.85679 -3.30741 0
M  V30 3740 H 349.564 5.50647 -2.63857 0
M  V30 3741 H 350.978 3.87815 -4.22223 0
M  V30 3742 H 349.375 3.46696 -4.89818 0
M  V30 3743 H 350.445 2.16983 -4.33643 0
M  V30 3744 N 351.788 1.33704 0.83433 0
M  V30 3745 C 352.72 1.20172 1.9517 0
M  V30 3746 C 353.733 0.131572 1.62267 0
M  V30 3747 O 354.922 0.382406 1.74356 0
M  V30 3748 C 352.022 0.821716 3.28787 0
M  V30 3749 C 351.195 1.98446 3.89792 0
M  V30 3750 C 350.254 1.58469 5.01771 0
M  V30 3751 O 349.28 2.29968 5.20676 0
M  V30 3752 N 350.482 0.492291 5.78409 0
M  V30 3753 H 353.247 2.16429 2.07313 0
M  V30 3754 H 350.808 1.26509 1.0103 0
M  V30 3755 H 352.8 0.536291 4.01131 0
M  V30 3756 H 351.37 -0.0503058 3.1256 0
M  V30 3757 H 350.59 2.43526 3.09982 0
M  V30 3758 H 351.878 2.76236 4.27283 0
M  V30 3759 H 351.276 -0.102349 5.65607 0
M  V30 3760 H 349.833 0.266555 6.51255 0
M  V30 3761 N 353.266 -1.05314 1.17247 0
M  V30 3762 C 354.682 -1.30452 0.919473 0
M  V30 3763 C 354.882 -1.9703 -0.42209 0
M  V30 3764 O 353.938 -2.24311 -1.15935 0
M  V30 3765 C 355.251 -2.17551 2.07586 0
M  V30 3766 C 356.799 -2.30937 2.11275 0
M  V30 3767 C 357.274 -3.21396 3.26296 0
M  V30 3768 N 358.765 -3.28981 3.26076 0
M  V30 3769 C 359.5 -3.99095 4.11716 0
M  V30 3770 N 358.996 -4.71648 5.07465 0
M  V30 3771 N 360.789 -3.95247 3.9967 0
M  V30 3772 H 352.94 -0.604988 2.03602 0
M  V30 3773 H 355.203 -0.329368 0.888944 0
M  V30 3774 H 354.909 -1.75921 3.0454 0
M  V30 3775 H 354.783 -3.18182 2.02584 0
M  V30 3776 H 357.17 -2.71809 1.14907 0
M  V30 3777 H 357.251 -1.2994 2.20339 0
M  V30 3778 H 356.895 -2.81238 4.22927 0
M  V30 3779 H 356.825 -4.22395 3.14467 0
M  V30 3780 H 359.316 -2.77286 2.5675 0
M  V30 3781 H 359.629 -5.22705 5.6921 0
M  V30 3782 H 357.974 -4.70594 5.11435 0
M  V30 3783 H 361.165 -3.37691 3.24164 0
M  V30 3784 H 361.338 -4.4962 4.66632 0
M  V30 3785 N 354.744 -0.972509 -1.24016 0
M  V30 3786 C 355.654 -0.5143 -2.28893 0
M  V30 3787 C 356.67 0.427078 -1.68677 0
M  V30 3788 O 357.846 0.298939 -1.99169 0
M  V30 3789 C 354.911 0.183598 -3.46214 0
M  V30 3790 C 353.972 -0.798202 -4.21814 0
M  V30 3791 C 353.205 -0.133514 -5.33533 0
M  V30 3792 O 353.428 1.07714 -5.60137 0
M  V30 3793 O 352.362 -0.828103 -5.96176 0
M  V30 3794 H 356.188 -1.38629 -2.70214 0
M  V30 3795 H 353.773 -0.739769 -1.29799 0
M  V30 3796 H 355.655 0.575433 -4.17453 0
M  V30 3797 H 354.33 1.03048 -3.0686 0
M  V30 3798 H 353.237 -1.24059 -3.52931 0
M  V30 3799 H 354.57 -1.61364 -4.64997 0
M  V30 3800 N 356.222 1.38976 -0.743202 0
M  V30 3801 C 357.468 2.0064 -0.295189 0
M  V30 3802 C 357.801 1.5885 1.11716 0
M  V30 3803 O 357.076 0.821181 1.76315 0
M  V30 3804 C 357.359 3.578 -0.406318 0
M  V30 3805 C 357.212 4.09586 -1.85903 0
M  V30 3806 C 358.531 4.39616 0.206439 0
M  V30 3807 H 355.65 0.728935 -0.108733 0
M  V30 3808 H 358.292 1.65067 -0.940897 0
M  V30 3809 H 356.442 3.88235 0.143419 0
M  V30 3810 H 358.114 3.89837 -2.46627 0
M  V30 3811 H 356.357 3.6284 -2.3776 0
M  V30 3812 H 357.028 5.18708 -1.888 0
M  V30 3813 H 359.504 4.15273 -0.262283 0
M  V30 3814 H 358.38 5.48812 0.0983819 0
M  V30 3815 H 358.641 4.22754 1.2935 0
M  V30 3816 N 357.7 0.491464 1.49741 0
M  V30 3817 C 358.928 -0.0535151 2.06831 0
M  V30 3818 C 359.343 -1.31683 1.35296 0
M  V30 3819 O 358.7 -1.77402 0.42836 0
M  V30 3820 C 358.751 -0.320835 3.60073 0
M  V30 3821 O 358.472 0.892394 4.28915 0
M  V30 3822 C 359.973 -0.910519 4.33848 0
M  V30 3823 H 357.193 0.0161909 0.670805 0
M  V30 3824 H 359.737 0.68609 1.92647 0
M  V30 3825 H 357.892 -1.0104 3.73991 0
M  V30 3826 H 358.306 0.649401 5.20464 0
M  V30 3827 H 359.78 -1.04721 5.41976 0
M  V30 3828 H 360.257 -1.90589 3.95692 0
M  V30 3829 H 360.863 -0.258712 4.24512 0
M  V30 3830 N 359.178 -1.55987 0.224894 0
M  V30 3831 C 360.424 -1.98684 -0.406502 0
M  V30 3832 C 360.757 -1.11248 -1.59177 0
M  V30 3833 O 360.032 -0.170909 -1.93748 0
M  V30 3834 C 360.315 -3.50218 -0.837808 0
M  V30 3835 C 360.168 -4.48426 0.351332 0
M  V30 3836 C 361.487 -4.06243 -1.69278 0
M  V30 3837 H 358.606 -0.722337 -0.146283 0
M  V30 3838 H 361.248 -1.87255 0.321799 0
M  V30 3839 H 359.398 -3.60089 -1.45837 0
M  V30 3840 H 361.07 -4.50562 0.989526 0
M  V30 3841 H 359.313 -4.22159 0.998207 0
M  V30 3842 H 359.984 -5.52 0.00655905 0
M  V30 3843 H 362.46 -3.99337 -1.16914 0
M  V30 3844 H 361.336 -5.12581 -1.96346 0
M  V30 3845 H 361.597 -3.53332 -2.65723 0
M  V30 3846 N 360.656 0.0484629 -1.57525 0
M  V30 3847 C 361.588 1.08222 -2.02041 0
M  V30 3848 C 362.601 1.33621 -0.930012 0
M  V30 3849 O 363.79 1.3145 -1.20761 0
M  V30 3850 C 360.89 2.42818 -2.36416 0
M  V30 3851 C 360.063 2.37049 -3.67596 0
M  V30 3852 C 359.122 3.53937 -3.89378 0
M  V30 3853 O 358.148 3.34308 -4.60681 0
M  V30 3854 N 359.35 4.75126 -3.3352 0
M  V30 3855 H 362.115 0.702946 -2.9134 0
M  V30 3856 H 359.676 0.236745 -1.6016 0
M  V30 3857 H 361.668 3.197 -2.48141 0
M  V30 3858 H 360.238 2.72661 -1.52888 0
M  V30 3859 H 359.458 1.45395 -3.66407 0
M  V30 3860 H 360.746 2.30318 -4.53686 0
M  V30 3861 H 360.144 4.93976 -2.75688 0
M  V30 3862 H 358.701 5.49439 -3.50656 0
M  V30 3863 N 362.134 1.5431 0.320358 0
M  V30 3864 C 363.411 1.63322 1.07635 0
M  V30 3865 C 363.791 0.46912 2.05821 0
M  V30 3866 O 363.139 -0.536274 2.22118 0
M  V30 3867 C 363.349 3.00465 1.77544 0
M  V30 3868 C 364.697 3.56621 2.30449 0
M  V30 3869 O 365.721 3.02791 1.87606 0
M  V30 3870 O 364.58 4.5083 3.08892 0
M  V30 3871 H 361.674 0.661502 0.496331 0
M  V30 3872 H 364.22 1.66656 0.319992 0
M  V30 3873 H 362.992 3.76629 1.06143 0
M  V30 3874 H 362.615 3.00824 2.59982 0
M  V30 3875 N 363.613 -0.582584 1.46437 0
M  V30 3876 C 364.543 -1.70187 1.59871 0
M  V30 3877 C 365.524 -1.64066 0.449042 0
M  V30 3878 O 366.709 -1.82081 0.6753 0
M  V30 3879 C 363.839 -3.08827 1.58881 0
M  V30 3880 C 362.793 -3.29779 2.72819 0
M  V30 3881 C 362.119 -4.68947 2.5689 0
M  V30 3882 C 363.419 -3.17601 4.1464 0
M  V30 3883 H 365.113 -1.592 2.53566 0
M  V30 3884 H 362.659 -0.764472 1.22032 0
M  V30 3885 H 364.612 -3.86951 1.66873 0
M  V30 3886 H 363.336 -3.20713 0.617306 0
M  V30 3887 H 361.995 -2.54054 2.64296 0
M  V30 3888 H 361.643 -4.77599 1.57823 0
M  V30 3889 H 361.343 -4.83919 3.33312 0
M  V30 3890 H 362.867 -5.4924 2.66773 0
M  V30 3891 H 364.281 -3.8557 4.24274 0
M  V30 3892 H 362.678 -3.44094 4.9165 0
M  V30 3893 H 363.748 -2.14681 4.34788 0
M  V30 3894 N 365.091 -1.34144 -0.827227 0
M  V30 3895 C 366.021 -1.28005 -1.95287 0
M  V30 3896 C 367.002 -0.158321 -1.69362 0
M  V30 3897 O 368.187 -0.349987 -1.9102 0
M  V30 3898 C 365.317 -1.03036 -3.31664 0
M  V30 3899 C 364.271 -2.11628 -3.72019 0
M  V30 3900 C 363.597 -1.71854 -5.0633 0
M  V30 3901 C 364.897 -3.53417 -3.8457 0
M  V30 3902 H 366.591 -2.22187 -2.00682 0
M  V30 3903 H 364.137 -1.0696 -0.964135 0
M  V30 3904 H 366.09 -0.973863 -4.09993 0
M  V30 3905 H 364.814 -0.0529391 -3.26557 0
M  V30 3906 H 363.473 -2.16339 -2.95961 0
M  V30 3907 H 363.121 -0.727841 -4.97706 0
M  V30 3908 H 362.821 -2.44531 -5.34302 0
M  V30 3909 H 364.345 -1.67692 -5.87122 0
M  V30 3910 H 365.759 -3.51142 -4.5318 0
M  V30 3911 H 364.156 -4.24679 -4.2399 0
M  V30 3912 H 365.226 -3.91072 -2.86689 0
M  V30 3913 N 366.569 1.04691 -1.17803 0
M  V30 3914 C 367.794 1.81984 -0.994813 0
M  V30 3915 C 368.219 1.82586 0.452112 0
M  V30 3916 O 367.577 1.23854 1.324 0
M  V30 3917 C 367.625 3.2575 -1.54659 0
M  V30 3918 O 366.729 4.05267 -0.763728 0
M  V30 3919 H 366.07 0.562483 -0.352857 0
M  V30 3920 H 368.6 1.3189 -1.56417 0
M  V30 3921 H 368.61 3.76541 -1.57102 0
M  V30 3922 H 367.285 3.24627 -2.59981 0
M  V30 3923 H 365.862 3.63972 -0.811108 0
M  V30 3924 N 368.047 0.979072 1.23499 0
M  V30 3925 C 369.272 0.664845 1.96455 0
M  V30 3926 C 369.697 -0.761287 1.72006 0
M  V30 3927 O 369.055 -1.51837 0.990713 0
M  V30 3928 C 369.103 0.959479 3.47601 0
M  V30 3929 O 368.207 0.0508168 4.12369 0
M  V30 3930 H 367.548 0.250185 0.615064 0
M  V30 3931 H 370.078 1.31231 1.5697 0
M  V30 3932 H 370.088 0.895642 3.98048 0
M  V30 3933 H 368.763 1.99876 3.64723 0
M  V30 3934 H 367.34 0.16895 3.72517 0
M  V30 3935 N 369.525 -1.3858 0.750561 0
M  V30 3936 C 370.488 -2.28836 0.129152 0
M  V30 3937 C 371.488 -1.47045 -0.650714 0
M  V30 3938 O 372.678 -1.6753 -0.477428 0
M  V30 3939 C 369.81 -3.30751 -0.825622 0
M  V30 3940 H 371.003 -2.85294 0.924516 0
M  V30 3941 H 368.556 -1.47489 0.517376 0
M  V30 3942 H 369.291 -2.79378 -1.64677 0
M  V30 3943 H 369.076 -3.91177 -0.268852 0
M  V30 3944 H 370.566 -3.98249 -1.2565 0
M  V30 3945 N 371.003 -0.499398 -1.49478 0
M  V30 3946 C 372.228 0.044722 -2.07352 0
M  V30 3947 C 372.653 1.30207 -1.35749 0
M  V30 3948 O 372.011 1.76516 -0.413732 0
M  V30 3949 C 372.059 0.283013 -3.59488 0
M  V30 3950 O 371.163 1.35804 -3.89398 0
M  V30 3951 H 370.504 -0.0255147 -0.66351 0
M  V30 3952 H 373.034 -0.698561 -1.92305 0
M  V30 3953 H 373.044 0.515007 -4.04737 0
M  V30 3954 H 371.719 -0.635636 -4.11014 0
M  V30 3955 H 370.296 1.11113 -3.55961 0
M  V30 3956 N 372.481 1.55866 -0.233164 0
M  V30 3957 C 373.727 1.98897 0.395959 0
M  V30 3958 C 374.06 1.12091 1.58585 0
M  V30 3959 O 373.335 0.181182 1.93654 0
M  V30 3960 C 373.618 3.50658 0.819224 0
M  V30 3961 C 373.471 4.48233 -0.375109 0
M  V30 3962 C 374.79 4.07135 1.67121 0
M  V30 3963 H 371.909 0.723102 0.142451 0
M  V30 3964 H 374.551 1.87082 -0.331725 0
M  V30 3965 H 372.701 3.60857 1.43925 0
M  V30 3966 H 374.373 4.50031 -1.01341 0
M  V30 3967 H 372.616 4.21624 -1.02058 0
M  V30 3968 H 373.287 5.51988 -0.0358328 0
M  V30 3969 H 375.763 3.99952 1.14795 0
M  V30 3970 H 374.639 5.13615 1.93625 0
M  V30 3971 H 374.9 3.54736 2.63846 0
M  V30 3972 N 373.959 -0.0401083 1.57549 0
M  V30 3973 C 375.205 -0.728793 1.89895 0
M  V30 3974 C 375.56 -1.73551 0.830535 0
M  V30 3975 O 374.853 -1.90914 -0.162007 0
M  V30 3976 C 375.047 -1.44902 3.26708 0
M  V30 3977 C 374.876 -0.513568 4.46758 0
M  V30 3978 C 373.646 -0.138698 5.0511 0
M  V30 3979 C 375.844 0.203341 5.13898 0
M  V30 3980 N 373.826 0.799159 6.08676 0
M  V30 3981 C 375.197 0.997246 6.11927 0
M  V30 3982 C 377.252 0.271459 4.97159 0
M  V30 3983 C 375.955 1.85299 6.95023 0
M  V30 3984 C 377.981 1.11429 5.80808 0
M  V30 3985 C 377.343 1.89615 6.78399 0
M  V30 3986 H 373.442 -0.241125 0.743897 0
M  V30 3987 H 376.026 0.0108016 1.94697 0
M  V30 3988 H 374.197 -2.15914 3.22856 0
M  V30 3989 H 375.929 -2.08921 3.46603 0
M  V30 3990 H 372.684 -0.498496 4.70969 0
M  V30 3991 H 373.108 1.26227 6.65128 0
M  V30 3992 H 377.75 -0.318709 4.21597 0
M  V30 3993 H 375.468 2.454 7.69938 0
M  V30 3994 H 379.054 1.17038 5.69906 0
M  V30 3995 H 377.934 2.53779 7.42001 0
M  V30 3996 N 375.437 -1.54477 -0.31217 0
M  V30 3997 C 376.367 -1.87652 -1.38957 0
M  V30 3998 C 377.348 -0.734358 -1.53431 0
M  V30 3999 O 378.533 -0.98911 -1.67123 0
M  V30 4000 C 375.663 -2.11396 -2.75552 0
M  V30 4001 C 374.617 -3.27243 -2.75855 0
M  V30 4002 C 373.943 -3.36382 -4.15633 0
M  V30 4003 C 375.243 -4.64622 -2.38587 0
M  V30 4004 H 376.937 -2.77887 -1.11442 0
M  V30 4005 H 374.483 -1.33707 -0.534655 0
M  V30 4006 H 376.436 -2.33189 -3.51 0
M  V30 4007 H 375.16 -1.17921 -3.04569 0
M  V30 4008 H 373.819 -3.05356 -2.02863 0
M  V30 4009 H 373.467 -2.40445 -4.41809 0
M  V30 4010 H 373.167 -4.14249 -4.1674 0
M  V30 4011 H 374.691 -3.60422 -4.92877 0
M  V30 4012 H 376.105 -4.86219 -3.03749 0
M  V30 4013 H 374.502 -5.45121 -2.50925 0
M  V30 4014 H 375.572 -4.66097 -1.33723 0
M  V30 4015 N 376.915 0.57481 -1.46744 0
M  V30 4016 C 378.162 1.33272 -1.52462 0
M  V30 4017 C 378.49 1.93669 -0.179572 0
M  V30 4018 O 377.745 1.7743 0.825664 0
M  V30 4019 C 378.044 2.476 -2.57738 0
M  V30 4020 C 377.71 2.05146 -4.01529 0
M  V30 4021 C 376.372 1.93284 -4.40676 0
M  V30 4022 C 378.724 1.72506 -4.91824 0
M  V30 4023 C 376.052 1.47049 -5.67973 0
M  V30 4024 C 378.404 1.27748 -6.19567 0
M  V30 4025 C 377.068 1.14468 -6.57612 0
M  V30 4026 H 376.338 0.487678 -0.557899 0
M  V30 4027 H 378.985 0.646456 -1.80259 0
M  V30 4028 H 377.29 3.21708 -2.23632 0
M  V30 4029 H 378.987 3.05807 -2.5939 0
M  V30 4030 H 375.577 2.15316 -3.7059 0
M  V30 4031 H 379.761 1.80552 -4.62293 0
M  V30 4032 H 375.017 1.35417 -5.96215 0
M  V30 4033 H 379.191 1.01547 -6.88957 0
M  V30 4034 H 376.818 0.78419 -7.56145 0
M  V30 4035 N 378.394 1.34581 0.820102 0
M  V30 4036 C 379.81 1.14325 1.11364 0
M  V30 4037 C 380.01 -0.0533648 2.01429 0
M  V30 4038 O 379.066 -0.728044 2.41776 0
M  V30 4039 C 380.379 2.43983 1.75764 0
M  V30 4040 C 381.927 2.50065 1.88246 0
M  V30 4041 C 382.402 3.79732 2.56061 0
M  V30 4042 N 383.893 3.80908 2.63558 0
M  V30 4043 C 384.628 4.77961 3.16766 0
M  V30 4044 N 384.124 5.85397 3.70517 0
M  V30 4045 N 385.917 4.65413 3.15194 0
M  V30 4046 H 378.068 2.11246 0.221096 0
M  V30 4047 H 380.331 0.934289 0.160649 0
M  V30 4048 H 380.037 3.31651 1.1705 0
M  V30 4049 H 379.911 2.57531 2.75604 0
M  V30 4050 H 382.298 1.62834 2.46108 0
M  V30 4051 H 382.379 2.40442 0.873006 0
M  V30 4052 H 382.023 4.67354 1.98853 0
M  V30 4053 H 381.953 3.86639 3.57516 0
M  V30 4054 H 384.444 3.03274 2.25463 0
M  V30 4055 H 384.757 6.55463 4.09376 0
M  V30 4056 H 383.102 5.89107 3.68752 0
M  V30 4057 H 386.293 3.80627 2.72471 0
M  V30 4058 H 386.466 5.41216 3.56356 0
M  V30 4059 N 379.872 -1.04064 1.18357 0
M  V30 4060 C 381.097 -1.81454 1.00445 0
M  V30 4061 C 381.522 -1.82823 -0.442423 0
M  V30 4062 O 380.88 -1.24555 -1.31741 0
M  V30 4063 C 380.928 -3.24925 1.56384 0
M  V30 4064 O 380.032 -4.04856 0.785209 0
M  V30 4065 H 379.373 -0.560604 0.355835 0
M  V30 4066 H 381.903 -1.31059 1.57114 0
M  V30 4067 H 381.913 -3.75702 1.59097 0
M  V30 4068 H 380.588 -3.23244 2.61699 0
M  V30 4069 H 379.165 -3.63537 0.830399 0
M  V30 4070 N 381.35 -0.985608 -1.22978 0
M  V30 4071 C 382.627 -0.573599 -1.87001 0
M  V30 4072 C 383.007 0.949213 -1.88555 0
M  V30 4073 O 382.355 1.82811 -1.37086 0
M  V30 4074 C 382.565 -1.18564 -3.28243 0
M  V30 4075 C 383.913 -1.28163 -4.04796 0
M  V30 4076 O 384.937 -1.13949 -3.37482 0
M  V30 4077 O 383.796 -1.50832 -5.25273 0
M  V30 4078 H 380.89 -0.193868 -0.803955 0
M  V30 4079 H 383.436 -1.08102 -1.30813 0
M  V30 4080 H 382.208 -2.22758 -3.21706 0
M  V30 4081 H 381.831 -0.663363 -3.92027 0
M  V30 4082 N 382.828 1.3818 -0.7579 0
M  V30 4083 C 384.075 2.00019 -0.315985 0
M  V30 4084 C 384.403 1.60163 1.10355 0
M  V30 4085 O 383.658 0.83264 1.77103 0
M  V30 4086 C 383.957 3.55252 -0.391218 0
M  V30 4087 C 383.623 4.14834 -1.76702 0
M  V30 4088 C 382.285 4.30821 -2.14353 0
M  V30 4089 C 384.637 4.47658 -2.66931 0
M  V30 4090 C 381.965 4.76928 -3.41696 0
M  V30 4091 C 384.317 4.95184 -3.93669 0
M  V30 4092 C 382.981 5.09377 -4.31383 0
M  V30 4093 H 382.251 0.731923 -0.115627 0
M  V30 4094 H 384.898 1.65161 -0.969223 0
M  V30 4095 H 383.203 3.90273 0.34558 0
M  V30 4096 H 384.9 4.00988 -0.030805 0
M  V30 4097 H 381.49 4.02808 -1.46435 0
M  V30 4098 H 385.674 4.34904 -2.39106 0
M  V30 4099 H 380.93 4.86103 -3.70829 0
M  V30 4100 H 385.104 5.19551 -4.63724 0
M  V30 4101 H 382.731 5.44865 -5.30119 0
M  V30 4102 N 384.306 0.507319 1.49211 0
M  V30 4103 C 385.552 -0.0350047 2.0277 0
M  V30 4104 C 385.885 -1.3606 1.38569 0
M  V30 4105 O 385.16 -1.87321 0.523542 0
M  V30 4106 C 385.443 -0.180916 3.59645 0
M  V30 4107 C 385.296 1.16825 4.34364 0
M  V30 4108 C 386.615 -0.918558 4.30407 0
M  V30 4109 H 383.734 -0.0112473 0.736914 0
M  V30 4110 H 386.376 0.659956 1.7817 0
M  V30 4111 H 384.526 -0.772826 3.80736 0
M  V30 4112 H 386.198 1.79952 4.24753 0
M  V30 4113 H 384.441 1.75594 3.96673 0
M  V30 4114 H 385.112 1.01939 5.42506 0
M  V30 4115 H 387.588 -0.41649 4.1401 0
M  V30 4116 H 386.464 -0.989505 5.39907 0
M  V30 4117 H 386.725 -1.96373 3.96093 0
M  V30 4118 N 385.784 -1.5574 0.241426 0
M  V30 4119 C 386.731 -2.21149 -0.660432 0
M  V30 4120 C 387.701 -1.17356 -1.17545 0
M  V30 4121 O 388.886 -1.45784 -1.23093 0
M  V30 4122 C 386.026 -2.91059 -1.85414 0
M  V30 4123 C 385.139 -4.09495 -1.37616 0
M  V30 4124 C 384.274 -4.67135 -2.529 0
M  V30 4125 C 383.313 -5.77831 -2.01936 0
M  V30 4126 N 382.45 -6.29677 -3.10566 0
M  V30 4127 H 387.29 -2.97845 -0.095955 0
M  V30 4128 H 384.827 -1.47057 -0.0356024 0
M  V30 4129 H 386.785 -3.29788 -2.5553 0
M  V30 4130 H 385.415 -2.16846 -2.39118 0
M  V30 4131 H 384.467 -3.76117 -0.569235 0
M  V30 4132 H 385.779 -4.89423 -0.962618 0
M  V30 4133 H 384.933 -5.08409 -3.31067 0
M  V30 4134 H 383.672 -3.86411 -2.97553 0
M  V30 4135 H 382.677 -5.36039 -1.22238 0
M  V30 4136 H 383.902 -6.60402 -1.58259 0
M  V30 4137 H 381.848 -5.5186 -3.54664 0
M  V30 4138 H 381.765 -7.04783 -2.73526 0
M  V30 4139 H 383.033 -6.75609 -3.88809 0
M  V30 4140 N 387.262 0.0317525 -1.57568 0
M  V30 4141 C 388.539 0.758366 -1.803 0
M  V30 4142 C 388.919 1.93718 -0.838845 0
M  V30 4143 O 388.267 2.28187 0.119571 0
M  V30 4144 C 388.477 1.19392 -3.27943 0
M  V30 4145 C 389.825 1.61094 -3.92854 0
M  V30 4146 O 390.849 1.28857 -3.32076 0
M  V30 4147 O 389.708 2.20918 -4.99858 0
M  V30 4148 H 386.802 0.366514 -0.741348 0
M  V30 4149 H 389.348 0.00873765 -1.69698 0
M  V30 4150 H 388.12 0.352275 -3.89711 0
M  V30 4151 H 387.743 2.00365 -3.43424 0
M  V30 4152 N 388.74 1.54641 0.303973 0
M  V30 4153 C 389.97 1.77511 1.05705 0
M  V30 4154 C 390.378 0.533228 1.81531 0
M  V30 4155 O 389.721 -0.506423 1.76582 0
M  V30 4156 C 389.783 2.92779 2.08617 0
M  V30 4157 C 389.447 4.30977 1.52013 0
M  V30 4158 C 390.444 5.11115 0.9517 0
M  V30 4159 C 388.129 4.77571 1.55665 0
M  V30 4160 C 390.123 6.35966 0.427327 0
M  V30 4161 C 387.81 6.02384 1.02841 0
M  V30 4162 C 388.808 6.81417 0.464713 0
M  V30 4163 O 388.496 8.03881 -0.0555283 0
M  V30 4164 H 388.228 0.59579 0.319391 0
M  V30 4165 H 390.782 2.02401 0.349712 0
M  V30 4166 H 389.012 2.63506 2.83022 0
M  V30 4167 H 390.701 3.03252 2.69802 0
M  V30 4168 H 391.467 4.76264 0.916407 0
M  V30 4169 H 387.346 4.16085 1.9848 0
M  V30 4170 H 390.89 6.97599 -0.0133062 0
M  V30 4171 H 386.787 6.36723 1.06084 0
M  V30 4172 H 387.555 8.18479 0.0580522 0
M  V30 4173 N 390.218 -0.567019 1.47046 0
M  V30 4174 C 391.629 -1.14916 1.47143 0
M  V30 4175 C 391.98 -1.94954 0.220767 0
M  V30 4176 O 391.105 -2.05602 -0.67505 0
M  V30 4177 C 391.7 -2.09069 2.666 0
M  V30 4178 C 390.259 -2.62575 2.69687 0
M  V30 4179 C 389.406 -1.38755 2.40088 0
M  V30 4180 H 392.357 -0.354126 1.54699 0
M  V30 4181 H 392.378 -2.92789 2.43011 0
M  V30 4182 H 391.89 -1.50789 3.57609 0
M  V30 4183 H 389.991 -3.24681 1.82792 0
M  V30 4184 H 390.104 -3.04239 3.70102 0
M  V30 4185 H 388.468 -1.69098 1.90468 0
M  V30 4186 H 389.251 -0.822822 3.33293 0
M  V30 4187 N 391.696 -1.35014 -0.812953 0
M  V30 4188 C 393.112 -1.14914 -1.10757 0
M  V30 4189 C 393.312 0.0426818 -2.01455 0
M  V30 4190 O 392.368 0.715212 -2.42159 0
M  V30 4191 C 393.681 -2.44911 -1.74468 0
M  V30 4192 C 395.229 -2.5106 -1.86917 0
M  V30 4193 C 395.704 -3.81085 -2.54044 0
M  V30 4194 N 397.195 -3.82301 -2.61535 0
M  V30 4195 C 397.93 -4.79634 -3.14227 0
M  V30 4196 N 397.426 -5.87353 -3.67407 0
M  V30 4197 N 399.219 -4.67078 -3.12721 0
M  V30 4198 H 391.37 -2.1136 -0.20989 0
M  V30 4199 H 393.633 -0.935128 -0.155692 0
M  V30 4200 H 393.339 -3.32267 -1.15289 0
M  V30 4201 H 393.213 -2.58989 -2.74234 0
M  V30 4202 H 395.6 -1.64137 -2.45241 0
M  V30 4203 H 395.681 -2.40901 -0.860242 0
M  V30 4204 H 395.325 -4.68402 -1.96372 0
M  V30 4205 H 395.255 -3.88529 -3.55461 0
M  V30 4206 H 397.746 -3.04465 -2.23851 0
M  V30 4207 H 398.059 -6.57624 -4.05894 0
M  V30 4208 H 396.404 -5.91054 -3.65623 0
M  V30 4209 H 399.595 -3.82067 -2.70449 0
M  V30 4210 H 399.768 -5.43098 -3.53481 0
M  V30 4211 N 393.175 1.03435 -1.18907 0
M  V30 4212 C 394.586 1.58195 -0.991523 0
M  V30 4213 C 394.937 1.90801 0.457081 0
M  V30 4214 O 394.062 1.70272 1.33553 0
M  V30 4215 C 394.657 2.87432 -1.79355 0
M  V30 4216 C 393.216 3.38785 -1.64017 0
M  V30 4217 C 392.363 2.12292 -1.78402 0
M  V30 4218 H 395.314 0.860299 -1.33359 0
M  V30 4219 H 395.335 3.58096 -1.28638 0
M  V30 4220 H 394.847 2.63669 -2.84781 0
M  V30 4221 H 392.948 3.67547 -0.611536 0
M  V30 4222 H 393.061 4.12186 -2.44212 0
M  V30 4223 H 391.425 2.23901 -1.2141 0
M  V30 4224 H 392.208 1.90977 -2.85277 0
M  V30 4225 N 394.653 0.992116 1.22453 0
M  V30 4226 C 395.902 0.662992 1.90492 0
M  V30 4227 C 396.215 -0.808407 1.78113 0
M  V30 4228 O 397.421 -1.24908 2.41061 0
M  V30 4229 C 395.877 1.1353 3.41524 0
M  V30 4230 C 395.485 2.63187 3.62542 0
M  V30 4231 C 397.229 0.880465 4.15269 0
M  V30 4232 C 395.136 3.04024 5.0727 0
M  V30 4233 H 394.066 0.244278 0.713333 0
M  V30 4234 H 396.717 1.20157 1.38688 0
M  V30 4235 H 395.099 0.52485 3.92506 0
M  V30 4236 H 396.273 3.2957 3.22056 0
M  V30 4237 H 394.588 2.86543 3.02129 0
M  V30 4238 H 397.185 1.16128 5.21937 0
M  V30 4239 H 397.528 -0.183408 4.15896 0
M  V30 4240 H 398.061 1.45307 3.70312 0
M  V30 4241 H 394.8 4.09584 5.11782 0
M  V30 4242 H 394.32 2.42343 5.48662 0
M  V30 4243 H 395.999 2.95282 5.75689 0
M  V30 4244 N 396.131 -1.37776 0.765217 0
M  V30 4245 C 397.064 -2.28008 0.0935025 0
M  V30 4246 C 398.042 -1.45985 -0.716047 0
M  V30 4247 O 399.226 -1.75331 -0.692203 0
M  V30 4248 C 396.353 -3.27228 -0.874052 0
M  V30 4249 C 395.399 -4.26239 -0.149307 0
M  V30 4250 S 396.232 -5.22827 1.15809 0
M  V30 4251 C 397.388 -6.256 0.193906 0
M  V30 4252 H 397.621 -2.84631 0.858637 0
M  V30 4253 H 395.154 -1.43952 0.558313 0
M  V30 4254 H 397.112 -3.84902 -1.42691 0
M  V30 4255 H 395.773 -2.69565 -1.61225 0
M  V30 4256 H 394.966 -4.96213 -0.88254 0
M  V30 4257 H 394.568 -3.7252 0.332366 0
M  V30 4258 H 396.86 -6.74508 -0.636011 0
M  V30 4259 H 397.803 -7.02838 0.861638 0
M  V30 4260 H 398.211 -5.64173 -0.191975 0
M  V30 4261 N 397.609 -0.515225 -1.4894 0
M  V30 4262 C 399.02 -0.0710067 -1.86565 0
M  V30 4263 C 399.371 1.34733 -1.42623 0
M  V30 4264 O 398.496 2.00653 -0.810379 0
M  V30 4265 C 399.091 -0.122083 -3.3858 0
M  V30 4266 C 397.65 0.266863 -3.75453 0
M  V30 4267 C 396.797 -0.488376 -2.72966 0
M  V30 4268 H 399.748 -0.727266 -1.41055 0
M  V30 4269 H 399.769 0.669818 -3.74558 0
M  V30 4270 H 399.281 -1.15448 -3.70531 0
M  V30 4271 H 397.382 1.30196 -3.49113 0
M  V30 4272 H 397.495 -0.0624811 -4.79059 0
M  V30 4273 H 395.859 0.0635622 -2.54621 0
M  V30 4274 H 396.642 -1.52113 -3.07761 0
M  V30 4275 N 399.087 1.5561 -0.249682 0
M  V30 4276 C 400.035 2.22894 0.664906 0
M  V30 4277 C 401.029 1.21743 1.17792 0
M  V30 4278 O 402.235 1.39748 1.13449 0
M  V30 4279 H 398.61 0.715022 0.232912 0
M  V30 4280 H 400.581 2.98307 0.0742998 0
M  V30 4281 C 399.33 2.94424 1.84959 0
M  V30 4282 H 398.653 3.72031 1.46399 0
M  V30 4283 H 400.093 3.44862 2.4667 0
M  V30 4284 C 398.552 1.98454 2.72245 0
M  V30 4285 O 399.082 1.51939 3.71857 0
M  V30 4286 N 397.288 1.65496 2.38871 0
M  V30 4287 H 396.835 2.03517 1.57919 0
M  V30 4288 H 396.793 1.0155 2.97548 0
M  V30 4289 N 400.565 -0.0233959 1.57583 0
M  V30 4290 C 401.498 -1.05549 2.02323 0
M  V30 4291 C 402.476 -1.34843 0.908626 0
M  V30 4292 O 403.66 -1.47404 1.17491 0
M  V30 4293 C 400.787 -2.38885 2.40108 0
M  V30 4294 C 399.833 -2.2541 3.62067 0
M  V30 4295 S 400.666 -1.60217 5.1097 0
M  V30 4296 C 401.822 -2.95032 5.52003 0
M  V30 4297 H 402.055 -0.674435 2.89549 0
M  V30 4298 H 399.588 -0.23355 1.52623 0
M  V30 4299 H 401.546 -3.15562 2.62547 0
M  V30 4300 H 400.207 -2.74137 1.53323 0
M  V30 4301 H 399.4 -3.23854 3.86179 0
M  V30 4302 H 399.002 -1.56876 3.39508 0
M  V30 4303 H 401.294 -3.91357 5.53033 0
M  V30 4304 H 402.237 -2.75646 6.52246 0
M  V30 4305 H 402.645 -2.97865 4.79517 0
M  V30 4306 N 402.043 -1.548 -0.295768 0
M  V30 4307 C 403.289 -1.74588 -1.03184 0
M  V30 4308 C 403.622 -0.532962 -1.86744 0
M  V30 4309 O 402.897 0.469872 -1.88739 0
M  V30 4310 C 403.18 -3.03791 -1.93347 0
M  V30 4311 C 403.033 -4.35392 -1.12933 0
M  V30 4312 C 404.352 -3.28892 -2.92435 0
M  V30 4313 H 401.471 -0.635221 -0.373715 0
M  V30 4314 H 404.113 -1.87519 -0.30606 0
M  V30 4315 H 402.263 -2.92898 -2.55232 0
M  V30 4316 H 403.935 -4.58211 -0.532943 0
M  V30 4317 H 402.178 -4.31642 -0.432168 0
M  V30 4318 H 402.849 -5.22074 -1.79284 0
M  V30 4319 H 405.325 -3.39429 -2.4068 0
M  V30 4320 H 404.201 -4.20603 -3.52682 0
M  V30 4321 H 404.462 -2.47437 -3.6637 0
M  V30 4322 N 403.521 0.559213 -1.47345 0
M  V30 4323 C 404.768 1.31648 -1.53867 0
M  V30 4324 C 405.096 1.93468 -0.200104 0
M  V30 4325 O 404.351 1.78295 0.806799 0
M  V30 4326 C 404.65 2.44853 -2.6035 0
M  V30 4327 C 404.316 2.00876 -4.03683 0
M  V30 4328 C 402.978 1.88599 -4.42701 0
M  V30 4329 C 405.33 1.67279 -4.93626 0
M  V30 4330 C 402.658 1.41017 -5.69501 0
M  V30 4331 C 405.01 1.21169 -6.20887 0
M  V30 4332 C 403.674 1.07487 -6.58789 0
M  V30 4333 H 402.944 0.481734 -0.56304 0
M  V30 4334 H 405.591 0.627301 -1.80934 0
M  V30 4335 H 403.896 3.19318 -2.27032 0
M  V30 4336 H 405.593 3.03039 -2.62619 0
M  V30 4337 H 402.183 2.11374 -3.72853 0
M  V30 4338 H 406.367 1.75638 -4.64182 0
M  V30 4339 H 401.623 1.29086 -5.97618 0
M  V30 4340 H 405.797 0.942345 -6.89995 0
M  V30 4341 H 403.424 0.703946 -7.56934 0
M  V30 4342 N 404.999 1.35443 0.805782 0
M  V30 4343 C 406.245 1.28952 1.56522 0
M  V30 4344 C 406.578 -0.135597 1.93726 0
M  V30 4345 O 405.853 -1.08516 1.61414 0
M  V30 4346 C 406.136 2.19678 2.85331 0
M  V30 4347 C 405.989 3.7081 2.54598 0
M  V30 4348 C 407.308 2.09495 3.8704 0
M  V30 4349 H 404.427 0.469764 0.567883 0
M  V30 4350 H 407.069 1.65851 0.927001 0
M  V30 4351 H 405.219 1.8834 3.39795 0
M  V30 4352 H 406.891 4.12593 2.06312 0
M  V30 4353 H 405.134 3.91051 1.8778 0
M  V30 4354 H 405.805 4.29679 3.46525 0
M  V30 4355 H 408.281 2.37045 3.41978 0
M  V30 4356 H 407.157 2.75173 4.74943 0
M  V30 4357 H 407.418 1.07714 4.28777 0
M  V30 4358 N 406.477 -1.02803 1.19454 0
M  V30 4359 C 407.725 -1.75869 0.995722 0
M  V30 4360 C 408.046 -1.89138 -0.474543 0
M  V30 4361 O 407.316 -1.42558 -1.34366 0
M  V30 4362 H 405.896 -0.651511 0.365435 0
M  V30 4363 H 408.558 -1.24004 1.50363 0
M  V30 4364 H 407.654 -2.76661 1.44447 0
M  V30 4365 N 407.956 -0.998596 -1.21925 0
M  V30 4366 C 409.204 -0.676325 -1.90448 0
M  V30 4367 C 409.525 0.794719 -1.78071 0
M  V30 4368 O 408.795 1.5701 -1.17152 0
M  V30 4369 H 407.375 -0.247165 -0.704925 0
M  V30 4370 H 410.037 -1.26633 -1.48156 0
M  V30 4371 H 409.133 -0.943858 -2.97486 0
M  V30 4372 N 409.434 1.37368 -0.772513 0
M  V30 4373 C 410.683 1.98918 -0.333861 0
M  V30 4374 C 410.996 1.62017 1.09589 0
M  V30 4375 O 412.202 2.16676 1.63596 0
M  V30 4376 C 410.658 3.55735 -0.545971 0
M  V30 4377 C 410.266 4.01573 -1.98603 0
M  V30 4378 C 412.01 4.24156 -0.170979 0
M  V30 4379 C 409.917 5.51102 -2.1457 0
M  V30 4380 H 408.847 0.744214 -0.121085 0
M  V30 4381 H 411.498 1.56888 -0.95175 0
M  V30 4382 H 409.88 3.95748 0.141387 0
M  V30 4383 H 411.054 3.72803 -2.7084 0
M  V30 4384 H 409.369 3.45937 -2.31769 0
M  V30 4385 H 411.966 5.34024 -0.26878 0
M  V30 4386 H 412.309 4.06917 0.878855 0
M  V30 4387 H 412.842 3.89447 -0.810914 0
M  V30 4388 H 409.581 5.73268 -3.17875 0
M  V30 4389 H 409.101 5.81554 -1.46817 0
M  V30 4390 H 410.78 6.17083 -1.94468 0
M  V30 4391 N 410.912 0.523116 1.48665 0
M  V30 4392 C 411.86 -0.256859 2.31177 0
M  V30 4393 C 412.854 -0.94199 1.40794 0
M  V30 4394 O 414.06 -0.867157 1.57735 0
M  V30 4395 H 410.435 -0.1017 0.745091 0
M  V30 4396 H 412.406 0.458739 2.94853 0
M  V30 4397 C 411.155 -1.29503 3.22683 0
M  V30 4398 H 410.478 -0.777248 3.92172 0
M  V30 4399 H 411.918 -1.81233 3.83315 0
M  V30 4400 C 410.377 -2.32501 2.43813 0
M  V30 4401 O 410.907 -3.3881 2.15803 0
M  V30 4402 N 409.113 -2.05538 2.05432 0
M  V30 4403 H 408.66 -1.19104 2.28412 0
M  V30 4404 H 408.618 -2.74676 1.52973 0
M  V30 4405 N 412.39 -1.55475 0.257931 0
M  V30 4406 C 413.63 -2.01112 -0.365129 0
M  V30 4407 C 413.994 -1.1423 -1.54323 0
M  V30 4408 O 415.195 -1.49371 -2.23477 0
M  V30 4409 C 413.466 -3.49353 -0.754117 0
M  V30 4410 S 415.025 -4.16992 -1.36614 0
M  V30 4411 H 411.843 -0.701737 -0.114397 0
M  V30 4412 H 414.445 -1.91855 0.375747 0
M  V30 4413 H 413.149 -4.10246 0.112441 0
M  V30 4414 H 412.68 -3.6256 -1.52689 0
M  V30 4415 H 414.695 -4.19191 -2.65505 0
M  V30 4416 N 413.868 0.0150385 -1.57593 0
M  V30 4417 C 414.798 1.01047 -2.10503 0
M  V30 4418 C 415.779 1.36816 -1.01071 0
M  V30 4419 O 416.964 1.45455 -1.28672 0
M  V30 4420 C 414.094 2.30708 -2.59598 0
M  V30 4421 C 413.048 2.09142 -3.73421 0
M  V30 4422 C 412.374 3.44685 -4.08774 0
M  V30 4423 C 413.674 1.46619 -5.01298 0
M  V30 4424 H 415.368 0.569978 -2.93925 0
M  V30 4425 H 412.914 0.272724 -1.41394 0
M  V30 4426 H 414.867 3.00687 -2.95238 0
M  V30 4427 H 413.591 2.76843 -1.73279 0
M  V30 4428 H 412.25 1.41592 -3.38153 0
M  V30 4429 H 411.898 3.88495 -3.195 0
M  V30 4430 H 411.598 3.31077 -4.8545 0
M  V30 4431 H 413.122 4.16004 -4.4696 0
M  V30 4432 H 414.536 2.06535 -5.34805 0
M  V30 4433 H 412.933 1.43544 -5.82679 0
M  V30 4434 H 414.003 0.433611 -4.82957 0
M  V30 4435 N 415.346 1.54954 0.287554 0
M  V30 4436 C 416.296 1.8322 1.357 0
M  V30 4437 C 417.28 0.690152 1.45347 0
M  V30 4438 O 418.472 0.951137 1.49273 0
M  V30 4439 C 415.601 2.09481 2.71979 0
M  V30 4440 C 414.687 3.29906 2.66502 0
M  V30 4441 N 415.078 4.50154 2.30641 0
M  V30 4442 C 413.376 3.32203 2.97585 0
M  V30 4443 C 414.077 5.32209 2.34794 0
M  V30 4444 N 413.053 4.70258 2.72688 0
M  V30 4445 H 416.855 2.73746 1.0696 0
M  V30 4446 H 414.369 1.54635 0.496167 0
M  V30 4447 H 416.366 2.27882 3.49107 0
M  V30 4448 H 415.026 1.2023 3.0162 0
M  V30 4449 H 416.037 4.76515 2.02865 0
M  V30 4450 H 412.714 2.53101 3.32034 0
M  V30 4451 H 414.104 6.38321 2.09753 0
M  V30 4452 N 416.824 -0.551391 1.4764 0
M  V30 4453 C 417.756 -1.67333 1.56628 0
M  V30 4454 C 418.769 -1.56398 0.452045 0
M  V30 4455 O 419.958 -1.6325 0.721926 0
M  V30 4456 C 417.058 -3.05841 1.45994 0
M  V30 4457 C 416.231 -3.42472 2.72088 0
M  V30 4458 C 415.29 -4.60168 2.55209 0
M  V30 4459 O 414.316 -4.64458 3.2904 0
M  V30 4460 N 415.518 -5.57024 1.63416 0
M  V30 4461 H 418.283 -1.60066 2.53375 0
M  V30 4462 H 415.844 -0.738169 1.44093 0
M  V30 4463 H 417.836 -3.8242 1.32428 0
M  V30 4464 H 416.406 -3.07302 0.573071 0
M  V30 4465 H 415.626 -2.55284 3.00373 0
M  V30 4466 H 416.914 -3.63723 3.55785 0
M  V30 4467 H 416.312 -5.56319 1.02594 0
M  V30 4468 H 414.869 -6.32906 1.558 0
M  V30 4469 N 418.302 -1.35869 -0.798587 0
M  V30 4470 C 419.25 -1.29491 -1.93222 0
M  V30 4471 C 420.244 -0.18836 -1.6835 0
M  V30 4472 O 421.45 -0.354822 -1.76468 0
M  V30 4473 H 417.825 -0.402901 -0.63496 0
M  V30 4474 H 419.796 -2.25247 -1.9572 0
M  V30 4475 C 418.545 -1.09184 -3.30112 0
M  V30 4476 H 417.868 -1.93574 -3.49813 0
M  V30 4477 H 419.308 -1.08766 -4.09812 0
M  V30 4478 C 417.767 0.203959 -3.36282 0
M  V30 4479 O 418.297 1.19699 -3.83451 0
M  V30 4480 N 416.503 0.245488 -2.89561 0
M  V30 4481 H 416.05 -0.563223 -2.51367 0
M  V30 4482 H 416.008 1.11219 -2.94071 0
M  V30 4483 N 419.78 1.02168 -1.19998 0
M  V30 4484 C 421.191 1.57135 -1.00825 0
M  V30 4485 C 421.542 1.91276 0.436818 0
M  V30 4486 O 420.667 1.71679 1.3174 0
M  V30 4487 C 421.262 2.85514 -1.82393 0
M  V30 4488 C 419.821 3.37027 -1.67601 0
M  V30 4489 C 418.968 2.10388 -1.80644 0
M  V30 4490 H 421.919 0.846106 -1.34264 0
M  V30 4491 H 421.94 3.56711 -1.32429 0
M  V30 4492 H 421.452 2.60634 -2.87561 0
M  V30 4493 H 419.553 3.66878 -0.650485 0
M  V30 4494 H 419.666 4.09572 -2.4857 0
M  V30 4495 H 418.03 2.22601 -1.23778 0
M  V30 4496 H 418.813 1.8794 -2.87286 0
M  V30 4497 N 421.258 1.00505 1.21394 0
M  V30 4498 C 422.188 0.585684 2.26035 0
M  V30 4499 C 423.169 -0.393525 1.65485 0
M  V30 4500 O 424.354 -0.281497 1.92149 0
M  V30 4501 C 421.484 -0.0884283 3.47187 0
M  V30 4502 C 420.438 0.810567 4.20254 0
M  V30 4503 C 419.764 0.00286382 5.347 0
M  V30 4504 C 421.064 2.1132 4.77641 0
M  V30 4505 H 422.758 1.46039 2.61368 0
M  V30 4506 H 420.304 0.703648 1.25638 0
M  V30 4507 H 422.257 -0.393286 4.19561 0
M  V30 4508 H 420.981 -0.997766 3.10986 0
M  V30 4509 H 419.64 1.09925 3.49731 0
M  V30 4510 H 419.288 -0.907765 4.94741 0
M  V30 4511 H 418.988 0.601444 5.84514 0
M  V30 4512 H 420.512 -0.295808 6.09883 0
M  V30 4513 H 421.926 1.87148 5.41893 0
M  V30 4514 H 420.323 2.66164 5.37845 0
M  V30 4515 H 421.393 2.78393 3.9702 0
M  V30 4516 N 422.737 -1.36956 0.779787 0
M  V30 4517 C 423.962 -2.04283 0.358224 0
M  V30 4518 C 424.387 -1.58422 -1.01411 0
M  V30 4519 O 423.745 -0.748179 -1.65142 0
M  V30 4520 C 423.793 -3.58152 0.419479 0
M  V30 4521 O 422.897 -4.08342 -0.577142 0
M  V30 4522 H 422.238 -0.645967 0.153698 0
M  V30 4523 H 424.768 -1.75108 1.05822 0
M  V30 4524 H 424.778 -4.07041 0.279636 0
M  V30 4525 H 423.453 -3.90886 1.42061 0
M  V30 4526 H 422.03 -3.70751 -0.399755 0
M  V30 4527 N 424.215 -0.530993 -1.48385 0
M  V30 4528 C 425.147 0.268353 -2.27624 0
M  V30 4529 C 426.16 0.903525 -1.35426 0
M  V30 4530 O 427.349 0.781796 -1.60469 0
M  V30 4531 C 424.449 1.39535 -3.08842 0
M  V30 4532 C 423.622 0.861913 -4.28824 0
M  V30 4533 C 422.681 1.87016 -4.91845 0
M  V30 4534 O 421.707 1.4267 -5.5103 0
M  V30 4535 N 422.909 3.20238 -4.84178 0
M  V30 4536 H 425.674 -0.41123 -2.96865 0
M  V30 4537 H 423.235 -0.365387 -1.57723 0
M  V30 4538 H 425.227 2.06803 -3.47871 0
M  V30 4539 H 423.797 1.97859 -2.42014 0
M  V30 4540 H 423.017 0.0132126 -3.94198 0
M  V30 4541 H 424.305 0.484415 -5.06489 0
M  V30 4542 H 423.703 3.58932 -4.37246 0
M  V30 4543 H 422.26 3.83136 -5.27305 0
M  V30 4544 N 425.693 1.55336 -0.266172 0
M  V30 4545 C 426.603 2.2583 0.635458 0
M  V30 4546 C 427.619 1.28106 1.17749 0
M  V30 4547 O 428.795 1.61024 1.20968 0
M  V30 4548 C 425.86 2.95879 1.80712 0
M  V30 4549 C 424.921 4.09059 1.30265 0
M  V30 4550 C 424.154 4.75759 2.41846 0
M  V30 4551 O 424.377 4.41622 3.61007 0
M  V30 4552 O 423.311 5.63888 2.1051 0
M  V30 4553 H 427.137 3.03631 0.0646693 0
M  V30 4554 H 424.722 1.49361 -0.0339177 0
M  V30 4555 H 426.604 3.39932 2.49047 0
M  V30 4556 H 425.279 2.21002 2.36516 0
M  V30 4557 H 424.186 3.69482 0.586019 0
M  V30 4558 H 425.519 4.85811 0.790458 0
M  V30 4559 N 427.171 -0.0066808 1.57599 0
M  V30 4560 C 428.418 -0.69292 1.90276 0
M  V30 4561 C 428.746 -1.74148 0.866192 0
M  V30 4562 O 428.001 -1.95268 -0.129933 0
M  V30 4563 C 428.3 -1.37939 3.29708 0
M  V30 4564 C 427.966 -0.464679 4.48499 0
M  V30 4565 C 426.628 -0.212809 4.80729 0
M  V30 4566 C 428.98 0.16551 5.20937 0
M  V30 4567 C 426.308 0.677653 5.82773 0
M  V30 4568 C 428.66 1.04381 6.23929 0
M  V30 4569 C 427.324 1.30492 6.54621 0
M  V30 4570 H 426.594 -0.253558 0.696268 0
M  V30 4571 H 429.241 0.0474123 1.91441 0
M  V30 4572 H 427.546 -2.1936 3.24636 0
M  V30 4573 H 429.243 -1.9163 3.52249 0
M  V30 4574 H 425.833 -0.671153 4.23313 0
M  V30 4575 H 430.017 -0.0160756 4.96297 0
M  V30 4576 H 425.273 0.88803 6.04917 0
M  V30 4577 H 429.447 1.53851 6.79193 0
M  V30 4578 H 427.074 1.99662 7.33512 0
M  V30 4579 N 428.649 -1.55105 -0.279332 0
M  V30 4580 C 429.559 -1.90638 -1.36727 0
M  V30 4581 C 430.575 -0.802899 -1.54368 0
M  V30 4582 O 431.751 -1.10138 -1.68616 0
M  V30 4583 C 428.816 -2.16547 -2.70755 0
M  V30 4584 C 427.877 -3.40146 -2.61915 0
M  V30 4585 C 427.11 -3.6481 -3.8955 0
M  V30 4586 O 427.333 -2.92095 -4.89935 0
M  V30 4587 O 426.267 -4.58343 -3.90135 0
M  V30 4588 H 430.093 -2.83237 -1.09591 0
M  V30 4589 H 427.678 -1.4157 -0.477306 0
M  V30 4590 H 429.56 -2.34665 -3.50014 0
M  V30 4591 H 428.235 -1.27131 -2.9769 0
M  V30 4592 H 427.142 -3.2737 -1.81052 0
M  V30 4593 H 428.475 -4.29761 -2.3993 0
M  V30 4594 N 430.127 0.543554 -1.4793 0
M  V30 4595 C 431.09 1.63156 -1.60975 0
M  V30 4596 C 432.09 1.53346 -0.483899 0
M  V30 4597 O 433.28 1.5726 -0.749339 0
M  V30 4598 C 430.412 3.02743 -1.56716 0
M  V30 4599 H 431.605 1.52934 -2.57975 0
M  V30 4600 H 429.158 0.764557 -1.36324 0
M  V30 4601 H 429.893 3.18484 -0.611418 0
M  V30 4602 H 429.678 3.11272 -2.38438 0
M  V30 4603 H 431.168 3.81871 -1.6901 0
M  V30 4604 N 431.605 1.3629 0.791371 0
M  V30 4605 C 432.835 1.33368 1.57786 0
M  V30 4606 C 433.243 -0.0875188 1.88997 0
M  V30 4607 O 432.586 -1.05427 1.50435 0
M  V30 4608 C 432.648 2.08802 2.92646 0
M  V30 4609 C 432.312 3.57903 2.84174 0
M  V30 4610 C 433.309 4.52191 2.56553 0
M  V30 4611 C 430.994 4.00762 3.02812 0
M  V30 4612 C 432.988 5.87315 2.47669 0
M  V30 4613 C 430.675 5.35977 2.93551 0
M  V30 4614 C 431.673 6.29066 2.66017 0
M  V30 4615 O 431.361 7.61798 2.56746 0
M  V30 4616 H 431.093 0.459166 0.496128 0
M  V30 4617 H 433.647 1.79952 0.990269 0
M  V30 4618 H 431.877 1.56878 3.53449 0
M  V30 4619 H 433.566 1.98762 3.53904 0
M  V30 4620 H 434.332 4.20393 2.41858 0
M  V30 4621 H 430.211 3.2868 3.2325 0
M  V30 4622 H 433.755 6.59943 2.26099 0
M  V30 4623 H 429.652 5.67384 3.07808 0
M  V30 4624 H 430.42 7.71898 2.72242 0
M  V30 4625 N 433.083 -1.0153 1.20538 0
M  V30 4626 C 434.332 -1.74558 1.01057 0
M  V30 4627 C 434.645 -1.90168 -0.457756 0
M  V30 4628 O 435.851 -2.60301 -0.771722 0
M  V30 4629 C 434.307 -3.13963 1.75941 0
M  V30 4630 C 433.915 -3.06361 3.26875 0
M  V30 4631 C 435.659 -3.91191 1.64832 0
M  V30 4632 C 433.566 -4.40782 3.94291 0
M  V30 4633 H 432.496 -0.654417 0.374505 0
M  V30 4634 H 435.147 -1.13521 1.44171 0
M  V30 4635 H 433.529 -3.75549 1.25614 0
M  V30 4636 H 434.703 -2.54074 3.84425 0
M  V30 4637 H 433.018 -2.42625 3.38411 0
M  V30 4638 H 435.615 -4.90644 2.12539 0
M  V30 4639 H 435.958 -4.11884 0.604745 0
M  V30 4640 H 436.491 -3.36236 2.12579 0
M  V30 4641 H 433.23 -4.25292 4.98805 0
M  V30 4642 H 432.75 -4.9307 3.41529 0
M  V30 4643 H 434.429 -5.09621 3.98617 0
M  V30 4644 N 434.561 -1.01147 -1.20859 0
M  V30 4645 C 435.509 -0.57059 -2.25493 0
M  V30 4646 C 436.503 0.388109 -1.64894 0
M  V30 4647 O 437.709 0.258592 -1.78133 0
M  V30 4648 H 434.084 -0.166191 -0.733406 0
M  V30 4649 H 436.055 -1.46411 -2.60012 0
M  V30 4650 C 434.804 0.0805241 -3.47607 0
M  V30 4651 H 434.127 -0.648156 -3.94511 0
M  V30 4652 H 435.567 0.352197 -4.22535 0
M  V30 4653 C 434.026 1.32175 -3.09889 0
M  V30 4654 O 434.556 2.41553 -3.20959 0
M  V30 4655 N 432.762 1.20392 -2.64488 0
M  V30 4656 H 432.309 0.313905 -2.5568 0
M  V30 4657 H 432.267 2.03541 -2.39621 0
M  V30 4658 N 436.039 1.36541 -0.78704 0
M  V30 4659 C 437.002 2.28413 -0.189778 0
M  V30 4660 C 438.002 1.48719 0.611499 0
M  V30 4661 O 439.192 1.68737 0.432842 0
M  V30 4662 C 436.324 3.32824 0.737638 0
M  V30 4663 H 437.517 2.82743 -0.999831 0
M  V30 4664 H 435.07 1.46065 -0.556298 0
M  V30 4665 H 435.805 2.83646 1.57212 0
M  V30 4666 H 435.59 3.91752 0.165044 0
M  V30 4667 H 437.08 4.0144 1.15047 0
M  V30 4668 N 437.518 0.538854 1.48102 0
M  V30 4669 C 438.743 0.0102694 2.07397 0
M  V30 4670 C 439.168 -1.26562 1.39153 0
M  V30 4671 O 438.526 -1.75357 0.460387 0
M  V30 4672 C 438.574 -0.187602 3.60112 0
M  V30 4673 O 437.678 -1.25432 3.92862 0
M  V30 4674 H 437.019 0.0430975 0.6626 0
M  V30 4675 H 439.549 0.749301 1.90385 0
M  V30 4676 H 439.559 -0.407517 4.0596 0
M  V30 4677 H 438.234 0.744386 4.09184 0
M  V30 4678 H 436.811 -1.01636 3.58782 0
M  V30 4679 N 438.996 -1.55193 0.274407 0
M  V30 4680 C 440.244 -1.99187 -0.341902 0
M  V30 4681 C 440.565 -1.16422 -1.56431 0
M  V30 4682 O 439.835 -0.253573 -1.94252 0
M  V30 4683 H 438.415 -0.735721 -0.129317 0
M  V30 4684 H 441.077 -1.91168 0.379578 0
M  V30 4685 H 440.173 -3.05629 -0.632253 0
M  V30 4686 N 440.474 -0.00167713 -1.576 0
M  V30 4687 C 441.384 1.00548 -2.1196 0
M  V30 4688 C 442.4 1.3758 -1.06526 0
M  V30 4689 O 443.576 1.46278 -1.38436 0
M  V30 4690 C 440.641 2.27809 -2.6135 0
M  V30 4691 C 439.702 1.97074 -3.81393 0
M  V30 4692 C 438.935 3.18267 -4.28417 0
M  V30 4693 O 439.158 4.30009 -3.74765 0
M  V30 4694 O 438.092 3.02167 -5.20556 0
M  V30 4695 H 441.918 0.573373 -2.98238 0
M  V30 4696 H 439.503 0.217255 -1.47812 0
M  V30 4697 H 441.385 3.02568 -2.93309 0
M  V30 4698 H 440.06 2.70254 -1.78169 0
M  V30 4699 H 438.967 1.19785 -3.54404 0
M  V30 4700 H 440.3 1.59464 -4.65652 0
M  V30 4701 N 441.952 1.55251 0.271103 0
M  V30 4702 C 442.902 1.84649 1.33749 0
M  V30 4703 C 443.886 0.705529 1.44607 0
M  V30 4704 O 445.078 0.966916 1.48256 0
M  V30 4705 C 442.207 2.12354 2.69742 0
M  V30 4706 C 441.293 3.32714 2.62988 0
M  V30 4707 N 441.684 4.52575 2.25853 0
M  V30 4708 C 439.982 3.35341 2.94045 0
M  V30 4709 C 440.683 5.34669 2.29136 0
M  V30 4710 N 439.659 4.73123 2.67685 0
M  V30 4711 H 443.461 2.74865 1.0405 0
M  V30 4712 H 440.975 1.55152 0.479738 0
M  V30 4713 H 442.972 2.31572 3.4667 0
M  V30 4714 H 441.632 1.23422 3.00328 0
M  V30 4715 H 442.643 4.78639 1.978 0
M  V30 4716 H 439.32 2.56608 3.2933 0
M  V30 4717 H 440.71 6.40509 2.02971 0
M  V30 4718 N 443.43 -0.535701 1.48216 0
M  V30 4719 C 444.678 -1.28928 1.55634 0
M  V30 4720 C 444.999 -1.93645 0.229514 0
M  V30 4721 O 444.269 -1.81038 -0.74846 0
M  V30 4722 H 442.849 -0.47884 0.573342 0
M  V30 4723 H 445.511 -0.623853 1.84646 0
M  V30 4724 H 444.607 -2.07157 2.33436 0
M  V30 4725 N 444.908 -1.36708 -0.784132 0
M  V30 4726 C 446.157 -1.30559 -1.53744 0
M  V30 4727 C 446.47 0.111374 -1.95283 0
M  V30 4728 O 447.676 0.29527 -2.6989 0
M  V30 4729 C 446.132 -2.29098 -2.77565 0
M  V30 4730 C 445.74 -3.76258 -2.43174 0
M  V30 4731 C 447.484 -2.31936 -3.55536 0
M  V30 4732 C 445.391 -4.6656 -3.63422 0
M  V30 4733 H 444.321 -0.48518 -0.577162 0
M  V30 4734 H 446.972 -1.62101 -0.859981 0
M  V30 4735 H 445.354 -1.90557 -3.47137 0
M  V30 4736 H 446.528 -4.23565 -1.81465 0
M  V30 4737 H 444.843 -3.76246 -1.78403 0
M  V30 4738 H 447.44 -2.9661 -4.44889 0
M  V30 4739 H 447.783 -1.3294 -3.94503 0
M  V30 4740 H 448.316 -2.6912 -2.92949 0
M  V30 4741 H 445.055 -5.66638 -3.29547 0
M  V30 4742 H 444.575 -4.23966 -4.24279 0
M  V30 4743 H 446.254 -4.8309 -4.30387 0
M  V30 4744 N 446.386 1.0089 -1.21074 0
M  V30 4745 C 447.632 1.74866 -1.02712 0
M  V30 4746 C 447.965 1.89178 0.438787 0
M  V30 4747 O 447.24 1.42325 1.32567 0
M  V30 4748 C 447.523 3.16347 -1.72036 0
M  V30 4749 C 447.376 3.09782 -3.26121 0
M  V30 4750 C 448.695 4.15187 -1.45973 0
M  V30 4751 H 445.814 0.634736 -0.374539 0
M  V30 4752 H 448.456 1.17646 -1.49196 0
M  V30 4753 H 446.606 3.65201 -1.32517 0
M  V30 4754 H 448.278 2.68673 -3.74983 0
M  V30 4755 H 446.521 2.46982 -3.56626 0
M  V30 4756 H 447.192 4.09829 -3.6979 0
M  V30 4757 H 449.668 3.75022 -1.80272 0
M  V30 4758 H 448.544 5.12331 -1.96999 0
M  V30 4759 H 448.805 4.40386 -0.388924 0
M  V30 4760 N 447.864 1.01787 1.20321 0
M  V30 4761 C 449.11 0.708985 1.90003 0
M  V30 4762 C 449.443 -0.759572 1.78729 0
M  V30 4763 O 448.718 -1.55198 1.17234 0
M  V30 4764 C 449.001 1.1469 3.41348 0
M  V30 4765 C 448.854 2.67586 3.61549 0
M  V30 4766 C 450.173 0.71915 4.34185 0
M  V30 4767 H 447.292 0.259034 0.689978 0
M  V30 4768 H 449.934 1.26584 1.41692 0
M  V30 4769 H 448.084 0.673128 3.82624 0
M  V30 4770 H 449.756 3.22826 3.29517 0
M  V30 4771 H 447.999 3.085 3.04976 0
M  V30 4772 H 448.67 2.93281 4.67643 0
M  V30 4773 H 451.146 1.12647 4.00562 0
M  V30 4774 H 450.022 1.05358 5.38694 0
M  V30 4775 H 450.283 -0.379111 4.40472 0
M  V30 4776 N 449.342 -1.36122 0.79427 0
M  V30 4777 C 450.589 -1.99111 0.368905 0
M  V30 4778 C 450.917 -1.63032 -1.0607 0
M  V30 4779 O 450.172 -0.879303 -1.74833 0
M  V30 4780 C 450.471 -3.5409 0.48527 0
M  V30 4781 C 450.137 -4.10003 1.87638 0
M  V30 4782 C 448.799 -4.24986 2.257 0
M  V30 4783 C 451.151 -4.40423 2.78706 0
M  V30 4784 C 448.479 -4.67701 3.54221 0
M  V30 4785 C 450.831 -4.84573 4.0666 0
M  V30 4786 C 449.495 -4.97761 4.44737 0
M  V30 4787 H 448.765 -0.7286 0.134992 0
M  V30 4788 H 451.412 -1.62534 1.01267 0
M  V30 4789 H 449.717 -3.91052 -0.241984 0
M  V30 4790 H 451.414 -4.00766 0.137109 0
M  V30 4791 H 448.004 -3.98784 1.57064 0
M  V30 4792 H 452.188 -4.28412 2.50553 0
M  V30 4793 H 447.444 -4.761 3.83587 0
M  V30 4794 H 451.618 -5.07074 4.77336 0
M  V30 4795 H 449.245 -5.30618 5.44379 0
M  V30 4796 N 450.82 -0.546701 -1.47814 0
M  V30 4797 C 452.045 -0.021268 -2.07389 0
M  V30 4798 C 452.47 1.25822 -1.39822 0
M  V30 4799 O 451.828 1.75111 -0.46968 0
M  V30 4800 C 451.876 0.168502 -3.60206 0
M  V30 4801 O 450.98 1.23347 -3.93522 0
M  V30 4802 H 450.321 -0.0466108 -0.662362 0
M  V30 4803 H 452.851 -0.759387 -1.89985 0
M  V30 4804 H 452.861 0.385982 -4.0617 0
M  V30 4805 H 451.536 -0.766075 -4.08784 0
M  V30 4806 H 450.113 0.997319 -3.59316 0
M  V30 4807 N 452.299 1.55045 -0.282633 0
M  V30 4808 C 453.229 2.2579 0.595066 0
M  V30 4809 C 454.21 1.25074 1.15284 0
M  V30 4810 O 455.395 1.5381 1.18559 0
M  V30 4811 C 452.525 2.98472 1.77572 0
M  V30 4812 C 451.479 4.0618 1.34914 0
M  V30 4813 C 450.805 4.66477 2.6135 0
M  V30 4814 C 452.105 5.1996 0.493821 0
M  V30 4815 H 453.799 2.994 0.00505653 0
M  V30 4816 H 451.345 1.44 0.000992001 0
M  V30 4817 H 453.298 3.46677 2.39568 0
M  V30 4818 H 452.022 2.2241 2.39168 0
M  V30 4819 H 450.681 3.58797 0.752338 0
M  V30 4820 H 450.329 3.87074 3.2122 0
M  V30 4821 H 450.029 5.39207 2.33516 0
M  V30 4822 H 451.553 5.17435 3.24181 0
M  V30 4823 H 452.967 5.64172 1.01898 0
M  V30 4824 H 451.364 5.99299 0.310047 0
M  V30 4825 H 452.434 4.82462 -0.485593 0
M  V30 4826 N 453.777 0.010035 1.57597 0
M  V30 4827 C 455.025 -0.671371 1.90623 0
M  V30 4828 C 455.346 -1.73753 0.885151 0
M  V30 4829 O 454.616 -1.95752 -0.0760611 0
M  V30 4830 H 453.196 -0.250968 0.703579 0
M  V30 4831 H 455.858 0.0533325 1.94827 0
M  V30 4832 H 454.954 -1.13626 2.90681 0
M  V30 4833 N 455.255 -1.55392 -0.262866 0
M  V30 4834 C 456.48 -1.80847 -1.01533 0
M  V30 4835 C 456.905 -0.584946 -1.78774 0
M  V30 4836 O 456.263 0.465701 -1.75217 0
M  V30 4837 C 456.311 -3.03866 -1.94159 0
M  V30 4838 O 455.415 -2.79662 -3.03089 0
M  V30 4839 H 454.756 -0.597441 -0.289759 0
M  V30 4840 H 457.286 -2.02553 -0.288698 0
M  V30 4841 H 457.296 -3.32872 -2.35924 0
M  V30 4842 H 455.971 -3.92564 -1.37354 0
M  V30 4843 H 454.548 -2.61781 -2.65566 0
M  V30 4844 N 456.733 0.527833 -1.48498 0
M  V30 4845 C 457.666 1.64892 -1.57753 0
M  V30 4846 C 458.644 1.5687 -0.427867 0
M  V30 4847 O 459.828 1.77311 -0.639764 0
M  V30 4848 C 456.955 3.03301 -1.50752 0
M  V30 4849 C 456.001 3.29675 -2.70586 0
M  V30 4850 S 456.834 3.15712 -4.32535 0
M  V30 4851 C 457.99 4.56564 -4.28136 0
M  V30 4852 H 458.223 1.56792 -2.52594 0
M  V30 4853 H 455.756 0.710959 -1.37057 0
M  V30 4854 H 457.714 3.83123 -1.474 0
M  V30 4855 H 456.375 3.08839 -0.572454 0
M  V30 4856 H 455.568 4.3065 -2.61833 0
M  V30 4857 H 455.17 2.57526 -2.71212 0
M  V30 4858 H 457.462 5.48126 -3.98201 0
M  V30 4859 H 458.405 4.70371 -5.29298 0
M  V30 4860 H 458.813 4.35987 -3.58574 0
M  V30 4861 N 458.211 1.37122 0.776871 0
M  V30 4862 C 459.457 1.32243 1.53752 0
M  V30 4863 C 459.79 -0.0944745 1.9397 0
M  V30 4864 O 459.065 -1.05068 1.6368 0
M  V30 4865 C 459.348 2.25681 2.80607 0
M  V30 4866 C 459.201 3.76127 2.46676 0
M  V30 4867 C 460.52 2.17657 3.82509 0
M  V30 4868 H 457.639 0.481704 0.557791 0
M  V30 4869 H 460.281 1.6778 0.891612 0
M  V30 4870 H 458.431 1.95505 3.35723 0
M  V30 4871 H 460.103 4.16877 1.97513 0
M  V30 4872 H 458.346 3.94946 1.79443 0
M  V30 4873 H 459.017 4.36933 3.37333 0
M  V30 4874 H 461.493 2.44245 3.36873 0
M  V30 4875 H 460.369 2.85185 4.69 0
M  V30 4876 H 460.63 1.16785 4.26396 0
M  V30 4877 N 459.689 -1.00246 1.21608 0
M  V30 4878 C 460.914 -1.78167 1.06167 0
M  V30 4879 C 461.339 -1.84138 -0.384035 0
M  V30 4880 O 460.697 -1.28683 -1.27712 0
M  V30 4881 C 460.745 -3.19786 1.66642 0
M  V30 4882 O 459.849 -4.02153 0.913613 0
M  V30 4883 H 459.19 -0.549 0.37349 0
M  V30 4884 H 461.72 -1.25994 1.61204 0
M  V30 4885 H 461.73 -3.70451 1.70969 0
M  V30 4886 H 460.405 -3.14754 2.7185 0
M  V30 4887 H 458.982 -3.60711 0.945635 0
M  V30 4888 N 461.167 -1.02423 -1.1978 0
M  V30 4889 C 462.077 -0.610919 -2.26506 0
M  V30 4890 C 463.093 0.355152 -1.70337 0
M  V30 4891 O 464.269 0.214195 -2.00258 0
M  V30 4892 C 461.334 0.0365921 -3.46681 0
M  V30 4893 C 460.395 -0.976389 -4.18049 0
M  V30 4894 C 459.628 -0.359683 -5.32487 0
M  V30 4895 O 459.851 0.838601 -5.64202 0
M  V30 4896 O 458.785 -1.08022 -5.92127 0
M  V30 4897 H 462.611 -1.49965 -2.64091 0
M  V30 4898 H 460.196 -0.794156 -1.26545 0
M  V30 4899 H 462.078 0.39786 -4.19518 0
M  V30 4900 H 460.753 0.899398 -3.10954 0
M  V30 4901 H 459.66 -1.38916 -3.47352 0
M  V30 4902 H 460.993 -1.80941 -4.57735 0
M  V30 4903 N 462.645 1.35699 -0.801477 0
M  V30 4904 C 463.894 1.98165 -0.375979 0
M  V30 4905 C 464.207 1.64306 1.06127 0
M  V30 4906 O 465.413 2.20097 1.58964 0
M  V30 4907 C 463.869 3.54497 -0.621305 0
M  V30 4908 C 463.477 3.9727 -2.07076 0
M  V30 4909 C 465.221 4.23697 -0.26091 0
M  V30 4910 C 463.128 5.46427 -2.26211 0
M  V30 4911 H 462.058 0.741478 -0.136844 0
M  V30 4912 H 464.709 1.54834 -0.984814 0
M  V30 4913 H 463.091 3.95958 0.0574112 0
M  V30 4914 H 464.265 3.66974 -2.78687 0
M  V30 4915 H 462.58 3.40943 -2.39054 0
M  V30 4916 H 465.177 5.33334 -0.381994 0
M  V30 4917 H 465.52 4.0869 0.792344 0
M  V30 4918 H 466.053 3.87639 -0.893339 0
M  V30 4919 H 462.792 5.66396 -3.29963 0
M  V30 4920 H 462.312 5.78309 -1.59119 0
M  V30 4921 H 463.991 6.12819 -2.07513 0
M  V30 4922 N 464.123 0.554532 1.47522 0
M  V30 4923 C 465.534 0.120446 1.86311 0
M  V30 4924 C 465.885 -1.30904 1.46145 0
M  V30 4925 O 465.01 -1.98434 0.863294 0
M  V30 4926 C 465.605 0.211808 3.38137 0
M  V30 4927 C 464.164 -0.167224 3.76028 0
M  V30 4928 C 463.311 0.560576 2.71575 0
M  V30 4929 H 466.262 0.764408 1.39077 0
M  V30 4930 H 466.283 -0.570275 3.76202 0
M  V30 4931 H 465.795 1.25232 3.6734 0
M  V30 4932 H 463.896 -1.20894 3.52442 0
M  V30 4933 H 464.009 0.189473 4.78725 0
M  V30 4934 H 462.373 0.00396836 2.547 0
M  V30 4935 H 463.156 1.60219 3.0362 0
M  V30 4936 N 465.601 -1.54893 0.290851 0
M  V30 4937 C 466.511 -2.26812 -0.59945 0
M  V30 4938 C 467.527 -1.29963 -1.15696 0
M  V30 4939 O 468.703 -1.62928 -1.18391 0
M  V30 4940 C 465.768 -2.98716 -1.75982 0
M  V30 4941 C 464.829 -4.1108 -1.2374 0
M  V30 4942 C 464.062 -4.79546 -2.34246 0
M  V30 4943 O 464.285 -4.47309 -3.53936 0
M  V30 4944 O 463.219 -5.67165 -2.01512 0
M  V30 4945 H 467.045 -3.03696 -0.0163561 0
M  V30 4946 H 464.63 -1.49289 0.0576755 0
M  V30 4947 H 466.512 -3.43851 -2.43607 0
M  V30 4948 H 465.187 -2.24737 -2.3297 0
M  V30 4949 H 464.094 -3.70367 -0.527163 0
M  V30 4950 H 465.427 -4.87007 -0.71307 0
M  V30 4951 N 467.08 -0.0183926 -1.57589 0
M  V30 4952 C 468.027 0.967022 -2.09565 0
M  V30 4953 C 468.997 1.32983 -0.995225 0
M  V30 4954 O 470.182 1.42501 -1.26878 0
M  V30 4955 C 467.322 2.24772 -2.61861 0
M  V30 4956 C 466.435 1.94232 -3.85873 0
M  V30 4957 C 465.57 3.16518 -4.26603 0
M  V30 4958 C 464.609 2.81748 -5.43401 0
M  V30 4959 N 463.746 3.96626 -5.79338 0
M  V30 4960 H 468.586 0.516874 -2.93483 0
M  V30 4961 H 466.123 0.243544 -1.4507 0
M  V30 4962 H 468.081 2.99667 -2.90268 0
M  V30 4963 H 466.711 2.67423 -1.8079 0
M  V30 4964 H 465.763 1.09625 -3.64262 0
M  V30 4965 H 467.075 1.64616 -4.70853 0
M  V30 4966 H 466.229 3.99743 -4.56389 0
M  V30 4967 H 464.968 3.49286 -3.40368 0
M  V30 4968 H 463.973 1.96933 -5.1332 0
M  V30 4969 H 465.198 2.50207 -6.31327 0
M  V30 4970 H 463.144 4.29257 -4.96059 0
M  V30 4971 H 463.061 3.70598 -6.58933 0
M  V30 4972 H 464.329 4.80586 -6.13724 0
M  V30 4973 N 468.558 1.5553 0.254621 0
M  V30 4974 C 469.505 1.89666 1.31512 0
M  V30 4975 C 470.475 0.750057 1.482 0
M  V30 4976 O 471.66 1.00301 1.62309 0
M  V30 4977 C 468.8 2.19009 2.667 0
M  V30 4978 C 467.913 3.46435 2.58083 0
M  V30 4979 C 467.048 3.65386 3.85573 0
M  V30 4980 C 466.087 4.8644 3.71541 0
M  V30 4981 N 465.224 5.01952 4.90906 0
M  V30 4982 H 470.064 2.80109 1.017 0
M  V30 4983 H 467.601 1.38666 0.490938 0
M  V30 4984 H 469.559 2.34025 3.45381 0
M  V30 4985 H 468.189 1.31779 2.94676 0
M  V30 4986 H 467.241 3.39792 1.71013 0
M  V30 4987 H 468.553 4.35258 2.43622 0
M  V30 4988 H 467.707 3.80319 4.72697 0
M  V30 4989 H 466.446 2.74781 4.02922 0
M  V30 4990 H 465.451 4.71491 2.82801 0
M  V30 4991 H 466.676 5.78497 3.55694 0
M  V30 4992 H 464.622 4.14283 5.08631 0
M  V30 4993 H 464.539 5.84851 4.79046 0
M  V30 4994 H 465.807 5.21289 5.7955 0
M  V30 4995 N 470.036 -0.519951 1.48776 0
M  V30 4996 C 470.999 -1.60574 1.6355 0
M  V30 4997 C 471.999 -1.52557 0.508234 0
M  V30 4998 O 473.189 -1.56047 0.774262 0
M  V30 4999 C 470.321 -3.00211 1.61512 0
M  V30 5000 H 471.514 -1.4881 2.60376 0
M  V30 5001 H 469.067 -0.742772 1.37523 0
M  V30 5002 H 469.802 -3.17471 0.662009 0
M  V30 5003 H 469.587 -3.07439 2.43359 0
M  V30 5004 H 471.077 -3.79134 1.75064 0
M  V30 5005 N 471.514 -1.37532 -0.769588 0
M  V30 5006 C 472.447 -1.27839 -1.8903 0
M  V30 5007 C 473.425 -0.158504 -1.61826 0
M  V30 5008 O 474.609 -0.333086 -1.85534 0
M  V30 5009 C 471.736 -0.977072 -3.24301 0
M  V30 5010 C 470.782 -2.11414 -3.70414 0
M  V30 5011 S 471.615 -3.73409 -3.83831 0
M  V30 5012 C 472.771 -3.45432 -5.21946 0
M  V30 5013 H 473.004 -2.22694 -1.96963 0
M  V30 5014 H 470.537 -1.2318 -0.930914 0
M  V30 5015 H 472.495 -0.810049 -4.02428 0
M  V30 5016 H 471.156 -0.0459701 -3.14066 0
M  V30 5017 H 470.349 -1.85837 -4.68488 0
M  V30 5018 H 469.951 -2.24141 -2.99394 0
M  V30 5019 H 472.243 -3.00554 -6.07185 0
M  V30 5020 H 473.186 -4.42841 -5.52537 0
M  V30 5021 H 473.594 -2.80311 -4.89986 0
M  V30 5022 N 472.992 0.995999 -1.22138 0
M  V30 5023 C 473.955 2.06711 -0.990109 0
M  V30 5024 C 474.955 1.60744 0.0422978 0
M  V30 5025 O 476.145 1.73095 -0.195895 0
M  V30 5026 C 473.277 3.37288 -0.49491 0
M  V30 5027 H 474.47 2.28661 -1.94047 0
M  V30 5028 H 472.023 1.16711 -1.03963 0
M  V30 5029 H 472.758 3.21022 0.459948 0
M  V30 5030 H 472.543 3.71986 -1.23971 0
M  V30 5031 H 474.033 4.16103 -0.353253 0
M  V30 5032 N 474.47 1.03057 1.19235 0
M  V30 5033 C 475.719 0.72326 1.88287 0
M  V30 5034 C 476.032 -0.751333 1.80594 0
M  V30 5035 O 477.238 -1.17176 2.44912 0
M  V30 5036 C 475.694 1.24338 3.3774 0
M  V30 5037 C 475.302 2.74587 3.53986 0
M  V30 5038 C 477.046 1.01213 4.12257 0
M  V30 5039 C 474.953 3.20009 4.97341 0
M  V30 5040 H 473.883 0.266848 0.705201 0
M  V30 5041 H 476.534 1.24509 1.34795 0
M  V30 5042 H 474.916 0.649457 3.90638 0
M  V30 5043 H 476.09 3.39649 3.11408 0
M  V30 5044 H 474.405 2.9601 2.9286 0
M  V30 5045 H 477.002 1.32675 5.17978 0
M  V30 5046 H 477.345 -0.051001 4.16269 0
M  V30 5047 H 477.878 1.57014 3.65501 0
M  V30 5048 H 474.617 4.25659 4.98493 0
M  V30 5049 H 474.137 2.59676 5.40674 0
M  V30 5050 H 475.816 3.13447 5.66003 0
M  V30 5051 N 475.948 -1.35272 0.808662 0
M  V30 5052 C 476.911 -2.28082 0.226093 0
M  V30 5053 C 477.911 -1.49673 -0.587762 0
M  V30 5054 O 479.101 -1.69404 -0.405943 0
M  V30 5055 C 476.233 -3.33955 -0.684596 0
M  V30 5056 H 477.426 -2.81116 1.04469 0
M  V30 5057 H 474.979 -1.45162 0.579466 0
M  V30 5058 H 475.714 -2.86111 -1.5268 0
M  V30 5059 H 475.499 -3.91965 -0.102699 0
M  V30 5060 H 476.989 -4.03219 -1.08646 0
M  V30 5061 N 477.426 -0.562348 -1.47226 0
M  V30 5062 C 478.703 0.0256985 -1.95583 0
M  V30 5063 C 479.083 1.48032 -1.50498 0
M  V30 5064 O 478.431 2.15973 -0.746181 0
M  V30 5065 C 478.641 -0.125129 -3.48776 0
M  V30 5066 C 479.989 0.0175728 -4.24596 0
M  V30 5067 O 481.013 -0.0529341 -3.56161 0
M  V30 5068 O 479.872 0.170145 -5.46235 0
M  V30 5069 H 476.966 0.0612565 -0.824728 0
M  V30 5070 H 479.512 -0.629233 -1.57603 0
M  V30 5071 H 478.284 -1.13715 -3.74412 0
M  V30 5072 H 477.907 0.567178 -3.93534 0
M  V30 5073 N 478.904 1.54736 -0.299062 0
M  V30 5074 C 479.867 2.22127 0.565012 0
M  V30 5075 C 480.867 1.20669 1.06281 0
M  V30 5076 O 482.057 1.45417 0.959145 0
M  V30 5077 C 479.189 2.90611 1.78208 0
M  V30 5078 H 480.382 2.99891 -0.0237448 0
M  V30 5079 H 477.935 1.5622 -0.0498788 0
M  V30 5080 H 478.67 2.16921 2.41072 0
M  V30 5081 H 478.455 3.64984 1.43281 0
M  V30 5082 H 479.945 3.42026 2.396 0
M  V30 5083 N 480.382 0.0267497 1.57577 0
M  V30 5084 C 481.312 -0.954308 2.13108 0
M  V30 5085 C 482.293 -1.34088 1.04663 0
M  V30 5086 O 483.478 -1.41992 1.32484 0
M  V30 5087 C 480.608 -2.23744 2.65624 0
M  V30 5088 C 479.562 -1.99168 3.78835 0
M  V30 5089 C 478.888 -3.33726 4.17769 0
M  V30 5090 C 480.188 -1.33277 5.0501 0
M  V30 5091 H 481.882 -0.491848 2.95332 0
M  V30 5092 H 479.428 -0.23514 1.42067 0
M  V30 5093 H 481.381 -2.92754 3.03106 0
M  V30 5094 H 480.105 -2.72151 1.80558 0
M  V30 5095 H 478.764 -1.32577 3.41788 0
M  V30 5096 H 478.412 -3.79888 3.29688 0
M  V30 5097 H 478.112 -3.18089 4.94058 0
M  V30 5098 H 479.636 -4.04008 4.57832 0
M  V30 5099 H 481.05 -1.92283 5.40093 0
M  V30 5100 H 479.447 -1.28045 5.8628 0
M  V30 5101 H 480.517 -0.305411 4.83937 0
M  V30 5102 N 481.861 -1.55662 -0.24637 0
M  V30 5103 C 483.109 -1.77168 -0.972411 0
M  V30 5104 C 483.43 -0.590827 -1.85834 0
M  V30 5105 O 482.7 0.393365 -1.9191 0
M  V30 5106 H 481.28 -0.653405 -0.362038 0
M  V30 5107 H 483.942 -1.93101 -0.264189 0
M  V30 5108 H 483.038 -2.68335 -1.59382 0
M  V30 5109 N 483.339 0.512053 -1.4905 0
M  V30 5110 C 484.286 1.6148 -1.64902 0
M  V30 5111 C 485.256 1.58687 -0.490673 0
M  V30 5112 O 486.441 1.76842 -0.71636 0
M  V30 5113 C 483.581 2.99676 -1.71139 0
M  V30 5114 C 482.694 3.12568 -2.98203 0
M  V30 5115 C 481.829 4.4143 -2.95487 0
M  V30 5116 C 480.868 4.47916 -4.17179 0
M  V30 5117 N 480.005 5.68191 -4.12437 0
M  V30 5118 H 484.845 1.47271 -2.59066 0
M  V30 5119 H 482.382 0.716713 -1.28459 0
M  V30 5120 H 484.34 3.79761 -1.72736 0
M  V30 5121 H 482.97 3.12614 -0.804508 0
M  V30 5122 H 482.022 2.25618 -3.06269 0
M  V30 5123 H 483.334 3.1322 -3.88194 0
M  V30 5124 H 482.488 5.29825 -2.95585 0
M  V30 5125 H 481.227 4.43326 -2.03256 0
M  V30 5126 H 480.232 3.57925 -4.17337 0
M  V30 5127 H 481.457 4.47744 -5.1059 0
M  V30 5128 H 479.403 5.7095 -3.23036 0
M  V30 5129 H 479.32 5.70413 -4.96151 0
M  V30 5130 H 480.588 6.58823 -4.16621 0
M  V30 5131 N 484.817 1.37938 0.762283 0
M  V30 5132 C 486.066 1.32989 1.51647 0
M  V30 5133 C 486.379 -0.0802922 1.95435 0
M  V30 5134 O 487.585 -0.252295 2.70325 0
M  V30 5135 C 486.041 2.33485 2.73885 0
M  V30 5136 C 485.649 3.80079 2.37157 0
M  V30 5137 C 487.393 2.37563 3.51801 0
M  V30 5138 C 485.3 4.72283 3.55954 0
M  V30 5139 H 484.23 0.494301 0.56937 0
M  V30 5140 H 486.881 1.63448 0.834083 0
M  V30 5141 H 485.263 1.96056 3.44061 0
M  V30 5142 H 486.437 4.26398 1.74704 0
M  V30 5143 H 484.752 3.79037 1.72395 0
M  V30 5144 H 487.349 3.0365 4.40114 0
M  V30 5145 H 487.692 1.39199 3.92338 0
M  V30 5146 H 488.225 2.73747 2.8863 0
M  V30 5147 H 484.964 5.7181 3.2049 0
M  V30 5148 H 484.484 4.30663 4.1748 0
M  V30 5149 H 486.163 4.89876 4.22647 0
M  V30 5150 N 486.295 -0.989507 1.22664 0
M  V30 5151 C 487.706 -1.54406 1.04955 0
M  V30 5152 C 488.057 -1.92366 -0.385951 0
M  V30 5153 O 487.182 -1.75111 -1.27142 0
M  V30 5154 C 487.777 -2.80578 1.89899 0
M  V30 5155 C 486.336 -3.32464 1.76478 0
M  V30 5156 C 485.483 -2.05524 1.86159 0
M  V30 5157 H 488.434 -0.810211 1.3646 0
M  V30 5158 H 488.455 -3.53075 1.4184 0
M  V30 5159 H 487.967 -2.52918 2.94371 0
M  V30 5160 H 486.068 -3.65024 0.747528 0
M  V30 5161 H 486.181 -4.02838 2.59342 0
M  V30 5162 H 484.545 -2.19241 1.29636 0
M  V30 5163 H 485.328 -1.80258 2.92168 0
M  V30 5164 N 487.773 -1.03688 -1.18687 0
M  V30 5165 C 488.705 -0.582696 -2.21669 0
M  V30 5166 C 489.718 0.345656 -1.59088 0
M  V30 5167 O 490.907 0.140776 -1.77944 0
M  V30 5168 C 488.007 0.169204 -3.38477 0
M  V30 5169 C 487.18 -0.766079 -4.30639 0
M  V30 5170 C 486.239 -0.0581541 -5.26168 0
M  V30 5171 O 485.265 -0.687346 -5.65035 0
M  V30 5172 N 486.467 1.20981 -5.67753 0
M  V30 5173 H 489.232 -1.46843 -2.61261 0
M  V30 5174 H 486.793 -0.916896 -1.33434 0
M  V30 5175 H 488.785 0.652543 -3.99405 0
M  V30 5176 H 487.355 0.956435 -2.97609 0
M  V30 5177 H 486.575 -1.42935 -3.67373 0
M  V30 5178 H 487.863 -1.40146 -4.89118 0
M  V30 5179 H 487.261 1.74159 -5.38224 0
M  V30 5180 H 485.818 1.6375 -6.30896 0
M  V30 5181 N 489.251 1.34841 -0.815825 0
M  V30 5182 C 490.479 2.0273 -0.413294 0
M  V30 5183 C 490.894 1.61459 0.978599 0
M  V30 5184 O 490.251 0.816584 1.63212 0
M  V30 5185 C 490.302 3.58058 -0.497676 0
M  V30 5186 O 490.023 3.97832 -1.8347 0
M  V30 5187 C 491.524 4.4321 -0.0891339 0
M  V30 5188 H 488.744 0.649956 -0.166728 0
M  V30 5189 H 491.288 1.72267 -1.10201 0
M  V30 5190 H 489.443 3.87136 0.142886 0
M  V30 5191 H 489.857 4.92501 -1.80396 0
M  V30 5192 H 491.331 5.5164 -0.199274 0
M  V30 5193 H 491.808 4.28432 0.966571 0
M  V30 5194 H 492.414 4.19446 -0.703214 0
M  V30 5195 N 490.729 0.570148 1.46925 0
M  V30 5196 C 491.975 0.0510284 2.02736 0
M  V30 5197 C 492.308 -1.3006 1.44215 0
M  V30 5198 O 491.583 -1.84932 0.602521 0
M  V30 5199 C 491.866 -0.028215 3.60089 0
M  V30 5200 C 491.719 1.35142 4.29018 0
M  V30 5201 C 493.038 -0.735181 4.33916 0
M  V30 5202 H 490.157 0.0200178 0.736728 0
M  V30 5203 H 492.799 0.73493 1.75211 0
M  V30 5204 H 490.949 -0.610648 3.83671 0
M  V30 5205 H 492.621 1.97806 4.16738 0
M  V30 5206 H 490.864 1.9226 3.88868 0
M  V30 5207 H 491.535 1.24857 5.37694 0
M  V30 5208 H 494.011 -0.240519 4.15404 0
M  V30 5209 H 492.887 -0.759622 5.43618 0
M  V30 5210 H 493.148 -1.79397 4.04066 0
M  V30 5211 N 492.207 -1.54576 0.307264 0
M  V30 5212 C 493.137 -2.26708 -0.55907 0
M  V30 5213 C 494.118 -1.26893 -1.1328 0
M  V30 5214 O 495.303 -1.55677 -1.16097 0
M  V30 5215 C 492.433 -3.01259 -1.72801 0
M  V30 5216 C 491.387 -4.08275 -1.28435 0
M  V30 5217 C 490.713 -4.70575 -2.53895 0
M  V30 5218 C 492.013 -5.2068 -0.411038 0
M  V30 5219 H 493.707 -2.9937 0.042576 0
M  V30 5220 H 491.253 -1.43983 0.0219173 0
M  V30 5221 H 493.206 -3.50444 -2.34023 0
M  V30 5222 H 491.93 -2.26187 -2.356 0
M  V30 5223 H 490.589 -3.59949 -0.695161 0
M  V30 5224 H 490.237 -3.92136 -3.15021 0
M  V30 5225 H 489.937 -5.42854 -2.24908 0
M  V30 5226 H 491.461 -5.22527 -3.15908 0
M  V30 5227 H 492.875 -5.65721 -0.929097 0
M  V30 5228 H 491.272 -5.99716 -0.214664 0
M  V30 5229 H 492.342 -4.81629 0.562287 0
M  V30 5230 N 493.685 -0.035106 -1.57561 0
M  V30 5231 C 494.931 0.637362 -1.93156 0
M  V30 5232 C 495.286 1.69391 -0.912392 0
M  V30 5233 O 494.579 1.91469 0.070735 0
M  V30 5234 C 494.773 1.29149 -3.3325 0
M  V30 5235 C 494.602 0.29983 -4.48699 0
M  V30 5236 C 493.372 -0.102454 -5.05196 0
M  V30 5237 C 495.57 -0.448297 -5.12342 0
M  V30 5238 N 493.552 -1.08866 -6.0417 0
M  V30 5239 C 494.923 -1.28807 -6.06472 0
M  V30 5240 C 496.978 -0.508351 -4.95298 0
M  V30 5241 C 495.681 -2.18248 -6.85391 0
M  V30 5242 C 497.707 -1.39013 -5.7483 0
M  V30 5243 C 497.069 -2.21766 -6.6858 0
M  V30 5244 H 493.168 0.205358 -0.754554 0
M  V30 5245 H 495.752 -0.103682 -1.94424 0
M  V30 5246 H 493.923 2.00264 -3.3279 0
M  V30 5247 H 495.655 1.92147 -3.56177 0
M  V30 5248 H 492.41 0.273223 -4.72811 0
M  V30 5249 H 492.834 -1.57817 -6.58348 0
M  V30 5250 H 497.476 0.117197 -4.22638 0
M  V30 5251 H 495.194 -2.81855 -7.57353 0
M  V30 5252 H 498.78 -1.44096 -5.63673 0
M  V30 5253 H 497.66 -2.88892 -7.29048 0
M  V30 5254 N 495.163 1.55791 0.238111 0
M  V30 5255 C 496.579 1.48411 0.587045 0
M  V30 5256 C 496.779 0.72702 1.87927 0
M  V30 5257 O 495.835 0.259942 2.51158 0
M  V30 5258 C 497.148 2.92873 0.681623 0
M  V30 5259 C 498.696 3.03295 0.773363 0
M  V30 5260 C 499.171 4.49082 0.899428 0
M  V30 5261 N 500.662 4.53056 0.964075 0
M  V30 5262 C 501.397 5.63117 1.08104 0
M  V30 5263 N 500.893 6.82969 1.16299 0
M  V30 5264 N 502.686 5.50933 1.11488 0
M  V30 5265 H 494.837 2.0345 -0.610076 0
M  V30 5266 H 497.1 0.924034 -0.211813 0
M  V30 5267 H 496.806 3.51142 -0.19802 0
M  V30 5268 H 496.68 3.43851 1.55069 0
M  V30 5269 H 499.067 2.45101 1.64346 0
M  V30 5270 H 499.148 2.55513 -0.121034 0
M  V30 5271 H 498.792 5.07889 0.0338586 0
M  V30 5272 H 498.722 4.94553 1.809 0
M  V30 5273 H 501.213 3.66737 0.91173 0
M  V30 5274 H 501.526 7.62598 1.25155 0
M  V30 5275 H 499.871 6.85712 1.13241 0
M  V30 5276 H 503.062 4.56231 1.0474 0
M  V30 5277 H 503.235 6.36743 1.20259 0
M  V30 5278 N 496.642 -0.504142 1.49319 0
M  V30 5279 C 497.872 -1.28071 1.62116 0
M  V30 5280 C 498.28 -1.86955 0.290566 0
M  V30 5281 O 497.623 -1.68415 -0.733616 0
M  V30 5282 C 497.685 -2.4521 2.62893 0
M  V30 5283 C 497.349 -2.07218 4.0732 0
M  V30 5284 C 498.346 -1.61375 4.94221 0
M  V30 5285 C 496.031 -2.16949 4.53033 0
M  V30 5286 C 498.025 -1.25763 6.2487 0
M  V30 5287 C 495.712 -1.80949 5.83696 0
M  V30 5288 C 496.71 -1.3543 6.69438 0
M  V30 5289 O 496.398 -0.99915 7.97667 0
M  V30 5290 H 496.13 -0.394763 0.54876 0
M  V30 5291 H 498.684 -0.612118 1.96067 0
M  V30 5292 H 496.914 -3.15134 2.24115 0
M  V30 5293 H 498.603 -3.0724 2.65252 0
M  V30 5294 H 499.369 -1.53306 4.60133 0
M  V30 5295 H 495.248 -2.5133 3.86463 0
M  V30 5296 H 498.792 -0.901631 6.91749 0
M  V30 5297 H 494.689 -1.88667 6.17313 0
M  V30 5298 H 495.457 -1.13089 8.1065 0
M  V30 5299 N 498.12 -1.38341 -0.754957 0
M  V30 5300 C 499.348 -1.37704 -1.54419 0
M  V30 5301 C 499.763 0.0335243 -1.8877 0
M  V30 5302 O 499.12 0.999773 -1.52679 0
M  V30 5303 C 499.171 -2.23136 -2.84416 0
M  V30 5304 O 498.892 -3.58697 -2.51531 0
M  V30 5305 C 500.393 -2.30664 -3.78562 0
M  V30 5306 H 497.613 -0.471061 -0.477852 0
M  V30 5307 H 500.157 -1.81902 -0.934446 0
M  V30 5308 H 498.312 -1.82403 -3.41772 0
M  V30 5309 H 498.726 -4.03665 -3.34896 0
M  V30 5310 H 500.2 -2.9473 -4.66732 0
M  V30 5311 H 500.677 -1.3199 -4.18898 0
M  V30 5312 H 501.283 -2.71781 -3.27131 0
M  V30 5313 N 499.598 0.982988 -1.23187 0
M  V30 5314 C 500.846 1.72052 -1.06031 0
M  V30 5315 C 501.167 1.90769 0.404019 0
M  V30 5316 O 500.437 1.47446 1.28982 0
M  V30 5317 H 499.017 0.637499 -0.389363 0
M  V30 5318 H 501.679 1.18338 -1.54862 0
M  V30 5319 H 500.775 2.7111 -1.54615 0
M  V30 5320 N 501.076 1.04316 1.18135 0
M  V30 5321 C 502.304 0.768117 1.92113 0
M  V30 5322 C 502.719 -0.675057 1.76319 0
M  V30 5323 O 502.076 -1.46038 1.09449 0
M  V30 5324 C 502.127 1.12808 3.43448 0
M  V30 5325 O 501.848 2.5146 3.58747 0
M  V30 5326 C 503.349 0.8779 4.3452 0
M  V30 5327 H 500.569 0.279937 0.609817 0
M  V30 5328 H 503.113 1.39149 1.49859 0
M  V30 5329 H 501.268 0.549623 3.83481 0
M  V30 5330 H 501.682 2.65313 4.52448 0
M  V30 5331 H 503.156 1.17959 5.39249 0
M  V30 5332 H 503.633 -0.187239 4.38801 0
M  V30 5333 H 504.239 1.43977 4.00188 0
M  V30 5334 N 502.554 -1.34406 0.822964 0
M  V30 5335 C 503.97 -1.51275 0.508727 0
M  V30 5336 C 504.17 -1.76776 -0.967083 0
M  V30 5337 O 503.226 -1.81871 -1.75155 0
M  V30 5338 C 504.539 -2.67765 1.36829 0
M  V30 5339 C 506.087 -2.81647 1.36542 0
M  V30 5340 C 506.562 -4.01181 2.20947 0
M  V30 5341 N 508.053 -4.08388 2.18571 0
M  V30 5342 C 508.788 -5.00036 2.80627 0
M  V30 5343 N 508.284 -5.96906 3.51674 0
M  V30 5344 N 510.077 -4.92908 2.70181 0
M  V30 5345 H 502.228 -1.16113 1.77852 0
M  V30 5346 H 504.491 -0.56947 0.757897 0
M  V30 5347 H 504.197 -2.55551 2.41633 0
M  V30 5348 H 504.071 -3.62779 1.03303 0
M  V30 5349 H 506.458 -2.93303 0.325163 0
M  V30 5350 H 506.539 -1.87443 1.74066 0
M  V30 5351 H 506.183 -3.90286 3.25022 0
M  V30 5352 H 506.113 -4.94599 1.80774 0
M  V30 5353 H 508.604 -3.39051 1.66891 0
M  V30 5354 H 508.917 -6.63468 3.96271 0
M  V30 5355 H 507.262 -5.9703 3.5578 0
M  V30 5356 H 510.453 -4.1619 2.14251 0
M  V30 5357 H 510.626 -5.64137 3.18831 0
M  V30 5358 N 504.032 -0.577932 -1.46621 0
M  V30 5359 C 505.443 -0.150071 -1.86096 0
M  V30 5360 C 505.794 1.28563 -1.48209 0
M  V30 5361 O 504.919 1.97036 -0.894754 0
M  V30 5362 C 505.514 -0.265576 -3.37758 0
M  V30 5363 C 504.073 0.10738 -3.76247 0
M  V30 5364 C 503.22 -0.603711 -2.70649 0
M  V30 5365 H 506.171 -0.786438 -1.37844 0
M  V30 5366 H 506.192 0.510352 -3.77062 0
M  V30 5367 H 505.704 -1.3106 -3.65301 0
M  V30 5368 H 503.805 1.15272 -3.54321 0
M  V30 5369 H 503.918 -0.26561 -4.78363 0
M  V30 5370 H 502.282 -0.0444884 -2.54661 0
M  V30 5371 H 503.065 -1.65029 -3.01032 0
M  V30 5372 N 505.51 1.54411 -0.315457 0
M  V30 5373 C 506.735 2.05299 0.294496 0
M  V30 5374 C 507.16 1.19052 1.4563 0
M  V30 5375 O 506.518 0.197804 1.80218 0
M  V30 5376 C 506.566 3.5345 0.714549 0
M  V30 5377 O 505.67 3.70175 1.81781 0
M  V30 5378 H 505.011 0.661743 0.0547019 0
M  V30 5379 H 507.541 1.99327 -0.461508 0
M  V30 5380 H 507.551 3.9557 0.999426 0
M  V30 5381 H 506.226 4.1568 -0.135244 0
M  V30 5382 H 504.803 3.3996 1.53236 0
M  V30 5383 N 506.988 0.0434614 1.5754 0
M  V30 5384 C 507.936 -0.951465 2.1225 0
M  V30 5385 C 508.93 -1.3274 1.05245 0
M  V30 5386 O 510.136 -1.30795 1.23663 0
M  V30 5387 H 506.511 -0.324667 0.678303 0
M  V30 5388 H 508.482 -0.464855 2.94757 0
M  V30 5389 C 507.231 -2.21972 2.67626 0
M  V30 5390 H 506.554 -1.93923 3.4962 0
M  V30 5391 H 507.994 -2.89765 3.09536 0
M  V30 5392 C 506.453 -2.95919 1.61038 0
M  V30 5393 O 506.983 -3.8857 1.01862 0
M  V30 5394 N 505.189 -2.58511 1.32741 0
M  V30 5395 H 504.736 -1.83244 1.81051 0
M  V30 5396 H 504.694 -3.08296 0.616531 0
M  V30 5397 N 508.466 -1.55915 -0.229846 0
M  V30 5398 C 509.396 -1.94754 -1.28815 0
M  V30 5399 C 510.377 -0.814657 -1.49323 0
M  V30 5400 O 511.562 -1.07631 -1.61645 0
M  V30 5401 C 508.692 -2.25705 -2.63959 0
M  V30 5402 C 507.646 -3.41406 -2.5812 0
M  V30 5403 C 506.972 -3.57941 -3.97218 0
M  V30 5404 C 508.272 -4.76616 -2.13623 0
M  V30 5405 H 509.966 -2.83404 -0.965547 0
M  V30 5406 H 507.512 -1.36353 -0.463028 0
M  V30 5407 H 509.465 -2.51467 -3.38146 0
M  V30 5408 H 508.189 -1.339 -2.9789 0
M  V30 5409 H 506.848 -3.1568 -1.86391 0
M  V30 5410 H 506.496 -2.63526 -4.28443 0
M  V30 5411 H 506.196 -4.35757 -3.94195 0
M  V30 5412 H 507.72 -3.86042 -4.73079 0
M  V30 5413 H 509.134 -5.01637 -2.77549 0
M  V30 5414 H 507.531 -5.57655 -2.21677 0
M  V30 5415 H 508.601 -4.7253 -1.08829 0
M  V30 5416 N 509.944 0.496216 -1.49584 0
M  V30 5417 C 510.907 1.57952 -1.66084 0
M  V30 5418 C 511.907 1.51729 -0.53244 0
M  V30 5419 O 513.097 1.54796 -0.79899 0
M  V30 5420 C 510.229 2.97604 -1.66268 0
M  V30 5421 H 511.422 1.44649 -2.6271 0
M  V30 5422 H 508.975 0.7208 -1.38687 0
M  V30 5423 H 509.71 3.16378 -0.712432 0
M  V30 5424 H 509.495 3.03528 -2.4822 0
M  V30 5425 H 510.985 3.76301 -1.81073 0
M  V30 5426 N 511.423 1.38739 0.74761 0
M  V30 5427 C 512.371 1.36573 1.88283 0
M  V30 5428 C 513.365 0.250712 1.67534 0
M  V30 5429 O 514.571 0.420073 1.7503 0
M  V30 5430 H 510.946 0.42619 0.619569 0
M  V30 5431 H 512.917 2.32356 1.87226 0
M  V30 5432 C 511.666 1.21361 3.25832 0
M  V30 5433 H 510.989 2.06424 3.42388 0
M  V30 5434 H 512.429 1.23901 4.05493 0
M  V30 5435 C 510.888 -0.0790099 3.36807 0
M  V30 5436 O 511.418 -1.05385 3.8763 0
M  V30 5437 N 509.624 -0.13785 2.90273 0
M  V30 5438 H 509.171 0.656128 2.49104 0
M  V30 5439 H 509.129 -1.00228 2.97996 0
M  V30 5440 N 512.901 -0.976442 1.23707 0
M  V30 5441 C 513.849 -2.09078 1.01927 0
M  V30 5442 C 514.843 -1.69345 -0.0430193 0
M  V30 5443 O 516.049 -1.79659 0.110814 0
M  V30 5444 H 512.424 -0.68398 0.312531 0
M  V30 5445 H 514.395 -2.24614 1.96447 0
M  V30 5446 C 513.144 -3.41919 0.631385 0
M  V30 5447 H 512.467 -3.72946 1.44053 0
M  V30 5448 H 513.907 -4.20817 0.518532 0
M  V30 5449 C 512.366 -3.30357 -0.660723 0
M  V30 5450 O 512.896 -3.63542 -1.70881 0
M  V30 5451 N 511.102 -2.83507 -0.638139 0
M  V30 5452 H 510.649 -2.567 0.215108 0
M  V30 5453 H 510.607 -2.76153 -1.50289 0
M  V30 5454 N 514.379 -1.04941 -1.1758 0
M  V30 5455 C 515.607 -0.778294 -1.91703 0
M  V30 5456 C 516.022 0.665697 -1.76675 0
M  V30 5457 O 515.379 1.45456 -1.10222 0
M  V30 5458 C 515.43 -1.14628 -3.42845 0
M  V30 5459 O 515.151 -2.53359 -3.57409 0
M  V30 5460 C 516.652 -0.900931 -4.34049 0
M  V30 5461 H 513.872 -0.283167 -0.608323 0
M  V30 5462 H 516.416 -1.39942 -1.49119 0
M  V30 5463 H 514.571 -0.569953 -3.83184 0
M  V30 5464 H 514.985 -2.67709 -4.51035 0
M  V30 5465 H 516.459 -1.20817 -5.38616 0
M  V30 5466 H 516.936 0.163966 -4.38894 0
M  V30 5467 H 517.542 -1.46097 -3.99419 0
M  V30 5468 N 515.857 1.33968 -0.830081 0
M  V30 5469 C 517.106 1.97323 -0.417928 0
M  V30 5470 C 517.419 1.6652 1.02618 0
M  V30 5471 O 518.625 2.2342 1.54259 0
M  V30 5472 C 517.081 3.53099 -0.696359 0
M  V30 5473 C 516.689 3.92788 -2.15457 0
M  V30 5474 C 518.433 4.23049 -0.350724 0
M  V30 5475 C 516.34 5.41506 -2.37751 0
M  V30 5476 H 515.27 0.738409 -0.152541 0
M  V30 5477 H 517.921 1.52711 -1.01744 0
M  V30 5478 H 516.303 3.95991 -0.0265904 0
M  V30 5479 H 517.477 3.6098 -2.86408 0
M  V30 5480 H 515.792 3.35795 -2.46232 0
M  V30 5481 H 518.389 5.32403 -0.495036 0
M  V30 5482 H 518.732 4.10279 0.705476 0
M  V30 5483 H 519.265 3.85657 -0.975362 0
M  V30 5484 H 516.004 5.5927 -3.41903 0
M  V30 5485 H 515.524 5.74804 -1.7135 0
M  V30 5486 H 517.203 6.0828 -2.20465 0
M  V30 5487 N 517.335 0.585699 1.46312 0
M  V30 5488 C 518.265 -0.133556 2.33118 0
M  V30 5489 C 519.246 -0.880707 1.45525 0
M  V30 5490 O 520.431 -0.855579 1.74337 0
M  V30 5491 C 517.561 -1.14585 3.27853 0
M  V30 5492 C 516.515 -0.513341 4.2491 0
M  V30 5493 C 515.841 -1.63231 5.09175 0
M  V30 5494 C 517.141 0.551413 5.19381 0
M  V30 5495 H 518.835 0.59121 2.93505 0
M  V30 5496 H 516.381 0.285761 1.41136 0
M  V30 5497 H 518.334 -1.65741 3.87438 0
M  V30 5498 H 517.058 -1.90093 2.65579 0
M  V30 5499 H 515.717 -0.0228349 3.66593 0
M  V30 5500 H 515.365 -2.37713 4.43285 0
M  V30 5501 H 515.065 -1.21473 5.74907 0
M  V30 5502 H 516.589 -2.14658 5.71624 0
M  V30 5503 H 518.003 0.124804 5.73164 0
M  V30 5504 H 516.4 0.889486 5.93471 0
M  V30 5505 H 517.47 1.43655 4.63132 0
M  V30 5506 N 518.813 -1.54241 0.323641 0
M  V30 5507 C 520.059 -2.00867 -0.279323 0
M  V30 5508 C 520.392 -1.21146 -1.5178 0
M  V30 5509 O 519.667 -0.29378 -1.92269 0
M  V30 5510 C 519.95 -3.54837 -0.613387 0
M  V30 5511 C 519.803 -4.45284 0.635803 0
M  V30 5512 C 521.122 -4.16186 -1.43099 0
M  V30 5513 H 518.241 -0.730177 -0.100049 0
M  V30 5514 H 520.883 -1.84829 0.440235 0
M  V30 5515 H 519.033 -3.68634 -1.22641 0
M  V30 5516 H 520.705 -4.43357 1.27406 0
M  V30 5517 H 518.948 -4.14956 1.26466 0
M  V30 5518 H 519.619 -5.5084 0.357597 0
M  V30 5519 H 522.095 -4.05964 -0.912814 0
M  V30 5520 H 520.971 -5.24031 -1.6335 0
M  V30 5521 H 521.232 -3.69516 -2.42715 0
M  V30 5522 N 520.291 -0.0518155 -1.57515 0
M  V30 5523 C 521.238 0.922352 -2.11569 0
M  V30 5524 C 522.208 1.30842 -1.02321 0
M  V30 5525 O 523.393 1.39778 -1.29872 0
M  V30 5526 C 520.533 2.19167 -2.6657 0
M  V30 5527 C 519.646 1.86003 -3.89906 0
M  V30 5528 C 518.781 3.07398 -4.33221 0
M  V30 5529 C 517.82 2.70158 -5.49255 0
M  V30 5530 N 516.957 3.84248 -5.8762 0
M  V30 5531 H 521.797 0.454506 -2.94514 0
M  V30 5532 H 519.334 0.212718 -1.45554 0
M  V30 5533 H 521.292 2.93443 -2.96559 0
M  V30 5534 H 519.922 2.63528 -1.86421 0
M  V30 5535 H 518.974 1.01874 -3.66505 0
M  V30 5536 H 520.286 1.54592 -4.74239 0
M  V30 5537 H 519.44 3.89972 -4.64765 0
M  V30 5538 H 518.179 3.41988 -3.477 0
M  V30 5539 H 517.184 1.86001 -5.17382 0
M  V30 5540 H 518.409 2.36759 -6.36492 0
M  V30 5541 H 516.355 4.18638 -5.05053 0
M  V30 5542 H 516.272 3.56538 -6.66646 0
M  V30 5543 H 517.54 4.6746 -6.2378 0
M  V30 5544 N 521.769 1.56035 0.221574 0
M  V30 5545 C 523.015 1.80221 0.942973 0
M  V30 5546 C 523.37 0.624799 1.81973 0
M  V30 5547 O 522.663 -0.381145 1.87771 0
M  V30 5548 C 522.857 3.07813 1.8162 0
M  V30 5549 C 522.686 4.37852 1.02548 0
M  V30 5550 C 521.456 5.00138 0.720418 0
M  V30 5551 C 523.654 5.12813 0.390799 0
M  V30 5552 N 521.636 6.13831 -0.0917139 0
M  V30 5553 C 523.007 6.19346 -0.284728 0
M  V30 5554 C 525.062 4.96972 0.303828 0
M  V30 5555 C 523.765 7.11758 -1.03891 0
M  V30 5556 C 525.791 5.89784 -0.436883 0
M  V30 5557 C 525.153 6.95743 -1.10095 0
M  V30 5558 H 521.252 0.711117 0.325325 0
M  V30 5559 H 523.836 1.93522 0.213854 0
M  V30 5560 H 522.007 2.95795 2.51714 0
M  V30 5561 H 523.739 3.20191 2.47508 0
M  V30 5562 H 520.494 4.62075 1.03843 0
M  V30 5563 H 520.918 6.75249 -0.486615 0
M  V30 5564 H 525.56 4.15107 0.802896 0
M  V30 5565 H 523.278 7.93105 -1.54949 0
M  V30 5566 H 526.864 5.79603 -0.505181 0
M  V30 5567 H 525.744 7.66322 -1.66495 0
M  V30 5568 N 523.247 -0.488276 1.49845 0
M  V30 5569 C 524.177 -1.59675 1.70371 0
M  V30 5570 C 525.158 -1.60878 0.552473 0
M  V30 5571 O 526.343 -1.77417 0.78973 0
M  V30 5572 C 523.473 -2.98098 1.782 0
M  V30 5573 C 522.427 -3.11761 2.93239 0
M  V30 5574 C 521.753 -4.51661 2.86193 0
M  V30 5575 C 523.053 -2.90589 4.33999 0
M  V30 5576 H 524.747 -1.42752 2.63177 0
M  V30 5577 H 522.293 -0.685317 1.26647 0
M  V30 5578 H 524.246 -3.75555 1.91144 0
M  V30 5579 H 522.97 -3.16138 0.820018 0
M  V30 5580 H 521.629 -2.36732 2.79917 0
M  V30 5581 H 521.277 -4.66595 1.87877 0
M  V30 5582 H 520.977 -4.61742 3.63412 0
M  V30 5583 H 522.501 -5.31162 3.01163 0
M  V30 5584 H 523.915 -3.57807 4.47936 0
M  V30 5585 H 522.312 -3.1213 5.12538 0
M  V30 5586 H 523.382 -1.86595 4.4756 0
M  V30 5587 N 524.725 -1.39134 -0.740242 0
M  V30 5588 C 526.136 -1.32208 -1.31825 0
M  V30 5589 C 526.487 0.0159919 -1.96193 0
M  V30 5590 O 525.612 0.918111 -1.95958 0
M  V30 5591 C 526.207 -2.39436 -2.39699 0
M  V30 5592 C 524.766 -2.36048 -2.93187 0
M  V30 5593 C 523.913 -2.21599 -1.66701 0
M  V30 5594 H 526.864 -1.49298 -0.538133 0
M  V30 5595 H 526.885 -2.05922 -3.19963 0
M  V30 5596 H 526.397 -3.36811 -1.92821 0
M  V30 5597 H 524.498 -1.42295 -3.44359 0
M  V30 5598 H 524.611 -3.30704 -3.46658 0
M  V30 5599 H 522.975 -1.68681 -1.90837 0
M  V30 5600 H 523.758 -3.20936 -1.21882 0
M  V30 5601 N 526.204 0.969867 -1.24223 0
M  V30 5602 C 527.136 2.0669 -0.99055 0
M  V30 5603 C 528.149 1.62753 0.0392222 0
M  V30 5604 O 529.338 1.77403 -0.197561 0
M  V30 5605 C 526.438 3.35589 -0.472594 0
M  V30 5606 C 525.611 4.08444 -1.56499 0
M  V30 5607 C 524.67 5.15616 -1.05007 0
M  V30 5608 O 523.696 5.41911 -1.7413 0
M  V30 5609 N 524.898 5.80383 0.116641 0
M  V30 5610 H 527.663 2.28855 -1.93508 0
M  V30 5611 H 525.224 1.13733 -1.15223 0
M  V30 5612 H 527.216 4.04542 -0.112919 0
M  V30 5613 H 525.786 3.10311 0.377617 0
M  V30 5614 H 525.006 3.33798 -2.09696 0
M  V30 5615 H 526.294 4.53882 -2.29932 0
M  V30 5616 H 525.692 5.6142 0.694589 0
M  V30 5617 H 524.249 6.50462 0.417483 0
M  V30 5618 N 527.682 1.05563 1.17022 0
M  V30 5619 C 528.63 0.653887 2.2322 0
M  V30 5620 C 529.624 -0.326642 1.66221 0
M  V30 5621 O 530.83 -0.192301 1.7897 0
M  V30 5622 H 527.205 0.193297 0.726733 0
M  V30 5623 H 529.176 1.5596 2.54399 0
M  V30 5624 C 527.925 0.0485434 3.47666 0
M  V30 5625 H 527.248 0.79413 3.91834 0
M  V30 5626 H 528.688 -0.195133 4.23551 0
M  V30 5627 C 527.147 -1.20583 3.14581 0
M  V30 5628 O 527.677 -2.29475 3.29703 0
M  V30 5629 N 525.883 -1.10493 2.68774 0
M  V30 5630 H 525.43 -0.218795 2.56669 0
M  V30 5631 H 525.388 -1.94507 2.47011 0
M  V30 5632 N 529.16 -1.33526 0.837174 0
M  V30 5633 C 530.437 -1.92369 0.354065 0
M  V30 5634 C 530.817 -1.76348 -1.16038 0
M  V30 5635 O 530.165 -1.15083 -1.97403 0
M  V30 5636 C 530.375 -3.39728 0.799101 0
M  V30 5637 C 531.723 -4.16877 0.806139 0
M  V30 5638 O 532.747 -3.48373 0.742597 0
M  V30 5639 O 531.606 -5.39166 0.892345 0
M  V30 5640 H 528.7 -0.820952 0.0998378 0
M  V30 5641 H 531.246 -1.42409 0.922913 0
M  V30 5642 H 530.018 -3.45254 1.84162 0
M  V30 5643 H 529.641 -3.97062 0.206731 0
M  V30 5644 N 530.638 -0.59345 -1.46 0
M  V30 5645 C 531.568 0.121192 -2.33185 0
M  V30 5646 C 532.549 0.872977 -1.4599 0
M  V30 5647 O 533.734 0.846321 -1.74789 0
M  V30 5648 C 530.864 1.12844 -3.28456 0
M  V30 5649 C 529.818 0.4908 -4.25177 0
M  V30 5650 C 529.144 1.60529 -5.10034 0
M  V30 5651 C 530.444 -0.578949 -5.19081 0
M  V30 5652 H 532.138 -0.606767 -2.93187 0
M  V30 5653 H 529.684 -0.293242 -1.40983 0
M  V30 5654 H 531.637 1.63684 -3.88311 0
M  V30 5655 H 530.361 1.88681 -2.66584 0
M  V30 5656 H 529.02 0.00339328 -3.666 0
M  V30 5657 H 528.668 2.35359 -4.44539 0
M  V30 5658 H 528.368 1.18422 -5.75543 0
M  V30 5659 H 529.892 2.11623 -5.72755 0
M  V30 5660 H 531.306 -0.155199 -5.7309 0
M  V30 5661 H 529.703 -0.920947 -5.92991 0
M  V30 5662 H 530.773 -1.46109 -4.62364 0
M  V30 5663 N 532.116 1.54067 -0.331816 0
M  V30 5664 C 533.046 2.27569 0.522932 0
M  V30 5665 C 534.027 1.28679 1.11247 0
M  V30 5666 O 535.212 1.57504 1.13605 0
M  V30 5667 C 532.342 3.0397 1.67987 0
M  V30 5668 C 531.296 4.10267 1.21924 0
M  V30 5669 C 530.622 4.74555 2.46377 0
M  V30 5670 C 531.922 5.21268 0.32815 0
M  V30 5671 H 533.616 2.99264 -0.0901977 0
M  V30 5672 H 531.162 1.4393 -0.044821 0
M  V30 5673 H 533.115 3.54123 2.28418 0
M  V30 5674 H 531.839 2.29906 2.31971 0
M  V30 5675 H 530.498 3.61009 0.637809 0
M  V30 5676 H 530.146 3.97098 3.08743 0
M  V30 5677 H 529.846 5.46363 2.16243 0
M  V30 5678 H 531.37 5.27487 3.07555 0
M  V30 5679 H 532.784 5.67128 0.838978 0
M  V30 5680 H 531.181 5.99982 0.119228 0
M  V30 5681 H 532.251 4.80673 -0.638839 0
M  V30 5682 N 533.594 0.0601682 1.57485 0
M  V30 5683 C 534.842 -0.610386 1.92662 0
M  V30 5684 C 535.163 -1.70849 0.939981 0
M  V30 5685 O 534.433 -1.95895 -0.0137455 0
M  V30 5686 H 533.013 -0.228457 0.711208 0
M  V30 5687 H 535.675 0.115288 1.94559 0
M  V30 5688 H 534.771 -1.0432 2.94149 0
M  V30 5689 N 535.072 -1.5615 -0.213296 0
M  V30 5690 C 536.022 -1.89485 -1.26804 0
M  V30 5691 C 537.006 -0.758713 -1.41889 0
M  V30 5692 O 538.198 -1.02127 -1.44565 0
M  V30 5693 C 535.327 -2.22219 -2.61675 0
M  V30 5694 C 534.413 -3.42245 -2.50458 0
M  V30 5695 N 534.804 -4.60645 -2.089 0
M  V30 5696 C 533.102 -3.46023 -2.81397 0
M  V30 5697 C 533.803 -5.42805 -2.09135 0
M  V30 5698 N 532.779 -4.82732 -2.49941 0
M  V30 5699 H 536.581 -2.78537 -0.937771 0
M  V30 5700 H 534.095 -1.56826 -0.421824 0
M  V30 5701 H 536.092 -2.44278 -3.37837 0
M  V30 5702 H 534.752 -1.34484 -2.95541 0
M  V30 5703 H 535.763 -4.85651 -1.79899 0
M  V30 5704 H 532.44 -2.68654 -3.1958 0
M  V30 5705 H 533.83 -6.47601 -1.79059 0
M  V30 5706 N 536.55 0.480323 -1.50102 0
M  V30 5707 C 537.961 1.06142 -1.53593 0
M  V30 5708 C 538.312 1.93335 -0.334055 0
M  V30 5709 O 537.437 2.09188 0.55403 0
M  V30 5710 C 538.032 1.9317 -2.78336 0
M  V30 5711 C 536.591 2.46405 -2.84538 0
M  V30 5712 C 535.738 1.24521 -2.4777 0
M  V30 5713 H 538.689 0.26333 -1.565 0
M  V30 5714 H 538.71 2.78123 -2.59669 0
M  V30 5715 H 538.222 1.29683 -3.65792 0
M  V30 5716 H 536.323 3.13472 -2.01411 0
M  V30 5717 H 536.436 2.82143 -3.87211 0
M  V30 5718 H 534.8 1.57706 -2.00003 0
M  V30 5719 H 535.583 0.627102 -3.37524 0
M  V30 5720 N 538.028 1.39524 0.732853 0
M  V30 5721 C 538.961 1.32806 1.85574 0
M  V30 5722 C 539.939 0.201354 1.61348 0
M  V30 5723 O 541.123 0.38216 1.84585 0
M  V30 5724 C 538.25 1.06271 3.21596 0
M  V30 5725 C 537.296 2.21161 3.64678 0
M  V30 5726 S 538.129 3.83454 3.73796 0
M  V30 5727 C 539.285 3.59149 5.12604 0
M  V30 5728 H 539.518 2.27838 1.9099 0
M  V30 5729 H 537.051 1.25605 0.897927 0
M  V30 5730 H 539.009 0.916461 4.00139 0
M  V30 5731 H 537.67 0.129223 3.13834 0
M  V30 5732 H 536.863 1.98193 4.63396 0
M  V30 5733 H 536.465 2.32 2.93346 0
M  V30 5734 H 538.757 3.16547 5.99003 0
M  V30 5735 H 539.7 4.57335 5.40602 0
M  V30 5736 H 540.108 2.93203 4.82382 0
M  V30 5737 N 539.506 -0.963266 1.24736 0
M  V30 5738 C 540.734 -1.74166 1.11686 0
M  V30 5739 C 541.149 -1.8589 -0.330187 0
M  V30 5740 O 540.506 -1.35042 -1.2276 0
M  V30 5741 C 540.557 -3.15989 1.75595 0
M  V30 5742 O 540.278 -3.04847 3.14642 0
M  V30 5743 C 541.779 -4.10145 1.68213 0
M  V30 5744 H 538.999 -0.546031 0.389989 0
M  V30 5745 H 541.543 -1.20907 1.64929 0
M  V30 5746 H 539.698 -3.66219 1.26343 0
M  V30 5747 H 540.112 -3.9425 3.4593 0
M  V30 5748 H 541.586 -5.07299 2.17604 0
M  V30 5749 H 542.063 -4.3445 0.644208 0
M  V30 5750 H 542.669 -3.65827 2.16912 0
M  V30 5751 N 540.985 -1.06182 -1.16461 0
M  V30 5752 C 542.401 -0.785065 -1.38956 0
M  V30 5753 C 542.601 0.616103 -1.9185 0
M  V30 5754 O 541.657 1.37686 -2.11657 0
M  V30 5755 C 542.97 -1.84902 -2.37132 0
M  V30 5756 C 544.518 -1.8724 -2.50819 0
M  V30 5757 C 544.993 -2.92686 -3.52277 0
M  V30 5758 N 546.484 -2.91712 -3.59803 0
M  V30 5759 C 547.219 -3.69949 -4.38093 0
M  V30 5760 N 546.715 -4.58 -5.19815 0
M  V30 5761 N 548.508 -3.58346 -4.33064 0
M  V30 5762 H 540.659 -1.96569 -0.804634 0
M  V30 5763 H 542.922 -0.851747 -0.416211 0
M  V30 5764 H 542.628 -2.85518 -2.0536 0
M  V30 5765 H 542.502 -1.69908 -3.36766 0
M  V30 5766 H 544.889 -0.872827 -2.81897 0
M  V30 5767 H 544.97 -2.06311 -1.51226 0
M  V30 5768 H 544.614 -3.92835 -3.21937 0
M  V30 5769 H 544.544 -2.70864 -4.51598 0
M  V30 5770 H 547.035 -2.27876 -3.01464 0
M  V30 5771 H 547.348 -5.14357 -5.76764 0
M  V30 5772 H 545.693 -4.62056 -5.19162 0
M  V30 5773 H 548.884 -2.88943 -3.68279 0
M  V30 5774 H 549.057 -4.19563 -4.93833 0
M  V30 5775 N 542.463 1.3308 -0.844243 0
M  V30 5776 C 543.426 2.27403 -0.286485 0
M  V30 5777 C 544.426 1.51179 0.547872 0
M  V30 5778 O 545.616 1.70421 0.360886 0
M  V30 5779 C 542.748 3.35653 0.595813 0
M  V30 5780 H 543.941 2.78248 -1.11885 0
M  V30 5781 H 541.494 1.43574 -0.617749 0
M  V30 5782 H 542.229 2.90058 1.4504 0
M  V30 5783 H 542.014 3.921 -0.00125994 0
M  V30 5784 H 543.504 4.05958 0.979168 0
M  V30 5785 N 543.941 0.601185 1.45683 0
M  V30 5786 C 545.188 0.0938811 2.02282 0
M  V30 5787 C 545.516 -1.27315 1.47041 0
M  V30 5788 O 544.771 -1.85193 0.632623 0
M  V30 5789 C 545.07 -0.00222425 3.574 0
M  V30 5790 C 544.736 1.29963 4.31764 0
M  V30 5791 C 543.398 1.65625 4.51798 0
M  V30 5792 C 545.75 2.1603 4.74321 0
M  V30 5793 C 543.078 2.87119 5.11644 0
M  V30 5794 C 545.43 3.36766 5.3551 0
M  V30 5795 C 544.094 3.72689 5.53768 0
M  V30 5796 H 543.364 0.0343535 0.740203 0
M  V30 5797 H 546.011 0.781522 1.74827 0
M  V30 5798 H 544.316 -0.773096 3.84097 0
M  V30 5799 H 546.013 -0.410794 3.9889 0
M  V30 5800 H 542.603 1.01204 4.1648 0
M  V30 5801 H 546.787 1.89778 4.58582 0
M  V30 5802 H 542.043 3.15065 5.2397 0
M  V30 5803 H 546.217 4.03713 5.67441 0
M  V30 5804 H 543.844 4.66918 5.99909 0
M  V30 5805 N 545.419 -1.53889 0.339982 0
M  V30 5806 C 546.668 -2.00035 -0.258604 0
M  V30 5807 C 546.981 -1.23179 -1.51942 0
M  V30 5808 O 548.187 -1.59784 -2.19503 0
M  V30 5809 C 546.643 -3.56249 -0.511359 0
M  V30 5810 C 546.251 -4.41957 0.733349 0
M  V30 5811 C 547.995 -4.1082 -1.069 0
M  V30 5812 C 545.902 -5.89673 0.451591 0
M  V30 5813 H 544.832 -0.747284 -0.10041 0
M  V30 5814 H 547.483 -1.77776 0.454758 0
M  V30 5815 H 545.865 -3.7456 -1.28533 0
M  V30 5816 H 547.039 -4.35421 1.50815 0
M  V30 5817 H 545.354 -3.9836 1.21237 0
M  V30 5818 H 547.951 -5.18789 -1.2947 0
M  V30 5819 H 548.294 -3.63817 -2.02343 0
M  V30 5820 H 548.827 -3.96205 -0.355817 0
M  V30 5821 H 545.566 -6.40903 1.37565 0
M  V30 5822 H 545.086 -5.99122 -0.285193 0
M  V30 5823 H 546.765 -6.46965 0.0675067 0
M  V30 5824 N 546.897 -0.0685191 -1.57451 0
M  V30 5825 C 548.125 0.610462 -1.97689 0
M  V30 5826 C 548.54 1.63346 -0.946758 0
M  V30 5827 O 547.897 1.82377 0.0669868 0
M  V30 5828 C 547.948 1.28196 -3.38006 0
M  V30 5829 O 547.669 0.299906 -4.37072 0
M  V30 5830 C 549.17 2.04907 -3.931 0
M  V30 5831 H 546.39 0.165689 -0.650222 0
M  V30 5832 H 548.934 -0.139953 -2.04021 0
M  V30 5833 H 547.089 1.98348 -3.32771 0
M  V30 5834 H 547.503 0.78126 -5.18649 0
M  V30 5835 H 548.977 2.47287 -4.93511 0
M  V30 5836 H 549.454 2.9043 -3.29465 0
M  V30 5837 H 550.06 1.39629 -4.01726 0
M  V30 5838 N 548.375 1.56261 0.205012 0
M  V30 5839 C 549.325 1.90155 1.25798 0
M  V30 5840 C 550.309 0.766227 1.41484 0
M  V30 5841 O 551.501 1.02893 1.44021 0
M  V30 5842 C 548.63 2.23603 2.60493 0
M  V30 5843 C 547.716 3.43568 2.48639 0
M  V30 5844 N 548.107 4.61747 2.06455 0
M  V30 5845 C 546.405 3.4751 2.79558 0
M  V30 5846 C 547.106 5.43907 2.06253 0
M  V30 5847 N 546.082 4.84051 2.47377 0
M  V30 5848 H 549.884 2.79031 0.922986 0
M  V30 5849 H 547.398 1.57048 0.413501 0
M  V30 5850 H 549.395 2.46067 3.36537 0
M  V30 5851 H 548.055 1.36049 2.94823 0
M  V30 5852 H 549.066 4.86598 1.77321 0
M  V30 5853 H 545.743 2.70345 3.18151 0
M  V30 5854 H 547.133 6.48542 1.75622 0
M  V30 5855 N 549.853 -0.472356 1.50355 0
M  V30 5856 C 550.816 -1.5529 1.68576 0
M  V30 5857 C 551.816 -1.50863 0.556511 0
M  V30 5858 O 553.006 -1.53505 0.823516 0
M  V30 5859 C 550.138 -2.94921 1.70981 0
M  V30 5860 H 551.331 -1.40451 2.64978 0
M  V30 5861 H 548.884 -0.698645 1.39816 0
M  V30 5862 H 549.619 -3.15204 0.762675 0
M  V30 5863 H 549.404 -2.99541 2.53017 0
M  V30 5864 H 550.894 -3.73372 1.87037 0
M  V30 5865 N 551.331 -1.39911 -0.725443 0
M  V30 5866 C 552.579 -1.37382 -1.48224 0
M  V30 5867 C 552.9 0.0264107 -1.94982 0
M  V30 5868 O 552.17 0.979408 -1.6966 0
M  V30 5869 H 550.75 -0.505596 -0.549892 0
M  V30 5870 H 553.412 -1.7487 -0.860608 0
M  V30 5871 H 552.508 -2.04254 -2.3598 0
M  V30 5872 N 552.809 0.956637 -1.25245 0
M  V30 5873 C 554.034 1.74104 -1.12706 0
M  V30 5874 C 554.459 1.85436 0.315429 0
M  V30 5875 O 553.817 1.33334 1.22848 0
M  V30 5876 C 553.865 3.1338 -1.78396 0
M  V30 5877 O 552.969 3.98485 -1.06224 0
M  V30 5878 H 552.31 0.53476 -0.393609 0
M  V30 5879 H 554.84 1.19924 -1.65769 0
M  V30 5880 H 554.85 3.6385 -1.846 0
M  V30 5881 H 553.525 3.04448 -2.83345 0
M  V30 5882 H 552.102 3.56952 -1.07886 0
M  V30 5883 N 554.287 1.06798 1.15896 0
M  V30 5884 C 555.237 0.653213 2.18443 0
M  V30 5885 C 556.221 -0.318763 1.57711 0
M  V30 5886 O 557.413 -0.133388 1.76497 0
M  V30 5887 C 554.542 0.0465785 3.43268 0
M  V30 5888 C 553.628 1.04336 4.11066 0
M  V30 5889 N 554.019 2.22084 4.54436 0
M  V30 5890 C 552.317 0.875433 4.37324 0
M  V30 5891 C 553.018 2.85276 5.06944 0
M  V30 5892 N 551.994 2.12973 5.00143 0
M  V30 5893 H 555.796 1.55011 2.49698 0
M  V30 5894 H 553.31 0.940384 1.32403 0
M  V30 5895 H 555.307 -0.26843 4.16035 0
M  V30 5896 H 553.967 -0.845504 3.13499 0
M  V30 5897 H 554.978 2.59833 4.48004 0
M  V30 5898 H 551.655 0.0357721 4.17485 0
M  V30 5899 H 553.045 3.85223 5.50503 0
M  V30 5900 N 555.766 -1.3263 0.851289 0
M  V30 5901 C 557.014 -1.96978 0.452128 0
M  V30 5902 C 557.335 -1.67715 -0.99482 0
M  V30 5903 O 556.605 -0.98259 -1.69476 0
M  V30 5904 H 555.185 -0.72873 0.164202 0
M  V30 5905 H 557.847 -1.61774 1.08698 0
M  V30 5906 H 556.943 -3.06387 0.594407 0
M  V30 5907 N 557.244 -0.608902 -1.45362 0
M  V30 5908 C 558.49 -0.104762 -2.02529 0
M  V30 5909 C 558.823 1.26191 -1.47613 0
M  V30 5910 O 558.098 1.8327 -0.65134 0
M  V30 5911 C 558.381 -0.0672661 -3.60037 0
M  V30 5912 C 558.234 -1.4647 -4.25284 0
M  V30 5913 C 559.553 0.619877 -4.35713 0
M  V30 5914 H 556.672 -0.0395438 -0.735938 0
M  V30 5915 H 559.314 -0.781126 -1.73201 0
M  V30 5916 H 557.464 0.50871 -3.85155 0
M  V30 5917 H 559.136 -2.08785 -4.11347 0
M  V30 5918 H 557.379 -2.02502 -3.83634 0
M  V30 5919 H 558.05 -1.39069 -5.34195 0
M  V30 5920 H 560.526 0.130297 -4.15896 0
M  V30 5921 H 559.402 0.615224 -5.45441 0
M  V30 5922 H 559.663 1.68621 -4.0868 0
M  V30 5923 N 558.722 1.53707 -0.348139 0
M  V30 5924 C 559.952 2.05108 0.247864 0
M  V30 5925 C 560.36 1.22252 1.44399 0
M  V30 5926 O 559.703 0.251853 1.81965 0
M  V30 5927 C 559.765 3.52171 0.722187 0
M  V30 5928 C 559.429 4.5562 -0.354902 0
M  V30 5929 C 560.426 5.05883 -1.19911 0
M  V30 5930 C 558.111 4.99703 -0.510145 0
M  V30 5931 C 560.105 5.98814 -2.18406 0
M  V30 5932 C 557.792 5.92443 -1.49848 0
M  V30 5933 C 558.79 6.41887 -2.33389 0
M  V30 5934 O 558.478 7.32802 -3.3054 0
M  V30 5935 H 558.21 0.674086 0.0508296 0
M  V30 5936 H 560.764 1.99229 -0.49968 0
M  V30 5937 H 558.994 3.55529 1.52105 0
M  V30 5938 H 560.683 3.8652 1.23925 0
M  V30 5939 H 561.449 4.72586 -1.09028 0
M  V30 5940 H 557.328 4.60816 0.130274 0
M  V30 5941 H 560.872 6.3733 -2.83649 0
M  V30 5942 H 556.769 6.25155 -1.60786 0
M  V30 5943 H 557.537 7.50749 -3.26064 0
M  V30 5944 N 560.2 0.0768682 1.57412 0
M  V30 5945 C 561.11 -0.903207 2.16516 0
M  V30 5946 C 562.126 -1.32341 1.12968 0
M  V30 5947 O 563.302 -1.39507 1.45258 0
M  V30 5948 C 560.367 -2.1508 2.71922 0
M  V30 5949 C 559.428 -1.78653 3.90361 0
M  V30 5950 C 558.661 -2.97465 4.43114 0
M  V30 5951 O 558.884 -4.11638 3.94854 0
M  V30 5952 O 557.818 -2.76987 5.3438 0
M  V30 5953 H 561.644 -0.430427 3.00634 0
M  V30 5954 H 559.229 -0.146485 1.4868 0
M  V30 5955 H 561.111 -2.8823 3.07411 0
M  V30 5956 H 559.786 -2.61446 1.9086 0
M  V30 5957 H 558.693 -1.0274 3.59716 0
M  V30 5958 H 560.026 -1.37066 4.7273 0
M  V30 5959 N 561.678 -1.56367 -0.196722 0
M  V30 5960 C 562.903 -1.84991 -0.937714 0
M  V30 5961 C 563.328 -0.660244 -1.76132 0
M  V30 5962 O 562.686 0.390967 -1.77034 0
M  V30 5963 C 562.734 -3.11828 -1.81096 0
M  V30 5964 O 561.838 -2.92266 -2.90955 0
M  V30 5965 H 561.179 -0.609193 -0.264159 0
M  V30 5966 H 563.709 -2.03595 -0.202529 0
M  V30 5967 H 563.719 -3.42579 -2.21594 0
M  V30 5968 H 562.394 -3.98037 -1.2058 0
M  V30 5969 H 560.971 -2.72809 -2.54224 0
M  V30 5970 N 563.156 0.464375 -1.50603 0
M  V30 5971 C 564.405 1.21277 -1.61167 0
M  V30 5972 C 564.718 1.92953 -0.320704 0
M  V30 5973 O 565.924 2.69778 -0.30534 0
M  V30 5974 C 564.38 2.20403 -2.84518 0
M  V30 5975 C 563.988 1.54499 -4.20516 0
M  V30 5976 C 565.732 2.95843 -3.0443 0
M  V30 5977 C 563.639 2.51951 -5.35047 0
M  V30 5978 H 562.569 0.456367 -0.600204 0
M  V30 5979 H 565.22 0.48254 -1.77042 0
M  V30 5980 H 563.602 2.96746 -2.62217 0
M  V30 5981 H 564.776 0.83899 -4.53098 0
M  V30 5982 H 563.091 0.913152 -4.06264 0
M  V30 5983 H 565.688 3.6879 -3.87167 0
M  V30 5984 H 566.031 3.55622 -2.16423 0
M  V30 5985 H 566.564 2.26611 -3.26944 0
M  V30 5986 H 563.303 1.96901 -6.25228 0
M  V30 5987 H 562.823 3.20683 -5.06875 0
M  V30 5988 H 564.502 3.13643 -5.65895 0
M  V30 5989 N 564.634 1.40294 0.718013 0
M  V30 5990 C 565.874 1.39888 1.49032 0
M  V30 5991 C 566.238 -0.000462935 1.92 0
M  V30 5992 O 567.439 -0.129622 2.68487 0
M  V30 5993 C 565.71 2.35868 2.68516 0
M  V30 5994 S 567.269 2.53799 3.57954 0
M  V30 5995 H 564.087 0.495849 0.509563 0
M  V30 5996 H 566.689 1.76541 0.839846 0
M  V30 5997 H 565.393 3.36375 2.35117 0
M  V30 5998 H 564.924 2.0049 3.38478 0
M  V30 5999 H 566.939 1.78859 4.62843 0
M  V30 6000 N 566.112 -0.949982 1.2575 0
M  V30 6001 C 567.06 -2.06869 1.06339 0
M  V30 6002 C 568.054 -1.69399 -0.00708901 0
M  V30 6003 O 569.26 -1.79383 0.148897 0
M  V30 6004 H 565.635 -0.677197 0.326969 0
M  V30 6005 H 567.606 -2.20396 2.01167 0
M  V30 6006 C 566.355 -3.40503 0.703769 0
M  V30 6007 H 565.678 -3.69807 1.51931 0
M  V30 6008 H 567.118 -4.19623 0.607677 0
M  V30 6009 C 565.577 -3.31685 -0.5905 0
M  V30 6010 O 566.107 -3.67085 -1.63131 0
M  V30 6011 N 564.313 -2.84797 -0.577859 0
M  V30 6012 H 563.86 -2.56186 0.26951 0
M  V30 6013 H 563.818 -2.79279 -1.44398 0
M  V30 6014 N 567.59 -1.07411 -1.15328 0
M  V30 6015 C 568.838 -0.796073 -1.85761 0
M  V30 6016 C 569.159 0.679864 -1.82764 0
M  V30 6017 O 568.429 1.49242 -1.269 0
M  V30 6018 H 567.009 -0.291495 -0.687779 0
M  V30 6019 H 569.671 -1.35799 -1.39802 0
M  V30 6020 H 568.767 -1.13114 -2.90881 0
M  V30 6021 N 569.068 1.32177 -0.85831 0
M  V30 6022 C 570.314 1.97417 -0.46417 0
M  V30 6023 C 570.647 1.67746 0.978514 0
M  V30 6024 O 569.922 0.967654 1.68721 0
M  V30 6025 C 570.205 3.53069 -0.708094 0
M  V30 6026 C 570.058 3.92357 -2.19946 0
M  V30 6027 C 571.377 4.39783 -0.166881 0
M  V30 6028 H 568.496 0.717097 -0.17012 0
M  V30 6029 H 571.138 1.56499 -1.07741 0
M  V30 6030 H 569.288 3.88054 -0.186128 0
M  V30 6031 H 570.96 3.67533 -2.78779 0
M  V30 6032 H 569.203 3.41384 -2.67656 0
M  V30 6033 H 569.874 5.00841 -2.32082 0
M  V30 6034 H 572.35 4.11556 -0.613285 0
M  V30 6035 H 571.226 5.47671 -0.367093 0
M  V30 6036 H 571.487 4.32196 0.930559 0
M  V30 6037 N 570.547 0.616602 1.45037 0
M  V30 6038 C 571.958 0.199359 1.85633 0
M  V30 6039 C 572.309 -1.24588 1.51566 0
M  V30 6040 O 571.434 -1.94594 0.94668 0
M  V30 6041 C 572.029 0.355033 3.36935 0
M  V30 6042 C 570.588 -0.00758748 3.76399 0
M  V30 6043 C 569.735 0.675256 2.68953 0
M  V30 6044 H 572.686 0.822708 1.3571 0
M  V30 6045 H 572.707 -0.410201 3.78282 0
M  V30 6046 H 572.219 1.40699 3.61698 0
M  V30 6047 H 570.32 -1.05837 3.57252 0
M  V30 6048 H 570.433 0.392346 4.77491 0
M  V30 6049 H 568.797 0.111992 2.54454 0
M  V30 6050 H 569.58 1.72952 2.96551 0
M  V30 6051 N 572.025 -1.5352 0.356285 0
M  V30 6052 C 572.958 -2.2177 -0.537913 0
M  V30 6053 C 573.936 -1.20626 -1.09033 0
M  V30 6054 O 575.12 -1.49494 -1.1482 0
M  V30 6055 C 572.247 -2.90513 -1.74126 0
M  V30 6056 C 571.293 -4.05652 -1.31715 0
M  V30 6057 S 572.126 -5.34505 -0.326236 0
M  V30 6058 C 573.282 -6.06757 -1.53612 0
M  V30 6059 H 573.515 -2.97271 0.0417411 0
M  V30 6060 H 571.048 -1.53761 0.140372 0
M  V30 6061 H 573.006 -3.30735 -2.43155 0
M  V30 6062 H 571.667 -2.14754 -2.29215 0
M  V30 6063 H 570.86 -4.52733 -2.21471 0
M  V30 6064 H 570.462 -3.67272 -0.706183 0
M  V30 6065 H 572.754 -6.30924 -2.46863 0
M  V30 6066 H 573.697 -6.99395 -1.10687 0
M  V30 6067 H 574.105 -5.3708 -1.73796 0
M  V30 6068 N 573.503 -0.0852151 -1.57369 0
M  V30 6069 C 574.749 0.581666 -1.94279 0
M  V30 6070 C 575.082 1.68444 -0.966446 0
M  V30 6071 O 574.357 1.945 0.00215277 0
M  V30 6072 C 574.64 1.14609 -3.41375 0
M  V30 6073 C 574.493 0.0490414 -4.49773 0
M  V30 6074 C 575.812 2.04751 -3.8957 0
M  V30 6075 H 572.931 0.209972 -0.706456 0
M  V30 6076 H 575.573 -0.153915 -1.89376 0
M  V30 6077 H 573.723 1.77297 -3.45685 0
M  V30 6078 H 575.395 -0.584721 -4.57579 0
M  V30 6079 H 573.638 -0.618638 -4.29366 0
M  V30 6080 H 574.309 0.484601 -5.49869 0
M  V30 6081 H 576.785 1.51981 -3.87351 0
M  V30 6082 H 575.661 2.41173 -4.93079 0
M  V30 6083 H 575.922 2.96107 -3.28288 0
M  V30 6084 N 574.981 1.5647 0.188427 0
M  V30 6085 C 575.914 1.90146 1.26173 0
M  V30 6086 C 576.892 0.762294 1.43624 0
M  V30 6087 O 578.076 1.01395 1.58907 0
M  V30 6088 C 575.203 2.13748 2.62735 0
M  V30 6089 C 574.249 3.36448 2.62116 0
M  V30 6090 S 575.082 4.91364 2.12889 0
M  V30 6091 C 576.238 5.18041 3.51261 0
M  V30 6092 H 576.471 2.80886 0.974192 0
M  V30 6093 H 574.004 1.49335 0.392226 0
M  V30 6094 H 575.962 2.28028 3.41341 0
M  V30 6095 H 574.623 1.23747 2.88696 0
M  V30 6096 H 573.816 3.50109 3.62546 0
M  V30 6097 H 573.418 3.21196 1.91596 0
M  V30 6098 H 575.71 5.0897 4.47164 0
M  V30 6099 H 576.653 6.19764 3.42489 0
M  V30 6100 H 577.061 4.45657 3.46482 0
M  V30 6101 N 576.459 -0.456382 1.50847 0
M  V30 6102 C 577.392 -1.57177 1.65441 0
M  V30 6103 C 578.37 -1.54649 0.502224 0
M  V30 6104 O 579.554 -1.74057 0.723633 0
M  V30 6105 C 576.681 -2.95763 1.65052 0
M  V30 6106 C 575.727 -3.16389 2.86007 0
M  V30 6107 S 576.56 -2.94716 4.47105 0
M  V30 6108 C 577.716 -4.35617 4.49432 0
M  V30 6109 H 577.949 -1.44561 2.59787 0
M  V30 6110 H 575.482 -0.644758 1.40293 0
M  V30 6111 H 577.44 -3.75654 1.65512 0
M  V30 6112 H 576.101 -3.05756 0.719153 0
M  V30 6113 H 575.294 -4.17667 2.82081 0
M  V30 6114 H 574.896 -2.44293 2.8319 0
M  V30 6115 H 577.188 -5.28503 4.239 0
M  V30 6116 H 578.131 -4.44582 5.51137 0
M  V30 6117 H 578.539 -4.18382 3.78967 0
M  V30 6118 N 577.937 -1.40673 -0.710563 0
M  V30 6119 C 579.348 -1.34975 -1.28991 0
M  V30 6120 C 579.699 -0.0256272 -1.96183 0
M  V30 6121 O 578.824 0.876339 -1.97862 0
M  V30 6122 C 579.419 -2.44467 -2.34567 0
M  V30 6123 C 577.978 -2.42213 -2.88114 0
M  V30 6124 C 577.125 -2.25085 -1.61963 0
M  V30 6125 H 580.076 -1.50406 -0.506343 0
M  V30 6126 H 580.097 -2.12663 -3.15523 0
M  V30 6127 H 579.609 -3.40825 -1.85634 0
M  V30 6128 H 577.71 -1.49568 -3.41263 0
M  V30 6129 H 577.823 -3.37983 -3.39565 0
M  V30 6130 H 576.187 -1.72691 -1.87216 0
M  V30 6131 H 576.97 -3.23449 -1.15047 0
M  V30 6132 N 579.415 0.9433 -1.26252 0
M  V30 6133 C 580.345 2.05902 -1.10122 0
M  V30 6134 C 581.326 1.70099 -0.00700552 0
M  V30 6135 O 582.511 1.93377 -0.178641 0
M  V30 6136 C 579.641 3.39516 -0.731175 0
M  V30 6137 C 578.595 3.89372 -1.77688 0
M  V30 6138 C 577.921 5.19613 -1.26122 0
M  V30 6139 C 579.221 4.14489 -3.17799 0
M  V30 6140 H 580.915 2.19655 -2.03451 0
M  V30 6141 H 578.461 1.05548 -0.979576 0
M  V30 6142 H 580.414 4.17031 -0.605215 0
M  V30 6143 H 579.138 3.25733 0.23782 0
M  V30 6144 H 577.797 3.14036 -1.89148 0
M  V30 6145 H 577.445 5.02208 -0.282128 0
M  V30 6146 H 577.145 5.53939 -1.96023 0
M  V30 6147 H 578.669 5.99713 -1.14789 0
M  V30 6148 H 580.083 4.82625 -3.09428 0
M  V30 6149 H 578.48 4.60094 -3.85271 0
M  V30 6150 H 579.55 3.20347 -3.64014 0
M  V30 6151 N 580.893 1.08022 1.14757 0
M  V30 6152 C 582.14 0.807509 1.85703 0
M  V30 6153 C 582.468 -0.666617 1.8272 0
M  V30 6154 O 581.723 -1.50562 1.25018 0
M  V30 6155 C 582.022 1.26964 3.34088 0
M  V30 6156 C 581.688 2.7509 3.57262 0
M  V30 6157 C 580.35 3.15547 3.63296 0
M  V30 6158 C 582.702 3.70667 3.66409 0
M  V30 6159 C 580.03 4.50384 3.75994 0
M  V30 6160 C 582.382 5.05274 3.80632 0
M  V30 6161 C 581.046 5.45342 3.84913 0
M  V30 6162 H 580.316 0.295488 0.679535 0
M  V30 6163 H 582.963 1.35245 1.35577 0
M  V30 6164 H 581.268 0.644216 3.86467 0
M  V30 6165 H 582.965 1.03544 3.87401 0
M  V30 6166 H 579.555 2.42775 3.53212 0
M  V30 6167 H 583.739 3.40533 3.61041 0
M  V30 6168 H 578.995 4.80886 3.77569 0
M  V30 6169 H 583.169 5.79201 3.86652 0
M  V30 6170 H 580.796 6.49823 3.94505 0
M  V30 6171 N 582.371 -1.3172 0.865308 0
M  V30 6172 C 583.619 -1.96487 0.472995 0
M  V30 6173 C 583.94 -1.68761 -0.976975 0
M  V30 6174 O 583.21 -1.00051 -1.68424 0
M  V30 6175 H 581.79 -0.726947 0.171922 0
M  V30 6176 H 584.452 -1.60612 1.10407 0
M  V30 6177 H 583.548 -3.0574 0.62687 0
M  V30 6178 N 583.85 -0.624285 -1.44708 0
M  V30 6179 C 585.127 -0.0572781 -1.95516 0
M  V30 6180 C 585.507 1.41516 -1.56641 0
M  V30 6181 O 584.855 2.12614 -0.837111 0
M  V30 6182 C 585.065 -0.272944 -3.47931 0
M  V30 6183 C 586.413 -0.162529 -4.24289 0
M  V30 6184 O 587.437 -0.203946 -3.55616 0
M  V30 6185 O 586.296 -0.0616847 -5.46465 0
M  V30 6186 H 583.389 0.0262219 -0.826584 0
M  V30 6187 H 585.936 -0.695512 -1.54793 0
M  V30 6188 H 584.707 -1.29492 -3.69253 0
M  V30 6189 H 584.331 0.399756 -3.95585 0
M  V30 6190 N 585.328 1.53329 -0.364422 0
M  V30 6191 C 586.26 2.23286 0.517293 0
M  V30 6192 C 587.273 1.24657 1.04711 0
M  V30 6193 O 588.462 1.50887 0.95369 0
M  V30 6194 C 585.562 2.91604 1.72685 0
M  V30 6195 C 584.735 4.1673 1.32873 0
M  V30 6196 C 583.794 4.68269 2.40022 0
M  V30 6197 O 582.82 5.31976 2.02461 0
M  V30 6198 N 584.022 4.45983 3.7159 0
M  V30 6199 H 586.787 2.99588 -0.0819391 0
M  V30 6200 H 584.348 1.60787 -0.189544 0
M  V30 6201 H 586.34 3.22992 2.4384 0
M  V30 6202 H 584.91 2.18763 2.23297 0
M  V30 6203 H 584.13 3.91657 0.447069 0
M  V30 6204 H 585.418 4.98078 1.03902 0
M  V30 6205 H 584.816 3.95077 4.04883 0
M  V30 6206 H 583.373 4.81924 4.38854 0
M  V30 6207 N 586.806 0.0935595 1.57322 0
M  V30 6208 C 587.739 -0.902505 2.09595 0
M  V30 6209 C 588.717 -1.27732 1.00615 0
M  V30 6210 O 589.901 -1.38283 1.28102 0
M  V30 6211 C 587.028 -2.20416 2.57166 0
M  V30 6212 C 586.074 -1.97932 3.7779 0
M  V30 6213 S 586.907 -1.21873 5.21447 0
M  V30 6214 C 588.063 -2.53273 5.72367 0
M  V30 6215 H 588.296 -0.457797 2.93754 0
M  V30 6216 H 585.829 -0.119694 1.53935 0
M  V30 6217 H 587.787 -2.95217 2.85232 0
M  V30 6218 H 586.448 -2.62008 1.73235 0
M  V30 6219 H 585.641 -2.94316 4.09138 0
M  V30 6220 H 585.243 -1.3126 3.5021 0
M  V30 6221 H 587.535 -3.49256 5.8054 0
M  V30 6222 H 588.478 -2.26505 6.70896 0
M  V30 6223 H 588.886 -2.61475 5.00291 0
M  V30 6224 N 588.284 -1.56567 -0.180126 0
M  V30 6225 C 589.561 -1.7235 -0.924931 0
M  V30 6226 C 589.941 -0.652523 -2.00762 0
M  V30 6227 O 589.289 0.334115 -2.26044 0
M  V30 6228 C 589.499 -3.1523 -1.49771 0
M  V30 6229 C 590.847 -3.75921 -1.97405 0
M  V30 6230 O 591.871 -3.18452 -1.59583 0
M  V30 6231 O 590.73 -4.7681 -2.67048 0
M  V30 6232 H 587.824 -0.703502 -0.434758 0
M  V30 6233 H 590.37 -1.6886 -0.168647 0
M  V30 6234 H 589.142 -3.84656 -0.718027 0
M  V30 6235 H 588.765 -3.23009 -2.31842 0
M  V30 6236 N 589.762 0.448376 -1.51087 0
M  V30 6237 C 590.71 1.56407 -1.72161 0
M  V30 6238 C 591.704 1.58878 -0.587721 0
M  V30 6239 O 592.91 1.62755 -0.768822 0
M  V30 6240 H 589.285 0.519423 -0.543786 0
M  V30 6241 H 591.256 1.35803 -2.65707 0
M  V30 6242 C 590.005 2.94163 -1.85373 0
M  V30 6243 H 589.328 2.9299 -2.72024 0
M  V30 6244 H 590.768 3.71625 -2.04135 0
M  V30 6245 C 589.227 3.31317 -0.610803 0
M  V30 6246 O 589.757 4.00985 0.239636 0
M  V30 6247 N 587.963 2.86966 -0.458127 0
M  V30 6248 H 587.51 2.30443 -1.15124 0
M  V30 6249 H 587.468 3.12188 0.372289 0
M  V30 6250 N 591.24 1.41047 0.703093 0
M  V30 6251 C 592.203 1.42036 1.79884 0
M  V30 6252 C 593.203 0.312153 1.57741 0
M  V30 6253 O 594.393 0.571672 1.64553 0
M  V30 6254 C 591.525 1.22437 3.18154 0
M  V30 6255 H 592.718 2.39572 1.80403 0
M  V30 6256 H 590.271 1.27079 0.909977 0
M  V30 6257 H 591.006 0.257112 3.23279 0
M  V30 6258 H 590.791 2.02723 3.35627 0
M  V30 6259 H 592.281 1.25946 3.98155 0
M  V30 6260 N 592.718 -0.936591 1.26751 0
M  V30 6261 C 593.665 -2.03597 1.08706 0
M  V30 6262 C 594.635 -1.66097 -0.00926542 0
M  V30 6263 O 595.82 -1.90199 0.151377 0
M  V30 6264 C 592.96 -3.3727 0.73094 0
M  V30 6265 C 592.073 -3.87778 1.90399 0
M  V30 6266 C 591.208 -5.09859 1.49056 0
M  V30 6267 C 590.247 -5.5264 2.63164 0
M  V30 6268 N 589.384 -6.65921 2.22471 0
M  V30 6269 H 594.224 -2.18364 2.02784 0
M  V30 6270 H 591.761 -1.06985 1.00958 0
M  V30 6271 H 593.719 -4.14128 0.505328 0
M  V30 6272 H 592.349 -3.22337 -0.172868 0
M  V30 6273 H 591.401 -3.07279 2.2424 0
M  V30 6274 H 592.713 -4.15464 2.76028 0
M  V30 6275 H 591.867 -5.9419 1.22567 0
M  V30 6276 H 590.606 -4.8393 0.60524 0
M  V30 6277 H 589.611 -4.66863 2.90377 0
M  V30 6278 H 590.836 -5.80568 3.52303 0
M  V30 6279 H 588.782 -6.41667 1.36379 0
M  V30 6280 H 588.699 -6.93216 3.01641 0
M  V30 6281 H 589.967 -7.53616 1.99205 0
M  V30 6282 N 594.196 -1.08629 -1.14182 0
M  V30 6283 C 595.612 -0.814363 -1.3726 0
M  V30 6284 C 595.812 0.575271 -1.93114 0
M  V30 6285 O 594.868 1.33165 -2.1453 0
M  V30 6286 C 596.181 -1.8989 -2.33157 0
M  V30 6287 C 597.729 -1.92518 -2.46791 0
M  V30 6288 C 598.204 -3.00092 -3.45989 0
M  V30 6289 N 599.695 -2.99279 -3.53534 0
M  V30 6290 C 600.43 -3.79158 -4.30147 0
M  V30 6291 N 599.926 -4.68923 -5.09983 0
M  V30 6292 N 601.719 -3.67451 -4.25366 0
M  V30 6293 H 593.87 -1.98232 -0.762758 0
M  V30 6294 H 596.133 -0.860383 -0.398051 0
M  V30 6295 H 595.839 -2.89809 -1.99257 0
M  V30 6296 H 595.713 -1.77013 -3.33086 0
M  V30 6297 H 598.1 -0.932425 -2.79982 0
M  V30 6298 H 598.181 -2.09473 -1.46816 0
M  V30 6299 H 597.825 -3.99575 -3.13532 0
M  V30 6300 H 597.755 -2.80382 -4.45751 0
M  V30 6301 H 600.246 -2.3422 -2.96563 0
M  V30 6302 H 600.559 -5.26475 -5.65724 0
M  V30 6303 H 598.904 -4.72964 -5.09244 0
M  V30 6304 H 602.095 -2.9669 -3.62067 0
M  V30 6305 H 602.268 -4.29944 -4.84822 0
M  V30 6306 N 595.674 1.31259 -0.872281 0
M  V30 6307 C 596.607 2.26544 -0.274394 0
M  V30 6308 C 597.585 1.51213 0.597776 0
M  V30 6309 O 598.769 1.80277 0.550687 0
M  V30 6310 C 595.896 3.33139 0.611256 0
M  V30 6311 C 594.942 4.26077 -0.189876 0
M  V30 6312 S 595.775 5.11971 -1.56989 0
M  V30 6313 C 596.931 6.2208 -0.690427 0
M  V30 6314 H 597.164 2.76908 -1.0821 0
M  V30 6315 H 594.697 1.3906 -0.670939 0
M  V30 6316 H 596.655 3.95024 1.11654 0
M  V30 6317 H 595.316 2.81525 1.39294 0
M  V30 6318 H 594.509 5.01657 0.485433 0
M  V30 6319 H 594.111 3.68701 -0.627339 0
M  V30 6320 H 596.403 6.77429 0.098001 0
M  V30 6321 H 597.346 6.93768 -1.41742 0
M  V30 6322 H 597.754 5.63915 -0.256953 0
M  V30 6323 N 597.152 0.631951 1.44375 0
M  V30 6324 C 598.062 -0.073674 2.34484 0
M  V30 6325 C 599.078 -0.834825 1.52665 0
M  V30 6326 O 600.254 -0.786902 1.85391 0
M  V30 6327 C 597.319 -1.04247 3.30656 0
M  V30 6328 C 596.38 -0.280602 4.28382 0
M  V30 6329 C 595.613 -1.20325 5.19959 0
M  V30 6330 O 595.836 -2.44199 5.15484 0
M  V30 6331 O 594.77 -0.687128 5.97965 0
M  V30 6332 H 598.596 0.667477 2.96274 0
M  V30 6333 H 596.181 0.392144 1.44162 0
M  V30 6334 H 598.063 -1.59981 3.89851 0
M  V30 6335 H 596.738 -1.76422 2.71398 0
M  V30 6336 H 595.645 0.319804 3.72731 0
M  V30 6337 H 596.978 0.401144 4.90563 0
M  V30 6338 N 598.631 -1.53133 0.372548 0
M  V30 6339 C 599.859 -2.05774 -0.215515 0
M  V30 6340 C 600.274 -1.24555 -1.41886 0
M  V30 6341 O 599.631 -0.287951 -1.80214 0
M  V30 6342 C 599.682 -3.5645 -0.602161 0
M  V30 6343 O 599.403 -4.34591 0.553359 0
M  V30 6344 C 600.904 -4.25374 -1.24787 0
M  V30 6345 H 598.124 -0.670009 -0.0364529 0
M  V30 6346 H 600.668 -1.97434 0.532934 0
M  V30 6347 H 598.823 -3.64918 -1.30052 0
M  V30 6348 H 599.237 -5.23954 0.239336 0
M  V30 6349 H 600.711 -5.32097 -1.46891 0
M  V30 6350 H 601.188 -3.79531 -2.21026 0
M  V30 6351 H 601.794 -4.21177 -0.590752 0
M  V30 6352 N 600.109 -0.101901 -1.5727 0
M  V30 6353 C 601.056 0.854577 -2.14396 0
M  V30 6354 C 602.026 1.27521 -1.06432 0
M  V30 6355 O 603.211 1.35575 -1.34253 0
M  V30 6356 C 600.351 2.10576 -2.73408 0
M  V30 6357 C 599.464 1.73504 -3.95626 0
M  V30 6358 C 598.599 2.9346 -4.42781 0
M  V30 6359 C 597.638 2.52547 -5.57572 0
M  V30 6360 N 596.775 3.65359 -5.99547 0
M  V30 6361 H 601.615 0.360578 -2.9581 0
M  V30 6362 H 599.152 0.166303 -1.46157 0
M  V30 6363 H 601.11 2.83859 -3.05745 0
M  V30 6364 H 599.74 2.57463 -1.94711 0
M  V30 6365 H 598.792 0.901622 -3.6956 0
M  V30 6366 H 600.104 1.39426 -4.78917 0
M  V30 6367 H 599.258 3.74988 -4.76937 0
M  V30 6368 H 597.997 3.30753 -3.58404 0
M  V30 6369 H 597.002 1.69446 -5.23037 0
M  V30 6370 H 598.227 2.1639 -6.43702 0
M  V30 6371 H 596.173 4.02358 -5.18116 0
M  V30 6372 H 596.09 3.35148 -6.77652 0
M  V30 6373 H 597.358 4.47378 -6.38336 0
M  V30 6374 N 601.587 1.56661 0.17182 0
M  V30 6375 C 602.835 1.81606 0.886774 0
M  V30 6376 C 603.156 0.678818 1.82803 0
M  V30 6377 O 602.426 -0.301354 1.93568 0
M  V30 6378 H 601.006 0.669934 0.330451 0
M  V30 6379 H 603.668 1.94142 0.171757 0
M  V30 6380 H 602.764 2.75634 1.46398 0
M  V30 6381 N 603.065 -0.440357 1.51323 0
M  V30 6382 C 604.028 -1.51679 1.71832 0
M  V30 6383 C 605.028 -1.49648 0.588386 0
M  V30 6384 O 606.218 -1.51724 0.855891 0
M  V30 6385 C 603.35 -2.91228 1.77199 0
M  V30 6386 H 604.543 -1.34799 2.67898 0
M  V30 6387 H 602.096 -0.66883 1.41267 0
M  V30 6388 H 602.831 -3.13516 0.829363 0
M  V30 6389 H 602.616 -2.94107 2.59314 0
M  V30 6390 H 604.106 -3.69321 1.94915 0
M  V30 6391 N 604.543 -1.41418 -0.695603 0
M  V30 6392 C 605.791 -1.40496 -1.45277 0
M  V30 6393 C 606.112 -0.0149538 -1.94994 0
M  V30 6394 O 605.382 0.9432 -1.71699 0
M  V30 6395 H 603.962 -0.517147 -0.539044 0
M  V30 6396 H 606.624 -1.76656 -0.823321 0
M  V30 6397 H 605.72 -2.09214 -2.31595 0
M  V30 6398 N 606.021 0.929856 -1.27246 0
M  V30 6399 C 607.267 1.6798 -1.13625 0
M  V30 6400 C 607.6 1.91586 0.317589 0
M  V30 6401 O 606.875 1.50467 1.23247 0
M  V30 6402 C 607.158 3.04766 -1.91806 0
M  V30 6403 C 607.011 2.88415 -3.45162 0
M  V30 6404 C 608.33 4.05063 -1.72082 0
M  V30 6405 H 605.449 0.609632 -0.414147 0
M  V30 6406 H 608.091 1.0792 -1.56376 0
M  V30 6407 H 606.241 3.56034 -1.55474 0
M  V30 6408 H 607.913 2.44282 -3.91311 0
M  V30 6409 H 606.156 2.23802 -3.71611 0
M  V30 6410 H 606.827 3.85482 -3.95105 0
M  V30 6411 H 609.303 3.62798 -2.03757 0
M  V30 6412 H 608.179 4.98765 -2.29182 0
M  V30 6413 H 608.44 4.37021 -0.668206 0
M  V30 6414 N 607.499 1.09233 1.13605 0
M  V30 6415 C 608.727 0.848908 1.88683 0
M  V30 6416 C 609.142 -0.599667 1.79024 0
M  V30 6417 O 608.499 -1.41265 1.15544 0
M  V30 6418 C 608.55 1.27273 3.38355 0
M  V30 6419 O 608.271 2.66449 3.47759 0
M  V30 6420 C 609.772 1.0614 4.30406 0
M  V30 6421 H 606.992 0.305549 0.597395 0
M  V30 6422 H 609.536 1.4538 1.43823 0
M  V30 6423 H 607.691 0.711776 3.80805 0
M  V30 6424 H 608.105 2.84264 4.40788 0
M  V30 6425 H 609.579 1.40725 5.33761 0
M  V30 6426 H 610.056 -0.000960332 4.392 0
M  V30 6427 H 610.662 1.60821 3.93722 0
M  V30 6428 N 608.977 -1.30795 0.87923 0
M  V30 6429 C 609.907 -2.30742 0.357796 0
M  V30 6430 C 610.888 -1.60747 -0.556283 0
M  V30 6431 O 612.073 -1.88393 -0.47135 0
M  V30 6432 C 609.203 -3.44583 -0.433555 0
M  V30 6433 C 608.157 -4.26235 0.388251 0
M  V30 6434 C 607.483 -5.32073 -0.529352 0
M  V30 6435 C 608.783 -4.96303 1.62729 0
M  V30 6436 H 610.477 -2.74605 1.19299 0
M  V30 6437 H 608.023 -1.32017 0.575104 0
M  V30 6438 H 609.976 -4.13563 -0.808934 0
M  V30 6439 H 608.7 -2.99511 -1.30234 0
M  V30 6440 H 607.359 -3.58936 0.745695 0
M  V30 6441 H 607.007 -4.83249 -1.39569 0
M  V30 6442 H 606.707 -5.87598 0.0166741 0
M  V30 6443 H 608.231 -6.0391 -0.901373 0
M  V30 6444 H 609.645 -5.5783 1.32283 0
M  V30 6445 H 608.042 -5.61666 2.11309 0
M  V30 6446 H 609.112 -4.22758 2.37494 0
M  V30 6447 N 610.455 -0.639598 -1.44038 0
M  V30 6448 C 611.403 0.0723409 -2.32487 0
M  V30 6449 C 612.397 0.827129 -1.47834 0
M  V30 6450 O 613.603 0.73907 -1.64127 0
M  V30 6451 H 609.978 0.0421696 -0.750817 0
M  V30 6452 H 611.949 -0.691593 -2.90275 0
M  V30 6453 C 610.698 1.03452 -3.31953 0
M  V30 6454 H 610.021 0.46315 -3.97108 0
M  V30 6455 H 611.461 1.502 -3.96505 0
M  V30 6456 C 609.92 2.12392 -2.61518 0
M  V30 6457 O 610.45 3.2059 -2.42044 0
M  V30 6458 N 608.656 1.88563 -2.21116 0
M  V30 6459 H 608.203 1.00577 -2.37154 0
M  V30 6460 H 608.161 2.61651 -1.74316 0
M  V30 6461 N 611.933 1.52934 -0.380664 0
M  V30 6462 C 613.179 2.01765 0.20458 0
M  V30 6463 C 613.512 1.26696 1.47179 0
M  V30 6464 O 612.787 0.364936 1.91046 0
M  V30 6465 C 613.07 3.56869 0.481269 0
M  V30 6466 C 612.923 4.42617 -0.800629 0
M  V30 6467 C 614.242 4.2121 1.27554 0
M  V30 6468 H 611.361 0.733388 0.0728803 0
M  V30 6469 H 614.003 1.83068 -0.50853 0
M  V30 6470 H 612.153 3.72932 1.08875 0
M  V30 6471 H 613.825 4.38323 -1.43773 0
M  V30 6472 H 612.068 4.09977 -1.4178 0
M  V30 6473 H 612.739 5.49134 -0.561791 0
M  V30 6474 H 615.215 4.09072 0.761514 0
M  V30 6475 H 614.091 5.29732 1.43788 0
M  V30 6476 H 614.352 3.78269 2.28833 0
M  V30 6477 N 613.412 0.11024 1.57214 0
M  V30 6478 C 614.342 -0.840002 2.17867 0
M  V30 6479 C 615.323 -1.28352 1.11624 0
M  V30 6480 O 616.508 -1.3477 1.39824 0
M  V30 6481 C 613.638 -2.09349 2.77111 0
M  V30 6482 C 612.592 -1.78807 3.8886 0
M  V30 6483 C 611.918 -3.11112 4.34872 0
M  V30 6484 C 613.218 -1.0632 5.11364 0
M  V30 6485 H 614.912 -0.334608 2.97524 0
M  V30 6486 H 612.458 -0.159502 1.43114 0
M  V30 6487 H 614.411 -2.76275 3.18198 0
M  V30 6488 H 613.135 -2.62198 1.9473 0
M  V30 6489 H 611.794 -1.14273 3.48335 0
M  V30 6490 H 611.442 -3.61877 3.49362 0
M  V30 6491 H 611.142 -2.91453 5.10224 0
M  V30 6492 H 612.666 -3.79171 4.78604 0
M  V30 6493 H 614.08 -1.63383 5.49526 0
M  V30 6494 H 612.477 -0.967876 5.92243 0
M  V30 6495 H 613.547 -0.0484569 4.84876 0
M  V30 6496 N 614.89 -1.56749 -0.16351 0
M  V30 6497 C 615.8 -2.00255 -1.2221 0
M  V30 6498 C 616.816 -0.915194 -1.47987 0
M  V30 6499 O 617.992 -1.22342 -1.59982 0
M  V30 6500 C 615.057 -2.36035 -2.53946 0
M  V30 6501 C 614.118 -3.58637 -2.35962 0
M  V30 6502 C 613.351 -3.92701 -3.61416 0
M  V30 6503 O 613.574 -3.27632 -4.66919 0
M  V30 6504 O 612.508 -4.86019 -3.55062 0
M  V30 6505 H 616.334 -2.90586 -0.882794 0
M  V30 6506 H 613.919 -1.44721 -0.370978 0
M  V30 6507 H 615.801 -2.59982 -3.31643 0
M  V30 6508 H 614.476 -1.48863 -2.8744 0
M  V30 6509 H 613.383 -3.39898 -1.5627 0
M  V30 6510 H 614.716 -4.46374 -2.0739 0
M  V30 6511 N 616.368 0.432326 -1.51554 0
M  V30 6512 C 617.301 1.54525 -1.6792 0
M  V30 6513 C 618.279 1.53831 -0.526764 0
M  V30 6514 O 619.463 1.72884 -0.751233 0
M  V30 6515 C 616.59 2.931 -1.69736 0
M  V30 6516 C 615.636 3.11799 -2.91005 0
M  V30 6517 S 616.469 2.87565 -4.51737 0
M  V30 6518 C 617.625 4.28412 -4.56305 0
M  V30 6519 H 617.858 1.4041 -2.62054 0
M  V30 6520 H 615.391 0.622357 -1.41301 0
M  V30 6521 H 617.349 3.72974 -1.71467 0
M  V30 6522 H 616.01 3.04574 -0.767705 0
M  V30 6523 H 615.203 4.13127 -2.8869 0
M  V30 6524 H 614.805 2.39757 -2.87041 0
M  V30 6525 H 617.097 5.21692 -4.32254 0
M  V30 6526 H 618.04 4.35758 -5.58141 0
M  V30 6527 H 618.448 4.12301 -3.85576 0
M  V30 6528 N 617.846 1.41785 0.688094 0
M  V30 6529 C 619.074 1.44915 1.47673 0
M  V30 6530 C 619.489 0.0565786 1.88715 0
M  V30 6531 O 618.846 -0.92579 1.57275 0
M  V30 6532 C 618.897 2.36452 2.73446 0
M  V30 6533 O 618.618 3.7029 2.34131 0
M  V30 6534 C 620.119 2.48463 3.67125 0
M  V30 6535 H 617.339 0.493324 0.454832 0
M  V30 6536 H 619.883 1.86153 0.846594 0
M  V30 6537 H 618.038 1.98502 3.3268 0
M  V30 6538 H 618.452 4.19183 3.15255 0
M  V30 6539 H 619.926 3.16662 4.52138 0
M  V30 6540 H 620.403 1.51826 4.12123 0
M  V30 6541 H 621.009 2.8708 3.13792 0
M  V30 6542 N 619.324 -0.923095 1.27737 0
M  V30 6543 C 620.549 -1.71054 1.17283 0
M  V30 6544 C 620.974 -1.86208 -0.266153 0
M  V30 6545 O 620.332 -1.36545 -1.1927 0
M  V30 6546 C 620.38 -3.0854 1.86642 0
M  V30 6547 O 619.484 -3.95528 1.16752 0
M  V30 6548 H 618.825 -0.524136 0.407649 0
M  V30 6549 H 621.355 -1.15487 1.6889 0
M  V30 6550 H 621.365 -3.58828 1.94182 0
M  V30 6551 H 620.04 -2.96828 2.91317 0
M  V30 6552 H 618.617 -3.53967 1.17312 0
M  V30 6553 N 620.802 -1.09834 -1.13024 0
M  V30 6554 C 621.712 -0.753731 -2.22162 0
M  V30 6555 C 622.728 0.246105 -1.72251 0
M  V30 6556 O 623.904 0.0864051 -2.01215 0
M  V30 6557 C 620.969 -0.183958 -3.46212 0
M  V30 6558 C 620.03 -1.24028 -4.10993 0
M  V30 6559 C 619.263 -0.697597 -5.29121 0
M  V30 6560 O 619.486 0.478092 -5.68393 0
M  V30 6561 O 618.42 -1.4546 -5.84059 0
M  V30 6562 H 622.246 -1.66456 -2.5402 0
M  V30 6563 H 619.831 -0.873026 -1.21238 0
M  V30 6564 H 621.713 0.130257 -4.21199 0
M  V30 6565 H 620.388 0.699823 -3.16045 0
M  V30 6566 H 619.295 -1.60725 -3.37814 0
M  V30 6567 H 620.628 -2.09685 -4.45301 0
M  V30 6568 N 622.28 1.30327 -0.886154 0
M  V30 6569 C 623.557 1.90922 -0.425217 0
M  V30 6570 C 623.937 1.80533 1.09413 0
M  V30 6571 O 623.285 1.2233 1.92996 0
M  V30 6572 C 623.495 3.36529 -0.924638 0
M  V30 6573 C 624.843 4.13598 -0.960305 0
M  V30 6574 O 625.867 3.45377 -0.871382 0
M  V30 6575 O 624.726 5.35482 -1.09184 0
M  V30 6576 H 621.82 0.81668 -0.130238 0
M  V30 6577 H 624.366 1.38886 -0.975132 0
M  V30 6578 H 623.138 3.38181 -1.96849 0
M  V30 6579 H 622.761 3.96021 -0.353955 0
M  V30 6580 N 623.758 0.647228 1.43697 0
M  V30 6581 C 624.688 -0.0345631 2.33474 0
M  V30 6582 C 625.669 -0.818193 1.4913 0
M  V30 6583 O 626.854 -0.780867 1.77809 0
M  V30 6584 C 623.984 -1.00576 3.32418 0
M  V30 6585 C 622.938 -0.33266 4.26705 0
M  V30 6586 C 622.264 -1.41489 5.1564 0
M  V30 6587 C 623.564 0.771204 5.16575 0
M  V30 6588 H 625.258 0.715163 2.90733 0
M  V30 6589 H 622.804 0.345364 1.39797 0
M  V30 6590 H 624.757 -1.49159 3.94119 0
M  V30 6591 H 623.481 -1.78657 2.73403 0
M  V30 6592 H 622.14 0.13267 3.6636 0
M  V30 6593 H 621.788 -2.18698 4.52968 0
M  V30 6594 H 621.488 -0.969799 5.79542 0
M  V30 6595 H 623.012 -1.9022 5.80214 0
M  V30 6596 H 624.426 0.36779 5.72119 0
M  V30 6597 H 622.823 1.1404 5.89165 0
M  V30 6598 H 623.893 1.63169 4.56622 0
M  V30 6599 N 625.236 -1.5273 0.388769 0
M  V30 6600 C 626.146 -2.30165 -0.453993 0
M  V30 6601 C 627.162 -1.37058 -1.07197 0
M  V30 6602 O 628.338 -1.70127 -1.0779 0
M  V30 6603 C 625.403 -3.09303 -1.56628 0
M  V30 6604 C 624.464 -4.18117 -0.973467 0
M  V30 6605 C 623.697 -4.93472 -2.03275 0
M  V30 6606 O 623.92 -4.68913 -3.24772 0
M  V30 6607 O 622.854 -5.78833 -1.65034 0
M  V30 6608 H 626.68 -3.03185 0.176816 0
M  V30 6609 H 624.265 -1.4862 0.152501 0
M  V30 6610 H 626.147 -3.58648 -2.21246 0
M  V30 6611 H 624.822 -2.39098 -2.18206 0
M  V30 6612 H 623.729 -3.7297 -0.290556 0
M  V30 6613 H 625.062 -4.90556 -0.401908 0
M  V30 6614 N 626.714 -0.118576 -1.57153 0
M  V30 6615 C 627.662 0.849114 -2.16547 0
M  V30 6616 C 628.656 1.27567 -1.11458 0
M  V30 6617 O 629.862 1.24746 -1.29763 0
M  V30 6618 H 626.237 0.291935 -0.693021 0
M  V30 6619 H 628.208 0.323693 -2.96639 0
M  V30 6620 C 626.957 2.08951 -2.77912 0
M  V30 6621 H 626.28 1.77021 -3.58474 0
M  V30 6622 H 627.72 2.74666 -3.23008 0
M  V30 6623 C 626.179 2.87899 -1.74974 0
M  V30 6624 O 626.709 3.83268 -1.20285 0
M  V30 6625 N 624.915 2.51884 -1.44924 0
M  V30 6626 H 624.462 1.74397 -1.89587 0
M  V30 6627 H 624.42 3.05003 -0.762921 0
M  V30 6628 N 628.193 1.56834 0.155195 0
M  V30 6629 C 629.156 1.96748 1.17571 0
M  V30 6630 C 630.156 0.853006 1.3631 0
M  V30 6631 O 631.346 1.11978 1.33441 0
M  V30 6632 C 628.478 2.27631 2.53765 0
M  V30 6633 H 629.671 2.88085 0.833498 0
M  V30 6634 H 627.224 1.51141 0.398242 0
M  V30 6635 H 627.959 1.39059 2.92973 0
M  V30 6636 H 627.744 3.0888 2.41527 0
M  V30 6637 H 629.234 2.59377 3.27282 0
M  V30 6638 N 629.671 -0.424282 1.51781 0
M  V30 6639 C 630.601 -1.52305 1.7699 0
M  V30 6640 C 631.582 -1.5839 0.620209 0
M  V30 6641 O 632.767 -1.73908 0.864268 0
M  V30 6642 C 629.897 -2.90271 1.90683 0
M  V30 6643 C 628.851 -2.99043 3.06198 0
M  V30 6644 C 628.177 -4.39116 3.05092 0
M  V30 6645 C 629.477 -2.7192 4.45934 0
M  V30 6646 H 631.171 -1.31461 2.68995 0
M  V30 6647 H 628.717 -0.630985 1.29439 0
M  V30 6648 H 630.67 -3.6711 2.06901 0
M  V30 6649 H 629.394 -3.12376 0.953365 0
M  V30 6650 H 628.053 -2.24646 2.89706 0
M  V30 6651 H 627.701 -4.58207 2.07498 0
M  V30 6652 H 627.401 -4.45912 3.82669 0
M  V30 6653 H 628.925 -5.17911 3.2342 0
M  V30 6654 H 630.339 -3.38487 4.62709 0
M  V30 6655 H 628.736 -2.90111 5.25315 0
M  V30 6656 H 629.806 -1.67445 4.55072 0
M  V30 6657 N 631.149 -1.42148 -0.680565 0
M  V30 6658 C 632.096 -1.45175 -1.79424 0
M  V30 6659 C 633.066 -0.304352 -1.63288 0
M  V30 6660 O 634.251 -0.507591 -1.83924 0
M  V30 6661 C 631.391 -1.35429 -3.17416 0
M  V30 6662 C 630.504 -2.60158 -3.4488 0
M  V30 6663 C 629.639 -2.42596 -4.72568 0
M  V30 6664 C 628.678 -3.62727 -4.93047 0
M  V30 6665 N 627.815 -3.44143 -6.11973 0
M  V30 6666 H 632.655 -2.40349 -1.76172 0
M  V30 6667 H 630.192 -1.19334 -0.860107 0
M  V30 6668 H 632.15 -1.27777 -3.97151 0
M  V30 6669 H 630.78 -0.438536 -3.19807 0
M  V30 6670 H 629.832 -2.78199 -2.5944 0
M  V30 6671 H 631.144 -3.49473 -3.55908 0
M  V30 6672 H 630.298 -2.32497 -5.60384 0
M  V30 6673 H 629.037 -1.50761 -4.63813 0
M  V30 6674 H 628.042 -3.73264 -4.03676 0
M  V30 6675 H 629.267 -4.55534 -5.03652 0
M  V30 6676 H 627.213 -2.5502 -6.04401 0
M  V30 6677 H 627.13 -4.27041 -6.23836 0
M  V30 6678 H 628.398 -3.37845 -7.02482 0
M  V30 6679 N 632.627 0.916307 -1.28225 0
M  V30 6680 C 633.59 1.99996 -1.11957 0
M  V30 6681 C 634.59 1.60688 -0.0600152 0
M  V30 6682 O 635.78 1.71499 -0.30558 0
M  V30 6683 C 632.912 3.33458 -0.708411 0
M  V30 6684 H 634.105 2.15858 -2.08196 0
M  V30 6685 H 631.658 1.09863 -1.11175 0
M  V30 6686 H 632.393 3.23297 0.254859 0
M  V30 6687 H 632.178 3.63349 -1.47377 0
M  V30 6688 H 633.668 4.13014 -0.617164 0
M  V30 6689 N 634.105 1.10431 1.1244 0
M  V30 6690 C 635.351 0.847972 1.84221 0
M  V30 6691 C 635.684 -0.624903 1.83871 0
M  V30 6692 O 634.959 -1.46074 1.28423 0
M  V30 6693 C 635.242 1.39695 3.319 0
M  V30 6694 C 635.095 2.93668 3.40704 0
M  V30 6695 C 636.414 1.03924 4.27654 0
M  V30 6696 H 633.533 0.309502 0.668863 0
M  V30 6697 H 636.175 1.36745 1.31912 0
M  V30 6698 H 634.325 0.955095 3.76577 0
M  V30 6699 H 635.997 3.46379 3.04662 0
M  V30 6700 H 634.24 3.30272 2.81252 0
M  V30 6701 H 634.911 3.27162 4.446 0
M  V30 6702 H 637.387 1.42049 3.91102 0
M  V30 6703 H 636.263 1.45027 5.29394 0
M  V30 6704 H 636.524 -0.051336 4.4207 0
M  V30 6705 N 635.583 -1.29855 0.893053 0
M  V30 6706 C 636.832 -1.95104 0.511597 0
M  V30 6707 C 637.145 -1.71226 -0.945567 0
M  V30 6708 O 638.351 -2.30525 -1.43424 0
M  V30 6709 C 636.807 -3.49374 0.864034 0
M  V30 6710 C 636.415 -3.82061 2.33952 0
M  V30 6711 C 638.159 -4.20894 0.552167 0
M  V30 6712 C 636.066 -5.29546 2.63316 0
M  V30 6713 H 634.996 -0.73029 0.187597 0
M  V30 6714 H 637.647 -1.47682 1.08914 0
M  V30 6715 H 636.029 -3.95413 0.215493 0
M  V30 6716 H 637.203 -3.46904 3.03305 0
M  V30 6717 H 635.518 -3.23665 2.61973 0
M  V30 6718 H 638.115 -5.29435 0.748489 0
M  V30 6719 H 638.458 -4.13178 -0.508924 0
M  V30 6720 H 638.991 -3.80564 1.15825 0
M  V30 6721 H 635.73 -5.4232 3.68197 0
M  V30 6722 H 635.25 -5.65974 1.9858 0
M  V30 6723 H 636.929 -5.97068 2.49236 0
M  V30 6724 N 637.061 -0.65484 -1.43351 0
M  V30 6725 C 638.009 0.0476784 -2.32551 0
M  V30 6726 C 639.003 0.811403 -1.48703 0
M  V30 6727 O 640.209 0.721621 -1.64902 0
M  V30 6728 H 636.584 0.0342038 -0.751222 0
M  V30 6729 H 638.555 -0.722342 -2.89525 0
M  V30 6730 C 637.304 0.999251 -3.33032 0
M  V30 6731 H 636.627 0.421005 -3.97577 0
M  V30 6732 H 638.067 1.45986 -3.98076 0
M  V30 6733 C 636.526 2.09606 -2.63756 0
M  V30 6734 O 637.056 3.18004 -2.4543 0
M  V30 6735 N 635.262 1.86207 -2.23103 0
M  V30 6736 H 634.809 0.980555 -2.38208 0
M  V30 6737 H 634.767 2.59787 -1.77081 0
M  V30 6738 N 638.539 1.52521 -0.396863 0
M  V30 6739 C 639.816 1.94112 0.240842 0
M  V30 6740 C 640.196 1.33288 1.637 0
M  V30 6741 O 639.544 0.503901 2.22875 0
M  V30 6742 C 639.754 3.48033 0.259567 0
M  V30 6743 C 641.102 4.21822 0.484866 0
M  V30 6744 O 642.126 3.54579 0.339453 0
M  V30 6745 O 640.985 5.41042 0.770412 0
M  V30 6746 H 638.079 0.812973 0.151671 0
M  V30 6747 H 640.625 1.63572 -0.451918 0
M  V30 6748 H 639.397 3.84655 -0.718078 0
M  V30 6749 H 639.02 3.84899 0.996937 0
M  V30 6750 N 640.017 0.126909 1.57088 0
M  V30 6751 C 640.964 -0.82036 2.15728 0
M  V30 6752 C 641.934 -1.25811 1.08447 0
M  V30 6753 O 643.119 -1.33422 1.36393 0
M  V30 6754 C 640.259 -2.06199 2.76724 0
M  V30 6755 C 639.372 -1.67188 3.98337 0
M  V30 6756 C 638.507 -2.86378 4.47393 0
M  V30 6757 C 637.546 -2.43644 5.61519 0
M  V30 6758 N 636.683 -3.55775 6.05284 0
M  V30 6759 H 641.523 -0.313472 2.96347 0
M  V30 6760 H 639.06 -0.14303 1.46403 0
M  V30 6761 H 641.018 -2.78959 3.10222 0
M  V30 6762 H 639.648 -2.54333 1.98782 0
M  V30 6763 H 638.7 -0.842714 3.70948 0
M  V30 6764 H 640.012 -1.31789 4.81075 0
M  V30 6765 H 639.166 -3.67353 4.82842 0
M  V30 6766 H 637.905 -3.25009 3.63621 0
M  V30 6767 H 636.91 -1.61104 5.25667 0
M  V30 6768 H 638.135 -2.06122 6.47063 0
M  V30 6769 H 636.081 -3.94065 5.24451 0
M  V30 6770 H 635.998 -3.24325 6.82898 0
M  V30 6771 H 637.266 -4.37166 6.45373 0
M  V30 6772 N 641.495 -1.56914 -0.146875 0
M  V30 6773 C 642.72 -1.87881 -0.878386 0
M  V30 6774 C 643.145 -0.715945 -1.73942 0
M  V30 6775 O 642.503 0.334447 -1.78189 0
M  V30 6776 C 642.551 -3.17431 -1.71084 0
M  V30 6777 O 641.655 -3.01374 -2.81509 0
M  V30 6778 H 640.996 -0.617289 -0.244644 0
M  V30 6779 H 643.526 -2.04136 -0.137654 0
M  V30 6780 H 643.536 -3.49455 -2.10582 0
M  V30 6781 H 642.211 -4.01671 -1.07856 0
M  V30 6782 H 640.788 -2.80758 -2.45416 0
M  V30 6783 N 642.974 0.416227 -1.52004 0
M  V30 6784 C 644.204 1.18401 -1.69307 0
M  V30 6785 C 644.612 1.84943 -0.399072 0
M  V30 6786 O 643.955 1.72406 0.634177 0
M  V30 6787 C 644.017 2.29465 -2.76742 0
M  V30 6788 C 643.681 1.83117 -4.18709 0
M  V30 6789 C 644.678 1.32286 -5.02789 0
M  V30 6790 C 642.363 1.90167 -4.64911 0
M  V30 6791 C 644.357 0.891178 -6.31139 0
M  V30 6792 C 642.044 1.4661 -5.93253 0
M  V30 6793 C 643.042 0.961696 -6.76196 0
M  V30 6794 O 642.73 0.532388 -8.02135 0
M  V30 6795 H 642.462 0.362098 -0.570843 0
M  V30 6796 H 645.016 0.496764 -1.99302 0
M  V30 6797 H 643.246 3.01531 -2.42107 0
M  V30 6798 H 644.935 2.91252 -2.82713 0
M  V30 6799 H 645.701 1.26218 -4.68288 0
M  V30 6800 H 641.58 2.28371 -4.00459 0
M  V30 6801 H 645.124 0.496788 -6.95829 0
M  V30 6802 H 641.021 1.52355 -6.27263 0
M  V30 6803 H 641.789 0.656339 -8.15864 0
M  V30 6804 N 644.452 1.42507 0.673017 0
M  V30 6805 C 645.399 1.46124 1.78651 0
M  V30 6806 C 646.369 0.313007 1.63124 0
M  V30 6807 O 647.554 0.517337 1.83653 0
M  V30 6808 C 644.694 1.3711 3.16694 0
M  V30 6809 C 643.807 2.61983 3.43495 0
M  V30 6810 C 642.942 2.45098 4.71275 0
M  V30 6811 C 641.981 3.65336 4.91117 0
M  V30 6812 N 641.118 3.47383 6.10139 0
M  V30 6813 H 645.958 2.4128 1.74895 0
M  V30 6814 H 643.495 1.19788 0.853766 0
M  V30 6815 H 645.453 1.29881 3.96468 0
M  V30 6816 H 644.083 0.45549 3.1957 0
M  V30 6817 H 643.135 2.79571 2.57961 0
M  V30 6818 H 644.447 3.51355 3.5405 0
M  V30 6819 H 643.601 2.35466 5.59143 0
M  V30 6820 H 642.34 1.53219 4.63007 0
M  V30 6821 H 641.345 3.754 4.0169 0
M  V30 6822 H 642.57 4.58199 5.01229 0
M  V30 6823 H 640.516 2.58222 6.0304 0
M  V30 6824 H 640.433 4.30344 6.21563 0
M  V30 6825 H 641.701 3.41565 7.00681 0
M  V30 6826 N 645.93 -0.909495 1.28709 0
M  V30 6827 C 646.84 -2.04558 1.14861 0
M  V30 6828 C 647.856 -1.73842 0.0741621 0
M  V30 6829 O 649.032 -1.99383 0.2843 0
M  V30 6830 C 646.097 -3.36957 0.816148 0
M  V30 6831 C 645.158 -3.81255 1.97341 0
M  V30 6832 C 644.391 -5.07335 1.65671 0
M  V30 6833 O 644.614 -5.67514 0.573053 0
M  V30 6834 O 643.548 -5.47449 2.50167 0
M  V30 6835 H 647.374 -2.19161 2.10243 0
M  V30 6836 H 644.959 -1.03159 1.08068 0
M  V30 6837 H 646.841 -4.16436 0.644873 0
M  V30 6838 H 645.516 -3.2352 -0.107983 0
M  V30 6839 H 644.423 -3.02584 2.19986 0
M  V30 6840 H 645.756 -3.99261 2.87839 0
M  V30 6841 N 647.408 -1.11026 -1.11852 0
M  V30 6842 C 648.356 -0.759643 -2.19846 0
M  V30 6843 C 649.35 0.246964 -1.6759 0
M  V30 6844 O 650.556 0.106693 -1.79684 0
M  V30 6845 H 646.931 -0.22775 -0.716683 0
M  V30 6846 H 648.902 -1.6792 -2.46669 0
M  V30 6847 C 647.651 -0.214364 -3.47039 0
M  V30 6848 H 646.974 -0.980175 -3.87599 0
M  V30 6849 H 648.414 -0.00717047 -4.23999 0
M  V30 6850 C 646.873 1.05436 -3.19976 0
M  V30 6851 O 647.403 2.13483 -3.40276 0
M  V30 6852 N 645.609 0.975436 -2.7374 0
M  V30 6853 H 645.156 0.0960853 -2.57421 0
M  V30 6854 H 645.114 1.82501 -2.5601 0
M  V30 6855 N 648.886 1.2938 -0.899927 0
M  V30 6856 C 650.135 1.9483 -0.521937 0
M  V30 6857 C 650.448 1.71725 0.936473 0
M  V30 6858 O 651.654 2.31282 1.42199 0
M  V30 6859 C 650.11 3.48911 -0.88255 0
M  V30 6860 C 649.718 3.80815 -2.35974 0
M  V30 6861 C 651.462 4.20595 -0.57448 0
M  V30 6862 C 649.369 5.28142 -2.66121 0
M  V30 6863 H 648.299 0.729285 -0.191468 0
M  V30 6864 H 650.95 1.47103 -1.09695 0
M  V30 6865 H 649.332 3.95293 -0.236459 0
M  V30 6866 H 650.506 3.45291 -3.05141 0
M  V30 6867 H 648.821 3.22271 -2.63686 0
M  V30 6868 H 651.418 5.29031 -0.776556 0
M  V30 6869 H 651.761 4.13442 0.487005 0
M  V30 6870 H 652.294 3.79945 -1.17842 0
M  V30 6871 H 649.033 5.4036 -3.71068 0
M  V30 6872 H 648.553 5.64913 -2.01578 0
M  V30 6873 H 650.232 5.95738 -2.52399 0
M  V30 6874 N 650.364 0.662433 1.43002 0
M  V30 6875 C 651.297 -0.073459 2.28082 0
M  V30 6876 C 652.275 -0.820869 1.40358 0
M  V30 6877 O 653.459 -0.818545 1.698 0
M  V30 6878 C 650.586 -1.11097 3.19961 0
M  V30 6879 C 649.632 -0.460557 4.24006 0
M  V30 6880 S 650.465 0.772717 5.29896 0
M  V30 6881 C 651.621 -0.264028 6.25343 0
M  V30 6882 H 651.854 0.648227 2.90147 0
M  V30 6883 H 649.387 0.451566 1.47649 0
M  V30 6884 H 651.345 -1.70452 3.73439 0
M  V30 6885 H 650.006 -1.80503 2.57056 0
M  V30 6886 H 649.199 -1.24299 4.88432 0
M  V30 6887 H 648.801 0.0591038 3.73953 0
M  V30 6888 H 651.093 -1.12748 6.68052 0
M  V30 6889 H 652.036 0.345443 7.07257 0
M  V30 6890 H 652.444 -0.603964 5.6126 0
M  V30 6891 N 651.842 -1.52309 0.404946 0
M  V30 6892 C 653.258 -1.59503 0.0556255 0
M  V30 6893 C 653.458 -1.41805 -1.43156 0
M  V30 6894 O 652.514 -1.2429 -2.19792 0
M  V30 6895 C 653.827 -2.95687 0.546801 0
M  V30 6896 C 655.375 -3.08909 0.504413 0
M  V30 6897 C 655.85 -4.47566 0.97203 0
M  V30 6898 N 657.341 -4.53795 0.928679 0
M  V30 6899 C 658.076 -5.59346 1.26174 0
M  V30 6900 N 657.572 -6.72469 1.66604 0
M  V30 6901 N 659.365 -5.49532 1.18198 0
M  V30 6902 H 651.516 -1.6206 1.37296 0
M  V30 6903 H 653.779 -0.762161 0.563751 0
M  V30 6904 H 653.485 -3.13905 1.58609 0
M  V30 6905 H 653.359 -3.77172 -0.0457905 0
M  V30 6906 H 655.746 -2.90378 -0.525819 0
M  V30 6907 H 655.827 -2.2934 1.13301 0
M  V30 6908 H 655.471 -4.6684 2.00057 0
M  V30 6909 H 655.401 -5.25625 0.320292 0
M  V30 6910 H 657.892 -3.72588 0.631369 0
M  V30 6911 H 658.205 -7.48993 1.9034 0
M  V30 6912 H 656.55 -6.73761 1.70504 0
M  V30 6913 H 659.741 -4.60038 0.865011 0
M  V30 6914 H 659.914 -6.31687 1.44485 0
M  V30 6915 N 653.32 -0.135238 -1.57019 0
M  V30 6916 C 654.25 0.805235 -2.19176 0
M  V30 6917 C 655.231 1.2656 -1.13651 0
M  V30 6918 O 656.416 1.32528 -1.4195 0
M  V30 6919 C 653.546 2.04914 -2.80406 0
M  V30 6920 C 652.5 1.72598 -3.91655 0
M  V30 6921 C 651.826 3.04154 -4.39766 0
M  V30 6922 C 653.126 0.981709 -5.12991 0
M  V30 6923 H 654.82 0.287232 -2.98019 0
M  V30 6924 H 652.366 0.136714 -1.4335 0
M  V30 6925 H 654.319 2.71178 -3.22553 0
M  V30 6926 H 653.043 2.59067 -1.98877 0
M  V30 6927 H 651.702 1.08717 -3.50109 0
M  V30 6928 H 651.35 3.56274 -3.55075 0
M  V30 6929 H 651.05 2.83299 -5.14796 0
M  V30 6930 H 652.574 3.71509 -4.84576 0
M  V30 6931 H 653.988 1.5462 -5.52056 0
M  V30 6932 H 652.385 0.873533 -5.93708 0
M  V30 6933 H 653.455 -0.0286887 -4.84892 0
M  V30 6934 N 654.798 1.5699 0.138552 0
M  V30 6935 C 656.023 1.88344 0.86841 0
M  V30 6936 C 656.448 0.725159 1.7356 0
M  V30 6937 O 655.806 -0.324992 1.78363 0
M  V30 6938 C 655.854 3.18334 1.69398 0
M  V30 6939 O 654.958 3.02863 2.79907 0
M  V30 6940 H 654.299 0.618577 0.241367 0
M  V30 6941 H 656.829 2.04207 0.126826 0
M  V30 6942 H 656.839 3.50567 2.08726 0
M  V30 6943 H 655.514 4.02238 1.05725 0
M  V30 6944 H 654.091 2.82056 2.43924 0
M  V30 6945 N 656.276 -0.40816 1.52223 0
M  V30 6946 C 657.501 -1.18127 1.70472 0
M  V30 6947 C 657.926 -1.83491 0.41384 0
M  V30 6948 O 657.284 -1.70047 -0.628778 0
M  V30 6949 C 657.332 -2.21935 2.84213 0
M  V30 6950 O 656.436 -3.28099 2.4985 0
M  V30 6951 H 655.777 -0.344781 0.56747 0
M  V30 6952 H 658.307 -0.478328 1.9893 0
M  V30 6953 H 658.317 -2.66248 3.09153 0
M  V30 6954 H 656.992 -1.73744 3.7787 0
M  V30 6955 H 655.569 -2.89058 2.35584 0
M  V30 6956 N 657.755 -1.42862 -0.66545 0
M  V30 6957 C 658.685 -1.49867 -1.79059 0
M  V30 6958 C 659.666 -0.354394 -1.66367 0
M  V30 6959 O 660.851 -0.569969 -1.85647 0
M  V30 6960 C 657.981 -1.40943 -3.17415 0
M  V30 6961 C 656.935 -2.53495 -3.44854 0
M  V30 6962 C 656.261 -2.29626 -4.82883 0
M  V30 6963 C 657.561 -3.95781 -3.40815 0
M  V30 6964 H 659.255 -2.44037 -1.73453 0
M  V30 6965 H 656.801 -1.17456 -0.833071 0
M  V30 6966 H 658.754 -1.4445 -3.95869 0
M  V30 6967 H 657.478 -0.432716 -3.23721 0
M  V30 6968 H 656.137 -2.4932 -2.68766 0
M  V30 6969 H 655.785 -1.30226 -4.8585 0
M  V30 6970 H 655.485 -3.05065 -5.02204 0
M  V30 6971 H 657.009 -2.34897 -5.63609 0
M  V30 6972 H 658.423 -4.01508 -4.09224 0
M  V30 6973 H 656.82 -4.71148 -3.71672 0
M  V30 6974 H 657.89 -4.21786 -2.39216 0
M  V30 6975 N 659.233 0.902656 -1.29189 0
M  V30 6976 C 660.183 1.99326 -1.10695 0
M  V30 6977 C 661.167 1.60877 -0.0272521 0
M  V30 6978 O 662.359 1.75245 -0.248635 0
M  V30 6979 C 659.488 3.34265 -0.78244 0
M  V30 6980 C 658.574 3.79081 -1.90153 0
M  V30 6981 N 658.965 3.96162 -3.14466 0
M  V30 6982 C 657.263 4.08333 -1.79389 0
M  V30 6983 C 657.964 4.3388 -3.87458 0
M  V30 6984 N 656.94 4.42759 -3.15381 0
M  V30 6985 H 660.742 2.10597 -2.05003 0
M  V30 6986 H 658.256 1.09127 -1.20271 0
M  V30 6987 H 660.253 4.12097 -0.630996 0
M  V30 6988 H 658.913 3.2434 0.152754 0
M  V30 6989 H 659.924 3.81775 -3.49954 0
M  V30 6990 H 656.601 4.06982 -0.931217 0
M  V30 6991 H 657.991 4.54965 -4.94425 0
M  V30 6992 N 660.711 1.11618 1.11262 0
M  V30 6993 C 661.658 0.7762 2.17356 0
M  V30 6994 C 662.628 -0.253152 1.6416 0
M  V30 6995 O 663.813 -0.129655 1.90359 0
M  V30 6996 C 660.953 0.227581 3.44349 0
M  V30 6997 C 660.066 1.31372 4.1154 0
M  V30 6998 C 659.201 0.72544 5.26223 0
M  V30 6999 C 658.24 1.7913 5.85302 0
M  V30 7000 N 657.377 1.22237 6.91377 0
M  V30 7001 H 662.217 1.68508 2.45783 0
M  V30 7002 H 659.754 0.841475 1.20655 0
M  V30 7003 H 661.712 -0.108483 4.17059 0
M  V30 7004 H 660.342 -0.644486 3.16301 0
M  V30 7005 H 659.394 1.7667 3.36885 0
M  V30 7006 H 660.706 2.12005 4.51504 0
M  V30 7007 H 659.86 0.339541 6.05749 0
M  V30 7008 H 658.599 -0.112188 4.87571 0
M  V30 7009 H 657.604 2.18648 5.04453 0
M  V30 7010 H 658.829 2.63199 6.26022 0
M  V30 7011 H 656.775 0.406423 6.5474 0
M  V30 7012 H 656.692 1.9654 7.30006 0
M  V30 7013 H 657.96 0.863426 7.74703 0
M  V30 7014 N 662.189 -1.289 0.906776 0
M  V30 7015 C 663.466 -1.90221 0.455537 0
M  V30 7016 C 663.846 -1.82251 -1.06527 0
M  V30 7017 O 663.194 -1.25385 -1.91026 0
M  V30 7018 C 663.404 -3.35015 0.97806 0
M  V30 7019 C 664.752 -4.12018 1.02598 0
M  V30 7020 O 665.776 -3.43947 0.926218 0
M  V30 7021 O 664.635 -5.33677 1.17689 0
M  V30 7022 H 661.729 -0.814505 0.143214 0
M  V30 7023 H 664.275 -1.37317 0.997104 0
M  V30 7024 H 663.047 -3.35006 2.02204 0
M  V30 7025 H 662.67 -3.95408 0.416914 0
M  V30 7026 N 663.667 -0.670007 -1.42649 0
M  V30 7027 C 665.083 -0.33911 -1.55956 0
M  V30 7028 C 665.283 1.1558 -1.65056 0
M  V30 7029 O 664.339 1.94111 -1.61485 0
M  V30 7030 C 665.652 -1.06522 -2.812 0
M  V30 7031 C 667.2 -1.04708 -2.94966 0
M  V30 7032 C 667.675 -1.75442 -4.23065 0
M  V30 7033 N 669.166 -1.72286 -4.29967 0
M  V30 7034 C 669.901 -2.23877 -5.27889 0
M  V30 7035 N 669.397 -2.83829 -6.31991 0
M  V30 7036 N 671.19 -2.14279 -5.19654 0
M  V30 7037 H 663.341 -1.6399 -1.34986 0
M  V30 7038 H 665.604 -0.690603 -0.649439 0
M  V30 7039 H 665.31 -2.12033 -2.80597 0
M  V30 7040 H 665.184 -0.627398 -3.71946 0
M  V30 7041 H 667.571 -0.000315966 -2.951 0
M  V30 7042 H 667.652 -1.52374 -2.05465 0
M  V30 7043 H 667.296 -2.80084 -4.23693 0
M  V30 7044 H 667.226 -1.25229 -5.11493 0
M  V30 7045 H 669.717 -1.28554 -3.55362 0
M  V30 7046 H 670.03 -3.20827 -7.03057 0
M  V30 7047 H 668.375 -2.87896 -6.32567 0
M  V30 7048 H 671.566 -1.67135 -4.37245 0
M  V30 7049 H 671.739 -2.54792 -5.95806 0
M  V30 7050 N 665.145 1.52092 -0.413018 0
M  V30 7051 C 666.556 1.86617 0.0556967 0
M  V30 7052 C 666.907 1.33156 1.44097 0
M  V30 7053 O 666.032 0.672417 2.05688 0
M  V30 7054 C 666.627 3.38628 0.107844 0
M  V30 7055 C 665.186 3.72778 0.520904 0
M  V30 7056 C 664.333 2.75649 -0.302109 0
M  V30 7057 H 667.284 1.45663 -0.629919 0
M  V30 7058 H 667.305 3.69152 0.922324 0
M  V30 7059 H 666.817 3.77508 -0.900506 0
M  V30 7060 H 664.918 3.39478 1.53575 0
M  V30 7061 H 665.031 4.7838 0.262591 0
M  V30 7062 H 663.395 2.53603 0.236115 0
M  V30 7063 H 664.178 3.17369 -1.30888 0
M  V30 7064 N 666.623 0.143563 1.56945 0
M  V30 7065 C 667.869 -0.50916 1.96304 0
M  V30 7066 C 668.202 -1.64741 1.0283 0
M  V30 7067 O 667.477 -1.94374 0.0700361 0
M  V30 7068 C 667.76 -1.0186 3.45393 0
M  V30 7069 C 667.613 0.117923 4.49645 0
M  V30 7070 C 668.932 -1.90151 3.96901 0
M  V30 7071 H 666.051 -0.183608 0.713763 0
M  V30 7072 H 668.693 0.224095 1.88674 0
M  V30 7073 H 666.843 -1.64345 3.52027 0
M  V30 7074 H 668.515 0.754145 4.55094 0
M  V30 7075 H 666.758 0.777568 4.26774 0
M  V30 7076 H 667.429 -0.280187 5.51288 0
M  V30 7077 H 669.905 -1.375 3.92725 0
M  V30 7078 H 668.781 -2.22707 5.0169 0
M  V30 7079 H 669.042 -2.83718 3.39052 0
M  V30 7080 N 668.101 -1.57061 -0.130224 0
M  V30 7081 C 669.011 -2.02802 -1.17934 0
M  V30 7082 C 670.027 -0.946378 -1.46013 0
M  V30 7083 O 671.203 -1.25708 -1.57351 0
M  V30 7084 C 668.268 -2.41368 -2.48882 0
M  V30 7085 C 667.329 -3.63561 -2.28301 0
M  V30 7086 C 666.562 -4.00279 -3.53005 0
M  V30 7087 O 666.785 -3.37463 -4.59864 0
M  V30 7088 O 665.719 -4.93441 -3.44673 0
M  V30 7089 H 669.545 -2.92394 -0.820958 0
M  V30 7090 H 667.13 -1.45475 -0.340197 0
M  V30 7091 H 669.012 -2.66958 -3.26054 0
M  V30 7092 H 667.687 -1.54926 -2.84217 0
M  V30 7093 H 666.594 -3.43136 -1.49025 0
M  V30 7094 H 667.927 -4.50673 -1.97875 0
M  V30 7095 N 669.579 0.400081 -1.52437 0
M  V30 7096 C 670.99 0.97851 -1.59003 0
M  V30 7097 C 671.341 1.91293 -0.436068 0
M  V30 7098 O 670.466 2.1183 0.442365 0
M  V30 7099 C 671.061 1.78145 -2.88184 0
M  V30 7100 C 669.62 2.30976 -2.97199 0
M  V30 7101 C 668.767 1.11212 -2.54022 0
M  V30 7102 H 671.718 0.180002 -1.57676 0
M  V30 7103 H 671.739 2.63968 -2.74046 0
M  V30 7104 H 671.251 1.1011 -3.72152 0
M  V30 7105 H 669.352 3.02355 -2.17744 0
M  V30 7106 H 669.465 2.61221 -4.01622 0
M  V30 7107 H 667.829 1.46882 -2.08081 0
M  V30 7108 H 668.612 0.447307 -3.40373 0
M  V30 7109 N 671.057 1.43213 0.657864 0
M  V30 7110 C 671.987 1.50815 1.78262 0
M  V30 7111 C 672.968 0.363211 1.66177 0
M  V30 7112 O 674.153 0.579806 1.85343 0
M  V30 7113 C 671.283 1.42625 3.16663 0
M  V30 7114 C 670.237 2.5532 3.43505 0
M  V30 7115 C 669.563 2.32184 4.81658 0
M  V30 7116 C 670.863 3.97583 3.38711 0
M  V30 7117 H 672.557 2.44954 1.72157 0
M  V30 7118 H 670.103 1.17896 0.82683 0
M  V30 7119 H 672.056 1.46548 3.95097 0
M  V30 7120 H 670.78 0.449877 3.23487 0
M  V30 7121 H 669.439 2.50742 2.6744 0
M  V30 7122 H 669.087 1.32801 4.85153 0
M  V30 7123 H 668.787 3.07724 5.00579 0
M  V30 7124 H 670.311 2.37883 5.62356 0
M  V30 7125 H 671.725 4.03673 4.07089 0
M  V30 7126 H 670.122 4.73112 3.69168 0
M  V30 7127 H 671.192 4.23049 2.36976 0
M  V30 7128 N 672.536 -0.895792 1.29666 0
M  V30 7129 C 673.813 -1.62723 1.08538 0
M  V30 7130 C 674.193 -2.07848 -0.369119 0
M  V30 7131 O 673.541 -1.8372 -1.35864 0
M  V30 7132 C 673.751 -2.80505 2.07648 0
M  V30 7133 C 675.099 -3.51098 2.3878 0
M  V30 7134 O 676.123 -2.90679 2.05874 0
M  V30 7135 O 674.982 -4.60028 2.9502 0
M  V30 7136 H 672.076 -0.714692 0.416106 0
M  V30 7137 H 674.622 -0.943517 1.41053 0
M  V30 7138 H 673.394 -2.44386 3.05599 0
M  V30 7139 H 673.017 -3.5658 1.75887 0
M  V30 7140 N 674.014 -1.12206 -1.10668 0
M  V30 7141 C 674.944 -0.810086 -2.18997 0
M  V30 7142 C 675.925 0.225065 -1.68604 0
M  V30 7143 O 677.11 0.086783 -1.94006 0
M  V30 7144 C 674.24 -0.261262 -3.46316 0
M  V30 7145 C 673.194 -1.2292 -4.09969 0
M  V30 7146 C 672.52 -0.540713 -5.31959 0
M  V30 7147 C 673.82 -2.58295 -4.53962 0
M  V30 7148 H 675.514 -1.7159 -2.45352 0
M  V30 7149 H 673.06 -0.82646 -1.17922 0
M  V30 7150 H 675.013 -0.0307522 -4.21389 0
M  V30 7151 H 673.737 0.679879 -3.19445 0
M  V30 7152 H 672.396 -1.44548 -3.369 0
M  V30 7153 H 672.044 0.405492 -5.01363 0
M  V30 7154 H 671.744 -1.18637 -5.75499 0
M  V30 7155 H 673.268 -0.319184 -6.09765 0
M  V30 7156 H 674.682 -2.40709 -5.20319 0
M  V30 7157 H 673.079 -3.18916 -5.08343 0
M  V30 7158 H 674.149 -3.16918 -3.67002 0
M  V30 7159 N 675.492 1.28418 -0.913599 0
M  V30 7160 C 676.455 2.25564 -0.406624 0
M  V30 7161 C 677.455 1.5387 0.466965 0
M  V30 7162 O 678.645 1.72094 0.270042 0
M  V30 7163 C 675.777 3.38339 0.417053 0
M  V30 7164 H 676.97 2.71926 -1.26477 0
M  V30 7165 H 674.523 1.40098 -0.692986 0
M  V30 7166 H 675.258 2.97339 1.29461 0
M  V30 7167 H 675.043 3.91542 -0.209102 0
M  V30 7168 H 676.533 4.10578 0.762602 0
M  V30 7169 N 676.97 0.677563 1.42291 0
M  V30 7170 C 678.216 0.201272 2.01799 0
M  V30 7171 C 678.549 -1.19004 1.53465 0
M  V30 7172 O 677.824 -1.79953 0.738039 0
M  V30 7173 C 678.107 0.238968 3.59306 0
M  V30 7174 C 677.96 1.66594 4.17812 0
M  V30 7175 C 679.279 -0.411287 4.38174 0
M  V30 7176 H 676.398 0.0746114 0.733214 0
M  V30 7177 H 679.04 0.862872 1.69276 0
M  V30 7178 H 677.19 -0.324368 3.87144 0
M  V30 7179 H 678.862 2.28173 4.00917 0
M  V30 7180 H 677.105 2.20576 3.73536 0
M  V30 7181 H 677.776 1.64398 5.26951 0
M  V30 7182 H 680.252 0.0682804 4.16044 0
M  V30 7183 H 679.128 -0.354286 5.47755 0
M  V30 7184 H 679.389 -1.4893 4.1626 0
M  V30 7185 N 678.448 -1.51871 0.421078 0
M  V30 7186 C 679.695 -2.01938 -0.15079 0
M  V30 7187 C 680.023 -1.30611 -1.44121 0
M  V30 7188 O 679.278 -0.404631 -1.91471 0
M  V30 7189 C 679.577 -3.54764 -0.433292 0
M  V30 7190 C 679.243 -4.44288 0.76936 0
M  V30 7191 C 677.905 -4.68477 1.09921 0
M  V30 7192 C 680.257 -4.96915 1.57242 0
M  V30 7193 C 677.585 -5.4254 2.2331 0
M  V30 7194 C 679.937 -5.7222 2.69716 0
M  V30 7195 C 678.601 -5.94678 3.03174 0
M  V30 7196 H 677.871 -0.738943 -0.0551781 0
M  V30 7197 H 680.518 -1.82977 0.564945 0
M  V30 7198 H 678.823 -3.71968 -1.23074 0
M  V30 7199 H 680.52 -3.91023 -0.888922 0
M  V30 7200 H 677.11 -4.25646 0.502305 0
M  V30 7201 H 681.294 -4.78125 1.3308 0
M  V30 7202 H 676.55 -5.58146 2.49565 0
M  V30 7203 H 680.724 -6.11992 3.32323 0
M  V30 7204 H 678.351 -6.51848 3.9115 0
M  V30 7205 N 679.926 -0.151884 -1.56866 0
M  V30 7206 C 681.172 0.492327 -1.97352 0
M  V30 7207 C 681.527 1.62156 -1.03553 0
M  V30 7208 O 680.82 1.91467 -0.0714872 0
M  V30 7209 C 681.014 1.04074 -3.41911 0
M  V30 7210 C 680.843 -0.0338306 -4.49687 0
M  V30 7211 C 679.613 -0.476914 -5.03044 0
M  V30 7212 C 681.811 -0.827105 -5.07606 0
M  V30 7213 N 679.793 -1.53382 -5.9443 0
M  V30 7214 C 681.164 -1.73439 -5.95247 0
M  V30 7215 C 683.219 -0.874351 -4.90163 0
M  V30 7216 C 681.922 -2.68488 -6.67313 0
M  V30 7217 C 683.948 -1.81269 -5.62935 0
M  V30 7218 C 683.31 -2.70749 -6.50288 0
M  V30 7219 H 679.409 0.148822 -0.767708 0
M  V30 7220 H 681.993 -0.247615 -1.93119 0
M  V30 7221 H 680.164 1.75027 -3.46728 0
M  V30 7222 H 681.896 1.65197 -3.69448 0
M  V30 7223 H 678.651 -0.0782493 -4.73535 0
M  V30 7224 H 679.075 -2.06217 -6.44828 0
M  V30 7225 H 683.717 -0.196628 -4.22343 0
M  V30 7226 H 681.435 -3.37257 -7.34359 0
M  V30 7227 H 685.021 -1.85511 -5.51432 0
M  V30 7228 H 683.901 -3.42175 -7.0561 0
M  V30 7229 N 681.404 1.57128 0.121893 0
M  V30 7230 C 682.65 1.84974 0.831418 0
M  V30 7231 C 682.983 0.737204 1.79663 0
M  V30 7232 O 682.258 -0.257199 1.92792 0
M  V30 7233 C 682.541 3.23397 1.58386 0
M  V30 7234 C 682.394 4.45246 0.638445 0
M  V30 7235 C 683.713 3.59355 2.54071 0
M  V30 7236 H 680.832 0.67282 0.300803 0
M  V30 7237 H 683.474 1.89759 0.0957587 0
M  V30 7238 H 681.624 3.19449 2.21098 0
M  V30 7239 H 683.296 4.61295 0.0203925 0
M  V30 7240 H 681.539 4.33771 -0.05023 0
M  V30 7241 H 682.21 5.38765 1.20151 0
M  V30 7242 H 684.686 3.64075 2.01465 0
M  V30 7243 H 683.562 4.57193 3.03752 0
M  V30 7244 H 683.823 2.86622 3.36601 0
M  V30 7245 N 682.882 -0.391992 1.52647 0
M  V30 7246 C 683.792 -1.503 1.80131 0
M  V30 7247 C 684.808 -1.59825 0.687882 0
M  V30 7248 O 685.984 -1.76218 0.975149 0
M  V30 7249 C 683.049 -2.85863 1.96171 0
M  V30 7250 C 682.11 -2.86084 3.20085 0
M  V30 7251 C 681.343 -4.15181 3.35351 0
M  V30 7252 O 681.566 -5.09981 2.55491 0
M  V30 7253 O 680.5 -4.22603 4.28591 0
M  V30 7254 H 684.326 -1.30007 2.74466 0
M  V30 7255 H 681.911 -0.579539 1.37701 0
M  V30 7256 H 683.793 -3.66236 2.08445 0
M  V30 7257 H 682.468 -3.06189 1.05025 0
M  V30 7258 H 681.375 -2.04504 3.13256 0
M  V30 7259 H 682.708 -2.7071 4.11068 0
M  V30 7260 N 684.36 -1.4356 -0.65026 0
M  V30 7261 C 685.607 -1.45333 -1.41012 0
M  V30 7262 C 685.935 -0.0787282 -1.94341 0
M  V30 7263 O 685.19 0.916715 -1.72901 0
M  V30 7264 C 685.489 -2.44528 -2.60654 0
M  V30 7265 C 685.155 -3.90331 -2.25727 0
M  V30 7266 C 683.817 -4.3004 -2.15914 0
M  V30 7267 C 686.169 -4.822 -1.97821 0
M  V30 7268 C 683.497 -5.59568 -1.76354 0
M  V30 7269 C 685.849 -6.12095 -1.59759 0
M  V30 7270 C 684.513 -6.50778 -1.48473 0
M  V30 7271 H 683.783 -0.531813 -0.516 0
M  V30 7272 H 686.43 -1.76657 -0.739219 0
M  V30 7273 H 684.735 -2.06619 -3.3289 0
M  V30 7274 H 686.432 -2.43155 -3.18868 0
M  V30 7275 H 683.022 -3.58905 -2.34276 0
M  V30 7276 H 687.206 -4.5229 -2.04322 0
M  V30 7277 H 682.462 -5.88376 -1.66205 0
M  V30 7278 H 686.636 -6.82751 -1.37198 0
M  V30 7279 H 684.263 -7.5105 -1.17591 0
M  V30 7280 N 685.838 0.888903 -1.30139 0
M  V30 7281 C 687.084 1.6428 -1.18912 0
M  V30 7282 C 687.417 1.92499 0.256477 0
M  V30 7283 O 686.692 1.54312 1.18397 0
M  V30 7284 C 686.975 2.9851 -2.01405 0
M  V30 7285 C 686.828 2.77288 -3.54163 0
M  V30 7286 C 688.147 3.99383 -1.84882 0
M  V30 7287 H 685.266 0.596148 -0.433333 0
M  V30 7288 H 687.908 1.0289 -1.5973 0
M  V30 7289 H 686.058 3.50907 -1.66722 0
M  V30 7290 H 687.73 2.31709 -3.98884 0
M  V30 7291 H 685.973 2.11867 -3.78543 0
M  V30 7292 H 686.644 3.72717 -4.07168 0
M  V30 7293 H 689.12 3.56132 -2.15196 0
M  V30 7294 H 687.996 4.91222 -2.44934 0
M  V30 7295 H 688.257 4.34674 -0.806902 0
M  V30 7296 N 687.317 1.12792 1.10072 0
M  V30 7297 C 688.25 0.742921 2.15768 0
M  V30 7298 C 689.228 -0.267714 1.60381 0
M  V30 7299 O 690.412 -0.160782 1.87813 0
M  V30 7300 C 687.539 0.100244 3.38552 0
M  V30 7301 C 686.585 1.07831 4.12644 0
M  V30 7302 S 687.418 2.60765 4.6772 0
M  V30 7303 C 688.574 1.97838 5.9381 0
M  V30 7304 H 688.807 1.63822 2.48092 0
M  V30 7305 H 686.34 0.947385 1.21918 0
M  V30 7306 H 688.298 -0.264175 4.09649 0
M  V30 7307 H 686.959 -0.772223 3.04459 0
M  V30 7308 H 686.152 0.576325 5.00694 0
M  V30 7309 H 685.754 1.38586 3.47376 0
M  V30 7310 H 688.046 1.32341 6.64449 0
M  V30 7311 H 688.989 2.83943 6.48677 0
M  V30 7312 H 689.397 1.43267 5.46017 0
M  V30 7313 N 688.795 -1.27931 0.920396 0
M  V30 7314 C 690.211 -1.47085 0.619537 0
M  V30 7315 C 690.411 -1.83463 -0.833291 0
M  V30 7316 O 689.467 -1.94363 -1.61181 0
M  V30 7317 C 690.78 -2.56878 1.56314 0
M  V30 7318 C 692.328 -2.70743 1.57058 0
M  V30 7319 C 692.803 -3.83687 2.50097 0
M  V30 7320 N 694.294 -3.9105 2.48262 0
M  V30 7321 C 695.029 -4.77842 3.16945 0
M  V30 7322 N 694.525 -5.69176 3.94982 0
M  V30 7323 N 696.318 -4.71509 3.06 0
M  V30 7324 H 688.469 -1.02601 1.85975 0
M  V30 7325 H 690.732 -0.511682 0.798051 0
M  V30 7326 H 690.438 -2.36923 2.59923 0
M  V30 7327 H 690.312 -3.54117 1.29928 0
M  V30 7328 H 692.699 -2.90083 0.541832 0
M  V30 7329 H 692.78 -1.74015 1.8749 0
M  V30 7330 H 692.424 -3.65101 3.53077 0
M  V30 7331 H 692.354 -4.79827 2.16964 0
M  V30 7332 H 694.845 -3.25738 1.91581 0
M  V30 7333 H 695.158 -6.32245 4.44394 0
M  V30 7334 H 693.503 -5.68995 3.99086 0
M  V30 7335 H 696.694 -3.99151 2.44533 0
M  V30 7336 H 696.867 -5.38933 3.59799 0
M  V30 7337 N 690.273 -0.685099 -1.4193 0
M  V30 7338 C 691.223 0.00977295 -2.27998 0
M  V30 7339 C 692.207 0.763315 -1.41641 0
M  V30 7340 O 693.399 0.640532 -1.65004 0
M  V30 7341 C 690.528 0.952972 -3.29808 0
M  V30 7342 C 689.614 0.196231 -4.23646 0
M  V30 7343 N 690.005 -0.804401 -4.99363 0
M  V30 7344 C 688.303 0.433213 -4.43891 0
M  V30 7345 C 689.004 -1.25646 -5.67968 0
M  V30 7346 N 687.98 -0.5844 -5.4045 0
M  V30 7347 H 691.782 -0.757586 -2.83968 0
M  V30 7348 H 689.296 -0.515037 -1.54017 0
M  V30 7349 H 691.293 1.46585 -3.9028 0
M  V30 7350 H 689.953 1.72004 -2.75399 0
M  V30 7351 H 690.964 -1.18429 -5.04177 0
M  V30 7352 H 687.641 1.17899 -4.00507 0
M  V30 7353 H 689.031 -2.08622 -6.38691 0
M  V30 7354 N 691.751 1.51645 -0.429126 0
M  V30 7355 C 692.698 2.27542 0.386446 0
M  V30 7356 C 693.668 1.30786 1.02393 0
M  V30 7357 O 694.853 1.59678 1.0444 0
M  V30 7358 C 691.993 3.11457 1.48623 0
M  V30 7359 C 691.106 4.23196 0.867691 0
M  V30 7360 C 690.241 4.94435 1.94183 0
M  V30 7361 C 689.28 5.98108 1.30129 0
M  V30 7362 N 688.417 6.62786 2.31644 0
M  V30 7363 H 693.257 2.968 -0.267155 0
M  V30 7364 H 690.794 1.46397 -0.143591 0
M  V30 7365 H 692.752 3.58429 2.13506 0
M  V30 7366 H 691.382 2.44329 2.10957 0
M  V30 7367 H 690.434 3.80248 0.107373 0
M  V30 7368 H 691.746 4.97499 0.35997 0
M  V30 7369 H 690.9 5.44914 2.66747 0
M  V30 7370 H 689.639 4.19744 2.48326 0
M  V30 7371 H 688.644 5.4693 0.561082 0
M  V30 7372 H 689.869 6.74751 0.767303 0
M  V30 7373 H 687.815 5.90913 2.84883 0
M  V30 7374 H 687.732 7.32828 1.85741 0
M  V30 7375 H 689 7.17897 3.03717 0
M  V30 7376 N 693.229 0.160201 1.56784 0
M  V30 7377 C 694.477 -0.486625 1.96154 0
M  V30 7378 C 694.798 -1.64525 1.04673 0
M  V30 7379 O 694.068 -1.95586 0.110864 0
M  V30 7380 H 692.648 -0.182764 0.724297 0
M  V30 7381 H 695.31 0.238787 1.93432 0
M  V30 7382 H 694.406 -0.854025 3.00188 0
M  V30 7383 N 694.707 -1.5719 -0.113559 0
M  V30 7384 C 695.67 -1.99796 -1.12314 0
M  V30 7385 C 696.67 -0.888847 -1.34001 0
M  V30 7386 O 697.86 -1.15476 -1.30426 0
M  V30 7387 C 694.992 -2.34279 -2.47641 0
M  V30 7388 H 696.185 -2.90193 -0.756825 0
M  V30 7389 H 693.738 -1.52144 -0.358029 0
M  V30 7390 H 694.473 -1.46778 -2.89183 0
M  V30 7391 H 694.258 -3.15175 -2.33253 0
M  V30 7392 H 695.748 -2.67963 -3.2029 0
M  V30 7393 N 696.185 0.383891 -1.52853 0
M  V30 7394 C 697.596 0.961591 -1.60032 0
M  V30 7395 C 697.947 1.90819 -0.456333 0
M  V30 7396 O 697.072 2.12288 0.419873 0
M  V30 7397 C 697.667 1.75078 -2.90057 0
M  V30 7398 C 696.226 2.2781 -2.99632 0
M  V30 7399 C 695.373 1.08512 -2.55187 0
M  V30 7400 H 698.324 0.163269 -1.57858 0
M  V30 7401 H 698.345 2.61046 -2.7683 0
M  V30 7402 H 697.857 1.06157 -3.73299 0
M  V30 7403 H 695.958 3.00028 -2.20939 0
M  V30 7404 H 696.071 2.56947 -4.0437 0
M  V30 7405 H 694.435 1.44667 -2.09627 0
M  V30 7406 H 695.218 0.41118 -3.40829 0
M  V30 7407 N 697.663 1.43903 0.642637 0
M  V30 7408 C 698.613 1.46321 1.74854 0
M  V30 7409 C 699.597 0.330361 1.57472 0
M  V30 7410 O 700.789 0.574881 1.67404 0
M  V30 7411 C 697.918 1.39919 3.13493 0
M  V30 7412 C 697.004 2.58274 3.36385 0
M  V30 7413 N 697.395 3.83578 3.29699 0
M  V30 7414 C 695.693 2.53224 3.67142 0
M  V30 7415 C 696.394 4.62375 3.52965 0
M  V30 7416 N 695.37 3.93269 3.75287 0
M  V30 7417 H 699.172 2.41062 1.68126 0
M  V30 7418 H 696.686 1.38704 0.844693 0
M  V30 7419 H 698.683 1.39735 3.92785 0
M  V30 7420 H 697.343 0.46207 3.21395 0
M  V30 7421 H 698.354 4.15713 3.08874 0
M  V30 7422 H 695.031 1.68252 3.82096 0
M  V30 7423 H 696.421 5.714 3.53485 0
M  V30 7424 N 699.141 -0.881989 1.30609 0
M  V30 7425 C 700.071 -2.00413 1.1982 0
M  V30 7426 C 701.052 -1.69871 0.0881538 0
M  V30 7427 O 702.237 -1.92304 0.2707 0
M  V30 7428 C 699.367 -3.35641 0.89233 0
M  V30 7429 C 698.321 -3.80451 1.96064 0
M  V30 7430 C 697.647 -5.13003 1.5077 0
M  V30 7431 C 698.947 -3.98855 3.37213 0
M  V30 7432 H 700.641 -2.09698 2.13699 0
M  V30 7433 H 698.187 -1.00754 1.02882 0
M  V30 7434 H 700.14 -4.13669 0.803497 0
M  V30 7435 H 698.864 -3.26497 -0.0821381 0
M  V30 7436 H 697.523 -3.04654 2.03916 0
M  V30 7437 H 697.171 -5.0029 0.521417 0
M  V30 7438 H 696.871 -5.43956 2.22229 0
M  V30 7439 H 698.395 -5.93554 1.43271 0
M  V30 7440 H 699.809 -4.67312 3.32103 0
M  V30 7441 H 698.206 -4.41188 4.06784 0
M  V30 7442 H 699.276 -3.02614 3.78883 0
M  V30 7443 N 700.619 -1.13374 -1.09472 0
M  V30 7444 C 702.035 -0.871846 -1.33682 0
M  V30 7445 C 702.235 0.492847 -1.9538 0
M  V30 7446 O 701.291 1.23946 -2.19985 0
M  V30 7447 C 702.604 -1.99608 -2.24893 0
M  V30 7448 C 704.152 -2.02812 -2.38404 0
M  V30 7449 C 704.627 -3.14497 -3.3295 0
M  V30 7450 N 706.118 -3.14004 -3.40523 0
M  V30 7451 C 706.853 -3.97061 -4.13679 0
M  V30 7452 N 706.349 -4.90131 -4.89636 0
M  V30 7453 N 708.142 -3.85162 -4.09398 0
M  V30 7454 H 700.293 -2.01288 -0.677995 0
M  V30 7455 H 702.556 -0.876492 -0.361201 0
M  V30 7456 H 702.262 -2.98 -1.86786 0
M  V30 7457 H 702.136 -1.90981 -3.25278 0
M  V30 7458 H 704.523 -1.05034 -2.75775 0
M  V30 7459 H 704.604 -2.15511 -1.37799 0
M  V30 7460 H 704.248 -4.12514 -2.96302 0
M  V30 7461 H 704.178 -2.99035 -4.33458 0
M  V30 7462 H 706.669 -2.46587 -2.86362 0
M  V30 7463 H 706.982 -5.49996 -5.42885 0
M  V30 7464 H 705.327 -4.94138 -4.88726 0
M  V30 7465 H 708.518 -3.11779 -3.49158 0
M  V30 7466 H 708.691 -4.5012 -4.6615 0
M  V30 7467 N 702.098 1.27442 -0.927168 0
M  V30 7468 C 703.509 1.76385 -0.611979 0
M  V30 7469 C 703.86 1.75715 0.872853 0
M  V30 7470 O 702.985 1.3603 1.683 0
M  V30 7471 C 703.58 3.20303 -1.10414 0
M  V30 7472 C 702.139 3.66916 -0.839628 0
M  V30 7473 C 701.286 2.46859 -1.26317 0
M  V30 7474 H 704.237 1.13716 -1.107 0
M  V30 7475 H 704.258 3.77811 -0.451578 0
M  V30 7476 H 703.77 3.20759 -2.18484 0
M  V30 7477 H 701.871 3.71906 0.227292 0
M  V30 7478 H 701.984 4.56415 -1.45679 0
M  V30 7479 H 700.348 2.45407 -0.681723 0
M  V30 7480 H 701.131 2.50025 -2.3525 0
M  V30 7481 N 703.576 0.692616 1.41565 0
M  V30 7482 C 704.539 0.0344174 2.29174 0
M  V30 7483 C 705.539 -0.710961 1.44229 0
M  V30 7484 O 706.729 -0.546293 1.65412 0
M  V30 7485 C 703.861 -0.961682 3.27054 0
M  V30 7486 H 705.054 0.805755 2.88873 0
M  V30 7487 H 702.607 0.455947 1.49502 0
M  V30 7488 H 703.342 -1.76089 2.72329 0
M  V30 7489 H 703.127 -0.430375 3.89731 0
M  V30 7490 H 704.617 -1.4201 3.92712 0
M  V30 7491 N 705.054 -1.51416 0.437162 0
M  V30 7492 C 706.017 -2.26312 -0.362729 0
M  V30 7493 C 707.017 -1.29748 -0.949847 0
M  V30 7494 O 708.207 -1.53462 -0.824325 0
M  V30 7495 C 705.339 -3.05475 -1.5132 0
M  V30 7496 H 706.532 -2.98459 0.29365 0
M  V30 7497 H 704.085 -1.55137 0.190327 0
M  V30 7498 H 704.82 -2.37744 -2.20563 0
M  V30 7499 H 704.605 -3.76401 -1.09838 0
M  V30 7500 H 706.095 -3.62209 -2.07833 0
M  V30 7501 N 706.532 -0.168513 -1.56696 0
M  V30 7502 C 707.482 0.7751 -2.14421 0
M  V30 7503 C 708.466 1.19476 -1.07769 0
M  V30 7504 O 709.658 1.15759 -1.33898 0
M  V30 7505 C 706.787 2.00549 -2.7863 0
M  V30 7506 C 705.873 1.60795 -3.92436 0
M  V30 7507 N 706.264 0.919812 -4.97366 0
M  V30 7508 C 704.562 1.89917 -4.03544 0
M  V30 7509 C 705.263 0.724485 -5.77171 0
M  V30 7510 N 704.239 1.26505 -5.28675 0
M  V30 7511 H 708.041 0.240349 -2.92916 0
M  V30 7512 H 705.555 0.0322675 -1.62368 0
M  V30 7513 H 707.552 2.6917 -3.1836 0
M  V30 7514 H 706.212 2.54522 -2.01615 0
M  V30 7515 H 707.223 0.578169 -5.14663 0
M  V30 7516 H 703.9 2.45587 -3.37629 0
M  V30 7517 H 705.29 0.180521 -6.71657 0
M  V30 7518 N 708.01 1.57248 0.105221 0
M  V30 7519 C 709.287 1.76566 0.841647 0
M  V30 7520 C 709.667 0.747566 1.9742 0
M  V30 7521 O 709.015 -0.225886 2.27381 0
M  V30 7522 C 709.225 3.22016 1.3456 0
M  V30 7523 C 710.573 3.84911 1.79244 0
M  V30 7524 O 711.597 3.25703 1.44207 0
M  V30 7525 O 710.456 4.89008 2.43995 0
M  V30 7526 H 707.55 0.723443 0.400698 0
M  V30 7527 H 710.096 1.69472 0.0878893 0
M  V30 7528 H 708.868 3.87644 0.533685 0
M  V30 7529 H 708.491 3.33703 2.16167 0
M  V30 7530 N 709.488 -0.375779 1.53054 0
M  V30 7531 C 710.418 -1.46598 1.81745 0
M  V30 7532 C 711.399 -1.56337 0.670286 0
M  V30 7533 O 712.584 -1.71071 0.919158 0
M  V30 7534 C 709.714 -2.84058 1.99821 0
M  V30 7535 C 708.668 -2.8915 3.15557 0
M  V30 7536 C 707.994 -4.29187 3.18908 0
M  V30 7537 C 709.294 -2.57595 4.54359 0
M  V30 7538 H 710.988 -1.22837 2.73041 0
M  V30 7539 H 708.534 -0.589485 1.31381 0
M  V30 7540 H 710.487 -3.60342 2.18475 0
M  V30 7541 H 709.211 -3.09184 1.05226 0
M  V30 7542 H 707.87 -2.15316 2.96706 0
M  V30 7543 H 707.518 -4.51374 2.2197 0
M  V30 7544 H 707.218 -4.33512 3.96662 0
M  V30 7545 H 708.742 -5.07359 3.39734 0
M  V30 7546 H 710.156 -3.23595 4.73243 0
M  V30 7547 H 708.553 -2.73252 5.34279 0
M  V30 7548 H 709.623 -1.52882 4.60169 0
M  V30 7549 N 710.966 -1.44241 -0.634997 0
M  V30 7550 C 712.194 -1.50296 -1.42193 0
M  V30 7551 C 712.609 -0.12658 -1.88375 0
M  V30 7552 O 711.966 0.86678 -1.60603 0
M  V30 7553 C 712.017 -2.46437 -2.64482 0
M  V30 7554 O 711.738 -3.78724 -2.20226 0
M  V30 7555 C 713.239 -2.61918 -3.57651 0
M  V30 7556 H 710.459 -0.509865 -0.43621 0
M  V30 7557 H 713.003 -1.89167 -0.776921 0
M  V30 7558 H 711.158 -2.10712 -3.25083 0
M  V30 7559 H 711.572 -4.30595 -2.9948 0
M  V30 7560 H 713.046 -3.33225 -4.40074 0
M  V30 7561 H 713.523 -1.67017 -4.06204 0
M  V30 7562 H 714.129 -2.98528 -3.02921 0
M  V30 7563 N 712.444 0.87505 -1.31075 0
M  V30 7564 C 713.69 1.63006 -1.21657 0
M  V30 7565 C 714.045 1.91088 0.224306 0
M  V30 7566 O 713.338 1.52779 1.15625 0
M  V30 7567 C 713.532 2.96948 -1.98888 0
M  V30 7568 C 713.361 2.81944 -3.50339 0
M  V30 7569 C 712.131 2.814 -4.19693 0
M  V30 7570 C 714.329 2.57171 -4.45385 0
M  V30 7571 N 712.311 2.57392 -5.57335 0
M  V30 7572 C 713.682 2.42379 -5.7066 0
M  V30 7573 C 715.737 2.42474 -4.34868 0
M  V30 7574 C 714.44 2.14385 -6.86609 0
M  V30 7575 C 716.466 2.15868 -5.50595 0
M  V30 7576 C 715.828 2.0186 -6.74857 0
M  V30 7577 H 711.927 0.601043 -0.500271 0
M  V30 7578 H 714.511 1.03033 -1.65204 0
M  V30 7579 H 712.682 3.54936 -1.57718 0
M  V30 7580 H 714.414 3.61702 -1.81531 0
M  V30 7581 H 711.169 2.93596 -3.71616 0
M  V30 7582 H 711.593 2.48373 -6.29794 0
M  V30 7583 H 716.235 2.52035 -3.39468 0
M  V30 7584 H 713.953 2.03562 -7.82041 0
M  V30 7585 H 717.539 2.05304 -5.44372 0
M  V30 7586 H 716.419 1.81562 -7.62892 0
M  V30 7587 N 713.922 1.13953 1.08869 0
M  V30 7588 C 715.152 0.926825 1.84644 0
M  V30 7589 C 715.56 -0.527941 1.81685 0
M  V30 7590 O 714.903 -1.37742 1.21543 0
M  V30 7591 C 714.965 1.34416 3.33426 0
M  V30 7592 C 714.629 2.81351 3.60126 0
M  V30 7593 C 715.626 3.79486 3.55368 0
M  V30 7594 C 713.311 3.1865 3.88288 0
M  V30 7595 C 715.305 5.1293 3.78393 0
M  V30 7596 C 712.992 4.5227 4.10968 0
M  V30 7597 C 713.99 5.4922 4.06013 0
M  V30 7598 O 713.678 6.80429 4.28102 0
M  V30 7599 H 713.41 0.33013 0.589907 0
M  V30 7600 H 715.964 1.51738 1.38436 0
M  V30 7601 H 714.194 0.696901 3.80368 0
M  V30 7602 H 715.883 1.10302 3.90626 0
M  V30 7603 H 716.649 3.52017 3.3363 0
M  V30 7604 H 712.528 2.43785 3.91267 0
M  V30 7605 H 716.072 5.88591 3.74442 0
M  V30 7606 H 711.969 4.79462 4.32188 0
M  V30 7607 H 712.737 6.86617 4.45533 0
M  V30 7608 N 715.4 -1.26948 0.933913 0
M  V30 7609 C 716.332 -2.25768 0.395137 0
M  V30 7610 C 717.345 -1.55637 -0.477585 0
M  V30 7611 O 718.534 -1.76142 -0.289204 0
M  V30 7612 C 715.634 -3.35874 -0.451882 0
M  V30 7613 C 714.807 -4.3554 0.40299 0
M  V30 7614 C 713.866 -5.24809 -0.3824 0
M  V30 7615 O 712.892 -5.68805 0.212057 0
M  V30 7616 N 714.094 -5.55636 -1.68072 0
M  V30 7617 H 716.859 -2.72634 1.24463 0
M  V30 7618 H 714.42 -1.40639 0.802008 0
M  V30 7619 H 716.412 -3.92542 -0.984516 0
M  V30 7620 H 714.982 -2.8856 -1.20215 0
M  V30 7621 H 714.202 -3.78047 1.11688 0
M  V30 7622 H 715.49 -4.99131 0.987201 0
M  V30 7623 H 714.888 -5.2176 -2.18592 0
M  V30 7624 H 713.445 -6.14978 -2.15975 0
M  V30 7625 N 716.879 -0.700114 -1.41195 0
M  V30 7626 C 718.109 -0.241828 -2.0518 0
M  V30 7627 C 718.517 1.1157 -1.52803 0
M  V30 7628 O 717.86 1.70926 -0.673042 0
M  V30 7629 C 717.922 -0.12695 -3.59276 0
M  V30 7630 C 717.586 -1.41725 -4.34469 0
M  V30 7631 C 718.583 -2.35604 -4.63451 0
M  V30 7632 C 716.268 -1.67189 -4.73659 0
M  V30 7633 C 718.262 -3.53204 -5.3059 0
M  V30 7634 C 715.949 -2.85073 -5.40534 0
M  V30 7635 C 716.947 -3.77904 -5.68927 0
M  V30 7636 O 716.635 -4.93723 -6.34424 0
M  V30 7637 H 716.367 -0.109247 -0.667114 0
M  V30 7638 H 718.921 -0.954538 -1.81873 0
M  V30 7639 H 717.151 0.641571 -3.81341 0
M  V30 7640 H 718.84 0.294748 -4.04828 0
M  V30 7641 H 719.606 -2.1719 -4.33651 0
M  V30 7642 H 715.485 -0.957935 -4.50937 0
M  V30 7643 H 719.029 -4.25679 -5.52669 0
M  V30 7644 H 714.926 -3.03402 -5.69752 0
M  V30 7645 H 715.694 -4.93597 -6.5292 0
M  V30 7646 N 718.357 1.51182 -0.445186 0
M  V30 7647 C 719.307 2.24804 0.380394 0
M  V30 7648 C 720.291 1.27344 0.983482 0
M  V30 7649 O 721.483 1.52392 0.900322 0
M  V30 7650 C 718.612 3.09922 1.4766 0
M  V30 7651 C 717.698 4.14816 0.882517 0
M  V30 7652 N 718.089 5.05797 0.0183278 0
M  V30 7653 C 716.387 4.30938 1.14927 0
M  V30 7654 C 717.088 5.8084 -0.316152 0
M  V30 7655 N 716.064 5.42759 0.302214 0
M  V30 7656 H 719.866 2.92508 -0.285737 0
M  V30 7657 H 717.38 1.60342 -0.257733 0
M  V30 7658 H 719.377 3.61249 2.08098 0
M  V30 7659 H 718.037 2.43763 2.14498 0
M  V30 7660 H 719.048 5.16725 -0.348679 0
M  V30 7661 H 715.725 3.76005 1.81457 0
M  V30 7662 H 717.115 6.64115 -1.01986 0
M  V30 7663 N 719.835 0.176821 1.56605 0
M  V30 7664 C 721.06 -0.47599 2.01864 0
M  V30 7665 C 721.485 -1.55645 1.05623 0
M  V30 7666 O 720.843 -1.81263 0.0366729 0
M  V30 7667 C 720.891 -1.02619 3.4569 0
M  V30 7668 O 719.995 -2.13996 3.52533 0
M  V30 7669 H 719.336 -0.113363 0.654251 0
M  V30 7670 H 721.866 0.28233 2.02643 0
M  V30 7671 H 721.876 -1.34742 3.85109 0
M  V30 7672 H 720.551 -0.235138 4.15235 0
M  V30 7673 H 719.128 -1.82876 3.24978 0
M  V30 7674 N 721.313 -1.57302 -0.09688 0
M  V30 7675 C 722.243 -2.0497 -1.11846 0
M  V30 7676 C 723.224 -0.938278 -1.41882 0
M  V30 7677 O 724.409 -1.20943 -1.51942 0
M  V30 7678 C 721.539 -2.47264 -2.43881 0
M  V30 7679 C 720.493 -3.62053 -2.28257 0
M  V30 7680 C 719.819 -3.90318 -3.65453 0
M  V30 7681 C 721.119 -4.93005 -1.72461 0
M  V30 7682 H 722.813 -2.90567 -0.721888 0
M  V30 7683 H 720.359 -1.39786 -0.345803 0
M  V30 7684 H 722.312 -2.7922 -3.15617 0
M  V30 7685 H 721.036 -1.58664 -2.8547 0
M  V30 7686 H 719.695 -3.30341 -1.58967 0
M  V30 7687 H 719.343 -2.98889 -4.04567 0
M  V30 7688 H 719.043 -4.67597 -3.55846 0
M  V30 7689 H 720.567 -4.24747 -4.3866 0
M  V30 7690 H 721.981 -5.23354 -2.34036 0
M  V30 7691 H 720.378 -5.74436 -1.73618 0
M  V30 7692 H 721.448 -4.80053 -0.683898 0
M  V30 7693 N 722.791 0.367657 -1.53252 0
M  V30 7694 C 724.068 1.12606 -1.59935 0
M  V30 7695 C 724.448 2.07167 -0.405606 0
M  V30 7696 O 723.796 2.20364 0.604323 0
M  V30 7697 C 724.006 1.86699 -2.94863 0
M  V30 7698 C 725.354 2.41306 -3.49366 0
M  V30 7699 O 726.378 1.96828 -2.96879 0
M  V30 7700 O 725.237 3.2261 -4.41118 0
M  V30 7701 H 722.331 0.516438 -0.645926 0
M  V30 7702 H 724.877 0.371088 -1.65593 0
M  V30 7703 H 723.649 1.17674 -3.73187 0
M  V30 7704 H 723.272 2.6911 -2.92687 0
M  V30 7705 N 724.269 1.44576 0.627338 0
M  V30 7706 C 725.515 1.47777 1.38888 0
M  V30 7707 C 725.848 0.111406 1.9388 0
M  V30 7708 O 725.123 -0.87149 1.73883 0
M  V30 7709 C 725.406 2.54119 2.55138 0
M  V30 7710 C 725.259 4.00128 2.0547 0
M  V30 7711 C 726.578 2.56929 3.57317 0
M  V30 7712 H 723.697 0.538048 0.50366 0
M  V30 7713 H 726.339 1.76277 0.708978 0
M  V30 7714 H 724.489 2.29948 3.13139 0
M  V30 7715 H 726.161 4.35444 1.5227 0
M  V30 7716 H 724.404 4.11724 1.36623 0
M  V30 7717 H 725.075 4.7019 2.89181 0
M  V30 7718 H 727.551 2.78536 3.09122 0
M  V30 7719 H 726.427 3.33234 4.36173 0
M  V30 7720 H 726.688 1.6127 4.11636 0
M  V30 7721 N 725.747 -0.868086 1.31537 0
M  V30 7722 C 726.996 -1.61607 1.20689 0
M  V30 7723 C 727.309 -1.94204 -0.233275 0
M  V30 7724 O 728.515 -2.67515 -0.463465 0
M  V30 7725 C 726.971 -2.91348 2.11292 0
M  V30 7726 C 726.579 -2.66227 3.60315 0
M  V30 7727 C 728.323 -3.69344 2.09249 0
M  V30 7728 C 726.23 -3.91887 4.42921 0
M  V30 7729 H 725.16 -0.606373 0.448138 0
M  V30 7730 H 727.811 -0.959666 1.56405 0
M  V30 7731 H 726.193 -3.58374 1.68477 0
M  V30 7732 H 727.367 -2.07597 4.11388 0
M  V30 7733 H 725.682 -2.01582 3.64354 0
M  V30 7734 H 728.279 -4.62567 2.68209 0
M  V30 7735 H 728.622 -4.02044 1.0801 0
M  V30 7736 H 729.155 -3.09205 2.50274 0
M  V30 7737 H 725.894 -3.64336 5.44922 0
M  V30 7738 H 725.414 -4.49961 3.96605 0
M  V30 7739 H 727.093 -4.59754 4.55231 0
M  V30 7740 N 727.225 -1.14528 -1.08264 0
M  V30 7741 C 728.473 -0.912599 -1.80322 0
M  V30 7742 C 728.794 0.562256 -1.86718 0
M  V30 7743 O 728.064 1.40869 -1.36135 0
M  V30 7744 H 726.644 -0.334645 -0.667849 0
M  V30 7745 H 729.306 -1.44415 -1.30883 0
M  V30 7746 H 728.402 -1.31384 -2.83098 0
M  V30 7747 N 728.703 1.26451 -0.940633 0
M  V30 7748 C 729.95 1.93778 -0.587909 0
M  V30 7749 C 730.278 1.73811 0.872935 0
M  V30 7750 O 729.533 1.06816 1.63978 0
M  V30 7751 C 729.832 3.46503 -0.875794 0
M  V30 7752 C 729.498 3.86609 -2.32043 0
M  V30 7753 C 728.16 3.97269 -2.71534 0
M  V30 7754 C 730.512 4.0672 -3.25927 0
M  V30 7755 C 727.84 4.25436 -4.04006 0
M  V30 7756 C 730.192 4.36375 -4.57995 0
M  V30 7757 C 728.856 4.45249 -4.97302 0
M  V30 7758 H 728.126 0.709084 -0.215131 0
M  V30 7759 H 730.773 1.50272 -1.18704 0
M  V30 7760 H 729.078 3.91319 -0.194124 0
M  V30 7761 H 730.775 3.96759 -0.581665 0
M  V30 7762 H 727.365 3.78858 -2.00411 0
M  V30 7763 H 731.549 3.97912 -2.96614 0
M  V30 7764 H 726.805 4.30519 -4.34124 0
M  V30 7765 H 730.979 4.50882 -5.30734 0
M  V30 7766 H 728.606 4.66829 -5.99979 0
M  V30 7767 N 730.181 0.707592 1.40822 0
M  V30 7768 C 731.111 0.0644925 2.33411 0
M  V30 7769 C 732.092 -0.754205 1.52466 0
M  V30 7770 O 733.277 -0.704749 1.80961 0
M  V30 7771 C 730.407 -0.863865 3.36385 0
M  V30 7772 C 729.361 -0.15138 4.27732 0
M  V30 7773 C 728.687 -1.19491 5.21177 0
M  V30 7774 C 729.987 0.989607 5.12839 0
M  V30 7775 H 731.681 0.837829 2.87438 0
M  V30 7776 H 729.227 0.404346 1.38207 0
M  V30 7777 H 731.18 -1.32309 4.0009 0
M  V30 7778 H 729.904 -1.66901 2.80734 0
M  V30 7779 H 728.563 0.287937 3.65467 0
M  V30 7780 H 728.211 -1.9929 4.61836 0
M  V30 7781 H 727.911 -0.723123 5.83134 0
M  V30 7782 H 729.435 -1.6544 5.8776 0
M  V30 7783 H 730.849 0.610114 5.70044 0
M  V30 7784 H 729.246 1.38926 5.83798 0
M  V30 7785 H 730.316 1.82389 4.49291 0
M  V30 7786 N 731.66 -1.50943 0.453197 0
M  V30 7787 C 732.59 -2.31005 -0.34044 0
M  V30 7788 C 733.571 -1.37112 -1.00669 0
M  V30 7789 O 734.756 -1.66033 -1.0073 0
M  V30 7790 C 731.886 -3.16358 -1.433 0
M  V30 7791 C 730.84 -4.18658 -0.889363 0
M  V30 7792 C 730.166 -4.92633 -2.07887 0
M  V30 7793 C 731.466 -5.22227 0.0871142 0
M  V30 7794 H 733.16 -2.97601 0.327723 0
M  V30 7795 H 730.706 -1.43119 0.159054 0
M  V30 7796 H 732.659 -3.71155 -1.99555 0
M  V30 7797 H 731.383 -2.47613 -2.12968 0
M  V30 7798 H 730.042 -3.64936 -0.348915 0
M  V30 7799 H 729.69 -4.20376 -2.76211 0
M  V30 7800 H 729.39 -5.61819 -1.72143 0
M  V30 7801 H 730.914 -5.50258 -2.64666 0
M  V30 7802 H 732.328 -5.72001 -0.385656 0
M  V30 7803 H 730.725 -5.99032 0.357926 0
M  V30 7804 H 731.795 -4.74077 1.01879 0
M  V30 7805 N 733.138 -0.185124 -1.56509 0
M  V30 7806 C 734.101 0.72591 -2.17401 0
M  V30 7807 C 735.101 1.14819 -1.12575 0
M  V30 7808 O 736.291 1.0629 -1.38015 0
M  V30 7809 C 733.423 1.98979 -2.76803 0
M  V30 7810 H 734.616 0.195588 -2.99262 0
M  V30 7811 H 732.169 0.0644772 -1.56167 0
M  V30 7812 H 732.904 2.56287 -1.98714 0
M  V30 7813 H 732.689 1.69583 -3.53531 0
M  V30 7814 H 734.179 2.63966 -3.23592 0
M  V30 7815 N 734.616 1.57351 0.0885366 0
M  V30 7816 C 735.862 1.86696 0.791996 0
M  V30 7817 C 736.195 0.775148 1.78059 0
M  V30 7818 O 735.47 -0.216247 1.93294 0
M  V30 7819 C 735.753 3.26684 1.51491 0
M  V30 7820 C 735.606 4.465 0.543858 0
M  V30 7821 C 736.925 3.64664 2.46391 0
M  V30 7822 H 734.044 0.679049 0.286463 0
M  V30 7823 H 736.686 1.89919 0.0554866 0
M  V30 7824 H 734.836 3.24067 2.14273 0
M  V30 7825 H 736.508 4.61235 -0.0774597 0
M  V30 7826 H 734.751 4.33567 -0.142228 0
M  V30 7827 H 735.422 5.41192 1.08696 0
M  V30 7828 H 737.898 3.68267 1.93698 0
M  V30 7829 H 736.774 4.63534 2.93986 0
M  V30 7830 H 737.035 2.93698 3.30445 0
M  V30 7831 N 736.094 -0.359525 1.53444 0
M  V30 7832 C 737.34 -1.10315 1.70172 0
M  V30 7833 C 737.673 -1.88788 0.455287 0
M  V30 7834 O 736.948 -1.86635 -0.547514 0
M  V30 7835 C 737.231 -2.05744 2.95536 0
M  V30 7836 C 737.084 -1.3084 4.3035 0
M  V30 7837 C 738.403 -3.05784 3.16518 0
M  V30 7838 H 735.522 -0.399662 0.619225 0
M  V30 7839 H 738.164 -0.383338 1.86093 0
M  V30 7840 H 736.314 -2.67125 2.82093 0
M  V30 7841 H 737.986 -0.721959 4.55615 0
M  V30 7842 H 736.229 -0.610283 4.29486 0
M  V30 7843 H 736.9 -2.00718 5.14214 0
M  V30 7844 H 739.376 -2.5451 3.29187 0
M  V30 7845 H 738.252 -3.69772 4.05659 0
M  V30 7846 H 738.513 -3.76289 2.32076 0
M  V30 7847 N 737.572 -1.44907 -0.619662 0
M  V30 7848 C 738.502 -1.55488 -1.742 0
M  V30 7849 C 739.483 -0.407143 -1.65156 0
M  V30 7850 O 740.668 -0.628743 -1.8374 0
M  V30 7851 C 737.798 -1.5097 -3.1277 0
M  V30 7852 C 736.752 -2.64337 -3.36615 0
M  V30 7853 C 736.078 -2.44872 -4.75333 0
M  V30 7854 C 737.378 -4.06423 -3.28051 0
M  V30 7855 H 739.072 -2.49432 -1.65602 0
M  V30 7856 H 736.618 -1.20047 -0.795281 0
M  V30 7857 H 738.571 -1.56971 -3.91073 0
M  V30 7858 H 737.295 -0.535486 -3.2218 0
M  V30 7859 H 735.954 -2.57744 -2.60698 0
M  V30 7860 H 735.602 -1.45617 -4.81461 0
M  V30 7861 H 735.302 -3.20888 -4.92244 0
M  V30 7862 H 736.826 -2.52709 -5.55851 0
M  V30 7863 H 738.24 -4.14324 -3.96243 0
M  V30 7864 H 736.637 -4.82733 -3.56495 0
M  V30 7865 H 737.707 -4.29183 -2.25676 0
M  V30 7866 N 739.05 0.861098 -1.31996 0
M  V30 7867 C 740.278 1.6474 -1.25173 0
M  V30 7868 C 740.693 1.87926 0.181425 0
M  V30 7869 O 740.05 1.4437 1.1164 0
M  V30 7870 C 740.101 3.01036 -2.0015 0
M  V30 7871 O 739.822 2.7888 -3.37872 0
M  V30 7872 C 741.323 3.95481 -2.00273 0
M  V30 7873 H 738.543 0.513314 -0.432146 0
M  V30 7874 H 741.087 1.07419 -1.74016 0
M  V30 7875 H 739.242 3.55021 -1.55046 0
M  V30 7876 H 739.656 3.65514 -3.76165 0
M  V30 7877 H 741.13 4.88403 -2.57229 0
M  V30 7878 H 741.607 4.27957 -0.987407 0
M  V30 7879 H 742.213 3.47433 -2.45296 0
M  V30 7880 N 740.528 1.15101 1.07655 0
M  V30 7881 C 741.774 0.925343 1.80458 0
M  V30 7882 C 742.107 -0.546354 1.86356 0
M  V30 7883 O 741.382 -1.40496 1.34503 0
M  V30 7884 C 741.665 1.53646 3.25676 0
M  V30 7885 C 741.518 3.07854 3.27942 0
M  V30 7886 C 742.837 1.21968 4.22861 0
M  V30 7887 H 739.956 0.337592 0.655134 0
M  V30 7888 H 742.598 1.42217 1.25993 0
M  V30 7889 H 740.748 1.11395 3.72187 0
M  V30 7890 H 742.42 3.58989 2.89697 0
M  V30 7891 H 740.663 3.41904 2.66991 0
M  V30 7892 H 741.334 3.45725 4.30324 0
M  V30 7893 H 743.81 1.5851 3.84726 0
M  V30 7894 H 742.686 1.67349 5.22767 0
M  V30 7895 H 742.947 0.136207 4.4189 0
M  V30 7896 N 742.006 -1.2595 0.947325 0
M  V30 7897 C 742.969 -2.24407 0.466285 0
M  V30 7898 C 743.969 -1.55054 -0.426005 0
M  V30 7899 O 745.159 -1.7275 -0.224319 0
M  V30 7900 C 742.291 -3.39326 -0.327201 0
M  V30 7901 H 743.484 -2.68477 1.33642 0
M  V30 7902 H 741.037 -1.38211 0.729887 0
M  V30 7903 H 741.772 -3.00667 -1.21532 0
M  V30 7904 H 741.557 -3.9085 0.312839 0
M  V30 7905 H 743.047 -4.12455 -0.653477 0
M  V30 7906 N 743.484 -0.715051 -1.40445 0
M  V30 7907 C 744.731 -0.254328 -2.00897 0
M  V30 7908 C 745.059 1.15228 -1.56693 0
M  V30 7909 O 744.314 1.7958 -0.777786 0
M  V30 7910 C 744.613 -0.281791 -3.56287 0
M  V30 7911 C 744.279 -1.63862 -4.20071 0
M  V30 7912 C 742.941 -2.01003 -4.37208 0
M  V30 7913 C 745.293 -2.53039 -4.55654 0
M  V30 7914 C 742.621 -3.26869 -4.8721 0
M  V30 7915 C 744.973 -3.78256 -5.07055 0
M  V30 7916 C 743.637 -4.15515 -5.22401 0
M  V30 7917 H 742.907 -0.0930652 -0.735133 0
M  V30 7918 H 745.554 -0.917977 -1.68064 0
M  V30 7919 H 743.859 0.465428 -3.89026 0
M  V30 7920 H 745.556 0.0925158 -4.00893 0
M  V30 7921 H 742.146 -1.33979 -4.07121 0
M  V30 7922 H 746.33 -2.2562 -4.42051 0
M  V30 7923 H 741.586 -3.55706 -4.97276 0
M  V30 7924 H 745.76 -4.47528 -5.33565 0
M  V30 7925 H 743.387 -5.13114 -5.60909 0
M  V30 7926 N 744.962 1.50701 -0.461195 0
M  V30 7927 C 746.211 2.01458 0.0988277 0
M  V30 7928 C 746.524 1.34863 1.41673 0
M  V30 7929 O 747.73 1.76721 2.06111 0
M  V30 7930 C 746.186 3.59186 0.226648 0
M  V30 7931 C 745.794 4.34732 -1.08223 0
M  V30 7932 C 747.538 4.18015 0.73916 0
M  V30 7933 C 745.445 5.8422 -0.918747 0
M  V30 7934 H 744.375 0.7529 0.040709 0
M  V30 7935 H 747.026 1.736 -0.594589 0
M  V30 7936 H 745.408 3.83589 0.983621 0
M  V30 7937 H 746.582 4.22059 -1.84939 0
M  V30 7938 H 744.897 3.87466 -1.52509 0
M  V30 7939 H 747.494 5.27436 0.878347 0
M  V30 7940 H 747.837 3.78746 1.72793 0
M  V30 7941 H 748.37 3.9778 0.0398469 0
M  V30 7942 H 745.109 6.27944 -1.88059 0
M  V30 7943 H 744.629 5.99493 -0.191801 0
M  V30 7944 H 746.308 6.44382 -0.581405 0
M  V30 7945 N 746.441 0.193421 1.56409 0
M  V30 7946 C 747.669 -0.451438 2.01915 0
M  V30 7947 C 748.084 -1.55306 1.07357 0
M  V30 7948 O 747.441 -1.82333 0.0781512 0
M  V30 7949 C 747.492 -1.00931 3.47124 0
M  V30 7950 O 747.213 0.0483623 4.38073 0
M  V30 7951 C 748.714 -1.73021 4.0814 0
M  V30 7952 H 745.934 -0.113495 0.661332 0
M  V30 7953 H 748.478 0.301636 2.02263 0
M  V30 7954 H 746.633 -1.71277 3.47481 0
M  V30 7955 H 747.047 -0.366644 5.23217 0
M  V30 7956 H 748.521 -2.07289 5.11601 0
M  V30 7957 H 748.998 -2.6333 3.51502 0
M  V30 7958 H 749.604 -1.07264 4.11551 0
M  V30 7959 N 747.919 -1.57396 -0.0801906 0
M  V30 7960 C 749.166 -1.86836 -0.780927 0
M  V30 7961 C 749.494 -0.784012 -1.77999 0
M  V30 7962 O 748.749 0.220881 -1.94449 0
M  V30 7963 C 749.048 -3.22915 -1.53169 0
M  V30 7964 C 748.714 -4.45843 -0.67339 0
M  V30 7965 C 747.376 -4.79213 -0.436829 0
M  V30 7966 C 749.728 -5.21142 -0.0776786 0
M  V30 7967 C 747.056 -5.853 0.405062 0
M  V30 7968 C 749.408 -6.28119 0.751619 0
M  V30 7969 C 748.072 -6.59995 0.998131 0
M  V30 7970 H 747.342 -0.683682 -0.285761 0
M  V30 7971 H 749.989 -1.91454 -0.0419435 0
M  V30 7972 H 748.294 -3.14049 -2.34265 0
M  V30 7973 H 749.991 -3.42926 -2.07853 0
M  V30 7974 H 746.581 -4.19721 -0.867891 0
M  V30 7975 H 750.765 -4.95682 -0.247572 0
M  V30 7976 H 746.021 -6.084 0.60488 0
M  V30 7977 H 750.195 -6.8563 1.22 0
M  V30 7978 H 747.822 -7.42027 1.65227 0
M  V30 7979 N 749.397 0.351382 -1.53633 0
M  V30 7980 C 750.344 1.43115 -1.81071 0
M  V30 7981 C 751.314 1.52601 -0.655913 0
M  V30 7982 O 752.499 1.68264 -0.89955 0
M  V30 7983 C 749.639 2.79874 -2.01903 0
M  V30 7984 C 748.752 2.79242 -3.29618 0
M  V30 7985 C 747.887 4.07667 -3.40559 0
M  V30 7986 C 746.926 4.01233 -4.62254 0
M  V30 7987 N 746.063 5.21334 -4.70271 0
M  V30 7988 H 750.903 1.19017 -2.73201 0
M  V30 7989 H 748.44 0.576691 -1.35324 0
M  V30 7990 H 750.398 3.5934 -2.11969 0
M  V30 7991 H 749.028 3.0234 -1.13094 0
M  V30 7992 H 748.08 1.91927 -3.28433 0
M  V30 7993 H 749.392 2.70363 -4.19172 0
M  V30 7994 H 748.546 4.95555 -3.50015 0
M  V30 7995 H 747.285 4.19317 -2.49047 0
M  V30 7996 H 746.29 3.11732 -4.52884 0
M  V30 7997 H 747.515 3.91173 -5.55122 0
M  V30 7998 H 745.461 5.33543 -3.81665 0
M  V30 7999 H 745.378 5.14681 -5.5375 0
M  V30 8000 H 746.646 6.11014 -4.84027 0
M  V30 8001 N 750.875 1.45233 0.611969 0
M  V30 8002 C 752.115 1.50558 1.38245 0
M  V30 8003 C 752.479 0.141959 1.91474 0
M  V30 8004 O 753.68 0.0698926 2.68709 0
M  V30 8005 C 751.951 2.55136 2.50281 0
M  V30 8006 S 753.51 2.79652 3.38142 0
M  V30 8007 H 750.328 0.532281 0.471378 0
M  V30 8008 H 752.93 1.82285 0.706578 0
M  V30 8009 H 751.634 3.52888 2.09518 0
M  V30 8010 H 751.165 2.25045 3.22674 0
M  V30 8011 H 753.18 2.12699 4.48301 0
M  V30 8012 N 752.353 -0.854086 1.3245 0
M  V30 8013 C 753.593 -1.62216 1.2436 0
M  V30 8014 C 753.957 -1.91042 -0.191564 0
M  V30 8015 O 755.158 -2.65864 -0.396211 0
M  V30 8016 C 753.429 -2.9066 2.0797 0
M  V30 8017 S 754.988 -3.81438 2.16911 0
M  V30 8018 H 751.806 -0.556386 0.442669 0
M  V30 8019 H 754.408 -1.01139 1.67305 0
M  V30 8020 H 753.112 -2.6743 3.11302 0
M  V30 8021 H 752.643 -3.56753 1.65805 0
M  V30 8022 H 754.658 -4.78347 1.31903 0
M  V30 8023 N 753.831 -1.1567 -1.07043 0
M  V30 8024 C 754.794 -0.858906 -2.12498 0
M  V30 8025 C 755.794 0.142735 -1.60165 0
M  V30 8026 O 756.984 -0.0872678 -1.73981 0
M  V30 8027 C 754.116 -0.283021 -3.39723 0
M  V30 8028 H 755.309 -1.79368 -2.40348 0
M  V30 8029 H 752.862 -0.964608 -1.22984 0
M  V30 8030 H 753.597 0.659796 -3.17517 0
M  V30 8031 H 753.382 -1.00467 -3.7901 0
M  V30 8032 H 754.872 -0.0923543 -4.17498 0
M  V30 8033 N 755.309 1.25446 -0.953992 0
M  V30 8034 C 756.539 1.96929 -0.624688 0
M  V30 8035 C 756.947 1.71112 0.807292 0
M  V30 8036 O 756.29 0.983512 1.55154 0
M  V30 8037 C 756.352 3.50425 -0.802676 0
M  V30 8038 C 756.016 3.99916 -2.21169 0
M  V30 8039 C 757.013 4.10662 -3.18831 0
M  V30 8040 C 754.698 4.33598 -2.53571 0
M  V30 8041 C 756.692 4.54401 -4.46988 0
M  V30 8042 C 754.379 4.77024 -3.81958 0
M  V30 8043 C 755.377 4.87388 -4.78478 0
M  V30 8044 O 755.065 5.29851 -6.04577 0
M  V30 8045 H 754.797 0.634511 -0.233179 0
M  V30 8046 H 757.351 1.60591 -1.28061 0
M  V30 8047 H 755.581 3.86596 -0.0896044 0
M  V30 8048 H 757.27 4.03117 -0.47452 0
M  V30 8049 H 758.036 3.84872 -2.95124 0
M  V30 8050 H 753.915 4.24757 -1.79171 0
M  V30 8051 H 757.459 4.62406 -5.22328 0
M  V30 8052 H 753.356 5.02258 -4.05471 0
M  V30 8053 H 754.124 5.48039 -6.07944 0
M  V30 8054 N 756.787 0.722489 1.40064 0
M  V30 8055 C 758.035 0.264455 2.00362 0
M  V30 8056 C 758.356 -1.14847 1.57592 0
M  V30 8057 O 757.626 -1.77982 0.818477 0
M  V30 8058 H 756.206 0.0947846 0.740962 0
M  V30 8059 H 758.868 0.929659 1.71299 0
M  V30 8060 H 757.964 0.302977 3.10626 0
M  V30 8061 N 758.265 -1.50454 0.469181 0
M  V30 8062 C 759.495 -2.06429 -0.0840913 0
M  V30 8063 C 759.903 -1.3334 -1.34227 0
M  V30 8064 O 759.246 -0.395656 -1.79389 0
M  V30 8065 C 759.308 -3.56797 -0.440049 0
M  V30 8066 C 758.972 -4.51359 0.715838 0
M  V30 8067 C 759.969 -4.94754 1.59732 0
M  V30 8068 C 757.654 -4.94069 0.905621 0
M  V30 8069 C 759.648 -5.79564 2.653 0
M  V30 8070 C 757.335 -5.78662 1.96453 0
M  V30 8071 C 758.333 -6.21311 2.83658 0
M  V30 8072 O 758.021 -7.04218 3.87727 0
M  V30 8073 H 757.753 -0.675994 0.00289751 0
M  V30 8074 H 760.307 -1.94629 0.656417 0
M  V30 8075 H 758.537 -3.66492 -1.23372 0
M  V30 8076 H 760.226 -3.95145 -0.928181 0
M  V30 8077 H 760.992 -4.62428 1.46237 0
M  V30 8078 H 756.871 -4.60394 0.236326 0
M  V30 8079 H 760.415 -6.12774 3.33398 0
M  V30 8080 H 756.312 -6.10401 2.09955 0
M  V30 8081 H 757.08 -7.22464 3.84692 0
M  V30 8082 N 759.743 -0.201713 -1.56304 0
M  V30 8083 C 761.159 0.154025 -1.58855 0
M  V30 8084 C 761.359 1.60516 -1.21807 0
M  V30 8085 O 760.415 2.34193 -0.94393 0
M  V30 8086 C 761.728 -0.154319 -3.00304 0
M  V30 8087 C 763.276 -0.0949578 -3.12856 0
M  V30 8088 C 763.751 -0.376703 -4.56448 0
M  V30 8089 N 765.242 -0.325558 -4.62054 0
M  V30 8090 C 765.977 -0.51732 -5.71062 0
M  V30 8091 N 765.473 -0.769789 -6.8851 0
M  V30 8092 N 767.266 -0.45112 -5.60287 0
M  V30 8093 H 759.417 -1.14858 -1.78666 0
M  V30 8094 H 761.68 -0.458934 -0.829508 0
M  V30 8095 H 761.386 -1.16074 -3.31994 0
M  V30 8096 H 761.26 0.540014 -3.73314 0
M  V30 8097 H 763.647 0.902075 -2.80974 0
M  V30 8098 H 763.728 -0.822468 -2.42217 0
M  V30 8099 H 763.372 -1.37108 -4.89044 0
M  V30 8100 H 763.302 0.371772 -5.25286 0
M  V30 8101 H 765.793 -0.137308 -3.7765 0
M  V30 8102 H 766.106 -0.904744 -7.67486 0
M  V30 8103 H 764.451 -0.806758 -6.90302 0
M  V30 8104 H 767.642 -0.254253 -4.67409 0
M  V30 8105 H 767.815 -0.603982 -6.45179 0
M  V30 8106 N 761.222 1.57436 0.0718424 0
M  V30 8107 C 762.169 2.03686 1.08539 0
M  V30 8108 C 763.139 0.917474 1.38462 0
M  V30 8109 O 764.324 1.18513 1.4953 0
M  V30 8110 C 761.464 2.48566 2.39393 0
M  V30 8111 C 760.577 3.74122 2.16001 0
M  V30 8112 C 759.712 4.07786 3.40418 0
M  V30 8113 C 758.751 5.26383 3.1239 0
M  V30 8114 N 757.888 5.55685 4.29138 0
M  V30 8115 H 762.728 2.90043 0.684018 0
M  V30 8116 H 760.265 1.43438 0.326183 0
M  V30 8117 H 762.223 2.72639 3.15791 0
M  V30 8118 H 760.853 1.65186 2.77333 0
M  V30 8119 H 759.905 3.57389 1.30296 0
M  V30 8120 H 761.217 4.60659 1.91298 0
M  V30 8121 H 760.371 4.32759 4.25211 0
M  V30 8122 H 759.11 3.19817 3.68197 0
M  V30 8123 H 758.115 5.01206 2.25993 0
M  V30 8124 H 759.34 6.1597 2.85934 0
M  V30 8125 H 757.286 4.70675 4.56948 0
M  V30 8126 H 757.203 6.3664 4.07708 0
M  V30 8127 H 758.471 5.85209 5.14928 0
M  V30 8128 N 762.7 -0.34323 1.53817 0
M  V30 8129 C 763.94 -1.09188 1.72793 0
M  V30 8130 C 764.304 -1.85876 0.481062 0
M  V30 8131 O 765.505 -2.63158 0.547851 0
M  V30 8132 C 763.776 -2.00783 2.9567 0
M  V30 8133 S 765.335 -2.82866 3.35459 0
M  V30 8134 H 762.153 -0.368926 0.607795 0
M  V30 8135 H 764.755 -0.370265 1.91962 0
M  V30 8136 H 763.459 -1.43245 3.84589 0
M  V30 8137 H 762.99 -2.77381 2.78968 0
M  V30 8138 H 765.005 -4.03196 2.89218 0
M  V30 8139 N 764.178 -1.45556 -0.604258 0
M  V30 8140 C 765.108 -1.57327 -1.72541 0
M  V30 8141 C 766.089 -0.424637 -1.64714 0
M  V30 8142 O 767.274 -0.648196 -1.83063 0
M  V30 8143 C 764.404 -1.54279 -3.11152 0
M  V30 8144 C 763.358 -2.67893 -3.33792 0
M  V30 8145 C 762.684 -2.499 -4.72709 0
M  V30 8146 C 763.984 -4.0988 -3.23722 0
M  V30 8147 H 765.678 -2.51175 -1.62947 0
M  V30 8148 H 763.224 -1.20884 -0.782504 0
M  V30 8149 H 765.177 -1.6111 -3.89386 0
M  V30 8150 H 763.901 -0.569627 -3.21594 0
M  V30 8151 H 762.56 -2.60495 -2.57949 0
M  V30 8152 H 762.208 -1.50715 -4.79889 0
M  V30 8153 H 761.908 -3.26091 -4.88813 0
M  V30 8154 H 763.432 -2.5859 -5.5314 0
M  V30 8155 H 764.846 -4.18503 -3.91826 0
M  V30 8156 H 763.243 -4.86487 -3.51355 0
M  V30 8157 H 764.313 -4.31553 -2.21111 0
M  V30 8158 N 765.656 0.84705 -1.32902 0
M  V30 8159 C 766.904 1.5986 -1.2365 0
M  V30 8160 C 767.225 1.93974 0.199789 0
M  V30 8161 O 766.495 1.60273 1.12648 0
M  V30 8162 H 765.075 0.592696 -0.454665 0
M  V30 8163 H 767.737 1.01278 -1.66519 0
M  V30 8164 H 766.833 2.53218 -1.82448 0
M  V30 8165 N 767.134 1.16236 1.06428 0
M  V30 8166 C 768.081 0.86769 2.13869 0
M  V30 8167 C 769.051 -0.183298 1.65086 0
M  V30 8168 O 770.236 -0.0488002 1.90738 0
M  V30 8169 C 767.376 0.373427 3.43074 0
M  V30 8170 C 766.489 1.48708 4.05598 0
M  V30 8171 C 765.624 0.947977 5.22673 0
M  V30 8172 C 764.663 2.03793 5.77178 0
M  V30 8173 N 763.8 1.51451 6.85571 0
M  V30 8174 H 768.64 1.78781 2.38414 0
M  V30 8175 H 766.177 0.891892 1.16977 0
M  V30 8176 H 768.135 0.0685035 4.17144 0
M  V30 8177 H 766.765 -0.509752 3.1875 0
M  V30 8178 H 765.817 1.908 3.29089 0
M  V30 8179 H 767.129 2.30964 4.42105 0
M  V30 8180 H 766.283 0.596154 6.03764 0
M  V30 8181 H 765.022 0.0947081 4.87608 0
M  V30 8182 H 764.027 2.39847 4.94726 0
M  V30 8183 H 765.252 2.89514 6.14295 0
M  V30 8184 H 763.198 0.683755 6.52427 0
M  V30 8185 H 763.115 2.27325 7.21013 0
M  V30 8186 H 764.383 1.19123 7.70344 0
M  V30 8187 N 768.612 -1.24939 0.960631 0
M  V30 8188 C 769.559 -2.25658 0.484459 0
M  V30 8189 C 770.529 -1.59422 -0.466242 0
M  V30 8190 O 771.714 -1.87015 -0.378169 0
M  V30 8191 C 768.854 -3.44359 -0.225958 0
M  V30 8192 C 767.967 -4.25214 0.762682 0
M  V30 8193 C 767.102 -5.31192 0.0290931 0
M  V30 8194 C 766.141 -6.03739 1.00827 0
M  V30 8195 N 765.278 -7.01437 0.305155 0
M  V30 8196 H 770.118 -2.65758 1.34821 0
M  V30 8197 H 767.655 -1.30648 0.675983 0
M  V30 8198 H 769.613 -4.12035 -0.654472 0
M  V30 8199 H 768.243 -3.05118 -1.05371 0
M  V30 8200 H 767.295 -3.57144 1.30966 0
M  V30 8201 H 768.607 -4.75406 1.50964 0
M  V30 8202 H 767.761 -6.04971 -0.457763 0
M  V30 8203 H 766.5 -4.81889 -0.750614 0
M  V30 8204 H 765.505 -5.2877 1.50607 0
M  V30 8205 H 766.73 -6.55131 1.7883 0
M  V30 8206 H 764.676 -6.54415 -0.455704 0
M  V30 8207 H 764.593 -7.49475 0.991104 0
M  V30 8208 H 765.861 -7.79336 -0.159966 0
M  V30 8209 N 770.09 -0.729906 -1.39679 0
M  V30 8210 C 771.338 -0.275077 -2.00219 0
M  V30 8211 C 771.659 1.1401 -1.58199 0
M  V30 8212 O 770.929 1.77546 -0.827904 0
M  V30 8213 H 769.509 -0.0987127 -0.740449 0
M  V30 8214 H 772.171 -0.93873 -1.70804 0
M  V30 8215 H 771.267 -0.319446 -3.10461 0
M  V30 8216 N 771.568 1.50203 -0.477153 0
M  V30 8217 C 772.984 1.59056 -0.131663 0
M  V30 8218 C 773.184 1.48473 1.36227 0
M  V30 8219 O 772.24 1.34635 2.13611 0
M  V30 8220 C 773.553 2.92741 -0.687254 0
M  V30 8221 C 775.101 3.0615 -0.651223 0
M  V30 8222 C 775.576 4.42419 -1.18446 0
M  V30 8223 N 777.067 4.48847 -1.14413 0
M  V30 8224 C 777.802 5.52689 -1.52717 0
M  V30 8225 N 777.298 6.63754 -1.98499 0
M  V30 8226 N 779.091 5.43267 -1.44282 0
M  V30 8227 H 771.242 1.55325 -1.44872 0
M  V30 8228 H 773.505 0.734395 -0.599473 0
M  V30 8229 H 773.211 3.0598 -1.73405 0
M  V30 8230 H 773.085 3.76961 -0.134215 0
M  V30 8231 H 775.472 2.92556 0.386677 0
M  V30 8232 H 775.553 2.23673 -1.24114 0
M  V30 8233 H 775.197 4.56763 -2.22103 0
M  V30 8234 H 775.127 5.23498 -0.570709 0
M  V30 8235 H 777.618 3.69152 -0.808416 0
M  V30 8236 H 777.931 7.39059 -2.25859 0
M  V30 8237 H 776.276 6.64858 -2.02456 0
M  V30 8238 H 779.467 4.55387 -1.08352 0
M  V30 8239 H 779.64 6.24074 -1.74459 0
M  V30 8240 N 773.046 0.209999 1.56195 0
M  V30 8241 C 774.292 -0.425442 1.98287 0
M  V30 8242 C 774.625 -1.60232 1.09724 0
M  V30 8243 O 773.9 -1.93902 0.152414 0
M  V30 8244 C 774.183 -0.871189 3.49403 0
M  V30 8245 C 774.036 0.308527 4.48741 0
M  V30 8246 C 775.355 -1.73146 4.04609 0
M  V30 8247 H 772.474 -0.153169 0.720908 0
M  V30 8248 H 775.116 0.303916 1.87554 0
M  V30 8249 H 773.266 -1.49266 3.58681 0
M  V30 8250 H 774.938 0.946487 4.51486 0
M  V30 8251 H 773.181 0.957878 4.23092 0
M  V30 8252 H 773.852 -0.0461143 5.51981 0
M  V30 8253 H 776.328 -1.2072 3.98203 0
M  V30 8254 H 775.204 -2.01228 5.10684 0
M  V30 8255 H 775.465 -2.69083 3.5078 0
M  V30 8256 N 774.524 -1.57472 -0.0634922 0
M  V30 8257 C 775.471 -2.04258 -1.07457 0
M  V30 8258 C 776.441 -0.924804 -1.37973 0
M  V30 8259 O 777.626 -1.19305 -1.48899 0
M  V30 8260 C 774.766 -2.49832 -2.38071 0
M  V30 8261 C 773.879 -3.75263 -2.14014 0
M  V30 8262 C 773.014 -4.09585 -3.38251 0
M  V30 8263 C 772.053 -5.28032 -3.09594 0
M  V30 8264 N 771.19 -5.57953 -4.26185 0
M  V30 8265 H 776.03 -2.90402 -0.668626 0
M  V30 8266 H 773.567 -1.43609 -0.318572 0
M  V30 8267 H 775.525 -2.7431 -3.14341 0
M  V30 8268 H 774.155 -1.66654 -2.76453 0
M  V30 8269 H 773.207 -3.58075 -1.28399 0
M  V30 8270 H 774.519 -4.61667 -1.88852 0
M  V30 8271 H 773.673 -4.35008 -4.2291 0
M  V30 8272 H 772.412 -3.21765 -3.66495 0
M  V30 8273 H 771.417 -5.02397 -2.23332 0
M  V30 8274 H 772.642 -6.17477 -2.82663 0
M  V30 8275 H 770.588 -4.73092 -4.54445 0
M  V30 8276 H 770.505 -6.38793 -4.04326 0
M  V30 8277 H 771.773 -5.87931 -5.11817 0
M  V30 8278 N 776.003 0.335068 -1.53997 0
M  V30 8279 C 776.95 1.41187 -1.82579 0
M  V30 8280 C 777.92 1.51897 -0.672061 0
M  V30 8281 O 779.105 1.673 -0.917346 0
M  V30 8282 C 776.245 2.77717 -2.0486 0
M  V30 8283 C 775.358 2.7573 -3.32561 0
M  V30 8284 C 774.493 4.04032 -3.44864 0
M  V30 8285 C 773.532 3.96308 -4.66483 0
M  V30 8286 N 772.669 5.16317 -4.75774 0
M  V30 8287 H 777.509 1.16113 -2.74448 0
M  V30 8288 H 775.046 0.562305 -1.35928 0
M  V30 8289 H 777.004 3.57071 -2.15768 0
M  V30 8290 H 775.634 3.01124 -1.16294 0
M  V30 8291 H 774.686 1.88432 -3.3045 0
M  V30 8292 H 775.998 2.65902 -4.22016 0
M  V30 8293 H 775.152 4.91814 -3.55251 0
M  V30 8294 H 773.891 4.16652 -2.53481 0
M  V30 8295 H 772.896 3.06911 -4.56164 0
M  V30 8296 H 774.121 3.85263 -5.5924 0
M  V30 8297 H 772.067 5.29464 -3.87303 0
M  V30 8298 H 771.984 5.08779 -5.59178 0
M  V30 8299 H 773.252 6.05846 -4.9048 0
M  V30 8300 N 777.481 1.45874 0.596531 0
M  V30 8301 C 778.444 1.54988 1.68853 0
M  V30 8302 C 779.444 0.428302 1.54991 0
M  V30 8303 O 780.634 0.692158 1.59859 0
M  V30 8304 C 777.766 1.457 3.08195 0
M  V30 8305 H 778.959 2.52294 1.62135 0
M  V30 8306 H 776.512 1.33479 0.813206 0
M  V30 8307 H 777.247 0.496204 3.20481 0
M  V30 8308 H 777.032 2.27061 3.19665 0
M  V30 8309 H 778.522 1.55133 3.87716 0
M  V30 8310 N 778.959 -0.83999 1.33349 0
M  V30 8311 C 779.909 -1.93817 1.20079 0
M  V30 8312 C 780.893 -1.60564 0.103978 0
M  V30 8313 O 782.085 -1.73859 0.331964 0
M  V30 8314 C 779.214 -3.30151 0.941031 0
M  V30 8315 C 778.3 -3.69577 2.08023 0
M  V30 8316 N 778.691 -3.80707 3.3301 0
M  V30 8317 C 776.989 -3.99309 1.98667 0
M  V30 8318 C 777.69 -4.14899 4.07717 0
M  V30 8319 N 776.666 -4.27208 3.36146 0
M  V30 8320 H 780.468 -2.00576 2.14817 0
M  V30 8321 H 777.982 -1.03264 1.2534 0
M  V30 8322 H 779.979 -4.08617 0.826894 0
M  V30 8323 H 778.639 -3.247 0.00216738 0
M  V30 8324 H 779.65 -3.64644 3.67771 0
M  V30 8325 H 776.327 -4.02076 1.12433 0
M  V30 8326 H 777.717 -4.30857 5.15569 0
M  V30 8327 N 780.437 -1.16799 -1.0581 0
M  V30 8328 C 781.384 -0.87902 -2.13405 0
M  V30 8329 C 782.354 0.174541 -1.6518 0
M  V30 8330 O 783.539 0.0386843 -1.90761 0
M  V30 8331 C 780.679 -0.391616 -3.42871 0
M  V30 8332 C 779.792 -1.50857 -4.04804 0
M  V30 8333 C 778.927 -0.975682 -5.22163 0
M  V30 8334 C 777.966 -2.06851 -5.76089 0
M  V30 8335 N 777.103 -1.55085 -6.84758 0
M  V30 8336 H 781.943 -1.80043 -2.37463 0
M  V30 8337 H 779.48 -0.898083 -1.16503 0
M  V30 8338 H 781.438 -0.0906247 -4.17102 0
M  V30 8339 H 780.068 0.49284 -3.19016 0
M  V30 8340 H 779.12 -1.92542 -3.28073 0
M  V30 8341 H 780.432 -2.33305 -4.40874 0
M  V30 8342 H 779.586 -0.628165 -6.03439 0
M  V30 8343 H 778.325 -0.120566 -4.87551 0
M  V30 8344 H 777.33 -2.42467 -4.93447 0
M  V30 8345 H 778.555 -2.92768 -6.12751 0
M  V30 8346 H 776.501 -0.718345 -6.52055 0
M  V30 8347 H 776.418 -2.31145 -7.19797 0
M  V30 8348 H 777.686 -1.23206 -7.69702 0
M  V30 8349 N 781.915 1.24427 -0.967243 0
M  V30 8350 C 783.14 1.9708 -0.646069 0
M  V30 8351 C 783.565 1.71272 0.777665 0
M  V30 8352 O 782.923 0.976179 1.52776 0
M  V30 8353 C 782.971 3.48501 -0.926266 0
M  V30 8354 O 782.075 4.12398 -0.0114653 0
M  V30 8355 H 781.416 0.617423 -0.244304 0
M  V30 8356 H 783.946 1.58215 -1.29727 0
M  V30 8357 H 783.956 3.98885 -0.857619 0
M  V30 8358 H 782.631 3.66613 -1.96386 0
M  V30 8359 H 781.208 3.72661 -0.133396 0
M  V30 8360 N 783.393 0.737304 1.3929 0
M  V30 8361 C 784.34 0.0988364 2.30588 0
M  V30 8362 C 785.31 -0.727206 1.49335 0
M  V30 8363 O 786.495 -0.686694 1.78014 0
M  V30 8364 C 783.635 -0.800734 3.35682 0
M  V30 8365 C 782.748 0.0381731 4.31983 0
M  V30 8366 C 781.883 -0.862884 5.24145 0
M  V30 8367 C 780.922 -0.0193639 6.12097 0
M  V30 8368 N 780.059 -0.87648 6.96608 0
M  V30 8369 H 784.899 0.883031 2.84617 0
M  V30 8370 H 782.436 0.447111 1.4014 0
M  V30 8371 H 784.394 -1.33676 3.95205 0
M  V30 8372 H 783.024 -1.55088 2.83103 0
M  V30 8373 H 782.076 0.691641 3.74059 0
M  V30 8374 H 783.388 0.690294 4.94 0
M  V30 8375 H 782.542 -1.46667 5.88705 0
M  V30 8376 H 781.281 -1.54878 4.62454 0
M  V30 8377 H 780.286 0.597202 5.46547 0
M  V30 8378 H 781.511 0.663348 6.75852 0
M  V30 8379 H 779.457 -1.54762 6.37483 0
M  V30 8380 H 779.374 -0.280892 7.55478 0
M  V30 8381 H 780.642 -1.46575 7.65595 0
M  V30 8382 N 784.871 -1.49948 0.485112 0
M  V30 8383 C 786.099 -2.06806 -0.0622824 0
M  V30 8384 C 786.514 -1.34736 -1.32256 0
M  V30 8385 O 785.871 -0.420836 -1.77582 0
M  V30 8386 C 785.922 -3.59934 -0.336096 0
M  V30 8387 O 785.643 -4.29289 0.874203 0
M  V30 8388 C 787.144 -4.33459 -0.928903 0
M  V30 8389 H 784.364 -0.670867 0.0133472 0
M  V30 8390 H 786.908 -1.92937 0.677917 0
M  V30 8391 H 785.063 -3.7356 -1.02625 0
M  V30 8392 H 785.477 -5.20735 0.627332 0
M  V30 8393 H 786.951 -5.41527 -1.07017 0
M  V30 8394 H 787.428 -3.94881 -1.92265 0
M  V30 8395 H 788.034 -4.24399 -0.276705 0
M  V30 8396 N 786.349 -0.21828 -1.56081 0
M  V30 8397 C 787.299 0.706492 -2.16778 0
M  V30 8398 C 788.283 1.15987 -1.11516 0
M  V30 8399 O 789.475 1.11441 -1.37513 0
M  V30 8400 C 786.604 1.91583 -2.8487 0
M  V30 8401 C 785.69 1.48228 -3.97353 0
M  V30 8402 N 786.081 0.761113 -5.00041 0
M  V30 8403 C 784.379 1.76982 -4.09382 0
M  V30 8404 C 785.08 0.540496 -5.79184 0
M  V30 8405 N 784.056 1.09622 -5.32432 0
M  V30 8406 H 787.858 0.147038 -2.93532 0
M  V30 8407 H 785.372 -0.0194049 -1.62388 0
M  V30 8408 H 787.369 2.58906 -3.26762 0
M  V30 8409 H 786.029 2.47979 -2.09611 0
M  V30 8410 H 787.04 0.414141 -5.16241 0
M  V30 8411 H 783.717 2.34721 -3.45271 0
M  V30 8412 H 785.107 -0.0332531 -6.71892 0
M  V30 8413 O 787.866 1.61292 -0.0819188 0
M  V30 8414 H 788.557 1.86513 0.522732 0
M  V30 END ATOM
M  V30 BEGIN BOND
M  V30 END BOND
M  V30 END CTAB
M  END
$$$$
