drugbank_target|O75762 Transient receptor potential cation channel subfamily A member 1 (DB00825; DB01744; DB09061; DB11148; DB11345; DB11755; DB14009; DB14011; DB14050)
 OpenBabel12092119483D

  0  0  0     0  0            999 V3000
M  V30 BEGIN CTAB
M  V30 COUNTS 17955 18144 0 0 0
M  V30 BEGIN ATOM
M  V30 1 H -0.908 1.98254 -0.117106 0
M  V30 2 N 0 1.576 0 0
M  V30 3 C 0.933 2.03868 1.02534 0
M  V30 4 C 1.911 0.928543 1.3348 0
M  V30 5 O 3.095 1.19667 1.45644 0
M  V30 6 C 0.222 2.43627 2.35294 0
M  V30 7 C -0.732 3.65373 2.2001 0
M  V30 8 S 0.101 5.13292 1.52614 0
M  V30 9 C 1.257 5.56322 2.86805 0
M  V30 10 H 1.49 2.90518 0.631377 0
M  V30 11 H -0.977 1.52953 0.210867 0
M  V30 12 H 0.981 2.67203 3.11629 0
M  V30 13 H -0.358 1.57376 2.7183 0
M  V30 14 H -1.165 3.90944 3.18086 0
M  V30 15 H -1.563 3.418 1.51819 0
M  V30 16 H 0.729 5.58782 3.83104 0
M  V30 17 H 1.672 6.56266 2.65933 0
M  V30 18 H 2.08 4.83886 2.90714 0
M  V30 19 N 1.4781 -0.272755 1.55222 0
M  V30 20 C 2.4251 -1.33716 1.88119 0
M  V30 21 C 3.3951 -1.49066 0.73271 0
M  V30 22 O 4.5801 -1.63469 0.984002 0
M  V30 23 C 1.7201 -2.69238 2.15882 0
M  V30 24 C 0.8331 -2.62108 3.43399 0
M  V30 25 C -0.0319 -3.89811 3.60861 0
M  V30 26 C -0.9929 -3.77193 4.8207 0
M  V30 27 N -1.8559 -4.9673 4.96189 0
M  V30 28 H 2.9841 -1.04962 2.78903 0
M  V30 29 H 0.5211 -0.507088 1.38083 0
M  V30 30 H 2.4791 -3.48089 2.29978 0
M  V30 31 H 1.1091 -2.96194 1.28331 0
M  V30 32 H 0.1611 -1.74967 3.37773 0
M  V30 33 H 1.4731 -2.48685 4.32386 0
M  V30 34 H 0.6271 -4.77103 3.74777 0
M  V30 35 H -0.6339 -4.06102 2.7006 0
M  V30 36 H -1.6289 -2.88284 4.68159 0
M  V30 37 H -0.4039 -3.62421 5.74307 0
M  V30 38 H -2.4579 -5.13431 4.08319 0
M  V30 39 H -2.5409 -4.85839 5.79221 0
M  V30 40 H -1.2729 -5.85594 5.1449 0
M  V30 41 N 2.9562 -1.48159 -0.537278 0
M  V30 42 C 4.3722 -1.34118 -0.865129 0
M  V30 43 C 4.5722 -0.346678 -1.98495 0
M  V30 44 O 3.6282 0.234715 -2.51407 0
M  V30 45 C 4.9412 -2.73963 -1.23954 0
M  V30 46 C 6.4892 -2.82397 -1.34984 0
M  V30 47 C 6.9642 -4.22928 -1.75772 0
M  V30 48 N 8.4552 -4.25566 -1.82887 0
M  V30 49 C 9.1902 -5.31235 -2.15817 0
M  V30 50 N 8.6862 -6.47189 -2.47222 0
M  V30 51 N 10.4792 -5.18624 -2.16761 0
M  V30 52 H 2.6302 -2.1144 0.201715 0
M  V30 53 H 4.8932 -0.947598 0.0275949 0
M  V30 54 H 4.5992 -3.48264 -0.490381 0
M  V30 55 H 4.4732 -3.0702 -2.19132 0
M  V30 56 H 6.8602 -2.08356 -2.08978 0
M  V30 57 H 6.9412 -2.5297 -0.379448 0
M  V30 58 H 6.5852 -4.97482 -1.02341 0
M  V30 59 H 6.5152 -4.49794 -2.73848 0
M  V30 60 H 9.0062 -3.41924 -1.60924 0
M  V30 61 H 9.3192 -7.23564 -2.71433 0
M  V30 62 H 7.6642 -6.50476 -2.44757 0
M  V30 63 H 10.8552 -4.27056 -1.91679 0
M  V30 64 H 11.0282 -6.01078 -2.42093 0
M  V30 65 N 4.4343 0.785586 -1.36625 0
M  V30 66 C 5.6593 1.57963 -1.34397 0
M  V30 67 C 6.0843 1.87964 0.071526 0
M  V30 68 O 5.4423 1.48182 1.0446 0
M  V30 69 C 5.4903 2.87511 -2.17646 0
M  V30 70 O 4.5943 3.81281 -1.57158 0
M  V30 71 H 3.9353 0.479014 -0.459828 0
M  V30 72 H 6.4653 0.973411 -1.79961 0
M  V30 73 H 6.4753 3.36745 -2.30362 0
M  V30 74 H 5.1503 2.65002 -3.20541 0
M  V30 75 H 3.7273 3.39885 -1.53403 0
M  V30 76 N 5.9124 1.20967 1.01018 0
M  V30 77 C 6.8424 0.988272 2.11555 0
M  V30 78 C 7.8234 -0.0849778 1.69888 0
M  V30 79 O 9.0084 0.0738202 1.9406 0
M  V30 80 C 6.1384 0.546528 3.42973 0
M  V30 81 C 5.0924 1.56375 3.9841 0
M  V30 82 C 4.4184 0.97842 5.25672 0
M  V30 83 C 5.7184 2.94922 4.31066 0
M  V30 84 H 7.4124 1.91276 2.30334 0
M  V30 85 H 4.9584 0.921073 1.1069 0
M  V30 86 H 6.9114 0.378839 4.19694 0
M  V30 87 H 5.6354 -0.413598 3.23971 0
M  V30 88 H 4.2944 1.71891 3.23804 0
M  V30 89 H 3.9424 0.0101688 5.02999 0
M  V30 90 H 3.6424 1.65784 5.63728 0
M  V30 91 H 5.1664 0.821939 6.05043 0
M  V30 92 H 6.5804 2.8288 4.9865 0
M  V30 93 H 4.9774 3.5983 4.80253 0
M  V30 94 H 6.0474 3.4616 3.39561 0
M  V30 95 N 7.3905 -1.2043 1.01659 0
M  V30 96 C 8.8065 -1.41852 0.731442 0
M  V30 97 C 9.0065 -1.89358 -0.688898 0
M  V30 98 O 8.0625 -2.06247 -1.45666 0
M  V30 99 C 9.3755 -2.44019 1.75714 0
M  V30 100 C 10.9235 -2.57785 1.77527 0
M  V30 101 C 11.3985 -3.63194 2.79023 0
M  V30 102 N 12.8895 -3.70678 2.77763 0
M  V30 103 C 13.6245 -4.51897 3.52954 0
M  V30 104 N 13.1205 -5.36921 4.37821 0
M  V30 105 N 14.9135 -4.4643 3.41551 0
M  V30 106 H 7.0645 -0.879093 1.93354 0
M  V30 107 H 9.3275 -0.448425 0.835236 0
M  V30 108 H 9.0335 -2.1611 2.77469 0
M  V30 109 H 8.9075 -3.43007 1.56927 0
M  V30 110 H 11.2945 -2.85023 0.764569 0
M  V30 111 H 11.3755 -1.58992 2.00387 0
M  V30 112 H 11.0195 -3.36699 3.80258 0
M  V30 113 H 10.9495 -4.61609 2.53425 0
M  V30 114 H 13.4405 -3.09944 2.16201 0
M  V30 115 H 13.7535 -5.95981 4.91962 0
M  V30 116 H 12.0985 -5.36424 4.41899 0
M  V30 117 H 15.2895 -3.79042 2.74672 0
M  V30 118 H 15.4625 -5.09491 4.00404 0
M  V30 119 N 8.8686 -0.792821 -1.36206 0
M  V30 120 C 9.8156 -0.191653 -2.30003 0
M  V30 121 C 10.7856 0.666453 -1.52143 0
M  V30 122 O 11.9706 0.61442 -1.80636 0
M  V30 123 C 9.1106 0.664848 -3.38635 0
M  V30 124 C 8.2236 -0.212175 -4.31479 0
M  V30 125 C 7.3586 0.651022 -5.27196 0
M  V30 126 C 6.3976 -0.227247 -6.11678 0
M  V30 127 N 5.5346 0.595127 -6.99573 0
M  V30 128 H 10.3746 -0.996978 -2.80828 0
M  V30 129 H 7.9116 -0.503206 -1.38225 0
M  V30 130 H 9.8696 1.17645 -4.00269 0
M  V30 131 H 8.4996 1.43557 -2.89122 0
M  V30 132 H 7.5516 -0.841777 -3.70969 0
M  V30 133 H 8.8636 -0.888751 -4.90818 0
M  V30 134 H 8.0176 1.2283 -5.94136 0
M  V30 135 H 6.7566 1.36121 -4.68319 0
M  V30 136 H 5.7616 -0.816904 -5.43697 0
M  V30 137 H 6.9866 -0.93509 -6.72631 0
M  V30 138 H 4.9326 1.28955 -6.432 0
M  V30 139 H 4.8496 -0.0236952 -7.55996 0
M  V30 140 H 6.1176 1.15613 -7.70879 0
M  V30 141 N 10.3467 1.47872 -0.545128 0
M  V30 142 C 11.2797 2.2675 0.256885 0
M  V30 143 C 12.2577 1.33293 0.931228 0
M  V30 144 O 13.4417 1.62657 0.95262 0
M  V30 145 C 10.5687 3.09976 1.36501 0
M  V30 146 C 9.6147 4.1892 0.800496 0
M  V30 147 S 10.4477 5.34397 -0.343505 0
M  V30 148 C 11.6037 6.21186 0.766733 0
M  V30 149 H 11.8367 2.94425 -0.412479 0
M  V30 150 H 9.3697 1.50806 -0.331204 0
M  V30 151 H 11.3277 3.585 1.9997 0
M  V30 152 H 9.9887 2.41686 2.00616 0
M  V30 153 H 9.1817 4.76836 1.63227 0
M  V30 154 H 8.7837 3.73215 0.242217 0
M  V30 155 H 11.0757 6.56804 1.66178 0
M  V30 156 H 12.0187 7.07742 0.225204 0
M  V30 157 H 12.4267 5.54574 1.05396 0
M  V30 158 N 11.8248 0.280983 1.55075 0
M  V30 159 C 13.0708 -0.327573 2.00745 0
M  V30 160 C 13.4258 -1.53045 1.16598 0
M  V30 161 O 12.7188 -1.90221 0.229451 0
M  V30 162 C 12.9128 -0.754656 3.49342 0
M  V30 163 C 12.7418 0.40529 4.4787 0
M  V30 164 C 11.5118 0.890947 4.97383 0
M  V30 165 C 13.7098 1.24371 4.99035 0
M  V30 166 N 11.6918 2.01975 5.79724 0
M  V30 167 C 13.0628 2.22031 5.7888 0
M  V30 168 C 15.1178 1.27638 4.81262 0
M  V30 169 C 13.8208 3.22709 6.42846 0
M  V30 170 C 15.8468 2.27164 5.46031 0
M  V30 171 C 15.2088 3.23556 6.25692 0
M  V30 172 H 11.3078 -0.0848774 0.77738 0
M  V30 173 H 13.8918 0.406342 1.90413 0
M  V30 174 H 12.0628 -1.45778 3.60005 0
M  V30 175 H 13.7948 -1.34105 3.81835 0
M  V30 176 H 10.5498 0.469262 4.71269 0
M  V30 177 H 10.9738 2.58794 6.25584 0
M  V30 178 H 15.6158 0.544936 4.19274 0
M  V30 179 H 13.3338 3.96784 7.0398 0
M  V30 180 H 16.9198 2.30441 5.34217 0
M  V30 181 H 15.7998 3.99309 6.74924 0
M  V30 182 N 13.3029 -1.57598 0.00835791 0
M  V30 183 C 14.7189 -1.55764 -0.347822 0
M  V30 184 C 14.9189 -1.01186 -1.74252 0
M  V30 185 O 13.9749 -0.649371 -2.44007 0
M  V30 186 C 15.2879 -2.99927 -0.215407 0
M  V30 187 C 16.8359 -3.11656 -0.289725 0
M  V30 188 C 17.3109 -4.57621 -0.18634 0
M  V30 189 N 18.8019 -4.62557 -0.243978 0
M  V30 190 C 19.5369 -5.73094 -0.18745 0
M  V30 191 N 19.0329 -6.92753 -0.0810331 0
M  V30 192 N 20.8259 -5.61588 -0.239925 0
M  V30 193 H 12.9769 -1.91411 0.92062 0
M  V30 194 H 15.2399 -0.879562 0.353659 0
M  V30 195 H 14.9459 -3.43729 0.744512 0
M  V30 196 H 14.8199 -3.63865 -0.994097 0
M  V30 197 H 17.2069 -2.67779 -1.24009 0
M  V30 198 H 17.2879 -2.5048 0.51898 0
M  V30 199 H 16.9319 -5.02174 0.760519 0
M  V30 200 H 16.8619 -5.16752 -1.01364 0
M  V30 201 H 19.3529 -3.76481 -0.327217 0
M  V30 202 H 19.6659 -7.72787 -0.0440241 0
M  V30 203 H 18.0109 -6.94984 -0.0465419 0
M  V30 204 H 21.2019 -4.66996 -0.321317 0
M  V30 205 H 21.3749 -6.47714 -0.192407 0
M  V30 206 N 14.781 0.264519 -1.55364 0
M  V30 207 C 16.192 0.834936 -1.6699 0
M  V30 208 C 16.543 1.86718 -0.602552 0
M  V30 209 O 15.668 2.14899 0.254425 0
M  V30 210 C 16.263 1.5212 -3.02729 0
M  V30 211 C 14.822 2.03954 -3.16354 0
M  V30 212 C 13.969 0.884498 -2.62815 0
M  V30 213 H 16.92 0.0406869 -1.58648 0
M  V30 214 H 16.941 2.38853 -2.96191 0
M  V30 215 H 16.453 0.769668 -3.80392 0
M  V30 216 H 14.554 2.82041 -2.43482 0
M  V30 217 H 14.667 2.24902 -4.23032 0
M  V30 218 H 13.031 1.2802 -2.20188 0
M  V30 219 H 13.814 0.14634 -3.42988 0
M  V30 220 N 16.2591 1.48442 0.529413 0
M  V30 221 C 17.5071 1.56179 1.28267 0
M  V30 222 C 17.8281 0.237721 1.93546 0
M  V30 223 O 17.0981 -0.740779 1.81354 0
M  V30 224 H 15.6781 0.575367 0.476405 0
M  V30 225 H 18.3401 1.84909 0.61602 0
M  V30 226 H 17.4361 2.34312 2.06165 0
M  V30 227 N 17.7372 -0.778329 1.37039 0
M  V30 228 C 18.6472 -1.92253 1.34446 0
M  V30 229 C 19.6632 -1.72267 0.244991 0
M  V30 230 O 20.8392 -1.95615 0.479258 0
M  V30 231 C 17.9042 -3.27282 1.144 0
M  V30 232 C 16.9652 -3.59969 2.33925 0
M  V30 233 C 16.1982 -4.88555 2.14825 0
M  V30 234 O 16.4212 -5.59113 1.12912 0
M  V30 235 O 15.3552 -5.20153 3.02861 0
M  V30 236 H 19.1812 -1.97392 2.30803 0
M  V30 237 H 16.7662 -0.920154 1.17701 0
M  V30 238 H 18.6482 -4.08062 1.05182 0
M  V30 239 H 17.3232 -3.23011 0.211124 0
M  V30 240 H 16.2302 -2.7945 2.48714 0
M  V30 241 H 17.5632 -3.68976 3.25757 0
M  V30 242 N 19.2153 -1.21501 -1.00376 0
M  V30 243 C 20.1623 -0.975387 -2.09177 0
M  V30 244 C 21.1323 0.0990615 -1.65804 0
M  V30 245 O 22.3173 -0.0483147 -1.90739 0
M  V30 246 C 19.4573 -0.547507 -3.40729 0
M  V30 247 C 18.5703 -1.69153 -3.97506 0
M  V30 248 C 17.7053 -1.2127 -5.17172 0
M  V30 249 C 16.7443 -2.32897 -5.66061 0
M  V30 250 N 15.8813 -1.86138 -6.76976 0
M  V30 251 H 20.7213 -1.9068 -2.29009 0
M  V30 252 H 18.2583 -0.950257 -1.12288 0
M  V30 253 H 20.2163 -0.280667 -4.16255 0
M  V30 254 H 18.8463 0.346904 -3.20931 0
M  V30 255 H 17.8983 -2.07298 -3.18954 0
M  V30 256 H 19.2103 -2.5316 -4.29781 0
M  V30 257 H 18.3643 -0.902591 -5.99948 0
M  V30 258 H 17.1033 -0.342692 -4.86495 0
M  V30 259 H 16.1083 -2.64709 -4.81881 0
M  V30 260 H 17.3333 -3.20396 -5.98768 0
M  V30 261 H 15.2793 -1.01484 -6.48103 0
M  V30 262 H 15.1963 -2.63717 -7.08512 0
M  V30 263 H 16.4643 -1.58165 -7.63285 0
M  V30 264 N 20.6934 1.19889 -1.02296 0
M  V30 265 C 21.6404 2.22901 -0.598651 0
M  V30 266 C 22.6104 1.61588 0.384521 0
M  V30 267 O 23.7954 1.88697 0.282522 0
M  V30 268 C 20.9354 3.45063 0.0504476 0
M  V30 269 C 20.0484 4.20783 -0.978053 0
M  V30 270 C 19.1834 5.30356 -0.299338 0
M  V30 271 C 18.2224 5.97826 -1.31416 0
M  V30 272 N 17.3594 6.98975 -0.661667 0
M  V30 273 H 22.1994 2.58554 -1.48169 0
M  V30 274 H 19.7364 1.27039 -0.741584 0
M  V30 275 H 21.6944 4.14831 0.443971 0
M  V30 276 H 20.3244 3.10084 0.897097 0
M  V30 277 H 19.3764 3.50018 -1.48969 0
M  V30 278 H 20.6884 4.67109 -1.74958 0
M  V30 279 H 19.8424 6.06516 0.149347 0
M  V30 280 H 18.5814 4.85084 0.504445 0
M  V30 281 H 17.5864 5.20422 -1.77317 0
M  V30 282 H 18.8114 6.45183 -2.11933 0
M  V30 283 H 16.7574 6.55886 0.122132 0
M  V30 284 H 16.6744 7.43461 -1.37117 0
M  V30 285 H 17.9424 7.7914 -0.236785 0
M  V30 286 N 22.1715 0.800033 1.35784 0
M  V30 287 C 23.0815 0.207204 2.33683 0
M  V30 288 C 24.0975 -0.64631 1.61551 0
M  V30 289 O 25.2735 -0.559604 1.93469 0
M  V30 290 C 22.3385 -0.639659 3.40748 0
M  V30 291 C 21.3995 0.233585 4.28664 0
M  V30 292 C 20.6325 -0.572954 5.30616 0
M  V30 293 O 20.8555 -1.80816 5.40982 0
M  V30 294 O 19.7895 0.0327285 6.01891 0
M  V30 295 H 23.6155 1.01692 2.86169 0
M  V30 296 H 21.2005 0.561691 1.38439 0
M  V30 297 H 23.0825 -1.12223 4.06182 0
M  V30 298 H 21.7575 -1.42708 2.90544 0
M  V30 299 H 20.6645 0.763147 3.66233 0
M  V30 300 H 21.9975 0.984784 4.82248 0
M  V30 301 N 23.6496 -1.47581 0.552962 0
M  V30 302 C 25.0606 -1.86324 0.118463 0
M  V30 303 C 25.4116 -1.46006 -1.3106 0
M  V30 304 O 24.5366 -0.861182 -1.98526 0
M  V30 305 C 25.1316 -3.3816 0.20821 0
M  V30 306 C 23.6906 -3.7601 -0.171226 0
M  V30 307 C 22.8376 -2.71634 0.557686 0
M  V30 308 H 25.7886 -1.39159 0.762928 0
M  V30 309 H 25.8096 -3.76141 -0.574278 0
M  V30 310 H 25.3216 -3.67473 1.24841 0
M  V30 311 H 23.4226 -3.52313 -1.21269 0
M  V30 312 H 23.5356 -4.78745 0.184379 0
M  V30 313 H 21.8996 -2.547 0.00125792 0
M  V30 314 H 22.6826 -3.0379 1.59896 0
M  V30 315 N 25.1277 -0.289203 -1.54924 0
M  V30 316 C 26.0597 0.625583 -2.20497 0
M  V30 317 C 27.0727 1.10667 -1.19402 0
M  V30 318 O 28.2617 1.02615 -1.46056 0
M  V30 319 C 25.3617 1.86702 -2.82835 0
M  V30 320 C 24.5347 1.5304 -4.09753 0
M  V30 321 C 23.5937 2.62576 -4.56005 0
M  V30 322 O 22.6197 2.28167 -5.21468 0
M  V30 323 N 23.8217 3.92901 -4.27328 0
M  V30 324 H 26.5867 0.0642801 -2.99631 0
M  V30 325 H 24.1477 -0.110896 -1.6152 0
M  V30 326 H 26.1397 2.59304 -3.10715 0
M  V30 327 H 24.7097 2.33702 -2.07611 0
M  V30 328 H 23.9297 0.637564 -3.8901 0
M  V30 329 H 25.2177 1.28072 -4.92418 0
M  V30 330 H 24.6157 4.23671 -3.74859 0
M  V30 331 H 23.1727 4.61837 -4.59946 0
M  V30 332 N 26.6058 1.57591 -0.0167156 0
M  V30 333 C 27.8538 1.90906 0.663285 0
M  V30 334 C 28.1748 0.892509 1.73376 0
M  V30 335 O 27.4448 -0.0677623 1.95783 0
M  V30 336 H 26.0248 0.704637 0.247983 0
M  V30 337 H 28.6868 1.94803 -0.0615909 0
M  V30 338 H 27.7828 2.9116 1.12393 0
M  V30 339 N 28.0839 -0.256276 1.55502 0
M  V30 340 C 29.3299 -0.987079 1.77157 0
M  V30 341 C 29.6629 -1.85327 0.580315 0
M  V30 342 O 28.9379 -1.89874 -0.421686 0
M  V30 343 C 29.2209 -1.85553 3.08613 0
M  V30 344 C 29.0739 -1.01816 4.38125 0
M  V30 345 C 30.3929 -2.8397 3.36228 0
M  V30 346 H 27.5119 -0.357428 0.644526 0
M  V30 347 H 30.1539 -0.258239 1.88237 0
M  V30 348 H 28.3039 -2.47695 2.99298 0
M  V30 349 H 29.9759 -0.416159 4.59419 0
M  V30 350 H 28.2189 -0.322178 4.32602 0
M  V30 351 H 28.8899 -1.65939 5.26468 0
M  V30 352 H 31.3659 -2.31964 3.45445 0
M  V30 353 H 30.2419 -3.41864 4.29442 0
M  V30 354 H 30.5029 -3.59955 2.56681 0
M  V30 355 N 29.562 -1.4872 -0.521534 0
M  V30 356 C 30.808 -1.574 -1.27879 0
M  V30 357 C 31.141 -0.250817 -1.92573 0
M  V30 358 O 30.416 0.743934 -1.79711 0
M  V30 359 C 30.699 -2.71843 -2.36164 0
M  V30 360 C 30.552 -4.13893 -1.76105 0
M  V30 361 C 31.871 -2.82008 -3.37875 0
M  V30 362 H 28.99 -0.572941 -0.463581 0
M  V30 363 H 31.632 -1.80927 -0.580119 0
M  V30 364 H 29.782 -2.51914 -2.95756 0
M  V30 365 H 31.454 -4.45284 -1.20499 0
M  V30 366 H 29.697 -4.20498 -1.06601 0
M  V30 367 H 30.368 -4.89804 -2.5455 0
M  V30 368 H 32.844 -3.00086 -2.88249 0
M  V30 369 H 31.72 -3.63796 -4.11028 0
M  V30 370 H 31.981 -1.90511 -3.98946 0
M  V30 371 N 31.0401 0.771051 -1.3745 0
M  V30 372 C 32.2701 1.55789 -1.35696 0
M  V30 373 C 32.6781 1.89107 0.0594523 0
M  V30 374 O 32.0211 1.51984 1.03183 0
M  V30 375 C 32.0831 2.89515 -2.13123 0
M  V30 376 C 31.7471 2.78829 -3.62082 0
M  V30 377 C 32.7441 2.49812 -4.5595 0
M  V30 378 C 30.4291 2.9683 -4.05213 0
M  V30 379 C 32.4231 2.38923 -5.90927 0
M  V30 380 C 30.1101 2.85562 -5.40276 0
M  V30 381 C 31.1081 2.56649 -6.32946 0
M  V30 382 O 30.7961 2.45408 -7.65526 0
M  V30 383 H 30.5281 0.489257 -0.466481 0
M  V30 384 H 33.0821 0.963446 -1.81403 0
M  V30 385 H 31.3121 3.51081 -1.62107 0
M  V30 386 H 33.0011 3.50915 -2.03994 0
M  V30 387 H 33.7671 2.3559 -4.23937 0
M  V30 388 H 29.6461 3.18335 -3.33442 0
M  V30 389 H 33.1901 2.16277 -6.63227 0
M  V30 390 H 29.0871 2.99351 -5.71891 0
M  V30 391 H 29.8551 2.60753 -7.75855 0
M  V30 392 N 32.5182 1.22032 0.997298 0
M  V30 393 C 33.4282 1.00271 2.12092 0
M  V30 394 C 34.4442 -0.047621 1.73935 0
M  V30 395 O 35.6202 0.144136 2.00884 0
M  V30 396 C 32.6852 0.578449 3.4184 0
M  V30 397 C 31.7462 1.70189 3.94125 0
M  V30 398 C 30.9792 1.29778 5.17681 0
M  V30 399 O 31.2022 0.174676 5.70132 0
M  V30 400 O 30.1362 2.11261 5.63607 0
M  V30 401 H 33.9622 1.94398 2.3333 0
M  V30 402 H 31.5472 1.00587 1.10465 0
M  V30 403 H 33.4292 0.351998 4.19927 0
M  V30 404 H 32.1042 -0.334019 3.21972 0
M  V30 405 H 31.0112 1.98282 3.1723 0
M  V30 406 H 32.3442 2.59206 4.18417 0
M  V30 407 N 33.9963 -1.19345 1.0293 0
M  V30 408 C 35.2733 -1.84811 0.640642 0
M  V30 409 C 35.6533 -1.91855 -0.88062 0
M  V30 410 O 35.0013 -1.43587 -1.7775 0
M  V30 411 C 35.2113 -3.23755 1.30321 0
M  V30 412 C 36.5593 -3.99912 1.42673 0
M  V30 413 O 37.5833 -3.33155 1.26041 0
M  V30 414 O 36.4423 -5.19494 1.6967 0
M  V30 415 H 33.5363 -0.796443 0.222726 0
M  V30 416 H 36.0823 -1.26831 1.12748 0
M  V30 417 H 34.8543 -3.13466 2.34211 0
M  V30 418 H 34.4773 -3.89381 0.804261 0
M  V30 419 N 35.4744 -0.807222 -1.35358 0
M  V30 420 C 36.7204 -0.388463 -1.99045 0
M  V30 421 C 37.0534 1.04184 -1.63888 0
M  V30 422 O 36.3284 1.72292 -0.902535 0
M  V30 423 C 36.6114 -0.572783 -3.55515 0
M  V30 424 C 36.4644 -2.04807 -4.00468 0
M  V30 425 C 37.7834 0.00114064 -4.401 0
M  V30 426 H 34.9024 -0.142619 -0.723069 0
M  V30 427 H 37.5444 -1.01687 -1.60498 0
M  V30 428 H 35.6944 -0.0378425 -3.88482 0
M  V30 429 H 37.3664 -2.64544 -3.77908 0
M  V30 430 H 35.6094 -2.54427 -3.51353 0
M  V30 431 H 36.2804 -2.12792 -5.09337 0
M  V30 432 H 38.7564 -0.455716 -4.13597 0
M  V30 433 H 37.6324 -0.157737 -5.48673 0
M  V30 434 H 37.8934 1.09488 -4.28328 0
M  V30 435 N 36.9525 1.47285 -0.560781 0
M  V30 436 C 38.3635 1.86258 -0.128343 0
M  V30 437 C 38.7145 1.46699 1.30284 0
M  V30 438 O 37.8395 0.871698 1.98067 0
M  V30 439 C 38.4345 3.38044 -0.22614 0
M  V30 440 C 36.9935 3.76096 0.151283 0
M  V30 441 C 36.1405 2.71335 -0.572084 0
M  V30 442 H 39.0915 1.38752 -0.770297 0
M  V30 443 H 39.1125 3.76441 0.554322 0
M  V30 444 H 38.6245 3.66806 -1.26788 0
M  V30 445 H 36.7255 3.52951 1.19399 0
M  V30 446 H 36.8385 4.78641 -0.209765 0
M  V30 447 H 35.2025 2.54696 -0.0147653 0
M  V30 448 H 35.9855 3.02938 -1.61504 0
M  V30 449 N 38.4306 0.297415 1.54768 0
M  V30 450 C 39.7076 -0.365847 1.92148 0
M  V30 451 C 40.0876 -1.71975 1.22424 0
M  V30 452 O 39.4356 -2.25666 0.358739 0
M  V30 453 C 39.6456 -0.484056 3.45627 0
M  V30 454 C 40.9936 -0.756594 4.17805 0
M  V30 455 O 42.0176 -0.568007 3.51642 0
M  V30 456 O 40.8766 -1.11863 5.34929 0
M  V30 457 H 37.9706 -0.203919 0.801465 0
M  V30 458 H 40.5166 0.34521 1.66152 0
M  V30 459 H 39.2886 0.467865 3.88493 0
M  V30 460 H 38.9116 -1.24372 3.77647 0
M  V30 461 N 39.9087 -1.5758 0.0250728 0
M  V30 462 C 41.1857 -1.82917 -0.692873 0
M  V30 463 C 41.5657 -0.908137 -1.90568 0
M  V30 464 O 40.9137 0.0372298 -2.2847 0
M  V30 465 C 41.1237 -3.32034 -1.07492 0
M  V30 466 C 42.4717 -3.98406 -1.46826 0
M  V30 467 O 43.4957 -3.36505 -1.16801 0
M  V30 468 O 42.3547 -5.07497 -2.02754 0
M  V30 469 H 39.4487 -0.754079 -0.33955 0
M  V30 470 H 41.9947 -1.69619 0.0524456 0
M  V30 471 H 40.7667 -3.90728 -0.211552 0
M  V30 472 H 40.3897 -3.50424 -1.87854 0
M  V30 473 N 41.3868 0.248026 -1.55636 0
M  V30 474 C 42.6148 0.993808 -1.81469 0
M  V30 475 C 43.0298 1.78991 -0.60064 0
M  V30 476 O 42.3868 1.77345 0.430682 0
M  V30 477 C 42.4378 1.93258 -3.05506 0
M  V30 478 O 42.1588 1.16869 -4.22224 0
M  V30 479 C 43.6598 2.79444 -3.4413 0
M  V30 480 H 40.8798 0.292486 -0.603898 0
M  V30 481 H 43.4238 0.271253 -2.02693 0
M  V30 482 H 41.5788 2.60943 -2.86335 0
M  V30 483 H 41.9928 1.80359 -4.92515 0
M  V30 484 H 43.4668 3.41066 -4.34026 0
M  V30 485 H 43.9438 3.50499 -2.64665 0
M  V30 486 H 44.5498 2.17214 -3.65648 0
M  V30 487 N 42.8649 1.48995 0.513639 0
M  V30 488 C 43.7749 1.67443 1.64317 0
M  V30 489 C 44.7909 0.556947 1.64846 0
M  V30 490 O 45.9669 0.830082 1.83498 0
M  V30 491 C 43.0319 1.72515 3.00732 0
M  V30 492 C 42.0929 2.96009 3.1093 0
M  V30 493 C 41.3259 3.00829 4.40837 0
M  V30 494 O 41.5489 2.13594 5.28898 0
M  V30 495 O 40.4829 3.93168 4.55744 0
M  V30 496 H 44.3089 2.63106 1.51687 0
M  V30 497 H 41.8939 1.32588 0.688543 0
M  V30 498 H 43.7759 1.78277 3.81831 0
M  V30 499 H 42.4509 0.800278 3.13651 0
M  V30 500 H 41.3579 2.9577 2.29065 0
M  V30 501 H 42.6909 3.87934 3.02933 0
M  V30 502 N 44.343 -0.763751 1.37857 0
M  V30 503 C 45.62 -1.51244 1.24035 0
M  V30 504 C 46 -2.10472 -0.162649 0
M  V30 505 O 45.348 -1.96206 -1.17112 0
M  V30 506 C 45.558 -2.58694 2.34261 0
M  V30 507 C 46.906 -3.25878 2.72193 0
M  V30 508 O 47.93 -2.68993 2.33497 0
M  V30 509 O 46.789 -4.2874 3.38887 0
M  V30 510 H 43.883 -0.670243 0.484462 0
M  V30 511 H 46.429 -0.800031 1.49658 0
M  V30 512 H 45.201 -2.13105 3.2818 0
M  V30 513 H 44.824 -3.37527 2.10146 0
M  V30 514 N 45.8211 -1.22559 -0.990812 0
M  V30 515 C 47.0681 -1.05141 -1.73065 0
M  V30 516 C 47.3961 0.413191 -1.9006 0
M  V30 517 O 46.6511 1.32257 -1.44245 0
M  V30 518 C 46.9501 -1.71011 -3.13831 0
M  V30 519 C 46.6161 -3.20911 -3.16745 0
M  V30 520 C 45.2781 -3.61812 -3.17247 0
M  V30 521 C 47.6301 -4.16846 -3.12872 0
M  V30 522 C 44.9581 -4.97127 -3.1158 0
M  V30 523 C 47.3101 -5.5214 -3.08746 0
M  V30 524 C 45.9741 -5.92419 -3.07565 0
M  V30 525 H 45.2441 -0.384738 -0.633291 0
M  V30 526 H 47.8911 -1.5235 -1.16025 0
M  V30 527 H 46.1961 -1.16133 -3.74193 0
M  V30 528 H 47.8931 -1.55023 -3.69823 0
M  V30 529 H 44.4831 -2.88344 -3.17105 0
M  V30 530 H 48.6671 -3.86263 -3.11632 0
M  V30 531 H 43.9231 -5.27562 -3.09012 0
M  V30 532 H 48.0971 -6.26201 -3.04705 0
M  V30 533 H 45.7241 -6.97236 -3.02929 0
M  V30 534 N 47.2992 1.18797 -1.03562 0
M  V30 535 C 48.2462 2.22253 -0.622259 0
M  V30 536 C 49.2162 1.61987 0.36736 0
M  V30 537 O 50.4012 1.88986 0.262492 0
M  V30 538 C 47.5412 3.45097 0.0138462 0
M  V30 539 C 46.6542 4.19722 -1.02263 0
M  V30 540 C 45.7892 5.30009 -0.355573 0
M  V30 541 C 44.8282 5.96399 -1.37749 0
M  V30 542 N 43.9652 6.98234 -0.735766 0
M  V30 543 H 48.8052 2.56968 -1.50903 0
M  V30 544 H 46.3422 1.26245 -0.755017 0
M  V30 545 H 48.3002 4.15279 0.399948 0
M  V30 546 H 46.9302 3.11018 0.864158 0
M  V30 547 H 45.9822 3.48418 -1.52673 0
M  V30 548 H 47.2942 4.65227 -1.79903 0
M  V30 549 H 46.4482 6.0664 0.0850095 0
M  V30 550 H 45.1872 4.85592 0.452967 0
M  V30 551 H 44.1922 5.18512 -1.82826 0
M  V30 552 H 45.4172 6.42899 -2.18764 0
M  V30 553 H 43.3632 6.55979 0.0525597 0
M  V30 554 H 43.2802 7.41965 -1.44995 0
M  V30 555 H 44.5482 7.78845 -0.31941 0
M  V30 556 N 48.7773 0.814389 1.34928 0
M  V30 557 C 49.6873 0.231978 2.3345 0
M  V30 558 C 50.7033 -0.629139 1.62228 0
M  V30 559 O 51.8793 -0.539052 1.94052 0
M  V30 560 C 48.9443 -0.603482 3.41407 0
M  V30 561 C 48.0053 0.279037 4.28392 0
M  V30 562 C 47.2383 -0.516643 5.31193 0
M  V30 563 O 47.4613 -1.75068 5.4287 0
M  V30 564 O 46.3953 0.0965652 6.01823 0
M  V30 565 H 50.2213 1.04721 2.85074 0
M  V30 566 H 47.8063 0.576343 1.37836 0
M  V30 567 H 49.6883 -1.07908 4.0735 0
M  V30 568 H 48.3633 -1.39618 2.92042 0
M  V30 569 H 47.2703 0.801948 3.65403 0
M  V30 570 H 48.6033 1.03588 4.81176 0
M  V30 571 N 50.2554 -1.46986 0.568584 0
M  V30 572 C 51.4804 -2.07335 0.0520528 0
M  V30 573 C 51.9054 -1.41675 -1.23733 0
M  V30 574 O 51.2634 -0.495623 -1.74394 0
M  V30 575 C 51.3114 -3.60417 -0.11501 0
M  V30 576 O 50.4154 -3.95309 -1.17492 0
M  V30 577 H 49.7564 -0.661597 0.0564385 0
M  V30 578 H 52.2864 -1.88837 0.787507 0
M  V30 579 H 52.2964 -4.06698 -0.325644 0
M  V30 580 H 50.9714 -4.07601 0.826675 0
M  V30 581 H 49.5484 -3.60757 -0.943869 0
M  V30 582 N 51.7335 -0.305618 -1.54608 0
M  V30 583 C 52.6635 0.561482 -2.26649 0
M  V30 584 C 53.6445 1.13415 -1.26772 0
M  V30 585 O 54.8295 1.16262 -1.55553 0
M  V30 586 C 51.9595 1.73122 -3.01075 0
M  V30 587 C 50.9135 1.2887 -4.08138 0
M  V30 588 C 50.2395 2.54396 -4.70305 0
M  V30 589 C 51.5395 0.416578 -5.20636 0
M  V30 590 H 53.2335 -0.0393902 -2.99374 0
M  V30 591 H 50.7795 -0.020385 -1.43986 0
M  V30 592 H 52.7325 2.34396 -3.50195 0
M  V30 593 H 51.4565 2.3584 -2.25936 0
M  V30 594 H 50.1155 0.698991 -3.59875 0
M  V30 595 H 49.7635 3.15439 -3.918 0
M  V30 596 H 49.4635 2.25486 -5.42614 0
M  V30 597 H 50.9875 3.16464 -5.2219 0
M  V30 598 H 52.4015 0.935116 -5.65622 0
M  V30 599 H 50.7985 0.221046 -5.99693 0
M  V30 600 H 51.8685 -0.557162 -4.81688 0
M  V30 601 N 53.2116 1.57565 -0.0334293 0
M  V30 602 C 54.1586 2.10478 0.946981 0
M  V30 603 C 55.1286 1.00787 1.32027 0
M  V30 604 O 56.3136 1.28232 1.41284 0
M  V30 605 C 53.4536 2.63994 2.22263 0
M  V30 606 C 52.5666 3.87709 1.90541 0
M  V30 607 C 51.7016 4.29604 3.12433 0
M  V30 608 C 50.7406 5.46065 2.76549 0
M  V30 609 N 49.8776 5.83096 3.9108 0
M  V30 610 H 54.7176 2.93963 0.488846 0
M  V30 611 H 52.2546 1.45296 0.22969 0
M  V30 612 H 54.2126 2.93114 2.96884 0
M  V30 613 H 52.8426 1.83333 2.65685 0
M  V30 614 H 51.8946 3.65291 1.06144 0
M  V30 615 H 53.2066 4.72403 1.60116 0
M  V30 616 H 52.3606 4.60182 3.9537 0
M  V30 617 H 51.0996 3.43685 3.46023 0
M  V30 618 H 50.1046 5.15176 1.92026 0
M  V30 619 H 51.3296 6.33685 2.44171 0
M  V30 620 H 49.2756 5.00132 4.24504 0
M  V30 621 H 49.1926 6.6244 3.64293 0
M  V30 622 H 50.4606 6.18282 4.74708 0
M  V30 623 N 54.6897 -0.239769 1.55765 0
M  V30 624 C 55.9357 -0.968234 1.78194 0
M  V30 625 C 56.2687 -1.84701 0.599938 0
M  V30 626 O 55.5437 -1.9031 -0.401524 0
M  V30 627 C 55.8267 -1.8227 3.10564 0
M  V30 628 C 55.6797 -0.971633 4.3918 0
M  V30 629 C 56.9987 -2.80388 3.39221 0
M  V30 630 H 54.1177 -0.350572 0.648281 0
M  V30 631 H 56.7597 -0.238259 1.885 0
M  V30 632 H 54.9097 -2.44507 3.01908 0
M  V30 633 H 56.5817 -0.367408 4.59835 0
M  V30 634 H 54.8247 -0.276276 4.32919 0
M  V30 635 H 55.4957 -1.60346 5.28198 0
M  V30 636 H 57.9717 -2.28287 3.47885 0
M  V30 637 H 56.8477 -3.3729 4.33044 0
M  V30 638 H 57.1087 -3.57212 2.60484 0
M  V30 639 N 56.1678 -1.49265 -0.50573 0
M  V30 640 C 57.4138 -1.58748 -1.26202 0
M  V30 641 C 57.7468 -0.271227 -1.92297 0
M  V30 642 O 57.0218 0.724831 -1.80489 0
M  V30 643 C 57.3048 -2.74332 -2.33268 0
M  V30 644 C 57.1578 -4.15737 -1.71705 0
M  V30 645 C 58.4768 -2.85576 -3.34865 0
M  V30 646 H 55.5958 -0.577826 -0.457478 0
M  V30 647 H 58.2378 -1.81532 -0.560897 0
M  V30 648 H 56.3878 -2.55036 -2.93068 0
M  V30 649 H 58.0598 -4.46537 -1.15769 0
M  V30 650 H 56.3028 -4.21605 -1.02135 0
M  V30 651 H 56.9738 -4.92477 -2.49341 0
M  V30 652 H 59.4498 -3.03127 -2.8505 0
M  V30 653 H 58.3258 -3.68135 -4.07146 0
M  V30 654 H 58.5868 -1.94732 -3.96903 0
M  V30 655 N 57.6459 0.756429 -1.3826 0
M  V30 656 C 58.8929 1.51547 -1.34312 0
M  V30 657 C 59.2209 1.94382 0.0677144 0
M  V30 658 O 58.4759 1.65514 1.04421 0
M  V30 659 C 58.7749 2.78313 -2.24224 0
M  V30 660 C 58.4409 2.54455 -3.72241 0
M  V30 661 C 57.1029 2.47657 -4.12576 0
M  V30 662 C 59.4549 2.3354 -4.65949 0
M  V30 663 C 56.7829 2.17956 -5.44713 0
M  V30 664 C 59.1349 2.05359 -5.9834 0
M  V30 665 C 57.7989 1.97016 -6.37762 0
M  V30 666 H 57.0689 0.55455 -0.491482 0
M  V30 667 H 59.7159 0.870039 -1.70595 0
M  V30 668 H 58.0209 3.47492 -1.80987 0
M  V30 669 H 59.7179 3.36259 -2.18474 0
M  V30 670 H 56.3079 2.60616 -3.40261 0
M  V30 671 H 60.4919 2.37772 -4.35635 0
M  V30 672 H 55.7479 2.10003 -5.74203 0
M  V30 673 H 59.9219 1.88179 -6.70494 0
M  V30 674 H 57.5489 1.73766 -7.40074 0
M  V30 675 N 59.124 1.23083 0.984299 0
M  V30 676 C 60.034 1.02515 2.11016 0
M  V30 677 C 61.05 -0.0291702 1.73976 0
M  V30 678 O 62.226 0.165434 2.00719 0
M  V30 679 C 59.291 0.614673 3.41208 0
M  V30 680 C 58.352 1.74359 3.92297 0
M  V30 681 C 57.585 1.35261 5.16275 0
M  V30 682 O 57.808 0.235136 5.69915 0
M  V30 683 O 56.742 2.17227 5.61334 0
M  V30 684 H 60.568 1.96862 2.31255 0
M  V30 685 H 58.153 1.01753 1.09392 0
M  V30 686 H 60.035 0.396518 4.1953 0
M  V30 687 H 58.71 -0.299851 3.22308 0
M  V30 688 H 57.617 2.01635 3.1511 0
M  V30 689 H 58.95 2.63629 4.15645 0
M  V30 690 N 60.6021 -1.18246 1.0419 0
M  V30 691 C 61.8501 -1.87886 0.744543 0
M  V30 692 C 62.1711 -1.8082 -0.730006 0
M  V30 693 O 61.4411 -1.22736 -1.52685 0
M  V30 694 H 60.0211 -0.695556 0.272417 0
M  V30 695 H 62.6831 -1.43494 1.31892 0
M  V30 696 H 61.7791 -2.9389 1.05049 0
M  V30 697 N 62.0802 -0.821533 -1.34494 0
M  V30 698 C 63.3052 -0.420873 -2.03085 0
M  V30 699 C 63.7302 0.964915 -1.61465 0
M  V30 700 O 63.0882 1.62763 -0.798607 0
M  V30 701 C 63.1362 -0.529414 -3.56693 0
M  V30 702 O 62.2402 0.451302 -4.09923 0
M  V30 703 H 61.5812 -0.173489 -0.640935 0
M  V30 704 H 64.1112 -1.11157 -1.71771 0
M  V30 705 H 64.1212 -0.404671 -4.05988 0
M  V30 706 H 62.7962 -1.54014 -3.86332 0
M  V30 707 H 61.3732 0.285558 -3.71805 0
M  V30 708 N 63.5583 1.46682 -0.576371 0
M  V30 709 C 64.5213 2.28707 0.150239 0
M  V30 710 C 65.5213 1.38035 0.824794 0
M  V30 711 O 66.7113 1.60476 0.677719 0
M  V30 712 C 63.8433 3.18248 1.22192 0
M  V30 713 H 65.0363 2.94423 -0.570521 0
M  V30 714 H 62.5893 1.52688 -0.334078 0
M  V30 715 H 63.3243 2.57265 1.97447 0
M  V30 716 H 63.1093 3.85 0.742812 0
M  V30 717 H 64.5993 3.80001 1.73172 0
M  V30 718 N 65.0364 0.313813 1.54444 0
M  V30 719 C 66.2664 -0.293491 2.04505 0
M  V30 720 C 66.6744 -1.47086 1.19005 0
M  V30 721 O 66.0174 -1.82481 0.211257 0
M  V30 722 C 66.0794 -0.800455 3.50475 0
M  V30 723 C 65.7434 0.253322 4.56297 0
M  V30 724 C 66.7404 1.08612 5.08428 0
M  V30 725 C 64.4254 0.398708 5.00715 0
M  V30 726 C 66.4194 2.05013 6.0353 0
M  V30 727 C 64.1064 1.36614 5.95634 0
M  V30 728 C 65.1044 2.19033 6.46926 0
M  V30 729 O 64.7924 3.14134 7.39983 0
M  V30 730 H 64.5244 -0.0658325 0.672787 0
M  V30 731 H 67.0784 0.455177 2.00293 0
M  V30 732 H 65.3084 -1.59987 3.52053 0
M  V30 733 H 66.9974 -1.32504 3.83663 0
M  V30 734 H 67.7634 0.984736 4.74898 0
M  V30 735 H 63.6424 -0.23289 4.60411 0
M  V30 736 H 67.1864 2.69382 6.4349 0
M  V30 737 H 63.0834 1.4682 6.28581 0
M  V30 738 H 63.8514 3.0926 7.57826 0
M  V30 739 N 66.5145 -1.57545 0.0417849 0
M  V30 740 C 67.7625 -1.91937 -0.632829 0
M  V30 741 C 68.0835 -0.919978 -1.71934 0
M  V30 742 O 67.3535 0.0366064 -1.95866 0
M  V30 743 H 65.9335 -0.708493 -0.236742 0
M  V30 744 H 68.5955 -1.9468 0.0925745 0
M  V30 745 H 67.6915 -2.92912 -1.07746 0
M  V30 746 N 67.9926 0.231505 -1.5589 0
M  V30 747 C 68.9226 1.29022 -1.94617 0
M  V30 748 C 69.9036 1.4941 -0.813067 0
M  V30 749 O 71.0886 1.6176 -1.07459 0
M  V30 750 C 68.2186 2.64199 -2.25424 0
M  V30 751 C 67.1726 2.58484 -3.41131 0
M  V30 752 C 66.4986 3.97599 -3.57518 0
M  V30 753 C 67.7986 2.1413 -4.76388 0
M  V30 754 H 69.4926 0.968563 -2.83301 0
M  V30 755 H 67.0386 0.464479 -1.36303 0
M  V30 756 H 68.9916 3.38413 -2.51107 0
M  V30 757 H 67.7156 2.98032 -1.33583 0
M  V30 758 H 66.3746 1.86727 -3.15481 0
M  V30 759 H 66.0226 4.28723 -2.6307 0
M  V30 760 H 65.7226 3.94659 -4.35337 0
M  V30 761 H 67.2466 4.7349 -3.85538 0
M  V30 762 H 68.6606 2.78083 -5.01341 0
M  V30 763 H 67.0576 2.2227 -5.57419 0
M  V30 764 H 68.1276 1.09331 -4.72414 0
M  V30 765 N 69.4707 1.49531 0.497807 0
M  V30 766 C 70.4027 1.62559 1.61578 0
M  V30 767 C 71.4157 0.508134 1.54667 0
M  V30 768 O 72.6047 0.780309 1.60541 0
M  V30 769 C 69.7047 1.56925 3.00379 0
M  V30 770 C 68.8777 2.84257 3.3244 0
M  V30 771 C 67.9367 2.71632 4.50669 0
M  V30 772 O 66.9627 3.4557 4.52294 0
M  V30 773 N 68.1647 1.83391 5.5077 0
M  V30 774 H 70.9297 2.58981 1.50828 0
M  V30 775 H 68.4907 1.4666 0.685743 0
M  V30 776 H 70.4827 1.46129 3.77397 0
M  V30 777 H 69.0527 0.683483 3.05037 0
M  V30 778 H 68.2727 3.09381 2.44289 0
M  V30 779 H 69.5607 3.68666 3.5066 0
M  V30 780 H 68.9587 1.22583 5.52259 0
M  V30 781 H 67.5157 1.78515 6.26878 0
M  V30 782 N 70.9488 -0.749086 1.3866 0
M  V30 783 C 71.8968 -1.88428 1.36373 0
M  V30 784 C 72.8908 -1.67561 0.248929 0
M  V30 785 O 74.0968 -1.75074 0.41821 0
M  V30 786 H 70.4718 -0.620023 0.42553 0
M  V30 787 H 72.4428 -1.87473 2.32156 0
M  V30 788 C 71.1918 -3.25961 1.21014 0
M  V30 789 H 70.5148 -3.42607 2.06059 0
M  V30 790 H 71.9548 -4.05625 1.23469 0
M  V30 791 C 70.4138 -3.36799 -0.0825941 0
M  V30 792 O 70.9438 -3.87517 -1.05797 0
M  V30 793 N 69.1498 -2.90258 -0.140939 0
M  V30 794 H 68.6968 -2.49174 0.653477 0
M  V30 795 H 68.6548 -2.97889 -1.00545 0
M  V30 796 N 72.4269 -1.23603 -0.977757 0
M  V30 797 C 73.6739 -1.06971 -1.71941 0
M  V30 798 C 74.0019 0.393009 -1.90488 0
M  V30 799 O 73.2569 1.30719 -1.4564 0
M  V30 800 C 73.5559 -1.7433 -3.11999 0
M  V30 801 C 73.2219 -3.24252 -3.13323 0
M  V30 802 C 71.8839 -3.65156 -3.13392 0
M  V30 803 C 74.2359 -4.20141 -3.08433 0
M  V30 804 C 71.5639 -5.00403 -3.0629 0
M  V30 805 C 73.9159 -5.55384 -3.02873 0
M  V30 806 C 72.5799 -5.95647 -3.01265 0
M  V30 807 H 71.8499 -0.391433 -0.629175 0
M  V30 808 H 74.4969 -1.53572 -1.14403 0
M  V30 809 H 72.8019 -1.20096 -3.7294 0
M  V30 810 H 74.4989 -1.58936 -3.68158 0
M  V30 811 H 71.0889 -2.91692 -3.14029 0
M  V30 812 H 75.2729 -3.89547 -3.07517 0
M  V30 813 H 70.5289 -5.3081 -3.03399 0
M  V30 814 H 74.7029 -6.29398 -2.98046 0
M  V30 815 H 72.3299 -7.0041 -2.95516 0
M  V30 816 N 73.905 1.17692 -1.04816 0
M  V30 817 C 74.853 2.23632 -0.63966 0
M  V30 818 C 75.847 1.6601 0.337219 0
M  V30 819 O 77.053 1.78844 0.203693 0
M  V30 820 H 73.428 0.727949 -0.188665 0
M  V30 821 H 75.399 2.55387 -1.54337 0
M  V30 822 C 74.148 3.4769 -0.0264051 0
M  V30 823 H 73.471 3.92331 -0.769164 0
M  V30 824 H 74.911 4.23418 0.222098 0
M  V30 825 C 73.37 3.13807 1.22584 0
M  V30 826 O 73.9 3.28236 2.31569 0
M  V30 827 N 72.106 2.68065 1.12202 0
M  V30 828 H 71.653 2.56525 0.235133 0
M  V30 829 H 71.611 2.45767 1.96076 0
M  V30 830 N 75.3831 0.828654 1.34056 0
M  V30 831 C 76.3301 0.252567 2.29414 0
M  V30 832 C 77.3001 -0.62588 1.53857 0
M  V30 833 O 78.4851 -0.566312 1.82202 0
M  V30 834 C 75.6251 -0.574831 3.40279 0
M  V30 835 C 74.7381 0.326499 4.30764 0
M  V30 836 C 73.8731 -0.511016 5.28736 0
M  V30 837 C 72.9121 0.389342 6.1086 0
M  V30 838 N 72.0491 -0.409439 7.00905 0
M  V30 839 H 76.8891 1.07108 2.78086 0
M  V30 840 H 74.4261 0.539677 1.36843 0
M  V30 841 H 76.3841 -1.06992 4.03248 0
M  V30 842 H 75.0141 -1.35841 2.92826 0
M  V30 843 H 74.0661 0.939837 3.68607 0
M  V30 844 H 75.3781 1.01857 4.88289 0
M  V30 845 H 74.5321 -1.07035 5.97184 0
M  V30 846 H 73.2711 -1.23657 4.71763 0
M  V30 847 H 72.2761 0.960769 5.4134 0
M  V30 848 H 73.5011 1.1131 6.69916 0
M  V30 849 H 71.4471 -1.11856 6.46393 0
M  V30 850 H 71.3641 0.224126 7.55668 0
M  V30 851 H 72.6321 -0.951336 7.73673 0
M  V30 852 N 76.8612 -1.46375 0.584142 0
M  V30 853 C 77.7932 -2.28443 -0.186119 0
M  V30 854 C 78.8062 -1.38596 -0.854115 0
M  V30 855 O 79.9952 -1.63183 -0.723438 0
M  V30 856 C 77.0952 -3.13671 -1.28311 0
M  V30 857 C 76.2682 -4.31652 -0.706758 0
M  V30 858 C 75.3272 -4.98267 -1.69163 0
M  V30 859 O 74.3532 -5.55815 -1.22712 0
M  V30 860 N 75.5552 -4.95408 -3.02575 0
M  V30 861 H 78.3202 -2.9519 0.517986 0
M  V30 862 H 75.8812 -1.56303 0.42201 0
M  V30 863 H 77.8732 -3.55101 -1.94128 0
M  V30 864 H 76.4432 -2.48989 -1.89005 0
M  V30 865 H 75.6632 -3.93989 0.128908 0
M  V30 866 H 76.9512 -5.07906 -0.301506 0
M  V30 867 H 76.3492 -4.49902 -3.42936 0
M  V30 868 H 74.9062 -5.40774 -3.63877 0
M  V30 869 N 78.3393 -0.321999 -1.54275 0
M  V30 870 C 79.2863 0.544664 -2.24281 0
M  V30 871 C 80.2563 1.1129 -1.23303 0
M  V30 872 O 81.4413 1.15354 -1.51981 0
M  V30 873 C 78.5813 1.70045 -3.00298 0
M  V30 874 C 77.6943 1.16159 -4.1609 0
M  V30 875 C 76.8293 2.28293 -4.79641 0
M  V30 876 C 75.8683 1.71648 -5.8754 0
M  V30 877 N 75.0053 2.77438 -6.44959 0
M  V30 878 H 79.8453 -0.0588907 -2.97942 0
M  V30 879 H 77.3823 -0.0408345 -1.47043 0
M  V30 880 H 79.3403 2.38054 -3.42616 0
M  V30 881 H 77.9703 2.27531 -2.28975 0
M  V30 882 H 77.0223 0.373092 -3.78566 0
M  V30 883 H 78.3343 0.707087 -4.93763 0
M  V30 884 H 77.4883 3.0421 -5.2492 0
M  V30 885 H 76.2273 2.77079 -4.01346 0
M  V30 886 H 75.2323 0.942282 -5.41665 0
M  V30 887 H 76.4573 1.23741 -6.67731 0
M  V30 888 H 74.4033 3.25519 -5.69538 0
M  V30 889 H 74.3203 2.36547 -7.1804 0
M  V30 890 H 75.5883 3.53189 -6.94894 0
M  V30 891 N 79.8174 1.5752 -0.0501392 0
M  V30 892 C 80.7644 2.1147 0.924603 0
M  V30 893 C 81.7344 1.02182 1.30951 0
M  V30 894 O 82.9194 1.29723 1.39916 0
M  V30 895 C 80.0594 2.66337 2.19451 0
M  V30 896 C 79.1724 3.89708 1.86418 0
M  V30 897 C 78.3074 4.32893 3.07859 0
M  V30 898 C 77.3464 5.48967 2.70742 0
M  V30 899 N 76.4834 5.87211 3.84874 0
M  V30 900 H 81.3234 2.94465 0.457639 0
M  V30 901 H 78.8604 1.45531 0.214266 0
M  V30 902 H 80.8184 2.96247 2.93758 0
M  V30 903 H 79.4484 1.86141 2.63726 0
M  V30 904 H 78.5004 3.66396 1.02264 0
M  V30 905 H 79.8124 4.74074 1.55096 0
M  V30 906 H 78.9664 4.6435 3.90466 0
M  V30 907 H 77.7054 3.47336 3.42358 0
M  V30 908 H 76.7104 5.17183 1.86551 0
M  V30 909 H 77.9354 6.3624 2.37436 0
M  V30 910 H 75.8814 5.04607 4.19175 0
M  V30 911 H 75.7984 6.66266 3.57247 0
M  V30 912 H 77.0664 6.23282 4.68123 0
M  V30 913 N 81.2955 -0.223234 1.56011 0
M  V30 914 C 82.2255 -1.27988 1.95298 0
M  V30 915 C 83.2065 -1.48976 0.820979 0
M  V30 916 O 84.3915 -1.61188 1.08315 0
M  V30 917 C 81.5215 -2.63 2.26822 0
M  V30 918 C 80.4755 -2.56671 3.42497 0
M  V30 919 C 79.8015 -3.95697 3.59622 0
M  V30 920 C 81.1015 -2.11601 4.77517 0
M  V30 921 H 82.7955 -0.953525 2.8381 0
M  V30 922 H 80.3415 -0.457244 1.36548 0
M  V30 923 H 82.2945 -3.37077 2.52898 0
M  V30 924 H 81.0185 -2.9732 1.35161 0
M  V30 925 H 79.6775 -1.85051 3.16467 0
M  V30 926 H 79.3255 -4.27322 2.6534 0
M  V30 927 H 79.0255 -3.92345 4.37424 0
M  V30 928 H 80.5495 -4.71438 3.88044 0
M  V30 929 H 81.9635 -2.7542 5.02809 0
M  V30 930 H 80.3605 -2.19311 5.5859 0
M  V30 931 H 81.4305 -1.06824 4.72987 0
M  V30 932 N 82.7736 -1.49793 -0.48987 0
M  V30 933 C 83.7206 -1.67281 -1.59014 0
M  V30 934 C 84.6906 -0.514177 -1.57941 0
M  V30 935 O 85.8756 -0.742533 -1.75759 0
M  V30 936 C 83.0156 -1.75569 -2.97102 0
M  V30 937 C 82.1286 -3.0281 -3.08107 0
M  V30 938 C 81.2636 -3.02008 -4.36995 0
M  V30 939 C 80.3026 -4.23782 -4.41673 0
M  V30 940 N 79.4396 -4.20826 -5.62005 0
M  V30 941 H 84.2796 -2.61224 -1.43409 0
M  V30 942 H 81.8166 -1.29508 -0.697565 0
M  V30 943 H 83.7746 -1.78354 -3.77155 0
M  V30 944 H 82.4046 -0.850827 -3.11385 0
M  V30 945 H 81.4566 -3.09584 -2.21047 0
M  V30 946 H 82.7686 -3.92801 -3.07423 0
M  V30 947 H 81.9226 -3.03418 -5.25378 0
M  V30 948 H 80.6616 -2.09815 -4.4026 0
M  V30 949 H 79.6666 -4.22604 -3.5169 0
M  V30 950 H 80.8916 -5.17181 -4.40115 0
M  V30 951 H 78.8376 -3.31476 -5.66091 0
M  V30 952 H 78.7546 -5.04564 -5.62984 0
M  V30 953 H 80.0226 -4.26355 -6.52565 0
M  V30 954 N 84.2517 0.741722 -1.39055 0
M  V30 955 C 85.6677 1.04638 -1.20512 0
M  V30 956 C 85.8677 2.01405 -0.0620218 0
M  V30 957 O 84.9237 2.45547 0.588457 0
M  V30 958 C 86.2367 1.6151 -2.53643 0
M  V30 959 C 87.7847 1.73623 -2.6043 0
M  V30 960 C 88.2597 2.33906 -3.93767 0
M  V30 961 N 89.7507 2.41323 -3.9537 0
M  V30 962 C 90.4857 2.88888 -4.95309 0
M  V30 963 N 89.9817 3.36401 -6.05645 0
M  V30 964 N 91.7747 2.88037 -4.82692 0
M  V30 965 H 83.9257 0.0998155 -2.12165 0
M  V30 966 H 86.1887 0.106907 -0.941953 0
M  V30 967 H 85.8947 0.978739 -3.37807 0
M  V30 968 H 85.7687 2.60411 -2.72885 0
M  V30 969 H 88.1557 2.36384 -1.76655 0
M  V30 970 H 88.2367 0.733945 -2.45045 0
M  V30 971 H 87.8807 1.71776 -4.7797 0
M  V30 972 H 87.8107 3.34799 -4.06469 0
M  V30 973 H 90.3017 2.07734 -3.15682 0
M  V30 974 H 90.6147 3.71186 -6.77821 0
M  V30 975 H 88.9597 3.34427 -6.09248 0
M  V30 976 H 92.1507 2.50237 -3.95599 0
M  V30 977 H 92.3237 3.24792 -5.60726 0
M  V30 978 N 85.7298 1.2412 0.971189 0
M  V30 979 C 86.9698 1.09066 1.7287 0
M  V30 980 C 87.3338 -0.364794 1.88503 0
M  V30 981 O 88.5348 -0.636748 2.61149 0
M  V30 982 C 86.8058 1.80629 3.08396 0
M  V30 983 S 88.3648 1.81263 3.99611 0
M  V30 984 H 85.1828 0.390145 0.594397 0
M  V30 985 H 87.7848 1.57397 1.15959 0
M  V30 986 H 86.4888 2.85647 2.94676 0
M  V30 987 H 86.0198 1.32617 3.70373 0
M  V30 988 H 88.0348 0.877804 4.88374 0
M  V30 989 N 87.2079 -1.17134 1.05439 0
M  V30 990 C 88.4849 -1.83411 0.679699 0
M  V30 991 C 88.8649 -1.9368 -0.839726 0
M  V30 992 O 88.2129 -1.47325 -1.74664 0
M  V30 993 C 88.4229 -3.20918 1.37159 0
M  V30 994 C 89.7709 -3.96796 1.51123 0
M  V30 995 O 90.7949 -3.30406 1.3308 0
M  V30 996 O 89.6539 -5.15778 1.80651 0
M  V30 997 H 86.7479 -0.79154 0.239569 0
M  V30 998 H 89.2939 -1.24411 1.15413 0
M  V30 999 H 88.0659 -3.08428 2.40807 0
M  V30 1000 H 87.6889 -3.87587 0.886674 0
M  V30 1001 N 88.686 -0.835752 -1.33615 0
M  V30 1002 C 89.963 -0.352017 -1.92406 0
M  V30 1003 C 90.343 1.16225 -1.76224 0
M  V30 1004 O 89.691 1.97526 -1.14873 0
M  V30 1005 C 89.901 -0.795485 -3.39813 0
M  V30 1006 C 91.249 -0.801703 -4.16963 0
M  V30 1007 O 92.273 -0.738889 -3.48452 0
M  V30 1008 O 91.132 -0.886607 -5.3926 0
M  V30 1009 H 88.226 -0.0989641 -0.821057 0
M  V30 1010 H 90.772 -0.921397 -1.42507 0
M  V30 1011 H 89.544 -1.83795 -3.45449 0
M  V30 1012 H 89.167 -0.202505 -3.97084 0
M  V30 1013 N 90.1641 1.46063 -0.591896 0
M  V30 1014 C 91.0971 2.27452 0.184617 0
M  V30 1015 C 92.0751 1.36188 0.888351 0
M  V30 1016 O 93.2591 1.65606 0.90039 0
M  V30 1017 C 90.3861 3.14162 1.26571 0
M  V30 1018 C 89.4321 4.21255 0.666814 0
M  V30 1019 S 90.2651 5.33034 -0.513345 0
M  V30 1020 C 91.4211 6.23311 0.56872 0
M  V30 1021 H 91.6541 2.92963 -0.505939 0
M  V30 1022 H 89.1871 1.49676 -0.379014 0
M  V30 1023 H 91.1451 3.6468 1.88463 0
M  V30 1024 H 89.8061 2.47946 1.92826 0
M  V30 1025 H 88.9991 4.81788 1.47974 0
M  V30 1026 H 88.6011 3.73797 0.123359 0
M  V30 1027 H 90.8931 6.61758 1.45198 0
M  V30 1028 H 91.8361 7.081 -7.23824e-05 0
M  V30 1029 H 92.2441 5.57646 0.876996 0
M  V30 1030 N 91.6422 0.330177 1.54103 0
M  V30 1031 C 92.9192 -0.325007 1.92881 0
M  V30 1032 C 93.2992 -1.6934 1.26045 0
M  V30 1033 O 92.6472 -2.24855 0.406526 0
M  V30 1034 C 92.8572 -0.410634 3.46576 0
M  V30 1035 C 94.2052 -0.667801 4.19316 0
M  V30 1036 O 95.2292 -0.49329 3.52768 0
M  V30 1037 O 94.0882 -1.00491 5.37181 0
M  V30 1038 H 91.1822 -0.186873 0.80561 0
M  V30 1039 H 93.7282 0.380376 1.65382 0
M  V30 1040 H 92.5002 0.550164 3.87413 0
M  V30 1041 H 92.1232 -1.16333 3.802 0
M  V30 1042 N 93.1203 -1.57491 0.0584922 0
M  V30 1043 C 94.3483 -1.97296 -0.623037 0
M  V30 1044 C 94.7633 -0.936338 -1.63946 0
M  V30 1045 O 94.1203 0.0785981 -1.82331 0
M  V30 1046 C 94.1713 -3.37183 -1.30345 0
M  V30 1047 O 93.8923 -4.36872 -0.32773 0
M  V30 1048 C 95.3933 -3.91788 -2.07406 0
M  V30 1049 H 92.6133 -0.649153 -0.169826 0
M  V30 1050 H 95.1573 -2.04106 0.12696 0
M  V30 1051 H 93.3123 -3.31502 -2.00463 0
M  V30 1052 H 93.7263 -5.18141 -0.814269 0
M  V30 1053 H 95.2003 -4.91926 -2.50425 0
M  V30 1054 H 95.6773 -3.27609 -2.92521 0
M  V30 1055 H 96.2833 -4.00829 -1.42184 0
M  V30 1056 N 94.5984 0.214957 -1.56127 0
M  V30 1057 C 95.8454 0.938372 -1.79446 0
M  V30 1058 C 96.1734 1.8407 -0.628378 0
M  V30 1059 O 95.4284 1.91837 0.386925 0
M  V30 1060 C 95.7274 1.80314 -3.0858 0
M  V30 1061 C 95.3934 1.05349 -4.3842 0
M  V30 1062 C 94.0554 0.846435 -4.73697 0
M  V30 1063 C 96.4074 0.524588 -5.18553 0
M  V30 1064 C 93.7354 0.098683 -5.86617 0
M  V30 1065 C 96.0874 -0.209853 -6.32252 0
M  V30 1066 C 94.7514 -0.428102 -6.66126 0
M  V30 1067 H 94.0214 0.343375 -0.656639 0
M  V30 1068 H 96.6684 0.206077 -1.90388 0
M  V30 1069 H 94.9734 2.6035 -2.92789 0
M  V30 1070 H 96.6704 2.36513 -3.23825 0
M  V30 1071 H 93.2604 1.22486 -4.10725 0
M  V30 1072 H 97.4444 0.672008 -4.91729 0
M  V30 1073 H 92.7004 -0.0805753 -6.11347 0
M  V30 1074 H 96.8744 -0.627157 -6.9357 0
M  V30 1075 H 94.5014 -1.00944 -7.53468 0
M  V30 1076 N 96.0765 1.50051 0.48192 0
M  V30 1077 C 97.3235 1.60498 1.23477 0
M  V30 1078 C 97.6515 0.300331 1.92167 0
M  V30 1079 O 96.9065 -0.713094 1.82246 0
M  V30 1080 C 97.2055 2.72717 2.30998 0
M  V30 1081 C 96.8715 4.13572 1.79636 0
M  V30 1082 C 95.5335 4.519 1.65348 0
M  V30 1083 C 97.8855 5.01649 1.41412 0
M  V30 1084 C 95.2135 5.76057 1.11244 0
M  V30 1085 C 97.5655 6.26343 0.887538 0
M  V30 1086 C 96.2295 6.63483 0.731207 0
M  V30 1087 H 95.4995 0.587303 0.451836 0
M  V30 1088 H 98.1465 1.83948 0.532468 0
M  V30 1089 H 96.4515 2.43312 3.07094 0
M  V30 1090 H 98.1485 2.78006 2.88988 0
M  V30 1091 H 94.7385 3.83329 1.91721 0
M  V30 1092 H 98.9225 4.72679 1.51289 0
M  V30 1093 H 94.1785 6.03516 0.978686 0
M  V30 1094 H 98.3525 6.93958 0.582654 0
M  V30 1095 H 95.9795 7.59568 0.309806 0
M  V30 1096 N 97.5546 -0.734337 1.39446 0
M  V30 1097 C 98.4846 -1.86155 1.40955 0
M  V30 1098 C 99.4656 -1.67898 0.272827 0
M  V30 1099 O 100.651 -1.88207 0.478743 0
M  V30 1100 C 97.7806 -3.23912 1.25294 0
M  V30 1101 C 96.7346 -3.56808 2.36373 0
M  V30 1102 C 96.0606 -4.93508 2.058 0
M  V30 1103 C 97.3606 -3.59713 3.78687 0
M  V30 1104 H 99.0546 -1.8515 2.35287 0
M  V30 1105 H 96.6006 -0.889367 1.13253 0
M  V30 1106 H 98.5536 -4.02443 1.2497 0
M  V30 1107 H 97.2776 -3.25446 0.274308 0
M  V30 1108 H 95.9366 -2.80606 2.35914 0
M  V30 1109 H 95.5846 -4.91623 1.06374 0
M  V30 1110 H 95.2846 -5.16486 2.80208 0
M  V30 1111 H 96.8086 -5.74396 2.07128 0
M  V30 1112 H 98.2226 -4.2832 3.81071 0
M  V30 1113 H 96.6196 -3.94209 4.52459 0
M  V30 1114 H 97.6896 -2.59504 4.09617 0
M  V30 1115 N 99.0327 -1.24633 -0.964593 0
M  V30 1116 C 99.9827 -1.00841 -2.04487 0
M  V30 1117 C 100.967 0.0512468 -1.60818 0
M  V30 1118 O 102.159 -0.162865 -1.76249 0
M  V30 1119 C 99.2877 -0.618474 -3.37683 0
M  V30 1120 C 98.3737 -1.71437 -3.87905 0
M  V30 1121 N 98.7647 -2.9477 -4.11029 0
M  V30 1122 C 97.0627 -1.5926 -4.16596 0
M  V30 1123 C 97.7637 -3.65834 -4.52261 0
M  V30 1124 N 96.7397 -2.9341 -4.57615 0
M  V30 1125 H 100.542 -1.94487 -2.20345 0
M  V30 1126 H 98.0557 -1.14805 -1.14863 0
M  V30 1127 H 100.053 -0.429247 -4.14684 0
M  V30 1128 H 98.7127 0.310766 -3.23209 0
M  V30 1129 H 99.7237 -3.30917 -3.9839 0
M  V30 1130 H 96.4007 -0.731606 -4.1104 0
M  V30 1131 H 97.7907 -4.71646 -4.78539 0
M  V30 1132 N 100.511 1.16574 -1.06058 0
M  V30 1133 C 101.741 1.90675 -0.795397 0
M  V30 1134 C 102.149 1.77547 0.653735 0
M  V30 1135 O 101.492 1.11611 1.45907 0
M  V30 1136 C 101.554 3.42011 -1.10764 0
M  V30 1137 C 101.218 3.78924 -2.55471 0
M  V30 1138 C 102.215 3.81042 -3.53699 0
M  V30 1139 C 99.8998 4.09626 -2.90708 0
M  V30 1140 C 101.894 4.13346 -4.85205 0
M  V30 1141 C 99.5808 4.41597 -4.22416 0
M  V30 1142 C 100.579 4.43436 -5.19474 0
M  V30 1143 O 100.267 4.74649 -6.48817 0
M  V30 1144 H 99.9988 0.611554 -0.288058 0
M  V30 1145 H 102.553 1.48711 -1.41683 0
M  V30 1146 H 100.783 3.84312 -0.429128 0
M  V30 1147 H 102.472 3.97384 -0.827077 0
M  V30 1148 H 103.238 3.57437 -3.27817 0
M  V30 1149 H 99.1168 4.07361 -2.15819 0
M  V30 1150 H 102.661 4.14696 -5.60957 0
M  V30 1151 H 98.5578 4.64667 -4.48056 0
M  V30 1152 H 99.3258 4.9247 -6.5377 0
M  V30 1153 N 101.989 0.842826 1.3317 0
M  V30 1154 C 102.952 0.284065 2.27433 0
M  V30 1155 C 103.952 -0.54948 1.5112 0
M  V30 1156 O 105.142 -0.362699 1.70382 0
M  V30 1157 C 102.274 -0.599384 3.35589 0
M  V30 1158 H 103.467 1.11589 2.78366 0
M  V30 1159 H 101.02 0.616221 1.4364 0
M  V30 1160 H 101.755 -1.45349 2.89904 0
M  V30 1161 H 101.54 -0.00291266 3.921 0
M  V30 1162 H 103.03 -0.983488 4.05854 0
M  V30 1163 N 103.467 -1.45747 0.599634 0
M  V30 1164 C 104.43 -2.28917 -0.113835 0
M  V30 1165 C 105.43 -1.3933 -0.802729 0
M  V30 1166 O 106.62 -1.61534 -0.652103 0
M  V30 1167 C 103.752 -3.20152 -1.17114 0
M  V30 1168 H 104.945 -2.93478 0.617289 0
M  V30 1169 H 102.498 -1.52137 0.358327 0
M  V30 1170 H 103.233 -2.60374 -1.93329 0
M  V30 1171 H 103.018 -3.86133 -0.681468 0
M  V30 1172 H 104.508 -3.82708 -1.67105 0
M  V30 1173 N 104.945 -0.338344 -1.53925 0
M  V30 1174 C 105.908 0.508299 -2.23493 0
M  V30 1175 C 106.908 1.03175 -1.23335 0
M  V30 1176 O 108.098 0.921826 -1.47811 0
M  V30 1177 C 105.23 1.70754 -2.95052 0
M  V30 1178 H 106.423 -0.100058 -2.99733 0
M  V30 1179 H 103.976 -0.0896198 -1.56043 0
M  V30 1180 H 104.711 2.35474 -2.22986 0
M  V30 1181 H 104.496 1.33946 -3.68512 0
M  V30 1182 H 105.986 2.30818 -3.48013 0
M  V30 1183 N 106.423 1.57458 -0.0668435 0
M  V30 1184 C 107.333 2.15937 0.916975 0
M  V30 1185 C 108.349 1.12123 1.33058 0
M  V30 1186 O 109.525 1.44366 1.40429 0
M  V30 1187 C 106.59 2.70547 2.16807 0
M  V30 1188 C 105.651 3.89215 1.81135 0
M  V30 1189 C 104.884 4.41211 3.0028 0
M  V30 1190 O 105.107 3.92225 4.14144 0
M  V30 1191 O 104.041 5.32605 2.80384 0
M  V30 1192 H 107.867 3.00354 0.449561 0
M  V30 1193 H 105.452 1.48584 0.155949 0
M  V30 1194 H 107.334 3.0557 2.90181 0
M  V30 1195 H 106.009 1.89192 2.62656 0
M  V30 1196 H 104.916 3.59054 1.05028 0
M  V30 1197 H 106.249 4.71848 1.40073 0
M  V30 1198 N 107.901 -0.206675 1.56239 0
M  V30 1199 C 109.149 -0.927007 1.79586 0
M  V30 1200 C 109.47 -1.8427 0.637929 0
M  V30 1201 O 108.74 -1.92849 -0.344398 0
M  V30 1202 H 107.32 -0.345292 0.662407 0
M  V30 1203 H 109.982 -0.21496 1.93711 0
M  V30 1204 H 109.078 -1.52501 2.72305 0
M  V30 1205 N 109.379 -1.50304 -0.473955 0
M  V30 1206 C 110.311 -1.65109 -1.58971 0
M  V30 1207 C 111.324 -0.532676 -1.53839 0
M  V30 1208 O 112.513 -0.805751 -1.59279 0
M  V30 1209 C 109.613 -1.61684 -2.97845 0
M  V30 1210 C 108.786 -2.8951 -3.27876 0
M  V30 1211 C 107.845 -2.78768 -4.4629 0
M  V30 1212 O 106.871 -3.52722 -4.46739 0
M  V30 1213 N 108.073 -1.9213 -5.47783 0
M  V30 1214 H 110.838 -2.61347 -1.46689 0
M  V30 1215 H 108.399 -1.47732 -0.662324 0
M  V30 1216 H 110.391 -1.52114 -3.75024 0
M  V30 1217 H 108.961 -0.731925 -3.03911 0
M  V30 1218 H 108.181 -3.13228 -2.39336 0
M  V30 1219 H 109.469 -3.74199 -3.4475 0
M  V30 1220 H 108.867 -1.31353 -5.50239 0
M  V30 1221 H 107.424 -1.88466 -6.23958 0
M  V30 1222 N 110.857 0.726932 -1.39834 0
M  V30 1223 C 112.106 1.48214 -1.36805 0
M  V30 1224 C 112.419 1.95576 0.0305291 0
M  V30 1225 O 113.625 2.7088 0.183417 0
M  V30 1226 C 112.081 2.67854 -2.40379 0
M  V30 1227 C 111.689 2.27408 -3.85992 0
M  V30 1228 C 113.433 3.45641 -2.46439 0
M  V30 1229 C 111.34 3.43819 -4.81189 0
M  V30 1230 H 110.27 0.556606 -0.508631 0
M  V30 1231 H 112.921 0.792216 -1.65518 0
M  V30 1232 H 111.303 3.3896 -2.04749 0
M  V30 1233 H 112.477 1.63795 -4.30706 0
M  V30 1234 H 110.792 1.62692 -3.83302 0
M  V30 1235 H 113.389 4.32244 -3.14753 0
M  V30 1236 H 113.732 3.88669 -1.49139 0
M  V30 1237 H 114.265 2.8157 -2.81004 0
M  V30 1238 H 111.004 3.05834 -5.79781 0
M  V30 1239 H 110.524 4.06385 -4.41148 0
M  V30 1240 H 112.203 4.10043 -5.00474 0
M  V30 1241 N 112.336 1.25143 0.95797 0
M  V30 1242 C 113.246 1.06968 2.08794 0
M  V30 1243 C 114.262 0.00773911 1.73998 0
M  V30 1244 O 115.438 0.207972 2.00323 0
M  V30 1245 C 112.503 0.68691 3.39827 0
M  V30 1246 C 111.564 1.82641 3.88511 0
M  V30 1247 C 110.797 1.46181 5.1329 0
M  V30 1248 O 111.02 0.355971 5.69288 0
M  V30 1249 O 109.954 2.29085 5.566 0
M  V30 1250 H 113.78 2.01723 2.27027 0
M  V30 1251 H 111.365 1.04051 1.07209 0
M  V30 1252 H 113.247 0.485417 4.18595 0
M  V30 1253 H 111.922 -0.231417 3.22872 0
M  V30 1254 H 110.829 2.08274 3.10762 0
M  V30 1255 H 112.162 2.72386 4.09959 0
M  V30 1256 N 113.814 -1.1601 1.06675 0
M  V30 1257 C 114.744 -2.22688 0.702307 0
M  V30 1258 C 115.725 -1.67306 -0.307032 0
M  V30 1259 O 116.91 -1.93352 -0.181305 0
M  V30 1260 C 114.04 -3.47178 0.092038 0
M  V30 1261 C 112.994 -4.15477 1.02777 0
M  V30 1262 C 112.32 -5.33963 0.28061 0
M  V30 1263 C 113.62 -4.66019 2.35846 0
M  V30 1264 H 115.314 -2.53429 1.59419 0
M  V30 1265 H 112.86 -1.21813 0.767961 0
M  V30 1266 H 114.813 -4.21037 -0.174814 0
M  V30 1267 H 113.537 -3.15749 -0.834877 0
M  V30 1268 H 112.196 -3.43549 1.27944 0
M  V30 1269 H 111.844 -4.98788 -0.649545 0
M  V30 1270 H 111.544 -5.806 0.904258 0
M  V30 1271 H 113.068 -6.10596 0.021396 0
M  V30 1272 H 114.482 -5.3144 2.15045 0
M  V30 1273 H 112.879 -5.23293 2.93743 0
M  V30 1274 H 113.949 -3.82023 2.98641 0
M  V30 1275 N 115.292 -0.849877 -1.32721 0
M  V30 1276 C 116.225 -0.235903 -2.26977 0
M  V30 1277 C 117.203 0.623355 -1.50177 0
M  V30 1278 O 118.387 0.581207 -1.79316 0
M  V30 1279 C 115.514 0.667712 -3.32053 0
M  V30 1280 C 114.56 -0.11753 -4.26338 0
M  V30 1281 S 115.393 -1.48277 -5.14562 0
M  V30 1282 C 116.549 -0.584741 -6.23163 0
M  V30 1283 H 116.782 -1.03495 -2.78704 0
M  V30 1284 H 114.315 -0.64724 -1.40179 0
M  V30 1285 H 116.273 1.18343 -3.93072 0
M  V30 1286 H 114.934 1.44052 -2.7912 0
M  V30 1287 H 114.127 0.57051 -5.00761 0
M  V30 1288 H 113.729 -0.564668 -3.69713 0
M  V30 1289 H 116.021 0.212968 -6.77165 0
M  V30 1290 H 116.964 -1.29947 -6.96074 0
M  V30 1291 H 117.372 -0.161202 -5.6427 0
M  V30 1292 N 116.77 1.45427 -0.607355 0
M  V30 1293 C 117.68 2.34325 0.113463 0
M  V30 1294 C 118.696 1.51226 0.860617 0
M  V30 1295 O 119.872 1.84029 0.818255 0
M  V30 1296 C 116.937 3.28839 1.09844 0
M  V30 1297 C 115.998 4.27844 0.353271 0
M  V30 1298 C 115.231 5.17842 1.29133 0
M  V30 1299 O 115.454 5.11264 2.52913 0
M  V30 1300 O 114.388 5.96713 0.788523 0
M  V30 1301 H 118.214 2.97364 -0.617094 0
M  V30 1302 H 115.799 1.44807 -0.367619 0
M  V30 1303 H 117.681 3.8708 1.66575 0
M  V30 1304 H 116.356 2.68365 1.81003 0
M  V30 1305 H 115.263 3.7322 -0.256494 0
M  V30 1306 H 116.596 4.91173 -0.317822 0
M  V30 1307 N 118.248 0.346503 1.53744 0
M  V30 1308 C 119.195 -0.508914 2.25119 0
M  V30 1309 C 120.165 -1.09315 1.25058 0
M  V30 1310 O 121.35 -1.12921 1.53797 0
M  V30 1311 C 118.49 -1.65246 3.02965 0
M  V30 1312 C 117.603 -1.09525 4.17886 0
M  V30 1313 C 116.738 -2.20634 4.83212 0
M  V30 1314 C 115.777 -1.62279 5.90196 0
M  V30 1315 N 114.914 -2.67143 6.49291 0
M  V30 1316 H 119.754 0.106283 2.9781 0
M  V30 1317 H 117.291 0.0642227 1.4696 0
M  V30 1318 H 119.249 -2.32574 3.4636 0
M  V30 1319 H 117.879 -2.2386 2.32565 0
M  V30 1320 H 116.931 -0.312818 3.79112 0
M  V30 1321 H 118.243 -0.628444 4.94825 0
M  V30 1322 H 117.397 -2.95821 5.29693 0
M  V30 1323 H 116.136 -2.70659 4.05703 0
M  V30 1324 H 115.141 -0.855989 5.43096 0
M  V30 1325 H 116.366 -1.13102 6.69615 0
M  V30 1326 H 114.312 -3.16417 5.74645 0
M  V30 1327 H 114.229 -2.25093 7.21713 0
M  V30 1328 H 115.497 -3.4209 7.00425 0
M  V30 1329 N 119.726 -1.57421 0.075193 0
M  V30 1330 C 120.975 -1.92794 -0.592731 0
M  V30 1331 C 121.288 -0.957478 -1.70563 0
M  V30 1332 O 122.494 -1.20417 -2.43335 0
M  V30 1333 C 120.95 -3.42495 -1.10569 0
M  V30 1334 C 120.558 -4.47994 -0.0236121 0
M  V30 1335 C 122.302 -3.86864 -1.74748 0
M  V30 1336 C 120.209 -5.88829 -0.550803 0
M  V30 1337 H 119.139 -0.719591 -0.225177 0
M  V30 1338 H 121.79 -1.82902 0.147978 0
M  V30 1339 H 120.172 -3.47471 -1.89947 0
M  V30 1340 H 121.346 -4.54637 0.751099 0
M  V30 1341 H 119.661 -4.13113 0.522159 0
M  V30 1342 H 122.258 -4.8947 -2.15229 0
M  V30 1343 H 122.601 -3.24417 -2.60882 0
M  V30 1344 H 123.134 -3.84504 -1.01986 0
M  V30 1345 H 119.873 -6.54929 0.273457 0
M  V30 1346 H 119.393 -5.85698 -1.29296 0
M  V30 1347 H 121.072 -6.38811 -1.02613 0
M  V30 1348 N 121.204 0.198386 -1.56346 0
M  V30 1349 C 122.432 0.935572 -1.84539 0
M  V30 1350 C 122.847 1.76989 -0.657281 0
M  V30 1351 O 122.204 1.78626 0.374043 0
M  V30 1352 C 122.255 1.8344 -3.11499 0
M  V30 1353 O 121.976 1.03377 -4.25728 0
M  V30 1354 C 123.477 2.68355 -3.52846 0
M  V30 1355 H 120.697 0.273126 -0.612897 0
M  V30 1356 H 123.241 0.20663 -2.03453 0
M  V30 1357 H 121.396 2.51701 -2.94492 0
M  V30 1358 H 121.81 1.64599 -4.98003 0
M  V30 1359 H 123.284 3.27085 -4.44657 0
M  V30 1360 H 123.761 3.41901 -2.75681 0
M  V30 1361 H 124.367 2.05471 -3.72373 0
M  V30 1362 N 122.682 1.50554 0.465978 0
M  V30 1363 C 124.098 1.38093 0.800154 0
M  V30 1364 C 124.298 0.440988 1.96615 0
M  V30 1365 O 123.354 -0.114499 2.5224 0
M  V30 1366 C 124.667 2.79565 1.10742 0
M  V30 1367 C 126.215 2.88516 1.21357 0
M  V30 1368 C 126.69 4.30833 1.55393 0
M  V30 1369 N 128.181 4.33807 1.62375 0
M  V30 1370 C 128.916 5.40927 1.90225 0
M  V30 1371 N 128.412 6.58247 2.16062 0
M  V30 1372 N 130.205 5.28376 1.9177 0
M  V30 1373 H 122.356 2.10237 -0.302366 0
M  V30 1374 H 124.619 0.945203 -0.0727746 0
M  V30 1375 H 124.325 3.50208 0.323661 0
M  V30 1376 H 124.199 3.17125 2.04234 0
M  V30 1377 H 126.586 2.1809 1.98799 0
M  V30 1378 H 126.667 2.54492 0.258321 0
M  V30 1379 H 126.311 5.01799 0.784889 0
M  V30 1380 H 126.241 4.62347 2.52076 0
M  V30 1381 H 128.732 3.49212 1.44427 0
M  V30 1382 H 129.045 7.3569 2.36601 0
M  V30 1383 H 127.39 6.61413 2.13444 0
M  V30 1384 H 130.581 4.35715 1.71085 0
M  V30 1385 H 130.754 6.11944 2.13139 0
M  V30 1386 N 124.16 -0.719506 1.40217 0
M  V30 1387 C 125.437 -1.47221 1.28784 0
M  V30 1388 C 125.817 -2.10883 -0.0956067 0
M  V30 1389 O 125.165 -1.99833 -1.10811 0
M  V30 1390 C 125.375 -2.5111 2.42373 0
M  V30 1391 C 126.723 -3.17053 2.82423 0
M  V30 1392 O 127.747 -2.61429 2.41937 0
M  V30 1393 O 126.606 -4.17742 3.52355 0
M  V30 1394 H 123.7 -0.654491 0.50554 0
M  V30 1395 H 126.246 -0.752014 1.52128 0
M  V30 1396 H 125.018 -2.02556 3.34793 0
M  V30 1397 H 124.641 -3.3067 2.20778 0
M  V30 1398 N 125.638 -1.25649 -0.95132 0
M  V30 1399 C 126.863 -1.13443 -1.73624 0
M  V30 1400 C 127.288 0.307565 -1.85568 0
M  V30 1401 O 126.646 1.22282 -1.33854 0
M  V30 1402 C 126.694 -1.79723 -3.12621 0
M  V30 1403 O 125.798 -1.07912 -3.98031 0
M  V30 1404 H 125.139 -0.395872 -0.533086 0
M  V30 1405 H 127.669 -1.66276 -1.1922 0
M  V30 1406 H 127.679 -1.86141 -3.63064 0
M  V30 1407 H 126.354 -2.84633 -3.03244 0
M  V30 1408 H 124.931 -1.09398 -3.56492 0
M  V30 1409 N 127.117 1.15442 -1.07289 0
M  V30 1410 C 128.342 1.90638 -0.816828 0
M  V30 1411 C 128.767 1.77445 0.624083 0
M  V30 1412 O 128.125 1.10671 1.43602 0
M  V30 1413 C 128.173 3.39008 -1.22906 0
M  V30 1414 O 127.277 4.10701 -0.373975 0
M  V30 1415 H 126.618 0.593555 -0.297638 0
M  V30 1416 H 129.148 1.46198 -1.43134 0
M  V30 1417 H 129.158 3.89801 -1.20497 0
M  V30 1418 H 127.833 3.47929 -2.27856 0
M  V30 1419 H 126.41 3.70046 -0.460499 0
M  V30 1420 N 128.595 0.856903 1.32268 0
M  V30 1421 C 129.525 0.31858 2.31316 0
M  V30 1422 C 130.506 -0.583487 1.59779 0
M  V30 1423 O 131.691 -0.503259 1.87566 0
M  V30 1424 C 128.821 -0.491979 3.43798 0
M  V30 1425 C 127.775 0.315849 4.26833 0
M  V30 1426 C 127.101 -0.619586 5.31098 0
M  V30 1427 C 128.401 1.54282 4.98993 0
M  V30 1428 H 130.095 1.14621 2.76591 0
M  V30 1429 H 127.641 0.552613 1.32974 0
M  V30 1430 H 129.594 -0.879012 4.1213 0
M  V30 1431 H 128.318 -1.35299 2.97257 0
M  V30 1432 H 126.977 0.684664 3.6015 0
M  V30 1433 H 126.625 -1.47751 4.8081 0
M  V30 1434 H 126.325 -0.0830621 5.87541 0
M  V30 1435 H 127.849 -1.00375 6.02293 0
M  V30 1436 H 129.263 1.22796 5.59995 0
M  V30 1437 H 127.66 2.01745 5.65172 0
M  V30 1438 H 128.73 2.30285 4.26728 0
M  V30 1439 N 130.073 -1.45103 0.615059 0
M  V30 1440 C 130.983 -2.34382 -0.101034 0
M  V30 1441 C 131.999 -1.51681 -0.852585 0
M  V30 1442 O 133.175 -1.8446 -0.808484 0
M  V30 1443 C 130.24 -3.29417 -1.08099 0
M  V30 1444 C 129.301 -4.28025 -0.330577 0
M  V30 1445 C 128.534 -5.1852 -1.26385 0
M  V30 1446 O 128.757 -5.12598 -2.50198 0
M  V30 1447 O 127.691 -5.97122 -0.756866 0
M  V30 1448 H 131.517 -2.97033 0.632855 0
M  V30 1449 H 129.102 -1.4461 0.375293 0
M  V30 1450 H 130.984 -3.87958 -1.6452 0
M  V30 1451 H 129.659 -2.69321 -1.79577 0
M  V30 1452 H 128.566 -3.73078 0.276283 0
M  V30 1453 H 129.899 -4.90997 0.343866 0
M  V30 1454 N 131.551 -0.354651 -1.53558 0
M  V30 1455 C 132.797 0.238797 -2.01389 0
M  V30 1456 C 133.13 1.49309 -1.2418 0
M  V30 1457 O 132.405 1.91638 -0.332457 0
M  V30 1458 C 132.688 0.541771 -3.56001 0
M  V30 1459 C 132.541 -0.725388 -4.43912 0
M  V30 1460 C 133.86 1.34685 -4.18984 0
M  V30 1461 H 130.979 0.0853177 -0.732045 0
M  V30 1462 H 133.621 -0.477384 -1.83905 0
M  V30 1463 H 131.771 1.15189 -3.71031 0
M  V30 1464 H 133.443 -1.36313 -4.407 0
M  V30 1465 H 131.686 -1.34801 -4.12324 0
M  V30 1466 H 132.357 -0.468505 -5.50008 0
M  V30 1467 H 134.833 0.830837 -4.07721 0
M  V30 1468 H 133.709 1.52759 -5.27215 0
M  V30 1469 H 133.97 2.35221 -3.74331 0
M  V30 1470 N 133.029 1.57378 -0.0835403 0
M  V30 1471 C 133.959 2.1641 0.87686 0
M  V30 1472 C 134.94 1.09429 1.30228 0
M  V30 1473 O 136.125 1.37516 1.37124 0
M  V30 1474 C 133.255 2.73517 2.14022 0
M  V30 1475 C 132.209 3.85769 1.85381 0
M  V30 1476 C 131.535 4.29529 3.18448 0
M  V30 1477 C 132.835 5.09486 1.14984 0
M  V30 1478 H 134.529 2.96914 0.385059 0
M  V30 1479 H 132.075 1.42823 0.18377 0
M  V30 1480 H 134.028 3.13463 2.81636 0
M  V30 1481 H 132.752 1.90252 2.65465 0
M  V30 1482 H 131.411 3.46345 1.20169 0
M  V30 1483 H 131.059 3.43169 3.67755 0
M  V30 1484 H 130.759 5.05204 3.00071 0
M  V30 1485 H 132.283 4.72099 3.8724 0
M  V30 1486 H 133.697 5.46674 1.72687 0
M  V30 1487 H 132.094 5.90515 1.06826 0
M  V30 1488 H 133.164 4.84724 0.130749 0
M  V30 1489 N 134.507 -0.190092 1.56449 0
M  V30 1490 C 135.457 -1.23977 1.91347 0
M  V30 1491 C 136.441 -1.40747 0.779693 0
M  V30 1492 O 137.633 -1.43033 1.04262 0
M  V30 1493 C 134.762 -2.58347 2.26079 0
M  V30 1494 C 133.848 -2.4535 3.45925 0
M  V30 1495 N 134.239 -2.02039 4.63696 0
M  V30 1496 C 132.537 -2.76229 3.50162 0
M  V30 1497 C 133.238 -2.01053 5.4585 0
M  V30 1498 N 132.214 -2.42747 4.8639 0
M  V30 1499 H 136.016 -0.896318 2.79899 0
M  V30 1500 H 133.53 -0.398496 1.57435 0
M  V30 1501 H 135.527 -3.34173 2.49267 0
M  V30 1502 H 134.187 -2.93512 1.38856 0
M  V30 1503 H 135.198 -1.7267 4.88268 0
M  V30 1504 H 131.875 -3.15556 2.73369 0
M  V30 1505 H 133.265 -1.69426 6.50188 0
M  V30 1506 N 135.985 -1.50799 -0.457987 0
M  V30 1507 C 136.895 -1.73426 -1.57989 0
M  V30 1508 C 137.911 -0.617745 -1.62665 0
M  V30 1509 O 139.087 -0.897614 -1.80291 0
M  V30 1510 C 136.152 -1.83557 -2.94122 0
M  V30 1511 C 135.213 -3.07345 -2.99729 0
M  V30 1512 C 134.446 -3.16983 -4.29368 0
M  V30 1513 O 134.669 -2.33077 -5.20607 0
M  V30 1514 O 133.603 -4.09812 -4.40837 0
M  V30 1515 H 137.429 -2.68555 -1.41817 0
M  V30 1516 H 135.014 -1.35052 -0.638859 0
M  V30 1517 H 136.896 -1.92326 -3.74952 0
M  V30 1518 H 135.571 -0.916137 -3.10465 0
M  V30 1519 H 134.478 -3.04068 -2.1793 0
M  V30 1520 H 135.811 -3.9891 -2.88326 0
M  V30 1521 N 137.463 0.71206 -1.40597 0
M  V30 1522 C 138.396 1.83582 -1.35546 0
M  V30 1523 C 139.374 1.61032 -0.225284 0
M  V30 1524 O 140.558 1.83998 -0.409519 0
M  V30 1525 C 137.685 3.19983 -1.11034 0
M  V30 1526 C 136.731 3.61355 -2.2655 0
M  V30 1527 S 137.564 3.68062 -3.88961 0
M  V30 1528 C 138.72 5.07216 -3.66719 0
M  V30 1529 H 138.953 1.87586 -2.30648 0
M  V30 1530 H 136.486 0.879182 -1.26924 0
M  V30 1531 H 138.444 3.98734 -0.975761 0
M  V30 1532 H 137.105 3.13608 -0.175798 0
M  V30 1533 H 136.298 4.60403 -2.0505 0
M  V30 1534 H 135.9 2.8987 -2.36329 0
M  V30 1535 H 138.192 5.94238 -3.25404 0
M  V30 1536 H 139.135 5.33753 -4.6531 0
M  V30 1537 H 139.543 4.77976 -3.00332 0
M  V30 1538 N 138.941 1.26152 0.944643 0
M  V30 1539 C 140.218 1.02247 1.66748 0
M  V30 1540 C 140.598 -0.448202 2.06287 0
M  V30 1541 O 139.946 -1.42779 1.78399 0
M  V30 1542 C 140.156 1.96788 2.88228 0
M  V30 1543 C 141.504 2.25201 3.59958 0
M  V30 1544 O 142.528 1.94626 2.98327 0
M  V30 1545 O 141.387 2.77242 4.70956 0
M  V30 1546 H 138.481 0.388517 0.730057 0
M  V30 1547 H 141.027 1.37348 0.99668 0
M  V30 1548 H 139.799 2.96047 2.55875 0
M  V30 1549 H 139.422 1.62145 3.63035 0
M  V30 1550 N 140.419 -1.14872 1.07899 0
M  V30 1551 C 141.696 -1.81928 0.71845 0
M  V30 1552 C 142.076 -1.95417 -0.798455 0
M  V30 1553 O 141.424 -1.50997 -1.715 0
M  V30 1554 C 141.634 -3.17937 1.43935 0
M  V30 1555 C 142.982 -3.93501 1.59506 0
M  V30 1556 O 144.006 -3.27509 1.40058 0
M  V30 1557 O 142.865 -5.1183 1.91551 0
M  V30 1558 H 139.959 -0.78628 0.256305 0
M  V30 1559 H 142.505 -1.21934 1.18026 0
M  V30 1560 H 141.277 -3.0325 2.47295 0
M  V30 1561 H 140.9 -3.85619 0.968687 0
M  V30 1562 N 141.898 -0.863906 -1.31812 0
M  V30 1563 C 143.128 -0.485406 -2.00817 0
M  V30 1564 C 143.536 0.925007 -1.65046 0
M  V30 1565 O 142.879 1.61653 -0.872574 0
M  V30 1566 C 142.941 -0.555589 -3.55181 0
M  V30 1567 C 142.605 -1.92654 -4.14407 0
M  V30 1568 C 143.602 -2.89324 -4.31958 0
M  V30 1569 C 141.287 -2.2262 -4.50273 0
M  V30 1570 C 143.281 -4.14108 -4.84555 0
M  V30 1571 C 140.968 -3.47654 -5.02573 0
M  V30 1572 C 141.966 -4.43214 -5.19664 0
M  V30 1573 O 141.654 -5.66033 -5.70843 0
M  V30 1574 H 141.386 -0.188224 -0.649267 0
M  V30 1575 H 143.94 -1.16514 -1.69156 0
M  V30 1576 H 142.17 0.181037 -3.86276 0
M  V30 1577 H 143.859 -0.19138 -4.05449 0
M  V30 1578 H 144.625 -2.6748 -4.04573 0
M  V30 1579 H 140.504 -1.4902 -4.3625 0
M  V30 1580 H 144.048 -4.88703 -4.9781 0
M  V30 1581 H 139.945 -3.69345 -5.29391 0
M  V30 1582 H 140.713 -5.6812 -5.89222 0
M  V30 1583 N 143.376 1.44774 -0.622745 0
M  V30 1584 C 144.624 2.01721 -0.123655 0
M  V30 1585 C 144.945 1.49172 1.25589 0
M  V30 1586 O 144.215 0.691974 1.83272 0
M  V30 1587 H 142.795 0.745777 -0.0427225 0
M  V30 1588 H 145.457 1.77382 -0.807559 0
M  V30 1589 H 144.553 3.11984 -0.0849534 0
M  V30 1590 N 144.854 0.36279 1.53368 0
M  V30 1591 C 145.802 -0.500155 2.27159 0
M  V30 1592 C 146.796 -1.08575 1.3003 0
M  V30 1593 O 148.002 -1.02927 1.47668 0
M  V30 1594 H 144.377 -0.180009 0.730138 0
M  V30 1595 H 146.348 0.14401 2.98052 0
M  V30 1596 C 145.097 -1.62937 3.07159 0
M  V30 1597 H 144.42 -1.18806 3.8174 0
M  V30 1598 H 145.86 -2.20795 3.61975 0
M  V30 1599 C 144.319 -2.57007 2.17829 0
M  V30 1600 O 144.849 -3.59752 1.78721 0
M  V30 1601 N 143.055 -2.26131 1.82518 0
M  V30 1602 H 142.602 -1.42616 2.14519 0
M  V30 1603 H 142.56 -2.89327 1.23034 0
M  V30 1604 N 146.332 -1.57332 0.0918853 0
M  V30 1605 C 147.56 -1.98574 -0.581048 0
M  V30 1606 C 147.975 -0.970903 -1.61923 0
M  V30 1607 O 147.332 0.0399054 -1.82456 0
M  V30 1608 C 147.383 -3.39872 -1.23164 0
M  V30 1609 O 147.104 -4.37469 -0.234989 0
M  V30 1610 C 148.605 -3.96099 -1.99049 0
M  V30 1611 H 145.825 -0.65261 -0.156018 0
M  V30 1612 H 148.369 -2.0379 0.170225 0
M  V30 1613 H 146.524 -3.35679 -1.93386 0
M  V30 1614 H 146.938 -5.19751 -0.70418 0
M  V30 1615 H 148.412 -4.97127 -2.39934 0
M  V30 1616 H 148.889 -3.3374 -2.85507 0
M  V30 1617 H 149.495 -4.03755 -1.3365 0
M  V30 1618 N 147.81 0.181792 -1.56548 0
M  V30 1619 C 149.221 0.745244 -1.71181 0
M  V30 1620 C 149.572 1.83262 -0.70068 0
M  V30 1621 O 148.697 2.15946 0.140154 0
M  V30 1622 C 149.292 1.35859 -3.10367 0
M  V30 1623 C 147.851 1.86898 -3.2672 0
M  V30 1624 C 146.998 0.743942 -2.67134 0
M  V30 1625 H 149.949 -0.0434661 -1.5864 0
M  V30 1626 H 149.97 2.22817 -3.08436 0
M  V30 1627 H 149.482 0.566948 -3.83937 0
M  V30 1628 H 147.583 2.68738 -2.5809 0
M  V30 1629 H 147.696 2.02162 -4.34359 0
M  V30 1630 H 146.06 1.16169 -2.26665 0
M  V30 1631 H 146.843 -0.035676 -3.43281 0
M  V30 1632 N 149.288 1.51039 0.449983 0
M  V30 1633 C 150.218 1.74379 1.55288 0
M  V30 1634 C 151.199 0.593236 1.5942 0
M  V30 1635 O 152.384 0.834625 1.7535 0
M  V30 1636 C 149.514 1.85728 2.93466 0
M  V30 1637 C 148.468 3.01078 3.04197 0
M  V30 1638 C 147.794 2.97595 4.44231 0
M  V30 1639 C 149.094 4.41254 2.7945 0
M  V30 1640 H 150.788 2.66725 1.36008 0
M  V30 1641 H 148.334 1.2835 0.652864 0
M  V30 1642 H 150.287 2.0064 3.70569 0
M  V30 1643 H 149.011 0.900207 3.13949 0
M  V30 1644 H 147.67 2.85851 2.29531 0
M  V30 1645 H 147.318 1.99691 4.61663 0
M  V30 1646 H 147.018 3.75046 4.52343 0
M  V30 1647 H 148.542 3.14583 5.23326 0
M  V30 1648 H 149.956 4.56897 3.46292 0
M  V30 1649 H 148.353 5.20315 2.98985 0
M  V30 1650 H 149.423 4.52164 1.75144 0
M  V30 1651 N 150.766 -0.704594 1.40972 0
M  V30 1652 C 151.716 -1.81051 1.38581 0
M  V30 1653 C 152.7 -1.58759 0.261585 0
M  V30 1654 O 153.892 -1.69745 0.501556 0
M  V30 1655 C 151.021 -3.19279 1.26157 0
M  V30 1656 C 150.107 -3.47296 2.43405 0
M  V30 1657 N 150.498 -3.46064 3.68881 0
M  V30 1658 C 148.796 -3.77804 2.37023 0
M  V30 1659 C 149.497 -3.72733 4.46592 0
M  V30 1660 N 148.473 -3.9203 3.76581 0
M  V30 1661 H 152.275 -1.78448 2.33525 0
M  V30 1662 H 149.789 -0.904198 1.349 0
M  V30 1663 H 151.786 -3.98488 1.22526 0
M  V30 1664 H 150.446 -3.231 0.321902 0
M  V30 1665 H 151.457 -3.26656 4.01891 0
M  V30 1666 H 148.134 -3.8905 1.51481 0
M  V30 1667 H 149.524 -3.77993 5.55492 0
M  V30 1668 N 152.244 -1.26651 -0.937939 0
M  V30 1669 C 153.484 -1.13611 -1.69917 0
M  V30 1670 C 153.848 0.314687 -1.89404 0
M  V30 1671 O 155.049 0.567285 -2.62746 0
M  V30 1672 C 153.32 -1.88742 -3.03498 0
M  V30 1673 S 154.879 -1.91794 -3.94665 0
M  V30 1674 H 151.697 -0.405767 -0.583844 0
M  V30 1675 H 154.299 -1.60416 -1.11745 0
M  V30 1676 H 153.003 -2.9336 -2.86999 0
M  V30 1677 H 152.534 -1.42391 -3.66727 0
M  V30 1678 H 154.549 -1.00698 -4.85875 0
M  V30 1679 N 153.722 1.14298 -1.08507 0
M  V30 1680 C 154.685 2.17607 -0.719711 0
M  V30 1681 C 155.685 1.58907 0.245997 0
M  V30 1682 O 156.875 1.74181 0.0254081 0
M  V30 1683 C 154.007 3.40842 -0.0627695 0
M  V30 1684 H 155.2 2.51443 -1.63452 0
M  V30 1685 H 152.753 1.28963 -0.88307 0
M  V30 1686 H 153.488 3.12587 0.863716 0
M  V30 1687 H 153.273 3.84713 -0.757504 0
M  V30 1688 H 154.763 4.17221 0.177786 0
M  V30 1689 N 155.201 0.870884 1.31352 0
M  V30 1690 C 156.447 0.482987 1.96965 0
M  V30 1691 C 156.78 -0.962462 1.68672 0
M  V30 1692 O 156.055 -1.6779 0.98371 0
M  V30 1693 C 156.338 0.741752 3.52378 0
M  V30 1694 C 156.191 2.2368 3.9024 0
M  V30 1695 C 157.51 0.208838 4.39604 0
M  V30 1696 H 154.629 0.176955 0.715441 0
M  V30 1697 H 157.271 1.09229 1.55464 0
M  V30 1698 H 155.421 0.223149 3.87859 0
M  V30 1699 H 157.093 2.82273 3.64856 0
M  V30 1700 H 155.336 2.70901 3.38814 0
M  V30 1701 H 156.007 2.3685 4.98604 0
M  V30 1702 H 158.483 0.652529 4.10952 0
M  V30 1703 H 157.359 0.419336 5.47296 0
M  V30 1704 H 157.62 -0.889275 4.33064 0
M  V30 1705 N 156.679 -1.44442 0.630414 0
M  V30 1706 C 157.589 -2.34476 -0.0761693 0
M  V30 1707 C 158.605 -1.52576 -0.836449 0
M  V30 1708 O 159.781 -1.85307 -0.788874 0
M  V30 1709 C 156.846 -3.30545 -1.04599 0
M  V30 1710 C 155.907 -4.28352 -0.28516 0
M  V30 1711 C 155.14 -5.19831 -1.20878 0
M  V30 1712 O 155.363 -5.15223 -2.44747 0
M  V30 1713 O 154.297 -5.97892 -0.693491 0
M  V30 1714 H 158.123 -2.96345 0.664324 0
M  V30 1715 H 155.708 -1.44203 0.39061 0
M  V30 1716 H 157.59 -3.89681 -1.60396 0
M  V30 1717 H 156.265 -2.7121 -1.76711 0
M  V30 1718 H 155.172 -3.72764 0.315837 0
M  V30 1719 H 156.505 -4.90605 0.395924 0
M  V30 1720 N 158.157 -0.370918 -1.53173 0
M  V30 1721 C 159.104 0.473035 -2.259 0
M  V30 1722 C 160.074 1.07311 -1.26781 0
M  V30 1723 O 161.259 1.1046 -1.55574 0
M  V30 1724 C 158.399 1.60405 -3.05556 0
M  V30 1725 C 157.512 1.02863 -4.19575 0
M  V30 1726 C 156.647 2.12918 -4.86661 0
M  V30 1727 C 155.686 1.52869 -5.92704 0
M  V30 1728 N 154.823 2.56779 -6.53459 0
M  V30 1729 H 159.663 -0.153649 -2.97604 0
M  V30 1730 H 157.2 -0.0875946 -1.46839 0
M  V30 1731 H 159.158 2.27034 -3.50016 0
M  V30 1732 H 157.788 2.20131 -2.36097 0
M  V30 1733 H 156.84 0.252465 -3.79561 0
M  V30 1734 H 158.152 0.549642 -4.95762 0
M  V30 1735 H 157.306 2.87356 -5.34333 0
M  V30 1736 H 156.045 2.6417 -4.09958 0
M  V30 1737 H 155.05 0.769479 -5.44389 0
M  V30 1738 H 156.275 1.02435 -6.7133 0
M  V30 1739 H 154.221 3.07235 -5.79606 0
M  V30 1740 H 154.138 2.13583 -7.25202 0
M  V30 1741 H 155.406 3.30903 -7.05779 0
M  V30 1742 N 159.635 1.57281 -0.100228 0
M  V30 1743 C 160.583 2.15542 0.874328 0
M  V30 1744 C 161.577 1.09962 1.28859 0
M  V30 1745 O 162.783 1.28298 1.26252 0
M  V30 1746 H 159.158 0.689567 0.300003 0
M  V30 1747 H 161.129 2.96241 0.35829 0
M  V30 1748 C 159.878 2.75454 2.1218 0
M  V30 1749 H 159.201 3.56384 1.81193 0
M  V30 1750 H 160.641 3.19781 2.78417 0
M  V30 1751 C 159.1 1.71602 2.89921 0
M  V30 1752 O 159.63 1.15804 3.84646 0
M  V30 1753 N 157.836 1.41975 2.53558 0
M  V30 1754 H 157.383 1.87539 1.76598 0
M  V30 1755 H 157.341 0.727274 3.05873 0
M  V30 1756 N 161.113 -0.173488 1.56642 0
M  V30 1757 C 162.045 -1.23935 1.92802 0
M  V30 1758 C 163.058 -1.40589 0.820889 0
M  V30 1759 O 164.247 -1.40631 1.09933 0
M  V30 1760 C 161.347 -2.60837 2.16373 0
M  V30 1761 C 160.52 -2.6551 3.47596 0
M  V30 1762 C 159.579 -3.8376 3.60021 0
M  V30 1763 O 158.605 -3.69859 4.32658 0
M  V30 1764 N 159.807 -5.00127 2.94709 0
M  V30 1765 H 162.572 -0.932236 2.84832 0
M  V30 1766 H 160.133 -0.363268 1.57772 0
M  V30 1767 H 162.125 -3.38407 2.21952 0
M  V30 1768 H 160.695 -2.83948 1.30738 0
M  V30 1769 H 159.915 -1.74052 3.53694 0
M  V30 1770 H 161.203 -2.65641 4.33949 0
M  V30 1771 H 160.601 -5.14322 2.35563 0
M  V30 1772 H 159.158 -5.75567 3.05886 0
M  V30 1773 N 162.591 -1.51276 -0.441967 0
M  V30 1774 C 163.84 -1.6295 -1.18871 0
M  V30 1775 C 164.153 -0.349312 -1.92456 0
M  V30 1776 O 165.359 -0.345355 -2.69295 0
M  V30 1777 C 163.815 -2.87759 -2.16155 0
M  V30 1778 C 163.423 -4.22764 -1.48239 0
M  V30 1779 C 165.167 -3.08788 -2.91291 0
M  V30 1780 C 163.074 -5.38728 -2.4398 0
M  V30 1781 H 162.004 -0.606913 -0.447406 0
M  V30 1782 H 164.655 -1.77739 -0.456205 0
M  V30 1783 H 163.037 -2.66593 -2.92821 0
M  V30 1784 H 164.211 -4.54293 -0.771635 0
M  V30 1785 H 162.526 -4.07575 -0.852741 0
M  V30 1786 H 165.123 -3.92599 -3.63002 0
M  V30 1787 H 165.466 -2.21679 -3.5237 0
M  V30 1788 H 165.999 -3.30272 -2.21733 0
M  V30 1789 H 162.738 -6.28082 -1.87598 0
M  V30 1790 H 162.258 -5.1158 -3.13123 0
M  V30 1791 H 163.937 -5.70489 -3.05207 0
M  V30 1792 N 164.069 0.697108 -1.41344 0
M  V30 1793 C 164.979 1.84088 -1.45427 0
M  V30 1794 C 165.995 1.70545 -0.34501 0
M  V30 1795 O 167.171 1.92488 -0.592492 0
M  V30 1796 C 164.236 3.20056 -1.33286 0
M  V30 1797 C 163.297 3.45718 -2.54514 0
M  V30 1798 C 162.53 4.75199 -2.42944 0
M  V30 1799 O 162.753 5.51579 -1.45318 0
M  V30 1800 O 161.687 5.0161 -3.32672 0
M  V30 1801 H 165.513 1.836 -2.41919 0
M  V30 1802 H 163.098 0.849966 -1.22866 0
M  V30 1803 H 164.98 4.01236 -1.28794 0
M  V30 1804 H 163.655 3.2123 -0.39909 0
M  V30 1805 H 162.562 2.64474 -2.64583 0
M  V30 1806 H 163.895 3.49356 -3.46715 0
M  V30 1807 N 165.547 1.27147 0.931209 0
M  V30 1808 C 166.772 1.16191 1.71797 0
M  V30 1809 C 167.197 -0.278004 1.86034 0
M  V30 1810 O 166.555 -1.20137 1.35782 0
M  V30 1811 C 166.603 1.84673 3.09723 0
M  V30 1812 O 165.707 1.14231 3.96264 0
M  V30 1813 H 165.048 0.404303 0.526721 0
M  V30 1814 H 167.578 1.68152 1.1656 0
M  V30 1815 H 167.588 1.91893 3.60057 0
M  V30 1816 H 166.263 2.89421 2.98677 0
M  V30 1817 H 164.84 1.15056 3.54706 0
M  V30 1818 N 167.025 -1.13721 1.09112 0
M  V30 1819 C 168.271 -1.85198 0.826414 0
M  V30 1820 C 168.604 -1.83129 -0.646319 0
M  V30 1821 O 167.879 -1.2671 -1.47563 0
M  V30 1822 C 168.162 -3.33507 1.35812 0
M  V30 1823 C 168.015 -3.44108 2.89672 0
M  V30 1824 C 169.334 -4.28838 0.989256 0
M  V30 1825 H 166.453 -0.67243 0.301675 0
M  V30 1826 H 169.095 -1.33499 1.35197 0
M  V30 1827 H 167.245 -3.77666 0.911082 0
M  V30 1828 H 168.917 -3.08684 3.428 0
M  V30 1829 H 167.16 -2.85087 3.26967 0
M  V30 1830 H 167.831 -4.48388 3.21951 0
M  V30 1831 H 170.307 -3.92734 1.37475 0
M  V30 1832 H 169.183 -5.31051 1.38838 0
M  V30 1833 H 169.444 -4.4198 -0.102924 0
M  V30 1834 N 168.503 -0.877838 -1.30888 0
M  V30 1835 C 169.45 -0.337538 -2.28318 0
M  V30 1836 C 170.42 0.568346 -1.56074 0
M  V30 1837 O 171.605 0.498298 -1.84178 0
M  V30 1838 C 168.745 0.448142 -3.42178 0
M  V30 1839 C 167.858 -0.48615 -4.29256 0
M  V30 1840 C 166.993 0.314427 -5.30269 0
M  V30 1841 C 166.032 -0.615791 -6.08995 0
M  V30 1842 N 165.169 0.14902 -7.01942 0
M  V30 1843 H 170.009 -1.17356 -2.73919 0
M  V30 1844 H 167.546 -0.590094 -1.34745 0
M  V30 1845 H 169.504 0.919517 -4.06941 0
M  V30 1846 H 168.134 1.24879 -2.97666 0
M  V30 1847 H 167.186 -1.076 -3.64865 0
M  V30 1848 H 168.498 -1.19909 -4.84173 0
M  V30 1849 H 167.652 0.847969 -6.00745 0
M  V30 1850 H 166.391 1.06062 -4.76027 0
M  V30 1851 H 165.396 -1.16102 -5.37401 0
M  V30 1852 H 166.621 -1.36097 -6.65323 0
M  V30 1853 H 164.567 0.877884 -6.50099 0
M  V30 1854 H 164.484 -0.504433 -7.54315 0
M  V30 1855 H 165.752 0.663537 -7.76671 0
M  V30 1856 N 169.982 1.44106 -0.638065 0
M  V30 1857 C 171.229 2.01978 -0.14533 0
M  V30 1858 C 171.557 1.50234 1.23532 0
M  V30 1859 O 170.812 0.679548 1.83523 0
M  V30 1860 C 171.111 3.5729 -0.0887327 0
M  V30 1861 C 170.777 4.28317 -1.40909 0
M  V30 1862 C 169.439 4.47437 -1.77069 0
M  V30 1863 C 171.791 4.6867 -2.28031 0
M  V30 1864 C 169.119 5.04171 -3.00047 0
M  V30 1865 C 171.471 5.26766 -3.50286 0
M  V30 1866 C 170.135 5.44104 -3.86661 0
M  V30 1867 H 169.405 0.739089 -0.0531801 0
M  V30 1868 H 172.052 1.72781 -0.825761 0
M  V30 1869 H 170.357 3.8594 0.675095 0
M  V30 1870 H 172.054 3.99807 0.309145 0
M  V30 1871 H 168.644 4.1377 -1.1177 0
M  V30 1872 H 172.828 4.53604 -2.01388 0
M  V30 1873 H 168.084 5.15782 -3.28298 0
M  V30 1874 H 172.258 5.56983 -4.18023 0
M  V30 1875 H 169.885 5.87832 -4.82034 0
M  V30 1876 N 171.46 0.379036 1.52974 0
M  V30 1877 C 172.39 -0.452706 2.29069 0
M  V30 1878 C 173.371 -1.07237 1.32039 0
M  V30 1879 O 174.556 -1.08708 1.60923 0
M  V30 1880 C 171.686 -1.5856 3.08992 0
M  V30 1881 C 170.64 -1.0925 4.13822 0
M  V30 1882 C 169.966 -2.31668 4.81907 0
M  V30 1883 C 171.266 -0.167702 5.22031 0
M  V30 1884 H 172.96 0.182181 2.98845 0
M  V30 1885 H 170.506 0.0890592 1.43724 0
M  V30 1886 H 172.459 -2.1742 3.6098 0
M  V30 1887 H 171.183 -2.24792 2.36931 0
M  V30 1888 H 169.842 -0.526494 3.628 0
M  V30 1889 H 169.49 -2.96386 4.06404 0
M  V30 1890 H 169.19 -1.9934 5.52754 0
M  V30 1891 H 170.714 -2.91189 5.36695 0
M  V30 1892 H 172.128 -0.664186 5.6944 0
M  V30 1893 H 170.525 0.0653265 6.00064 0
M  V30 1894 H 171.595 0.786347 4.78482 0
M  V30 1895 N 172.938 -1.57226 0.108567 0
M  V30 1896 C 173.868 -2.17778 -0.84232 0
M  V30 1897 C 174.849 -1.11487 -1.2847 0
M  V30 1898 O 176.034 -1.39681 -1.34918 0
M  V30 1899 C 173.164 -2.76888 -2.09644 0
M  V30 1900 C 172.118 -3.88669 -1.79221 0
M  V30 1901 C 171.444 -4.34541 -3.11574 0
M  V30 1902 C 172.744 -5.11251 -1.06864 0
M  V30 1903 H 174.438 -2.97489 -0.337774 0
M  V30 1904 H 171.984 -1.43097 -0.161025 0
M  V30 1905 H 173.937 -3.17904 -2.76614 0
M  V30 1906 H 172.661 -1.94451 -2.62405 0
M  V30 1907 H 171.32 -3.48213 -1.14644 0
M  V30 1908 H 170.968 -3.48977 -3.62249 0
M  V30 1909 H 170.668 -5.09914 -2.91996 0
M  V30 1910 H 172.192 -4.782 -3.7968 0
M  V30 1911 H 173.606 -5.49352 -1.63968 0
M  V30 1912 H 172.003 -5.9214 -0.974178 0
M  V30 1913 H 173.073 -4.8487 -0.0536168 0
M  V30 1914 N 174.416 0.165178 -1.56732 0
M  V30 1915 C 175.641 0.900253 -1.86843 0
M  V30 1916 C 176.066 1.74766 -0.695596 0
M  V30 1917 O 175.424 1.77786 0.35522 0
M  V30 1918 C 175.472 1.74777 -3.15413 0
M  V30 1919 O 174.576 2.85007 -2.98068 0
M  V30 1920 H 173.917 0.251832 -0.614391 0
M  V30 1921 H 176.447 0.161468 -2.03962 0
M  V30 1922 H 176.457 2.14646 -3.46974 0
M  V30 1923 H 175.132 1.12537 -4.00385 0
M  V30 1924 H 173.709 2.48676 -2.77875 0
M  V30 1925 N 175.894 1.51508 0.433938 0
M  V30 1926 C 177.31 1.39759 0.770682 0
M  V30 1927 C 177.51 0.482594 1.95636 0
M  V30 1928 O 176.566 -0.0609691 2.52426 0
M  V30 1929 C 177.879 2.81851 1.04787 0
M  V30 1930 C 179.427 2.91025 1.1521 0
M  V30 1931 C 179.902 4.34032 1.46219 0
M  V30 1932 N 181.393 4.37154 1.53136 0
M  V30 1933 C 182.128 5.4484 1.78709 0
M  V30 1934 N 181.624 6.62682 2.02051 0
M  V30 1935 N 183.417 5.32324 1.80519 0
M  V30 1936 H 175.568 2.09548 -0.346892 0
M  V30 1937 H 177.831 0.943446 -0.0928074 0
M  V30 1938 H 177.537 3.50815 0.249304 0
M  V30 1939 H 177.411 3.21386 1.97461 0
M  V30 1940 H 179.798 2.22257 1.94128 0
M  V30 1941 H 179.879 2.54983 0.204281 0
M  V30 1942 H 179.523 5.03351 0.678274 0
M  V30 1943 H 179.453 4.6759 2.42212 0
M  V30 1944 H 181.944 3.52197 1.36987 0
M  V30 1945 H 182.257 7.40543 2.20943 0
M  V30 1946 H 180.602 6.65791 1.99366 0
M  V30 1947 H 183.793 4.39246 1.61805 0
M  V30 1948 H 183.966 6.16328 2.00111 0
M  V30 1949 N 177.372 -0.689602 1.41712 0
M  V30 1950 C 178.62 -1.4468 1.4111 0
M  V30 1951 C 178.941 -1.94986 0.0232196 0
M  V30 1952 O 178.211 -1.72097 -0.935913 0
M  V30 1953 H 176.791 -0.536847 0.519427 0
M  V30 1954 H 179.453 -0.815825 1.77004 0
M  V30 1955 H 178.549 -2.30706 2.10193 0
M  V30 1956 N 178.85 -1.27639 -0.924453 0
M  V30 1957 C 179.813 -1.10681 -2.00705 0
M  V30 1958 C 180.813 -0.0497823 -1.60723 0
M  V30 1959 O 182.003 -0.294654 -1.7169 0
M  V30 1960 C 179.135 -0.687164 -3.33902 0
M  V30 1961 H 180.328 -2.06817 -2.17179 0
M  V30 1962 H 177.881 -1.10473 -1.10569 0
M  V30 1963 H 178.616 0.275439 -3.23128 0
M  V30 1964 H 178.401 -1.45061 -3.6428 0
M  V30 1965 H 179.891 -0.590853 -4.13399 0
M  V30 1966 N 180.328 1.1314 -1.09713 0
M  V30 1967 C 181.276 2.20717 -0.733934 0
M  V30 1968 C 182.27 1.6729 0.266506 0
M  V30 1969 O 183.476 1.79547 0.127656 0
M  V30 1970 H 179.851 0.719292 -0.21937 0
M  V30 1971 H 181.822 2.48611 -1.6503 0
M  V30 1972 C 180.571 3.47265 -0.173849 0
M  V30 1973 H 179.894 3.88716 -0.934873 0
M  V30 1974 H 181.334 4.23979 0.0423126 0
M  V30 1975 C 179.793 3.18724 1.09164 0
M  V30 1976 O 180.323 3.37762 2.17439 0
M  V30 1977 N 178.529 2.72583 1.00732 0
M  V30 1978 H 178.076 2.57291 0.126121 0
M  V30 1979 H 178.034 2.53862 1.85476 0
M  V30 1980 N 181.806 0.884767 1.30421 0
M  V30 1981 C 183.217 0.553656 1.78302 0
M  V30 1982 C 183.568 -0.930153 1.7275 0
M  V30 1983 O 182.693 -1.72681 1.30423 0
M  V30 1984 C 183.288 0.998234 3.2376 0
M  V30 1985 C 181.847 0.71854 3.69478 0
M  V30 1986 C 180.994 1.18132 2.50879 0
M  V30 1987 H 183.945 1.06901 1.17294 0
M  V30 1988 H 183.966 0.327118 3.79091 0
M  V30 1989 H 183.478 2.0782 3.27769 0
M  V30 1990 H 181.579 -0.349444 3.70958 0
M  V30 1991 H 181.692 1.30595 4.60958 0
M  V30 1992 H 180.056 0.600669 2.47516 0
M  V30 1993 H 180.839 2.26902 2.57624 0
M  V30 1994 N 183.284 -1.43765 0.645699 0
M  V30 1995 C 184.232 -2.32516 -0.0624849 0
M  V30 1996 C 185.226 -1.48183 -0.820855 0
M  V30 1997 O 186.432 -1.64439 -0.732106 0
M  V30 1998 H 182.807 -0.750989 -0.0389864 0
M  V30 1999 H 184.778 -2.89979 0.703892 0
M  V30 2000 C 183.527 -3.32389 -1.02044 0
M  V30 2001 H 182.85 -3.97301 -0.446312 0
M  V30 2002 H 184.29 -3.97138 -1.48517 0
M  V30 2003 C 182.749 -2.62416 -2.11281 0
M  V30 2004 O 183.279 -2.434 -3.19561 0
M  V30 2005 N 181.485 -2.21913 -1.87624 0
M  V30 2006 H 181.032 -2.37578 -0.995703 0
M  V30 2007 H 180.99 -1.75424 -2.6091 0
M  V30 2008 N 184.763 -0.387143 -1.52771 0
M  V30 2009 C 185.693 0.440551 -2.29306 0
M  V30 2010 C 186.674 1.06535 -1.32606 0
M  V30 2011 O 187.859 1.07853 -1.61497 0
M  V30 2012 C 184.989 1.56919 -3.09829 0
M  V30 2013 C 183.943 1.07054 -4.14395 0
M  V30 2014 C 183.269 2.29109 -4.83129 0
M  V30 2015 C 184.569 0.140015 -5.22112 0
M  V30 2016 H 186.263 -0.198026 -2.98744 0
M  V30 2017 H 183.809 -0.09668 -1.43675 0
M  V30 2018 H 185.762 2.15503 -3.62128 0
M  V30 2019 H 184.486 2.23532 -2.3812 0
M  V30 2020 H 183.145 0.507247 -3.63074 0
M  V30 2021 H 182.793 2.94227 -4.0797 0
M  V30 2022 H 182.493 1.96406 -5.53804 0
M  V30 2023 H 184.017 2.88339 -5.38231 0
M  V30 2024 H 185.431 0.633978 -5.69784 0
M  V30 2025 H 183.828 -0.0971485 -6.00021 0
M  V30 2026 H 184.898 -0.811711 -4.78058 0
M  V30 2027 N 186.241 1.57166 -0.116904 0
M  V30 2028 C 187.657 1.5779 0.239693 0
M  V30 2029 C 187.857 1.1295 1.66867 0
M  V30 2030 O 186.913 0.81592 2.38954 0
M  V30 2031 C 188.226 3.00699 0.00828202 0
M  V30 2032 C 189.774 3.12912 0.0743438 0
M  V30 2033 C 190.249 4.57817 -0.129348 0
M  V30 2034 N 191.74 4.63139 -0.075247 0
M  V30 2035 C 192.475 5.73023 -0.207788 0
M  V30 2036 N 191.971 6.91665 -0.396382 0
M  V30 2037 N 193.764 5.61906 -0.14751 0
M  V30 2038 H 185.915 1.84615 -1.05029 0
M  V30 2039 H 188.178 0.85311 -0.41341 0
M  V30 2040 H 187.884 3.37784 -0.979531 0
M  V30 2041 H 187.758 3.69848 0.741077 0
M  V30 2042 H 190.145 2.75686 1.05268 0
M  V30 2043 H 190.226 2.4631 -0.690297 0
M  V30 2044 H 189.87 4.95742 -1.10465 0
M  V30 2045 H 189.8 5.22507 0.655253 0
M  V30 2046 H 192.291 3.7784 0.0670898 0
M  V30 2047 H 192.604 7.71255 -0.488437 0
M  V30 2048 H 190.949 6.93654 -0.432329 0
M  V30 2049 H 194.14 4.681 -0.00115036 0
M  V30 2050 H 194.313 6.47501 -0.254247 0
M  V30 2051 N 187.719 -0.156864 1.56817 0
M  V30 2052 C 188.667 -1.21319 1.98455 0
M  V30 2053 C 189.661 -1.45025 0.875444 0
M  V30 2054 O 190.867 -1.45435 1.0606 0
M  V30 2055 H 187.242 -0.408142 0.631605 0
M  V30 2056 H 189.213 -0.835244 2.86472 0
M  V30 2057 C 187.962 -2.54148 2.37285 0
M  V30 2058 H 187.285 -2.36733 3.22176 0
M  V30 2059 H 188.725 -3.26712 2.70251 0
M  V30 2060 C 187.184 -3.13967 1.22173 0
M  V30 2061 O 187.714 -3.98357 0.517149 0
M  V30 2062 N 185.92 -2.7327 0.988536 0
M  V30 2063 H 185.467 -2.04744 1.56326 0
M  V30 2064 H 185.425 -3.13628 0.220209 0
M  V30 2065 N 189.197 -1.51736 -0.425897 0
M  V30 2066 C 190.444 -1.6497 -1.17436 0
M  V30 2067 C 190.772 -0.371445 -1.9092 0
M  V30 2068 O 190.027 0.644963 -1.84767 0
M  V30 2069 C 190.326 -2.81103 -2.20717 0
M  V30 2070 C 189.992 -4.19954 -1.64162 0
M  V30 2071 C 188.654 -4.57725 -1.48462 0
M  V30 2072 C 191.006 -5.06552 -1.22696 0
M  V30 2073 C 188.334 -5.79789 -0.897873 0
M  V30 2074 C 190.686 -6.29205 -0.654464 0
M  V30 2075 C 189.35 -6.6574 -0.484456 0
M  V30 2076 H 188.62 -0.603668 -0.429727 0
M  V30 2077 H 191.267 -1.85798 -0.463829 0
M  V30 2078 H 189.572 -2.54542 -2.97852 0
M  V30 2079 H 191.269 -2.8854 -2.78471 0
M  V30 2080 H 187.859 -3.90181 -1.77361 0
M  V30 2081 H 192.043 -4.77968 -1.33642 0
M  V30 2082 H 187.299 -6.06733 -0.75402 0
M  V30 2083 H 191.473 -6.95643 -0.324694 0
M  V30 2084 H 189.1 -7.60195 -0.0276833 0
M  V30 2085 N 190.675 0.682077 -1.42076 0
M  V30 2086 C 191.623 1.81707 -1.45208 0
M  V30 2087 C 192.617 1.66183 -0.328591 0
M  V30 2088 O 193.823 1.7288 -0.501264 0
M  V30 2089 H 190.198 0.599014 -0.454628 0
M  V30 2090 H 192.169 1.76183 -2.40836 0
M  V30 2091 C 190.918 3.19816 -1.36428 0
M  V30 2092 H 190.241 3.32385 -2.22171 0
M  V30 2093 H 191.681 3.99272 -1.42681 0
M  V30 2094 C 190.14 3.36809 -0.078191 0
M  V30 2095 O 190.67 3.92124 0.87188 0
M  V30 2096 N 188.876 2.906 0.00229266 0
M  V30 2097 H 188.423 2.45772 -0.771616 0
M  V30 2098 H 188.381 3.02347 0.862179 0
M  V30 2099 N 192.153 1.28127 0.917671 0
M  V30 2100 C 193.086 1.06039 2.02067 0
M  V30 2101 C 194.064 -0.0223285 1.62585 0
M  V30 2102 O 195.248 0.124823 1.88086 0
M  V30 2103 C 192.375 0.610596 3.33151 0
M  V30 2104 C 191.421 1.68937 3.91615 0
M  V30 2105 S 192.254 3.28437 4.22953 0
M  V30 2106 C 193.41 2.85283 5.57103 0
M  V30 2107 H 193.643 1.99425 2.20493 0
M  V30 2108 H 191.176 1.12071 1.06205 0
M  V30 2109 H 193.134 0.357778 4.08938 0
M  V30 2110 H 191.795 -0.303364 3.12632 0
M  V30 2111 H 190.988 1.32619 4.86239 0
M  V30 2112 H 190.59 1.89478 3.2245 0
M  V30 2113 H 192.882 2.3121 6.36827 0
M  V30 2114 H 193.825 3.7869 5.98331 0
M  V30 2115 H 194.233 2.24118 5.18104 0
M  V30 2116 N 193.631 -1.12557 1.10312 0
M  V30 2117 C 194.564 -2.1737 0.694674 0
M  V30 2118 C 195.542 -1.59745 -0.303373 0
M  V30 2119 O 196.726 -1.87408 -0.202578 0
M  V30 2120 C 193.853 -3.38691 0.0248052 0
M  V30 2121 C 192.899 -4.14943 0.986121 0
M  V30 2122 S 193.732 -4.73413 2.50281 0
M  V30 2123 C 194.888 -5.9807 1.84562 0
M  V30 2124 H 195.121 -2.5168 1.58255 0
M  V30 2125 H 192.654 -1.23998 0.919992 0
M  V30 2126 H 194.612 -4.08959 -0.355361 0
M  V30 2127 H 193.273 -3.02664 -0.839851 0
M  V30 2128 H 192.466 -5.01854 0.464651 0
M  V30 2129 H 192.068 -3.50377 1.30813 0
M  V30 2130 H 194.36 -6.67232 1.17507 0
M  V30 2131 H 195.303 -6.54841 2.69423 0
M  V30 2132 H 195.711 -5.49073 1.31069 0
M  V30 2133 N 195.109 -0.891671 -1.2995 0
M  V30 2134 C 196.072 -0.36828 -2.26222 0
M  V30 2135 C 197.072 0.493014 -1.53056 0
M  V30 2136 O 198.262 0.299213 -1.71611 0
M  V30 2137 C 195.394 0.47442 -3.37583 0
M  V30 2138 H 196.587 -1.21844 -2.74033 0
M  V30 2139 H 194.14 -0.669107 -1.41254 0
M  V30 2140 H 194.875 1.34489 -2.95099 0
M  V30 2141 H 194.66 -0.142615 -3.91841 0
M  V30 2142 H 196.15 0.83218 -4.09224 0
M  V30 2143 N 196.587 1.43421 -0.653314 0
M  V30 2144 C 197.998 1.85065 -0.246537 0
M  V30 2145 C 198.349 1.54688 1.2069 0
M  V30 2146 O 197.474 0.995896 1.92122 0
M  V30 2147 C 198.069 3.35922 -0.440666 0
M  V30 2148 C 196.628 3.76297 -0.0882064 0
M  V30 2149 C 195.775 2.67147 -0.743484 0
M  V30 2150 H 198.726 1.33572 -0.856979 0
M  V30 2151 H 198.747 3.79204 0.313798 0
M  V30 2152 H 198.259 3.58 -1.49858 0
M  V30 2153 H 196.36 3.5983 0.96711 0
M  V30 2154 H 196.473 4.76338 -0.513738 0
M  V30 2155 H 194.837 2.54086 -0.176712 0
M  V30 2156 H 195.62 2.92053 -1.80443 0
M  V30 2157 N 198.065 0.39524 1.52563 0
M  V30 2158 C 198.995 -0.428384 2.29537 0
M  V30 2159 C 199.976 -1.05831 1.33169 0
M  V30 2160 O 201.161 -1.06995 1.62067 0
M  V30 2161 C 198.291 -1.55274 3.10656 0
M  V30 2162 C 197.245 -1.04855 4.14957 0
M  V30 2163 C 196.571 -2.26543 4.84337 0
M  V30 2164 C 197.871 -0.112324 5.22179 0
M  V30 2165 H 199.565 0.213867 2.98635 0
M  V30 2166 H 197.111 0.104298 1.43622 0
M  V30 2167 H 199.064 -2.1358 3.63265 0
M  V30 2168 H 197.788 -2.22266 2.39302 0
M  V30 2169 H 196.447 -0.487985 3.63338 0
M  V30 2170 H 196.095 -2.92059 4.09525 0
M  V30 2171 H 195.795 -1.93466 5.54837 0
M  V30 2172 H 197.319 -2.85481 5.39753 0
M  V30 2173 H 198.733 -0.603752 5.70112 0
M  V30 2174 H 197.13 0.128968 5.99961 0
M  V30 2175 H 198.2 0.837052 4.77621 0
M  V30 2176 N 199.544 -1.57102 0.125237 0
M  V30 2177 C 200.494 -2.12202 -0.833936 0
M  V30 2178 C 201.478 -1.04433 -1.22403 0
M  V30 2179 O 202.67 -1.30655 -1.19408 0
M  V30 2180 C 199.799 -2.72994 -2.08157 0
M  V30 2181 C 198.885 -3.87852 -1.71556 0
M  V30 2182 N 199.276 -4.9464 -1.05662 0
M  V30 2183 C 197.574 -3.98153 -2.00973 0
M  V30 2184 C 198.275 -5.74953 -0.883376 0
M  V30 2185 N 197.251 -5.24985 -1.41036 0
M  V30 2186 H 201.053 -2.92141 -0.321035 0
M  V30 2187 H 198.567 -1.62217 -0.0770315 0
M  V30 2188 H 200.564 -3.10816 -2.77847 0
M  V30 2189 H 199.224 -1.9452 -2.59985 0
M  V30 2190 H 200.235 -5.12872 -0.719878 0
M  V30 2191 H 196.912 -3.30728 -2.54804 0
M  V30 2192 H 198.302 -6.70904 -0.365675 0
M  V30 2193 N 201.022 0.148545 -1.56898 0
M  V30 2194 C 202.271 0.85984 -1.82454 0
M  V30 2195 C 202.584 1.82406 -0.706229 0
M  V30 2196 O 203.79 2.57938 -0.847349 0
M  V30 2197 C 202.246 1.57967 -3.2338 0
M  V30 2198 C 201.854 0.65794 -4.43142 0
M  V30 2199 C 203.598 2.27784 -3.58211 0
M  V30 2200 C 201.505 1.3793 -5.75091 0
M  V30 2201 H 200.435 0.324834 -0.68044 0
M  V30 2202 H 203.086 0.112588 -1.83154 0
M  V30 2203 H 201.468 2.37249 -3.17063 0
M  V30 2204 H 202.642 -0.0995497 -4.60692 0
M  V30 2205 H 200.957 0.0682643 -4.16344 0
M  V30 2206 H 203.554 2.8239 -4.54048 0
M  V30 2207 H 203.897 3.04204 -2.84193 0
M  V30 2208 H 204.43 1.55421 -3.66182 0
M  V30 2209 H 201.169 0.656982 -6.52199 0
M  V30 2210 H 200.689 2.10954 -5.61479 0
M  V30 2211 H 202.368 1.92063 -6.17835 0
M  V30 2212 N 202.5 1.5196 0.417844 0
M  V30 2213 C 203.463 1.74065 1.49111 0
M  V30 2214 C 204.463 0.610537 1.48758 0
M  V30 2215 O 205.653 0.87832 1.50437 0
M  V30 2216 C 202.785 1.81502 2.88565 0
M  V30 2217 H 203.978 2.69869 1.30807 0
M  V30 2218 H 201.531 1.42244 0.647785 0
M  V30 2219 H 202.266 0.875813 3.1225 0
M  V30 2220 H 202.051 2.63651 2.90225 0
M  V30 2221 H 203.541 2.00376 3.66387 0
M  V30 2222 N 203.978 -0.674533 1.42435 0
M  V30 2223 C 205.224 -1.43671 1.43131 0
M  V30 2224 C 205.557 -1.94142 0.0476021 0
M  V30 2225 O 204.832 -1.70924 -0.928188 0
M  V30 2226 C 205.115 -2.63355 2.45594 0
M  V30 2227 C 204.968 -2.18514 3.93156 0
M  V30 2228 C 206.287 -3.65571 2.45043 0
M  V30 2229 H 203.406 -0.521077 0.521198 0
M  V30 2230 H 206.048 -0.766551 1.7385 0
M  V30 2231 H 204.198 -3.2053 2.19528 0
M  V30 2232 H 205.87 -1.66504 4.30202 0
M  V30 2233 H 204.113 -1.50086 4.07009 0
M  V30 2234 H 204.784 -3.04484 4.60428 0
M  V30 2235 H 207.26 -3.18113 2.68223 0
M  V30 2236 H 206.136 -4.46893 3.18713 0
M  V30 2237 H 206.397 -4.16716 1.47649 0
M  V30 2238 N 205.456 -1.28612 -0.910864 0
M  V30 2239 C 206.388 -1.08589 -2.01844 0
M  V30 2240 C 207.401 -0.0367419 -1.62759 0
M  V30 2241 O 208.59 -0.280101 -1.76289 0
M  V30 2242 C 205.69 -0.628626 -3.33019 0
M  V30 2243 C 204.863 -1.75382 -4.00699 0
M  V30 2244 C 203.922 -1.28945 -5.10156 0
M  V30 2245 O 202.948 -1.9922 -5.33198 0
M  V30 2246 N 204.15 -0.154224 -5.80295 0
M  V30 2247 H 206.915 -2.03973 -2.19579 0
M  V30 2248 H 204.476 -1.20403 -1.08234 0
M  V30 2249 H 206.468 -0.301508 -4.03575 0
M  V30 2250 H 205.038 0.232451 -3.11735 0
M  V30 2251 H 204.258 -2.25039 -3.23653 0
M  V30 2252 H 205.546 -2.50854 -4.42662 0
M  V30 2253 H 204.944 0.43194 -5.64049 0
M  V30 2254 H 203.501 0.113599 -6.51701 0
M  V30 2255 N 206.934 1.1197 -1.10907 0
M  V30 2256 C 208.182 1.83225 -0.852819 0
M  V30 2257 C 208.503 1.84769 0.623341 0
M  V30 2258 O 207.773 1.3143 1.45269 0
M  V30 2259 H 206.353 0.67849 -0.312507 0
M  V30 2260 H 209.015 1.3556 -1.40033 0
M  V30 2261 H 208.111 2.87265 -1.22005 0
M  V30 2262 N 208.412 0.89855 1.29475 0
M  V30 2263 C 209.345 0.319981 2.25945 0
M  V30 2264 C 210.323 -0.567189 1.52387 0
M  V30 2265 O 211.507 -0.514254 1.8135 0
M  V30 2266 C 208.634 -0.544013 3.34303 0
M  V30 2267 C 207.68 0.275682 4.25608 0
M  V30 2268 S 208.513 1.67272 5.08704 0
M  V30 2269 C 209.669 0.815621 6.20563 0
M  V30 2270 H 209.902 1.13767 2.74671 0
M  V30 2271 H 207.435 0.69882 1.3768 0
M  V30 2272 H 209.393 -1.03673 3.97193 0
M  V30 2273 H 208.054 -1.33593 2.84274 0
M  V30 2274 H 207.247 -0.384263 5.02533 0
M  V30 2275 H 206.849 0.701496 3.67362 0
M  V30 2276 H 209.141 0.0385042 6.77489 0
M  V30 2277 H 210.084 1.55691 6.90772 0
M  V30 2278 H 210.492 0.370516 5.63283 0
M  V30 2279 N 209.89 -1.43072 0.660911 0
M  V30 2280 C 210.838 -2.32569 -0.0378199 0
M  V30 2281 C 211.832 -1.49046 -0.805092 0
M  V30 2282 O 213.038 -1.65206 -0.714624 0
M  V30 2283 H 209.413 -0.75136 -0.031019 0
M  V30 2284 H 211.384 -2.89216 0.734609 0
M  V30 2285 C 210.133 -3.33453 -0.985124 0
M  V30 2286 H 209.456 -3.97752 -0.404147 0
M  V30 2287 H 210.896 -3.98691 -1.44297 0
M  V30 2288 C 209.355 -2.64642 -2.08486 0
M  V30 2289 O 209.885 -2.46776 -3.16961 0
M  V30 2290 N 208.091 -2.23891 -1.8526 0
M  V30 2291 H 207.638 -2.38621 -0.970449 0
M  V30 2292 H 207.596 -1.78181 -2.59034 0
M  V30 2293 N 211.368 -0.403325 -1.52352 0
M  V30 2294 C 212.316 0.439752 -2.28405 0
M  V30 2295 C 213.31 1.05089 -1.32863 0
M  V30 2296 O 214.516 0.989759 -1.50345 0
M  V30 2297 H 210.891 0.160587 -0.734653 0
M  V30 2298 H 212.862 -0.222983 -2.97566 0
M  V30 2299 C 211.611 1.54736 -3.11371 0
M  V30 2300 H 210.934 1.08643 -3.84755 0
M  V30 2301 H 212.374 2.1112 -3.67701 0
M  V30 2302 C 210.833 2.51141 -2.24566 0
M  V30 2303 O 211.363 3.54887 -1.88196 0
M  V30 2304 N 209.569 2.21213 -1.8845 0
M  V30 2305 H 209.116 1.36878 -2.18225 0
M  V30 2306 H 209.074 2.85963 -1.30662 0
M  V30 2307 N 212.846 1.57033 -0.133567 0
M  V30 2308 C 213.756 2.19632 0.824564 0
M  V30 2309 C 214.772 1.17666 1.28182 0
M  V30 2310 O 215.948 1.50193 1.3418 0
M  V30 2311 C 213.013 2.79499 2.05137 0
M  V30 2312 C 212.074 3.96548 1.64464 0
M  V30 2313 C 211.307 4.5355 2.81297 0
M  V30 2314 O 211.53 4.09438 3.97136 0
M  V30 2315 O 210.464 5.44018 2.57542 0
M  V30 2316 H 214.29 3.01991 0.321766 0
M  V30 2317 H 211.875 1.49112 0.0927889 0
M  V30 2318 H 213.757 3.17602 2.7696 0
M  V30 2319 H 212.432 2.00162 2.54395 0
M  V30 2320 H 211.339 3.63186 0.897048 0
M  V30 2321 H 212.672 4.77364 1.19934 0
M  V30 2322 N 214.325 -0.140222 1.56975 0
M  V30 2323 C 215.571 -0.852949 1.83991 0
M  V30 2324 C 215.904 -1.80512 0.716187 0
M  V30 2325 O 215.179 -1.92479 -0.279681 0
M  V30 2326 C 215.462 -1.6215 3.21527 0
M  V30 2327 C 215.315 -0.690363 4.4447 0
M  V30 2328 C 216.634 -2.58247 3.56366 0
M  V30 2329 H 213.753 -0.308634 0.669264 0
M  V30 2330 H 216.395 -0.117898 1.89634 0
M  V30 2331 H 214.545 -2.24812 3.16847 0
M  V30 2332 H 216.217 -0.0742264 4.6124 0
M  V30 2333 H 214.46 -0.000396433 4.338 0
M  V30 2334 H 215.131 -1.2643 5.37326 0
M  V30 2335 H 217.607 -2.05701 3.61699 0
M  V30 2336 H 216.483 -3.09067 4.53617 0
M  V30 2337 H 216.744 -3.39923 2.82674 0
M  V30 2338 N 215.803 -1.52179 -0.40978 0
M  V30 2339 C 216.736 -1.70196 -1.52015 0
M  V30 2340 C 217.714 -0.549542 -1.53032 0
M  V30 2341 O 218.898 -0.776815 -1.71749 0
M  V30 2342 C 216.025 -1.74069 -2.90547 0
M  V30 2343 C 215.071 -2.95601 -3.07445 0
M  V30 2344 S 215.904 -4.55956 -2.80827 0
M  V30 2345 C 217.06 -4.62614 -4.21591 0
M  V30 2346 H 217.293 -2.64109 -1.36504 0
M  V30 2347 H 214.826 -1.4221 -0.601312 0
M  V30 2348 H 216.784 -1.76985 -3.70387 0
M  V30 2349 H 215.445 -0.812835 -3.034 0
M  V30 2350 H 214.638 -2.94791 -4.08796 0
M  V30 2351 H 214.24 -2.90569 -2.35469 0
M  V30 2352 H 216.532 -4.39951 -5.15218 0
M  V30 2353 H 217.475 -5.64548 -4.27424 0
M  V30 2354 H 217.883 -3.91654 -4.06531 0
M  V30 2355 N 217.281 0.66697 -1.42791 0
M  V30 2356 C 218.228 1.7803 -1.4688 0
M  V30 2357 C 219.198 1.6299 -0.319919 0
M  V30 2358 O 220.383 1.83432 -0.525118 0
M  V30 2359 C 217.523 3.1611 -1.38451 0
M  V30 2360 C 216.636 3.42381 -2.63437 0
M  V30 2361 C 215.771 4.70232 -2.47094 0
M  V30 2362 C 214.81 4.89564 -3.67415 0
M  V30 2363 N 213.947 6.08661 -3.49966 0
M  V30 2364 H 218.787 1.7387 -2.42019 0
M  V30 2365 H 216.324 0.84868 -1.20149 0
M  V30 2366 H 218.282 3.95914 -1.31561 0
M  V30 2367 H 216.912 3.19374 -0.469033 0
M  V30 2368 H 215.964 2.56774 -2.80662 0
M  V30 2369 H 217.276 3.52557 -3.52853 0
M  V30 2370 H 216.43 5.5814 -2.37834 0
M  V30 2371 H 215.169 4.62353 -1.5518 0
M  V30 2372 H 214.174 4.00096 -3.77099 0
M  V30 2373 H 215.399 4.99282 -4.6032 0
M  V30 2374 H 213.345 6.0194 -2.60776 0
M  V30 2375 H 213.262 6.19733 -4.32975 0
M  V30 2376 H 214.53 6.99226 -3.44532 0
M  V30 2377 N 218.759 1.29093 0.90403 0
M  V30 2378 C 220.005 1.16986 1.65656 0
M  V30 2379 C 220.338 -0.278925 1.92186 0
M  V30 2380 O 219.613 -1.2019 1.5292 0
M  V30 2381 C 219.896 1.97908 3.0084 0
M  V30 2382 C 219.749 3.50903 2.81403 0
M  V30 2383 C 221.068 1.80208 4.01513 0
M  V30 2384 H 218.187 0.426346 0.601164 0
M  V30 2385 H 220.829 1.58518 1.04747 0
M  V30 2386 H 218.979 1.62616 3.52829 0
M  V30 2387 H 220.651 3.96153 2.36348 0
M  V30 2388 H 218.894 3.76045 2.1627 0
M  V30 2389 H 219.565 4.02791 3.77443 0
M  V30 2390 H 222.041 2.11025 3.58619 0
M  V30 2391 H 220.917 2.39184 4.94047 0
M  V30 2392 H 221.178 0.756119 4.35586 0
M  V30 2393 N 220.237 -1.11381 1.11499 0
M  V30 2394 C 221.167 -2.19509 0.796125 0
M  V30 2395 C 222.148 -1.68458 -0.235796 0
M  V30 2396 O 223.333 -1.93947 -0.0991344 0
M  V30 2397 C 220.463 -3.46475 0.239205 0
M  V30 2398 C 219.417 -4.10744 1.20307 0
M  V30 2399 C 218.743 -5.32293 0.50683 0
M  V30 2400 C 220.043 -4.55597 2.55399 0
M  V30 2401 H 221.737 -2.46439 1.70024 0
M  V30 2402 H 219.283 -1.18446 0.818935 0
M  V30 2403 H 221.236 -4.214 0.00392006 0
M  V30 2404 H 219.96 -3.19006 -0.700206 0
M  V30 2405 H 218.619 -3.37813 1.42399 0
M  V30 2406 H 218.267 -5.01095 -0.437408 0
M  V30 2407 H 217.967 -5.76243 1.1497 0
M  V30 2408 H 219.491 -6.09956 0.280351 0
M  V30 2409 H 220.905 -5.21841 2.37391 0
M  V30 2410 H 219.302 -5.10363 3.15673 0
M  V30 2411 H 220.372 -3.69013 3.14575 0
M  V30 2412 N 221.715 -0.905404 -1.28997 0
M  V30 2413 C 222.645 -0.404212 -2.29975 0
M  V30 2414 C 223.626 0.523784 -1.61835 0
M  V30 2415 O 224.811 0.433298 -1.89304 0
M  V30 2416 C 221.941 0.364042 -3.45387 0
M  V30 2417 C 220.895 -0.474048 -4.25367 0
M  V30 2418 C 220.221 0.422045 -5.33032 0
M  V30 2419 C 221.521 -1.72696 -4.92923 0
M  V30 2420 H 223.215 -1.24807 -2.72146 0
M  V30 2421 H 220.761 -0.601585 -1.30832 0
M  V30 2422 H 222.714 0.725447 -4.15109 0
M  V30 2423 H 221.438 1.24174 -3.02074 0
M  V30 2424 H 220.097 -0.81786 -3.57361 0
M  V30 2425 H 219.745 1.29804 -4.85963 0
M  V30 2426 H 219.445 -0.135057 -5.87445 0
M  V30 2427 H 220.969 0.779517 -6.05604 0
M  V30 2428 H 222.383 -1.43495 -5.55051 0
M  V30 2429 H 220.78 -2.22582 -5.57295 0
M  V30 2430 H 221.85 -2.45964 -4.17887 0
M  V30 2431 N 223.193 1.4272 -0.668489 0
M  V30 2432 C 224.103 2.34596 0.0139753 0
M  V30 2433 C 225.119 1.5474 0.795703 0
M  V30 2434 O 226.295 1.87334 0.739466 0
M  V30 2435 C 223.36 3.33202 0.957982 0
M  V30 2436 C 222.421 4.28957 0.17149 0
M  V30 2437 C 221.654 5.22853 1.07053 0
M  V30 2438 O 221.877 5.21531 2.31001 0
M  V30 2439 O 220.811 5.9952 0.534727 0
M  V30 2440 H 224.637 2.9448 -0.742661 0
M  V30 2441 H 222.222 1.43117 -0.428705 0
M  V30 2442 H 224.104 3.93796 1.50008 0
M  V30 2443 H 222.779 2.758 1.69458 0
M  V30 2444 H 221.686 3.71796 -0.414558 0
M  V30 2445 H 223.019 4.89383 -0.52586 0
M  V30 2446 N 224.671 0.411399 1.52136 0
M  V30 2447 C 225.621 -0.430376 2.23901 0
M  V30 2448 C 226.605 -1.0116 1.25121 0
M  V30 2449 O 227.797 -0.934044 1.50348 0
M  V30 2450 C 224.926 -1.54527 3.06556 0
M  V30 2451 C 224.012 -0.9747 4.12747 0
M  V30 2452 N 224.403 -0.130991 5.0563 0
M  V30 2453 C 222.701 -1.24497 4.28271 0
M  V30 2454 C 223.402 0.186689 5.814 0
M  V30 2455 N 222.378 -0.42304 5.41951 0
M  V30 2456 H 226.18 0.220509 2.93072 0
M  V30 2457 H 223.694 0.221952 1.60876 0
M  V30 2458 H 225.691 -2.16093 3.56524 0
M  V30 2459 H 224.351 -2.19875 2.38925 0
M  V30 2460 H 225.362 0.23349 5.17373 0
M  V30 2461 H 222.039 -1.89787 3.7187 0
M  V30 2462 H 223.429 0.871673 6.66222 0
M  V30 2463 N 226.149 -1.5696 0.141893 0
M  V30 2464 C 227.565 -1.58151 -0.21456 0
M  V30 2465 C 227.765 -1.1559 -1.65049 0
M  V30 2466 O 226.821 -0.853832 -2.37626 0
M  V30 2467 C 228.134 -3.00674 0.0395576 0
M  V30 2468 C 229.682 -3.1299 -0.0245529 0
M  V30 2469 C 230.157 -4.57554 0.202167 0
M  V30 2470 N 231.648 -4.62961 0.148919 0
M  V30 2471 C 232.383 -5.7262 0.298924 0
M  V30 2472 N 231.879 -6.90947 0.50637 0
M  V30 2473 N 233.672 -5.61601 0.236886 0
M  V30 2474 H 225.823 -1.8292 1.07953 0
M  V30 2475 H 228.086 -0.846425 0.42693 0
M  V30 2476 H 227.792 -3.36183 1.03315 0
M  V30 2477 H 227.666 -3.70981 -0.682143 0
M  V30 2478 H 230.053 -2.77326 -1.00869 0
M  V30 2479 H 230.134 -2.4518 0.729396 0
M  V30 2480 H 229.778 -4.93922 1.18338 0
M  V30 2481 H 229.708 -5.23484 -0.572044 0
M  V30 2482 H 232.199 -3.77899 -0.00697015 0
M  V30 2483 H 232.512 -7.7038 0.611076 0
M  V30 2484 H 230.857 -6.92878 0.542628 0
M  V30 2485 H 234.048 -4.68039 0.0756209 0
M  V30 2486 H 234.221 -6.47015 0.357227 0
M  V30 2487 N 227.627 0.131896 -1.57047 0
M  V30 2488 C 228.855 0.856461 -1.88341 0
M  V30 2489 C 229.27 1.74042 -0.731757 0
M  V30 2490 O 228.627 1.80051 0.297945 0
M  V30 2491 C 228.678 1.70064 -3.18999 0
M  V30 2492 O 228.399 0.852278 -4.2973 0
M  V30 2493 C 229.9 2.53148 -3.63911 0
M  V30 2494 H 227.12 0.246885 -0.62393 0
M  V30 2495 H 229.664 0.120152 -2.04147 0
M  V30 2496 H 227.819 2.38984 -3.04902 0
M  V30 2497 H 228.233 1.43329 -5.04537 0
M  V30 2498 H 229.707 3.07931 -4.58129 0
M  V30 2499 H 230.184 3.29901 -2.89935 0
M  V30 2500 H 230.79 1.89492 -3.80753 0
M  V30 2501 N 229.106 1.52395 0.401703 0
M  V30 2502 C 230.355 1.66044 1.14509 0
M  V30 2503 C 230.668 0.400216 1.91462 0
M  V30 2504 O 231.874 0.416632 2.68284 0
M  V30 2505 C 230.33 2.93388 2.0845 0
M  V30 2506 C 229.938 4.26545 1.36978 0
M  V30 2507 C 231.682 3.16402 2.83001 0
M  V30 2508 C 229.589 5.45007 2.29611 0
M  V30 2509 H 228.519 0.618562 0.431158 0
M  V30 2510 H 231.17 1.78886 0.40892 0
M  V30 2511 H 229.552 2.74263 2.8565 0
M  V30 2512 H 230.726 4.56179 0.650916 0
M  V30 2513 H 229.041 4.09692 0.74438 0
M  V30 2514 H 231.638 4.02085 3.52465 0
M  V30 2515 H 231.981 2.30943 3.46368 0
M  V30 2516 H 232.514 3.36034 2.12898 0
M  V30 2517 H 229.253 6.32835 1.70879 0
M  V30 2518 H 228.773 5.19702 2.9945 0
M  V30 2519 H 230.452 5.7838 2.89974 0
M  V30 2520 N 230.584 -0.659388 1.43143 0
M  V30 2521 C 231.861 -1.41627 1.34912 0
M  V30 2522 C 232.241 -2.11099 -0.00607785 0
M  V30 2523 O 231.589 -2.04353 -1.02236 0
M  V30 2524 C 231.799 -2.40604 2.52805 0
M  V30 2525 C 233.147 -3.04789 2.95616 0
M  V30 2526 O 234.171 -2.50932 2.52807 0
M  V30 2527 O 233.03 -4.02421 3.69756 0
M  V30 2528 H 230.124 -0.63246 0.532844 0
M  V30 2529 H 232.67 -0.686814 1.5518 0
M  V30 2530 H 231.442 -1.88174 3.43083 0
M  V30 2531 H 231.065 -3.21009 2.34604 0
M  V30 2532 N 232.062 -1.29571 -0.897171 0
M  V30 2533 C 233.308 -1.17863 -1.65034 0
M  V30 2534 C 233.641 0.268729 -1.92332 0
M  V30 2535 O 232.916 1.19378 -1.53555 0
M  V30 2536 C 233.199 -1.995 -2.99786 0
M  V30 2537 C 233.052 -3.5239 -2.79538 0
M  V30 2538 C 234.371 -1.82335 -4.00552 0
M  V30 2539 H 231.49 -0.429528 -0.598895 0
M  V30 2540 H 234.132 -1.59072 -1.03905 0
M  V30 2541 H 232.282 -1.64485 -3.51962 0
M  V30 2542 H 233.954 -3.97401 -2.34244 0
M  V30 2543 H 232.197 -3.77187 -2.14273 0
M  V30 2544 H 232.868 -4.04787 -3.75302 0
M  V30 2545 H 235.344 -2.12924 -3.57495 0
M  V30 2546 H 234.22 -2.41801 -4.92771 0
M  V30 2547 H 234.481 -0.779209 -4.35179 0
M  V30 2548 N 233.54 1.10788 -1.12088 0
M  V30 2549 C 234.488 2.19111 -0.780587 0
M  V30 2550 C 235.482 1.67818 0.230961 0
M  V30 2551 O 236.688 1.79777 0.0895427 0
M  V30 2552 H 233.063 0.714477 -0.234578 0
M  V30 2553 H 235.034 2.45055 -1.70266 0
M  V30 2554 C 233.783 3.46818 -0.24747 0
M  V30 2555 H 233.106 3.86646 -1.01712 0
M  V30 2556 H 234.546 4.23973 -0.0476291 0
M  V30 2557 C 233.005 3.20968 1.02378 0
M  V30 2558 O 233.535 3.42298 2.10226 0
M  V30 2559 N 231.741 2.74658 0.949271 0
M  V30 2560 H 231.288 2.57501 0.0715173 0
M  V30 2561 H 231.246 2.57739 1.80049 0
M  V30 2562 N 235.018 0.912232 1.28515 0
M  V30 2563 C 235.948 0.416403 2.29757 0
M  V30 2564 C 236.929 -0.515194 1.6211 0
M  V30 2565 O 238.114 -0.423253 1.89532 0
M  V30 2566 C 235.244 -0.34572 3.45575 0
M  V30 2567 C 234.198 0.496599 4.25109 0
M  V30 2568 C 233.524 -0.393771 5.33248 0
M  V30 2569 C 234.824 1.75307 4.92001 0
M  V30 2570 H 236.518 1.26249 2.7148 0
M  V30 2571 H 234.064 0.608515 1.30511 0
M  V30 2572 H 236.017 -0.703422 4.15488 0
M  V30 2573 H 234.741 -1.2257 3.02728 0
M  V30 2574 H 233.4 0.8368 3.56922 0
M  V30 2575 H 233.048 -1.27225 4.86644 0
M  V30 2576 H 232.748 0.166209 5.87365 0
M  V30 2577 H 234.272 -0.747389 6.06009 0
M  V30 2578 H 235.686 1.46437 5.54283 0
M  V30 2579 H 234.083 2.25534 5.56106 0
M  V30 2580 H 235.153 2.48176 4.16577 0
M  V30 2581 N 236.496 -1.42363 0.676048 0
M  V30 2582 C 237.406 -2.346 -0.00153389 0
M  V30 2583 C 238.422 -1.5516 -0.787485 0
M  V30 2584 O 239.598 -1.87723 -0.729521 0
M  V30 2585 C 236.663 -3.33705 -0.940298 0
M  V30 2586 C 235.724 -4.29042 -0.148739 0
M  V30 2587 C 234.957 -5.23413 -1.04279 0
M  V30 2588 O 235.18 -5.22749 -2.28232 0
M  V30 2589 O 234.114 -5.99795 -0.502925 0
M  V30 2590 H 237.94 -2.94082 0.758268 0
M  V30 2591 H 235.525 -1.42888 0.436289 0
M  V30 2592 H 237.407 -3.94586 -1.47917 0
M  V30 2593 H 236.082 -2.76695 -1.67993 0
M  V30 2594 H 234.989 -3.71571 0.43427 0
M  V30 2595 H 236.322 -4.89097 0.551805 0
M  V30 2596 N 237.974 -0.419461 -1.51915 0
M  V30 2597 C 239.222 0.152637 -2.01523 0
M  V30 2598 C 239.543 1.44762 -1.30649 0
M  V30 2599 O 238.813 1.90997 -0.435535 0
M  V30 2600 H 237.393 0.0593966 -0.744635 0
M  V30 2601 H 240.055 -0.558073 -1.86739 0
M  V30 2602 H 239.151 0.341369 -3.10227 0
M  V30 2603 N 239.452 1.56882 -0.150215 0
M  V30 2604 C 240.362 2.20494 0.801222 0
M  V30 2605 C 241.378 1.19019 1.26927 0
M  V30 2606 O 242.554 1.51607 1.32579 0
M  V30 2607 C 239.619 2.81659 2.02161 0
M  V30 2608 C 238.68 3.9827 1.60249 0
M  V30 2609 C 237.913 4.56508 2.7647 0
M  V30 2610 O 238.136 4.13627 3.92771 0
M  V30 2611 O 237.07 5.46719 2.51757 0
M  V30 2612 H 240.896 3.02315 0.289717 0
M  V30 2613 H 238.481 1.49202 0.0769684 0
M  V30 2614 H 240.363 3.20522 2.73576 0
M  V30 2615 H 239.038 2.02849 2.52258 0
M  V30 2616 H 237.945 3.64117 0.858477 0
M  V30 2617 H 239.278 4.78609 1.14864 0
M  V30 2618 N 240.93 -0.123565 1.57115 0
M  V30 2619 C 241.878 -1.17082 2.00984 0
M  V30 2620 C 242.872 -1.43136 0.906009 0
M  V30 2621 O 244.078 -1.43152 1.09121 0
M  V30 2622 H 240.453 -0.394653 0.64012 0
M  V30 2623 H 242.424 -0.774292 2.88179 0
M  V30 2624 C 241.173 -2.49057 2.42623 0
M  V30 2625 H 240.496 -2.29846 3.27125 0
M  V30 2626 H 241.936 -3.20906 2.7712 0
M  V30 2627 C 240.395 -3.11305 1.28805 0
M  V30 2628 O 240.925 -3.97171 0.60153 0
M  V30 2629 N 239.131 -2.71111 1.04628 0
M  V30 2630 H 238.678 -2.01382 1.60634 0
M  V30 2631 H 238.636 -3.1309 0.286685 0
M  V30 2632 N 242.408 -1.52605 -0.393616 0
M  V30 2633 C 243.656 -1.67093 -1.13685 0
M  V30 2634 C 243.977 -0.411011 -1.90619 0
M  V30 2635 O 243.247 0.574491 -1.87287 0
M  V30 2636 H 241.827 -0.615923 -0.422668 0
M  V30 2637 H 244.489 -1.89704 -0.447039 0
M  V30 2638 H 243.585 -2.51922 -1.84232 0
M  V30 2639 N 243.887 0.651787 -1.4349 0
M  V30 2640 C 244.835 1.78586 -1.49029 0
M  V30 2641 C 245.829 1.65448 -0.363767 0
M  V30 2642 O 247.035 1.71777 -0.537821 0
M  V30 2643 H 243.41 0.589236 -0.467231 0
M  V30 2644 H 245.381 1.71035 -2.44519 0
M  V30 2645 C 244.13 3.16851 -1.43181 0
M  V30 2646 H 243.453 3.27598 -2.29171 0
M  V30 2647 H 244.893 3.96156 -1.51118 0
M  V30 2648 C 243.352 3.36568 -0.149616 0
M  V30 2649 O 243.882 3.93885 0.788509 0
M  V30 2650 N 242.088 2.90539 -0.0593484 0
M  V30 2651 H 241.635 2.4408 -0.823575 0
M  V30 2652 H 241.593 3.04108 0.797853 0
M  V30 2653 N 245.365 1.30045 0.890287 0
M  V30 2654 C 246.593 1.21472 1.67487 0
M  V30 2655 C 247.008 -0.223241 1.87476 0
M  V30 2656 O 246.365 -1.14828 1.41847 0
M  V30 2657 C 246.416 1.93394 3.05419 0
M  V30 2658 O 246.137 3.31576 2.86337 0
M  V30 2659 C 247.638 1.91414 3.99844 0
M  V30 2660 H 244.858 0.420604 0.522813 0
M  V30 2661 H 247.402 1.7158 1.11268 0
M  V30 2662 H 245.557 1.47099 3.58386 0
M  V30 2663 H 245.971 3.67929 3.73802 0
M  V30 2664 H 247.445 2.46285 4.94012 0
M  V30 2665 H 247.922 0.891833 4.3005 0
M  V30 2666 H 248.528 2.37496 3.52811 0
M  V30 2667 N 246.843 -1.10192 1.12674 0
M  V30 2668 C 247.806 -2.14786 0.799979 0
M  V30 2669 C 248.806 -1.59711 -0.18685 0
M  V30 2670 O 249.996 -1.74156 0.0392558 0
M  V30 2671 C 247.128 -3.40374 0.189228 0
M  V30 2672 H 248.321 -2.45203 1.72671 0
M  V30 2673 H 245.874 -1.25597 0.930326 0
M  V30 2674 H 246.609 -3.15577 -0.747107 0
M  V30 2675 H 246.394 -3.81637 0.899766 0
M  V30 2676 H 247.884 -4.17594 -0.0228143 0
M  V30 2677 N 248.321 -0.919034 -1.28029 0
M  V30 2678 C 249.567 -0.555757 -1.95036 0
M  V30 2679 C 249.9 0.899198 -1.72128 0
M  V30 2680 O 249.175 1.64023 -1.04531 0
M  V30 2681 C 249.458 -0.872024 -3.49382 0
M  V30 2682 C 249.311 -2.3801 -3.81669 0
M  V30 2683 C 250.63 -0.37185 -4.38526 0
M  V30 2684 H 247.749 -0.203386 -0.708381 0
M  V30 2685 H 250.391 -1.14924 -1.51303 0
M  V30 2686 H 248.541 -0.366946 -3.86763 0
M  V30 2687 H 250.213 -2.9562 -3.54128 0
M  V30 2688 H 248.456 -2.83289 -3.28526 0
M  V30 2689 H 249.127 -2.55192 -4.8947 0
M  V30 2690 H 251.603 -0.804602 -4.08247 0
M  V30 2691 H 250.479 -0.622173 -5.45362 0
M  V30 2692 H 250.74 0.727934 -4.36066 0
M  V30 2693 N 249.799 1.42003 -0.683588 0
M  V30 2694 C 251.048 2.00638 -0.206681 0
M  V30 2695 C 251.361 1.5472 1.19671 0
M  V30 2696 O 252.567 2.05833 1.77045 0
M  V30 2697 C 251.023 3.58487 -0.318632 0
M  V30 2698 C 250.631 4.1339 -1.72663 0
M  V30 2699 C 252.375 4.24384 0.0991141 0
M  V30 2700 C 250.282 5.63633 -1.79087 0
M  V30 2701 H 249.212 0.750408 -0.0735107 0
M  V30 2702 H 251.863 1.62624 -0.850048 0
M  V30 2703 H 250.245 3.94047 0.392781 0
M  V30 2704 H 251.419 3.89273 -2.46583 0
M  V30 2705 H 249.734 3.59976 -2.09299 0
M  V30 2706 H 252.331 5.34652 0.0713833 0
M  V30 2707 H 252.674 4.00505 1.13586 0
M  V30 2708 H 253.207 3.93816 -0.561599 0
M  V30 2709 H 249.946 5.92323 -2.80774 0
M  V30 2710 H 249.466 5.89714 -1.09535 0
M  V30 2711 H 251.145 6.28201 -1.5483 0
M  V30 2712 N 251.277 0.427512 1.51691 0
M  V30 2713 C 252.526 -0.143679 2.01188 0
M  V30 2714 C 252.839 -1.44642 1.31674 0
M  V30 2715 O 254.045 -2.09997 1.72086 0
M  V30 2716 C 252.501 -0.306602 3.58592 0
M  V30 2717 C 252.109 0.985125 4.37035 0
M  V30 2718 C 253.853 -0.832091 4.16265 0
M  V30 2719 C 251.76 0.788382 5.86122 0
M  V30 2720 H 250.69 -0.0574701 0.751807 0
M  V30 2721 H 253.341 0.555772 1.74881 0
M  V30 2722 H 251.723 -1.06882 3.81303 0
M  V30 2723 H 252.897 1.75492 4.26074 0
M  V30 2724 H 251.212 1.4384 3.90767 0
M  V30 2725 H 253.809 -0.995617 5.25349 0
M  V30 2726 H 254.152 -1.81186 3.74803 0
M  V30 2727 H 254.685 -0.128444 3.97593 0
M  V30 2728 H 251.424 1.74025 6.31978 0
M  V30 2729 H 250.944 0.0582143 5.99772 0
M  V30 2730 H 252.623 0.437722 6.45518 0
M  V30 2731 N 252.755 -1.56801 0.158532 0
M  V30 2732 C 253.718 -2.16138 -0.762705 0
M  V30 2733 C 254.718 -1.1061 -1.16713 0
M  V30 2734 O 255.908 -1.36191 -1.08617 0
M  V30 2735 C 253.04 -2.73386 -2.03649 0
M  V30 2736 H 254.233 -2.98886 -0.246354 0
M  V30 2737 H 251.786 -1.56035 -0.0909744 0
M  V30 2738 H 252.521 -1.94335 -2.59623 0
M  V30 2739 H 252.306 -3.50601 -1.75559 0
M  V30 2740 H 253.796 -3.19065 -2.6942 0
M  V30 2741 N 254.233 0.115231 -1.57178 0
M  V30 2742 C 255.473 0.828199 -1.8687 0
M  V30 2743 C 255.837 1.76873 -0.747002 0
M  V30 2744 O 257.038 2.52354 -0.925785 0
M  V30 2745 C 255.309 1.55515 -3.21792 0
M  V30 2746 S 256.868 2.30917 -3.73125 0
M  V30 2747 H 253.686 0.27634 -0.655101 0
M  V30 2748 H 256.288 0.0863469 -1.95309 0
M  V30 2749 H 254.992 0.856248 -4.01368 0
M  V30 2750 H 254.523 2.3373 -3.16439 0
M  V30 2751 H 256.538 3.56705 -3.44929 0
M  V30 2752 N 255.711 1.52812 0.385517 0
M  V30 2753 C 256.939 1.71907 1.15133 0
M  V30 2754 C 257.354 0.439004 1.83625 0
M  V30 2755 O 256.711 -0.586765 1.7281 0
M  V30 2756 C 256.762 2.87099 2.19673 0
M  V30 2757 O 256.483 4.10151 1.53973 0
M  V30 2758 C 257.984 3.17902 3.08955 0
M  V30 2759 H 255.204 0.575479 0.345057 0
M  V30 2760 H 257.748 1.99476 0.45052 0
M  V30 2761 H 255.903 2.61982 2.85384 0
M  V30 2762 H 256.317 4.74514 2.23465 0
M  V30 2763 H 257.791 4.01959 3.7833 0
M  V30 2764 H 258.268 2.3243 3.72657 0
M  V30 2765 H 258.874 3.44871 2.48885 0
M  V30 2766 N 257.189 -0.644168 1.43834 0
M  V30 2767 C 258.417 -1.43147 1.49387 0
M  V30 2768 C 258.832 -1.88452 0.114583 0
M  V30 2769 O 258.189 -1.60047 -0.876989 0
M  V30 2770 C 258.24 -2.66046 2.44748 0
M  V30 2771 O 257.961 -2.22633 3.77314 0
M  V30 2772 C 259.462 -3.59311 2.59635 0
M  V30 2773 H 256.682 -0.439447 0.507077 0
M  V30 2774 H 259.226 -0.78895 1.88669 0
M  V30 2775 H 257.381 -3.26418 2.08638 0
M  V30 2776 H 257.795 -3.02216 4.28679 0
M  V30 2777 H 259.269 -4.42187 3.30416 0
M  V30 2778 H 259.746 -4.07259 1.64427 0
M  V30 2779 H 260.352 -3.04816 2.96593 0
M  V30 2780 N 258.668 -1.30515 -0.883378 0
M  V30 2781 C 259.616 -1.16941 -2.01066 0
M  V30 2782 C 260.61 -0.0809148 -1.69207 0
M  V30 2783 O 261.816 -0.241877 -1.78367 0
M  V30 2784 H 258.191 -0.361705 -0.659298 0
M  V30 2785 H 260.162 -2.12344 -2.09649 0
M  V30 2786 C 258.911 -0.879694 -3.36388 0
M  V30 2787 H 258.234 -1.70936 -3.61415 0
M  V30 2788 H 259.674 -0.82483 -4.159 0
M  V30 2789 C 258.133 0.417409 -3.34304 0
M  V30 2790 O 258.663 1.43843 -3.75063 0
M  V30 2791 N 256.869 0.429141 -2.87414 0
M  V30 2792 H 256.416 -0.402222 -2.5444 0
M  V30 2793 H 256.374 1.29696 -2.86403 0
M  V30 2794 N 260.146 1.09593 -1.13257 0
M  V30 2795 C 261.094 2.18271 -0.803783 0
M  V30 2796 C 262.088 1.68054 0.213148 0
M  V30 2797 O 263.294 1.79862 0.0704699 0
M  V30 2798 H 259.669 0.711949 -0.242143 0
M  V30 2799 H 261.64 2.43235 -1.72856 0
M  V30 2800 C 260.389 3.46536 -0.28424 0
M  V30 2801 H 259.712 3.85545 -1.05807 0
M  V30 2802 H 261.152 4.23899 -0.0925945 0
M  V30 2803 C 259.611 3.22036 0.989684 0
M  V30 2804 O 260.141 3.44509 2.06584 0
M  V30 2805 N 258.347 2.7565 0.920086 0
M  V30 2806 H 257.894 2.57562 0.0442019 0
M  V30 2807 H 257.852 2.59635 1.77306 0
M  V30 2808 N 261.624 0.925811 1.2754 0
M  V30 2809 C 262.849 0.580924 1.99098 0
M  V30 2810 C 263.274 -0.833555 1.68622 0
M  V30 2811 O 262.632 -1.55903 0.925422 0
M  V30 2812 C 262.68 0.811186 3.51358 0
M  V30 2813 O 261.784 -0.124129 4.12213 0
M  V30 2814 H 261.125 0.223873 0.625122 0
M  V30 2815 H 263.655 1.24455 1.62395 0
M  V30 2816 H 263.665 0.72601 4.01489 0
M  V30 2817 H 262.34 1.84227 3.72872 0
M  V30 2818 H 260.917 0.0108006 3.72898 0
M  V30 2819 N 263.102 -1.41638 0.69111 0
M  V30 2820 C 264.012 -2.34588 0.0233487 0
M  V30 2821 C 265.028 -1.55987 -0.770984 0
M  V30 2822 O 266.204 -1.88486 -0.709569 0
M  V30 2823 C 263.269 -3.34684 -0.904851 0
M  V30 2824 C 262.33 -4.29176 -0.103225 0
M  V30 2825 C 261.563 -5.2449 -0.987216 0
M  V30 2826 O 261.786 -5.2514 -2.22674 0
M  V30 2827 O 260.72 -6.00295 -0.439281 0
M  V30 2828 H 264.546 -2.93261 0.789416 0
M  V30 2829 H 262.131 -1.42417 0.45142 0
M  V30 2830 H 264.013 -3.96133 -1.43724 0
M  V30 2831 H 262.688 -2.78461 -1.65049 0
M  V30 2832 H 261.595 -3.71089 0.473655 0
M  V30 2833 H 262.928 -4.88484 0.60365 0
M  V30 2834 N 264.58 -0.43555 -1.51462 0
M  V30 2835 C 265.543 0.365137 -2.26273 0
M  V30 2836 C 266.543 0.951227 -1.29647 0
M  V30 2837 O 267.733 0.825958 -1.53374 0
M  V30 2838 C 264.865 1.51645 -3.05314 0
M  V30 2839 H 266.058 -0.290474 -2.9849 0
M  V30 2840 H 263.611 -0.188676 -1.55157 0
M  V30 2841 H 264.346 2.20816 -2.3751 0
M  V30 2842 H 264.131 1.10238 -3.76284 0
M  V30 2843 H 265.621 2.08218 -3.61987 0
M  V30 2844 N 266.058 1.56714 -0.166846 0
M  V30 2845 C 266.988 2.20754 0.760913 0
M  V30 2846 C 267.969 1.16178 1.24244 0
M  V30 2847 O 269.154 1.44592 1.29641 0
M  V30 2848 C 266.284 2.84478 1.99223 0
M  V30 2849 C 265.238 3.95053 1.64672 0
M  V30 2850 C 264.564 4.45805 2.95232 0
M  V30 2851 C 265.864 5.14865 0.878155 0
M  V30 2852 H 267.558 2.98537 0.22713 0
M  V30 2853 H 265.104 1.43596 0.107805 0
M  V30 2854 H 267.057 3.27951 2.64624 0
M  V30 2855 H 265.781 2.04056 2.55007 0
M  V30 2856 H 264.44 3.52228 1.01641 0
M  V30 2857 H 264.088 3.62181 3.49047 0
M  V30 2858 H 263.788 5.204 2.7287 0
M  V30 2859 H 265.312 4.91962 3.6167 0
M  V30 2860 H 266.726 5.55059 1.43466 0
M  V30 2861 H 265.123 5.95348 0.753738 0
M  V30 2862 H 266.193 4.84735 -0.126377 0
M  V30 2863 N 267.536 -0.106894 1.57237 0
M  V30 2864 C 268.468 -1.15646 1.97885 0
M  V30 2865 C 269.481 -1.36981 0.879779 0
M  V30 2866 O 270.67 -1.35841 1.15799 0
M  V30 2867 C 267.77 -2.51425 2.27241 0
M  V30 2868 C 266.943 -2.50529 3.58545 0
M  V30 2869 C 266.002 -3.68145 3.75973 0
M  V30 2870 O 265.028 -3.51176 4.47956 0
M  V30 2871 N 266.23 -4.87177 3.15656 0
M  V30 2872 H 268.995 -0.81059 2.8853 0
M  V30 2873 H 266.556 -0.296024 1.59171 0
M  V30 2874 H 268.548 -3.28689 2.36105 0
M  V30 2875 H 267.118 -2.78147 1.42663 0
M  V30 2876 H 266.338 -1.58894 3.60758 0
M  V30 2877 H 267.626 -2.46997 4.44826 0
M  V30 2878 H 267.024 -5.03868 2.57165 0
M  V30 2879 H 265.581 -5.62075 3.30023 0
M  V30 2880 N 269.014 -1.53014 -0.377408 0
M  V30 2881 C 270.263 -1.67845 -1.11853 0
M  V30 2882 C 270.576 -0.430625 -1.90801 0
M  V30 2883 O 271.782 -0.459261 -2.67587 0
M  V30 2884 C 270.238 -2.96668 -2.03756 0
M  V30 2885 C 269.846 -4.28671 -1.30175 0
M  V30 2886 C 271.59 -3.20865 -2.77932 0
M  V30 2887 C 269.497 -5.48591 -2.20911 0
M  V30 2888 H 268.427 -0.625343 -0.421263 0
M  V30 2889 H 271.078 -1.79514 -0.380409 0
M  V30 2890 H 269.46 -2.78773 -2.8125 0
M  V30 2891 H 270.634 -4.57157 -0.578259 0
M  V30 2892 H 268.949 -4.10825 -0.679108 0
M  V30 2893 H 271.546 -4.07642 -3.46024 0
M  V30 2894 H 271.889 -2.36424 -3.4265 0
M  V30 2895 H 272.422 -3.39379 -2.07525 0
M  V30 2896 H 269.161 -6.35474 -1.6079 0
M  V30 2897 H 268.681 -5.244 -2.91144 0
M  V30 2898 H 270.36 -5.8292 -2.80736 0
M  V30 2899 N 270.492 0.636531 -1.44174 0
M  V30 2900 C 271.422 1.76003 -1.53444 0
M  V30 2901 C 272.403 1.65619 -0.387841 0
M  V30 2902 O 273.588 1.84461 -0.607257 0
M  V30 2903 C 270.718 3.14511 -1.4731 0
M  V30 2904 C 269.672 3.39677 -2.60391 0
M  V30 2905 C 268.998 4.78159 -2.39308 0
M  V30 2906 C 270.298 3.32772 -4.02567 0
M  V30 2907 H 271.992 1.68501 -2.47483 0
M  V30 2908 H 269.538 0.809237 -1.19111 0
M  V30 2909 H 271.491 3.92878 -1.52397 0
M  V30 2910 H 270.215 3.22783 -0.49785 0
M  V30 2911 H 268.874 2.63688 -2.54684 0
M  V30 2912 H 268.522 4.83128 -1.39988 0
M  V30 2913 H 268.222 4.95956 -3.15122 0
M  V30 2914 H 269.746 5.58762 -2.46205 0
M  V30 2915 H 271.16 4.01051 -4.09672 0
M  V30 2916 H 269.557 3.62104 -4.7854 0
M  V30 2917 H 270.627 2.30669 -4.2652 0
M  V30 2918 N 271.97 1.30982 0.876444 0
M  V30 2919 C 272.9 1.20668 1.99903 0
M  V30 2920 C 273.881 0.095354 1.69833 0
M  V30 2921 O 275.066 0.27885 1.92188 0
M  V30 2922 C 272.196 0.90655 3.3526 0
M  V30 2923 C 271.15 1.97675 3.79617 0
M  V30 2924 C 270.476 1.52943 5.1236 0
M  V30 2925 C 271.776 3.389 3.97422 0
M  V30 2926 H 273.47 2.14586 2.0879 0
M  V30 2927 H 271.016 1.03308 1.00317 0
M  V30 2928 H 272.969 0.821025 4.13324 0
M  V30 2929 H 271.693 -0.0682969 3.26529 0
M  V30 2930 H 270.352 2.05205 3.03787 0
M  V30 2931 H 270 0.54262 5.00065 0
M  V30 2932 H 269.7 2.24532 5.43009 0
M  V30 2933 H 271.224 1.45786 5.92941 0
M  V30 2934 H 272.638 3.34081 4.659 0
M  V30 2935 H 271.035 4.0865 4.3946 0
M  V30 2936 H 272.105 3.80163 3.01006 0
M  V30 2937 N 273.449 -1.08991 1.13837 0
M  V30 2938 C 274.396 -2.15748 0.819835 0
M  V30 2939 C 275.366 -1.64636 -0.220026 0
M  V30 2940 O 276.551 -1.90582 -0.0912757 0
M  V30 2941 C 273.691 -3.4382 0.296913 0
M  V30 2942 C 272.804 -4.0881 1.39636 0
M  V30 2943 C 271.939 -5.24655 0.831314 0
M  V30 2944 C 270.978 -5.81575 1.90886 0
M  V30 2945 N 270.115 -6.88774 1.36142 0
M  V30 2946 H 274.955 -2.42338 1.73426 0
M  V30 2947 H 272.492 -1.18935 0.865613 0
M  V30 2948 H 274.45 -4.17193 -0.0244339 0
M  V30 2949 H 273.08 -3.17535 -0.580628 0
M  V30 2950 H 272.132 -3.33258 1.83422 0
M  V30 2951 H 273.444 -4.47141 2.21058 0
M  V30 2952 H 272.598 -6.04942 0.461515 0
M  V30 2953 H 271.337 -4.87698 -0.013932 0
M  V30 2954 H 270.342 -4.99946 2.28767 0
M  V30 2955 H 271.567 -6.20592 2.75758 0
M  V30 2956 H 269.513 -6.53788 0.538254 0
M  V30 2957 H 269.43 -7.25898 2.11208 0
M  V30 2958 H 270.698 -7.72806 1.01933 0
M  V30 2959 N 274.927 -0.932562 -1.27047 0
M  V30 2960 C 275.874 -0.434072 -2.26681 0
M  V30 2961 C 276.844 0.501639 -1.58344 0
M  V30 2962 O 278.029 0.419734 -1.86126 0
M  V30 2963 C 275.169 0.30261 -3.43771 0
M  V30 2964 C 274.282 -0.667774 -4.26808 0
M  V30 2965 C 273.417 0.0892393 -5.31125 0
M  V30 2966 C 272.456 -0.873532 -6.05835 0
M  V30 2967 N 271.593 -0.148832 -7.01942 0
M  V30 2968 H 276.433 -1.28868 -2.68695 0
M  V30 2969 H 273.97 -0.646713 -1.32121 0
M  V30 2970 H 275.928 0.746092 -4.10474 0
M  V30 2971 H 274.558 1.12142 -3.02695 0
M  V30 2972 H 273.61 -1.22978 -3.59973 0
M  V30 2973 H 274.922 -1.40337 -4.78651 0
M  V30 2974 H 274.076 0.592409 -6.03801 0
M  V30 2975 H 272.815 0.85777 -4.80097 0
M  V30 2976 H 271.82 -1.38791 -5.31994 0
M  V30 2977 H 273.045 -1.64193 -6.58952 0
M  V30 2978 H 270.991 0.601365 -6.53238 0
M  V30 2979 H 270.908 -0.82391 -7.51497 0
M  V30 2980 H 272.176 0.333527 -7.78786 0
M  V30 2981 N 276.405 1.4127 -0.698611 0
M  V30 2982 C 277.653 2.00782 -0.230409 0
M  V30 2983 C 277.974 1.5562 1.17505 0
M  V30 2984 O 277.244 0.78815 1.79346 0
M  V30 2985 H 275.824 0.742464 -0.0821944 0
M  V30 2986 H 278.486 1.72852 -0.90045 0
M  V30 2987 H 277.582 3.11095 -0.25021 0
M  V30 2988 N 277.883 0.443576 1.51229 0
M  V30 2989 C 278.846 -0.353132 2.26463 0
M  V30 2990 C 279.846 -0.944338 1.3015 0
M  V30 2991 O 281.036 -0.817813 1.5381 0
M  V30 2992 C 278.168 -1.50023 3.06114 0
M  V30 2993 H 279.361 0.3063 2.98332 0
M  V30 2994 H 276.914 0.196902 1.55055 0
M  V30 2995 H 277.649 -2.19553 2.38677 0
M  V30 2996 H 277.434 -1.08241 3.76864 0
M  V30 2997 H 278.924 -2.06296 3.63087 0
M  V30 2998 N 279.361 -1.56624 0.175154 0
M  V30 2999 C 280.308 -2.18149 -0.753634 0
M  V30 3000 C 281.278 -1.12265 -1.22417 0
M  V30 3001 O 282.463 -1.40432 -1.29165 0
M  V30 3002 C 279.603 -2.82933 -1.97592 0
M  V30 3003 C 278.716 -4.03289 -1.5486 0
M  V30 3004 C 277.851 -4.55988 -2.72485 0
M  V30 3005 C 276.89 -5.68746 -2.26262 0
M  V30 3006 N 276.027 -6.15938 -3.36994 0
M  V30 3007 H 280.867 -2.9717 -0.222195 0
M  V30 3008 H 278.404 -1.46774 -0.0979422 0
M  V30 3009 H 280.362 -3.18653 -2.69288 0
M  V30 3010 H 278.992 -2.06509 -2.481 0
M  V30 3011 H 278.044 -3.73364 -0.728246 0
M  V30 3012 H 279.356 -4.849 -1.16933 0
M  V30 3013 H 278.51 -4.9391 -3.52332 0
M  V30 3014 H 277.249 -3.73443 -3.13674 0
M  V30 3015 H 276.254 -5.30372 -1.44863 0
M  V30 3016 H 277.479 -6.53095 -1.86127 0
M  V30 3017 H 275.425 -5.36321 -3.77751 0
M  V30 3018 H 275.342 -6.92548 -3.03172 0
M  V30 3019 H 276.61 -6.58511 -4.17114 0
M  V30 3020 N 280.839 0.0985539 -1.57292 0
M  V30 3021 C 282.25 0.653457 -1.74891 0
M  V30 3022 C 282.601 1.7929 -0.796838 0
M  V30 3023 O 281.726 2.16385 0.0254886 0
M  V30 3024 C 282.321 1.19216 -3.17133 0
M  V30 3025 C 280.88 1.69316 -3.36168 0
M  V30 3026 C 280.027 0.601294 -2.70702 0
M  V30 3027 H 282.978 -0.127497 -1.58187 0
M  V30 3028 H 282.999 2.06154 -3.19814 0
M  V30 3029 H 282.511 0.362635 -3.86402 0
M  V30 3030 H 280.612 2.5468 -2.71972 0
M  V30 3031 H 280.725 1.78853 -4.44464 0
M  V30 3032 H 279.089 1.0399 -2.32504 0
M  V30 3033 H 279.872 -0.217592 -3.4261 0
M  V30 3034 N 282.317 1.53212 0.369288 0
M  V30 3035 C 283.557 1.70915 1.12105 0
M  V30 3036 C 283.921 0.449444 1.86665 0
M  V30 3037 O 285.122 0.503105 2.6405 0
M  V30 3038 C 283.393 2.9222 2.05772 0
M  V30 3039 S 284.952 3.30609 2.88519 0
M  V30 3040 H 281.77 0.601445 0.379189 0
M  V30 3041 H 284.372 1.91306 0.402794 0
M  V30 3042 H 283.076 3.82103 1.49752 0
M  V30 3043 H 282.607 2.7422 2.82076 0
M  V30 3044 H 284.622 2.82333 4.08047 0
M  V30 3045 N 283.795 -0.628877 1.44509 0
M  V30 3046 C 284.742 -1.74074 1.51549 0
M  V30 3047 C 285.712 -1.62084 0.363021 0
M  V30 3048 O 286.897 -1.81975 0.573567 0
M  V30 3049 C 284.037 -3.12328 1.46784 0
M  V30 3050 C 283.15 -3.35277 2.72422 0
M  V30 3051 C 282.285 -4.63515 2.59475 0
M  V30 3052 C 281.324 -4.7965 3.80266 0
M  V30 3053 N 280.461 -5.99168 3.65981 0
M  V30 3054 H 285.301 -1.67392 2.46544 0
M  V30 3055 H 282.838 -0.816527 1.22357 0
M  V30 3056 H 284.796 -3.92286 1.42012 0
M  V30 3057 H 283.426 -3.18018 0.553544 0
M  V30 3058 H 282.478 -2.49242 2.87372 0
M  V30 3059 H 283.79 -3.43078 3.62076 0
M  V30 3060 H 282.944 -5.51638 2.52548 0
M  V30 3061 H 281.683 -4.58076 1.67384 0
M  V30 3062 H 280.688 -3.89957 3.87574 0
M  V30 3063 H 281.913 -4.86902 4.73395 0
M  V30 3064 H 279.859 -5.94814 2.76644 0
M  V30 3065 H 279.776 -6.08035 4.49254 0
M  V30 3066 H 281.044 -6.89846 3.6295 0
M  V30 3067 N 285.273 -1.31445 -0.869486 0
M  V30 3068 C 286.498 -1.24256 -1.66058 0
M  V30 3069 C 286.923 0.188928 -1.87149 0
M  V30 3070 O 286.281 1.13522 -1.4136 0
M  V30 3071 C 286.329 -1.9924 -3.00559 0
M  V30 3072 O 285.433 -1.33007 -3.90362 0
M  V30 3073 H 284.774 -0.428973 -0.506831 0
M  V30 3074 H 287.304 -1.73521 -1.08404 0
M  V30 3075 H 287.314 -2.08854 -3.50491 0
M  V30 3076 H 285.989 -3.03342 -2.84528 0
M  V30 3077 H 284.566 -1.31848 -3.48813 0
M  V30 3078 N 286.751 1.08385 -1.14413 0
M  V30 3079 C 287.699 2.17406 -0.826888 0
M  V30 3080 C 288.693 1.6827 0.195312 0
M  V30 3081 O 289.899 1.79927 0.0513892 0
M  V30 3082 H 286.274 0.70934 -0.249681 0
M  V30 3083 H 288.245 2.41388 -1.75426 0
M  V30 3084 C 286.994 3.46215 -0.320979 0
M  V30 3085 H 286.317 3.84401 -1.0989 0
M  V30 3086 H 287.757 4.23777 -0.137549 0
M  V30 3087 C 286.216 3.23067 0.955472 0
M  V30 3088 O 286.746 3.4668 2.02918 0
M  V30 3089 N 284.952 2.7661 0.890798 0
M  V30 3090 H 284.499 2.57594 0.0168815 0
M  V30 3091 H 284.457 2.61501 1.74542 0
M  V30 3092 N 288.23 0.939286 1.26551 0
M  V30 3093 C 289.177 0.446088 2.26448 0
M  V30 3094 C 290.147 -0.493234 1.58608 0
M  V30 3095 O 291.332 -0.409857 1.86346 0
M  V30 3096 C 288.472 -0.284375 3.43926 0
M  V30 3097 C 287.585 0.690399 4.26448 0
M  V30 3098 C 286.72 -0.0610712 5.31165 0
M  V30 3099 C 285.759 0.905649 6.05363 0
M  V30 3100 N 284.896 0.186055 7.01853 0
M  V30 3101 H 289.736 1.30291 2.68008 0
M  V30 3102 H 287.273 0.65371 1.31776 0
M  V30 3103 H 289.231 -0.724313 4.10864 0
M  V30 3104 H 287.861 -1.10535 3.03285 0
M  V30 3105 H 286.913 1.24885 3.59316 0
M  V30 3106 H 288.225 1.42873 4.779 0
M  V30 3107 H 287.379 -0.56038 6.04106 0
M  V30 3108 H 286.118 -0.832297 4.80546 0
M  V30 3109 H 285.123 1.4161 5.3125 0
M  V30 3110 H 286.348 1.67685 6.58072 0
M  V30 3111 H 284.294 -0.566714 6.53548 0
M  V30 3112 H 284.211 0.863752 7.51049 0
M  V30 3113 H 285.479 -0.292221 7.78952 0
M  V30 3114 N 289.708 -1.40897 0.706093 0
M  V30 3115 C 290.954 -2.01849 0.250681 0
M  V30 3116 C 291.309 -1.5496 -1.14041 0
M  V30 3117 O 290.602 -0.755566 -1.76073 0
M  V30 3118 C 290.796 -3.5646 0.259099 0
M  V30 3119 C 290.625 -4.18357 1.64947 0
M  V30 3120 C 289.395 -4.522 2.25485 0
M  V30 3121 C 291.593 -4.43856 2.598 0
M  V30 3122 N 289.575 -4.9944 3.56977 0
M  V30 3123 C 290.946 -4.92986 3.75985 0
M  V30 3124 C 293.001 -4.25882 2.57933 0
M  V30 3125 C 291.704 -5.2603 4.90597 0
M  V30 3126 C 293.73 -4.6002 3.71665 0
M  V30 3127 C 293.092 -5.09331 4.86581 0
M  V30 3128 H 289.191 -0.769843 0.137353 0
M  V30 3129 H 291.775 -1.71278 0.925845 0
M  V30 3130 H 289.946 -3.86481 -0.385592 0
M  V30 3131 H 291.678 -4.04144 -0.21213 0
M  V30 3132 H 288.433 -4.3901 1.77671 0
M  V30 3133 H 288.857 -5.27454 4.24407 0
M  V30 3134 H 293.499 -3.86986 1.70298 0
M  V30 3135 H 291.217 -5.63843 5.78884 0
M  V30 3136 H 294.803 -4.47762 3.71484 0
M  V30 3137 H 293.683 -5.35251 5.73129 0
M  V30 3138 N 291.186 -0.45159 -1.50991 0
M  V30 3139 C 292.434 0.109857 -2.01801 0
M  V30 3140 C 292.755 1.41958 -1.3369 0
M  V30 3141 O 292.025 1.9003 -0.475951 0
M  V30 3142 H 290.605 0.0435884 -0.745727 0
M  V30 3143 H 293.267 -0.597557 -1.85514 0
M  V30 3144 H 292.363 0.275489 -3.10882 0
M  V30 3145 N 292.664 1.56529 -0.183458 0
M  V30 3146 C 293.904 1.99141 0.460667 0
M  V30 3147 C 294.268 1.06736 1.59597 0
M  V30 3148 O 295.469 1.38538 2.30349 0
M  V30 3149 C 293.74 3.45358 0.919939 0
M  V30 3150 S 295.299 4.09999 1.56354 0
M  V30 3151 H 292.117 0.695479 0.147748 0
M  V30 3152 H 294.719 1.93429 -0.283782 0
M  V30 3153 H 293.423 4.10315 0.0834208 0
M  V30 3154 H 292.954 3.54862 1.69814 0
M  V30 3155 H 294.969 4.06046 2.85203 0
M  V30 3156 N 294.142 -0.090211 1.57342 0
M  V30 3157 C 295.389 -0.792807 1.86335 0
M  V30 3158 C 295.717 -1.78494 0.772662 0
M  V30 3159 O 294.972 -1.94305 -0.233258 0
M  V30 3160 C 295.271 -1.55222 3.21933 0
M  V30 3161 C 294.937 -0.701765 4.45406 0
M  V30 3162 C 293.599 -0.467334 4.78925 0
M  V30 3163 C 295.951 -0.11086 5.21082 0
M  V30 3164 C 293.279 0.367785 5.85546 0
M  V30 3165 C 295.631 0.711609 6.28585 0
M  V30 3166 C 294.295 0.956086 6.60617 0
M  V30 3167 H 293.565 -0.290109 0.681849 0
M  V30 3168 H 296.212 -0.0541332 1.91423 0
M  V30 3169 H 294.517 -2.3626 3.12551 0
M  V30 3170 H 296.214 -2.10032 3.41595 0
M  V30 3171 H 292.804 -0.894598 4.1916 0
M  V30 3172 H 296.988 -0.279129 4.95514 0
M  V30 3173 H 292.244 0.566128 6.08773 0
M  V30 3174 H 296.418 1.17632 6.86393 0
M  V30 3175 H 294.045 1.60499 7.43064 0
M  V30 3176 N 295.62 -1.53406 -0.361157 0
M  V30 3177 C 297.031 -1.61442 -0.937728 0
M  V30 3178 C 297.382 -0.48461 -1.90121 0
M  V30 3179 O 296.507 0.388312 -2.12888 0
M  V30 3180 C 297.102 -2.92624 -1.70753 0
M  V30 3181 C 295.661 -3.02981 -2.23337 0
M  V30 3182 C 294.808 -2.5677 -1.04712 0
M  V30 3183 H 297.759 -1.58083 -0.139816 0
M  V30 3184 H 297.78 -2.80675 -2.56908 0
M  V30 3185 H 297.292 -3.74834 -1.00604 0
M  V30 3186 H 295.393 -2.25368 -2.96715 0
M  V30 3187 H 295.506 -4.0814 -2.50916 0
M  V30 3188 H 293.87 -2.11752 -1.41539 0
M  V30 3189 H 294.653 -3.41402 -0.360539 0
M  V30 3190 N 297.098 0.621204 -1.44841 0
M  V30 3191 C 298.347 1.37658 -1.47422 0
M  V30 3192 C 298.66 1.95264 -0.114629 0
M  V30 3193 O 299.866 2.71494 -0.0180199 0
M  V30 3194 C 298.322 2.49285 -2.59586 0
M  V30 3195 C 297.93 1.98149 -4.01797 0
M  V30 3196 C 299.674 3.26409 -2.71399 0
M  V30 3197 C 297.581 3.07178 -5.05367 0
M  V30 3198 H 296.511 0.517344 -0.548517 0
M  V30 3199 H 299.162 0.667257 -1.70938 0
M  V30 3200 H 297.544 3.22839 -2.29328 0
M  V30 3201 H 298.718 1.31395 -4.41669 0
M  V30 3202 H 297.033 1.33812 -3.94314 0
M  V30 3203 H 299.63 4.07706 -3.45948 0
M  V30 3204 H 299.973 3.76535 -1.77559 0
M  V30 3205 H 300.506 2.5995 -3.01116 0
M  V30 3206 H 297.245 2.61985 -6.00869 0
M  V30 3207 H 296.765 3.72542 -4.70077 0
M  V30 3208 H 298.444 3.71789 -5.29511 0
M  V30 3209 N 298.576 1.31904 0.862503 0
M  V30 3210 C 299.526 1.16772 1.95827 0
M  V30 3211 C 300.51 0.0767098 1.60717 0
M  V30 3212 O 301.702 0.302407 1.74398 0
M  V30 3213 C 298.831 0.884858 3.317 0
M  V30 3214 C 297.917 2.0172 3.73055 0
M  V30 3215 N 298.308 3.265 3.86305 0
M  V30 3216 C 296.606 1.91861 4.02623 0
M  V30 3217 C 297.307 4.00616 4.2176 0
M  V30 3218 N 296.283 3.28847 4.32852 0
M  V30 3219 H 300.085 2.11382 2.04193 0
M  V30 3220 H 297.599 1.2357 1.05377 0
M  V30 3221 H 299.596 0.757419 4.09962 0
M  V30 3222 H 298.256 -0.0529448 3.24657 0
M  V30 3223 H 299.267 3.61529 3.70833 0
M  V30 3224 H 295.944 1.05593 4.03926 0
M  V30 3225 H 297.334 5.08182 4.39546 0
M  V30 3226 N 300.054 -1.07777 1.14986 0
M  V30 3227 C 300.986 -2.14769 0.800436 0
M  V30 3228 C 301.999 -1.61739 -0.185595 0
M  V30 3229 O 303.188 -1.78462 0.0370358 0
M  V30 3230 C 300.288 -3.38481 0.168533 0
M  V30 3231 C 299.461 -4.20876 1.1909 0
M  V30 3232 C 298.52 -5.22976 0.581575 0
M  V30 3233 O 297.546 -5.55388 1.24633 0
M  V30 3234 N 298.748 -5.76976 -0.638706 0
M  V30 3235 H 301.513 -2.45348 1.72118 0
M  V30 3236 H 299.074 -1.23645 1.04515 0
M  V30 3237 H 301.066 -4.03916 -0.251764 0
M  V30 3238 H 299.636 -3.05651 -0.655467 0
M  V30 3239 H 298.856 -3.51322 1.78791 0
M  V30 3240 H 300.144 -4.7274 1.88133 0
M  V30 3241 H 299.542 -5.52886 -1.19723 0
M  V30 3242 H 298.099 -6.44061 -1.00142 0
M  V30 3243 N 301.532 -0.945985 -1.26051 0
M  V30 3244 C 302.495 -0.463897 -2.24456 0
M  V30 3245 C 303.495 0.427655 -1.55009 0
M  V30 3246 O 304.685 0.226157 -1.72726 0
M  V30 3247 C 301.817 0.330812 -3.39291 0
M  V30 3248 H 303.01 -1.33357 -2.68619 0
M  V30 3249 H 300.563 -0.728416 -1.38289 0
M  V30 3250 H 301.298 1.21852 -3.00537 0
M  V30 3251 H 301.083 -0.308679 -3.90883 0
M  V30 3252 H 302.573 0.657865 -4.12386 0
M  V30 3253 N 303.011 1.40521 -0.713556 0
M  V30 3254 C 303.974 2.29098 -0.0684347 0
M  V30 3255 C 304.974 1.45268 0.689472 0
M  V30 3256 O 306.164 1.66205 0.521677 0
M  V30 3257 C 303.296 3.28446 0.913024 0
M  V30 3258 H 304.489 2.87645 -0.84855 0
M  V30 3259 H 302.042 1.48809 -0.47809 0
M  V30 3260 H 302.777 2.74913 1.72027 0
M  V30 3261 H 302.562 3.90327 0.372472 0
M  V30 3262 H 304.052 3.94777 1.36165 0
M  V30 3263 N 304.489 0.459591 1.5075 0
M  V30 3264 C 305.736 -0.0993495 2.02256 0
M  V30 3265 C 306.064 -1.40751 1.34237 0
M  V30 3266 O 305.319 -1.90379 0.453228 0
M  V30 3267 C 305.618 -0.342866 3.55752 0
M  V30 3268 C 305.284 0.88218 4.42186 0
M  V30 3269 C 303.946 1.21808 4.65528 0
M  V30 3270 C 306.298 1.69837 4.92752 0
M  V30 3271 C 303.626 2.37045 5.36681 0
M  V30 3272 C 305.978 2.84192 5.65171 0
M  V30 3273 C 304.642 3.1821 5.8677 0
M  V30 3274 H 303.912 -0.0363545 0.740108 0
M  V30 3275 H 306.559 0.611329 1.8148 0
M  V30 3276 H 304.864 -1.13567 3.7498 0
M  V30 3277 H 306.561 -0.789121 3.93159 0
M  V30 3278 H 303.151 0.610467 4.2423 0
M  V30 3279 H 307.335 1.45205 4.74583 0
M  V30 3280 H 302.591 2.63689 5.51614 0
M  V30 3281 H 306.765 3.4779 6.03337 0
M  V30 3282 H 304.392 4.07613 6.41682 0
M  V30 3283 N 305.967 -1.56429 0.191757 0
M  V30 3284 C 307.192 -2.02309 -0.456706 0
M  V30 3285 C 307.617 -1.07103 -1.5463 0
M  V30 3286 O 306.975 -0.0539677 -1.8122 0
M  V30 3287 C 307.023 -3.46654 -0.993159 0
M  V30 3288 O 306.127 -3.54559 -2.10622 0
M  V30 3289 H 305.468 -0.655303 -0.107114 0
M  V30 3290 H 307.998 -2.02364 0.301653 0
M  V30 3291 H 308.008 -3.86377 -1.31061 0
M  V30 3292 H 306.683 -4.1544 -0.195504 0
M  V30 3293 H 305.26 -3.26708 -1.79767 0
M  V30 3294 N 307.445 0.0818655 -1.57387 0
M  V30 3295 C 308.693 0.781368 -1.86384 0
M  V30 3296 C 309.014 1.78618 -0.782342 0
M  V30 3297 O 308.284 1.94976 0.190061 0
M  V30 3298 H 306.864 0.291562 -0.687751 0
M  V30 3299 H 309.526 0.060348 -1.94807 0
M  V30 3300 H 308.622 1.3038 -2.83562 0
M  V30 3301 N 308.923 1.53595 0.353017 0
M  V30 3302 C 310.148 1.7462 1.11904 0
M  V30 3303 C 310.573 0.479721 1.8188 0
M  V30 3304 O 309.931 -0.567066 1.72204 0
M  V30 3305 C 309.979 2.92029 2.11545 0
M  V30 3306 O 309.083 2.61516 3.18878 0
M  V30 3307 H 308.424 0.579531 0.324099 0
M  V30 3308 H 310.954 2.00525 0.406301 0
M  V30 3309 H 310.964 3.18551 2.5493 0
M  V30 3310 H 309.639 3.83888 1.60008 0
M  V30 3311 H 308.216 2.45852 2.80377 0
M  V30 3312 N 310.401 -0.613514 1.45168 0
M  V30 3313 C 311.348 -1.72456 1.53387 0
M  V30 3314 C 312.318 -1.6169 0.380191 0
M  V30 3315 O 313.503 -1.81356 0.592836 0
M  V30 3316 C 310.643 -3.10753 1.50088 0
M  V30 3317 C 309.756 -3.32368 2.75963 0
M  V30 3318 C 308.891 -4.60737 2.64376 0
M  V30 3319 C 307.93 -4.7559 3.85332 0
M  V30 3320 N 307.067 -5.95253 3.72315 0
M  V30 3321 H 311.907 -1.64768 2.48305 0
M  V30 3322 H 309.444 -0.803503 1.23216 0
M  V30 3323 H 311.402 -3.90758 1.46164 0
M  V30 3324 H 310.032 -3.17413 0.587243 0
M  V30 3325 H 309.084 -2.4618 2.89999 0
M  V30 3326 H 310.396 -3.39218 3.65695 0
M  V30 3327 H 309.55 -5.48928 2.58385 0
M  V30 3328 H 308.289 -4.56275 1.72233 0
M  V30 3329 H 307.294 -3.85824 3.91688 0
M  V30 3330 H 308.519 -4.81854 4.78533 0
M  V30 3331 H 306.465 -5.91847 2.82937 0
M  V30 3332 H 306.382 -6.03236 4.55677 0
M  V30 3333 H 307.65 -6.85958 3.70246 0
M  V30 3334 N 311.879 -1.3236 -0.855495 0
M  V30 3335 C 312.789 -1.23221 -1.99634 0
M  V30 3336 C 313.805 -0.145983 -1.73387 0
M  V30 3337 O 314.981 -0.366502 -1.98037 0
M  V30 3338 C 312.046 -0.954782 -3.33294 0
M  V30 3339 C 311.107 -2.12937 -3.72769 0
M  V30 3340 C 310.34 -1.86508 -5.00051 0
M  V30 3341 O 310.563 -0.807231 -5.64659 0
M  V30 3342 O 309.497 -2.72591 -5.36636 0
M  V30 3343 H 313.323 -2.19126 -2.1028 0
M  V30 3344 H 310.908 -1.12241 -0.986018 0
M  V30 3345 H 312.79 -0.816519 -4.13414 0
M  V30 3346 H 311.465 -0.0258854 -3.2369 0
M  V30 3347 H 310.372 -2.3231 -2.93228 0
M  V30 3348 H 311.705 -3.04102 -3.87018 0
M  V30 3349 N 313.357 1.07166 -1.15556 0
M  V30 3350 C 314.597 1.81391 -0.94216 0
M  V30 3351 C 314.961 1.84788 0.521272 0
M  V30 3352 O 316.162 2.54904 0.85307 0
M  V30 3353 C 314.433 3.22431 -1.54185 0
M  V30 3354 S 315.992 4.13379 -1.47183 0
M  V30 3355 H 312.81 0.624963 -0.339031 0
M  V30 3356 H 315.412 1.28725 -1.4714 0
M  V30 3357 H 314.116 3.17548 -2.59984 0
M  V30 3358 H 313.647 3.80172 -1.01156 0
M  V30 3359 H 315.662 4.94007 -0.466004 0
M  V30 3360 N 314.835 0.952656 1.25548 0
M  V30 3361 C 315.768 0.415525 2.24385 0
M  V30 3362 C 316.746 -0.502046 1.54655 0
M  V30 3363 O 317.93 -0.436875 1.83368 0
M  V30 3364 C 315.057 -0.401734 3.36309 0
M  V30 3365 C 314.103 0.455949 4.24056 0
M  V30 3366 S 314.936 1.88698 5.01152 0
M  V30 3367 C 316.092 1.07809 6.16545 0
M  V30 3368 H 316.325 1.25315 2.69599 0
M  V30 3369 H 313.858 0.756587 1.34592 0
M  V30 3370 H 315.816 -0.867329 4.01233 0
M  V30 3371 H 314.477 -1.21416 2.89684 0
M  V30 3372 H 313.67 -0.170776 5.03711 0
M  V30 3373 H 313.272 0.856675 3.64056 0
M  V30 3374 H 315.564 0.325816 6.76716 0
M  V30 3375 H 316.507 1.84849 6.83547 0
M  V30 3376 H 316.915 0.60909 5.61204 0
M  V30 3377 N 316.313 -1.40141 0.720998 0
M  V30 3378 C 317.223 -2.34486 0.0731031 0
M  V30 3379 C 318.239 -1.57587 -0.737723 0
M  V30 3380 O 319.415 -1.89949 -0.669429 0
M  V30 3381 C 316.48 -3.36528 -0.833656 0
M  V30 3382 C 315.541 -4.29298 -0.0121673 0
M  V30 3383 C 314.774 -5.26466 -0.875742 0
M  V30 3384 O 314.997 -5.29745 -2.11485 0
M  V30 3385 O 313.931 -6.01092 -0.31185 0
M  V30 3386 H 317.757 -2.9152 0.851444 0
M  V30 3387 H 315.342 -1.41427 0.481527 0
M  V30 3388 H 317.224 -3.99093 -1.35289 0
M  V30 3389 H 315.899 -2.81899 -1.59105 0
M  V30 3390 H 314.806 -3.70001 0.552262 0
M  V30 3391 H 316.139 -4.87094 0.707129 0
M  V30 3392 N 317.792 -0.46758 -1.50504 0
M  V30 3393 C 319.041 0.0902868 -2.01498 0
M  V30 3394 C 319.354 1.411 -1.35463 0
M  V30 3395 O 320.56 2.0536 -1.77594 0
M  V30 3396 C 319.016 0.21142 -3.59278 0
M  V30 3397 C 318.624 -1.10065 -4.34269 0
M  V30 3398 C 320.368 0.721433 -4.18325 0
M  V30 3399 C 318.275 -0.943505 -5.83825 0
M  V30 3400 H 317.205 0.037517 -0.753066 0
M  V30 3401 H 319.856 -0.601943 -1.73346 0
M  V30 3402 H 318.238 0.967352 -3.84003 0
M  V30 3403 H 319.412 -1.86726 -4.21272 0
M  V30 3404 H 317.727 -1.5415 -3.86816 0
M  V30 3405 H 320.324 0.85598 -5.27804 0
M  V30 3406 H 320.667 1.71186 -3.79475 0
M  V30 3407 H 321.2 0.0229843 -3.97793 0
M  V30 3408 H 317.939 -1.90719 -6.27141 0
M  V30 3409 H 317.459 -0.217213 -5.99407 0
M  V30 3410 H 319.138 -0.608715 -6.4413 0
M  V30 3411 N 319.27 1.56325 -0.20005 0
M  V30 3412 C 320.519 1.96895 0.437652 0
M  V30 3413 C 320.832 1.08999 1.62415 0
M  V30 3414 O 322.038 1.39372 2.32997 0
M  V30 3415 C 320.494 3.50198 0.830025 0
M  V30 3416 C 320.102 4.46765 -0.332461 0
M  V30 3417 C 321.846 3.99526 1.43453 0
M  V30 3418 C 319.753 5.91344 0.0811468 0
M  V30 3419 H 318.683 0.735209 0.167282 0
M  V30 3420 H 321.334 1.81148 -0.292853 0
M  V30 3421 H 319.716 3.61467 1.61734 0
M  V30 3422 H 320.89 4.47231 -1.11 0
M  V30 3423 H 319.205 4.07657 -0.848789 0
M  V30 3424 H 321.802 5.05025 1.75652 0
M  V30 3425 H 322.145 3.44122 2.34277 0
M  V30 3426 H 322.678 3.91393 0.71109 0
M  V30 3427 H 319.417 6.50685 -0.793033 0
M  V30 3428 H 318.937 5.94121 0.823445 0
M  V30 3429 H 320.616 6.44945 0.515252 0
M  V30 3430 N 320.748 -0.0735177 1.57428 0
M  V30 3431 C 321.678 -1.0879 2.06608 0
M  V30 3432 C 322.659 -1.40473 0.959237 0
M  V30 3433 O 323.844 -1.5013 1.23185 0
M  V30 3434 C 320.974 -2.40183 2.50857 0
M  V30 3435 C 319.928 -2.22858 3.65402 0
M  V30 3436 C 319.254 -3.59619 3.957 0
M  V30 3437 C 320.554 -1.65123 4.95511 0
M  V30 3438 H 322.248 -0.678673 2.91607 0
M  V30 3439 H 319.794 -0.325013 1.40284 0
M  V30 3440 H 321.747 -3.11437 2.83874 0
M  V30 3441 H 320.471 -2.83083 1.62885 0
M  V30 3442 H 319.13 -1.54045 3.32664 0
M  V30 3443 H 318.778 -4.00086 3.04861 0
M  V30 3444 H 318.478 -3.48866 4.72828 0
M  V30 3445 H 320.002 -4.32306 4.31212 0
M  V30 3446 H 321.416 -2.26241 5.26771 0
M  V30 3447 H 319.813 -1.65071 5.7695 0
M  V30 3448 H 320.883 -0.612559 4.81015 0
M  V30 3449 N 322.226 -1.5378 -0.344866 0
M  V30 3450 C 323.642 -1.44015 -0.687888 0
M  V30 3451 C 323.842 -0.595834 -1.92489 0
M  V30 3452 O 322.898 -0.0863064 -2.52352 0
M  V30 3453 C 324.211 -2.87481 -0.881758 0
M  V30 3454 C 325.759 -2.97247 -0.980459 0
M  V30 3455 C 326.234 -4.41819 -1.20665 0
M  V30 3456 N 327.725 -4.45339 -1.27389 0
M  V30 3457 C 328.46 -5.54333 -1.46639 0
M  V30 3458 N 327.956 -6.73335 -1.63071 0
M  V30 3459 N 329.749 -5.41944 -1.49176 0
M  V30 3460 H 321.9 -2.07169 0.468475 0
M  V30 3461 H 324.163 -0.93643 0.147655 0
M  V30 3462 H 323.869 -3.51672 -0.0443444 0
M  V30 3463 H 323.743 -3.32352 -1.78388 0
M  V30 3464 H 326.13 -2.33197 -1.8084 0
M  V30 3465 H 326.211 -2.5574 -0.0552713 0
M  V30 3466 H 325.855 -5.06449 -0.383652 0
M  V30 3467 H 325.785 -4.80917 -2.14539 0
M  V30 3468 H 328.276 -3.59585 -1.1622 0
M  V30 3469 H 328.589 -7.52165 -1.77391 0
M  V30 3470 H 326.934 -6.76282 -1.60209 0
M  V30 3471 H 330.125 -4.47932 -1.3592 0
M  V30 3472 H 330.298 -6.26946 -1.63837 0
M  V30 3473 N 323.704 0.605807 -1.45491 0
M  V30 3474 C 324.951 1.36476 -1.49601 0
M  V30 3475 C 325.279 1.94007 -0.138452 0
M  V30 3476 O 324.534 1.75638 0.863114 0
M  V30 3477 C 324.833 2.53012 -2.52428 0
M  V30 3478 C 324.499 2.13617 -3.97087 0
M  V30 3479 C 323.161 2.02587 -4.36477 0
M  V30 3480 C 325.513 1.82899 -4.88055 0
M  V30 3481 C 322.841 1.59064 -5.64726 0
M  V30 3482 C 325.193 1.40861 -6.16718 0
M  V30 3483 C 323.857 1.28391 -6.55036 0
M  V30 3484 H 323.127 0.499402 -0.547429 0
M  V30 3485 H 325.774 0.684546 -1.78847 0
M  V30 3486 H 324.079 3.26379 -2.16758 0
M  V30 3487 H 325.776 3.1124 -2.52845 0
M  V30 3488 H 322.366 2.23129 -3.65939 0
M  V30 3489 H 326.55 1.90317 -4.58359 0
M  V30 3490 H 321.806 1.48034 -5.93208 0
M  V30 3491 H 325.98 1.16138 -6.86648 0
M  V30 3492 H 323.607 0.944403 -7.54311 0
M  V30 3493 N 325.182 1.32811 0.848464 0
M  V30 3494 C 326.43 1.23479 1.59991 0
M  V30 3495 C 326.751 -0.201853 1.93952 0
M  V30 3496 O 326.021 -1.12818 1.60153 0
M  V30 3497 H 324.601 0.454034 0.593179 0
M  V30 3498 H 327.263 1.66412 1.01455 0
M  V30 3499 H 326.359 1.82178 2.53412 0
M  V30 3500 N 326.66 -1.06551 1.16123 0
M  V30 3501 C 327.57 -2.17484 0.879662 0
M  V30 3502 C 328.586 -1.73377 -0.147104 0
M  V30 3503 O 329.762 -2.01379 0.0289128 0
M  V30 3504 C 326.827 -3.44591 0.381829 0
M  V30 3505 C 325.888 -4.0322 1.4735 0
M  V30 3506 C 325.121 -5.24261 0.999324 0
M  V30 3507 O 325.344 -5.70198 -0.151957 0
M  V30 3508 O 324.278 -5.74775 1.78653 0
M  V30 3509 H 328.104 -2.44075 1.80724 0
M  V30 3510 H 325.689 -1.16042 0.940992 0
M  V30 3511 H 327.571 -4.21254 0.111053 0
M  V30 3512 H 326.246 -3.19532 -0.51777 0
M  V30 3513 H 325.153 -3.2806 1.79798 0
M  V30 3514 H 326.486 -4.32568 2.34831 0
M  V30 3515 N 328.138 -0.959301 -1.25041 0
M  V30 3516 C 329.048 -0.489994 -2.29426 0
M  V30 3517 C 330.064 0.444944 -1.68215 0
M  V30 3518 O 331.24 0.320046 -1.98841 0
M  V30 3519 C 328.305 0.220309 -3.45999 0
M  V30 3520 C 327.366 -0.753418 -4.22637 0
M  V30 3521 C 326.599 -0.076918 -5.33645 0
M  V30 3522 O 326.822 1.13649 -5.58963 0
M  V30 3523 O 325.756 -0.764824 -5.97021 0
M  V30 3524 H 329.582 -1.35755 -2.71669 0
M  V30 3525 H 327.167 -0.725961 -1.30576 0
M  V30 3526 H 329.049 0.619677 -4.16819 0
M  V30 3527 H 327.724 1.06296 -3.0575 0
M  V30 3528 H 326.631 -1.20308 -3.54227 0
M  V30 3529 H 327.964 -1.56423 -4.66683 0
M  V30 3530 N 329.616 1.39756 -0.72842 0
M  V30 3531 C 330.566 2.2792 -0.0603424 0
M  V30 3532 C 331.55 1.43922 0.719399 0
M  V30 3533 O 332.742 1.66895 0.589489 0
M  V30 3534 C 329.871 3.32582 0.851104 0
M  V30 3535 C 328.957 4.24049 0.0658641 0
M  V30 3536 N 329.348 4.96653 -0.957578 0
M  V30 3537 C 327.646 4.45013 0.296509 0
M  V30 3538 C 328.347 5.63836 -1.43052 0
M  V30 3539 N 327.323 5.38397 -0.750315 0
M  V30 3540 H 331.125 2.81504 -0.84455 0
M  V30 3541 H 328.639 1.5236 -0.562155 0
M  V30 3542 H 330.636 3.94603 1.34514 0
M  V30 3543 H 329.296 2.80558 1.63454 0
M  V30 3544 H 330.307 5.00297 -1.33877 0
M  V30 3545 H 326.984 4.03943 1.05527 0
M  V30 3546 H 328.374 6.31974 -2.28163 0
M  V30 3547 N 331.094 0.475555 1.50254 0
M  V30 3548 C 332.342 -0.077738 2.0195 0
M  V30 3549 C 332.663 -1.39813 1.35931 0
M  V30 3550 O 331.933 -1.89249 0.506123 0
M  V30 3551 H 330.513 -0.031719 0.746326 0
M  V30 3552 H 333.175 0.626995 1.84539 0
M  V30 3553 H 332.271 -0.225995 3.11281 0
M  V30 3554 N 332.573 -1.56217 0.208337 0
M  V30 3555 C 333.803 -2.02043 -0.431523 0
M  V30 3556 C 334.211 -1.08755 -1.54819 0
M  V30 3557 O 333.554 -0.0870009 -1.83494 0
M  V30 3558 C 333.616 -3.44239 -1.03633 0
M  V30 3559 C 333.28 -4.56965 -0.0567502 0
M  V30 3560 C 334.277 -5.14624 0.738773 0
M  V30 3561 C 331.962 -5.02266 0.0581736 0
M  V30 3562 C 333.956 -6.16045 1.63605 0
M  V30 3563 C 331.643 -6.03528 0.959001 0
M  V30 3564 C 332.641 -6.60293 1.7465 0
M  V30 3565 O 332.329 -7.59586 2.6322 0
M  V30 3566 H 332.061 -0.666772 -0.111313 0
M  V30 3567 H 334.615 -2.02919 0.318277 0
M  V30 3568 H 332.845 -3.40391 -1.83497 0
M  V30 3569 H 334.534 -3.73793 -1.58221 0
M  V30 3570 H 335.3 -4.80483 0.660364 0
M  V30 3571 H 331.179 -4.57771 -0.544633 0
M  V30 3572 H 334.723 -6.60279 2.25116 0
M  V30 3573 H 330.62 -6.37092 1.03848 0
M  V30 3574 H 331.388 -7.77057 2.57148 0
M  V30 3575 N 334.051 0.0651679 -1.57465 0
M  V30 3576 C 335.276 0.779605 -1.9219 0
M  V30 3577 C 335.701 1.69988 -0.805333 0
M  V30 3578 O 335.059 1.79685 0.241435 0
M  V30 3579 C 335.107 1.54364 -3.2589 0
M  V30 3580 O 334.211 2.65474 -3.1559 0
M  V30 3581 H 333.552 0.212249 -0.629163 0
M  V30 3582 H 336.082 0.0314294 -2.04576 0
M  V30 3583 H 336.092 1.92146 -3.59922 0
M  V30 3584 H 334.767 0.868457 -4.06732 0
M  V30 3585 H 333.344 2.30501 -2.93128 0
M  V30 3586 N 335.529 1.53961 0.336706 0
M  V30 3587 C 336.945 1.44378 0.680241 0
M  V30 3588 C 337.145 0.606034 1.9217 0
M  V30 3589 O 336.201 0.099688 2.52303 0
M  V30 3590 C 337.514 2.87945 0.8665 0
M  V30 3591 C 339.062 2.97763 0.964682 0
M  V30 3592 C 339.537 4.42453 1.18321 0
M  V30 3593 N 341.028 4.46008 1.25025 0
M  V30 3594 C 341.763 5.55102 1.43697 0
M  V30 3595 N 341.259 6.7419 1.59498 0
M  V30 3596 N 343.052 5.42727 1.463 0
M  V30 3597 H 335.203 2.06918 -0.479455 0
M  V30 3598 H 337.466 0.935634 -0.152619 0
M  V30 3599 H 337.172 3.51691 0.0256937 0
M  V30 3600 H 337.046 3.33293 1.76623 0
M  V30 3601 H 339.433 2.34153 1.796 0
M  V30 3602 H 339.514 2.55766 0.041708 0
M  V30 3603 H 339.158 5.06645 0.356788 0
M  V30 3604 H 339.088 4.82048 2.11985 0
M  V30 3605 H 341.579 3.60196 1.14312 0
M  V30 3606 H 341.892 7.53095 1.734 0
M  V30 3607 H 340.237 6.77123 1.56621 0
M  V30 3608 H 343.428 4.48647 1.33543 0
M  V30 3609 H 343.601 6.27806 1.6051 0
M  V30 3610 N 337.007 -0.598083 1.45811 0
M  V30 3611 C 337.939 -1.72231 1.51225 0
M  V30 3612 C 338.952 -1.57757 0.402059 0
M  V30 3613 O 340.141 -1.65464 0.669624 0
M  V30 3614 C 337.241 -3.10331 1.3619 0
M  V30 3615 C 336.414 -3.50955 2.61054 0
M  V30 3616 C 335.473 -4.68055 2.40439 0
M  V30 3617 O 334.499 -4.74691 3.14097 0
M  V30 3618 N 335.701 -5.61941 1.45612 0
M  V30 3619 H 338.466 -1.68046 2.48154 0
M  V30 3620 H 336.027 -0.783637 1.41671 0
M  V30 3621 H 338.019 -3.86439 1.20195 0
M  V30 3622 H 336.589 -3.0897 0.475015 0
M  V30 3623 H 335.809 -2.64711 2.92099 0
M  V30 3624 H 337.097 -3.74858 3.44034 0
M  V30 3625 H 336.495 -5.59301 0.848431 0
M  V30 3626 H 335.052 -6.37542 1.35585 0
M  V30 3627 N 338.485 -1.33259 -0.841409 0
M  V30 3628 C 339.415 -1.25926 -1.96634 0
M  V30 3629 C 340.396 -0.140349 -1.6952 0
M  V30 3630 O 341.581 -0.329707 -1.91381 0
M  V30 3631 C 338.711 -0.99512 -3.32738 0
M  V30 3632 C 337.665 -2.0767 -3.74242 0
M  V30 3633 C 336.991 -1.66474 -5.08125 0
M  V30 3634 C 338.291 -3.49318 -3.88297 0
M  V30 3635 H 339.985 -2.20046 -2.03027 0
M  V30 3636 H 337.531 -1.05931 -0.975425 0
M  V30 3637 H 339.484 -0.930323 -4.11002 0
M  V30 3638 H 338.208 -0.0183004 -3.26595 0
M  V30 3639 H 336.867 -2.13187 -2.98239 0
M  V30 3640 H 336.515 -0.675012 -4.9845 0
M  V30 3641 H 336.215 -2.3885 -5.36865 0
M  V30 3642 H 337.739 -1.61455 -5.88867 0
M  V30 3643 H 339.153 -3.46316 -4.56879 0
M  V30 3644 H 337.55 -4.20158 -4.28471 0
M  V30 3645 H 338.62 -3.8801 -2.9082 0
M  V30 3646 N 339.963 1.05934 -1.16686 0
M  V30 3647 C 340.913 2.11764 -0.844978 0
M  V30 3648 C 341.897 1.59922 0.177178 0
M  V30 3649 O 343.089 1.76983 -0.0241768 0
M  V30 3650 C 340.218 3.41493 -0.351812 0
M  V30 3651 C 339.304 4.00152 -1.40496 0
M  V30 3652 N 339.695 4.32874 -2.61636 0
M  V30 3653 C 337.993 4.278 -1.26106 0
M  V30 3654 C 338.694 4.79552 -3.29249 0
M  V30 3655 N 337.67 4.79211 -2.56628 0
M  V30 3656 H 341.472 2.34916 -1.76612 0
M  V30 3657 H 338.986 1.23511 -1.05446 0
M  V30 3658 H 340.983 4.16773 -0.102796 0
M  V30 3659 H 339.643 3.19778 0.56322 0
M  V30 3660 H 340.654 4.23109 -2.98663 0
M  V30 3661 H 337.331 4.15511 -0.407081 0
M  V30 3662 H 338.721 5.14045 -4.32675 0
M  V30 3663 N 341.441 0.965919 1.2453 0
M  V30 3664 C 342.69 0.622437 1.91856 0
M  V30 3665 C 343.003 -0.846006 1.76358 0
M  V30 3666 O 344.209 -1.29993 2.38357 0
M  V30 3667 C 342.665 1.0626 3.43856 0
M  V30 3668 C 342.273 2.55437 3.68043 0
M  V30 3669 C 344.017 0.792183 4.17043 0
M  V30 3670 C 341.924 2.93196 5.13605 0
M  V30 3671 H 340.854 0.229092 0.718354 0
M  V30 3672 H 343.505 1.17189 1.41206 0
M  V30 3673 H 341.887 0.441476 3.93531 0
M  V30 3674 H 343.061 3.22665 3.28974 0
M  V30 3675 H 341.376 2.8007 3.08139 0
M  V30 3676 H 343.973 1.05031 5.24283 0
M  V30 3677 H 344.316 -0.271584 4.15413 0
M  V30 3678 H 344.849 1.37419 3.73311 0
M  V30 3679 H 341.588 3.98636 5.20355 0
M  V30 3680 H 341.108 2.30651 5.53679 0
M  V30 3681 H 342.787 2.83004 5.81823 0
M  V30 3682 N 342.919 -1.39368 0.735821 0
M  V30 3683 C 343.867 -2.32443 0.0855131 0
M  V30 3684 C 344.861 -1.53104 -0.724954 0
M  V30 3685 O 346.067 -1.68762 -0.626047 0
M  V30 3686 H 342.442 -0.751948 0.00885257 0
M  V30 3687 H 344.413 -2.84916 0.886883 0
M  V30 3688 C 343.162 -3.38206 -0.806983 0
M  V30 3689 H 342.485 -3.99335 -0.19274 0
M  V30 3690 H 343.925 -4.05779 -1.2296 0
M  V30 3691 C 342.384 -2.75321 -1.94165 0
M  V30 3692 O 342.914 -2.63231 -3.03435 0
M  V30 3693 N 341.12 -2.33396 -1.73132 0
M  V30 3694 H 340.667 -2.4343 -0.842596 0
M  V30 3695 H 340.625 -1.91661 -2.49225 0
M  V30 3696 N 344.397 -0.483516 -1.5 0
M  V30 3697 C 345.644 0.0671597 -2.02389 0
M  V30 3698 C 345.972 1.38597 -1.36459 0
M  V30 3699 O 345.227 1.89634 -0.483458 0
M  V30 3700 C 345.526 0.286226 -3.56252 0
M  V30 3701 C 345.192 -0.952416 -4.40726 0
M  V30 3702 C 343.854 -1.29199 -4.63531 0
M  V30 3703 C 346.206 -1.77655 -4.89988 0
M  V30 3704 C 343.534 -2.45553 -5.32842 0
M  V30 3705 C 345.886 -2.93147 -5.60578 0
M  V30 3706 C 344.55 -3.27505 -5.81633 0
M  V30 3707 H 343.82 0.0245755 -0.740592 0
M  V30 3708 H 346.467 -0.640124 -1.80485 0
M  V30 3709 H 344.772 1.07587 -3.76739 0
M  V30 3710 H 346.469 0.726473 -3.94365 0
M  V30 3711 H 343.059 -0.677881 -4.23205 0
M  V30 3712 H 347.243 -1.52737 -4.72213 0
M  V30 3713 H 342.499 -2.72431 -5.47349 0
M  V30 3714 H 346.673 -3.57344 -5.97727 0
M  V30 3715 H 344.3 -4.1777 -6.35116 0
M  V30 3716 N 345.875 1.56104 -0.216619 0
M  V30 3717 C 346.808 2.16026 0.735395 0
M  V30 3718 C 347.786 1.1032 1.1945 0
M  V30 3719 O 348.97 1.38549 1.27814 0
M  V30 3720 C 346.097 2.73656 1.99575 0
M  V30 3721 C 345.143 3.92146 1.67702 0
M  V30 3722 S 345.976 5.29397 0.806145 0
M  V30 3723 C 347.132 5.90463 2.07617 0
M  V30 3724 H 347.365 2.96439 0.226072 0
M  V30 3725 H 344.898 1.544 -0.00136639 0
M  V30 3726 H 346.856 3.075 2.71945 0
M  V30 3727 H 345.517 1.93245 2.47619 0
M  V30 3728 H 344.71 4.30954 2.61332 0
M  V30 3729 H 344.312 3.59423 1.03398 0
M  V30 3730 H 346.604 6.06136 3.02664 0
M  V30 3731 H 347.547 6.86589 1.73207 0
M  V30 3732 H 347.955 5.19252 2.21445 0
M  V30 3733 N 347.353 -0.0568162 1.57498 0
M  V30 3734 C 348.301 -1.08452 2.05769 0
M  V30 3735 C 349.295 -1.39164 0.965903 0
M  V30 3736 O 350.501 -1.38395 1.15095 0
M  V30 3737 H 346.876 -0.367148 0.656282 0
M  V30 3738 H 348.847 -0.651368 2.91204 0
M  V30 3739 C 347.596 -2.38543 2.52968 0
M  V30 3740 H 346.919 -2.15765 3.36579 0
M  V30 3741 H 348.359 -3.08863 2.90481 0
M  V30 3742 C 346.818 -3.05562 1.41893 0
M  V30 3743 O 347.348 -3.94262 0.769442 0
M  V30 3744 N 345.554 -2.6643 1.16032 0
M  V30 3745 H 345.101 -1.94387 1.6903 0
M  V30 3746 H 345.059 -3.11593 0.419219 0
M  V30 3747 N 348.832 -1.54138 -0.328536 0
M  V30 3748 C 349.78 -1.83894 -1.42428 0
M  V30 3749 C 350.774 -0.710478 -1.53781 0
M  V30 3750 O 351.98 -0.894062 -1.56226 0
M  V30 3751 H 348.355 -0.582837 -0.475189 0
M  V30 3752 H 350.326 -2.75537 -1.14552 0
M  V30 3753 C 349.075 -2.07866 -2.78724 0
M  V30 3754 H 348.398 -2.94158 -2.7076 0
M  V30 3755 H 349.838 -2.32644 -3.54476 0
M  V30 3756 C 348.297 -0.868689 -3.25508 0
M  V30 3757 O 348.827 -0.0754908 -4.01629 0
M  V30 3758 N 347.033 -0.681711 -2.82491 0
M  V30 3759 H 346.58 -1.32838 -2.20708 0
M  V30 3760 H 346.538 0.126374 -3.14146 0
M  V30 3761 N 350.31 0.590341 -1.46126 0
M  V30 3762 C 351.558 1.34616 -1.50742 0
M  V30 3763 C 351.879 1.94363 -0.157486 0
M  V30 3764 O 351.149 1.78136 0.815136 0
M  V30 3765 H 349.729 0.499789 -0.555175 0
M  V30 3766 H 352.391 0.691953 -1.82203 0
M  V30 3767 H 351.487 2.15678 -2.25587 0
M  V30 3768 N 351.788 1.33704 0.83433 0
M  V30 3769 C 352.735 1.24335 1.94447 0
M  V30 3770 C 353.705 0.120991 1.65659 0
M  V30 3771 O 354.89 0.300035 1.88426 0
M  V30 3772 C 352.03 0.993124 3.30501 0
M  V30 3773 C 351.143 2.20217 3.71657 0
M  V30 3774 C 350.278 1.88572 4.96602 0
M  V30 3775 C 349.317 3.05683 5.30306 0
M  V30 3776 N 348.454 2.73997 6.46429 0
M  V30 3777 H 353.294 2.1928 2.01792 0
M  V30 3778 H 350.831 1.09035 0.987404 0
M  V30 3779 H 352.789 0.828467 4.08892 0
M  V30 3780 H 351.419 0.0803902 3.227 0
M  V30 3781 H 350.471 2.47642 2.88752 0
M  V30 3782 H 351.783 3.07752 3.92543 0
M  V30 3783 H 350.937 1.68776 5.82752 0
M  V30 3784 H 349.676 0.982799 4.77695 0
M  V30 3785 H 348.681 3.26088 4.42659 0
M  V30 3786 H 349.906 3.96737 5.51159 0
M  V30 3787 H 347.852 1.86268 6.28999 0
M  V30 3788 H 347.769 3.55064 6.67432 0
M  V30 3789 H 349.037 2.57679 7.35678 0
M  V30 3790 N 353.266 -1.05314 1.17247 0
M  V30 3791 C 354.229 -2.112 0.890357 0
M  V30 3792 C 355.229 -1.60359 -0.118943 0
M  V30 3793 O 356.419 -1.73833 0.113086 0
M  V30 3794 C 353.551 -3.39266 0.333422 0
M  V30 3795 H 354.744 -2.37659 1.82916 0
M  V30 3796 H 352.297 -1.21538 0.982758 0
M  V30 3797 H 353.032 -3.18462 -0.612587 0
M  V30 3798 H 352.817 -3.77477 1.06082 0
M  V30 3799 H 354.307 -4.17315 0.154322 0
M  V30 3800 N 354.744 -0.972509 -1.24016 0
M  V30 3801 C 355.972 -0.654803 -1.96265 0
M  V30 3802 C 356.387 0.776708 -1.72083 0
M  V30 3803 O 355.744 1.52171 -1.00748 0
M  V30 3804 C 355.795 -0.92592 -3.49441 0
M  V30 3805 O 355.516 -2.30116 -3.72798 0
M  V30 3806 C 357.017 -0.623068 -4.38899 0
M  V30 3807 H 354.237 -0.243907 -0.6251 0
M  V30 3808 H 356.781 -1.30175 -1.57717 0
M  V30 3809 H 354.936 -0.325108 -3.86033 0
M  V30 3810 H 355.35 -2.38483 -4.67147 0
M  V30 3811 H 356.824 -0.863189 -5.45209 0
M  V30 3812 H 357.301 0.442754 -4.36963 0
M  V30 3813 H 357.907 -1.204 -4.07902 0
M  V30 3814 N 356.222 1.38976 -0.743202 0
M  V30 3815 C 357.633 1.83123 -0.363732 0
M  V30 3816 C 357.984 1.6205 1.10609 0
M  V30 3817 O 357.109 1.11606 1.854 0
M  V30 3818 C 357.704 3.32439 -0.653408 0
M  V30 3819 C 356.263 3.74974 -0.327338 0
M  V30 3820 C 355.41 2.61878 -0.911875 0
M  V30 3821 H 358.361 1.27852 -0.940191 0
M  V30 3822 H 358.382 3.80432 0.0720031 0
M  V30 3823 H 357.894 3.47745 -1.72323 0
M  V30 3824 H 355.995 3.65252 0.736314 0
M  V30 3825 H 356.108 4.72106 -0.815631 0
M  V30 3826 H 354.472 2.52448 -0.337944 0
M  V30 3827 H 355.255 2.79987 -1.98651 0
M  V30 3828 N 357.7 0.491464 1.49741 0
M  V30 3829 C 358.63 -0.28154 2.31796 0
M  V30 3830 C 359.611 -0.971473 1.3963 0
M  V30 3831 O 360.796 -0.964719 1.68543 0
M  V30 3832 C 357.926 -1.35203 3.19902 0
M  V30 3833 C 356.88 -0.782529 4.20786 0
M  V30 3834 C 356.206 -1.95283 4.97764 0
M  V30 3835 C 357.506 0.21999 5.21837 0
M  V30 3836 H 359.2 0.403355 2.96671 0
M  V30 3837 H 356.746 0.195425 1.42668 0
M  V30 3838 H 358.699 -1.90045 3.76113 0
M  V30 3839 H 357.423 -2.06598 2.52953 0
M  V30 3840 H 356.082 -0.255928 3.65706 0
M  V30 3841 H 355.73 -2.65423 4.2727 0
M  V30 3842 H 355.43 -1.57789 5.66018 0
M  V30 3843 H 356.954 -2.50577 5.56816 0
M  V30 3844 H 358.368 -0.23996 5.72798 0
M  V30 3845 H 356.765 0.51026 5.97927 0
M  V30 3846 H 357.835 1.13911 4.7133 0
M  V30 3847 N 359.178 -1.55987 0.224894 0
M  V30 3848 C 360.128 -2.17076 -0.697296 0
M  V30 3849 C 361.112 -1.12006 -1.15514 0
M  V30 3850 O 362.304 -1.37985 -1.10857 0
M  V30 3851 C 359.433 -2.85679 -1.90374 0
M  V30 3852 C 358.519 -3.97977 -1.46543 0
M  V30 3853 N 358.91 -5.00359 -0.739909 0
M  V30 3854 C 357.208 -4.10128 -1.75245 0
M  V30 3855 C 357.909 -5.79407 -0.515939 0
M  V30 3856 N 356.885 -5.32892 -1.07364 0
M  V30 3857 H 360.687 -2.93592 -0.134594 0
M  V30 3858 H 358.201 -1.62379 0.0262885 0
M  V30 3859 H 360.198 -3.27857 -2.57518 0
M  V30 3860 H 358.858 -2.1066 -2.47088 0
M  V30 3861 H 359.869 -5.16412 -0.392253 0
M  V30 3862 H 356.546 -3.46263 -2.33255 0
M  V30 3863 H 357.936 -6.71872 0.0617349 0
M  V30 3864 N 360.656 0.0484629 -1.57525 0
M  V30 3865 C 361.586 1.0549 -2.08313 0
M  V30 3866 C 362.567 1.38929 -0.981463 0
M  V30 3867 O 363.752 1.48151 -1.25558 0
M  V30 3868 C 360.882 2.36162 -2.54646 0
M  V30 3869 C 359.836 2.17016 -3.68901 0
M  V30 3870 C 359.162 3.53278 -4.01371 0
M  V30 3871 C 360.462 1.57219 -4.98076 0
M  V30 3872 H 362.156 0.632195 -2.92649 0
M  V30 3873 H 359.702 0.302654 -1.40784 0
M  V30 3874 H 361.655 3.06882 -2.88793 0
M  V30 3875 H 360.379 2.80456 -1.67368 0
M  V30 3876 H 359.038 1.48733 -3.35073 0
M  V30 3877 H 358.686 3.95185 -3.11188 0
M  V30 3878 H 358.386 3.41299 -4.78318 0
M  V30 3879 H 359.91 4.25391 -4.38035 0
M  V30 3880 H 361.324 2.17832 -5.30304 0
M  V30 3881 H 359.721 1.55871 -5.79503 0
M  V30 3882 H 360.791 0.535956 -4.81929 0
M  V30 3883 N 362.134 1.5431 0.320358 0
M  V30 3884 C 363.097 1.83195 1.3774 0
M  V30 3885 C 364.097 0.703906 1.44575 0
M  V30 3886 O 365.287 0.972214 1.44546 0
M  V30 3887 C 362.419 1.99487 2.76438 0
M  V30 3888 H 363.612 2.77642 1.1338 0
M  V30 3889 H 361.165 1.46076 0.556012 0
M  V30 3890 H 361.9 1.07262 3.06048 0
M  V30 3891 H 361.685 2.81575 2.7287 0
M  V30 3892 H 363.175 2.23271 3.52902 0
M  V30 3893 N 363.613 -0.582584 1.46437 0
M  V30 3894 C 364.859 -1.34278 1.51978 0
M  V30 3895 C 365.192 -1.93446 0.170973 0
M  V30 3896 O 364.467 -1.76481 -0.817608 0
M  V30 3897 C 364.75 -2.47203 2.61845 0
M  V30 3898 C 364.603 -1.93069 4.06257 0
M  V30 3899 C 365.922 -3.49247 2.67795 0
M  V30 3900 H 363.041 -0.486876 0.553282 0
M  V30 3901 H 365.683 -0.654437 1.78374 0
M  V30 3902 H 363.833 -3.0592 2.39469 0
M  V30 3903 H 365.505 -1.38808 4.3992 0
M  V30 3904 H 363.748 -1.23898 4.1573 0
M  V30 3905 H 364.419 -2.74586 4.7886 0
M  V30 3906 H 366.895 -3.00411 2.8791 0
M  V30 3907 H 365.771 -4.25719 3.46489 0
M  V30 3908 H 366.032 -4.06482 1.73852 0
M  V30 3909 N 365.091 -1.34144 -0.827227 0
M  V30 3910 C 366.023 -1.21206 -1.9453 0
M  V30 3911 C 367.036 -0.140176 -1.62195 0
M  V30 3912 O 368.225 -0.391647 -1.7415 0
M  V30 3913 C 365.325 -0.839141 -3.28347 0
M  V30 3914 C 364.498 -2.0051 -3.88734 0
M  V30 3915 C 363.557 -1.61128 -5.00923 0
M  V30 3916 O 362.583 -2.32726 -5.19449 0
M  V30 3917 N 363.785 -0.522958 -5.7814 0
M  V30 3918 H 366.55 -2.17525 -2.06162 0
M  V30 3919 H 364.111 -1.27043 -1.00358 0
M  V30 3920 H 366.103 -0.557556 -4.00841 0
M  V30 3921 H 364.673 0.0337293 -3.12582 0
M  V30 3922 H 363.893 -2.45166 -3.08686 0
M  V30 3923 H 365.181 -2.78498 -4.25812 0
M  V30 3924 H 364.579 0.0723518 -5.65654 0
M  V30 3925 H 363.136 -0.301089 -6.51104 0
M  V30 3926 N 366.569 1.04691 -1.17803 0
M  V30 3927 C 367.517 2.14665 -0.895635 0
M  V30 3928 C 368.511 1.68806 0.141679 0
M  V30 3929 O 369.717 1.79999 -0.00587914 0
M  V30 3930 H 366.092 0.701038 -0.272121 0
M  V30 3931 H 368.063 2.35685 -1.83017 0
M  V30 3932 C 366.812 3.45019 -0.430962 0
M  V30 3933 H 366.135 3.8071 -1.22064 0
M  V30 3934 H 367.575 4.23125 -0.272301 0
M  V30 3935 C 366.034 3.25943 0.852207 0
M  V30 3936 O 366.564 3.5296 1.91786 0
M  V30 3937 N 364.77 2.79304 0.802346 0
M  V30 3938 H 364.317 2.57518 -0.0650788 0
M  V30 3939 H 364.275 2.66921 1.66134 0
M  V30 3940 N 368.047 0.979072 1.23499 0
M  V30 3941 C 369.295 0.645941 1.91499 0
M  V30 3942 C 369.616 -0.822948 1.76784 0
M  V30 3943 O 368.886 -1.58854 1.14639 0
M  V30 3944 H 367.466 0.235919 0.708767 0
M  V30 3945 H 370.128 1.2426 1.50152 0
M  V30 3946 H 369.224 0.896411 2.9895 0
M  V30 3947 N 369.525 -1.3858 0.750561 0
M  V30 3948 C 370.802 -1.94231 0.231009 0
M  V30 3949 C 371.182 -1.68611 -1.27018 0
M  V30 3950 O 370.53 -1.02296 -2.04323 0
M  V30 3951 C 370.74 -3.44123 0.581428 0
M  V30 3952 C 372.088 -4.2116 0.539389 0
M  V30 3953 O 373.112 -3.52391 0.519541 0
M  V30 3954 O 371.971 -5.43749 0.54765 0
M  V30 3955 H 369.065 -0.825639 0.0474263 0
M  V30 3956 H 371.611 -1.4799 0.830478 0
M  V30 3957 H 370.383 -3.56267 1.61833 0
M  V30 3958 H 370.006 -3.97573 -0.0462047 0
M  V30 3959 N 371.003 -0.499398 -1.49478 0
M  V30 3960 C 371.933 0.269244 -2.31943 0
M  V30 3961 C 372.914 0.964054 -1.40143 0
M  V30 3962 O 374.099 0.955767 -1.69052 0
M  V30 3963 C 371.229 1.33504 -3.20615 0
M  V30 3964 C 370.183 0.760202 -4.21195 0
M  V30 3965 C 369.509 1.9264 -4.98792 0
M  V30 3966 C 370.809 -0.247661 -5.21712 0
M  V30 3967 H 372.503 -0.419082 -2.96452 0
M  V30 3968 H 370.049 -0.202988 -1.42562 0
M  V30 3969 H 372.002 1.88048 -3.77115 0
M  V30 3970 H 370.726 2.05253 -2.54045 0
M  V30 3971 H 369.385 0.23653 -3.65836 0
M  V30 3972 H 369.033 2.63154 -4.28671 0
M  V30 3973 H 368.733 1.54785 -5.66847 0
M  V30 3974 H 370.257 2.4762 -5.58137 0
M  V30 3975 H 371.671 0.209579 -5.72917 0
M  V30 3976 H 370.068 -0.541962 -5.97648 0
M  V30 3977 H 371.138 -1.16409 -4.7072 0
M  V30 3978 N 372.481 1.55866 -0.233164 0
M  V30 3979 C 373.391 2.24431 0.683217 0
M  V30 3980 C 374.407 1.2558 1.2044 0
M  V30 3981 O 375.583 1.58422 1.24356 0
M  V30 3982 C 372.648 2.91979 1.86947 0
M  V30 3983 C 371.709 4.06204 1.38912 0
M  V30 3984 C 370.942 4.70522 2.51883 0
M  V30 3985 O 371.165 4.33865 3.70293 0
M  V30 3986 O 370.099 5.59296 2.22423 0
M  V30 3987 H 373.925 3.03426 0.129059 0
M  V30 3988 H 371.51 1.494 -0.0022283 0
M  V30 3989 H 373.392 3.34573 2.56201 0
M  V30 3990 H 372.067 2.15935 2.41151 0
M  V30 3991 H 370.974 3.68155 0.664259 0
M  V30 3992 H 372.307 4.84025 0.893328 0
M  V30 3993 N 373.959 -0.0401083 1.57549 0
M  V30 3994 C 374.892 -1.07689 2.01192 0
M  V30 3995 C 375.87 -1.358 0.894273 0
M  V30 3996 O 377.054 -1.48642 1.15921 0
M  V30 3997 C 374.181 -2.41418 2.3756 0
M  V30 3998 C 373.227 -2.29237 3.59656 0
M  V30 3999 S 374.06 -1.65628 5.09242 0
M  V30 4000 C 375.216 -3.0087 5.48843 0
M  V30 4001 H 375.449 -0.705108 2.88817 0
M  V30 4002 H 372.982 -0.249724 1.52367 0
M  V30 4003 H 374.94 -3.18329 2.59186 0
M  V30 4004 H 373.601 -2.75747 1.50407 0
M  V30 4005 H 372.794 -3.27932 3.82722 0
M  V30 4006 H 372.396 -1.60469 3.37825 0
M  V30 4007 H 374.688 -3.97201 5.48851 0
M  V30 4008 H 375.631 -2.82549 6.49286 0
M  V30 4009 H 376.039 -3.02934 4.76331 0
M  V30 4010 N 375.437 -1.54477 -0.31217 0
M  V30 4011 C 376.686 -1.72438 -1.04633 0
M  V30 4012 C 376.999 -0.511163 -1.88803 0
M  V30 4013 O 378.205 -0.572341 -2.65399 0
M  V30 4014 C 376.661 -3.05043 -1.9099 0
M  V30 4015 C 376.269 -4.33806 -1.11877 0
M  V30 4016 C 378.013 -3.32364 -2.64073 0
M  V30 4017 C 375.92 -5.57467 -1.97445 0
M  V30 4018 H 374.85 -0.642647 -0.394361 0
M  V30 4019 H 377.501 -1.80966 -0.303929 0
M  V30 4020 H 375.883 -2.90451 -2.69173 0
M  V30 4021 H 377.057 -4.59199 -0.383843 0
M  V30 4022 H 375.372 -4.13336 -0.504252 0
M  V30 4023 H 377.969 -4.21951 -3.28423 0
M  V30 4024 H 378.312 -2.50745 -3.32314 0
M  V30 4025 H 378.845 -3.47875 -1.92944 0
M  V30 4026 H 375.584 -6.41722 -1.33692 0
M  V30 4027 H 375.104 -5.36277 -2.6864 0
M  V30 4028 H 376.783 -5.94303 -2.5576 0
M  V30 4029 N 376.915 0.57481 -1.46744 0
M  V30 4030 C 377.862 1.68329 -1.57905 0
M  V30 4031 C 378.832 1.60625 -0.422927 0
M  V30 4032 O 380.017 1.79721 -0.640711 0
M  V30 4033 C 377.157 3.06665 -1.58274 0
M  V30 4034 C 376.27 3.24935 -2.84678 0
M  V30 4035 C 375.405 4.53566 -2.76499 0
M  V30 4036 C 374.444 4.65207 -3.97806 0
M  V30 4037 N 373.581 5.85172 -3.87967 0
M  V30 4038 H 378.421 1.58127 -2.52587 0
M  V30 4039 H 375.958 0.770552 -1.25303 0
M  V30 4040 H 377.916 3.86745 -1.56473 0
M  V30 4041 H 376.546 3.15745 -0.671194 0
M  V30 4042 H 375.598 2.38405 -2.96424 0
M  V30 4043 H 376.91 3.29403 -3.7456 0
M  V30 4044 H 376.064 5.41885 -2.72848 0
M  V30 4045 H 374.803 4.51548 -1.8427 0
M  V30 4046 H 373.808 3.75304 -4.0178 0
M  V30 4047 H 375.033 4.68997 -4.9114 0
M  V30 4048 H 372.979 5.84137 -2.98529 0
M  V30 4049 H 372.896 5.90943 -4.71511 0
M  V30 4050 H 374.164 6.759 -3.88303 0
M  V30 4051 N 378.394 1.34581 0.820102 0
M  V30 4052 C 379.327 1.20735 1.93644 0
M  V30 4053 C 380.305 0.0983343 1.62302 0
M  V30 4054 O 381.489 0.263997 1.86642 0
M  V30 4055 C 378.616 0.856037 3.27704 0
M  V30 4056 C 377.662 1.97521 3.78005 0
M  V30 4057 S 378.495 3.58906 3.97425 0
M  V30 4058 C 379.651 3.25822 5.34407 0
M  V30 4059 H 379.884 2.15231 2.05093 0
M  V30 4060 H 377.417 1.1964 0.97599 0
M  V30 4061 H 379.375 0.660133 4.05157 0
M  V30 4062 H 378.036 -0.0706253 3.14021 0
M  V30 4063 H 377.229 1.68321 4.75062 0
M  V30 4064 H 376.831 2.12875 3.07507 0
M  V30 4065 H 379.123 2.77812 6.17922 0
M  V30 4066 H 380.066 4.22029 5.68592 0
M  V30 4067 H 380.474 2.61932 5.00052 0
M  V30 4068 N 379.872 -1.04064 1.18357 0
M  V30 4069 C 381.112 -1.78829 0.989921 0
M  V30 4070 C 381.476 -1.86106 -0.472095 0
M  V30 4071 O 382.677 -2.57076 -0.785187 0
M  V30 4072 C 380.948 -3.1823 1.6268 0
M  V30 4073 S 382.507 -4.09332 1.58091 0
M  V30 4074 H 379.325 -0.615754 0.355482 0
M  V30 4075 H 381.927 -1.24778 1.50501 0
M  V30 4076 H 380.631 -3.10543 2.68311 0
M  V30 4077 H 380.162 -3.77357 1.112 0
M  V30 4078 H 382.177 -4.92598 0.596817 0
M  V30 4079 N 381.35 -0.985608 -1.22978 0
M  V30 4080 C 382.28 -0.549649 -2.26939 0
M  V30 4081 C 383.261 0.419803 -1.64838 0
M  V30 4082 O 384.446 0.31203 -1.91677 0
M  V30 4083 C 381.576 0.143652 -3.47003 0
M  V30 4084 C 380.53 -0.743606 -4.21491 0
M  V30 4085 C 379.856 0.0822027 -5.34637 0
M  V30 4086 C 381.156 -2.03694 -4.80943 0
M  V30 4087 H 382.85 -1.41862 -2.63658 0
M  V30 4088 H 380.396 -0.683571 -1.26741 0
M  V30 4089 H 382.349 0.459985 -4.18882 0
M  V30 4090 H 381.073 1.04711 -3.09359 0
M  V30 4091 H 379.732 -1.04347 -3.51436 0
M  V30 4092 H 379.38 0.986359 -4.93234 0
M  V30 4093 H 379.08 -0.508377 -5.85397 0
M  V30 4094 H 380.604 0.392797 -6.09335 0
M  V30 4095 H 382.018 -1.78504 -5.44802 0
M  V30 4096 H 380.415 -2.57573 -5.42011 0
M  V30 4097 H 381.485 -2.72042 -4.01399 0
M  V30 4098 N 382.828 1.3818 -0.7579 0
M  V30 4099 C 384.105 1.94106 -0.241306 0
M  V30 4100 C 384.485 1.69282 1.26122 0
M  V30 4101 O 383.833 1.03378 2.03777 0
M  V30 4102 C 384.043 3.43809 -0.59967 0
M  V30 4103 C 385.391 4.20868 -0.561717 0
M  V30 4104 O 386.415 3.5211 -0.538222 0
M  V30 4105 O 385.274 5.43451 -0.576478 0
M  V30 4106 H 382.368 0.825376 -0.0518042 0
M  V30 4107 H 384.914 1.47548 -0.838315 0
M  V30 4108 H 383.686 3.55403 -1.6372 0
M  V30 4109 H 383.309 3.97592 0.0251197 0
M  V30 4110 N 384.306 0.507319 1.49211 0
M  V30 4111 C 385.254 -0.281364 2.30892 0
M  V30 4112 C 386.248 -0.95687 1.39787 0
M  V30 4113 O 387.454 -0.883838 1.56807 0
M  V30 4114 H 383.829 -0.109597 0.743971 0
M  V30 4115 H 385.8 0.42744 2.95323 0
M  V30 4116 C 384.549 -1.32918 3.21291 0
M  V30 4117 H 383.872 -0.818799 3.91326 0
M  V30 4118 H 385.312 -1.85288 3.81372 0
M  V30 4119 C 383.771 -2.35074 2.41333 0
M  V30 4120 O 384.301 -3.4108 2.12197 0
M  V30 4121 N 382.507 -2.07705 2.03241 0
M  V30 4122 H 382.054 -1.2152 2.27136 0
M  V30 4123 H 382.012 -2.76283 1.50051 0
M  V30 4124 N 385.784 -1.5574 0.241426 0
M  V30 4125 C 387.032 -1.98417 -0.384075 0
M  V30 4126 C 387.353 -1.13078 -1.58866 0
M  V30 4127 O 386.623 -0.212312 -1.94746 0
M  V30 4128 H 385.203 -0.732813 -0.144894 0
M  V30 4129 H 387.865 -1.9193 0.338943 0
M  V30 4130 H 386.961 -3.04219 -0.696939 0
M  V30 4131 N 387.262 0.0317525 -1.57568 0
M  V30 4132 C 388.225 1.01783 -2.0536 0
M  V30 4133 C 389.225 1.29203 -0.957253 0
M  V30 4134 O 390.415 1.24251 -1.22095 0
M  V30 4135 C 387.547 2.35137 -2.46827 0
M  V30 4136 H 388.74 0.605062 -2.93733 0
M  V30 4137 H 386.293 0.278514 -1.53799 0
M  V30 4138 H 387.028 2.81168 -1.61602 0
M  V30 4139 H 386.813 2.16566 -3.26866 0
M  V30 4140 H 388.303 3.05938 -2.84239 0
M  V30 4141 N 388.74 1.54641 0.303973 0
M  V30 4142 C 389.672 1.81754 1.39636 0
M  V30 4143 C 390.685 0.70035 1.46966 0
M  V30 4144 O 391.874 0.97778 1.49338 0
M  V30 4145 C 388.974 1.93785 2.7803 0
M  V30 4146 C 388.147 3.24156 2.93669 0
M  V30 4147 C 387.206 3.26641 4.12544 0
M  V30 4148 O 386.232 4.00187 4.04771 0
M  V30 4149 N 387.434 2.5182 5.23036 0
M  V30 4150 H 390.199 2.76031 1.16734 0
M  V30 4151 H 387.76 1.54178 0.494033 0
M  V30 4152 H 389.752 1.92852 3.55795 0
M  V30 4153 H 388.322 1.06515 2.93893 0
M  V30 4154 H 387.542 3.37887 2.03042 0
M  V30 4155 H 388.83 4.10195 3.01027 0
M  V30 4156 H 388.228 1.91692 5.32232 0
M  V30 4157 H 386.785 2.56644 5.99147 0
M  V30 4158 N 390.218 -0.567019 1.47046 0
M  V30 4159 C 391.467 -1.32091 1.5243 0
M  V30 4160 C 391.78 -1.94704 0.187021 0
M  V30 4161 O 392.986 -2.7124 0.118771 0
M  V30 4162 C 391.442 -2.39479 2.68659 0
M  V30 4163 C 391.05 -1.831 4.08874 0
M  V30 4164 C 392.794 -3.16111 2.83327 0
M  V30 4165 C 390.701 -2.8821 5.16419 0
M  V30 4166 H 389.631 -0.496629 0.56734 0
M  V30 4167 H 392.282 -0.603354 1.73297 0
M  V30 4168 H 390.664 -3.14105 2.41152 0
M  V30 4169 H 391.838 -1.14913 4.46242 0
M  V30 4170 H 390.153 -1.19085 3.99008 0
M  V30 4171 H 392.75 -3.94585 3.60842 0
M  V30 4172 H 393.093 -3.69686 1.91411 0
M  V30 4173 H 393.626 -2.48595 3.10556 0
M  V30 4174 H 390.365 -2.39504 6.10179 0
M  V30 4175 H 389.885 -3.54839 4.8358 0
M  V30 4176 H 391.564 -3.51881 5.42945 0
M  V30 4177 N 391.696 -1.35014 -0.812953 0
M  V30 4178 C 392.973 -1.18502 -1.55617 0
M  V30 4179 C 393.353 0.238421 -2.09749 0
M  V30 4180 O 392.701 1.2411 -1.91857 0
M  V30 4181 C 392.911 -2.24783 -2.66971 0
M  V30 4182 C 394.259 -2.60268 -3.35478 0
M  V30 4183 O 395.283 -2.23648 -2.77236 0
M  V30 4184 O 394.142 -3.2321 -4.40678 0
M  V30 4185 H 391.236 -0.459984 -0.687272 0
M  V30 4186 H 393.782 -1.46677 -0.853464 0
M  V30 4187 H 392.554 -3.20284 -2.24798 0
M  V30 4188 H 392.177 -1.97841 -3.44884 0
M  V30 4189 N 393.175 1.03435 -1.18907 0
M  V30 4190 C 394.586 1.58195 -0.991523 0
M  V30 4191 C 394.937 1.90801 0.457081 0
M  V30 4192 O 394.062 1.70272 1.33553 0
M  V30 4193 C 394.657 2.87432 -1.79355 0
M  V30 4194 C 393.216 3.38785 -1.64017 0
M  V30 4195 C 392.363 2.12292 -1.78402 0
M  V30 4196 H 395.314 0.860299 -1.33359 0
M  V30 4197 H 395.335 3.58096 -1.28638 0
M  V30 4198 H 394.847 2.63669 -2.84781 0
M  V30 4199 H 392.948 3.67547 -0.611536 0
M  V30 4200 H 393.061 4.12186 -2.44212 0
M  V30 4201 H 391.425 2.23901 -1.2141 0
M  V30 4202 H 392.208 1.90977 -2.85277 0
M  V30 4203 N 394.653 0.992116 1.22453 0
M  V30 4204 C 395.899 0.668523 1.91464 0
M  V30 4205 C 396.232 -0.797313 1.77078 0
M  V30 4206 O 395.507 -1.5765 1.13916 0
M  V30 4207 C 395.79 1.07424 3.43703 0
M  V30 4208 C 395.643 2.59857 3.67143 0
M  V30 4209 C 396.962 0.626891 4.35612 0
M  V30 4210 H 394.081 0.244341 0.695318 0
M  V30 4211 H 396.723 1.2355 1.44345 0
M  V30 4212 H 394.873 0.591816 3.83966 0
M  V30 4213 H 396.545 3.15764 3.3629 0
M  V30 4214 H 394.788 3.01961 3.11451 0
M  V30 4215 H 395.459 2.83296 4.73759 0
M  V30 4216 H 397.935 1.04125 4.02861 0
M  V30 4217 H 396.811 0.939076 5.40807 0
M  V30 4218 H 397.072 -0.472457 4.39568 0
M  V30 4219 N 396.131 -1.37776 0.765217 0
M  V30 4220 C 397.041 -2.34135 0.147666 0
M  V30 4221 C 398.057 -1.59854 -0.687215 0
M  V30 4222 O 399.233 -1.91983 -0.608659 0
M  V30 4223 C 396.298 -3.3901 -0.72617 0
M  V30 4224 C 395.359 -4.2912 0.124417 0
M  V30 4225 C 394.592 -5.28986 -0.707807 0
M  V30 4226 O 394.815 -5.36205 -1.94525 0
M  V30 4227 O 393.749 -6.01779 -0.12046 0
M  V30 4228 H 397.575 -2.88664 0.943758 0
M  V30 4229 H 395.16 -1.39824 0.526277 0
M  V30 4230 H 397.042 -4.03195 -1.22524 0
M  V30 4231 H 395.717 -2.86819 -1.50056 0
M  V30 4232 H 394.624 -3.68057 0.669696 0
M  V30 4233 H 395.957 -4.84598 0.861736 0
M  V30 4234 N 397.609 -0.515225 -1.4894 0
M  V30 4235 C 398.556 0.255567 -2.29381 0
M  V30 4236 C 399.526 0.947387 -1.36432 0
M  V30 4237 O 400.711 0.951288 -1.65394 0
M  V30 4238 C 397.851 1.30551 -3.19453 0
M  V30 4239 C 396.964 0.624029 -4.27469 0
M  V30 4240 C 396.099 1.65563 -5.0474 0
M  V30 4241 C 395.138 0.956802 -6.04576 0
M  V30 4242 N 394.275 1.93326 -6.74959 0
M  V30 4243 H 399.115 -0.436607 -2.94784 0
M  V30 4244 H 396.652 -0.227154 -1.45336 0
M  V30 4245 H 398.61 1.92639 -3.70062 0
M  V30 4246 H 397.24 1.96626 -2.56004 0
M  V30 4247 H 396.292 -0.110459 -3.8024 0
M  V30 4248 H 397.604 0.0746092 -4.98744 0
M  V30 4249 H 396.758 2.35119 -5.59289 0
M  V30 4250 H 395.497 2.23893 -4.3327 0
M  V30 4251 H 394.502 0.247097 -5.49244 0
M  V30 4252 H 395.727 0.379814 -6.78037 0
M  V30 4253 H 393.673 2.50591 -6.06251 0
M  V30 4254 H 393.59 1.43489 -7.42258 0
M  V30 4255 H 394.858 2.62126 -7.34105 0
M  V30 4256 N 399.087 1.5561 -0.249682 0
M  V30 4257 C 400.335 1.98618 0.373548 0
M  V30 4258 C 400.656 1.13919 1.58264 0
M  V30 4259 O 399.926 0.222637 1.94631 0
M  V30 4260 H 398.506 0.733571 0.141006 0
M  V30 4261 H 401.168 1.91748 -0.349117 0
M  V30 4262 H 400.264 3.04584 0.680796 0
M  V30 4263 N 400.565 -0.0233959 1.57583 0
M  V30 4264 C 401.981 -0.379134 1.55031 0
M  V30 4265 C 402.181 -1.76255 0.976548 0
M  V30 4266 O 401.237 -2.45266 0.600078 0
M  V30 4267 C 402.55 -0.275792 2.99433 0
M  V30 4268 C 404.098 -0.352458 3.11009 0
M  V30 4269 C 404.573 -0.278501 4.57152 0
M  V30 4270 N 406.064 -0.337123 4.61972 0
M  V30 4271 C 406.799 -0.302876 5.726 0
M  V30 4272 N 406.295 -0.220589 6.92449 0
M  V30 4273 N 408.088 -0.353023 5.6099 0
M  V30 4274 H 400.239 0.881869 1.93227 0
M  V30 4275 H 402.502 0.335867 0.886509 0
M  V30 4276 H 402.208 0.675108 3.4516 0
M  V30 4277 H 402.082 -1.06721 3.61788 0
M  V30 4278 H 404.469 -1.29379 2.65226 0
M  V30 4279 H 404.55 0.468409 2.51475 0
M  V30 4280 H 404.194 0.659189 5.03604 0
M  V30 4281 H 404.124 -1.11755 5.14605 0
M  V30 4282 H 406.615 -0.403002 3.75745 0
M  V30 4283 H 406.928 -0.199713 7.72542 0
M  V30 4284 H 405.273 -0.186555 6.9475 0
M  V30 4285 H 408.464 -0.415339 4.66254 0
M  V30 4286 H 408.637 -0.322866 6.47195 0
M  V30 4287 N 402.043 -1.548 -0.295768 0
M  V30 4288 C 403.283 -1.76069 -1.03823 0
M  V30 4289 C 403.647 -0.537992 -1.84309 0
M  V30 4290 O 404.848 -0.628514 -2.61349 0
M  V30 4291 C 403.119 -3.01705 -1.91596 0
M  V30 4292 S 404.678 -3.43998 -2.72416 0
M  V30 4293 H 401.496 -0.618852 -0.350062 0
M  V30 4294 H 404.098 -1.93009 -0.31106 0
M  V30 4295 H 402.802 -3.88812 -1.31351 0
M  V30 4296 H 402.333 -2.87366 -2.68671 0
M  V30 4297 H 404.348 -3.0148 -3.94112 0
M  V30 4298 N 403.521 0.559213 -1.47345 0
M  V30 4299 C 404.749 1.34194 -1.57479 0
M  V30 4300 C 405.164 1.87463 -0.224261 0
M  V30 4301 O 404.521 1.64888 0.782185 0
M  V30 4302 C 404.572 2.51324 -2.59843 0
M  V30 4303 O 404.293 2.00256 -3.89653 0
M  V30 4304 C 405.794 3.43563 -2.80142 0
M  V30 4305 H 403.014 0.409136 -0.531835 0
M  V30 4306 H 405.558 0.677609 -1.92947 0
M  V30 4307 H 403.713 3.13699 -2.27314 0
M  V30 4308 H 404.127 2.76708 -4.4557 0
M  V30 4309 H 405.601 4.2217 -3.55635 0
M  V30 4310 H 406.078 3.9698 -1.87892 0
M  V30 4311 H 406.684 2.87005 -3.1386 0
M  V30 4312 N 404.999 1.35443 0.805782 0
M  V30 4313 C 405.962 1.28301 1.89925 0
M  V30 4314 C 406.962 0.194285 1.59622 0
M  V30 4315 O 408.152 0.448036 1.6834 0
M  V30 4316 C 405.284 0.984997 3.2636 0
M  V30 4317 H 406.477 2.2553 1.97677 0
M  V30 4318 H 404.03 1.19979 1.00173 0
M  V30 4319 H 404.765 0.016603 3.24296 0
M  V30 4320 H 404.55 1.77269 3.4974 0
M  V30 4321 H 406.04 0.960651 4.064 0
M  V30 4322 N 406.477 -1.02803 1.19454 0
M  V30 4323 C 407.726 -1.7562 0.991996 0
M  V30 4324 C 408.039 -1.89672 -0.477901 0
M  V30 4325 O 409.245 -2.59468 -0.799287 0
M  V30 4326 C 407.701 -3.15812 1.72601 0
M  V30 4327 C 407.309 -3.0981 3.23607 0
M  V30 4328 C 409.053 -3.92918 1.60674 0
M  V30 4329 C 406.96 -4.44939 3.89594 0
M  V30 4330 H 405.89 -0.658352 0.367543 0
M  V30 4331 H 408.541 -1.15044 1.42959 0
M  V30 4332 H 406.923 -3.7686 1.21624 0
M  V30 4333 H 408.097 -2.58138 3.81709 0
M  V30 4334 H 406.412 -2.46201 3.35819 0
M  V30 4335 H 409.009 -4.9287 2.07323 0
M  V30 4336 H 409.352 -4.12502 0.561025 0
M  V30 4337 H 409.885 -3.38472 2.09001 0
M  V30 4338 H 406.624 -4.30559 4.94267 0
M  V30 4339 H 406.144 -4.96664 3.36281 0
M  V30 4340 H 407.823 -5.1382 3.93189 0
M  V30 4341 N 407.956 -0.998596 -1.21925 0
M  V30 4342 C 408.906 -0.524743 -2.21879 0
M  V30 4343 C 409.89 0.41017 -1.55584 0
M  V30 4344 O 411.082 0.236063 -1.75419 0
M  V30 4345 C 408.211 0.153636 -3.42956 0
M  V30 4346 C 407.297 -0.801918 -4.16449 0
M  V30 4347 N 407.688 -1.95211 -4.66611 0
M  V30 4348 C 405.986 -0.618972 -4.41684 0
M  V30 4349 C 406.687 -2.55234 -5.22715 0
M  V30 4350 N 405.663 -1.83451 -5.1171 0
M  V30 4351 H 409.465 -1.40189 -2.58311 0
M  V30 4352 H 406.979 -0.86159 -1.3766 0
M  V30 4353 H 408.976 0.510534 -4.13762 0
M  V30 4354 H 407.636 1.02684 -3.08036 0
M  V30 4355 H 408.647 -2.33271 -4.62391 0
M  V30 4356 H 405.324 0.207694 -4.16983 0
M  V30 4357 H 406.714 -3.52471 -5.72026 0
M  V30 4358 N 409.434 1.37368 -0.772513 0
M  V30 4359 C 410.681 1.99673 -0.337182 0
M  V30 4360 C 411.009 1.61324 1.0865 0
M  V30 4361 O 410.264 0.851377 1.7621 0
M  V30 4362 C 410.563 3.54817 -0.428876 0
M  V30 4363 C 410.229 4.12936 -1.81092 0
M  V30 4364 C 408.891 4.28523 -2.1891 0
M  V30 4365 C 411.243 4.44801 -2.71664 0
M  V30 4366 C 408.571 4.73277 -3.46735 0
M  V30 4367 C 410.923 4.90981 -3.98899 0
M  V30 4368 C 409.587 5.04773 -4.36761 0
M  V30 4369 H 408.857 0.730656 -0.123384 0
M  V30 4370 H 411.504 1.64124 -0.986686 0
M  V30 4371 H 409.809 3.90618 0.304167 0
M  V30 4372 H 411.506 4.00933 -0.0733334 0
M  V30 4373 H 408.096 4.01233 -1.50699 0
M  V30 4374 H 412.28 4.32344 -2.43706 0
M  V30 4375 H 407.536 4.82142 -3.75964 0
M  V30 4376 H 411.71 5.14603 -4.69208 0
M  V30 4377 H 409.337 5.39211 -5.35868 0
M  V30 4378 N 410.912 0.523116 1.48665 0
M  V30 4379 C 411.875 -0.232592 2.28017 0
M  V30 4380 C 412.875 -0.874021 1.34972 0
M  V30 4381 O 414.065 -0.735132 1.57929 0
M  V30 4382 C 411.197 -1.33586 3.13636 0
M  V30 4383 H 412.39 0.464008 2.96289 0
M  V30 4384 H 409.943 0.278816 1.53793 0
M  V30 4385 H 410.678 -2.06593 2.4998 0
M  V30 4386 H 410.463 -0.881125 3.82071 0
M  V30 4387 H 411.953 -1.86759 3.73511 0
M  V30 4388 N 412.39 -1.55475 0.257931 0
M  V30 4389 C 413.353 -2.20551 -0.623706 0
M  V30 4390 C 414.353 -1.17809 -1.09443 0
M  V30 4391 O 415.543 -1.42823 -0.997362 0
M  V30 4392 C 412.675 -2.85784 -1.8585 0
M  V30 4393 H 413.868 -2.99848 -0.0557743 0
M  V30 4394 H 411.421 -1.56298 0.0084422 0
M  V30 4395 H 412.156 -2.10453 -2.46739 0
M  V30 4396 H 411.941 -3.61057 -1.52907 0
M  V30 4397 H 413.431 -3.35553 -2.48584 0
M  V30 4398 N 413.868 0.0150385 -1.57593 0
M  V30 4399 C 415.096 0.714395 -1.94175 0
M  V30 4400 C 415.511 1.68135 -0.858841 0
M  V30 4401 O 414.868 1.81766 0.163567 0
M  V30 4402 C 414.919 1.45933 -3.30735 0
M  V30 4403 O 414.64 0.531167 -4.34868 0
M  V30 4404 C 416.141 2.25456 -3.81686 0
M  V30 4405 H 413.361 0.199923 -0.640525 0
M  V30 4406 H 415.905 -0.0316096 -2.04476 0
M  V30 4407 H 414.06 2.15709 -3.21789 0
M  V30 4408 H 414.474 1.05509 -5.13778 0
M  V30 4409 H 415.948 2.731 -4.79709 0
M  V30 4410 H 416.425 3.07485 -3.13607 0
M  V30 4411 H 417.031 1.60727 -3.9376 0
M  V30 4412 N 415.346 1.54954 0.287554 0
M  V30 4413 C 416.278 1.83224 1.37701 0
M  V30 4414 C 417.291 0.715898 1.46215 0
M  V30 4415 O 418.48 0.993565 1.48292 0
M  V30 4416 C 415.58 1.96723 2.75959 0
M  V30 4417 C 414.753 3.27253 2.90215 0
M  V30 4418 C 413.812 3.30998 4.09056 0
M  V30 4419 O 412.838 4.04457 4.00503 0
M  V30 4420 N 414.04 2.57353 5.20336 0
M  V30 4421 H 416.805 2.77254 1.138 0
M  V30 4422 H 414.366 1.54694 0.477652 0
M  V30 4423 H 416.358 1.96615 3.5373 0
M  V30 4424 H 414.928 1.09626 2.92747 0
M  V30 4425 H 414.148 3.40022 1.99447 0
M  V30 4426 H 415.436 4.13365 2.96659 0
M  V30 4427 H 414.834 1.97327 5.30169 0
M  V30 4428 H 413.391 2.62984 5.96391 0
M  V30 4429 N 416.824 -0.551391 1.4764 0
M  V30 4430 C 418.072 -1.30572 1.54258 0
M  V30 4431 C 418.393 -1.93877 0.208963 0
M  V30 4432 O 417.663 -1.80234 -0.767619 0
M  V30 4433 H 416.243 -0.484894 0.568231 0
M  V30 4434 H 418.905 -0.643402 1.83974 0
M  V30 4435 H 418.001 -2.09621 2.31226 0
M  V30 4436 N 418.302 -1.35869 -0.798587 0
M  V30 4437 C 419.265 -1.29307 -1.89242 0
M  V30 4438 C 420.265 -0.202747 -1.59517 0
M  V30 4439 O 421.455 -0.456957 -1.681 0
M  V30 4440 C 418.587 -1.00229 -3.25833 0
M  V30 4441 H 419.78 -2.26576 -1.96478 0
M  V30 4442 H 417.333 -1.20509 -0.995358 0
M  V30 4443 H 418.068 -0.033801 -3.24282 0
M  V30 4444 H 417.853 -1.79121 -3.48795 0
M  V30 4445 H 419.343 -0.98219 -4.05885 0
M  V30 4446 N 419.78 1.02168 -1.19998 0
M  V30 4447 C 421.008 1.79296 -1.03249 0
M  V30 4448 C 421.423 1.84103 0.418502 0
M  V30 4449 O 420.78 1.29031 1.29063 0
M  V30 4450 C 420.831 3.24007 -1.60319 0
M  V30 4451 O 420.552 3.19512 -2.99739 0
M  V30 4452 C 422.053 4.17704 -1.48453 0
M  V30 4453 H 419.273 0.564016 -0.363493 0
M  V30 4454 H 421.817 1.28639 -1.58973 0
M  V30 4455 H 419.972 3.7183 -1.08727 0
M  V30 4456 H 420.386 4.10306 -3.26725 0
M  V30 4457 H 421.86 5.17104 -1.93153 0
M  V30 4458 H 422.337 4.37029 -0.436193 0
M  V30 4459 H 422.943 3.7576 -1.99211 0
M  V30 4460 N 421.258 1.00505 1.21394 0
M  V30 4461 C 422.168 0.574806 2.27449 0
M  V30 4462 C 423.184 -0.382206 1.6975 0
M  V30 4463 O 424.36 -0.246027 1.99892 0
M  V30 4464 C 421.425 -0.0917414 3.46579 0
M  V30 4465 C 420.486 0.909758 4.1955 0
M  V30 4466 C 419.719 0.274924 5.32991 0
M  V30 4467 O 419.942 -0.928254 5.62796 0
M  V30 4468 O 418.876 0.985877 5.93771 0
M  V30 4469 H 422.702 1.45744 2.66444 0
M  V30 4470 H 420.287 0.773923 1.27792 0
M  V30 4471 H 422.169 -0.464551 4.18832 0
M  V30 4472 H 420.844 -0.948755 3.09484 0
M  V30 4473 H 419.751 1.33372 3.49518 0
M  V30 4474 H 421.084 1.73636 4.60555 0
M  V30 4475 N 422.737 -1.36956 0.779787 0
M  V30 4476 C 423.986 -1.98738 0.344405 0
M  V30 4477 C 424.299 -1.62596 -1.08728 0
M  V30 4478 O 425.505 -2.1754 -1.62445 0
M  V30 4479 C 423.961 -3.5544 0.564829 0
M  V30 4480 C 423.569 -4.00514 2.0073 0
M  V30 4481 C 425.313 -4.24059 0.193471 0
M  V30 4482 C 423.22 -5.49957 2.17489 0
M  V30 4483 H 422.15 -0.743561 0.12503 0
M  V30 4484 H 424.801 -1.56381 0.960057 0
M  V30 4485 H 423.183 -3.95817 -0.120397 0
M  V30 4486 H 424.357 -3.71362 2.72814 0
M  V30 4487 H 422.672 -3.44703 2.336 0
M  V30 4488 H 425.269 -5.33874 0.297097 0
M  V30 4489 H 425.612 -4.07378 -0.857263 0
M  V30 4490 H 426.145 -3.89012 0.831556 0
M  V30 4491 H 422.884 -5.71574 3.2091 0
M  V30 4492 H 422.404 -5.80767 1.49899 0
M  V30 4493 H 424.083 -6.16043 1.97738 0
M  V30 4494 N 424.215 -0.530993 -1.48385 0
M  V30 4495 C 425.461 0.00274135 -2.028 0
M  V30 4496 C 425.794 1.33838 -1.40716 0
M  V30 4497 O 425.069 1.86465 -0.553277 0
M  V30 4498 C 425.352 0.123676 -3.59888 0
M  V30 4499 C 425.205 -1.2372 -4.3245 0
M  V30 4500 C 426.524 0.849967 -4.31814 0
M  V30 4501 H 423.643 -0.000477758 -0.737 0
M  V30 4502 H 426.285 -0.688217 -1.77098 0
M  V30 4503 H 424.435 0.712157 -3.81917 0
M  V30 4504 H 426.107 -1.86687 -4.21836 0
M  V30 4505 H 424.35 -1.81882 -3.93829 0
M  V30 4506 H 425.021 -1.10557 -5.40815 0
M  V30 4507 H 427.497 0.350572 -4.14621 0
M  V30 4508 H 426.373 0.903486 -5.41413 0
M  V30 4509 H 426.634 1.90047 -3.99167 0
M  V30 4510 N 425.693 1.55336 -0.266172 0
M  V30 4511 C 426.64 2.22172 0.625165 0
M  V30 4512 C 427.61 1.19211 1.15663 0
M  V30 4513 O 428.795 1.47723 1.20758 0
M  V30 4514 C 425.935 2.93972 1.8076 0
M  V30 4515 C 425.048 4.11632 1.31084 0
M  V30 4516 C 424.183 4.71099 2.45436 0
M  V30 4517 C 423.222 5.8097 1.92718 0
M  V30 4518 N 422.359 6.34538 3.00509 0
M  V30 4519 H 427.199 2.9796 0.0485582 0
M  V30 4520 H 424.736 1.47095 0.0122024 0
M  V30 4521 H 426.694 3.33811 2.50251 0
M  V30 4522 H 425.324 2.20623 2.35638 0
M  V30 4523 H 424.376 3.76975 0.509326 0
M  V30 4524 H 425.688 4.90893 0.884633 0
M  V30 4525 H 424.842 5.13612 3.22936 0
M  V30 4526 H 423.581 3.91096 2.91368 0
M  V30 4527 H 422.586 5.37916 1.13695 0
M  V30 4528 H 423.811 6.62836 1.47733 0
M  V30 4529 H 421.757 5.57433 3.45839 0
M  V30 4530 H 421.674 7.09046 2.62279 0
M  V30 4531 H 422.942 6.81709 3.78011 0
M  V30 4532 N 427.171 -0.0066808 1.57599 0
M  V30 4533 C 428.101 -0.999296 2.11036 0
M  V30 4534 C 429.082 -1.36278 1.01795 0
M  V30 4535 O 430.267 -1.4477 1.29442 0
M  V30 4536 C 427.397 -2.29328 2.60818 0
M  V30 4537 C 426.351 -2.07159 3.74525 0
M  V30 4538 C 425.677 -3.42512 4.10596 0
M  V30 4539 C 426.977 -1.43959 5.02069 0
M  V30 4540 H 428.671 -0.554382 2.94223 0
M  V30 4541 H 426.217 -0.265221 1.41536 0
M  V30 4542 H 428.17 -2.99117 2.96828 0
M  V30 4543 H 426.894 -2.7592 1.74745 0
M  V30 4544 H 425.553 -1.39797 3.38899 0
M  V30 4545 H 425.201 -3.86795 3.21556 0
M  V30 4546 H 424.901 -3.28498 4.87199 0
M  V30 4547 H 426.425 -4.13628 4.4916 0
M  V30 4548 H 427.839 -2.03696 5.35893 0
M  V30 4549 H 426.236 -1.40452 5.83432 0
M  V30 4550 H 427.306 -0.407992 4.83181 0
M  V30 4551 N 428.649 -1.55105 -0.279332 0
M  V30 4552 C 429.582 -1.82467 -1.37044 0
M  V30 4553 C 430.56 -0.677261 -1.47824 0
M  V30 4554 O 431.744 -0.919578 -1.64548 0
M  V30 4555 C 428.871 -1.98066 -2.7475 0
M  V30 4556 C 427.917 -3.20594 -2.81286 0
M  V30 4557 S 428.75 -4.78116 -2.41175 0
M  V30 4558 C 429.906 -4.9668 -3.80867 0
M  V30 4559 H 430.139 -2.74728 -1.1363 0
M  V30 4560 H 427.672 -1.46794 -0.478625 0
M  V30 4561 H 429.63 -2.07739 -3.54055 0
M  V30 4562 H 428.291 -1.06704 -2.9542 0
M  V30 4563 H 427.484 -3.28376 -3.82341 0
M  V30 4564 H 427.086 -3.09479 -2.09996 0
M  V30 4565 H 429.378 -4.82033 -4.76078 0
M  V30 4566 H 430.321 -5.98741 -3.78041 0
M  V30 4567 H 430.729 -4.24698 -3.71876 0
M  V30 4568 N 430.127 0.543554 -1.4793 0
M  V30 4569 C 431.376 1.29649 -1.54512 0
M  V30 4570 C 431.689 1.94382 -0.217973 0
M  V30 4571 O 432.895 2.71017 -0.161908 0
M  V30 4572 C 431.351 2.35175 -2.72435 0
M  V30 4573 C 430.959 1.76572 -4.11736 0
M  V30 4574 C 432.703 3.11564 -2.8832 0
M  V30 4575 C 430.61 2.79958 -5.20939 0
M  V30 4576 H 429.54 0.487541 -0.57517 0
M  V30 4577 H 432.191 0.575708 -1.74235 0
M  V30 4578 H 430.573 3.10229 -2.46118 0
M  V30 4579 H 431.747 1.07799 -4.48013 0
M  V30 4580 H 430.062 1.12722 -4.00852 0
M  V30 4581 H 432.659 3.88794 -3.67074 0
M  V30 4582 H 433.002 3.66594 -1.97268 0
M  V30 4583 H 433.535 2.43623 -3.14472 0
M  V30 4584 H 430.274 2.29766 -6.13912 0
M  V30 4585 H 429.794 3.47101 -4.89164 0
M  V30 4586 H 431.473 3.43198 -5.48474 0
M  V30 4587 N 431.605 1.3629 0.791371 0
M  V30 4588 C 432.83 1.33726 1.58531 0
M  V30 4589 C 433.255 -0.0794933 1.87932 0
M  V30 4590 O 432.613 -1.05087 1.47738 0
M  V30 4591 C 432.661 2.16425 2.88431 0
M  V30 4592 O 431.765 1.5554 3.81944 0
M  V30 4593 H 431.106 0.457793 0.480959 0
M  V30 4594 H 433.636 1.79547 0.981031 0
M  V30 4595 H 433.646 2.28933 3.37718 0
M  V30 4596 H 432.321 3.19415 2.66359 0
M  V30 4597 H 430.898 1.51961 3.40532 0
M  V30 4598 N 433.083 -1.0153 1.20538 0
M  V30 4599 C 434.308 -1.79283 1.04271 0
M  V30 4600 C 434.733 -1.8372 -0.403544 0
M  V30 4601 O 434.091 -1.27321 -1.2907 0
M  V30 4602 C 434.139 -3.21535 1.63241 0
M  V30 4603 O 433.243 -4.03099 0.870908 0
M  V30 4604 H 432.584 -0.55293 0.367647 0
M  V30 4605 H 435.114 -1.27696 1.59859 0
M  V30 4606 H 435.124 -3.72243 1.6703 0
M  V30 4607 H 433.799 -3.1762 2.68497 0
M  V30 4608 H 432.376 -3.61693 0.907323 0
M  V30 4609 N 434.561 -1.01147 -1.20859 0
M  V30 4610 C 435.791 -0.715872 -1.93801 0
M  V30 4611 C 436.199 0.726592 -1.74692 0
M  V30 4612 O 435.542 1.50397 -1.05482 0
M  V30 4613 C 435.604 -0.965269 -3.46299 0
M  V30 4614 C 435.268 -2.39584 -3.89164 0
M  V30 4615 C 436.265 -3.3764 -3.95342 0
M  V30 4616 C 433.95 -2.73522 -4.21297 0
M  V30 4617 C 435.944 -4.67698 -4.33056 0
M  V30 4618 C 433.631 -4.03794 -4.58687 0
M  V30 4619 C 434.629 -5.00693 -4.64538 0
M  V30 4620 O 434.317 -6.28635 -5.01072 0
M  V30 4621 H 434.049 -0.262524 -0.622942 0
M  V30 4622 H 436.603 -1.35413 -1.54443 0
M  V30 4623 H 434.833 -0.269847 -3.85757 0
M  V30 4624 H 436.522 -0.662051 -4.00464 0
M  V30 4625 H 437.288 -3.12757 -3.70686 0
M  V30 4626 H 433.167 -1.9879 -4.15937 0
M  V30 4627 H 436.711 -5.4333 -4.37537 0
M  V30 4628 H 432.608 -4.28459 -4.82797 0
M  V30 4629 H 433.376 -6.32847 -5.19083 0
M  V30 4630 N 436.039 1.36541 -0.78704 0
M  V30 4631 C 437.264 2.0409 -0.369053 0
M  V30 4632 C 437.689 1.58957 1.00569 0
M  V30 4633 O 437.047 0.756926 1.64743 0
M  V30 4634 C 437.095 3.57924 -0.438466 0
M  V30 4635 O 436.199 4.08642 0.555479 0
M  V30 4636 H 435.54 0.645142 -0.157122 0
M  V30 4637 H 438.07 1.74545 -1.06749 0
M  V30 4638 H 438.08 4.06887 -0.301218 0
M  V30 4639 H 436.755 3.90127 -1.44132 0
M  V30 4640 H 435.332 3.70958 0.380088 0
M  V30 4641 N 437.518 0.538854 1.48102 0
M  V30 4642 C 438.766 0.00798599 2.02098 0
M  V30 4643 C 439.087 -1.33922 1.41739 0
M  V30 4644 O 438.357 -1.86932 0.585934 0
M  V30 4645 H 436.937 -3.62179e-05 0.747 0
M  V30 4646 H 439.599 0.7047 1.81714 0
M  V30 4647 H 438.695 -0.0937672 3.11959 0
M  V30 4648 N 438.996 -1.55193 0.274407 0
M  V30 4649 C 440.221 -2.04446 -0.348824 0
M  V30 4650 C 440.646 -1.15149 -1.48735 0
M  V30 4651 O 440.004 -0.149952 -1.80679 0
M  V30 4652 C 440.052 -3.51431 -0.808009 0
M  V30 4653 O 439.156 -3.65225 -1.91531 0
M  V30 4654 H 438.497 -0.66006 -0.0722276 0
M  V30 4655 H 441.027 -2.00481 0.408498 0
M  V30 4656 H 441.037 -3.92781 -1.10395 0
M  V30 4657 H 439.712 -4.15892 0.0249865 0
M  V30 4658 H 438.289 -3.35778 -1.62196 0
M  V30 4659 N 440.474 -0.00167713 -1.576 0
M  V30 4660 C 441.72 0.683832 -1.90923 0
M  V30 4661 C 442.053 1.7333 -0.875799 0
M  V30 4662 O 441.328 1.94215 0.10525 0
M  V30 4663 C 441.611 1.32543 -3.3482 0
M  V30 4664 C 441.464 0.287387 -4.48881 0
M  V30 4665 C 442.783 2.25114 -3.78169 0
M  V30 4666 H 439.902 0.247125 -0.694333 0
M  V30 4667 H 442.544 -0.0533149 -1.89925 0
M  V30 4668 H 440.694 1.95372 -3.35801 0
M  V30 4669 H 442.366 -0.341346 -4.60035 0
M  V30 4670 H 440.609 -0.39017 -4.32042 0
M  V30 4671 H 441.28 0.775393 -5.46527 0
M  V30 4672 H 443.756 1.723 -3.7875 0
M  V30 4673 H 442.632 2.66971 -4.79602 0
M  V30 4674 H 442.893 3.13092 -3.12131 0
M  V30 4675 N 441.952 1.55251 0.271103 0
M  V30 4676 C 443.229 1.66664 1.02384 0
M  V30 4677 C 443.609 0.534363 2.04225 0
M  V30 4678 O 442.957 -0.465337 2.23712 0
M  V30 4679 C 443.167 3.05961 1.67895 0
M  V30 4680 C 444.515 3.63772 2.18986 0
M  V30 4681 O 445.539 3.08606 1.77878 0
M  V30 4682 O 444.398 4.60429 2.94393 0
M  V30 4683 H 441.492 0.676957 0.475035 0
M  V30 4684 H 444.038 1.67589 0.26681 0
M  V30 4685 H 442.81 3.79815 0.941071 0
M  V30 4686 H 442.433 3.08943 2.5028 0
M  V30 4687 N 443.43 -0.535701 1.48216 0
M  V30 4688 C 444.679 -1.28828 1.55197 0
M  V30 4689 C 444.992 -1.94263 0.228278 0
M  V30 4690 O 446.198 -2.70927 0.176278 0
M  V30 4691 C 444.654 -2.33727 2.73678 0
M  V30 4692 C 444.262 -1.74386 4.12666 0
M  V30 4693 C 446.006 -3.1003 2.89968 0
M  V30 4694 C 443.913 -2.77192 5.22416 0
M  V30 4695 H 442.843 -0.484484 0.577747 0
M  V30 4696 H 445.494 -0.56646 1.74538 0
M  V30 4697 H 443.876 -3.08919 2.4776 0
M  V30 4698 H 445.05 -1.05421 4.48579 0
M  V30 4699 H 443.365 -1.10595 4.01445 0
M  V30 4700 H 445.962 -3.86842 3.6913 0
M  V30 4701 H 446.305 -3.65542 1.9921 0
M  V30 4702 H 446.838 -2.41952 3.15759 0
M  V30 4703 H 443.577 -2.26507 6.15122 0
M  V30 4704 H 443.097 -3.44502 4.90998 0
M  V30 4705 H 444.776 -3.40285 5.50286 0
M  V30 4706 N 444.908 -1.36708 -0.784132 0
M  V30 4707 C 446.154 -1.31426 -1.54451 0
M  V30 4708 C 446.487 0.10476 -1.93917 0
M  V30 4709 O 445.762 1.05934 -1.6312 0
M  V30 4710 C 446.045 -2.24189 -2.818 0
M  V30 4711 C 445.898 -3.74813 -2.48667 0
M  V30 4712 C 447.217 -2.15626 -3.83658 0
M  V30 4713 H 444.336 -0.478739 -0.560337 0
M  V30 4714 H 446.978 -1.67305 -0.900498 0
M  V30 4715 H 445.128 -1.93722 -3.36755 0
M  V30 4716 H 446.8 -4.15823 -1.99722 0
M  V30 4717 H 445.043 -3.93989 -1.81535 0
M  V30 4718 H 445.714 -4.35138 -3.39646 0
M  V30 4719 H 448.19 -2.42456 -3.38163 0
M  V30 4720 H 447.066 -2.82694 -4.70506 0
M  V30 4721 H 447.327 -1.14522 -4.27009 0
M  V30 4722 N 446.386 1.0089 -1.21074 0
M  V30 4723 C 447.334 2.11707 -0.963476 0
M  V30 4724 C 448.328 1.69172 0.0879032 0
M  V30 4725 O 449.534 1.79889 -0.0631415 0
M  V30 4726 H 445.909 0.692026 -0.294287 0
M  V30 4727 H 447.88 2.29743 -1.90422 0
M  V30 4728 C 446.629 3.43473 -0.540509 0
M  V30 4729 H 445.952 3.76634 -1.34114 0
M  V30 4730 H 447.392 4.22044 -0.406777 0
M  V30 4731 C 445.851 3.2849 0.748079 0
M  V30 4732 O 446.381 3.58883 1.8046 0
M  V30 4733 N 444.587 2.81715 0.713081 0
M  V30 4734 H 444.134 2.5718 -0.146973 0
M  V30 4735 H 444.092 2.72071 1.57558 0
M  V30 4736 N 447.864 1.01787 1.20321 0
M  V30 4737 C 449.092 0.727194 1.937 0
M  V30 4738 C 449.507 -0.712305 1.74848 0
M  V30 4739 O 448.864 -1.48327 1.06327 0
M  V30 4740 C 448.915 1.05497 3.45764 0
M  V30 4741 O 448.636 2.43794 3.64 0
M  V30 4742 C 450.137 0.785534 4.36285 0
M  V30 4743 H 447.357 0.266939 0.615617 0
M  V30 4744 H 449.901 1.35939 1.52777 0
M  V30 4745 H 448.056 0.468158 3.84561 0
M  V30 4746 H 448.47 2.55656 4.57974 0
M  V30 4747 H 449.944 1.06495 5.4163 0
M  V30 4748 H 450.421 -0.280273 4.38305 0
M  V30 4749 H 451.027 1.35456 4.03152 0
M  V30 4750 N 449.342 -1.36122 0.79427 0
M  V30 4751 C 450.57 -2.03362 0.380989 0
M  V30 4752 C 450.985 -1.59881 -1.00416 0
M  V30 4753 O 450.342 -0.790515 -1.6449 0
M  V30 4754 C 450.393 -3.58804 0.440649 0
M  V30 4755 O 450.114 -4.007 1.77118 0
M  V30 4756 C 451.615 -4.43296 0.0186117 0
M  V30 4757 H 448.835 -0.652526 0.156367 0
M  V30 4758 H 451.379 -1.73998 1.07447 0
M  V30 4759 H 449.534 -3.8686 -0.204458 0
M  V30 4760 H 449.948 -4.95309 1.72538 0
M  V30 4761 H 451.422 -5.51887 0.111488 0
M  V30 4762 H 451.899 -4.2684 -1.03461 0
M  V30 4763 H 452.505 -4.20512 0.636395 0
M  V30 4764 N 450.82 -0.546701 -1.47814 0
M  V30 4765 C 452.097 0.0464413 -1.95545 0
M  V30 4766 C 452.477 1.4962 -1.48919 0
M  V30 4767 O 451.825 2.16752 -0.723232 0
M  V30 4768 C 452.035 -0.0881298 -3.48889 0
M  V30 4769 C 453.383 0.0626059 -4.24554 0
M  V30 4770 O 454.407 -0.0151555 -3.56197 0
M  V30 4771 O 453.266 0.228071 -5.46024 0
M  V30 4772 H 450.36 0.0700004 -0.824032 0
M  V30 4773 H 452.906 -0.612482 -1.58262 0
M  V30 4774 H 451.678 -1.09737 -3.75597 0
M  V30 4775 H 451.301 0.608886 -3.9291 0
M  V30 4776 N 452.299 1.55045 -0.282633 0
M  V30 4777 C 453.547 1.99365 0.331334 0
M  V30 4778 C 453.868 1.1725 1.55812 0
M  V30 4779 O 453.138 0.263871 1.94115 0
M  V30 4780 H 451.718 0.736397 0.125414 0
M  V30 4781 H 454.38 1.90964 -0.389711 0
M  V30 4782 H 453.476 3.0596 0.616036 0
M  V30 4783 N 453.777 0.010035 1.57597 0
M  V30 4784 C 455.017 -0.677084 1.9286 0
M  V30 4785 C 455.381 -1.70377 0.885192 0
M  V30 4786 O 456.582 -2.44199 1.12339 0
M  V30 4787 C 454.853 -1.29452 3.33132 0
M  V30 4788 S 456.412 -2.00537 3.90295 0
M  V30 4789 H 453.23 -0.223409 0.674989 0
M  V30 4790 H 455.832 0.0691289 1.95378 0
M  V30 4791 H 454.536 -0.534593 4.06903 0
M  V30 4792 H 454.067 -2.07845 3.34012 0
M  V30 4793 H 456.082 -3.28168 3.72183 0
M  V30 4794 N 455.255 -1.55392 -0.262866 0
M  V30 4795 C 456.205 -1.85355 -1.32768 0
M  V30 4796 C 457.189 -0.713188 -1.44231 0
M  V30 4797 O 458.381 -0.974765 -1.47741 0
M  V30 4798 C 455.51 -2.13781 -2.68612 0
M  V30 4799 C 454.596 -3.34104 -2.61219 0
M  V30 4800 N 454.987 -4.53766 -2.2345 0
M  V30 4801 C 453.285 -3.36895 -2.92263 0
M  V30 4802 C 453.986 -5.35877 -2.26298 0
M  V30 4803 N 452.962 -4.74536 -2.65172 0
M  V30 4804 H 456.764 -2.75413 -1.02591 0
M  V30 4805 H 454.278 -1.55405 -0.471503 0
M  V30 4806 H 456.275 -2.33407 -3.45437 0
M  V30 4807 H 454.935 -1.25013 -2.99669 0
M  V30 4808 H 455.946 -4.79682 -1.95258 0
M  V30 4809 H 452.623 -2.58351 -3.27965 0
M  V30 4810 H 454.013 -6.41577 -1.99572 0
M  V30 4811 N 456.733 0.527833 -1.48498 0
M  V30 4812 C 457.643 1.65907 -1.65867 0
M  V30 4813 C 458.659 1.6537 -0.541192 0
M  V30 4814 O 459.835 1.84282 -0.812534 0
M  V30 4815 C 456.9 3.02364 -1.69637 0
M  V30 4816 C 455.961 3.1374 -2.93028 0
M  V30 4817 C 455.194 4.43688 -2.96609 0
M  V30 4818 O 455.417 5.30913 -2.08538 0
M  V30 4819 O 454.351 4.59475 -3.88802 0
M  V30 4820 H 458.177 1.5419 -2.61647 0
M  V30 4821 H 455.762 0.701163 -1.31924 0
M  V30 4822 H 457.644 3.83515 -1.74625 0
M  V30 4823 H 456.319 3.14401 -0.770312 0
M  V30 4824 H 455.226 2.31877 -2.93571 0
M  V30 4825 H 456.559 3.06621 -3.85026 0
M  V30 4826 N 458.211 1.37122 0.776871 0
M  V30 4827 C 459.439 1.3523 1.5659 0
M  V30 4828 C 459.854 -0.0635518 1.88693 0
M  V30 4829 O 459.211 -1.02394 1.51069 0
M  V30 4830 C 459.262 2.18583 2.8793 0
M  V30 4831 O 458.983 3.5465 2.57206 0
M  V30 4832 C 460.484 2.24612 3.82183 0
M  V30 4833 H 457.704 0.4634 0.485285 0
M  V30 4834 H 460.248 1.80392 0.963266 0
M  V30 4835 H 458.403 1.76943 3.4463 0
M  V30 4836 H 458.817 3.98286 3.41275 0
M  V30 4837 H 460.291 2.87267 4.71361 0
M  V30 4838 H 460.768 1.25309 4.20944 0
M  V30 4839 H 461.374 2.66543 3.31414 0
M  V30 4840 N 459.689 -1.00246 1.21608 0
M  V30 4841 C 460.622 -2.08794 0.920892 0
M  V30 4842 C 461.6 -1.62059 -0.132552 0
M  V30 4843 O 462.784 -1.885 -0.0030366 0
M  V30 4844 C 459.911 -3.36525 0.383226 0
M  V30 4845 C 458.957 -4.02172 1.41987 0
M  V30 4846 S 459.79 -4.44256 2.98994 0
M  V30 4847 C 460.946 -5.7517 2.4684 0
M  V30 4848 H 461.179 -2.33511 1.8401 0
M  V30 4849 H 458.712 -1.13562 1.04609 0
M  V30 4850 H 460.67 -4.10423 0.0795871 0
M  V30 4851 H 459.331 -3.09854 -0.514711 0
M  V30 4852 H 458.524 -4.94114 0.993335 0
M  V30 4853 H 458.126 -3.34559 1.67171 0
M  V30 4854 H 460.418 -6.51042 1.87484 0
M  V30 4855 H 461.361 -6.22638 3.37235 0
M  V30 4856 H 461.769 -5.32112 1.88461 0
M  V30 4857 N 461.167 -1.02423 -1.1978 0
M  V30 4858 C 462.097 -0.62157 -2.25075 0
M  V30 4859 C 463.078 0.367148 -1.6609 0
M  V30 4860 O 464.263 0.250892 -1.92573 0
M  V30 4861 C 461.393 0.0331826 -3.47284 0
M  V30 4862 C 460.347 -0.877323 -4.18912 0
M  V30 4863 C 459.673 -0.0879296 -5.34628 0
M  V30 4864 C 460.973 -2.18892 -4.74219 0
M  V30 4865 H 462.667 -1.50179 -2.59011 0
M  V30 4866 H 460.213 -0.723547 -1.24502 0
M  V30 4867 H 462.166 0.326488 -4.20133 0
M  V30 4868 H 460.89 0.948164 -3.12534 0
M  V30 4869 H 459.549 -1.15475 -3.47938 0
M  V30 4870 H 459.197 0.828941 -4.96123 0
M  V30 4871 H 458.897 -0.694359 -5.83483 0
M  V30 4872 H 460.421 0.198743 -6.10276 0
M  V30 4873 H 461.835 -1.95746 -5.38847 0
M  V30 4874 H 460.232 -2.74686 -5.33542 0
M  V30 4875 H 461.302 -2.84674 -3.92541 0
M  V30 4876 N 462.645 1.35699 -0.801477 0
M  V30 4877 C 463.595 2.2728 -0.181073 0
M  V30 4878 C 464.579 1.47533 0.642098 0
M  V30 4879 O 465.771 1.69785 0.500193 0
M  V30 4880 C 462.9 3.36626 0.673612 0
M  V30 4881 C 461.986 4.23802 -0.159008 0
M  V30 4882 N 462.377 4.90879 -1.2195 0
M  V30 4883 C 460.675 4.45959 0.0602005 0
M  V30 4884 C 461.376 5.5546 -1.72738 0
M  V30 4885 N 460.352 5.33663 -1.03465 0
M  V30 4886 H 464.154 2.76632 -0.992582 0
M  V30 4887 H 461.668 1.49166 -0.642127 0
M  V30 4888 H 463.665 4.01179 1.13408 0
M  V30 4889 H 462.325 2.88828 1.48353 0
M  V30 4890 H 463.336 4.92497 -1.60209 0
M  V30 4891 H 460.013 4.08969 0.839664 0
M  V30 4892 H 461.403 6.18991 -2.61342 0
M  V30 4893 N 464.123 0.554532 1.47522 0
M  V30 4894 C 465.539 0.214107 1.58157 0
M  V30 4895 C 465.739 -1.28331 1.55349 0
M  V30 4896 O 464.795 -2.06329 1.45549 0
M  V30 4897 C 466.108 0.838391 2.88776 0
M  V30 4898 C 467.656 0.809374 3.02354 0
M  V30 4899 C 468.131 1.41268 4.35669 0
M  V30 4900 N 469.622 1.37574 4.42298 0
M  V30 4901 C 470.357 1.8122 5.4401 0
M  V30 4902 N 469.853 2.3271 6.52547 0
M  V30 4903 N 471.646 1.72307 5.35039 0
M  V30 4904 H 463.797 1.52744 1.4759 0
M  V30 4905 H 466.06 0.636812 0.702264 0
M  V30 4906 H 465.766 1.89065 2.96559 0
M  V30 4907 H 465.64 0.329847 3.75755 0
M  V30 4908 H 468.027 -0.234187 2.94169 0
M  V30 4909 H 468.108 1.35565 2.16924 0
M  V30 4910 H 467.752 2.45529 4.4461 0
M  V30 4911 H 467.682 0.841871 5.19827 0
M  V30 4912 H 470.173 0.999081 3.64454 0
M  V30 4913 H 470.486 2.63944 7.26329 0
M  V30 4914 H 468.831 2.36719 6.53444 0
M  V30 4915 H 472.022 1.3186 4.49144 0
M  V30 4916 H 472.195 2.06641 6.14169 0
M  V30 4917 N 465.601 -1.54893 0.290851 0
M  V30 4918 C 466.564 -2.21824 -0.576784 0
M  V30 4919 C 467.564 -1.20104 -1.06919 0
M  V30 4920 O 468.754 -1.44906 -0.966843 0
M  V30 4921 C 465.886 -2.89662 -1.79747 0
M  V30 4922 H 467.079 -2.99899 0.00784051 0
M  V30 4923 H 464.632 -1.56245 0.0415934 0
M  V30 4924 H 465.367 -2.15639 -2.42219 0
M  V30 4925 H 465.152 -3.64219 -1.45214 0
M  V30 4926 H 466.642 -3.4075 -2.4141 0
M  V30 4927 N 467.08 -0.0183926 -1.57589 0
M  V30 4928 C 468.305 0.676634 -1.96052 0
M  V30 4929 C 468.73 1.6548 -0.894307 0
M  V30 4930 O 468.088 1.80712 0.145849 0
M  V30 4931 C 468.136 1.36872 -3.33614 0
M  V30 4932 O 467.24 2.48372 -3.29219 0
M  V30 4933 H 466.581 0.1786 -0.63953 0
M  V30 4934 H 469.111 -0.077056 -2.04455 0
M  V30 4935 H 469.121 1.72797 -3.69601 0
M  V30 4936 H 467.796 0.651636 -4.10763 0
M  V30 4937 H 466.373 2.14639 -3.04934 0
M  V30 4938 N 468.558 1.5553 0.254621 0
M  V30 4939 C 469.488 1.9268 1.31897 0
M  V30 4940 C 470.469 0.790797 1.506 0
M  V30 4941 O 471.654 1.05045 1.63337 0
M  V30 4942 C 468.784 2.21477 2.67517 0
M  V30 4943 C 467.738 3.37256 2.63519 0
M  V30 4944 C 467.064 3.51576 4.02862 0
M  V30 4945 C 468.364 4.73157 2.21179 0
M  V30 4946 H 470.058 2.81832 1.01051 0
M  V30 4947 H 467.604 1.35599 0.484662 0
M  V30 4948 H 469.557 2.46055 3.42104 0
M  V30 4949 H 468.281 1.29144 2.99982 0
M  V30 4950 H 466.94 3.12675 1.9139 0
M  V30 4951 H 466.588 2.56676 4.32581 0
M  V30 4952 H 466.288 4.2943 4.01078 0
M  V30 4953 H 467.812 3.78467 4.79161 0
M  V30 4954 H 469.226 4.97158 2.85494 0
M  V30 4955 H 467.623 5.54058 2.30521 0
M  V30 4956 H 468.693 4.70739 1.16332 0
M  V30 4957 N 470.036 -0.519951 1.48776 0
M  V30 4958 C 471.283 -1.27522 1.57303 0
M  V30 4959 C 471.611 -1.92869 0.251328 0
M  V30 4960 O 470.866 -1.80372 -0.759243 0
M  V30 4961 C 471.165 -2.37864 2.6675 0
M  V30 4962 C 470.831 -1.90103 4.08867 0
M  V30 4963 C 469.493 -1.76795 4.47546 0
M  V30 4964 C 471.845 -1.54133 4.97888 0
M  V30 4965 C 469.173 -1.25868 5.73039 0
M  V30 4966 C 471.525 -1.04665 6.23881 0
M  V30 4967 C 470.189 -0.899823 6.61407 0
M  V30 4968 H 469.459 -0.466636 0.575614 0
M  V30 4969 H 472.106 -0.579109 1.82534 0
M  V30 4970 H 470.411 -3.13186 2.35418 0
M  V30 4971 H 472.108 -2.95969 2.70561 0
M  V30 4972 H 468.698 -2.01414 3.78326 0
M  V30 4973 H 472.882 -1.6327 4.68675 0
M  V30 4974 H 468.138 -1.13196 6.0083 0
M  V30 4975 H 472.312 -0.759074 6.92251 0
M  V30 4976 H 469.939 -0.503011 7.58534 0
M  V30 4977 N 471.514 -1.37532 -0.769588 0
M  V30 4978 C 472.791 -1.23392 -1.51768 0
M  V30 4979 C 473.171 0.17157 -2.10402 0
M  V30 4980 O 472.519 1.17943 -1.95708 0
M  V30 4981 C 472.729 -2.33163 -2.59685 0
M  V30 4982 C 474.077 -2.70809 -3.27028 0
M  V30 4983 O 475.101 -2.32355 -2.69981 0
M  V30 4984 O 473.96 -3.37066 -4.30173 0
M  V30 4985 H 471.054 -0.481617 -0.67229 0
M  V30 4986 H 473.6 -1.49318 -0.806368 0
M  V30 4987 H 472.372 -3.27273 -2.14494 0
M  V30 4988 H 471.995 -2.08713 -3.38415 0
M  V30 4989 N 472.992 0.995999 -1.22138 0
M  V30 4990 C 473.942 2.06988 -0.956042 0
M  V30 4991 C 474.926 1.60636 0.0921576 0
M  V30 4992 O 476.118 1.76607 -0.117958 0
M  V30 4993 C 473.247 3.39148 -0.532335 0
M  V30 4994 C 472.333 3.92142 -1.61509 0
M  V30 4995 N 472.724 4.18397 -2.84214 0
M  V30 4996 C 471.022 4.20514 -1.48606 0
M  V30 4997 C 471.723 4.61425 -3.54206 0
M  V30 4998 N 470.699 4.64934 -2.81669 0
M  V30 4999 H 474.501 2.25223 -1.88816 0
M  V30 5000 H 472.015 1.17748 -1.11845 0
M  V30 5001 H 474.012 4.15642 -0.323574 0
M  V30 5002 H 472.672 3.22314 0.392921 0
M  V30 5003 H 473.683 4.06682 -3.20671 0
M  V30 5004 H 470.36 4.12769 -0.626762 0
M  V30 5005 H 471.75 4.90387 -4.59315 0
M  V30 5006 N 474.47 1.03057 1.19235 0
M  V30 5007 C 475.42 0.583386 2.2041 0
M  V30 5008 C 476.404 -0.368776 1.56617 0
M  V30 5009 O 477.596 -0.189471 1.75983 0
M  V30 5010 C 474.725 -0.0626534 3.43243 0
M  V30 5011 C 473.811 0.91205 4.14177 0
M  V30 5012 N 474.202 2.07514 4.61272 0
M  V30 5013 C 472.5 0.735859 4.39888 0
M  V30 5014 C 473.201 2.69003 5.15764 0
M  V30 5015 N 472.177 1.96954 5.06666 0
M  V30 5016 H 475.979 1.46988 2.54503 0
M  V30 5017 H 473.493 0.897785 1.35328 0
M  V30 5018 H 475.49 -0.400653 4.1497 0
M  V30 5019 H 474.15 -0.944813 3.1065 0
M  V30 5020 H 475.161 2.45448 4.56043 0
M  V30 5021 H 471.838 -0.0970656 4.17387 0
M  V30 5022 H 473.228 3.67514 5.6248 0
M  V30 5023 N 475.948 -1.35272 0.808662 0
M  V30 5024 C 476.858 -2.33546 0.222079 0
M  V30 5025 C 477.874 -1.6196 -0.636011 0
M  V30 5026 O 479.05 -1.93822 -0.547274 0
M  V30 5027 C 476.115 -3.41148 -0.61795 0
M  V30 5028 C 475.176 -4.28507 0.260875 0
M  V30 5029 C 474.409 -5.3097 -0.539156 0
M  V30 5030 O 474.632 -5.42123 -1.77367 0
M  V30 5031 O 473.566 -6.01858 0.0710526 0
M  V30 5032 H 477.392 -2.85515 1.03512 0
M  V30 5033 H 474.977 -1.38079 0.570495 0
M  V30 5034 H 476.859 -4.06889 -1.09634 0
M  V30 5035 H 475.534 -2.91447 -1.40855 0
M  V30 5036 H 474.441 -3.6574 0.786451 0
M  V30 5037 H 475.774 -4.81611 1.01547 0
M  V30 5038 N 477.426 -0.562348 -1.47226 0
M  V30 5039 C 478.356 0.170627 -2.32876 0
M  V30 5040 C 479.337 0.903748 -1.44106 0
M  V30 5041 O 480.522 0.883206 -1.72954 0
M  V30 5042 C 477.652 1.19786 -3.25989 0
M  V30 5043 C 476.606 0.580875 -4.2404 0
M  V30 5044 C 475.932 1.71311 -5.06514 0
M  V30 5045 C 477.232 -0.468714 -5.20193 0
M  V30 5046 H 478.926 -0.544441 -2.94408 0
M  V30 5047 H 476.472 -0.263271 -1.41573 0
M  V30 5048 H 478.425 1.71884 -3.84752 0
M  V30 5049 H 477.149 1.94294 -2.62521 0
M  V30 5050 H 475.808 0.0811538 -3.6651 0
M  V30 5051 H 475.456 2.44736 -4.39447 0
M  V30 5052 H 475.156 1.30604 -5.72902 0
M  V30 5053 H 476.68 2.23725 -5.68137 0
M  V30 5054 H 478.094 -0.0336028 -5.7329 0
M  V30 5055 H 476.491 -0.794957 -5.94811 0
M  V30 5056 H 477.561 -1.36269 -4.65359 0
M  V30 5057 N 478.904 1.54736 -0.299062 0
M  V30 5058 C 479.867 2.22127 0.565012 0
M  V30 5059 C 480.867 1.20669 1.06281 0
M  V30 5060 O 482.057 1.45417 0.959145 0
M  V30 5061 C 479.189 2.90611 1.78208 0
M  V30 5062 H 480.382 2.99891 -0.0237448 0
M  V30 5063 H 477.935 1.5622 -0.0498788 0
M  V30 5064 H 478.67 2.16921 2.41072 0
M  V30 5065 H 478.455 3.64984 1.43281 0
M  V30 5066 H 479.945 3.42026 2.396 0
M  V30 5067 N 480.382 0.0267497 1.57577 0
M  V30 5068 C 481.659 -0.690926 1.82991 0
M  V30 5069 C 482.039 -1.90471 0.910164 0
M  V30 5070 O 481.387 -2.28474 -0.0347985 0
M  V30 5071 C 481.597 -1.07139 3.32148 0
M  V30 5072 C 482.945 -1.46402 3.98562 0
M  V30 5073 O 483.969 -1.16443 3.36629 0
M  V30 5074 O 482.828 -2.02214 5.07712 0
M  V30 5075 H 479.922 -0.338747 0.75444 0
M  V30 5076 H 482.468 0.0542506 1.69613 0
M  V30 5077 H 481.24 -0.207394 3.9075 0
M  V30 5078 H 480.863 -1.87481 3.50623 0
M  V30 5079 N 481.861 -1.55662 -0.24637 0
M  V30 5080 C 483.091 -1.81312 -0.990438 0
M  V30 5081 C 483.499 -0.600234 -1.79426 0
M  V30 5082 O 482.842 0.440537 -1.78339 0
M  V30 5083 C 482.904 -3.0032 -1.97607 0
M  V30 5084 C 482.568 -4.36322 -1.35912 0
M  V30 5085 C 483.565 -5.14295 -0.761348 0
M  V30 5086 C 481.25 -4.83019 -1.37833 0
M  V30 5087 C 483.244 -6.37114 -0.190998 0
M  V30 5088 C 480.931 -6.05786 -0.804128 0
M  V30 5089 C 481.929 -6.82672 -0.211489 0
M  V30 5090 O 481.617 -8.03121 0.353845 0
M  V30 5091 H 481.349 -0.607233 -0.297058 0
M  V30 5092 H 483.903 -2.0356 -0.274351 0
M  V30 5093 H 482.133 -2.73829 -2.73047 0
M  V30 5094 H 483.822 -3.13057 -2.58361 0
M  V30 5095 H 484.588 -4.79337 -0.739013 0
M  V30 5096 H 480.467 -4.23165 -1.829 0
M  V30 5097 H 484.011 -6.97069 0.272206 0
M  V30 5098 H 479.908 -6.40222 -0.823792 0
M  V30 5099 H 480.676 -8.18131 0.245761 0
M  V30 5100 N 483.339 0.512053 -1.4905 0
M  V30 5101 C 484.269 1.62365 -1.67809 0
M  V30 5102 C 485.25 1.61737 -0.526809 0
M  V30 5103 O 486.435 1.78651 -0.761404 0
M  V30 5104 C 483.565 3.00895 -1.73435 0
M  V30 5105 C 482.519 3.16387 -2.88242 0
M  V30 5106 C 481.845 4.56157 -2.78971 0
M  V30 5107 C 483.145 2.97457 -4.29321 0
M  V30 5108 H 484.839 1.46921 -2.60873 0
M  V30 5109 H 482.385 0.705379 -1.2554 0
M  V30 5110 H 484.338 3.78549 -1.85145 0
M  V30 5111 H 483.062 3.17403 -0.769619 0
M  V30 5112 H 481.721 2.41155 -2.76116 0
M  V30 5113 H 481.369 4.69525 -1.8043 0
M  V30 5114 H 481.069 4.67465 -3.5602 0
M  V30 5115 H 482.593 5.35886 -2.92675 0
M  V30 5116 H 484.007 3.64888 -4.42187 0
M  V30 5117 H 482.404 3.20245 -5.07507 0
M  V30 5118 H 483.474 1.93692 -4.44535 0
M  V30 5119 N 484.817 1.37938 0.762283 0
M  V30 5120 C 486.066 1.32989 1.51647 0
M  V30 5121 C 486.379 -0.0802922 1.95435 0
M  V30 5122 O 487.585 -0.252295 2.70325 0
M  V30 5123 C 486.041 2.33485 2.73885 0
M  V30 5124 C 485.649 3.80079 2.37157 0
M  V30 5125 C 487.393 2.37563 3.51801 0
M  V30 5126 C 485.3 4.72283 3.55954 0
M  V30 5127 H 484.23 0.494301 0.56937 0
M  V30 5128 H 486.881 1.63448 0.834083 0
M  V30 5129 H 485.263 1.96056 3.44061 0
M  V30 5130 H 486.437 4.26398 1.74704 0
M  V30 5131 H 484.752 3.79037 1.72395 0
M  V30 5132 H 487.349 3.0365 4.40114 0
M  V30 5133 H 487.692 1.39199 3.92338 0
M  V30 5134 H 488.225 2.73747 2.8863 0
M  V30 5135 H 484.964 5.7181 3.2049 0
M  V30 5136 H 484.484 4.30663 4.1748 0
M  V30 5137 H 486.163 4.89876 4.22647 0
M  V30 5138 N 486.295 -0.989507 1.22664 0
M  V30 5139 C 487.52 -1.77031 1.08051 0
M  V30 5140 C 487.945 -1.84535 -0.364483 0
M  V30 5141 O 487.303 -1.3003 -1.2634 0
M  V30 5142 C 487.351 -3.18 1.70024 0
M  V30 5143 O 486.455 -4.01161 0.956216 0
M  V30 5144 H 485.796 -0.545008 0.379292 0
M  V30 5145 H 488.326 -1.24277 1.62531 0
M  V30 5146 H 488.336 -3.68616 1.74888 0
M  V30 5147 H 487.011 -3.11853 2.75174 0
M  V30 5148 H 485.588 -3.59687 0.98384 0
M  V30 5149 N 487.773 -1.03688 -1.18687 0
M  V30 5150 C 489.019 -0.739123 -1.88851 0
M  V30 5151 C 489.352 0.731042 -1.79915 0
M  V30 5152 O 488.627 1.53313 -1.19688 0
M  V30 5153 C 488.91 -1.20106 -3.3948 0
M  V30 5154 C 488.763 -2.73304 -3.57246 0
M  V30 5155 C 490.082 -0.788134 -4.32986 0
M  V30 5156 H 487.201 -0.269978 -0.68577 0
M  V30 5157 H 489.843 -1.28822 -1.3966 0
M  V30 5158 H 487.993 -0.733915 -3.81505 0
M  V30 5159 H 489.665 -3.28027 -3.24339 0
M  V30 5160 H 487.908 -3.13313 -3.00029 0
M  V30 5161 H 488.579 -3.00684 -4.62918 0
M  V30 5162 H 491.055 -1.19005 -3.98719 0
M  V30 5163 H 489.931 -1.13915 -5.36949 0
M  V30 5164 H 490.192 0.308988 -4.41019 0
M  V30 5165 N 489.251 1.34841 -0.815825 0
M  V30 5166 C 490.499 1.98107 -0.399744 0
M  V30 5167 C 490.82 1.65019 1.03894 0
M  V30 5168 O 490.09 0.937311 1.72021 0
M  V30 5169 H 488.67 0.732827 -0.144823 0
M  V30 5170 H 491.332 1.64599 -1.0437 0
M  V30 5171 H 490.428 3.07856 -0.512965 0
M  V30 5172 N 490.729 0.570148 1.46925 0
M  V30 5173 C 491.692 -0.159933 2.28641 0
M  V30 5174 C 492.692 -0.830638 1.37685 0
M  V30 5175 O 493.882 -0.684516 1.60187 0
M  V30 5176 C 491.014 -1.2354 3.17727 0
M  V30 5177 H 492.207 0.558035 2.94662 0
M  V30 5178 H 489.76 0.327603 1.52828 0
M  V30 5179 H 490.495 -1.98535 2.56426 0
M  V30 5180 H 490.28 -0.759125 3.84681 0
M  V30 5181 H 491.77 -1.74782 3.79264 0
M  V30 5182 N 492.207 -1.54576 0.307264 0
M  V30 5183 C 493.484 -1.92377 -0.353605 0
M  V30 5184 C 493.864 -1.23517 -1.71192 0
M  V30 5185 O 493.212 -0.373101 -2.25433 0
M  V30 5186 C 493.422 -3.45928 -0.462039 0
M  V30 5187 C 494.77 -4.18278 -0.729975 0
M  V30 5188 O 495.794 -3.51997 -0.545605 0
M  V30 5189 O 494.653 -5.3563 -1.08454 0
M  V30 5190 H 491.747 -0.802747 -0.198812 0
M  V30 5191 H 494.293 -1.65929 0.355783 0
M  V30 5192 H 493.065 -3.88187 0.492592 0
M  V30 5193 H 492.688 -3.78431 -1.21965 0
M  V30 5194 N 493.685 -0.035106 -1.57561 0
M  V30 5195 C 494.934 0.641604 -1.91223 0
M  V30 5196 C 495.247 1.72944 -0.913761 0
M  V30 5197 O 496.453 2.46321 -1.14185 0
M  V30 5198 C 494.909 1.19249 -3.3957 0
M  V30 5199 C 494.517 0.137616 -4.47789 0
M  V30 5200 C 496.261 1.84537 -3.82291 0
M  V30 5201 C 494.168 0.700478 -5.87237 0
M  V30 5202 H 493.098 0.243417 -0.713627 0
M  V30 5203 H 495.749 -0.101382 -1.8322 0
M  V30 5204 H 494.131 1.98728 -3.42525 0
M  V30 5205 H 495.305 -0.635153 -4.56402 0
M  V30 5206 H 493.62 -0.416855 -4.14308 0
M  V30 5207 H 496.217 2.27616 -4.83834 0
M  V30 5208 H 496.56 2.69054 -3.17672 0
M  V30 5209 H 497.093 1.11739 -3.81784 0
M  V30 5210 H 493.832 -0.106693 -6.55413 0
M  V30 5211 H 493.352 1.4416 -5.82218 0
M  V30 5212 H 495.031 1.18837 -6.35993 0
M  V30 5213 N 495.163 1.55791 0.238111 0
M  V30 5214 C 496.111 1.91885 1.31464 0
M  V30 5215 C 497.105 0.798929 1.49377 0
M  V30 5216 O 498.311 0.983626 1.50747 0
M  V30 5217 H 494.686 0.609551 0.440399 0
M  V30 5218 H 496.657 2.81747 0.982925 0
M  V30 5219 C 495.406 2.23763 2.6613 0
M  V30 5220 H 494.729 3.09444 2.53149 0
M  V30 5221 H 496.169 2.52915 3.40309 0
M  V30 5222 C 494.628 1.05699 3.1989 0
M  V30 5223 O 495.158 0.309524 4.00506 0
M  V30 5224 N 493.364 0.845251 2.78036 0
M  V30 5225 H 492.911 1.4548 2.12588 0
M  V30 5226 H 492.869 0.0569973 3.14348 0
M  V30 5227 N 496.642 -0.504142 1.49319 0
M  V30 5228 C 497.589 -1.60603 1.65756 0
M  V30 5229 C 498.559 -1.58425 0.499082 0
M  V30 5230 O 499.744 -1.76459 0.725728 0
M  V30 5231 C 496.884 -2.98764 1.72726 0
M  V30 5232 C 495.997 -3.10982 2.99857 0
M  V30 5233 C 495.132 -4.39857 2.97824 0
M  V30 5234 C 494.171 -4.45697 4.19548 0
M  V30 5235 N 493.308 -5.65995 4.15444 0
M  V30 5236 H 498.148 -1.45895 2.59843 0
M  V30 5237 H 495.685 -0.709891 1.28837 0
M  V30 5238 H 497.643 -3.78839 1.74747 0
M  V30 5239 H 496.273 -3.12183 0.821075 0
M  V30 5240 H 495.325 -2.23991 3.07461 0
M  V30 5241 H 496.637 -3.11157 3.89849 0
M  V30 5242 H 495.791 -5.2825 2.98391 0
M  V30 5243 H 494.53 -4.42242 2.05604 0
M  V30 5244 H 493.535 -3.55707 4.19229 0
M  V30 5245 H 494.76 -4.4503 5.12957 0
M  V30 5246 H 492.706 -5.69229 3.26059 0
M  V30 5247 H 492.623 -5.67773 4.99169 0
M  V30 5248 H 493.891 -6.56604 4.20109 0
M  V30 5249 N 498.12 -1.38341 -0.754957 0
M  V30 5250 C 499.369 -1.33791 -1.5094 0
M  V30 5251 C 499.682 0.0699267 -1.95475 0
M  V30 5252 O 500.888 0.237956 -2.70455 0
M  V30 5253 C 499.344 -2.34934 -2.72643 0
M  V30 5254 C 498.952 -3.81332 -2.35138 0
M  V30 5255 C 500.696 -2.39425 -3.50536 0
M  V30 5256 C 498.603 -4.74164 -3.53444 0
M  V30 5257 H 497.533 -0.497314 -0.566741 0
M  V30 5258 H 500.184 -1.63888 -0.825403 0
M  V30 5259 H 498.566 -1.97878 -3.43017 0
M  V30 5260 H 499.74 -4.27319 -1.7244 0
M  V30 5261 H 498.055 -3.79946 -1.70382 0
M  V30 5262 H 500.652 -3.0598 -4.38498 0
M  V30 5263 H 500.995 -1.41278 -3.91594 0
M  V30 5264 H 501.528 -2.75274 -2.87174 0
M  V30 5265 H 498.267 -5.73501 -3.17453 0
M  V30 5266 H 497.787 -4.3287 -4.15191 0
M  V30 5267 H 499.466 -4.92111 -4.20043 0
M  V30 5268 N 499.598 0.982988 -1.23187 0
M  V30 5269 C 500.875 1.69814 -0.970707 0
M  V30 5270 C 501.255 2.04811 0.511424 0
M  V30 5271 O 500.603 1.73924 1.48198 0
M  V30 5272 C 500.813 2.94143 -1.87831 0
M  V30 5273 C 502.161 3.66712 -2.14026 0
M  V30 5274 O 503.185 3.04171 -1.8536 0
M  V30 5275 O 502.044 4.79258 -2.62629 0
M  V30 5276 H 499.138 0.741659 -0.365884 0
M  V30 5277 H 501.684 1.03844 -1.34218 0
M  V30 5278 H 500.456 2.64858 -2.88038 0
M  V30 5279 H 500.079 3.6785 -1.50905 0
M  V30 5280 N 501.076 1.04316 1.18135 0
M  V30 5281 C 502.301 0.768047 1.92655 0
M  V30 5282 C 502.726 -0.66904 1.758 0
M  V30 5283 O 502.084 -1.46372 1.06981 0
M  V30 5284 C 502.132 1.14239 3.42026 0
M  V30 5285 O 501.236 0.269333 4.1152 0
M  V30 5286 H 500.577 0.282436 0.600937 0
M  V30 5287 H 503.107 1.39367 1.49793 0
M  V30 5288 H 503.117 1.10538 3.92741 0
M  V30 5289 H 501.792 2.18928 3.53615 0
M  V30 5290 H 500.369 0.366175 3.71098 0
M  V30 5291 N 502.554 -1.34406 0.822964 0
M  V30 5292 C 503.464 -2.33298 0.246838 0
M  V30 5293 C 504.48 -1.62625 -0.618797 0
M  V30 5294 O 505.656 -1.94391 -0.526685 0
M  V30 5295 C 502.721 -3.41785 -0.581731 0
M  V30 5296 C 501.782 -4.28206 0.306309 0
M  V30 5297 C 501.015 -5.31512 -0.48281 0
M  V30 5298 O 501.238 -5.43973 -1.71607 0
M  V30 5299 O 500.172 -6.01749 0.134884 0
M  V30 5300 H 503.998 -2.84401 1.06534 0
M  V30 5301 H 501.583 -1.37466 0.585108 0
M  V30 5302 H 503.465 -4.08028 -1.05313 0
M  V30 5303 H 502.14 -2.92925 -1.37756 0
M  V30 5304 H 501.047 -3.64885 0.825199 0
M  V30 5305 H 502.38 -4.80507 1.06649 0
M  V30 5306 N 504.032 -0.577932 -1.46621 0
M  V30 5307 C 505.28 -0.061566 -2.02006 0
M  V30 5308 C 505.601 1.30117 -1.4524 0
M  V30 5309 O 504.871 1.85313 -0.63529 0
M  V30 5310 H 503.451 -0.0197692 -0.746738 0
M  V30 5311 H 506.113 -0.752631 -1.79782 0
M  V30 5312 H 505.209 0.0110238 -3.12098 0
M  V30 5313 N 505.51 1.54411 -0.315457 0
M  V30 5314 C 506.926 1.59556 0.037464 0
M  V30 5315 C 507.126 1.33217 1.5118 0
M  V30 5316 O 506.182 1.11264 2.26664 0
M  V30 5317 C 507.495 2.98372 -0.373477 0
M  V30 5318 C 509.043 3.11324 -0.323452 0
M  V30 5319 C 509.518 4.52472 -0.709433 0
M  V30 5320 N 511.009 4.58437 -0.662524 0
M  V30 5321 C 511.744 5.65751 -0.933474 0
M  V30 5322 N 511.24 6.81039 -1.27114 0
M  V30 5323 N 513.033 5.55489 -0.859573 0
M  V30 5324 H 505.184 1.6979 -1.27614 0
M  V30 5325 H 507.447 0.793732 -0.518356 0
M  V30 5326 H 507.153 3.22618 -1.40037 0
M  V30 5327 H 507.027 3.76264 0.265615 0
M  V30 5328 H 509.414 2.86818 0.694223 0
M  V30 5329 H 509.495 2.35555 -0.997367 0
M  V30 5330 H 509.139 4.7771 -1.72498 0
M  V30 5331 H 509.069 5.26598 -0.0132923 0
M  V30 5332 H 511.56 3.75636 -0.413065 0
M  V30 5333 H 511.873 7.58816 -1.46348 0
M  V30 5334 H 510.218 6.82555 -1.30932 0
M  V30 5335 H 513.409 4.64299 -0.595324 0
M  V30 5336 H 513.582 6.39036 -1.0741 0
M  V30 5337 N 506.988 0.0434614 1.5754 0
M  V30 5338 C 508.213 -0.645358 1.97104 0
M  V30 5339 C 508.638 -1.64037 0.920521 0
M  V30 5340 O 507.996 -1.80922 -0.11708 0
M  V30 5341 C 508.044 -1.31547 3.35749 0
M  V30 5342 O 507.148 -2.43103 3.33129 0
M  V30 5343 H 506.489 -0.168403 0.64229 0
M  V30 5344 H 509.019 0.109573 2.04306 0
M  V30 5345 H 509.029 -1.66895 3.72304 0
M  V30 5346 H 507.704 -0.586205 4.11748 0
M  V30 5347 H 506.281 -2.0976 3.0831 0
M  V30 5348 N 508.466 -1.55915 -0.229846 0
M  V30 5349 C 509.877 -1.68809 -0.797531 0
M  V30 5350 C 510.228 -0.643995 -1.8533 0
M  V30 5351 O 509.353 0.206492 -2.15413 0
M  V30 5352 C 509.948 -3.06043 -1.45338 0
M  V30 5353 C 508.507 -3.20819 -1.96856 0
M  V30 5354 C 507.654 -2.6472 -0.825736 0
M  V30 5355 H 510.605 -1.58699 -0.00533733 0
M  V30 5356 H 510.626 -3.01438 -2.32196 0
M  V30 5357 H 510.138 -3.82012 -0.684743 0
M  V30 5358 H 508.239 -2.49704 -2.76548 0
M  V30 5359 H 508.352 -4.27937 -2.15423 0
M  V30 5360 H 506.716 -2.22985 -1.23084 0
M  V30 5361 H 507.499 -3.43229 -0.0699019 0
M  V30 5362 N 509.944 0.496216 -1.49584 0
M  V30 5363 C 510.874 1.60576 -1.69521 0
M  V30 5364 C 511.855 1.61169 -0.543933 0
M  V30 5365 O 513.04 1.77834 -0.78031 0
M  V30 5366 C 510.17 2.99038 -1.76616 0
M  V30 5367 C 509.124 3.13312 -2.91581 0
M  V30 5368 C 508.45 4.53172 -2.83794 0
M  V30 5369 C 509.75 2.92886 -4.32452 0
M  V30 5370 H 511.444 1.44146 -2.62416 0
M  V30 5371 H 508.99 0.692024 -1.26282 0
M  V30 5372 H 510.943 3.76564 -1.8915 0
M  V30 5373 H 509.667 3.16568 -0.80324 0
M  V30 5374 H 508.326 2.38213 -2.78658 0
M  V30 5375 H 507.974 4.67585 -1.854 0
M  V30 5376 H 507.674 4.63662 -3.60958 0
M  V30 5377 H 509.198 5.32752 -2.98342 0
M  V30 5378 H 510.612 3.60178 -4.46032 0
M  V30 5379 H 509.009 3.14844 -5.10875 0
M  V30 5380 H 510.079 1.88966 -4.46565 0
M  V30 5381 N 511.423 1.38739 0.74761 0
M  V30 5382 C 512.672 1.3459 1.50228 0
M  V30 5383 C 512.985 -0.0595592 1.95509 0
M  V30 5384 O 514.191 -0.22361 2.70578 0
M  V30 5385 C 512.647 2.36377 2.71393 0
M  V30 5386 C 512.255 3.82573 2.33113 0
M  V30 5387 C 513.999 2.41281 3.49262 0
M  V30 5388 C 511.906 4.76032 3.50924 0
M  V30 5389 H 510.836 0.500312 0.564096 0
M  V30 5390 H 513.487 1.64324 0.8167 0
M  V30 5391 H 511.869 1.99694 3.41962 0
M  V30 5392 H 513.043 4.28227 1.70171 0
M  V30 5393 H 511.358 3.80844 1.68365 0
M  V30 5394 H 513.955 3.08301 4.36869 0
M  V30 5395 H 514.298 1.43353 3.9084 0
M  V30 5396 H 514.831 2.76793 2.85711 0
M  V30 5397 H 511.57 5.75177 3.14408 0
M  V30 5398 H 511.09 4.35066 4.12889 0
M  V30 5399 H 512.769 4.94331 4.17427 0
M  V30 5400 N 512.901 -0.976442 1.23707 0
M  V30 5401 C 513.831 -2.08749 1.04624 0
M  V30 5402 C 514.812 -1.70057 -0.0380956 0
M  V30 5403 O 515.997 -1.93782 0.127308 0
M  V30 5404 C 513.127 -3.41335 0.640902 0
M  V30 5405 C 512.081 -3.93947 1.67302 0
M  V30 5406 C 511.407 -5.22774 1.12301 0
M  V30 5407 C 512.707 -4.22769 3.06697 0
M  V30 5408 H 514.401 -2.24972 1.97555 0
M  V30 5409 H 511.947 -1.08108 0.951247 0
M  V30 5410 H 513.9 -4.18489 0.494434 0
M  V30 5411 H 512.624 -3.24988 -0.324099 0
M  V30 5412 H 511.283 -3.18941 1.80755 0
M  V30 5413 H 510.931 -5.0278 0.148877 0
M  V30 5414 H 510.631 -5.58942 1.81267 0
M  V30 5415 H 512.155 -6.02546 0.988479 0
M  V30 5416 H 513.569 -4.90659 2.96524 0
M  V30 5417 H 511.966 -4.70147 3.72937 0
M  V30 5418 H 513.036 -3.29885 3.55392 0
M  V30 5419 N 514.379 -1.04941 -1.1758 0
M  V30 5420 C 515.342 -0.652456 -2.19717 0
M  V30 5421 C 516.342 0.294745 -1.58076 0
M  V30 5422 O 517.532 0.0789579 -1.74021 0
M  V30 5423 C 514.664 0.0420712 -3.40874 0
M  V30 5424 H 515.857 -1.55642 -2.5635 0
M  V30 5425 H 513.41 -0.842995 -1.31618 0
M  V30 5426 H 514.145 0.95943 -3.09783 0
M  V30 5427 H 513.93 -0.638844 -3.86861 0
M  V30 5428 H 515.42 0.306 -4.16477 0
M  V30 5429 N 515.857 1.33968 -0.830081 0
M  V30 5430 C 517.085 2.0228 -0.434773 0
M  V30 5431 C 517.5 1.62487 0.961419 0
M  V30 5432 O 516.857 0.833849 1.62337 0
M  V30 5433 C 516.908 3.5751 -0.535625 0
M  V30 5434 O 516.629 3.95864 -1.87679 0
M  V30 5435 C 518.13 4.43091 -0.136137 0
M  V30 5436 H 515.35 0.648151 -0.173613 0
M  V30 5437 H 517.894 1.71089 -1.12022 0
M  V30 5438 H 516.049 3.87266 0.101817 0
M  V30 5439 H 516.463 4.9056 -1.85609 0
M  V30 5440 H 517.937 5.51398 -0.257772 0
M  V30 5441 H 518.414 4.29433 0.921076 0
M  V30 5442 H 519.02 4.18677 -0.747662 0
M  V30 5443 N 517.335 0.585699 1.46312 0
M  V30 5444 C 518.298 -0.135673 2.28798 0
M  V30 5445 C 519.298 -0.815988 1.38558 0
M  V30 5446 O 520.488 -0.667487 1.60904 0
M  V30 5447 C 517.62 -1.20163 3.1902 0
M  V30 5448 H 518.813 0.589257 2.94054 0
M  V30 5449 H 516.366 0.343794 1.52472 0
M  V30 5450 H 517.101 -1.95804 2.58517 0
M  V30 5451 H 516.886 -0.718282 3.85465 0
M  V30 5452 H 518.376 -1.70749 3.81096 0
M  V30 5453 N 518.813 -1.54241 0.323641 0
M  V30 5454 C 520.038 -2.05452 -0.283605 0
M  V30 5455 C 520.463 -1.19823 -1.44997 0
M  V30 5456 O 519.821 -0.207358 -1.8011 0
M  V30 5457 C 519.869 -3.53823 -0.695795 0
M  V30 5458 O 518.973 -3.71134 -1.79815 0
M  V30 5459 H 518.314 -0.662024 -0.0511917 0
M  V30 5460 H 520.844 -1.99079 0.472073 0
M  V30 5461 H 520.854 -3.96094 -0.978434 0
M  V30 5462 H 519.529 -4.15602 0.157287 0
M  V30 5463 H 518.106 -3.40768 -1.51431 0
M  V30 5464 N 520.291 -0.0518155 -1.57515 0
M  V30 5465 C 521.254 0.907547 -2.10467 0
M  V30 5466 C 522.254 1.23947 -1.02439 0
M  V30 5467 O 523.444 1.17604 -1.2851 0
M  V30 5468 C 520.576 2.21723 -2.58944 0
M  V30 5469 H 521.769 0.44851 -2.96527 0
M  V30 5470 H 519.322 0.196598 -1.55059 0
M  V30 5471 H 520.057 2.72206 -1.76279 0
M  V30 5472 H 519.842 1.98935 -3.37886 0
M  V30 5473 H 521.332 2.90441 -3.00056 0
M  V30 5474 N 521.769 1.56035 0.221574 0
M  V30 5475 C 522.994 1.83476 0.967026 0
M  V30 5476 C 523.419 0.632139 1.7716 0
M  V30 5477 O 522.777 -0.419082 1.7639 0
M  V30 5478 C 522.825 3.08907 1.86034 0
M  V30 5479 O 521.929 2.876 2.95567 0
M  V30 5480 H 521.27 0.604913 0.273817 0
M  V30 5481 H 523.8 2.03247 0.234893 0
M  V30 5482 H 523.81 3.3901 2.27016 0
M  V30 5483 H 522.485 3.96068 1.26898 0
M  V30 5484 H 521.062 2.6873 2.58532 0
M  V30 5485 N 523.247 -0.488276 1.49845 0
M  V30 5486 C 524.493 -1.24065 1.61182 0
M  V30 5487 C 524.848 -1.9004 0.300435 0
M  V30 5488 O 524.141 -1.78341 -0.700365 0
M  V30 5489 C 524.335 -2.32152 2.71735 0
M  V30 5490 C 524.164 -1.76778 4.13497 0
M  V30 5491 C 522.934 -1.57513 4.80123 0
M  V30 5492 C 525.132 -1.27242 4.98311 0
M  V30 5493 N 523.114 -0.972015 6.06156 0
M  V30 5494 C 524.485 -0.791457 6.14928 0
M  V30 5495 C 526.54 -1.15934 4.84214 0
M  V30 5496 C 525.243 -0.208593 7.18997 0
M  V30 5497 C 527.269 -0.590436 5.88445 0
M  V30 5498 C 526.631 -0.119767 7.04298 0
M  V30 5499 H 522.73 -0.443487 0.644083 0
M  V30 5500 H 525.314 -0.545551 1.86901 0
M  V30 5501 H 523.485 -2.99108 2.47768 0
M  V30 5502 H 525.217 -2.99187 2.72523 0
M  V30 5503 H 521.972 -1.82247 4.37131 0
M  V30 5504 H 522.396 -0.689367 6.73481 0
M  V30 5505 H 527.038 -1.5092 3.94947 0
M  V30 5506 H 524.756 0.153501 8.07954 0
M  V30 5507 H 528.342 -0.505548 5.79599 0
M  V30 5508 H 527.222 0.313568 7.83573 0
M  V30 5509 N 524.725 -1.39134 -0.740242 0
M  V30 5510 C 525.673 -1.3757 -1.87556 0
M  V30 5511 C 526.667 -0.259593 -1.67399 0
M  V30 5512 O 527.873 -0.429349 -1.74804 0
M  V30 5513 H 524.248 -0.42947 -0.6173 0
M  V30 5514 H 526.219 -2.33345 -1.85991 0
M  V30 5515 C 524.968 -1.23087 -3.25184 0
M  V30 5516 H 524.291 -2.08237 -3.41288 0
M  V30 5517 H 525.731 -1.26049 -4.0483 0
M  V30 5518 C 524.19 0.0611471 -3.36845 0
M  V30 5519 O 524.72 1.03328 -3.88183 0
M  V30 5520 N 522.926 0.122454 -2.90342 0
M  V30 5521 H 522.473 -0.669329 -2.48752 0
M  V30 5522 H 522.431 0.986463 -2.98523 0
M  V30 5523 N 526.204 0.969867 -1.24223 0
M  V30 5524 C 527.453 1.70687 -1.07466 0
M  V30 5525 C 527.766 1.91736 0.386861 0
M  V30 5526 O 528.972 2.62986 0.674581 0
M  V30 5527 C 527.428 3.07217 -1.87472 0
M  V30 5528 C 527.036 2.94018 -3.3802 0
M  V30 5529 C 528.78 3.84804 -1.79237 0
M  V30 5530 C 526.687 4.25844 -4.10379 0
M  V30 5531 H 525.617 0.640067 -0.398536 0
M  V30 5532 H 528.268 1.08092 -1.48285 0
M  V30 5533 H 526.65 3.70628 -1.39466 0
M  V30 5534 H 527.824 2.39632 -3.9359 0
M  V30 5535 H 526.139 2.29898 -3.47183 0
M  V30 5536 H 528.736 4.82417 -2.30603 0
M  V30 5537 H 529.079 4.09356 -0.757197 0
M  V30 5538 H 529.612 3.28115 -2.24912 0
M  V30 5539 H 526.351 4.06486 -5.14246 0
M  V30 5540 H 525.871 4.80054 -3.59594 0
M  V30 5541 H 527.55 4.94475 -4.17257 0
M  V30 5542 N 527.682 1.05563 1.17022 0
M  V30 5543 C 528.928 0.769074 1.87652 0
M  V30 5544 C 529.261 -0.702326 1.81055 0
M  V30 5545 O 528.536 -1.5139 1.22112 0
M  V30 5546 C 528.819 1.25492 3.37526 0
M  V30 5547 C 528.672 2.78953 3.52853 0
M  V30 5548 C 529.991 0.856919 4.31677 0
M  V30 5549 H 527.11 0.280854 0.681388 0
M  V30 5550 H 529.752 1.31027 1.37593 0
M  V30 5551 H 527.902 0.794516 3.80289 0
M  V30 5552 H 529.574 3.33146 3.19079 0
M  V30 5553 H 527.817 3.18046 2.95007 0
M  V30 5554 H 528.488 3.08011 4.58076 0
M  V30 5555 H 530.964 1.25334 3.96775 0
M  V30 5556 H 529.84 1.22443 5.35069 0
M  V30 5557 H 530.101 -0.238787 4.41455 0
M  V30 5558 N 529.16 -1.33526 0.837174 0
M  V30 5559 C 530.108 -2.31168 0.257698 0
M  V30 5560 C 531.102 -1.5806 -0.609388 0
M  V30 5561 O 532.308 -1.72941 -0.499139 0
M  V30 5562 H 528.683 -0.74922 0.0646058 0
M  V30 5563 H 530.654 -2.77552 1.09578 0
M  V30 5564 C 529.403 -3.4326 -0.553887 0
M  V30 5565 H 528.726 -3.99665 0.104008 0
M  V30 5566 H 530.166 -4.13782 -0.925219 0
M  V30 5567 C 528.625 -2.88965 -1.73207 0
M  V30 5568 O 529.155 -2.85013 -2.83073 0
M  V30 5569 N 527.361 -2.45596 -1.55342 0
M  V30 5570 H 526.908 -2.49009 -0.659705 0
M  V30 5571 H 526.866 -2.0962 -2.34322 0
M  V30 5572 N 530.638 -0.59345 -1.46 0
M  V30 5573 C 531.568 0.121192 -2.33185 0
M  V30 5574 C 532.549 0.872977 -1.4599 0
M  V30 5575 O 533.734 0.846321 -1.74789 0
M  V30 5576 C 530.864 1.12844 -3.28456 0
M  V30 5577 C 529.818 0.4908 -4.25177 0
M  V30 5578 C 529.144 1.60529 -5.10034 0
M  V30 5579 C 530.444 -0.578949 -5.19081 0
M  V30 5580 H 532.138 -0.606767 -2.93187 0
M  V30 5581 H 529.684 -0.293242 -1.40983 0
M  V30 5582 H 531.637 1.63684 -3.88311 0
M  V30 5583 H 530.361 1.88681 -2.66584 0
M  V30 5584 H 529.02 0.00339328 -3.666 0
M  V30 5585 H 528.668 2.35359 -4.44539 0
M  V30 5586 H 528.368 1.18422 -5.75543 0
M  V30 5587 H 529.892 2.11623 -5.72755 0
M  V30 5588 H 531.306 -0.155199 -5.7309 0
M  V30 5589 H 529.703 -0.920947 -5.92991 0
M  V30 5590 H 530.773 -1.46109 -4.62364 0
M  V30 5591 N 532.116 1.54067 -0.331816 0
M  V30 5592 C 533.046 2.27569 0.522932 0
M  V30 5593 C 534.027 1.28679 1.11247 0
M  V30 5594 O 535.212 1.57504 1.13605 0
M  V30 5595 C 532.342 3.0397 1.67987 0
M  V30 5596 C 531.296 4.10267 1.21924 0
M  V30 5597 C 530.622 4.74555 2.46377 0
M  V30 5598 C 531.922 5.21268 0.32815 0
M  V30 5599 H 533.616 2.99264 -0.0901977 0
M  V30 5600 H 531.162 1.4393 -0.044821 0
M  V30 5601 H 533.115 3.54123 2.28418 0
M  V30 5602 H 531.839 2.29906 2.31971 0
M  V30 5603 H 530.498 3.61009 0.637809 0
M  V30 5604 H 530.146 3.97098 3.08743 0
M  V30 5605 H 529.846 5.46363 2.16243 0
M  V30 5606 H 531.37 5.27487 3.07555 0
M  V30 5607 H 532.784 5.67128 0.838978 0
M  V30 5608 H 531.181 5.99982 0.119228 0
M  V30 5609 H 532.251 4.80673 -0.638839 0
M  V30 5610 N 533.594 0.0601682 1.57485 0
M  V30 5611 C 534.524 -0.90889 2.15085 0
M  V30 5612 C 535.505 -1.31838 1.07484 0
M  V30 5613 O 536.69 -1.3915 1.35466 0
M  V30 5614 C 533.82 -2.18059 2.7031 0
M  V30 5615 C 532.774 -1.91088 3.82974 0
M  V30 5616 C 532.1 -3.24789 4.24754 0
M  V30 5617 C 533.4 -1.22535 5.07723 0
M  V30 5618 H 535.094 -0.429093 2.96309 0
M  V30 5619 H 532.64 -0.204952 1.42534 0
M  V30 5620 H 534.593 -2.86258 3.09248 0
M  V30 5621 H 533.317 -2.6826 1.8629 0
M  V30 5622 H 531.976 -1.25297 3.44523 0
M  V30 5623 H 531.624 -3.72809 3.37672 0
M  V30 5624 H 531.324 -3.07538 5.00694 0
M  V30 5625 H 532.848 -3.94205 4.66299 0
M  V30 5626 H 534.262 -1.80783 5.4405 0
M  V30 5627 H 532.659 -1.1558 5.88864 0
M  V30 5628 H 533.729 -0.202692 4.84476 0
M  V30 5629 N 535.072 -1.5615 -0.213296 0
M  V30 5630 C 536.297 -1.83986 -0.957282 0
M  V30 5631 C 536.722 -0.641526 -1.76822 0
M  V30 5632 O 536.08 0.409722 -1.7661 0
M  V30 5633 C 536.128 -3.09889 -1.84393 0
M  V30 5634 O 535.232 -2.89163 -2.94038 0
M  V30 5635 H 534.573 -0.606357 -0.270605 0
M  V30 5636 H 537.103 -2.03369 -0.224111 0
M  V30 5637 H 537.113 -3.40209 -2.25215 0
M  V30 5638 H 535.788 -3.96735 -1.24795 0
M  V30 5639 H 534.365 -2.70097 -2.57103 0
M  V30 5640 N 536.55 0.480323 -1.50102 0
M  V30 5641 C 537.497 1.57946 -1.6829 0
M  V30 5642 C 538.467 1.57611 -0.524223 0
M  V30 5643 O 539.652 1.75282 -0.753709 0
M  V30 5644 C 536.792 2.95978 -1.77457 0
M  V30 5645 C 535.905 3.06173 -3.04766 0
M  V30 5646 C 535.04 4.35063 -3.04784 0
M  V30 5647 C 534.079 4.38966 -4.26586 0
M  V30 5648 N 533.216 5.59314 -4.24396 0
M  V30 5649 H 538.056 1.41743 -2.62131 0
M  V30 5650 H 535.593 0.689304 -1.2995 0
M  V30 5651 H 537.551 3.76011 -1.80752 0
M  V30 5652 H 536.181 3.10837 -0.870637 0
M  V30 5653 H 535.233 2.19071 -3.10986 0
M  V30 5654 H 536.545 3.04916 -3.9475 0
M  V30 5655 H 535.699 5.23436 -3.06757 0
M  V30 5656 H 534.438 4.38915 -2.12614 0
M  V30 5657 H 533.443 3.48992 -4.24835 0
M  V30 5658 H 534.668 4.36813 -5.19972 0
M  V30 5659 H 532.614 5.63969 -3.35074 0
M  V30 5660 H 532.531 5.5976 -5.08138 0
M  V30 5661 H 533.799 6.49837 -4.30502 0
M  V30 5662 N 538.028 1.39524 0.732853 0
M  V30 5663 C 539.276 1.36594 1.48951 0
M  V30 5664 C 539.597 -0.0367507 1.94965 0
M  V30 5665 O 538.867 -0.988391 1.69138 0
M  V30 5666 H 537.447 0.502673 0.552566 0
M  V30 5667 H 540.109 1.74411 0.869869 0
M  V30 5668 H 539.205 2.03 2.3706 0
M  V30 5669 N 539.506 -0.963266 1.24736 0
M  V30 5670 C 540.469 -2.04013 1.04457 0
M  V30 5671 C 541.469 -1.608 0.000335555 0
M  V30 5672 O 542.659 -1.72515 0.241719 0
M  V30 5673 C 539.791 -3.35858 0.584162 0
M  V30 5674 H 540.984 -2.23436 2.00041 0
M  V30 5675 H 538.537 -1.13914 1.07021 0
M  V30 5676 H 539.272 -3.22128 -0.374673 0
M  V30 5677 H 539.057 -3.68568 1.3379 0
M  V30 5678 H 540.547 -4.1502 0.463451 0
M  V30 5679 N 540.985 -1.06182 -1.16461 0
M  V30 5680 C 541.917 -0.629584 -2.20383 0
M  V30 5681 C 542.93 0.311834 -1.59786 0
M  V30 5682 O 544.119 0.103 -1.78203 0
M  V30 5683 C 541.219 0.0973695 -3.3876 0
M  V30 5684 C 540.392 -0.857252 -4.28917 0
M  V30 5685 C 539.451 -0.169749 -5.25926 0
M  V30 5686 O 538.477 -0.807044 -5.6345 0
M  V30 5687 N 539.679 1.08911 -5.70192 0
M  V30 5688 H 542.444 -1.52352 -2.58087 0
M  V30 5689 H 540.005 -0.944993 -1.31459 0
M  V30 5690 H 541.997 0.567676 -4.00699 0
M  V30 5691 H 540.567 0.893093 -2.99571 0
M  V30 5692 H 539.787 -1.50696 -3.64259 0
M  V30 5693 H 541.075 -1.50489 -4.86035 0
M  V30 5694 H 540.473 1.62703 -5.41797 0
M  V30 5695 H 539.03 1.50331 -6.34227 0
M  V30 5696 N 542.463 1.3308 -0.844243 0
M  V30 5697 C 543.709 1.97898 -0.443206 0
M  V30 5698 C 544.042 1.66699 0.99625 0
M  V30 5699 O 543.317 0.949704 1.69738 0
M  V30 5700 C 543.6 3.53801 -0.670606 0
M  V30 5701 C 543.453 3.94667 -2.15772 0
M  V30 5702 C 544.772 4.39936 -0.120226 0
M  V30 5703 H 541.891 0.718861 -0.162504 0
M  V30 5704 H 544.533 1.57633 -1.06075 0
M  V30 5705 H 542.683 3.88229 -0.14496 0
M  V30 5706 H 544.355 3.70469 -2.74865 0
M  V30 5707 H 542.598 3.44203 -2.6402 0
M  V30 5708 H 543.269 5.03275 -2.26757 0
M  V30 5709 H 545.745 4.12183 -0.5696 0
M  V30 5710 H 544.621 5.4803 -0.308984 0
M  V30 5711 H 544.882 4.31184 0.976347 0
M  V30 5712 N 543.941 0.601185 1.45683 0
M  V30 5713 C 545.218 0.0261659 1.95582 0
M  V30 5714 C 545.598 -1.4399 1.5437 0
M  V30 5715 O 544.946 -2.13919 0.80318 0
M  V30 5716 C 545.156 0.217557 3.48321 0
M  V30 5717 C 546.504 0.0950076 4.24494 0
M  V30 5718 O 547.528 0.147345 3.55895 0
M  V30 5719 O 546.387 -0.025261 5.46494 0
M  V30 5720 H 543.481 -0.0393688 0.826062 0
M  V30 5721 H 546.027 0.670798 1.55879 0
M  V30 5722 H 544.799 1.23601 3.71266 0
M  V30 5723 H 544.422 -0.46264 3.94899 0
M  V30 5724 N 545.419 -1.53889 0.339982 0
M  V30 5725 C 546.668 -2.00035 -0.258604 0
M  V30 5726 C 546.981 -1.23179 -1.51942 0
M  V30 5727 O 548.187 -1.59784 -2.19503 0
M  V30 5728 C 546.643 -3.56249 -0.511359 0
M  V30 5729 C 546.251 -4.41957 0.733349 0
M  V30 5730 C 547.995 -4.1082 -1.069 0
M  V30 5731 C 545.902 -5.89673 0.451591 0
M  V30 5732 H 544.832 -0.747284 -0.10041 0
M  V30 5733 H 547.483 -1.77776 0.454758 0
M  V30 5734 H 545.865 -3.7456 -1.28533 0
M  V30 5735 H 547.039 -4.35421 1.50815 0
M  V30 5736 H 545.354 -3.9836 1.21237 0
M  V30 5737 H 547.951 -5.18789 -1.2947 0
M  V30 5738 H 548.294 -3.63817 -2.02343 0
M  V30 5739 H 548.827 -3.96205 -0.355817 0
M  V30 5740 H 545.566 -6.40903 1.37565 0
M  V30 5741 H 545.086 -5.99122 -0.285193 0
M  V30 5742 H 546.765 -6.46965 0.0675067 0
M  V30 5743 N 546.897 -0.0685191 -1.57451 0
M  V30 5744 C 547.844 0.899861 -2.12535 0
M  V30 5745 C 548.814 1.29749 -1.03703 0
M  V30 5746 O 549.999 1.38392 -1.31348 0
M  V30 5747 C 547.139 2.16328 -2.6888 0
M  V30 5748 C 546.252 1.81857 -3.91857 0
M  V30 5749 C 545.387 3.02786 -4.36457 0
M  V30 5750 C 544.426 2.64317 -5.5209 0
M  V30 5751 N 543.563 3.77994 -5.91663 0
M  V30 5752 H 548.403 0.423243 -2.94979 0
M  V30 5753 H 545.94 0.197268 -1.45771 0
M  V30 5754 H 547.898 2.90281 -2.99655 0
M  V30 5755 H 546.528 2.61536 -1.89206 0
M  V30 5756 H 545.58 0.979808 -3.67565 0
M  V30 5757 H 546.892 1.49553 -4.75852 0
M  V30 5758 H 546.046 3.85021 -4.68875 0
M  V30 5759 H 544.785 3.38281 -3.51308 0
M  V30 5760 H 543.79 1.80503 -5.19325 0
M  V30 5761 H 545.015 2.29995 -6.38967 0
M  V30 5762 H 542.961 4.13258 -5.09464 0
M  V30 5763 H 542.878 3.49447 -6.7039 0
M  V30 5764 H 544.146 4.60818 -6.28703 0
M  V30 5765 N 548.375 1.56261 0.205012 0
M  V30 5766 C 549.652 1.70856 0.952233 0
M  V30 5767 C 550.032 0.620501 2.01775 0
M  V30 5768 O 549.38 -0.370035 2.25484 0
M  V30 5769 C 549.59 3.12807 1.54767 0
M  V30 5770 C 550.938 3.72733 2.0336 0
M  V30 5771 O 551.962 3.15873 1.64629 0
M  V30 5772 O 550.821 4.72501 2.746 0
M  V30 5773 H 547.915 0.696496 0.445895 0
M  V30 5774 H 550.461 1.6857 0.195489 0
M  V30 5775 H 549.233 3.83465 0.779132 0
M  V30 5776 H 548.856 3.1928 2.36951 0
M  V30 5777 N 549.853 -0.472356 1.50355 0
M  V30 5778 C 550.801 -1.59126 1.69651 0
M  V30 5779 C 551.795 -1.59793 0.56237 0
M  V30 5780 O 553.001 -1.63957 0.742832 0
M  V30 5781 H 549.376 -0.528008 0.535454 0
M  V30 5782 H 551.347 -1.40013 2.63513 0
M  V30 5783 C 550.096 -2.97075 1.8067 0
M  V30 5784 H 549.419 -2.9728 2.67329 0
M  V30 5785 H 550.859 -3.74825 1.98197 0
M  V30 5786 C 549.318 -3.32247 0.558016 0
M  V30 5787 O 549.848 -4.00553 -0.303399 0
M  V30 5788 N 548.054 -2.87659 0.412415 0
M  V30 5789 H 547.601 -2.32246 1.11443 0
M  V30 5790 H 547.559 -3.11556 -0.421908 0
M  V30 5791 N 551.331 -1.39911 -0.725443 0
M  V30 5792 C 552.578 -1.37654 -1.48518 0
M  V30 5793 C 552.906 0.0243982 -1.94485 0
M  V30 5794 O 552.161 1.00708 -1.67799 0
M  V30 5795 C 552.46 -2.30368 -2.7325 0
M  V30 5796 C 552.126 -3.77817 -2.461 0
M  V30 5797 C 550.788 -4.17991 -2.38405 0
M  V30 5798 C 553.14 -4.71036 -2.23103 0
M  V30 5799 C 550.468 -5.49433 -2.05768 0
M  V30 5800 C 552.82 -6.02766 -1.9198 0
M  V30 5801 C 551.484 -6.41993 -1.82761 0
M  V30 5802 H 550.754 -0.503713 -0.543465 0
M  V30 5803 H 553.401 -1.7249 -0.831822 0
M  V30 5804 H 551.706 -1.88683 -3.43375 0
M  V30 5805 H 553.403 -2.2591 -3.31309 0
M  V30 5806 H 549.993 -3.45982 -2.52972 0
M  V30 5807 H 554.177 -4.40823 -2.2801 0
M  V30 5808 H 549.433 -5.78738 -1.9716 0
M  V30 5809 H 553.607 -6.74519 -1.73197 0
M  V30 5810 H 551.234 -7.43761 -1.57237 0
M  V30 5811 N 552.809 0.956637 -1.25245 0
M  V30 5812 C 554.057 1.69764 -1.09657 0
M  V30 5813 C 554.378 1.91583 0.363464 0
M  V30 5814 O 553.648 1.50149 1.25825 0
M  V30 5815 H 552.228 0.629097 -0.402798 0
M  V30 5816 H 554.89 1.15026 -1.57337 0
M  V30 5817 H 553.986 2.67769 -1.60331 0
M  V30 5818 N 554.287 1.06798 1.15896 0
M  V30 5819 C 555.703 0.792423 1.38538 0
M  V30 5820 C 555.903 -0.60592 1.92174 0
M  V30 5821 O 554.959 -1.36561 2.12385 0
M  V30 5822 C 556.272 1.86157 2.36149 0
M  V30 5823 C 557.82 1.88567 2.49823 0
M  V30 5824 C 558.295 2.9455 3.5072 0
M  V30 5825 N 559.786 2.93616 3.58251 0
M  V30 5826 C 560.521 3.72267 4.36125 0
M  V30 5827 N 560.017 4.60751 5.17379 0
M  V30 5828 N 561.81 3.60637 4.31158 0
M  V30 5829 H 553.961 1.96993 0.794198 0
M  V30 5830 H 556.224 0.853942 0.411688 0
M  V30 5831 H 555.93 2.86603 2.03843 0
M  V30 5832 H 555.804 1.71692 3.3586 0
M  V30 5833 H 558.191 0.887765 2.8143 0
M  V30 5834 H 558.272 2.0711 1.5013 0
M  V30 5835 H 557.916 3.94537 3.19849 0
M  V30 5836 H 557.846 2.73255 4.50155 0
M  V30 5837 H 560.337 2.29472 3.00252 0
M  V30 5838 H 560.65 5.17408 5.74028 0
M  V30 5839 H 558.995 4.64803 5.16704 0
M  V30 5840 H 562.186 2.90892 3.66742 0
M  V30 5841 H 562.359 4.22176 4.91601 0
M  V30 5842 N 555.766 -1.3263 0.851289 0
M  V30 5843 C 556.714 -2.30882 0.282202 0
M  V30 5844 C 557.708 -1.58697 -0.592589 0
M  V30 5845 O 558.914 -1.73461 -0.480768 0
M  V30 5846 H 555.289 -0.748492 0.0725487 0
M  V30 5847 H 557.26 -2.76374 1.12516 0
M  V30 5848 C 556.009 -3.43828 -0.517449 0
M  V30 5849 H 555.332 -3.99532 0.146392 0
M  V30 5850 H 556.772 -4.1474 -0.88128 0
M  V30 5851 C 555.231 -2.90786 -1.70133 0
M  V30 5852 O 555.761 -2.88 -2.80034 0
M  V30 5853 N 553.967 -2.4723 -1.52728 0
M  V30 5854 H 553.514 -2.49695 -0.633257 0
M  V30 5855 H 553.472 -2.12094 -2.32085 0
M  V30 5856 N 557.244 -0.608902 -1.45362 0
M  V30 5857 C 558.491 -0.104607 -2.0223 0
M  V30 5858 C 558.819 1.26534 -1.47714 0
M  V30 5859 O 558.074 1.84855 -0.642435 0
M  V30 5860 C 558.373 -0.0167296 -3.57396 0
M  V30 5861 C 558.039 -1.32251 -4.31069 0
M  V30 5862 C 556.701 -1.68019 -4.50914 0
M  V30 5863 C 559.053 -2.18542 -4.73169 0
M  V30 5864 C 556.381 -2.89828 -5.10114 0
M  V30 5865 C 558.733 -3.39602 -5.33717 0
M  V30 5866 C 557.397 -3.7562 -5.51784 0
M  V30 5867 H 556.667 -0.0382785 -0.740011 0
M  V30 5868 H 559.314 -0.790782 -1.7441 0
M  V30 5869 H 557.619 0.752715 -3.84502 0
M  V30 5870 H 559.316 0.389634 -3.99103 0
M  V30 5871 H 555.906 -1.03411 -4.15938 0
M  V30 5872 H 560.09 -1.92208 -4.5757 0
M  V30 5873 H 555.346 -3.17839 -5.22291 0
M  V30 5874 H 559.52 -4.06716 -5.65292 0
M  V30 5875 H 557.147 -4.70093 -5.97425 0
M  V30 5876 N 558.722 1.53707 -0.348139 0
M  V30 5877 C 559.652 2.28111 0.498766 0
M  V30 5878 C 560.633 1.29851 1.09876 0
M  V30 5879 O 561.818 1.587 1.11928 0
M  V30 5880 C 558.948 3.05735 1.64753 0
M  V30 5881 C 557.902 4.11537 1.17565 0
M  V30 5882 C 557.228 4.77142 2.4133 0
M  V30 5883 C 558.528 5.21587 0.272844 0
M  V30 5884 H 560.222 2.99152 -0.121934 0
M  V30 5885 H 557.768 1.43875 -0.0600842 0
M  V30 5886 H 559.721 3.56526 2.24649 0
M  V30 5887 H 558.445 2.32354 2.2952 0
M  V30 5888 H 557.104 3.61665 0.599483 0
M  V30 5889 H 556.752 4.0035 3.04514 0
M  V30 5890 H 556.452 5.48626 2.10436 0
M  V30 5891 H 557.976 5.30719 3.01943 0
M  V30 5892 H 559.39 5.67986 0.778779 0
M  V30 5893 H 557.787 6.00074 0.0555849 0
M  V30 5894 H 558.857 4.79969 -0.689785 0
M  V30 5895 N 560.2 0.0768682 1.57412 0
M  V30 5896 C 561.15 -0.898795 2.09537 0
M  V30 5897 C 562.134 -1.25556 1.0062 0
M  V30 5898 O 563.326 -1.23369 1.26921 0
M  V30 5899 C 560.455 -2.16453 2.66464 0
M  V30 5900 C 559.541 -1.83401 3.82393 0
M  V30 5901 N 559.932 -1.20823 4.91157 0
M  V30 5902 C 558.23 -2.13121 3.91785 0
M  V30 5903 C 558.931 -1.05976 5.71965 0
M  V30 5904 N 557.907 -1.57113 5.204 0
M  V30 5905 H 561.709 -0.410718 2.91016 0
M  V30 5906 H 559.223 -0.126878 1.61904 0
M  V30 5907 H 561.22 -2.87274 3.02125 0
M  V30 5908 H 559.88 -2.65844 1.86433 0
M  V30 5909 H 560.891 -0.877249 5.10416 0
M  V30 5910 H 557.568 -2.64854 3.22736 0
M  V30 5911 H 558.958 -0.571809 6.69462 0
M  V30 5912 N 561.678 -1.56367 -0.196722 0
M  V30 5913 C 562.608 -1.97442 -1.24655 0
M  V30 5914 C 563.589 -0.846147 -1.47561 0
M  V30 5915 O 564.774 -1.11035 -1.59326 0
M  V30 5916 C 561.904 -2.31253 -2.59112 0
M  V30 5917 C 560.858 -3.46804 -2.50821 0
M  V30 5918 C 560.184 -3.66286 -3.89536 0
M  V30 5919 C 561.484 -4.8104 -2.03465 0
M  V30 5920 H 563.178 -2.85388 -0.905216 0
M  V30 5921 H 560.724 -1.37304 -0.434002 0
M  V30 5922 H 562.677 -2.58583 -3.32736 0
M  V30 5923 H 561.401 -1.40188 -2.94983 0
M  V30 5924 H 560.06 -3.19563 -1.79653 0
M  V30 5925 H 559.708 -2.72555 -4.22756 0
M  V30 5926 H 559.408 -4.4402 -3.84864 0
M  V30 5927 H 560.932 -3.9599 -4.64784 0
M  V30 5928 H 562.346 -5.07411 -2.66846 0
M  V30 5929 H 560.743 -5.62232 -2.09798 0
M  V30 5930 H 561.813 -4.74732 -0.98781 0
M  V30 5931 N 563.156 0.464375 -1.50603 0
M  V30 5932 C 564.384 1.23907 -1.65695 0
M  V30 5933 C 564.799 1.85658 -0.343027 0
M  V30 5934 O 564.156 1.69529 0.675739 0
M  V30 5935 C 564.207 2.3429 -2.75301 0
M  V30 5936 O 563.928 1.7507 -4.01599 0
M  V30 5937 C 565.429 3.25051 -3.01424 0
M  V30 5938 H 562.649 0.374485 -0.556778 0
M  V30 5939 H 565.193 0.55353 -1.96866 0
M  V30 5940 H 563.348 2.98607 -2.46804 0
M  V30 5941 H 563.762 2.47812 -4.62266 0
M  V30 5942 H 565.236 3.98699 -3.81763 0
M  V30 5943 H 565.713 3.84227 -2.12758 0
M  V30 5944 H 566.319 2.66463 -3.31477 0
M  V30 5945 N 564.634 1.40294 0.718013 0
M  V30 5946 C 565.88 1.38645 1.48005 0
M  V30 5947 C 566.213 -0.0121202 1.94196 0
M  V30 5948 O 565.488 -0.980309 1.67989 0
M  V30 5949 C 565.771 2.37379 2.70782 0
M  V30 5950 C 565.624 3.8625 2.30501 0
M  V30 5951 C 566.943 2.33685 3.72933 0
M  V30 5952 H 564.062 0.504928 0.536858 0
M  V30 5953 H 566.704 1.71411 0.819649 0
M  V30 5954 H 564.854 2.09568 3.27129 0
M  V30 5955 H 566.526 4.24879 1.79655 0
M  V30 5956 H 564.769 4.02202 1.6253 0
M  V30 5957 H 565.44 4.50847 3.18498 0
M  V30 5958 H 567.916 2.58314 3.2621 0
M  V30 5959 H 566.792 3.0482 4.56482 0
M  V30 5960 H 567.053 1.34765 4.21059 0
M  V30 5961 N 566.112 -0.949982 1.2575 0
M  V30 5962 C 567.044 -2.05088 1.02331 0
M  V30 5963 C 568.057 -1.62795 -0.0133247 0
M  V30 5964 O 569.246 -1.77067 0.225759 0
M  V30 5965 C 566.346 -3.34794 0.525924 0
M  V30 5966 C 565.519 -4.05903 1.62978 0
M  V30 5967 C 564.578 -5.1388 1.13196 0
M  V30 5968 O 563.604 -5.39072 1.82729 0
M  V30 5969 N 564.806 -5.80495 -0.0242926 0
M  V30 5970 H 567.571 -2.25747 1.97125 0
M  V30 5971 H 565.132 -1.11886 1.17018 0
M  V30 5972 H 567.124 -4.04312 0.177263 0
M  V30 5973 H 565.694 -3.10872 -0.328202 0
M  V30 5974 H 564.914 -3.3042 2.1498 0
M  V30 5975 H 566.202 -4.50166 2.37124 0
M  V30 5976 H 565.6 -5.62454 -0.605184 0
M  V30 5977 H 564.157 -6.51043 -0.313947 0
M  V30 5978 N 567.59 -1.07411 -1.15328 0
M  V30 5979 C 568.522 -0.652924 -2.19703 0
M  V30 5980 C 569.535 0.294869 -1.60107 0
M  V30 5981 O 570.724 0.0840932 -1.78302 0
M  V30 5982 C 567.824 0.061434 -3.38844 0
M  V30 5983 C 566.997 -0.902696 -4.27984 0
M  V30 5984 C 566.056 -0.225521 -5.25717 0
M  V30 5985 O 565.082 -0.86676 -5.62562 0
M  V30 5986 N 566.284 1.02858 -5.71315 0
M  V30 5987 H 569.049 -1.55081 -2.56457 0
M  V30 5988 H 566.61 -0.958883 -1.30449 0
M  V30 5989 H 568.602 0.525145 -4.01278 0
M  V30 5990 H 567.172 0.861269 -3.00501 0
M  V30 5991 H 566.392 -1.54551 -3.6264 0
M  V30 5992 H 567.68 -1.55636 -4.84412 0
M  V30 5993 H 567.078 1.56948 -5.43492 0
M  V30 5994 H 565.635 1.43596 -6.35786 0
M  V30 5995 N 569.068 1.32177 -0.85831 0
M  V30 5996 C 570.479 1.79381 -0.517621 0
M  V30 5997 C 570.83 1.70841 0.964769 0
M  V30 5998 O 569.955 1.26917 1.75274 0
M  V30 5999 C 570.55 3.25706 -0.932801 0
M  V30 6000 C 569.109 3.70851 -0.643953 0
M  V30 6001 C 568.256 2.53208 -1.13054 0
M  V30 6002 H 571.207 1.19424 -1.04516 0
M  V30 6003 H 571.228 3.79673 -0.250674 0
M  V30 6004 H 570.74 3.31889 -2.01174 0
M  V30 6005 H 568.841 3.70178 0.424112 0
M  V30 6006 H 568.954 4.63495 -1.21281 0
M  V30 6007 H 567.318 2.48676 -0.550679 0
M  V30 6008 H 568.101 2.62143 -2.21666 0
M  V30 6009 N 570.547 0.616602 1.45037 0
M  V30 6010 C 571.777 0.121791 2.06241 0
M  V30 6011 C 572.185 -1.20289 1.46038 0
M  V30 6012 O 571.528 -1.7456 0.572242 0
M  V30 6013 C 571.59 -0.0827345 3.59405 0
M  V30 6014 C 571.254 1.16153 4.41993 0
M  V30 6015 C 572.251 2.08183 4.76399 0
M  V30 6016 C 569.936 1.39288 4.82601 0
M  V30 6017 C 571.93 3.21668 5.5028 0
M  V30 6018 C 569.617 2.53073 5.56235 0
M  V30 6019 C 570.615 3.44091 5.89992 0
M  V30 6020 O 570.303 4.55894 6.6213 0
M  V30 6021 H 570.035 0.0701667 0.672349 0
M  V30 6022 H 572.589 0.846877 1.87129 0
M  V30 6023 H 570.819 -0.862812 3.76952 0
M  V30 6024 H 572.508 -0.530273 4.02421 0
M  V30 6025 H 573.274 1.91538 4.45576 0
M  V30 6026 H 569.153 0.693396 4.55755 0
M  V30 6027 H 572.697 3.92733 5.76547 0
M  V30 6028 H 568.594 2.69667 5.86472 0
M  V30 6029 H 569.362 4.5469 6.80587 0
M  V30 6030 N 572.025 -1.5352 0.356285 0
M  V30 6031 C 573.273 -2.00719 -0.235837 0
M  V30 6032 C 573.594 -1.24551 -1.5004 0
M  V30 6033 O 572.864 -0.356185 -1.92635 0
M  V30 6034 H 571.444 -0.741542 -0.0901366 0
M  V30 6035 H 574.106 -1.88887 0.480378 0
M  V30 6036 H 573.202 -3.08551 -0.469357 0
M  V30 6037 N 573.503 -0.0852151 -1.57369 0
M  V30 6038 C 574.433 0.874556 -2.16503 0
M  V30 6039 C 575.414 1.30111 -1.09568 0
M  V30 6040 O 576.599 1.36977 -1.37662 0
M  V30 6041 C 573.729 2.13731 -2.73745 0
M  V30 6042 C 572.683 1.84971 -3.85966 0
M  V30 6043 C 572.009 3.17991 -4.29867 0
M  V30 6044 C 573.309 1.14442 -5.09608 0
M  V30 6045 H 575.003 0.381899 -2.96954 0
M  V30 6046 H 572.549 0.18225 -1.42842 0
M  V30 6047 H 574.502 2.81302 -3.13763 0
M  V30 6048 H 573.226 2.65263 -1.90534 0
M  V30 6049 H 571.885 1.19801 -3.46473 0
M  V30 6050 H 571.533 3.6739 -3.4356 0
M  V30 6051 H 571.233 2.99534 -5.05523 0
M  V30 6052 H 572.757 3.86737 -4.72511 0
M  V30 6053 H 574.171 1.72105 -5.46857 0
M  V30 6054 H 572.568 1.06197 -5.90629 0
M  V30 6055 H 573.638 0.12559 -4.84737 0
M  V30 6056 N 574.981 1.5647 0.188427 0
M  V30 6057 C 575.928 1.95073 1.23349 0
M  V30 6058 C 576.898 0.812238 1.44886 0
M  V30 6059 O 578.083 1.07095 1.57909 0
M  V30 6060 C 575.223 2.30124 2.57171 0
M  V30 6061 C 574.336 3.57069 2.43157 0
M  V30 6062 C 573.471 3.81411 3.69729 0
M  V30 6063 C 572.51 5.0176 3.50575 0
M  V30 6064 N 571.647 5.22321 4.69175 0
M  V30 6065 H 576.487 2.84171 0.89728 0
M  V30 6066 H 574.024 1.40623 0.431683 0
M  V30 6067 H 575.982 2.48463 3.35145 0
M  V30 6068 H 574.612 1.44159 2.88822 0
M  V30 6069 H 573.664 3.4674 1.56447 0
M  V30 6070 H 574.976 4.452 2.24942 0
M  V30 6071 H 574.13 4.00026 4.56141 0
M  V30 6072 H 572.869 2.91624 3.90905 0
M  V30 6073 H 571.874 4.83061 2.62549 0
M  V30 6074 H 573.099 5.93063 3.30837 0
M  V30 6075 H 571.045 4.35483 4.90602 0
M  V30 6076 H 570.962 6.04643 4.53809 0
M  V30 6077 H 572.23 5.45401 5.56919 0
M  V30 6078 N 576.459 -0.456382 1.50847 0
M  V30 6079 C 577.407 -1.57318 1.71329 0
M  V30 6080 C 578.401 -1.59187 0.579287 0
M  V30 6081 O 579.607 -1.6316 0.76018 0
M  V30 6082 H 575.982 -0.5223 0.541024 0
M  V30 6083 H 577.953 -1.3721 2.64983 0
M  V30 6084 C 576.702 -2.95142 1.83811 0
M  V30 6085 H 576.025 -2.94428 2.70467 0
M  V30 6086 H 577.465 -3.72702 2.02161 0
M  V30 6087 C 575.924 -3.31636 0.593224 0
M  V30 6088 O 576.454 -4.00852 -0.260898 0
M  V30 6089 N 574.66 -2.87205 0.442902 0
M  V30 6090 H 574.207 -2.31051 1.13901 0
M  V30 6091 H 574.165 -3.11986 -0.38884 0
M  V30 6092 N 577.937 -1.40673 -0.710563 0
M  V30 6093 C 578.867 -1.44095 -1.83736 0
M  V30 6094 C 579.848 -0.301286 -1.67411 0
M  V30 6095 O 581.033 -0.510618 -1.87367 0
M  V30 6096 C 578.163 -1.30773 -3.21738 0
M  V30 6097 C 577.117 -2.42395 -3.52745 0
M  V30 6098 C 576.443 -2.14147 -4.89944 0
M  V30 6099 C 577.743 -3.84738 -3.53234 0
M  V30 6100 H 579.437 -2.38396 -1.81129 0
M  V30 6101 H 576.983 -1.14746 -0.870017 0
M  V30 6102 H 578.936 -1.31783 -4.00264 0
M  V30 6103 H 577.66 -0.329507 -3.24934 0
M  V30 6104 H 576.319 -2.40643 -2.76562 0
M  V30 6105 H 575.967 -1.14703 -4.89747 0
M  V30 6106 H 575.667 -2.88934 -5.11655 0
M  V30 6107 H 577.191 -2.16848 -5.70797 0
M  V30 6108 H 578.605 -3.88286 -4.2179 0
M  V30 6109 H 577.002 -4.59085 -3.86473 0
M  V30 6110 H 578.072 -4.13962 -2.52514 0
M  V30 6111 N 579.415 0.9433 -1.26252 0
M  V30 6112 C 580.831 1.21644 -1.03319 0
M  V30 6113 C 581.031 2.0003 0.242983 0
M  V30 6114 O 580.087 2.33838 0.952688 0
M  V30 6115 C 581.4 1.97978 -2.2633 0
M  V30 6116 C 582.948 2.10978 -2.31209 0
M  V30 6117 C 583.423 2.90713 -3.53907 0
M  V30 6118 N 584.914 2.98287 -3.54371 0
M  V30 6119 C 585.649 3.60406 -4.45976 0
M  V30 6120 N 585.145 4.24043 -5.47868 0
M  V30 6121 N 586.938 3.57658 -4.33633 0
M  V30 6122 H 579.089 0.419221 -2.08222 0
M  V30 6123 H 581.352 0.247995 -0.914988 0
M  V30 6124 H 581.058 1.47788 -3.19142 0
M  V30 6125 H 580.932 2.9865 -2.30408 0
M  V30 6126 H 583.319 2.6036 -1.38913 0
M  V30 6127 H 583.4 1.09575 -2.31143 0
M  V30 6128 H 583.044 2.42018 -4.46531 0
M  V30 6129 H 582.974 3.92367 -3.5122 0
M  V30 6130 H 585.465 2.53044 -2.80673 0
M  V30 6131 H 585.778 4.69334 -6.13959 0
M  V30 6132 H 584.123 4.22637 -5.51728 0
M  V30 6133 H 587.314 3.07134 -3.53251 0
M  V30 6134 H 587.487 4.05782 -5.05218 0
M  V30 6135 N 580.893 1.08022 1.14757 0
M  V30 6136 C 582.304 0.829144 1.67279 0
M  V30 6137 C 582.655 -0.644721 1.85305 0
M  V30 6138 O 581.78 -1.49838 1.56133 0
M  V30 6139 C 582.375 1.49855 3.03857 0
M  V30 6140 C 580.934 1.29482 3.53428 0
M  V30 6141 C 580.081 1.56386 2.28995 0
M  V30 6142 H 583.032 1.24134 0.988762 0
M  V30 6143 H 583.053 0.923572 3.69121 0
M  V30 6144 H 582.565 2.57123 2.90705 0
M  V30 6145 H 580.666 0.242669 3.71809 0
M  V30 6146 H 580.779 2.01974 4.34446 0
M  V30 6147 H 579.143 0.985217 2.34874 0
M  V30 6148 H 579.926 2.64851 2.18423 0
M  V30 6149 N 582.371 -1.3172 0.865308 0
M  V30 6150 C 583.281 -2.32394 0.320935 0
M  V30 6151 C 584.297 -1.64511 -0.566746 0
M  V30 6152 O 585.473 -1.95969 -0.464575 0
M  V30 6153 C 582.538 -3.43462 -0.472701 0
M  V30 6154 C 581.599 -4.27015 0.442385 0
M  V30 6155 C 580.832 -5.32779 -0.313469 0
M  V30 6156 O 581.055 -5.49158 -1.54214 0
M  V30 6157 O 579.989 -6.01015 0.326257 0
M  V30 6158 H 583.815 -2.80868 1.15528 0
M  V30 6159 H 581.4 -1.35535 0.628545 0
M  V30 6160 H 583.282 -4.11172 -0.922781 0
M  V30 6161 H 581.957 -2.97159 -1.28367 0
M  V30 6162 H 580.864 -3.62075 0.940866 0
M  V30 6163 H 582.197 -4.76871 1.21882 0
M  V30 6164 N 583.85 -0.624285 -1.44708 0
M  V30 6165 C 585.096 -0.126051 -2.02107 0
M  V30 6166 C 585.425 1.2496 -1.49048 0
M  V30 6167 O 584.68 1.84163 -0.662005 0
M  V30 6168 C 584.979 -0.0546353 -3.57358 0
M  V30 6169 C 584.644 -1.36815 -4.29642 0
M  V30 6170 C 583.307 -1.72792 -4.49106 0
M  V30 6171 C 585.659 -2.23549 -4.70824 0
M  V30 6172 C 582.986 -2.95222 -5.07012 0
M  V30 6173 C 585.339 -3.45243 -5.30085 0
M  V30 6174 C 584.003 -3.81452 -5.47769 0
M  V30 6175 H 583.273 -0.0461252 -0.739563 0
M  V30 6176 H 585.92 -0.809236 -1.73562 0
M  V30 6177 H 584.225 0.711891 -3.85278 0
M  V30 6178 H 585.922 0.347282 -3.99493 0
M  V30 6179 H 582.512 -1.07817 -4.14817 0
M  V30 6180 H 586.696 -1.9705 -4.55505 0
M  V30 6181 H 581.952 -3.23361 -5.18891 0
M  V30 6182 H 586.125 -4.12689 -5.60946 0
M  V30 6183 H 583.753 -4.76403 -5.92405 0
M  V30 6184 N 585.328 1.53329 -0.364422 0
M  V30 6185 C 586.261 2.22052 0.526145 0
M  V30 6186 C 587.239 1.21203 1.08391 0
M  V30 6187 O 588.423 1.50101 1.14026 0
M  V30 6188 C 585.55 2.91432 1.72583 0
M  V30 6189 C 584.596 4.06345 1.29562 0
M  V30 6190 S 585.429 5.34671 0.297885 0
M  V30 6191 C 586.585 6.07563 1.50392 0
M  V30 6192 H 586.818 2.97244 -0.0575055 0
M  V30 6193 H 584.351 1.53684 -0.148525 0
M  V30 6194 H 586.309 3.3202 2.41398 0
M  V30 6195 H 584.97 2.15966 2.28073 0
M  V30 6196 H 584.163 4.53901 2.19067 0
M  V30 6197 H 583.765 3.67642 0.686696 0
M  V30 6198 H 586.057 6.32224 2.43513 0
M  V30 6199 H 587 6.99973 1.06977 0
M  V30 6200 H 587.408 5.37994 1.70945 0
M  V30 6201 N 586.806 0.0935595 1.57322 0
M  V30 6202 C 587.738 -0.895923 2.10964 0
M  V30 6203 C 588.751 -1.24705 1.04654 0
M  V30 6204 O 589.94 -1.20044 1.32105 0
M  V30 6205 C 587.04 -2.20546 2.57318 0
M  V30 6206 C 586.213 -2.0299 3.87445 0
M  V30 6207 C 585.272 -3.17443 4.19662 0
M  V30 6208 O 584.298 -2.91474 4.88909 0
M  V30 6209 N 585.5 -4.43168 3.74943 0
M  V30 6210 H 588.265 -0.437788 2.96485 0
M  V30 6211 H 585.826 -0.0915863 1.61641 0
M  V30 6212 H 587.818 -2.9606 2.75917 0
M  V30 6213 H 586.388 -2.57789 1.76816 0
M  V30 6214 H 585.608 -1.11815 3.78009 0
M  V30 6215 H 586.896 -1.88535 4.7258 0
M  V30 6216 H 586.294 -4.67149 3.19043 0
M  V30 6217 H 584.851 -5.15637 3.987 0
M  V30 6218 N 588.284 -1.56567 -0.180126 0
M  V30 6219 C 589.217 -1.90813 -1.25163 0
M  V30 6220 C 590.195 -0.7699 -1.43218 0
M  V30 6221 O 591.379 -1.02236 -1.58367 0
M  V30 6222 C 588.506 -2.15138 -2.61597 0
M  V30 6223 C 587.552 -3.37834 -2.60328 0
M  V30 6224 S 588.385 -4.92486 -2.1028 0
M  V30 6225 C 589.541 -5.19896 -3.48509 0
M  V30 6226 H 589.774 -2.81398 -0.959283 0
M  V30 6227 H 587.307 -1.49541 -0.3843 0
M  V30 6228 H 589.265 -2.29835 -3.40127 0
M  V30 6229 H 587.926 -1.25276 -2.88036 0
M  V30 6230 H 587.119 -3.52027 -3.60684 0
M  V30 6231 H 586.721 -3.22208 -1.8989 0
M  V30 6232 H 589.013 -5.11334 -4.44459 0
M  V30 6233 H 589.956 -6.21571 -3.39198 0
M  V30 6234 H 590.364 -4.47489 -3.44114 0
M  V30 6235 N 589.762 0.448376 -1.51087 0
M  V30 6236 C 590.694 1.56146 -1.67783 0
M  V30 6237 C 591.707 1.52913 -0.55871 0
M  V30 6238 O 592.896 1.57889 -0.83267 0
M  V30 6239 C 589.996 2.95057 -1.66716 0
M  V30 6240 C 589.169 3.22915 -2.95033 0
M  V30 6241 C 588.228 4.41495 -2.86302 0
M  V30 6242 O 587.254 4.40688 -3.60254 0
M  V30 6243 N 588.456 5.44443 -2.014 0
M  V30 6244 H 591.221 1.42232 -2.638 0
M  V30 6245 H 588.782 0.637153 -1.48835 0
M  V30 6246 H 590.774 3.72388 -1.58458 0
M  V30 6247 H 589.344 3.02624 -0.783403 0
M  V30 6248 H 588.564 2.33985 -3.17245 0
M  V30 6249 H 589.852 3.38349 -3.79996 0
M  V30 6250 H 589.25 5.4793 -1.40674 0
M  V30 6251 H 587.807 6.2067 -1.99029 0
M  V30 6252 N 591.24 1.41047 0.703093 0
M  V30 6253 C 592.172 1.38228 1.82827 0
M  V30 6254 C 593.185 0.285637 1.60275 0
M  V30 6255 O 594.374 0.54685 1.69917 0
M  V30 6256 C 591.474 1.13136 3.19458 0
M  V30 6257 C 590.647 2.34695 3.69103 0
M  V30 6258 C 589.706 2.05574 4.84382 0
M  V30 6259 O 588.732 2.78549 4.96386 0
M  V30 6260 N 589.934 1.04135 5.71083 0
M  V30 6261 H 592.699 2.35203 1.85741 0
M  V30 6262 H 590.26 1.35562 0.885125 0
M  V30 6263 H 592.252 0.916183 3.94193 0
M  V30 6264 H 590.822 0.247836 3.11616 0
M  V30 6265 H 590.042 2.71963 2.85359 0
M  V30 6266 H 591.33 3.15705 3.99009 0
M  V30 6267 H 590.728 0.43722 5.64008 0
M  V30 6268 H 589.285 0.886078 6.45749 0
M  V30 6269 N 592.718 -0.936591 1.26751 0
M  V30 6270 C 593.967 -1.67778 1.11953 0
M  V30 6271 C 594.28 -1.92694 -0.33589 0
M  V30 6272 O 595.486 -2.64682 -0.604618 0
M  V30 6273 C 593.942 -3.02138 1.95551 0
M  V30 6274 C 593.55 -2.84953 3.45696 0
M  V30 6275 C 595.294 -3.79917 1.89377 0
M  V30 6276 C 593.201 -4.14814 4.21525 0
M  V30 6277 H 592.131 -0.629275 0.415366 0
M  V30 6278 H 594.782 -1.04122 1.51099 0
M  V30 6279 H 593.164 -3.668 1.49243 0
M  V30 6280 H 594.338 -2.29112 3.99805 0
M  V30 6281 H 592.653 -2.20612 3.53156 0
M  V30 6282 H 595.25 -4.76134 2.43312 0
M  V30 6283 H 595.593 -4.07204 0.865464 0
M  V30 6284 H 596.126 -3.22037 2.33532 0
M  V30 6285 H 592.865 -3.92709 5.24843 0
M  V30 6286 H 592.385 -4.70352 3.72195 0
M  V30 6287 H 594.064 -4.83239 4.3022 0
M  V30 6288 N 594.196 -1.08629 -1.14182 0
M  V30 6289 C 595.143 -0.718299 -2.19338 0
M  V30 6290 C 596.113 0.296587 -1.63431 0
M  V30 6291 O 597.298 0.180079 -1.89948 0
M  V30 6292 C 594.438 -0.136203 -3.44831 0
M  V30 6293 C 593.551 -1.20414 -4.14879 0
M  V30 6294 C 592.686 -0.585666 -5.27962 0
M  V30 6295 C 591.725 -1.63548 -5.89846 0
M  V30 6296 N 590.862 -1.03864 -6.94375 0
M  V30 6297 H 595.702 -1.61932 -2.50164 0
M  V30 6298 H 593.239 -0.80919 -1.22844 0
M  V30 6299 H 595.197 0.219021 -4.16625 0
M  V30 6300 H 593.827 0.728121 -3.14481 0
M  V30 6301 H 592.879 -1.67676 -3.41451 0
M  V30 6302 H 594.191 -1.99959 -4.56966 0
M  V30 6303 H 593.345 -0.178818 -6.06436 0
M  V30 6304 H 592.084 0.24142 -4.87102 0
M  V30 6305 H 591.089 -2.05197 -5.10073 0
M  V30 6306 H 592.314 -2.46509 -6.3278 0
M  V30 6307 H 590.26 -0.232687 -6.55587 0
M  V30 6308 H 590.177 -1.77116 -7.3496 0
M  V30 6309 H 591.445 -0.657724 -7.7672 0
M  V30 6310 N 595.674 1.31259 -0.872281 0
M  V30 6311 C 596.584 2.32221 -0.333255 0
M  V30 6312 C 597.6 1.6481 0.558013 0
M  V30 6313 O 598.776 1.96212 0.454175 0
M  V30 6314 C 595.841 3.43708 0.454479 0
M  V30 6315 C 594.902 4.26774 -0.465024 0
M  V30 6316 C 594.135 5.32937 0.28521 0
M  V30 6317 O 594.358 5.49968 1.513 0
M  V30 6318 O 593.292 6.00834 -0.358126 0
M  V30 6319 H 597.118 2.80252 -1.17016 0
M  V30 6320 H 594.703 1.352 -0.635724 0
M  V30 6321 H 596.585 4.11656 0.900963 0
M  V30 6322 H 595.26 2.97836 1.26789 0
M  V30 6323 H 594.167 3.61571 -0.960055 0
M  V30 6324 H 595.5 4.76217 -1.2441 0
M  V30 6325 N 597.152 0.631951 1.44375 0
M  V30 6326 C 598.082 -0.0593243 2.33425 0
M  V30 6327 C 599.063 -0.833964 1.48253 0
M  V30 6328 O 600.248 -0.799682 1.76971 0
M  V30 6329 C 597.378 -1.04096 3.31333 0
M  V30 6330 C 596.332 -0.377899 4.26328 0
M  V30 6331 C 595.658 -1.4695 5.14111 0
M  V30 6332 C 596.958 0.716371 5.17364 0
M  V30 6333 H 598.652 0.684287 2.91475 0
M  V30 6334 H 596.198 0.330518 1.40156 0
M  V30 6335 H 598.151 -1.53331 3.92514 0
M  V30 6336 H 596.875 -1.81547 2.71493 0
M  V30 6337 H 595.534 0.0938054 3.6648 0
M  V30 6338 H 595.182 -2.2349 4.50623 0
M  V30 6339 H 594.882 -1.03121 5.78481 0
M  V30 6340 H 596.406 -1.96363 5.78164 0
M  V30 6341 H 597.82 0.307089 5.72477 0
M  V30 6342 H 596.217 1.07784 5.90341 0
M  V30 6343 H 597.287 1.58316 4.58327 0
M  V30 6344 N 598.631 -1.53133 0.372548 0
M  V30 6345 C 599.877 -2.01654 -0.215277 0
M  V30 6346 C 600.21 -1.25914 -1.47849 0
M  V30 6347 O 599.485 -0.3548 -1.91237 0
M  V30 6348 C 599.768 -3.56609 -0.500187 0
M  V30 6349 C 599.621 -4.43036 0.777145 0
M  V30 6350 C 600.94 -4.20528 -1.29786 0
M  V30 6351 H 598.059 -0.732991 -0.0767686 0
M  V30 6352 H 600.701 -1.83335 0.498814 0
M  V30 6353 H 598.851 -3.7235 -1.10852 0
M  V30 6354 H 600.523 -4.39079 1.41447 0
M  V30 6355 H 598.766 -4.10723 1.39604 0
M  V30 6356 H 599.437 -5.49424 0.532662 0
M  V30 6357 H 601.913 -4.08663 -0.783198 0
M  V30 6358 H 600.789 -5.28962 -1.46596 0
M  V30 6359 H 601.05 -3.77051 -2.30836 0
M  V30 6360 N 600.109 -0.101901 -1.5727 0
M  V30 6361 C 601.042 0.891377 -2.10071 0
M  V30 6362 C 602.02 1.27197 -1.01291 0
M  V30 6363 O 603.204 1.37602 -1.28833 0
M  V30 6364 C 600.331 2.19049 -2.58331 0
M  V30 6365 C 599.377 1.95925 -3.78834 0
M  V30 6366 S 600.21 1.19106 -5.22086 0
M  V30 6367 C 601.366 2.50234 -5.73702 0
M  V30 6368 H 601.599 0.442212 -2.93993 0
M  V30 6369 H 599.132 0.111529 -1.53997 0
M  V30 6370 H 601.09 2.937 -2.86793 0
M  V30 6371 H 599.751 2.61086 -1.74622 0
M  V30 6372 H 598.944 2.92143 -4.10693 0
M  V30 6373 H 598.546 1.29401 -3.50901 0
M  V30 6374 H 600.838 3.46173 -5.82384 0
M  V30 6375 H 601.781 2.22944 -6.72088 0
M  V30 6376 H 602.189 2.58818 -5.01671 0
M  V30 6377 N 601.587 1.56661 0.17182 0
M  V30 6378 C 602.864 1.72838 0.915778 0
M  V30 6379 C 603.244 0.66316 2.00413 0
M  V30 6380 O 602.592 -0.322123 2.26218 0
M  V30 6381 C 602.802 3.16019 1.48097 0
M  V30 6382 C 604.15 3.76962 1.95408 0
M  V30 6383 O 605.174 3.19294 1.57892 0
M  V30 6384 O 604.033 4.78219 2.64516 0
M  V30 6385 H 601.127 0.705797 0.431021 0
M  V30 6386 H 603.673 1.68947 0.159689 0
M  V30 6387 H 602.445 3.85031 0.697618 0
M  V30 6388 H 602.068 3.24234 2.30126 0
M  V30 6389 N 603.065 -0.440357 1.51323 0
M  V30 6390 C 603.975 -1.55955 1.75258 0
M  V30 6391 C 604.991 -1.61933 0.636687 0
M  V30 6392 O 606.167 -1.79231 0.918593 0
M  V30 6393 C 603.232 -2.9196 1.86977 0
M  V30 6394 C 602.293 -2.96122 3.10822 0
M  V30 6395 C 601.526 -4.2564 3.21973 0
M  V30 6396 O 601.749 -5.17851 2.39137 0
M  V30 6397 O 600.683 -4.36025 4.14929 0
M  V30 6398 H 604.509 -1.38673 2.70191 0
M  V30 6399 H 602.094 -0.623055 1.35788 0
M  V30 6400 H 603.976 -3.72682 1.96688 0
M  V30 6401 H 602.651 -3.09375 0.952307 0
M  V30 6402 H 601.558 -2.14366 3.06591 0
M  V30 6403 H 602.891 -2.83651 4.02247 0
M  V30 6404 N 604.543 -1.41418 -0.695603 0
M  V30 6405 C 605.82 -1.31264 -1.45014 0
M  V30 6406 C 606.2 0.0597994 -2.11015 0
M  V30 6407 O 605.548 1.07403 -2.01685 0
M  V30 6408 C 605.758 -2.466 -2.4696 0
M  V30 6409 C 607.106 -2.87763 -3.12214 0
M  V30 6410 O 608.13 -2.46339 -2.57285 0
M  V30 6411 O 606.989 -3.59395 -4.11701 0
M  V30 6412 H 604.083 -0.516576 -0.645816 0
M  V30 6413 H 606.629 -1.53382 -0.726084 0
M  V30 6414 H 605.401 -3.38183 -1.96845 0
M  V30 6415 H 605.024 -2.26358 -3.26876 0
M  V30 6416 N 606.021 0.929856 -1.27246 0
M  V30 6417 C 606.969 2.05151 -1.09616 0
M  V30 6418 C 607.963 1.69388 -0.0198617 0
M  V30 6419 O 609.169 1.79124 -0.177417 0
M  V30 6420 H 605.544 0.671909 -0.337701 0
M  V30 6421 H 607.515 2.17168 -2.04648 0
M  V30 6422 C 606.264 3.3934 -0.757851 0
M  V30 6423 H 605.587 3.67343 -1.57795 0
M  V30 6424 H 607.027 4.18603 -0.674358 0
M  V30 6425 C 605.486 3.32582 0.537658 0
M  V30 6426 O 606.016 3.69633 1.57271 0
M  V30 6427 N 604.222 2.8568 0.532478 0
M  V30 6428 H 603.769 2.55725 -0.310233 0
M  V30 6429 H 603.727 2.81541 1.39936 0
M  V30 6430 N 607.499 1.09233 1.13605 0
M  V30 6431 C 608.776 0.739633 1.81077 0
M  V30 6432 C 609.156 -0.775595 1.96336 0
M  V30 6433 O 608.504 -1.69726 1.52988 0
M  V30 6434 C 608.714 1.47636 3.16235 0
M  V30 6435 C 610.062 1.64087 3.91613 0
M  V30 6436 O 611.086 1.43871 3.25852 0
M  V30 6437 O 609.945 1.97511 5.0956 0
M  V30 6438 H 607.039 0.265464 0.783236 0
M  V30 6439 H 609.585 1.19441 1.20549 0
M  V30 6440 H 608.357 2.50818 3.00344 0
M  V30 6441 H 607.98 1.01362 3.84462 0
M  V30 6442 N 608.977 -1.30795 0.87923 0
M  V30 6443 C 610.225 -1.95974 0.493809 0
M  V30 6444 C 610.546 -1.69787 -0.959021 0
M  V30 6445 O 609.816 -1.01832 -1.67353 0
M  V30 6446 H 608.396 -0.725083 0.179622 0
M  V30 6447 H 611.058 -1.59432 1.12105 0
M  V30 6448 H 610.154 -3.05058 0.659263 0
M  V30 6449 N 610.455 -0.639598 -1.44038 0
M  V30 6450 C 611.695 -0.150902 -2.03842 0
M  V30 6451 C 612.059 1.20744 -1.49281 0
M  V30 6452 O 613.26 1.78875 -2.00642 0
M  V30 6453 C 611.531 -0.146114 -3.57101 0
M  V30 6454 S 613.09 0.276725 -4.37927 0
M  V30 6455 H 609.908 -0.0652447 -0.708 0
M  V30 6456 H 612.51 -0.844886 -1.76301 0
M  V30 6457 H 611.214 -1.13769 -3.94316 0
M  V30 6458 H 610.745 0.568846 -3.89266 0
M  V30 6459 H 612.76 1.51893 -4.7238 0
M  V30 6460 N 611.933 1.52934 -0.380664 0
M  V30 6461 C 613.161 2.05886 0.204599 0
M  V30 6462 C 613.576 1.25305 1.41223 0
M  V30 6463 O 612.933 0.297504 1.80059 0
M  V30 6464 C 612.984 3.56764 0.583249 0
M  V30 6465 O 612.705 4.34292 -0.576398 0
M  V30 6466 C 614.206 4.2603 1.2253 0
M  V30 6467 H 611.426 0.670193 0.0328991 0
M  V30 6468 H 613.97 1.97148 -0.543397 0
M  V30 6469 H 612.125 3.65603 1.28115 0
M  V30 6470 H 612.539 5.23819 -0.267119 0
M  V30 6471 H 614.013 5.32868 1.44068 0
M  V30 6472 H 614.49 3.80698 2.19011 0
M  V30 6473 H 615.096 4.21485 0.568407 0
M  V30 6474 N 613.412 0.11024 1.57214 0
M  V30 6475 C 614.823 -0.416527 1.81994 0
M  V30 6476 C 615.174 -1.67183 1.02686 0
M  V30 6477 O 614.299 -2.14823 0.260782 0
M  V30 6478 C 614.894 -0.762466 3.30109 0
M  V30 6479 C 613.453 -1.23391 3.556 0
M  V30 6480 C 612.6 -0.238166 2.76275 0
M  V30 6481 H 615.551 0.335491 1.55113 0
M  V30 6482 H 615.572 -1.62068 3.44259 0
M  V30 6483 H 615.084 0.151346 3.87805 0
M  V30 6484 H 613.185 -2.16492 3.03253 0
M  V30 6485 H 613.298 -1.18528 4.64207 0
M  V30 6486 H 611.662 -0.723421 2.4421 0
M  V30 6487 H 612.445 0.668591 3.36727 0
M  V30 6488 N 614.89 -1.56749 -0.16351 0
M  V30 6489 C 615.82 -2.00042 -1.20438 0
M  V30 6490 C 616.801 -0.877256 -1.45733 0
M  V30 6491 O 617.986 -1.1439 -1.56935 0
M  V30 6492 C 615.116 -2.36697 -2.54149 0
M  V30 6493 C 614.07 -3.52046 -2.43408 0
M  V30 6494 C 613.396 -3.74466 -3.81679 0
M  V30 6495 C 614.696 -4.85247 -1.93216 0
M  V30 6496 H 616.39 -2.87244 -0.844477 0
M  V30 6497 H 613.936 -1.38194 -0.40478 0
M  V30 6498 H 615.889 -2.65582 -3.27176 0
M  V30 6499 H 614.613 -1.46414 -2.91943 0
M  V30 6500 H 613.272 -3.23301 -1.72834 0
M  V30 6501 H 612.92 -2.81461 -4.1688 0
M  V30 6502 H 612.62 -4.52084 -3.75359 0
M  V30 6503 H 614.144 -4.0576 -4.5628 0
M  V30 6504 H 615.558 -5.12957 -2.56023 0
M  V30 6505 H 613.955 -5.66556 -1.97825 0
M  V30 6506 H 615.025 -4.7672 -0.88689 0
M  V30 6507 N 616.368 0.432326 -1.51554 0
M  V30 6508 C 617.318 1.52366 -1.69614 0
M  V30 6509 C 618.302 1.51205 -0.550083 0
M  V30 6510 O 619.494 1.57573 -0.806206 0
M  V30 6511 C 616.623 2.90513 -1.82913 0
M  V30 6512 C 615.709 2.9641 -3.03318 0
M  V30 6513 N 616.1 2.72043 -4.26411 0
M  V30 6514 C 614.398 3.27572 -3.02675 0
M  V30 6515 C 615.099 2.83912 -5.07709 0
M  V30 6516 N 614.075 3.15798 -4.42462 0
M  V30 6517 H 617.877 1.32285 -2.62446 0
M  V30 6518 H 615.391 0.639708 -1.4927 0
M  V30 6519 H 617.388 3.69032 -1.93962 0
M  V30 6520 H 616.048 3.1161 -0.912655 0
M  V30 6521 H 617.059 2.46876 -4.55272 0
M  V30 6522 H 613.736 3.54411 -2.20678 0
M  V30 6523 H 615.126 2.68984 -6.15709 0
M  V30 6524 N 617.846 1.41785 0.688094 0
M  V30 6525 C 619.076 1.44705 1.47459 0
M  V30 6526 C 619.484 0.052916 1.89126 0
M  V30 6527 O 618.827 -0.939781 1.57841 0
M  V30 6528 C 618.889 2.29935 2.76352 0
M  V30 6529 C 618.553 3.77996 2.56843 0
M  V30 6530 C 619.55 4.69976 2.22304 0
M  V30 6531 C 617.235 4.2212 2.7225 0
M  V30 6532 C 619.229 6.04068 2.03421 0
M  V30 6533 C 616.916 5.56275 2.52985 0
M  V30 6534 C 617.914 6.47065 2.18621 0
M  V30 6535 O 617.602 7.78744 1.9953 0
M  V30 6536 H 617.334 0.494703 0.460701 0
M  V30 6537 H 619.888 1.86802 0.854057 0
M  V30 6538 H 618.118 1.82664 3.40839 0
M  V30 6539 H 619.807 2.24467 3.38186 0
M  V30 6540 H 620.573 4.37175 2.10008 0
M  V30 6541 H 616.452 3.51752 2.97979 0
M  V30 6542 H 619.996 6.74897 1.76523 0
M  V30 6543 H 615.893 5.88653 2.64873 0
M  V30 6544 H 616.661 7.89966 2.14234 0
M  V30 6545 N 619.324 -0.923095 1.27737 0
M  V30 6546 C 620.287 -2.00587 1.10894 0
M  V30 6547 C 621.287 -1.60718 0.0514927 0
M  V30 6548 O 622.477 -1.71658 0.296481 0
M  V30 6549 C 619.609 -3.33829 0.690717 0
M  V30 6550 H 620.802 -2.16959 2.07048 0
M  V30 6551 H 618.355 -1.10451 1.1059 0
M  V30 6552 H 619.09 -3.23157 -0.272 0
M  V30 6553 H 618.875 -3.64125 1.45448 0
M  V30 6554 H 620.365 -4.13336 0.595252 0
M  V30 6555 N 620.802 -1.09834 -1.13024 0
M  V30 6556 C 622.042 -0.846664 -1.8604 0
M  V30 6557 C 622.406 0.616557 -1.81831 0
M  V30 6558 O 623.607 0.984329 -2.50129 0
M  V30 6559 C 621.878 -1.37228 -3.30005 0
M  V30 6560 S 623.437 -1.25511 -4.20467 0
M  V30 6561 H 620.255 -0.30611 -0.64173 0
M  V30 6562 H 622.857 -1.40255 -1.36194 0
M  V30 6563 H 621.561 -2.43138 -3.30624 0
M  V30 6564 H 621.092 -0.81271 -3.84914 0
M  V30 6565 H 623.107 -0.208762 -4.95761 0
M  V30 6566 N 622.28 1.30327 -0.886154 0
M  V30 6567 C 623.696 1.48676 -0.580323 0
M  V30 6568 C 623.896 1.81189 0.881639 0
M  V30 6569 O 622.952 1.90021 1.66278 0
M  V30 6570 C 624.265 2.60932 -1.49449 0
M  V30 6571 C 625.813 2.74812 -1.49824 0
M  V30 6572 C 626.288 3.90183 -2.39836 0
M  V30 6573 N 627.779 3.97495 -2.37806 0
M  V30 6574 C 628.514 4.86078 -3.04165 0
M  V30 6575 N 628.01 5.79448 -3.79753 0
M  V30 6576 N 629.803 4.79456 -2.93391 0
M  V30 6577 H 621.954 1.07495 -1.8319 0
M  V30 6578 H 624.217 0.532661 -0.784204 0
M  V30 6579 H 623.923 2.43731 -2.5355 0
M  V30 6580 H 623.797 3.57437 -1.20494 0
M  V30 6581 H 626.184 2.91418 -0.464731 0
M  V30 6582 H 626.265 1.78924 -1.82811 0
M  V30 6583 H 625.909 3.74334 -3.43273 0
M  V30 6584 H 625.839 4.85411 -2.04166 0
M  V30 6585 H 628.33 3.30703 -1.82877 0
M  V30 6586 H 628.643 6.43805 -4.27475 0
M  V30 6587 H 626.988 5.79376 -3.8386 0
M  V30 6588 H 630.179 4.05494 -2.33864 0
M  V30 6589 H 630.352 5.48283 -3.45383 0
M  V30 6590 N 623.758 0.647228 1.43697 0
M  V30 6591 C 624.69 -0.0866232 2.29036 0
M  V30 6592 C 625.703 -0.793051 1.42178 0
M  V30 6593 O 626.892 -0.651807 1.66174 0
M  V30 6594 C 623.992 -1.14552 3.18953 0
M  V30 6595 C 623.165 -0.518422 4.34317 0
M  V30 6596 C 622.224 -1.4734 5.05151 0
M  V30 6597 O 621.25 -0.984312 5.60625 0
M  V30 6598 N 622.452 -2.8075 5.08094 0
M  V30 6599 H 625.217 0.645834 2.92659 0
M  V30 6600 H 622.778 0.489567 1.54321 0
M  V30 6601 H 624.77 -1.78505 3.63205 0
M  V30 6602 H 623.34 -1.78001 2.56971 0
M  V30 6603 H 622.56 0.300079 3.93056 0
M  V30 6604 H 623.848 -0.080401 5.08736 0
M  V30 6605 H 623.246 -3.23052 4.64386 0
M  V30 6606 H 621.803 -3.40022 5.56083 0
M  V30 6607 N 625.236 -1.5273 0.388769 0
M  V30 6608 C 626.484 -2.01174 -0.193208 0
M  V30 6609 C 626.805 -1.27705 -1.47365 0
M  V30 6610 O 626.075 -0.396966 -1.91836 0
M  V30 6611 H 624.655 -0.743287 -0.0743871 0
M  V30 6612 H 627.317 -1.87826 0.520336 0
M  V30 6613 H 626.413 -3.09477 -0.403803 0
M  V30 6614 N 626.714 -0.118576 -1.57153 0
M  V30 6615 C 627.962 0.538461 -1.94795 0
M  V30 6616 C 628.283 1.67243 -1.00274 0
M  V30 6617 O 627.553 1.95811 -0.0589692 0
M  V30 6618 H 626.133 0.201904 -0.719197 0
M  V30 6619 H 628.795 -0.187418 -1.93997 0
M  V30 6620 H 627.891 0.933315 -2.97818 0
M  V30 6621 N 628.193 1.56834 0.155195 0
M  V30 6622 C 629.604 1.72421 0.716082 0
M  V30 6623 C 629.955 0.731685 1.82046 0
M  V30 6624 O 629.08 -0.103481 2.16152 0
M  V30 6625 C 629.675 3.12629 1.30571 0
M  V30 6626 C 628.234 3.29846 1.81325 0
M  V30 6627 C 627.381 2.68359 0.698494 0
M  V30 6628 H 630.332 1.58544 -0.0703861 0
M  V30 6629 H 630.353 3.12174 2.1755 0
M  V30 6630 H 629.865 3.84844 0.501701 0
M  V30 6631 H 627.966 2.62614 2.64319 0
M  V30 6632 H 628.079 4.37727 1.9476 0
M  V30 6633 H 626.443 2.28604 1.12305 0
M  V30 6634 H 627.226 3.43171 -0.0939366 0
M  V30 6635 N 629.671 -0.424282 1.51781 0
M  V30 6636 C 630.919 -1.17028 1.64769 0
M  V30 6637 C 631.24 -1.91409 0.372523 0
M  V30 6638 O 630.51 -1.86091 -0.612108 0
M  V30 6639 H 629.09 -0.434992 0.607282 0
M  V30 6640 H 631.752 -0.485169 1.88765 0
M  V30 6641 H 630.848 -1.8927 2.4816 0
M  V30 6642 N 631.149 -1.42148 -0.680565 0
M  V30 6643 C 632.374 -1.45901 -1.47403 0
M  V30 6644 C 632.799 -0.0700985 -1.87969 0
M  V30 6645 O 632.157 0.930145 -1.55621 0
M  V30 6646 C 632.205 -2.38661 -2.70321 0
M  V30 6647 O 631.309 -1.85399 -3.68376 0
M  V30 6648 H 630.65 -0.494565 -0.443059 0
M  V30 6649 H 633.18 -1.86774 -0.835251 0
M  V30 6650 H 633.19 -2.55046 -3.18458 0
M  V30 6651 H 631.865 -3.39571 -2.40134 0
M  V30 6652 H 630.442 -1.78541 -3.2738 0
M  V30 6653 N 632.627 0.916307 -1.28225 0
M  V30 6654 C 633.873 1.66765 -1.154 0
M  V30 6655 C 634.206 1.91912 0.297251 0
M  V30 6656 O 633.481 1.51766 1.21644 0
M  V30 6657 C 633.764 3.02715 -1.95028 0
M  V30 6658 C 633.617 2.84738 -3.48201 0
M  V30 6659 C 634.936 4.03215 -1.76369 0
M  V30 6660 H 632.055 0.605205 -0.42059 0
M  V30 6661 H 634.697 1.06255 -1.57512 0
M  V30 6662 H 632.847 3.54365 -1.59242 0
M  V30 6663 H 634.519 2.40118 -3.9388 0
M  V30 6664 H 632.762 2.19848 -3.73964 0
M  V30 6665 H 633.433 3.8127 -3.99171 0
M  V30 6666 H 635.909 3.60617 -2.07593 0
M  V30 6667 H 634.785 4.96306 -2.34459 0
M  V30 6668 H 635.046 4.36288 -0.71452 0
M  V30 6669 N 634.105 1.10431 1.1244 0
M  V30 6670 C 635.053 0.747974 2.20246 0
M  V30 6671 C 636.047 -0.255848 1.67457 0
M  V30 6672 O 637.253 -0.116221 1.79624 0
M  V30 6673 H 633.628 0.223946 0.71788 0
M  V30 6674 H 635.599 1.6661 2.47556 0
M  V30 6675 C 634.348 0.195957 3.47147 0
M  V30 6676 H 633.671 0.959606 3.88113 0
M  V30 6677 H 635.111 -0.0153154 4.23997 0
M  V30 6678 C 633.57 -1.07132 3.19413 0
M  V30 6679 O 634.1 -2.15284 3.3914 0
M  V30 6680 N 632.306 -0.98994 2.73219 0
M  V30 6681 H 631.853 -0.109736 2.57366 0
M  V30 6682 H 631.811 -1.83856 2.55038 0
M  V30 6683 N 635.583 -1.29855 0.893053 0
M  V30 6684 C 636.531 -2.29867 0.355512 0
M  V30 6685 C 637.525 -1.60502 -0.541801 0
M  V30 6686 O 638.731 -1.74902 -0.425339 0
M  V30 6687 H 635.106 -0.745805 0.0963247 0
M  V30 6688 H 637.077 -2.72655 1.21252 0
M  V30 6689 C 635.826 -3.453 -0.407801 0
M  V30 6690 H 635.149 -3.98864 0.273426 0
M  V30 6691 H 636.589 -4.17334 -0.748887 0
M  V30 6692 C 635.048 -2.96051 -1.60795 0
M  V30 6693 O 635.578 -2.96763 -2.7073 0
M  V30 6694 N 633.784 -2.51963 -1.44786 0
M  V30 6695 H 633.331 -2.51583 -0.553498 0
M  V30 6696 H 633.289 -2.1937 -2.2522 0
M  V30 6697 N 637.061 -0.65484 -1.43351 0
M  V30 6698 C 637.991 0.0221809 -2.33489 0
M  V30 6699 C 638.972 0.810272 -1.49561 0
M  V30 6700 O 640.157 0.771426 -1.78221 0
M  V30 6701 C 637.287 0.988117 -3.32947 0
M  V30 6702 C 636.241 0.310026 -4.26876 0
M  V30 6703 C 635.567 1.38752 -5.16384 0
M  V30 6704 C 636.867 -0.798589 -5.16159 0
M  V30 6705 H 638.561 -0.730571 -2.9035 0
M  V30 6706 H 636.107 -0.352773 -1.39612 0
M  V30 6707 H 638.06 1.47067 -3.94904 0
M  V30 6708 H 636.784 1.77205 -2.74346 0
M  V30 6709 H 635.443 -0.152097 -3.66284 0
M  V30 6710 H 635.091 2.16293 -4.54121 0
M  V30 6711 H 634.791 0.939051 -5.80048 0
M  V30 6712 H 636.315 1.87141 -5.81215 0
M  V30 6713 H 637.729 -0.398126 -5.71916 0
M  V30 6714 H 636.126 -1.17163 -5.88552 0
M  V30 6715 H 637.196 -1.65588 -4.55751 0
M  V30 6716 N 638.539 1.52521 -0.396863 0
M  V30 6717 C 639.469 2.29582 0.425941 0
M  V30 6718 C 640.45 1.33281 1.05689 0
M  V30 6719 O 641.635 1.62181 1.06823 0
M  V30 6720 C 638.765 3.10821 1.54943 0
M  V30 6721 C 637.719 4.15069 1.04413 0
M  V30 6722 C 637.045 4.84578 2.26028 0
M  V30 6723 C 638.345 5.22191 0.106767 0
M  V30 6724 H 640.039 2.98612 -0.217045 0
M  V30 6725 H 637.585 1.43611 -0.105826 0
M  V30 6726 H 639.538 3.63492 2.13193 0
M  V30 6727 H 638.262 2.39538 2.22011 0
M  V30 6728 H 636.921 3.63389 0.484118 0
M  V30 6729 H 636.569 4.09835 2.91623 0
M  V30 6730 H 636.269 5.55043 1.92876 0
M  V30 6731 H 637.793 5.40056 2.84906 0
M  V30 6732 H 639.207 5.70176 0.597685 0
M  V30 6733 H 637.604 5.99947 -0.135352 0
M  V30 6734 H 638.674 4.77531 -0.842134 0
M  V30 6735 N 640.017 0.126909 1.57088 0
M  V30 6736 C 641.265 -0.528123 1.95078 0
M  V30 6737 C 641.586 -1.66708 1.0116 0
M  V30 6738 O 640.856 -1.95777 0.0693527 0
M  V30 6739 H 639.436 -0.198087 0.720257 0
M  V30 6740 H 642.098 0.197703 1.93895 0
M  V30 6741 H 641.194 -0.917507 2.98309 0
M  V30 6742 N 641.495 -1.56914 -0.146875 0
M  V30 6743 C 642.742 -1.83356 -0.859467 0
M  V30 6744 C 643.07 -0.707811 -1.81164 0
M  V30 6745 O 642.325 0.303155 -1.93338 0
M  V30 6746 C 642.624 -3.16128 -1.66727 0
M  V30 6747 C 642.29 -4.42586 -0.861881 0
M  V30 6748 C 640.952 -4.76929 -0.639687 0
M  V30 6749 C 643.304 -5.20344 -0.298643 0
M  V30 6750 C 640.632 -5.86491 0.156451 0
M  V30 6751 C 642.984 -6.30742 0.484536 0
M  V30 6752 C 641.648 -6.63635 0.717306 0
M  V30 6753 H 640.918 -0.670947 -0.314501 0
M  V30 6754 H 643.565 -1.91104 -0.123108 0
M  V30 6755 H 641.87 -3.03831 -2.47374 0
M  V30 6756 H 643.567 -3.33802 -2.2221 0
M  V30 6757 H 640.157 -4.15662 -1.04513 0
M  V30 6758 H 644.341 -4.94186 -0.457585 0
M  V30 6759 H 639.597 -6.10419 0.346292 0
M  V30 6760 H 643.771 -6.90188 0.928105 0
M  V30 6761 H 641.398 -7.48367 1.33607 0
M  V30 6762 N 642.974 0.416227 -1.52004 0
M  V30 6763 C 643.922 1.5272 -1.7544 0
M  V30 6764 C 644.916 1.57596 -0.621289 0
M  V30 6765 O 646.122 1.61087 -0.803172 0
M  V30 6766 H 642.497 0.507772 -0.554682 0
M  V30 6767 H 644.468 1.30136 -2.68528 0
M  V30 6768 C 643.217 2.90165 -1.91571 0
M  V30 6769 H 642.54 2.87154 -2.78178 0
M  V30 6770 H 643.98 3.67211 -2.11972 0
M  V30 6771 C 642.439 3.29947 -0.680942 0
M  V30 6772 O 642.969 4.01403 0.154527 0
M  V30 6773 N 641.175 2.8593 -0.518894 0
M  V30 6774 H 640.722 2.2795 -1.19986 0
M  V30 6775 H 640.68 3.12907 0.305985 0
M  V30 6776 N 644.452 1.42507 0.673017 0
M  V30 6777 C 645.698 1.43284 1.43519 0
M  V30 6778 C 646.031 0.049668 1.94136 0
M  V30 6779 O 645.306 -0.926369 1.71022 0
M  V30 6780 C 645.589 2.45874 2.63093 0
M  V30 6781 C 645.442 3.93388 2.18096 0
M  V30 6782 C 646.761 2.45431 3.6531 0
M  V30 6783 H 643.88 0.521752 0.520522 0
M  V30 6784 H 646.522 1.73932 0.764701 0
M  V30 6785 H 644.672 2.19869 3.20296 0
M  V30 6786 H 646.344 4.30379 1.66046 0
M  V30 6787 H 644.587 4.07169 1.49652 0
M  V30 6788 H 645.258 4.60752 3.03993 0
M  V30 6789 H 647.734 2.68561 3.17827 0
M  V30 6790 H 646.61 3.19189 4.46553 0
M  V30 6791 H 646.871 1.48092 4.16559 0
M  V30 6792 N 645.93 -0.909495 1.28709 0
M  V30 6793 C 647.155 -1.69801 1.1909 0
M  V30 6794 C 647.58 -1.86479 -0.246388 0
M  V30 6795 O 646.938 -1.37802 -1.17815 0
M  V30 6796 C 646.986 -3.06543 1.89904 0
M  V30 6797 O 646.09 -3.94268 1.2094 0
M  V30 6798 H 645.431 -0.519783 0.413185 0
M  V30 6799 H 647.961 -1.13689 1.70106 0
M  V30 6800 H 647.971 -3.56748 1.97977 0
M  V30 6801 H 646.646 -2.93722 2.94449 0
M  V30 6802 H 645.223 -3.52702 1.2106 0
M  V30 6803 N 647.408 -1.11026 -1.11852 0
M  V30 6804 C 648.657 -0.851249 -1.82857 0
M  V30 6805 C 648.97 0.62514 -1.85341 0
M  V30 6806 O 650.176 1.00026 -2.52403 0
M  V30 6807 C 648.632 -1.47309 -3.28372 0
M  V30 6808 C 648.24 -2.9832 -3.34229 0
M  V30 6809 C 649.984 -1.29373 -4.04306 0
M  V30 6810 C 647.891 -3.53509 -4.74115 0
M  V30 6811 H 646.821 -0.314794 -0.685143 0
M  V30 6812 H 649.472 -1.33499 -1.25898 0
M  V30 6813 H 647.854 -0.917017 -3.85236 0
M  V30 6814 H 649.028 -3.60295 -2.87271 0
M  V30 6815 H 647.343 -3.15482 -2.71772 0
M  V30 6816 H 649.94 -1.68042 -5.07608 0
M  V30 6817 H 650.283 -0.235879 -4.15631 0
M  V30 6818 H 650.816 -1.8182 -3.53817 0
M  V30 6819 H 647.555 -4.58987 -4.67986 0
M  V30 6820 H 647.075 -2.96305 -5.21501 0
M  V30 6821 H 648.754 -3.51693 -5.43066 0
M  V30 6822 N 648.886 1.2938 -0.899927 0
M  V30 6823 C 649.836 2.25311 -0.349165 0
M  V30 6824 C 650.82 1.51889 0.530892 0
M  V30 6825 O 652.012 1.73028 0.372872 0
M  V30 6826 C 649.141 3.40696 0.422055 0
M  V30 6827 C 648.227 4.21455 -0.472935 0
M  V30 6828 N 648.618 4.8048 -1.58026 0
M  V30 6829 C 646.916 4.45177 -0.270767 0
M  V30 6830 C 647.617 5.41117 -2.13465 0
M  V30 6831 N 646.593 5.24518 -1.42766 0
M  V30 6832 H 650.395 2.68507 -1.19505 0
M  V30 6833 H 647.909 1.43992 -0.751006 0
M  V30 6834 H 649.906 4.08486 0.833369 0
M  V30 6835 H 648.566 2.99037 1.2652 0
M  V30 6836 H 649.577 4.79257 -1.96299 0
M  V30 6837 H 646.254 4.14071 0.533988 0
M  V30 6838 H 647.644 5.979 -3.06537 0
M  V30 6839 N 650.364 0.662433 1.43002 0
M  V30 6840 C 651.589 0.186003 2.06564 0
M  V30 6841 C 652.014 -1.14314 1.49379 0
M  V30 6842 O 651.372 -1.70824 0.607346 0
M  V30 6843 C 651.42 0.118269 3.60406 0
M  V30 6844 O 650.524 -0.916859 4.02079 0
M  V30 6845 H 649.865 0.0990981 0.656563 0
M  V30 6846 H 652.395 0.907958 1.8335 0
M  V30 6847 H 652.405 -0.0619981 4.07953 0
M  V30 6848 H 651.08 1.08849 4.01403 0
M  V30 6849 H 649.657 -0.708635 3.66105 0
M  V30 6850 N 651.842 -1.52309 0.404946 0
M  V30 6851 C 652.789 -2.26898 -0.422597 0
M  V30 6852 C 653.759 -1.2914 -1.04461 0
M  V30 6853 O 654.944 -1.57996 -1.06967 0
M  V30 6854 C 652.084 -3.09053 -1.53559 0
M  V30 6855 C 651.197 -4.21762 -0.934908 0
M  V30 6856 C 650.332 -4.91283 -2.02025 0
M  V30 6857 C 649.371 -5.95962 -1.39628 0
M  V30 6858 N 648.508 -6.59017 -2.42159 0
M  V30 6859 H 653.348 -2.97188 0.219903 0
M  V30 6860 H 650.885 -1.46607 0.120282 0
M  V30 6861 H 652.843 -3.54987 -2.19181 0
M  V30 6862 H 651.473 -2.40942 -2.14818 0
M  V30 6863 H 650.525 -3.80029 -0.167854 0
M  V30 6864 H 651.837 -4.96864 -0.439073 0
M  V30 6865 H 650.991 -5.40601 -2.75383 0
M  V30 6866 H 649.73 -4.15741 -2.54973 0
M  V30 6867 H 648.735 -5.45968 -0.648023 0
M  V30 6868 H 649.96 -6.73445 -0.874553 0
M  V30 6869 H 647.906 -5.86306 -2.94247 0
M  V30 6870 H 647.823 -7.2978 -1.97376 0
M  V30 6871 H 649.091 -7.12974 -3.15099 0
M  V30 6872 N 653.32 -0.135238 -1.57019 0
M  V30 6873 C 654.545 0.529343 -2.00531 0
M  V30 6874 C 654.97 1.58391 -1.01459 0
M  V30 6875 O 654.328 1.81296 0.0113986 0
M  V30 6876 C 654.376 1.11748 -3.42848 0
M  V30 6877 O 653.48 2.23267 -3.46736 0
M  V30 6878 H 652.821 0.130669 -0.651016 0
M  V30 6879 H 655.351 -0.228503 -2.0332 0
M  V30 6880 H 655.361 1.44905 -3.81401 0
M  V30 6881 H 654.036 0.345147 -4.14465 0
M  V30 6882 H 652.613 1.91428 -3.20015 0
M  V30 6883 N 654.798 1.5699 0.138552 0
M  V30 6884 C 655.745 1.98899 1.17081 0
M  V30 6885 C 656.715 0.857922 1.42228 0
M  V30 6886 O 657.9 1.12065 1.54422 0
M  V30 6887 C 655.04 2.38189 2.4972 0
M  V30 6888 C 654.153 3.64624 2.31674 0
M  V30 6889 C 653.288 3.9298 3.57407 0
M  V30 6890 C 652.327 5.1266 3.34435 0
M  V30 6891 N 651.464 5.36983 4.5232 0
M  V30 6892 H 656.304 2.86881 0.80642 0
M  V30 6893 H 653.841 1.41925 0.386727 0
M  V30 6894 H 655.799 2.59 3.2707 0
M  V30 6895 H 654.429 1.53275 2.84089 0
M  V30 6896 H 653.481 3.51542 1.45337 0
M  V30 6897 H 654.793 4.52131 2.10664 0
M  V30 6898 H 653.947 4.14335 4.43183 0
M  V30 6899 H 652.686 3.03912 3.8143 0
M  V30 6900 H 651.691 4.9117 2.47048 0
M  V30 6901 H 652.916 6.03288 3.11802 0
M  V30 6902 H 650.862 4.50871 4.76499 0
M  V30 6903 H 650.779 6.18775 4.34343 0
M  V30 6904 H 652.047 5.62842 5.39285 0
M  V30 6905 N 656.276 -0.40816 1.52223 0
M  V30 6906 C 657.553 -1.16807 1.56893 0
M  V30 6907 C 657.933 -2.08169 0.350537 0
M  V30 6908 O 657.281 -2.18684 -0.662536 0
M  V30 6909 C 657.491 -1.94451 2.8981 0
M  V30 6910 C 658.839 -2.50484 3.42845 0
M  V30 6911 O 659.863 -2.0463 2.91556 0
M  V30 6912 O 658.722 -3.34192 4.3241 0
M  V30 6913 H 655.816 -0.533382 0.632007 0
M  V30 6914 H 658.362 -0.414862 1.64551 0
M  V30 6915 H 657.134 -1.27527 3.69936 0
M  V30 6916 H 656.757 -2.76775 2.85449 0
M  V30 6917 N 657.755 -1.42862 -0.66545 0
M  V30 6918 C 658.702 -1.4707 -1.77874 0
M  V30 6919 C 659.672 -0.321654 -1.62956 0
M  V30 6920 O 660.857 -0.52707 -1.83376 0
M  V30 6921 C 657.997 -1.38788 -3.15962 0
M  V30 6922 C 657.11 -2.63801 -3.42101 0
M  V30 6923 C 656.245 -2.47594 -4.69969 0
M  V30 6924 C 655.284 -3.67936 -4.89172 0
M  V30 6925 N 654.421 -3.50614 -6.08288 0
M  V30 6926 H 659.261 -2.42204 -1.73613 0
M  V30 6927 H 656.798 -1.20239 -0.847401 0
M  V30 6928 H 658.756 -1.31982 -3.95773 0
M  V30 6929 H 657.386 -0.472431 -3.19324 0
M  V30 6930 H 656.438 -2.80935 -2.56475 0
M  V30 6931 H 657.75 -3.53228 -3.52181 0
M  V30 6932 H 656.904 -2.38427 -5.57886 0
M  V30 6933 H 655.643 -1.55672 -4.62188 0
M  V30 6934 H 654.648 -3.77525 -3.99694 0
M  V30 6935 H 655.873 -4.60851 -4.98792 0
M  V30 6936 H 653.819 -2.61417 -6.01662 0
M  V30 6937 H 653.736 -4.33634 -6.19272 0
M  V30 6938 H 655.004 -3.45276 -6.98859 0
M  V30 6939 N 659.233 0.902656 -1.29189 0
M  V30 6940 C 660.18 2.00643 -1.14066 0
M  V30 6941 C 661.15 1.66064 -0.0347756 0
M  V30 6942 O 662.335 1.8973 -0.201752 0
M  V30 6943 C 659.475 3.35214 -0.820104 0
M  V30 6944 C 658.588 3.82594 -2.00614 0
M  V30 6945 C 657.723 5.05727 -1.62522 0
M  V30 6946 C 656.762 5.45469 -2.77724 0
M  V30 6947 N 655.899 6.59789 -2.40048 0
M  V30 6948 H 660.739 2.1291 -2.08502 0
M  V30 6949 H 658.276 1.04271 -1.03759 0
M  V30 6950 H 660.234 4.12643 -0.614949 0
M  V30 6951 H 658.864 3.22682 0.0873452 0
M  V30 6952 H 657.916 3.01226 -2.32308 0
M  V30 6953 H 659.228 4.07999 -2.86946 0
M  V30 6954 H 658.382 5.90732 -1.38277 0
M  V30 6955 H 657.121 4.82155 -0.733333 0
M  V30 6956 H 656.126 4.59 -3.02653 0
M  V30 6957 H 657.351 5.71024 -3.67572 0
M  V30 6958 H 655.297 6.37826 -1.53343 0
M  V30 6959 H 655.214 6.84975 -3.19914 0
M  V30 6960 H 656.482 7.4807 -2.19116 0
M  V30 6961 N 660.711 1.11618 1.11262 0
M  V30 6962 C 661.936 0.889013 1.8738 0
M  V30 6963 C 662.361 -0.555884 1.79698 0
M  V30 6964 O 661.719 -1.39272 1.16073 0
M  V30 6965 C 661.767 1.35759 3.34069 0
M  V30 6966 O 660.871 0.530499 4.08974 0
M  V30 6967 H 660.212 0.320082 0.581759 0
M  V30 6968 H 662.742 1.48611 1.40627 0
M  V30 6969 H 662.752 1.35291 3.84916 0
M  V30 6970 H 661.427 2.40973 3.38976 0
M  V30 6971 H 660.004 0.601439 3.68018 0
M  V30 6972 N 662.189 -1.289 0.906776 0
M  V30 6973 C 663.6 -1.77336 0.58384 0
M  V30 6974 C 663.951 -1.74304 -0.900697 0
M  V30 6975 O 663.076 -1.33335 -1.70443 0
M  V30 6976 C 663.671 -3.22019 1.05304 0
M  V30 6977 C 662.23 -3.68205 0.781148 0
M  V30 6978 C 661.377 -2.48837 1.22373 0
M  V30 6979 H 664.328 -1.15462 1.08877 0
M  V30 6980 H 664.349 -3.78481 0.391414 0
M  V30 6981 H 663.861 -3.24194 2.13353 0
M  V30 6982 H 661.962 -3.71497 -0.28643 0
M  V30 6983 H 662.075 -4.58675 1.384 0
M  V30 6984 H 660.439 -2.46461 0.642594 0
M  V30 6985 H 661.222 -2.53736 2.31242 0
M  V30 6986 N 663.667 -0.670007 -1.42649 0
M  V30 6987 C 664.597 -0.00258501 -2.335 0
M  V30 6988 C 665.578 0.794364 -1.50412 0
M  V30 6989 O 666.763 0.75248 -1.79029 0
M  V30 6990 C 663.893 0.952748 -3.33976 0
M  V30 6991 C 662.847 0.264733 -4.2718 0
M  V30 6992 C 662.173 1.33267 -5.17826 0
M  V30 6993 C 663.473 -0.853289 -5.15283 0
M  V30 6994 H 665.167 -0.761326 -2.89559 0
M  V30 6995 H 662.713 -0.367561 -1.3923 0
M  V30 6996 H 664.666 1.4287 -3.96442 0
M  V30 6997 H 663.39 1.74285 -2.7621 0
M  V30 6998 H 662.049 -0.190938 -3.66102 0
M  V30 6999 H 661.697 2.11464 -4.5639 0
M  V30 7000 H 661.397 0.877476 -5.81011 0
M  V30 7001 H 662.921 1.80965 -5.83167 0
M  V30 7002 H 664.335 -0.458763 -5.71462 0
M  V30 7003 H 662.732 -1.23398 -5.87276 0
M  V30 7004 H 663.802 -1.70412 -4.53969 0
M  V30 7005 N 665.145 1.52092 -0.413018 0
M  V30 7006 C 666.095 2.23947 0.427993 0
M  V30 7007 C 667.079 1.25229 1.01027 0
M  V30 7008 O 668.271 1.50448 0.932444 0
M  V30 7009 C 665.4 3.0672 1.542 0
M  V30 7010 C 664.486 4.12851 0.970307 0
M  V30 7011 N 664.877 5.05644 0.125611 0
M  V30 7012 C 663.175 4.28404 1.24042 0
M  V30 7013 C 663.876 5.8138 -0.192876 0
M  V30 7014 N 662.852 5.41996 0.417273 0
M  V30 7015 H 666.654 2.93048 -0.223628 0
M  V30 7016 H 664.168 1.60852 -0.223664 0
M  V30 7017 H 666.165 3.56754 2.15714 0
M  V30 7018 H 664.825 2.39159 2.19621 0
M  V30 7019 H 665.836 5.17348 -0.238995 0
M  V30 7020 H 662.513 3.72071 1.89391 0
M  V30 7021 H 663.903 6.66129 -0.878762 0
M  V30 7022 N 666.623 0.143563 1.56945 0
M  V30 7023 C 667.87 -0.508407 1.96014 0
M  V30 7024 C 668.198 -1.65099 1.02824 0
M  V30 7025 O 667.453 -1.95618 0.0567764 0
M  V30 7026 C 667.752 -1.05885 3.41355 0
M  V30 7027 C 667.418 -0.0350809 4.50886 0
M  V30 7028 C 666.08 0.246362 4.80569 0
M  V30 7029 C 668.432 0.661282 5.16988 0
M  V30 7030 C 665.76 1.23003 5.73661 0
M  V30 7031 C 668.112 1.63375 6.11139 0
M  V30 7032 C 666.776 1.92292 6.39203 0
M  V30 7033 H 666.046 -0.186039 0.717266 0
M  V30 7034 H 668.693 0.229667 1.90118 0
M  V30 7035 H 666.998 -1.87419 3.44066 0
M  V30 7036 H 668.695 -1.57183 3.6891 0
M  V30 7037 H 665.285 -0.264622 4.27782 0
M  V30 7038 H 669.469 0.457038 4.94191 0
M  V30 7039 H 664.725 1.46056 5.93698 0
M  V30 7040 H 668.899 2.17887 6.61436 0
M  V30 7041 H 666.526 2.68666 7.11142 0
M  V30 7042 N 668.101 -1.57061 -0.130224 0
M  V30 7043 C 669.064 -1.98593 -1.14426 0
M  V30 7044 C 670.064 -0.874584 -1.34936 0
M  V30 7045 O 671.254 -1.14086 -1.31643 0
M  V30 7046 C 668.386 -2.31639 -2.50112 0
M  V30 7047 H 669.579 -2.89374 -0.787561 0
M  V30 7048 H 667.132 -1.51756 -0.374146 0
M  V30 7049 H 667.867 -1.43703 -2.90723 0
M  V30 7050 H 667.652 -3.12684 -2.36583 0
M  V30 7051 H 669.142 -2.64551 -3.23114 0
M  V30 7052 N 669.579 0.400081 -1.52437 0
M  V30 7053 C 670.542 1.4707 -1.75793 0
M  V30 7054 C 671.542 1.48036 -0.627856 0
M  V30 7055 O 672.732 1.49401 -0.895817 0
M  V30 7056 C 669.864 2.86427 -1.84858 0
M  V30 7057 H 671.057 1.27649 -2.71377 0
M  V30 7058 H 668.61 0.631141 -1.42991 0
M  V30 7059 H 669.345 3.11207 -0.912194 0
M  V30 7060 H 669.13 2.87128 -2.6702 0
M  V30 7061 H 670.62 3.64023 -2.04638 0
M  V30 7062 N 671.057 1.43213 0.657864 0
M  V30 7063 C 672.282 1.48227 1.45064 0
M  V30 7064 C 672.707 0.0999939 1.87834 0
M  V30 7065 O 672.065 -0.905269 1.57081 0
M  V30 7066 C 672.113 2.42931 2.6649 0
M  V30 7067 O 671.217 1.91237 3.6538 0
M  V30 7068 H 670.558 0.501551 0.435135 0
M  V30 7069 H 673.088 1.8808 0.805431 0
M  V30 7070 H 673.098 2.6008 3.1436 0
M  V30 7071 H 671.773 3.43348 2.34701 0
M  V30 7072 H 670.35 1.83726 3.24498 0
M  V30 7073 N 672.536 -0.895792 1.29666 0
M  V30 7074 C 673.766 -1.67757 1.20586 0
M  V30 7075 C 674.174 -1.87729 -0.235432 0
M  V30 7076 O 673.517 -1.41706 -1.16898 0
M  V30 7077 C 673.579 -3.08117 1.85215 0
M  V30 7078 C 673.243 -3.1136 3.3452 0
M  V30 7079 C 674.24 -2.91217 4.30684 0
M  V30 7080 C 671.925 -3.33302 3.75786 0
M  V30 7081 C 673.919 -2.92955 5.66089 0
M  V30 7082 C 671.606 -3.3467 5.11311 0
M  V30 7083 C 672.604 -3.14519 6.06273 0
M  V30 7084 O 672.292 -3.15684 7.39323 0
M  V30 7085 H 672.024 -0.530601 0.418854 0
M  V30 7086 H 674.578 -1.12831 1.71634 0
M  V30 7087 H 672.808 -3.64661 1.28683 0
M  V30 7088 H 674.497 -3.68399 1.70403 0
M  V30 7089 H 675.263 -2.74074 4.00136 0
M  V30 7090 H 671.142 -3.48025 3.02324 0
M  V30 7091 H 674.686 -2.77145 6.40185 0
M  V30 7092 H 670.583 -3.51346 5.41504 0
M  V30 7093 H 671.351 -3.31924 7.48177 0
M  V30 7094 N 674.014 -1.12206 -1.10668 0
M  V30 7095 C 675.262 -0.874144 -1.82217 0
M  V30 7096 C 675.583 0.601736 -1.85484 0
M  V30 7097 O 674.853 1.43725 -1.33116 0
M  V30 7098 H 673.433 -0.320404 -0.674797 0
M  V30 7099 H 676.095 -1.41606 -1.33917 0
M  V30 7100 H 675.191 -1.25349 -2.85822 0
M  V30 7101 N 675.492 1.28418 -0.913599 0
M  V30 7102 C 676.908 1.47411 -0.611728 0
M  V30 7103 C 677.108 1.83018 0.843008 0
M  V30 7104 O 676.164 1.93505 1.6221 0
M  V30 7105 C 677.477 2.57703 -1.5495 0
M  V30 7106 C 679.025 2.71572 -1.5562 0
M  V30 7107 C 679.5 3.85008 -2.48058 0
M  V30 7108 N 680.991 3.92361 -2.46184 0
M  V30 7109 C 681.726 4.79516 -3.14407 0
M  V30 7110 N 681.222 5.71262 -3.91958 0
M  V30 7111 N 683.015 4.73125 -3.03495 0
M  V30 7112 H 675.166 1.03585 -1.85429 0
M  V30 7113 H 677.429 0.515907 -0.795326 0
M  V30 7114 H 677.135 2.38298 -2.58663 0
M  V30 7115 H 677.009 3.54801 -1.28048 0
M  V30 7116 H 679.396 2.90366 -0.526441 0
M  V30 7117 H 679.477 1.75006 -1.86565 0
M  V30 7118 H 679.121 3.66969 -3.51136 0
M  V30 7119 H 679.051 4.80971 -2.14416 0
M  V30 7120 H 681.542 3.26749 -1.89851 0
M  V30 7121 H 681.855 6.34593 -4.41034 0
M  V30 7122 H 680.2 5.71103 -3.96063 0
M  V30 7123 H 683.391 4.00442 -2.42413 0
M  V30 7124 H 683.564 5.40834 -3.56935 0
M  V30 7125 N 676.97 0.677563 1.42291 0
M  V30 7126 C 678.219 0.198173 2.00724 0
M  V30 7127 C 678.532 -1.20325 1.54211 0
M  V30 7128 O 679.738 -1.77916 2.05081 0
M  V30 7129 C 678.194 0.303432 3.58619 0
M  V30 7130 C 677.802 1.70909 4.14119 0
M  V30 7131 C 679.546 -0.117103 4.24338 0
M  V30 7132 C 677.453 1.76696 5.64387 0
M  V30 7133 H 676.383 0.070329 0.750713 0
M  V30 7134 H 679.034 0.843147 1.62982 0
M  V30 7135 H 677.416 -0.409482 3.93877 0
M  V30 7136 H 678.59 2.44931 3.90315 0
M  V30 7137 H 676.905 2.07771 3.6086 0
M  V30 7138 H 679.502 -0.0940471 5.34617 0
M  V30 7139 H 679.845 -1.15283 4.00019 0
M  V30 7140 H 680.378 0.5449 3.9405 0
M  V30 7141 H 677.117 2.7826 5.93508 0
M  V30 7142 H 676.637 1.07034 5.90173 0
M  V30 7143 H 678.316 1.52166 6.28852 0
M  V30 7144 N 678.448 -1.51871 0.421078 0
M  V30 7145 C 679.396 -2.28903 -0.413066 0
M  V30 7146 C 680.39 -1.3408 -1.03532 0
M  V30 7147 O 681.596 -1.5149 -0.972146 0
M  V30 7148 H 677.971 -0.736478 -0.152003 0
M  V30 7149 H 679.942 -2.97285 0.257695 0
M  V30 7150 C 678.691 -3.13156 -1.51091 0
M  V30 7151 H 678.014 -3.85997 -1.04145 0
M  V30 7152 H 679.454 -3.7014 -2.06814 0
M  V30 7153 C 677.913 -2.27482 -2.48503 0
M  V30 7154 O 678.443 -1.92325 -3.52667 0
M  V30 7155 N 676.649 -1.91019 -2.18998 0
M  V30 7156 H 676.196 -2.19808 -1.34322 0
M  V30 7157 H 676.154 -1.3399 -2.84419 0
M  V30 7158 N 679.926 -0.151884 -1.56866 0
M  V30 7159 C 681.154 0.504813 -2.00647 0
M  V30 7160 C 681.569 1.58098 -1.03201 0
M  V30 7161 O 680.926 1.82476 -0.0297814 0
M  V30 7162 C 680.977 1.10099 -3.44326 0
M  V30 7163 O 680.698 0.0678021 -4.38048 0
M  V30 7164 C 682.199 1.83782 -4.03409 0
M  V30 7165 H 679.419 0.130989 -0.65809 0
M  V30 7166 H 681.963 -0.247903 -2.02992 0
M  V30 7167 H 680.118 1.8043 -3.42817 0
M  V30 7168 H 680.532 0.505237 -5.22061 0
M  V30 7169 H 682.006 2.2078 -5.05925 0
M  V30 7170 H 682.483 2.72557 -3.44397 0
M  V30 7171 H 683.089 1.18138 -4.08563 0
M  V30 7172 N 681.404 1.57128 0.121893 0
M  V30 7173 C 682.644 1.86517 0.836113 0
M  V30 7174 C 683.008 0.739497 1.77188 0
M  V30 7175 O 684.209 0.91508 2.52744 0
M  V30 7176 C 682.48 3.21129 1.56878 0
M  V30 7177 S 684.039 3.72143 2.32497 0
M  V30 7178 H 680.857 0.653923 0.279115 0
M  V30 7179 H 683.459 1.95271 0.0946254 0
M  V30 7180 H 682.163 4.01002 0.873255 0
M  V30 7181 H 681.694 3.15446 2.35069 0
M  V30 7182 H 683.709 3.43413 3.58164 0
M  V30 7183 N 682.882 -0.391992 1.52647 0
M  V30 7184 C 683.814 -1.49811 1.73463 0
M  V30 7185 C 684.827 -1.50734 0.615078 0
M  V30 7186 O 686.016 -1.5469 0.890696 0
M  V30 7187 C 683.116 -2.88667 1.77552 0
M  V30 7188 C 682.289 -3.11743 3.06815 0
M  V30 7189 C 681.348 -4.30564 3.02491 0
M  V30 7190 O 680.374 -4.27014 3.76361 0
M  V30 7191 N 681.576 -5.36593 2.21468 0
M  V30 7192 H 684.341 -1.32343 2.68897 0
M  V30 7193 H 681.902 -0.581475 1.51098 0
M  V30 7194 H 683.894 -3.66251 1.7217 0
M  V30 7195 H 682.464 -2.99508 0.895181 0
M  V30 7196 H 681.684 -2.2205 3.25711 0
M  V30 7197 H 682.972 -3.24013 3.92292 0
M  V30 7198 H 682.37 -5.42332 1.60913 0
M  V30 7199 H 680.927 -6.12855 2.21928 0
M  V30 7200 N 684.36 -1.4356 -0.65026 0
M  V30 7201 C 685.776 -1.27025 -0.966269 0
M  V30 7202 C 685.976 -0.192117 -2.00582 0
M  V30 7203 O 685.032 0.428459 -2.48838 0
M  V30 7204 C 686.345 -2.63556 -1.44772 0
M  V30 7205 C 687.893 -2.71111 -1.56421 0
M  V30 7206 C 688.368 -4.08067 -2.07956 0
M  V30 7207 N 689.859 -4.10146 -2.15254 0
M  V30 7208 C 690.594 -5.12952 -2.56258 0
M  V30 7209 N 690.09 -6.26129 -2.96537 0
M  V30 7210 N 691.883 -5.00306 -2.56224 0
M  V30 7211 H 684.034 -2.12367 0.0375758 0
M  V30 7212 H 686.297 -0.946894 -0.0457782 0
M  V30 7213 H 686.003 -3.43429 -0.758271 0
M  V30 7214 H 685.877 -2.89152 -2.42221 0
M  V30 7215 H 688.264 -1.91569 -2.24467 0
M  V30 7216 H 688.345 -2.49277 -0.573967 0
M  V30 7217 H 687.989 -4.88077 -1.40511 0
M  V30 7218 H 687.919 -4.27266 -3.07817 0
M  V30 7219 H 690.41 -3.28453 -1.86887 0
M  V30 7220 H 690.723 -7.00403 -3.26582 0
M  V30 7221 H 689.068 -6.29597 -2.94334 0
M  V30 7222 H 692.259 -4.10952 -2.24135 0
M  V30 7223 H 692.432 -5.80553 -2.87857 0
M  V30 7224 N 685.838 0.888903 -1.30139 0
M  V30 7225 C 686.768 2.01046 -1.18755 0
M  V30 7226 C 687.749 1.69916 -0.0791438 0
M  V30 7227 O 688.934 1.92445 -0.260498 0
M  V30 7228 C 686.064 3.36109 -0.874518 0
M  V30 7229 C 685.018 3.81486 -1.94043 0
M  V30 7230 C 684.344 5.13796 -1.48047 0
M  V30 7231 C 685.644 4.00637 -3.35093 0
M  V30 7232 H 687.338 2.10828 -2.12584 0
M  V30 7233 H 684.884 1.01298 -1.02346 0
M  V30 7234 H 686.837 4.14089 -0.781548 0
M  V30 7235 H 685.561 3.26449 0.0994519 0
M  V30 7236 H 684.22 3.05731 -2.02297 0
M  V30 7237 H 683.868 5.0056 -0.494878 0
M  V30 7238 H 683.568 5.45127 -2.19341 0
M  V30 7239 H 685.092 5.94305 -1.40121 0
M  V30 7240 H 686.506 4.69067 -3.2962 0
M  V30 7241 H 684.903 4.43339 -4.04438 0
M  V30 7242 H 685.973 3.0462 -3.77273 0
M  V30 7243 N 687.317 1.12792 1.10072 0
M  V30 7244 C 688.247 0.821688 2.18565 0
M  V30 7245 C 689.228 -0.21612 1.68721 0
M  V30 7246 O 690.413 -0.0764932 1.94049 0
M  V30 7247 C 687.543 0.279624 3.46172 0
M  V30 7248 C 686.497 1.25092 4.09312 0
M  V30 7249 C 685.823 0.568916 5.31665 0
M  V30 7250 C 687.123 2.60699 4.52585 0
M  V30 7251 H 688.817 1.72888 2.44438 0
M  V30 7252 H 686.363 0.832702 1.17482 0
M  V30 7253 H 688.316 0.053099 4.21367 0
M  V30 7254 H 687.04 -0.662929 3.19801 0
M  V30 7255 H 685.699 1.46332 3.36129 0
M  V30 7256 H 685.347 -0.378898 5.01571 0
M  V30 7257 H 685.047 1.21687 5.74862 0
M  V30 7258 H 686.571 0.351517 6.09587 0
M  V30 7259 H 687.985 2.43465 5.19035 0
M  V30 7260 H 686.382 3.21608 5.06644 0
M  V30 7261 H 687.452 3.1886 3.65317 0
M  V30 7262 N 688.795 -1.27931 0.920396 0
M  V30 7263 C 689.727 -2.26175 0.371169 0
M  V30 7264 C 690.74 -1.55122 -0.494065 0
M  V30 7265 O 691.929 -1.75825 -0.30787 0
M  V30 7266 C 689.029 -3.35376 -0.487481 0
M  V30 7267 C 688.202 -4.35943 0.356772 0
M  V30 7268 C 687.261 -5.24374 -0.438042 0
M  V30 7269 O 686.287 -5.68998 0.151715 0
M  V30 7270 N 687.489 -5.53823 -1.73956 0
M  V30 7271 H 690.254 -2.73938 1.21564 0
M  V30 7272 H 687.815 -1.41482 0.787047 0
M  V30 7273 H 689.807 -3.91476 -1.02609 0
M  V30 7274 H 688.377 -2.87269 -1.23269 0
M  V30 7275 H 687.597 -3.7921 1.07672 0
M  V30 7276 H 688.885 -5.0015 0.934206 0
M  V30 7277 H 688.283 -5.19413 -2.24114 0
M  V30 7278 H 686.84 -6.12653 -2.22486 0
M  V30 7279 N 690.273 -0.685099 -1.4193 0
M  V30 7280 C 691.55 -0.140152 -1.95097 0
M  V30 7281 C 691.93 1.34745 -1.62502 0
M  V30 7282 O 691.278 2.08872 -0.926534 0
M  V30 7283 C 691.488 -0.420268 -3.4646 0
M  V30 7284 C 692.836 -0.342338 -4.23218 0
M  V30 7285 O 693.86 -0.354592 -3.54431 0
M  V30 7286 O 692.719 -0.293404 -5.45712 0
M  V30 7287 H 689.813 -0.00885998 -0.826953 0
M  V30 7288 H 692.359 -0.760539 -1.51703 0
M  V30 7289 H 691.131 -1.45037 -3.63428 0
M  V30 7290 H 690.754 0.231616 -3.96925 0
M  V30 7291 N 691.751 1.51645 -0.429126 0
M  V30 7292 C 693 2.01203 0.141538 0
M  V30 7293 C 693.313 1.31828 1.44502 0
M  V30 7294 O 694.519 1.7231 2.09813 0
M  V30 7295 C 692.975 3.58624 0.302786 0
M  V30 7296 C 692.583 4.3693 -0.989775 0
M  V30 7297 C 694.327 4.16353 0.827661 0
M  V30 7298 C 692.234 5.86037 -0.794619 0
M  V30 7299 H 691.164 0.751867 0.05667 0
M  V30 7300 H 693.815 1.74822 -0.557633 0
M  V30 7301 H 692.197 3.81417 1.06476 0
M  V30 7302 H 693.371 4.25887 -1.75945 0
M  V30 7303 H 691.686 3.90614 -1.44256 0
M  V30 7304 H 694.283 5.25455 0.990026 0
M  V30 7305 H 694.626 3.74995 1.80787 0
M  V30 7306 H 695.159 3.97606 0.124213 0
M  V30 7307 H 691.898 6.31792 -1.74697 0
M  V30 7308 H 691.418 5.99765 -0.0645968 0
M  V30 7309 H 693.097 6.45471 -0.444591 0
M  V30 7310 N 693.229 0.160201 1.56784 0
M  V30 7311 C 694.454 -0.497373 2.01348 0
M  V30 7312 C 694.879 -1.56757 1.03966 0
M  V30 7313 O 694.237 -1.81292 0.0174455 0
M  V30 7314 C 694.285 -1.0628 3.44582 0
M  V30 7315 O 693.389 -2.17723 3.50244 0
M  V30 7316 H 692.73 -0.120295 0.653012 0
M  V30 7317 H 695.26 0.260821 2.02931 0
M  V30 7318 H 695.27 -1.38819 3.83658 0
M  V30 7319 H 693.945 -0.279166 4.14962 0
M  V30 7320 H 692.522 -1.86313 3.2302 0
M  V30 7321 N 694.707 -1.5719 -0.113559 0
M  V30 7322 C 695.984 -1.76117 -0.850999 0
M  V30 7323 C 696.364 -0.737085 -1.97814 0
M  V30 7324 O 695.712 0.237942 -2.27258 0
M  V30 7325 C 695.922 -3.21298 -1.36266 0
M  V30 7326 C 697.27 -3.83955 -1.81283 0
M  V30 7327 O 698.294 -3.24934 -1.45933 0
M  V30 7328 O 697.153 -4.87707 -2.46585 0
M  V30 7329 H 694.247 -0.721308 -0.404529 0
M  V30 7330 H 696.793 -1.69423 -0.0968756 0
M  V30 7331 H 695.565 -3.87355 -0.554235 0
M  V30 7332 H 695.188 -3.32552 -2.17933 0
M  V30 7333 N 696.185 0.383891 -1.52853 0
M  V30 7334 C 697.413 1.1495 -1.7203 0
M  V30 7335 C 697.828 1.83578 -0.440957 0
M  V30 7336 O 697.185 1.72872 0.584925 0
M  V30 7337 C 697.236 2.19368 -2.87333 0
M  V30 7338 O 696.957 1.53536 -4.10315 0
M  V30 7339 C 698.458 3.08616 -3.18231 0
M  V30 7340 H 695.678 0.344445 -0.575846 0
M  V30 7341 H 698.222 0.448397 -1.99524 0
M  V30 7342 H 696.377 2.85105 -2.62286 0
M  V30 7343 H 696.791 2.2296 -4.74752 0
M  V30 7344 H 698.265 3.77902 -4.02361 0
M  V30 7345 H 698.742 3.72409 -2.32826 0
M  V30 7346 H 699.348 2.48518 -3.45136 0
M  V30 7347 N 697.663 1.43903 0.642637 0
M  V30 7348 C 699.079 1.27536 0.959519 0
M  V30 7349 C 699.279 0.202751 2.00477 0
M  V30 7350 O 698.335 -0.415256 2.49062 0
M  V30 7351 C 699.648 2.6432 1.43372 0
M  V30 7352 C 701.196 2.71937 1.54981 0
M  V30 7353 C 701.671 4.09164 2.05789 0
M  V30 7354 N 703.162 4.11282 2.13076 0
M  V30 7355 C 703.897 5.14303 2.53534 0
M  V30 7356 N 703.393 6.27693 2.93212 0
M  V30 7357 N 705.186 5.01657 2.53567 0
M  V30 7358 H 697.337 2.12344 -0.0488376 0
M  V30 7359 H 699.6 0.947124 0.0407559 0
M  V30 7360 H 699.306 3.43826 0.740048 0
M  V30 7361 H 699.18 2.90432 2.40685 0
M  V30 7362 H 701.567 1.92757 2.23448 0
M  V30 7363 H 701.648 2.49578 0.560739 0
M  V30 7364 H 701.292 4.88815 1.37921 0
M  V30 7365 H 701.222 4.28893 3.05546 0
M  V30 7366 H 703.713 3.2944 1.85143 0
M  V30 7367 H 704.026 7.02125 3.22863 0
M  V30 7368 H 702.371 6.31149 2.90991 0
M  V30 7369 H 705.562 4.12134 2.21952 0
M  V30 7370 H 705.735 5.82072 2.84774 0
M  V30 7371 N 699.141 -0.881989 1.30609 0
M  V30 7372 C 700.071 -2.00413 1.1982 0
M  V30 7373 C 701.052 -1.69871 0.0881538 0
M  V30 7374 O 702.237 -1.92304 0.2707 0
M  V30 7375 C 699.367 -3.35641 0.89233 0
M  V30 7376 C 698.321 -3.80451 1.96064 0
M  V30 7377 C 697.647 -5.13003 1.5077 0
M  V30 7378 C 698.947 -3.98855 3.37213 0
M  V30 7379 H 700.641 -2.09698 2.13699 0
M  V30 7380 H 698.187 -1.00754 1.02882 0
M  V30 7381 H 700.14 -4.13669 0.803497 0
M  V30 7382 H 698.864 -3.26497 -0.0821381 0
M  V30 7383 H 697.523 -3.04654 2.03916 0
M  V30 7384 H 697.171 -5.0029 0.521417 0
M  V30 7385 H 696.871 -5.43956 2.22229 0
M  V30 7386 H 698.395 -5.93554 1.43271 0
M  V30 7387 H 699.809 -4.67312 3.32103 0
M  V30 7388 H 698.206 -4.41188 4.06784 0
M  V30 7389 H 699.276 -3.02614 3.78883 0
M  V30 7390 N 700.619 -1.13374 -1.09472 0
M  V30 7391 C 701.549 -0.833268 -2.18126 0
M  V30 7392 C 702.53 0.207169 -1.68834 0
M  V30 7393 O 703.715 0.0662012 -1.94087 0
M  V30 7394 C 700.845 -0.297979 -3.46019 0
M  V30 7395 C 699.799 -1.27261 -4.08642 0
M  V30 7396 C 699.125 -0.597104 -5.31356 0
M  V30 7397 C 700.425 -2.63095 -4.51197 0
M  V30 7398 H 702.119 -1.74182 -2.43518 0
M  V30 7399 H 699.665 -0.838921 -1.17039 0
M  V30 7400 H 701.618 -0.0754444 -4.21332 0
M  V30 7401 H 700.342 0.645959 -3.20148 0
M  V30 7402 H 699.001 -1.48113 -3.35348 0
M  V30 7403 H 698.649 0.352293 -5.01765 0
M  V30 7404 H 698.349 -1.24734 -5.74208 0
M  V30 7405 H 699.873 -0.38384 -6.09392 0
M  V30 7406 H 701.287 -2.46214 -5.17737 0
M  V30 7407 H 699.684 -3.2429 -5.04932 0
M  V30 7408 H 700.754 -3.20793 -3.6362 0
M  V30 7409 N 702.098 1.27442 -0.927168 0
M  V30 7410 C 703.046 2.28844 -0.416333 0
M  V30 7411 C 704.04 1.61882 0.499057 0
M  V30 7412 O 705.246 1.75969 0.378817 0
M  V30 7413 H 701.621 0.742989 -0.116065 0
M  V30 7414 H 703.592 2.69344 -1.28438 0
M  V30 7415 C 702.341 3.4626 0.316107 0
M  V30 7416 H 701.664 3.97999 -0.379082 0
M  V30 7417 H 703.104 4.19173 0.637975 0
M  V30 7418 C 701.563 3.00211 1.5289 0
M  V30 7419 O 702.093 3.03837 2.62766 0
M  V30 7420 N 700.299 2.55713 1.38054 0
M  V30 7421 H 699.846 2.52962 0.4866 0
M  V30 7422 H 699.804 2.25264 2.19325 0
M  V30 7423 N 703.576 0.692616 1.41565 0
M  V30 7424 C 704.486 0.0258451 2.34586 0
M  V30 7425 C 705.502 -0.769324 1.56069 0
M  V30 7426 O 706.678 -0.707563 1.88562 0
M  V30 7427 C 703.743 -0.901289 3.3478 0
M  V30 7428 C 702.804 -0.0986579 4.29187 0
M  V30 7429 C 702.037 -0.981634 5.24595 0
M  V30 7430 O 702.26 -2.22115 5.25377 0
M  V30 7431 O 701.194 -0.432892 6.00341 0
M  V30 7432 H 705.02 0.792537 2.93177 0
M  V30 7433 H 702.605 0.452935 1.42369 0
M  V30 7434 H 704.487 -1.43302 3.96286 0
M  V30 7435 H 703.162 -1.64752 2.78637 0
M  V30 7436 H 702.069 0.477604 3.71039 0
M  V30 7437 H 703.402 0.608848 4.8842 0
M  V30 7438 N 705.054 -1.51416 0.437162 0
M  V30 7439 C 706.302 -2.01687 -0.129108 0
M  V30 7440 C 706.623 -1.32329 -1.43227 0
M  V30 7441 O 705.893 -0.457796 -1.90476 0
M  V30 7442 H 704.473 -0.745277 -0.0507023 0
M  V30 7443 H 707.135 -1.86075 0.579828 0
M  V30 7444 H 706.231 -3.10605 -0.305141 0
M  V30 7445 N 706.532 -0.168513 -1.56696 0
M  V30 7446 C 707.809 0.523367 -1.88468 0
M  V30 7447 C 708.189 1.81503 -1.07796 0
M  V30 7448 O 707.537 2.27859 -0.171045 0
M  V30 7449 C 707.747 0.767991 -3.40445 0
M  V30 7450 C 709.095 1.09924 -4.10124 0
M  V30 7451 O 710.119 0.856625 -3.45746 0
M  V30 7452 O 708.978 1.55681 -5.23856 0
M  V30 7453 H 706.072 0.269447 -0.781874 0
M  V30 7454 H 708.618 -0.206739 -1.68436 0
M  V30 7455 H 707.39 -0.145254 -3.9103 0
M  V30 7456 H 707.013 1.55151 -3.66079 0
M  V30 7457 N 708.01 1.57248 0.105221 0
M  V30 7458 C 708.94 2.04374 1.12931 0
M  V30 7459 C 709.921 0.93074 1.42377 0
M  V30 7460 O 711.106 1.20136 1.52581 0
M  V30 7461 C 708.236 2.45967 2.45189 0
M  V30 7462 C 707.19 3.60838 2.30174 0
M  V30 7463 C 706.516 3.88374 3.67518 0
M  V30 7464 C 707.816 4.92084 1.75073 0
M  V30 7465 H 709.51 2.9018 0.737287 0
M  V30 7466 H 707.056 1.39601 0.353211 0
M  V30 7467 H 709.009 2.77542 3.17094 0
M  V30 7468 H 707.733 1.57148 2.86308 0
M  V30 7469 H 706.392 3.29493 1.60716 0
M  V30 7470 H 706.04 2.96739 4.06147 0
M  V30 7471 H 705.74 4.65703 3.58321 0
M  V30 7472 H 707.264 4.22415 4.40906 0
M  V30 7473 H 708.678 5.22106 2.36809 0
M  V30 7474 H 707.075 5.73507 1.76662 0
M  V30 7475 H 708.145 4.79684 0.709347 0
M  V30 7476 N 709.488 -0.375779 1.53054 0
M  V30 7477 C 710.438 -1.45965 1.75152 0
M  V30 7478 C 711.422 -1.49059 0.605823 0
M  V30 7479 O 712.614 -1.54472 0.864133 0
M  V30 7480 C 709.743 -2.83524 1.93569 0
M  V30 7481 C 708.829 -2.84949 3.1411 0
M  V30 7482 N 709.22 -2.56029 4.36214 0
M  V30 7483 C 707.518 -3.16113 3.14625 0
M  V30 7484 C 708.219 -2.64873 5.17897 0
M  V30 7485 N 707.195 -2.99159 4.53878 0
M  V30 7486 H 710.997 -1.22454 2.67175 0
M  V30 7487 H 708.511 -0.583867 1.51541 0
M  V30 7488 H 710.508 -3.61578 2.07525 0
M  V30 7489 H 709.168 -3.08008 1.02768 0
M  V30 7490 H 710.179 -2.29808 4.64121 0
M  V30 7491 H 706.856 -3.45977 2.3368 0
M  V30 7492 H 708.246 -2.45947 6.25268 0
M  V30 7493 N 710.966 -1.44241 -0.634997 0
M  V30 7494 C 712.214 -1.46531 -1.39187 0
M  V30 7495 C 712.535 -0.0976441 -1.94755 0
M  V30 7496 O 711.805 0.869528 -1.75545 0
M  V30 7497 H 710.385 -0.539544 -0.516625 0
M  V30 7498 H 713.047 -1.79989 -0.747655 0
M  V30 7499 H 712.143 -2.18848 -2.22513 0
M  V30 7500 N 712.444 0.87505 -1.31075 0
M  V30 7501 C 713.377 1.98471 -1.12625 0
M  V30 7502 C 714.355 1.6257 -0.0311379 0
M  V30 7503 O 715.539 1.87574 -0.186594 0
M  V30 7504 C 712.666 3.30963 -0.719799 0
M  V30 7505 C 711.712 3.85849 -1.81722 0
M  V30 7506 S 712.545 4.11926 -3.42165 0
M  V30 7507 C 713.701 5.47423 -3.03445 0
M  V30 7508 H 713.934 2.13817 -2.06566 0
M  V30 7509 H 711.467 1.02463 -1.15502 0
M  V30 7510 H 713.425 4.07541 -0.492035 0
M  V30 7511 H 712.086 3.1346 0.200413 0
M  V30 7512 H 711.279 4.81616 -1.48533 0
M  V30 7513 H 710.881 3.16046 -1.99977 0
M  V30 7514 H 713.173 6.28881 -2.52023 0
M  V30 7515 H 714.116 5.85557 -3.98157 0
M  V30 7516 H 714.524 5.10455 -2.41031 0
M  V30 7517 N 713.922 1.13953 1.08869 0
M  V30 7518 C 715.15 0.92817 1.84912 0
M  V30 7519 C 715.565 -0.523197 1.81406 0
M  V30 7520 O 714.922 -1.36237 1.21432 0
M  V30 7521 C 714.973 1.41509 3.32652 0
M  V30 7522 O 714.694 2.80959 3.36145 0
M  V30 7523 C 716.195 1.243 4.25517 0
M  V30 7524 H 713.415 0.330612 0.583898 0
M  V30 7525 H 715.959 1.51349 1.37527 0
M  V30 7526 H 714.114 0.872648 3.77444 0
M  V30 7527 H 714.528 3.02704 4.28335 0
M  V30 7528 H 716.002 1.63237 5.27312 0
M  V30 7529 H 716.479 0.18532 4.38809 0
M  V30 7530 H 717.085 1.77375 3.86546 0
M  V30 7531 N 715.4 -1.26948 0.933913 0
M  V30 7532 C 716.811 -1.76058 0.621324 0
M  V30 7533 C 717.162 -1.76175 -0.863522 0
M  V30 7534 O 716.287 -1.36921 -1.67576 0
M  V30 7535 C 716.882 -3.19713 1.12111 0
M  V30 7536 C 715.441 -3.66465 0.859074 0
M  V30 7537 C 714.588 -2.46186 1.27624 0
M  V30 7538 H 717.539 -1.13127 1.11301 0
M  V30 7539 H 717.56 -3.77566 0.471608 0
M  V30 7540 H 717.072 -3.19596 2.20182 0
M  V30 7541 H 715.173 -3.72021 -0.207566 0
M  V30 7542 H 715.286 -4.55636 1.48098 0
M  V30 7543 H 713.65 -2.45042 0.694727 0
M  V30 7544 H 714.433 -2.48774 2.36572 0
M  V30 7545 N 716.879 -0.700114 -1.41195 0
M  V30 7546 C 717.809 -0.0521132 -2.33442 0
M  V30 7547 C 718.79 0.76228 -1.52063 0
M  V30 7548 O 719.975 0.714336 -1.80585 0
M  V30 7549 C 717.105 0.881693 -3.35922 0
M  V30 7550 C 716.059 0.174062 -4.27646 0
M  V30 7551 C 715.385 1.22254 -5.20536 0
M  V30 7552 C 716.685 -0.962396 -5.13357 0
M  V30 7553 H 718.379 -0.822574 -2.87879 0
M  V30 7554 H 715.925 -0.397011 -1.38419 0
M  V30 7555 H 717.878 1.34429 -3.99383 0
M  V30 7556 H 716.602 1.68387 -2.79845 0
M  V30 7557 H 715.261 -0.268551 -3.65615 0
M  V30 7558 H 714.909 2.01736 -4.60773 0
M  V30 7559 H 714.609 0.754038 -5.82742 0
M  V30 7560 H 716.133 1.68555 -5.86874 0
M  V30 7561 H 717.547 -0.579875 -5.7036 0
M  V30 7562 H 715.944 -1.35828 -5.84526 0
M  V30 7563 H 717.014 -1.80003 -4.50252 0
M  V30 7564 N 718.357 1.51182 -0.445186 0
M  V30 7565 C 719.307 2.24804 0.380394 0
M  V30 7566 C 720.291 1.27344 0.983482 0
M  V30 7567 O 721.483 1.52392 0.900322 0
M  V30 7568 C 718.612 3.09922 1.4766 0
M  V30 7569 C 717.698 4.14816 0.882517 0
M  V30 7570 N 718.089 5.05797 0.0183278 0
M  V30 7571 C 716.387 4.30938 1.14927 0
M  V30 7572 C 717.088 5.8084 -0.316152 0
M  V30 7573 N 716.064 5.42759 0.302214 0
M  V30 7574 H 719.866 2.92508 -0.285737 0
M  V30 7575 H 717.38 1.60342 -0.257733 0
M  V30 7576 H 719.377 3.61249 2.08098 0
M  V30 7577 H 718.037 2.43763 2.14498 0
M  V30 7578 H 719.048 5.16725 -0.348679 0
M  V30 7579 H 715.725 3.76005 1.81457 0
M  V30 7580 H 717.115 6.64115 -1.01986 0
M  V30 7581 N 719.835 0.176821 1.56605 0
M  V30 7582 C 720.765 -0.746841 2.21234 0
M  V30 7583 C 721.746 -1.23502 1.16967 0
M  V30 7584 O 722.931 -1.28718 1.45414 0
M  V30 7585 C 720.061 -1.97407 2.8574 0
M  V30 7586 C 719.015 -1.62153 3.96094 0
M  V30 7587 C 718.341 -2.92387 4.47676 0
M  V30 7588 C 719.641 -0.845353 5.15413 0
M  V30 7589 H 721.335 -0.208116 2.98676 0
M  V30 7590 H 718.881 -0.0986594 1.43662 0
M  V30 7591 H 720.834 -2.62531 3.2963 0
M  V30 7592 H 719.558 -2.53703 2.05676 0
M  V30 7593 H 718.217 -0.993964 3.52868 0
M  V30 7594 H 717.865 -3.46734 3.64396 0
M  V30 7595 H 717.565 -2.69551 5.22127 0
M  V30 7596 H 719.089 -3.5853 4.94255 0
M  V30 7597 H 720.503 -1.39929 5.55961 0
M  V30 7598 H 718.9 -0.715814 5.95815 0
M  V30 7599 H 719.97 0.157239 4.84645 0
M  V30 7600 N 721.313 -1.57302 -0.09688 0
M  V30 7601 C 722.276 -2.00976 -1.10188 0
M  V30 7602 C 723.276 -0.903009 -1.3305 0
M  V30 7603 O 724.466 -1.16853 -1.29194 0
M  V30 7604 C 721.598 -2.36893 -2.45142 0
M  V30 7605 H 722.791 -2.9098 -0.726003 0
M  V30 7606 H 720.344 -1.52515 -0.341872 0
M  V30 7607 H 721.079 -1.49837 -2.8761 0
M  V30 7608 H 720.864 -3.17632 -2.29897 0
M  V30 7609 H 722.354 -2.71345 -3.1743 0
M  V30 7610 N 722.791 0.367657 -1.53252 0
M  V30 7611 C 723.754 1.43308 -1.78873 0
M  V30 7612 C 724.754 1.46671 -0.659115 0
M  V30 7613 O 725.944 1.47468 -0.927306 0
M  V30 7614 C 723.076 2.82442 -1.90892 0
M  V30 7615 H 724.269 1.21864 -2.74024 0
M  V30 7616 H 721.822 0.600668 -1.44297 0
M  V30 7617 H 722.557 3.09202 -0.978 0
M  V30 7618 H 722.342 2.81399 -2.73051 0
M  V30 7619 H 723.832 3.59601 -2.12314 0
M  V30 7620 N 724.269 1.44576 0.627338 0
M  V30 7621 C 725.216 1.51734 1.73912 0
M  V30 7622 C 726.186 0.364745 1.62046 0
M  V30 7623 O 727.371 0.575503 1.81914 0
M  V30 7624 C 724.511 1.47116 3.12171 0
M  V30 7625 C 723.624 2.72778 3.34986 0
M  V30 7626 C 722.759 2.59968 4.63239 0
M  V30 7627 C 721.798 3.80776 4.79245 0
M  V30 7628 N 720.935 3.66618 5.98778 0
M  V30 7629 H 725.775 2.46722 1.6713 0
M  V30 7630 H 723.312 1.22444 0.815224 0
M  V30 7631 H 725.27 1.42429 3.92135 0
M  V30 7632 H 723.9 0.556928 3.17959 0
M  V30 7633 H 722.952 2.87637 2.48936 0
M  V30 7634 H 724.264 3.62441 3.42692 0
M  V30 7635 H 723.418 2.53135 5.51369 0
M  V30 7636 H 722.157 1.67872 4.57898 0
M  V30 7637 H 721.162 3.87989 3.89544 0
M  V30 7638 H 722.387 4.73913 4.86398 0
M  V30 7639 H 720.333 2.77277 5.9452 0
M  V30 7640 H 720.25 4.499 6.07557 0
M  V30 7641 H 721.518 3.63684 6.89459 0
M  V30 7642 N 725.747 -0.868086 1.31537 0
M  V30 7643 C 726.695 -1.99688 1.1928 0
M  V30 7644 C 727.689 -1.69101 0.100656 0
M  V30 7645 O 728.895 -1.78073 0.262677 0
M  V30 7646 H 725.27 -0.655032 0.369374 0
M  V30 7647 H 727.241 -2.07157 2.14776 0
M  V30 7648 C 725.99 -3.35338 0.918892 0
M  V30 7649 H 725.313 -3.59396 1.75142 0
M  V30 7650 H 726.753 -4.14909 0.873311 0
M  V30 7651 C 725.212 -3.34769 -0.378366 0
M  V30 7652 O 725.742 -3.76716 -1.39456 0
M  V30 7653 N 723.948 -2.87895 -0.39557 0
M  V30 7654 H 723.495 -2.53954 0.431889 0
M  V30 7655 H 723.453 -2.87897 -1.26344 0
M  V30 7656 N 727.225 -1.14528 -1.08264 0
M  V30 7657 C 728.473 -0.912599 -1.80322 0
M  V30 7658 C 728.794 0.562256 -1.86718 0
M  V30 7659 O 728.064 1.40869 -1.36135 0
M  V30 7660 H 726.644 -0.334645 -0.667849 0
M  V30 7661 H 729.306 -1.44415 -1.30883 0
M  V30 7662 H 728.402 -1.31384 -2.83098 0
M  V30 7663 N 728.703 1.26451 -0.940633 0
M  V30 7664 C 729.653 2.24086 -0.420669 0
M  V30 7665 C 730.637 1.53501 0.482301 0
M  V30 7666 O 731.829 1.74127 0.317636 0
M  V30 7667 C 728.958 3.41866 0.313452 0
M  V30 7668 C 728.044 4.19737 -0.606779 0
M  V30 7669 N 728.435 4.7521 -1.73232 0
M  V30 7670 C 726.733 4.44091 -0.41226 0
M  V30 7671 C 727.434 5.34052 -2.30572 0
M  V30 7672 N 726.41 5.1971 -1.59381 0
M  V30 7673 H 730.212 2.64569 -1.27986 0
M  V30 7674 H 727.726 1.4153 -0.796436 0
M  V30 7675 H 729.723 4.1093 0.702991 0
M  V30 7676 H 728.383 3.0291 1.16942 0
M  V30 7677 H 729.394 4.72769 -2.11447 0
M  V30 7678 H 726.071 4.1556 0.401984 0
M  V30 7679 H 727.461 5.87845 -3.25404 0
M  V30 7680 N 730.181 0.707592 1.40822 0
M  V30 7681 C 731.458 0.171172 1.9485 0
M  V30 7682 C 731.838 -1.32143 1.64625 0
M  V30 7683 O 731.186 -2.07372 0.959647 0
M  V30 7684 C 731.396 0.475334 3.45748 0
M  V30 7685 C 732.744 0.409625 4.22619 0
M  V30 7686 O 733.768 0.410934 3.53822 0
M  V30 7687 O 732.627 0.380185 5.45176 0
M  V30 7688 H 729.721 0.022015 0.826707 0
M  V30 7689 H 732.267 0.784577 1.50474 0
M  V30 7690 H 731.039 1.50801 3.61075 0
M  V30 7691 H 730.662 -0.168439 3.97243 0
M  V30 7692 N 731.66 -1.50943 0.453197 0
M  V30 7693 C 732.607 -2.28128 -0.350197 0
M  V30 7694 C 733.577 -1.32398 -1.00299 0
M  V30 7695 O 734.762 -1.61319 -1.01887 0
M  V30 7696 C 731.902 -3.13782 -1.43649 0
M  V30 7697 C 731.015 -4.24523 -0.800255 0
M  V30 7698 C 730.15 -4.97462 -1.86293 0
M  V30 7699 C 729.189 -6.00102 -1.20598 0
M  V30 7700 N 728.326 -6.66387 -2.21071 0
M  V30 7701 H 733.166 -2.96337 0.31434 0
M  V30 7702 H 730.703 -1.46151 0.166863 0
M  V30 7703 H 732.661 -3.6178 -2.07776 0
M  V30 7704 H 731.291 -2.47655 -2.07044 0
M  V30 7705 H 730.343 -3.80371 -0.0468651 0
M  V30 7706 H 731.655 -4.98009 -0.280777 0
M  V30 7707 H 730.809 -5.49088 -2.58044 0
M  V30 7708 H 729.548 -4.23642 -2.41617 0
M  V30 7709 H 728.553 -5.47753 -0.474 0
M  V30 7710 H 729.778 -6.75887 -0.659859 0
M  V30 7711 H 727.724 -5.9537 -2.75446 0
M  V30 7712 H 727.641 -7.3569 -1.74058 0
M  V30 7713 H 728.909 -7.22638 -2.92257 0
M  V30 7714 N 733.138 -0.185124 -1.56509 0
M  V30 7715 C 734.384 0.456934 -1.97585 0
M  V30 7716 C 734.717 1.61957 -1.07161 0
M  V30 7717 O 733.992 1.9412 -0.121546 0
M  V30 7718 C 734.275 0.926666 -3.47973 0
M  V30 7719 C 734.128 -0.237097 -4.49175 0
M  V30 7720 C 735.447 1.79561 -4.01803 0
M  V30 7721 H 732.566 0.164619 -0.71838 0
M  V30 7722 H 735.208 -0.274039 -1.88013 0
M  V30 7723 H 733.358 1.54954 -3.56261 0
M  V30 7724 H 735.03 -0.87454 -4.52934 0
M  V30 7725 H 733.273 -0.890446 -4.24563 0
M  V30 7726 H 733.944 0.133924 -5.51838 0
M  V30 7727 H 736.42 1.27039 -3.96232 0
M  V30 7728 H 735.296 2.09327 -5.07418 0
M  V30 7729 H 735.557 2.74629 -3.46455 0
M  V30 7730 N 734.616 1.57351 0.0885366 0
M  V30 7731 C 735.862 1.86696 0.791996 0
M  V30 7732 C 736.195 0.775148 1.78059 0
M  V30 7733 O 735.47 -0.216247 1.93294 0
M  V30 7734 C 735.753 3.26684 1.51491 0
M  V30 7735 C 735.606 4.465 0.543858 0
M  V30 7736 C 736.925 3.64664 2.46391 0
M  V30 7737 H 734.044 0.679049 0.286463 0
M  V30 7738 H 736.686 1.89919 0.0554866 0
M  V30 7739 H 734.836 3.24067 2.14273 0
M  V30 7740 H 736.508 4.61235 -0.0774597 0
M  V30 7741 H 734.751 4.33567 -0.142228 0
M  V30 7742 H 735.422 5.41192 1.08696 0
M  V30 7743 H 737.898 3.68267 1.93698 0
M  V30 7744 H 736.774 4.63534 2.93986 0
M  V30 7745 H 737.035 2.93698 3.30445 0
M  V30 7746 N 736.094 -0.359525 1.53444 0
M  V30 7747 C 737.026 -1.46098 1.76602 0
M  V30 7748 C 738.039 -1.49395 0.646912 0
M  V30 7749 O 739.228 -1.52765 0.923307 0
M  V30 7750 C 736.328 -2.84836 1.83635 0
M  V30 7751 C 735.501 -3.05164 3.13358 0
M  V30 7752 C 734.56 -4.24051 3.11556 0
M  V30 7753 O 733.586 -4.18935 3.85334 0
M  V30 7754 N 734.788 -5.31775 2.328 0
M  V30 7755 H 737.553 -1.2661 2.71643 0
M  V30 7756 H 735.114 -0.549294 1.52297 0
M  V30 7757 H 737.106 -3.62516 1.799 0
M  V30 7758 H 735.676 -2.97542 0.958509 0
M  V30 7759 H 734.896 -2.15091 3.30348 0
M  V30 7760 H 736.184 -3.15619 3.99076 0
M  V30 7761 H 735.582 -5.38796 1.7238 0
M  V30 7762 H 734.139 -6.0801 2.34877 0
M  V30 7763 N 737.572 -1.44907 -0.619662 0
M  V30 7764 C 738.502 -1.55488 -1.742 0
M  V30 7765 C 739.483 -0.407143 -1.65156 0
M  V30 7766 O 740.668 -0.628743 -1.8374 0
M  V30 7767 C 737.798 -1.5097 -3.1277 0
M  V30 7768 C 736.752 -2.64337 -3.36615 0
M  V30 7769 C 736.078 -2.44872 -4.75333 0
M  V30 7770 C 737.378 -4.06423 -3.28051 0
M  V30 7771 H 739.072 -2.49432 -1.65602 0
M  V30 7772 H 736.618 -1.20047 -0.795281 0
M  V30 7773 H 738.571 -1.56971 -3.91073 0
M  V30 7774 H 737.295 -0.535486 -3.2218 0
M  V30 7775 H 735.954 -2.57744 -2.60698 0
M  V30 7776 H 735.602 -1.45617 -4.81461 0
M  V30 7777 H 735.302 -3.20888 -4.92244 0
M  V30 7778 H 736.826 -2.52709 -5.55851 0
M  V30 7779 H 738.24 -4.14324 -3.96243 0
M  V30 7780 H 736.637 -4.82733 -3.56495 0
M  V30 7781 H 737.707 -4.29183 -2.25676 0
M  V30 7782 N 739.05 0.861098 -1.31996 0
M  V30 7783 C 739.98 1.98482 -1.22993 0
M  V30 7784 C 740.961 1.6971 -0.115168 0
M  V30 7785 O 742.146 1.91849 -0.30126 0
M  V30 7786 C 739.276 3.34179 -0.945615 0
M  V30 7787 C 738.23 3.77284 -2.02091 0
M  V30 7788 C 737.556 5.1054 -1.58912 0
M  V30 7789 C 738.856 3.93439 -3.43515 0
M  V30 7790 H 740.55 2.06271 -2.17008 0
M  V30 7791 H 738.096 0.991043 -1.04472 0
M  V30 7792 H 740.049 4.12338 -0.869206 0
M  V30 7793 H 738.773 3.26586 0.0301849 0
M  V30 7794 H 737.432 3.01371 -2.08737 0
M  V30 7795 H 737.08 4.99397 -0.600942 0
M  V30 7796 H 736.78 5.40352 -2.30854 0
M  V30 7797 H 738.304 5.91199 -1.52696 0
M  V30 7798 H 739.718 4.6197 -3.39495 0
M  V30 7799 H 738.115 4.34661 -4.13751 0
M  V30 7800 H 739.185 2.96548 -3.8365 0
M  V30 7801 N 740.528 1.15101 1.07655 0
M  V30 7802 C 741.458 0.867864 2.16773 0
M  V30 7803 C 742.439 -0.180283 1.69142 0
M  V30 7804 O 743.624 -0.0353152 1.94168 0
M  V30 7805 C 740.754 0.35299 3.45501 0
M  V30 7806 C 739.708 1.33746 4.06566 0
M  V30 7807 C 739.034 0.681562 5.30338 0
M  V30 7808 C 740.334 2.7024 4.46954 0
M  V30 7809 H 742.028 1.78034 2.40716 0
M  V30 7810 H 739.574 0.857435 1.15689 0
M  V30 7811 H 741.527 0.142465 4.21159 0
M  V30 7812 H 740.251 -0.594945 3.21135 0
M  V30 7813 H 738.91 1.53429 3.32949 0
M  V30 7814 H 738.558 -0.272422 5.02262 0
M  V30 7815 H 738.258 1.33853 5.72151 0
M  V30 7816 H 739.782 0.48074 6.08705 0
M  V30 7817 H 741.196 2.5442 5.13754 0
M  V30 7818 H 739.593 3.32282 4.99709 0
M  V30 7819 H 740.663 3.26537 3.58471 0
M  V30 7820 N 742.006 -1.2595 0.947325 0
M  V30 7821 C 742.953 -2.26159 0.460497 0
M  V30 7822 C 743.923 -1.58919 -0.483125 0
M  V30 7823 O 745.108 -1.86603 -0.397983 0
M  V30 7824 C 742.248 -3.441 -0.26247 0
M  V30 7825 C 741.361 -4.25999 0.717539 0
M  V30 7826 C 740.496 -5.31193 -0.0272486 0
M  V30 7827 C 739.535 -6.04774 0.944177 0
M  V30 7828 N 738.672 -7.01721 0.230741 0
M  V30 7829 H 743.512 -2.67173 1.31995 0
M  V30 7830 H 741.049 -1.31358 0.662088 0
M  V30 7831 H 743.007 -4.11317 -0.698137 0
M  V30 7832 H 741.637 -3.03983 -1.08602 0
M  V30 7833 H 740.689 -3.58513 1.27171 0
M  V30 7834 H 742.001 -4.76981 1.45913 0
M  V30 7835 H 741.155 -6.04451 -0.521903 0
M  V30 7836 H 739.894 -4.81066 -0.801682 0
M  V30 7837 H 738.899 -5.30338 1.4499 0
M  V30 7838 H 740.124 -6.56991 1.71872 0
M  V30 7839 H 738.07 -6.53895 -0.525088 0
M  V30 7840 H 737.987 -7.50484 0.911556 0
M  V30 7841 H 739.255 -7.79122 -0.242616 0
M  V30 7842 N 743.484 -0.715051 -1.40445 0
M  V30 7843 C 744.431 -0.0621393 -2.30716 0
M  V30 7844 C 745.401 0.750871 -1.48159 0
M  V30 7845 O 746.586 0.714928 -1.76899 0
M  V30 7846 C 743.726 0.854036 -3.34365 0
M  V30 7847 C 742.839 0.0305565 -4.31989 0
M  V30 7848 C 741.974 0.946162 -5.22706 0
M  V30 7849 C 741.013 0.116741 -6.11989 0
M  V30 7850 N 740.15 0.987194 -6.95125 0
M  V30 7851 H 744.99 -0.83764 -2.85985 0
M  V30 7852 H 742.527 -0.424759 -1.40834 0
M  V30 7853 H 744.485 1.39946 -3.93028 0
M  V30 7854 H 743.115 1.59572 -2.806 0
M  V30 7855 H 742.167 -0.632044 -3.75112 0
M  V30 7856 H 743.479 -0.611615 -4.95036 0
M  V30 7857 H 742.633 1.56014 -5.86297 0
M  V30 7858 H 741.372 1.62216 -4.59932 0
M  V30 7859 H 740.377 -0.510176 -5.47428 0
M  V30 7860 H 741.602 -0.555742 -6.76822 0
M  V30 7861 H 739.548 1.64885 -6.3494 0
M  V30 7862 H 739.465 0.401046 -7.54936 0
M  V30 7863 H 740.733 1.58737 -7.63166 0
M  V30 7864 N 744.962 1.50701 -0.461195 0
M  V30 7865 C 746.21 2.01867 0.0970051 0
M  V30 7866 C 746.531 1.34591 1.41104 0
M  V30 7867 O 745.801 0.488041 1.89723 0
M  V30 7868 H 744.381 0.74599 0.0388392 0
M  V30 7869 H 747.043 1.85129 -0.609357 0
M  V30 7870 H 746.139 3.11051 0.255688 0
M  V30 7871 N 746.441 0.193421 1.56409 0
M  V30 7872 C 747.404 -0.714371 2.17783 0
M  V30 7873 C 748.404 -1.1422 1.13183 0
M  V30 7874 O 749.594 -1.05557 1.38576 0
M  V30 7875 C 746.726 -1.97509 2.77855 0
M  V30 7876 H 747.919 -0.179714 2.99361 0
M  V30 7877 H 745.472 -0.0561944 1.56199 0
M  V30 7878 H 746.207 -2.5523 2.0007 0
M  V30 7879 H 745.992 -1.67706 3.54425 0
M  V30 7880 H 747.482 -2.62246 3.24987 0
M  V30 7881 N 747.919 -1.57396 -0.0801906 0
M  V30 7882 C 748.849 -2.06145 -1.09665 0
M  V30 7883 C 749.83 -0.953273 -1.40878 0
M  V30 7884 O 751.015 -1.22548 -1.50651 0
M  V30 7885 C 748.145 -2.49836 -2.41245 0
M  V30 7886 C 747.099 -3.64454 -2.24405 0
M  V30 7887 C 746.425 -3.94172 -3.61293 0
M  V30 7888 C 747.725 -4.94807 -1.67223 0
M  V30 7889 H 749.419 -2.91316 -0.691028 0
M  V30 7890 H 746.965 -1.40145 -0.330957 0
M  V30 7891 H 748.918 -2.82552 -3.12638 0
M  V30 7892 H 747.642 -1.61683 -2.83771 0
M  V30 7893 H 746.301 -3.32008 -1.55454 0
M  V30 7894 H 745.949 -3.03163 -4.01374 0
M  V30 7895 H 745.649 -4.71345 -3.50867 0
M  V30 7896 H 747.173 -4.29376 -4.3413 0
M  V30 7897 H 748.587 -5.25807 -2.28472 0
M  V30 7898 H 746.984 -5.76245 -1.67515 0
M  V30 7899 H 748.054 -4.80751 -0.632944 0
M  V30 7900 N 749.397 0.351382 -1.53633 0
M  V30 7901 C 750.644 1.0925 -1.70502 0
M  V30 7902 C 750.972 1.88881 -0.464123 0
M  V30 7903 O 750.227 1.87693 0.554077 0
M  V30 7904 C 750.526 2.06744 -2.91533 0
M  V30 7905 C 750.192 1.43484 -4.27461 0
M  V30 7906 C 748.854 1.2596 -4.64422 0
M  V30 7907 C 751.206 0.978436 -5.11934 0
M  V30 7908 C 748.534 0.614017 -5.83478 0
M  V30 7909 C 750.886 0.346795 -6.31649 0
M  V30 7910 C 749.55 0.15917 -6.6731 0
M  V30 7911 H 748.82 0.399773 -0.623909 0
M  V30 7912 H 751.467 0.372656 -1.87839 0
M  V30 7913 H 749.772 2.85082 -2.68767 0
M  V30 7914 H 751.469 2.64066 -3.01778 0
M  V30 7915 H 748.059 1.5812 -3.98367 0
M  V30 7916 H 752.243 1.1017 -4.83918 0
M  V30 7917 H 747.499 0.457194 -6.09688 0
M  V30 7918 H 751.673 -0.0149864 -6.96398 0
M  V30 7919 H 749.3 -0.343129 -7.59425 0
M  V30 7920 N 750.875 1.45233 0.611969 0
M  V30 7921 C 751.805 1.5641 1.73373 0
M  V30 7922 C 752.786 0.415896 1.64937 0
M  V30 7923 O 753.971 0.638478 1.83404 0
M  V30 7924 C 751.101 1.52627 3.11965 0
M  V30 7925 C 750.055 2.66119 3.35208 0
M  V30 7926 C 749.381 2.4739 4.74028 0
M  V30 7927 C 750.681 4.08157 3.25891 0
M  V30 7928 H 752.375 2.50307 1.64277 0
M  V30 7929 H 749.921 1.20467 0.788904 0
M  V30 7930 H 751.874 1.59043 3.90235 0
M  V30 7931 H 750.598 0.552564 3.21892 0
M  V30 7932 H 749.257 2.59123 2.59327 0
M  V30 7933 H 748.905 1.48168 4.80682 0
M  V30 7934 H 748.605 3.23494 4.90536 0
M  V30 7935 H 750.129 2.55653 5.54503 0
M  V30 7936 H 751.543 4.1642 3.9404 0
M  V30 7937 H 749.94 4.84617 3.5393 0
M  V30 7938 H 751.01 4.30374 2.23397 0
M  V30 7939 N 752.353 -0.854086 1.3245 0
M  V30 7940 C 753.578 -1.64597 1.26185 0
M  V30 7941 C 754.003 -1.87357 -0.167074 0
M  V30 7942 O 753.361 -1.42675 -1.11864 0
M  V30 7943 C 753.409 -2.98213 2.02734 0
M  V30 7944 O 752.513 -3.88784 1.37554 0
M  V30 7945 H 751.854 -0.50179 0.434859 0
M  V30 7946 H 754.384 -1.06372 1.74775 0
M  V30 7947 H 754.394 -3.4803 2.1293 0
M  V30 7948 H 753.069 -2.80969 3.06642 0
M  V30 7949 H 751.646 -3.4725 1.3591 0
M  V30 7950 N 753.831 -1.1567 -1.07043 0
M  V30 7951 C 755.108 -0.843948 -1.76456 0
M  V30 7952 C 755.488 0.659806 -2.00524 0
M  V30 7953 O 754.836 1.60518 -1.62623 0
M  V30 7954 C 755.046 -1.65822 -3.0709 0
M  V30 7955 C 756.394 -1.8664 -3.8138 0
M  V30 7956 O 757.418 -1.62624 -3.1691 0
M  V30 7957 O 756.277 -2.26884 -4.97178 0
M  V30 7958 H 753.371 -0.310677 -0.766426 0
M  V30 7959 H 755.917 -1.26266 -1.1338 0
M  V30 7960 H 754.689 -2.67902 -2.85209 0
M  V30 7961 H 754.312 -1.23605 -3.77899 0
M  V30 7962 N 755.309 1.25446 -0.953992 0
M  V30 7963 C 756.259 2.23627 -0.444413 0
M  V30 7964 C 757.243 1.54004 0.465993 0
M  V30 7965 O 758.435 1.74454 0.29915 0
M  V30 7966 C 755.564 3.42179 0.277175 0
M  V30 7967 C 754.65 4.1907 -0.651263 0
M  V30 7968 N 755.041 4.73346 -1.78262 0
M  V30 7969 C 753.339 4.43628 -0.459338 0
M  V30 7970 C 754.04 5.31576 -2.36224 0
M  V30 7971 N 753.016 5.17991 -1.64884 0
M  V30 7972 H 756.818 2.63197 -1.30785 0
M  V30 7973 H 754.332 1.40677 -0.811402 0
M  V30 7974 H 756.329 4.11653 0.659367 0
M  V30 7975 H 754.989 3.04134 1.13723 0
M  V30 7976 H 756 4.705 -2.1645 0
M  V30 7977 H 752.677 4.15963 0.357885 0
M  V30 7978 H 754.067 5.84361 -3.3162 0
M  V30 7979 N 756.787 0.722489 1.40064 0
M  V30 7980 C 757.735 0.063329 2.32514 0
M  V30 7981 C 758.729 -0.73953 1.52405 0
M  V30 7982 O 759.935 -0.642122 1.68157 0
M  V30 7983 H 756.31 0.00167692 0.751998 0
M  V30 7984 H 758.281 0.859656 2.85749 0
M  V30 7985 C 757.03 -0.839219 3.3742 0
M  V30 7986 H 756.353 -0.230836 3.99133 0
M  V30 7987 H 757.793 -1.26827 4.04587 0
M  V30 7988 C 756.252 -1.96783 2.73456 0
M  V30 7989 O 756.782 -3.05933 2.60323 0
M  V30 7990 N 754.988 -1.75351 2.31734 0
M  V30 7991 H 754.535 -0.865787 2.42615 0
M  V30 7992 H 754.493 -2.51043 1.89275 0
M  V30 7993 N 758.265 -1.50454 0.469181 0
M  V30 7994 C 759.513 -2.01916 -0.0862982 0
M  V30 7995 C 759.834 -1.35337 -1.40388 0
M  V30 7996 O 759.104 -0.498096 -1.89462 0
M  V30 7997 H 757.684 -0.746185 -0.0348825 0
M  V30 7998 H 760.346 -1.84804 0.619167 0
M  V30 7999 H 759.442 -3.11182 -0.239189 0
M  V30 8000 N 759.743 -0.201713 -1.56304 0
M  V30 8001 C 760.989 0.429292 -1.98818 0
M  V30 8002 C 761.344 1.58779 -1.08659 0
M  V30 8003 O 760.637 1.91142 -0.132365 0
M  V30 8004 C 760.831 0.931432 -3.45049 0
M  V30 8005 C 760.66 -0.176878 -4.49352 0
M  V30 8006 C 759.43 -0.636712 -5.01272 0
M  V30 8007 C 761.628 -0.988177 -5.04717 0
M  V30 8008 N 759.61 -1.72215 -5.8925 0
M  V30 8009 C 760.981 -1.92288 -5.89428 0
M  V30 8010 C 763.036 -1.02985 -4.87133 0
M  V30 8011 C 761.739 -2.89582 -6.58434 0
M  V30 8012 C 763.765 -1.99087 -5.56883 0
M  V30 8013 C 763.127 -2.913 -6.41345 0
M  V30 8014 H 759.226 0.124322 -0.772054 0
M  V30 8015 H 761.81 -0.308929 -1.92234 0
M  V30 8016 H 759.981 1.63907 -3.52121 0
M  V30 8017 H 761.713 1.5336 -3.74517 0
M  V30 8018 H 758.468 -0.228861 -4.73047 0
M  V30 8019 H 758.892 -2.26627 -6.37941 0
M  V30 8020 H 763.534 -0.330894 -4.21503 0
M  V30 8021 H 761.252 -3.6045 -7.23258 0
M  V30 8022 H 764.838 -2.0296 -5.45251 0
M  V30 8023 H 763.718 -3.6445 -6.94367 0
M  V30 8024 N 761.222 1.57436 0.0718424 0
M  V30 8025 C 762.45 1.91474 0.783932 0
M  V30 8026 C 762.865 0.797669 1.71122 0
M  V30 8027 O 762.222 -0.228989 1.81058 0
M  V30 8028 C 762.273 3.25259 1.57761 0
M  V30 8029 O 761.994 4.3267 0.687596 0
M  V30 8030 C 763.495 3.7331 2.3907 0
M  V30 8031 H 760.715 0.632901 0.222885 0
M  V30 8032 H 763.259 2.04457 0.0421262 0
M  V30 8033 H 761.414 3.13804 2.27169 0
M  V30 8034 H 761.828 5.09641 1.23962 0
M  V30 8035 H 763.302 4.69551 2.90216 0
M  V30 8036 H 763.779 3.02318 3.18591 0
M  V30 8037 H 764.385 3.8771 1.74818 0
M  V30 8038 N 762.7 -0.34323 1.53817 0
M  V30 8039 C 763.663 -1.40444 1.8113 0
M  V30 8040 C 764.663 -1.45604 0.682366 0
M  V30 8041 O 765.853 -1.45974 0.950649 0
M  V30 8042 C 762.985 -2.79369 1.95361 0
M  V30 8043 H 764.178 -1.17489 2.75928 0
M  V30 8044 H 761.731 -0.577636 1.45234 0
M  V30 8045 H 762.466 -3.07607 1.02707 0
M  V30 8046 H 762.251 -2.7702 2.77493 0
M  V30 8047 H 763.741 -3.56178 2.18008 0
M  V30 8048 N 764.178 -1.45556 -0.604258 0
M  V30 8049 C 765.108 -1.57327 -1.72541 0
M  V30 8050 C 766.089 -0.424637 -1.64714 0
M  V30 8051 O 767.274 -0.648196 -1.83063 0
M  V30 8052 C 764.404 -1.54279 -3.11152 0
M  V30 8053 C 763.358 -2.67893 -3.33792 0
M  V30 8054 C 762.684 -2.499 -4.72709 0
M  V30 8055 C 763.984 -4.0988 -3.23722 0
M  V30 8056 H 765.678 -2.51175 -1.62947 0
M  V30 8057 H 763.224 -1.20884 -0.782504 0
M  V30 8058 H 765.177 -1.6111 -3.89386 0
M  V30 8059 H 763.901 -0.569627 -3.21594 0
M  V30 8060 H 762.56 -2.60495 -2.57949 0
M  V30 8061 H 762.208 -1.50715 -4.79889 0
M  V30 8062 H 761.908 -3.26091 -4.88813 0
M  V30 8063 H 763.432 -2.5859 -5.5314 0
M  V30 8064 H 764.846 -4.18503 -3.91826 0
M  V30 8065 H 763.243 -4.86487 -3.51355 0
M  V30 8066 H 764.313 -4.31553 -2.21111 0
M  V30 8067 N 765.656 0.84705 -1.32902 0
M  V30 8068 C 766.606 1.94451 -1.19049 0
M  V30 8069 C 767.59 1.60617 -0.095461 0
M  V30 8070 O 768.782 1.74033 -0.322739 0
M  V30 8071 C 765.911 3.30645 -0.923509 0
M  V30 8072 C 764.997 3.70675 -2.0606 0
M  V30 8073 N 765.388 3.82468 -3.30986 0
M  V30 8074 C 763.686 4.00357 -1.96547 0
M  V30 8075 C 764.387 4.17056 -4.05511 0
M  V30 8076 N 763.363 4.28985 -3.33876 0
M  V30 8077 H 767.165 2.01713 -2.1375 0
M  V30 8078 H 764.679 1.03928 -1.24791 0
M  V30 8079 H 766.676 4.0905 -0.805212 0
M  V30 8080 H 765.336 3.24697 0.0150523 0
M  V30 8081 H 766.347 3.66589 -3.65832 0
M  V30 8082 H 763.024 4.02666 -1.10299 0
M  V30 8083 H 764.414 4.33585 -5.13277 0
M  V30 8084 N 767.134 1.16236 1.06428 0
M  V30 8085 C 768.084 0.835994 2.12121 0
M  V30 8086 C 769.068 -0.183955 1.59845 0
M  V30 8087 O 770.26 0.0166741 1.76992 0
M  V30 8088 C 767.389 0.337333 3.41639 0
M  V30 8089 C 766.475 1.38798 4.00744 0
M  V30 8090 N 766.866 2.59799 4.3398 0
M  V30 8091 C 765.164 1.24292 4.28331 0
M  V30 8092 C 765.865 3.27213 4.80943 0
M  V30 8093 N 764.841 2.54594 4.80294 0
M  V30 8094 H 768.643 1.75615 2.35662 0
M  V30 8095 H 766.157 1.04921 1.23957 0
M  V30 8096 H 768.154 0.0851274 4.16813 0
M  V30 8097 H 766.814 -0.57677 3.19536 0
M  V30 8098 H 767.825 2.96867 4.24371 0
M  V30 8099 H 764.502 0.389464 4.15679 0
M  V30 8100 H 765.892 4.30492 5.15874 0
M  V30 8101 N 768.612 -1.24939 0.960631 0
M  V30 8102 C 769.575 -2.239 0.49006 0
M  V30 8103 C 770.575 -1.55497 -0.409535 0
M  V30 8104 O 771.765 -1.72978 -0.205984 0
M  V30 8105 C 768.897 -3.39654 -0.291193 0
M  V30 8106 H 770.09 -2.67044 1.36482 0
M  V30 8107 H 767.643 -1.37429 0.744505 0
M  V30 8108 H 768.378 -3.01939 -1.18336 0
M  V30 8109 H 768.163 -3.90496 0.354276 0
M  V30 8110 H 769.653 -4.13125 -0.609693 0
M  V30 8111 N 770.09 -0.729906 -1.39679 0
M  V30 8112 C 771.315 -0.284345 -2.05442 0
M  V30 8113 C 771.74 1.07056 -1.54663 0
M  V30 8114 O 771.098 1.67732 -0.688157 0
M  V30 8115 C 771.146 -0.290089 -3.59431 0
M  V30 8116 O 770.25 0.723978 -4.05995 0
M  V30 8117 H 769.591 -0.130311 -0.651088 0
M  V30 8118 H 772.121 -0.994403 -1.78809 0
M  V30 8119 H 772.131 -0.132712 -4.07784 0
M  V30 8120 H 770.806 -1.27877 -3.95753 0
M  V30 8121 H 769.383 0.533154 -3.69069 0
M  V30 8122 N 771.568 1.50203 -0.477153 0
M  V30 8123 C 772.501 2.25343 0.359983 0
M  V30 8124 C 773.479 1.28909 0.991022 0
M  V30 8125 O 774.663 1.58146 1.02578 0
M  V30 8126 C 771.79 3.03431 1.5049 0
M  V30 8127 C 770.836 4.14836 0.99063 0
M  V30 8128 S 771.669 5.35407 -0.0995413 0
M  V30 8129 C 772.825 6.17045 1.04911 0
M  V30 8130 H 773.058 2.95999 -0.277836 0
M  V30 8131 H 770.591 1.52159 -0.262115 0
M  V30 8132 H 772.549 3.49012 2.16105 0
M  V30 8133 H 771.21 2.32289 2.11425 0
M  V30 8134 H 770.403 4.689 1.84794 0
M  V30 8135 H 770.005 3.71723 0.412097 0
M  V30 8136 H 772.297 6.48546 1.95946 0
M  V30 8137 H 773.24 7.05979 0.547596 0
M  V30 8138 H 773.648 5.49193 1.30567 0
M  V30 8139 N 773.046 0.209999 1.56195 0
M  V30 8140 C 774.294 -0.423974 1.97603 0
M  V30 8141 C 774.615 -1.61112 1.09854 0
M  V30 8142 O 773.885 -1.95134 0.173032 0
M  V30 8143 H 772.465 -0.159629 0.729745 0
M  V30 8144 H 775.127 0.300205 1.92574 0
M  V30 8145 H 774.223 -0.75809 3.02753 0
M  V30 8146 N 774.524 -1.57472 -0.0634922 0
M  V30 8147 C 775.772 -1.87283 -0.759563 0
M  V30 8148 C 776.093 -0.803135 -1.77693 0
M  V30 8149 O 775.363 0.167293 -1.95184 0
M  V30 8150 H 773.943 -0.691106 -0.283516 0
M  V30 8151 H 776.605 -1.94864 -0.0376091 0
M  V30 8152 H 775.701 -2.85064 -1.27062 0
M  V30 8153 N 776.003 0.335068 -1.53997 0
M  V30 8154 C 777.233 1.0926 -1.75345 0
M  V30 8155 C 777.641 1.82568 -0.496545 0
M  V30 8156 O 776.984 1.75525 0.541897 0
M  V30 8157 C 777.046 2.14473 -2.88516 0
M  V30 8158 C 776.71 1.60665 -4.27827 0
M  V30 8159 C 777.707 1.05448 -5.09094 0
M  V30 8160 C 775.392 1.65255 -4.74337 0
M  V30 8161 C 777.386 0.555372 -6.34976 0
M  V30 8162 C 775.073 1.14956 -6.0019 0
M  V30 8163 C 776.071 0.601907 -6.80343 0
M  V30 8164 O 775.759 0.106445 -8.0383 0
M  V30 8165 H 775.491 0.331329 -0.589234 0
M  V30 8166 H 778.045 0.39042 -2.01655 0
M  V30 8167 H 776.275 2.88274 -2.5775 0
M  V30 8168 H 777.964 2.75857 -2.97755 0
M  V30 8169 H 778.73 1.01218 -4.74321 0
M  V30 8170 H 774.609 2.06822 -4.12002 0
M  V30 8171 H 778.153 0.127245 -6.97484 0
M  V30 8172 H 774.05 1.18891 -6.34457 0
M  V30 8173 H 774.818 0.222944 -8.18196 0
M  V30 8174 N 777.481 1.45874 0.596531 0
M  V30 8175 C 778.709 1.54013 1.38158 0
M  V30 8176 C 779.124 0.17648 1.87973 0
M  V30 8177 O 778.481 -0.823895 1.62844 0
M  V30 8178 C 778.532 2.53363 2.57855 0
M  V30 8179 O 778.253 3.8443 2.10108 0
M  V30 8180 C 779.754 2.71308 3.50581 0
M  V30 8181 H 776.974 0.521251 0.422538 0
M  V30 8182 H 779.518 1.9116 0.726493 0
M  V30 8183 H 777.673 2.19257 3.19382 0
M  V30 8184 H 778.087 4.38384 2.87958 0
M  V30 8185 H 779.561 3.44776 4.31084 0
M  V30 8186 H 780.038 1.77728 4.01633 0
M  V30 8187 H 780.644 3.06455 2.94899 0
M  V30 8188 N 778.959 -0.83999 1.33349 0
M  V30 8189 C 779.891 -1.95678 1.19344 0
M  V30 8190 C 780.904 -1.62322 0.124692 0
M  V30 8191 O 782.093 -1.74516 0.375012 0
M  V30 8192 C 779.193 -3.29133 0.807771 0
M  V30 8193 C 778.366 -3.9063 1.96792 0
M  V30 8194 C 777.425 -5.02438 1.56341 0
M  V30 8195 O 776.451 -5.21646 2.27759 0
M  V30 8196 N 777.653 -5.78612 0.467767 0
M  V30 8197 H 780.418 -2.08229 2.15548 0
M  V30 8198 H 777.979 -1.01566 1.26079 0
M  V30 8199 H 779.971 -4.01355 0.519282 0
M  V30 8200 H 778.541 -3.12535 -0.063555 0
M  V30 8201 H 777.761 -3.11011 2.4221 0
M  V30 8202 H 779.049 -4.2845 2.74422 0
M  V30 8203 H 778.447 -5.65559 -0.126324 0
M  V30 8204 H 777.004 -6.51362 0.238945 0
M  V30 8205 N 780.437 -1.16799 -1.0581 0
M  V30 8206 C 781.665 -0.97687 -1.82387 0
M  V30 8207 C 782.08 0.474917 -1.82729 0
M  V30 8208 O 781.437 1.3297 -1.25001 0
M  V30 8209 C 781.488 -1.50279 -3.28783 0
M  V30 8210 O 781.209 -2.89772 -3.28578 0
M  V30 8211 C 782.71 -1.35538 -4.22071 0
M  V30 8212 H 779.93 -0.345977 -0.574927 0
M  V30 8213 H 782.474 -1.54942 -1.33466 0
M  V30 8214 H 780.629 -0.972414 -3.74997 0
M  V30 8215 H 781.043 -3.13954 -4.20159 0
M  V30 8216 H 782.517 -1.7716 -5.22799 0
M  V30 8217 H 782.994 -0.301598 -4.38163 0
M  V30 8218 H 783.6 -1.87562 -3.81708 0
M  V30 8219 N 781.915 1.24427 -0.967243 0
M  V30 8220 C 782.848 2.23885 -0.441683 0
M  V30 8221 C 783.826 1.55231 0.483963 0
M  V30 8222 O 785.01 1.83865 0.415445 0
M  V30 8223 C 782.137 3.36755 0.362458 0
M  V30 8224 C 781.183 4.23495 -0.505407 0
M  V30 8225 S 782.016 4.98916 -1.94534 0
M  V30 8226 C 783.172 6.15245 -1.14997 0
M  V30 8227 H 783.405 2.68118 -1.28453 0
M  V30 8228 H 780.938 1.337 -0.772243 0
M  V30 8229 H 782.896 4.02218 0.820445 0
M  V30 8230 H 781.557 2.91081 1.18027 0
M  V30 8231 H 780.75 5.03876 0.111979 0
M  V30 8232 H 780.352 3.63032 -0.899104 0
M  V30 8233 H 782.644 6.7629 -0.404769 0
M  V30 8234 H 783.587 6.81343 -1.92814 0
M  V30 8235 H 783.995 5.60455 -0.674543 0
M  V30 8236 N 783.393 0.737304 1.3929 0
M  V30 8237 C 784.34 0.0988364 2.30588 0
M  V30 8238 C 785.31 -0.727206 1.49335 0
M  V30 8239 O 786.495 -0.686694 1.78014 0
M  V30 8240 C 783.635 -0.800734 3.35682 0
M  V30 8241 C 782.748 0.0381731 4.31983 0
M  V30 8242 C 781.883 -0.862884 5.24145 0
M  V30 8243 C 780.922 -0.0193639 6.12097 0
M  V30 8244 N 780.059 -0.87648 6.96608 0
M  V30 8245 H 784.899 0.883031 2.84617 0
M  V30 8246 H 782.436 0.447111 1.4014 0
M  V30 8247 H 784.394 -1.33676 3.95205 0
M  V30 8248 H 783.024 -1.55088 2.83103 0
M  V30 8249 H 782.076 0.691641 3.74059 0
M  V30 8250 H 783.388 0.690294 4.94 0
M  V30 8251 H 782.542 -1.46667 5.88705 0
M  V30 8252 H 781.281 -1.54878 4.62454 0
M  V30 8253 H 780.286 0.597202 5.46547 0
M  V30 8254 H 781.511 0.663348 6.75852 0
M  V30 8255 H 779.457 -1.54762 6.37483 0
M  V30 8256 H 779.374 -0.280892 7.55478 0
M  V30 8257 H 780.642 -1.46575 7.65595 0
M  V30 8258 N 784.871 -1.49948 0.485112 0
M  V30 8259 C 786.117 -2.02695 -0.0651022 0
M  V30 8260 C 786.45 -1.36534 -1.38102 0
M  V30 8261 O 785.725 -0.495677 -1.88078 0
M  V30 8262 C 786.008 -3.59337 -0.234285 0
M  V30 8263 C 785.861 -4.3605 1.10364 0
M  V30 8264 C 787.18 -4.28996 -0.982351 0
M  V30 8265 H 784.299 -0.736666 -0.0221856 0
M  V30 8266 H 786.941 -1.7913 0.633433 0
M  V30 8267 H 785.091 -3.79546 -0.829262 0
M  V30 8268 H 786.763 -4.27377 1.73627 0
M  V30 8269 H 785.006 -3.99236 1.69686 0
M  V30 8270 H 785.677 -5.43959 0.938743 0
M  V30 8271 H 788.153 -4.13346 -0.477904 0
M  V30 8272 H 787.029 -5.38379 -1.06955 0
M  V30 8273 H 787.29 -3.93135 -2.02231 0
M  V30 8274 N 786.349 -0.21828 -1.56081 0
M  V30 8275 C 787.598 0.414644 -1.97392 0
M  V30 8276 C 787.911 1.61132 -1.10887 0
M  V30 8277 O 789.117 2.31355 -1.42082 0
M  V30 8278 C 787.573 0.789099 -3.51143 0
M  V30 8279 C 787.181 -0.384578 -4.46346 0
M  V30 8280 C 788.925 1.38781 -4.01173 0
M  V30 8281 C 786.832 0.0121288 -5.91399 0
M  V30 8282 H 785.762 0.158691 -0.737111 0
M  V30 8283 H 788.413 -0.313974 -1.80794 0
M  V30 8284 H 786.795 1.57505 -3.6333 0
M  V30 8285 H 787.969 -1.16212 -4.45905 0
M  V30 8286 H 786.284 -0.896306 -4.06639 0
M  V30 8287 H 788.881 1.69746 -5.07041 0
M  V30 8288 H 789.224 2.30245 -3.46833 0
M  V30 8289 H 789.757 0.665364 -3.92196 0
M  V30 8290 H 786.496 -0.868917 -6.49715 0
M  V30 8291 H 786.016 0.754053 -5.95041 0
M  V30 8292 H 787.695 0.439949 -6.45502 0
M  V30 8293 N 787.827 1.57504 0.0551401 0
M  V30 8294 C 788.757 2.07864 1.06372 0
M  V30 8295 C 789.738 0.975565 1.39344 0
M  V30 8296 O 790.923 1.24929 1.48682 0
M  V30 8297 C 788.053 2.53643 2.3724 0
M  V30 8298 C 787.007 3.67978 2.18578 0
M  V30 8299 C 786.333 3.9987 3.54976 0
M  V30 8300 C 787.633 4.97405 1.59329 0
M  V30 8301 H 789.327 2.92379 0.644595 0
M  V30 8302 H 786.873 1.40654 0.308619 0
M  V30 8303 H 788.826 2.8749 3.08103 0
M  V30 8304 H 787.55 1.66177 2.81163 0
M  V30 8305 H 786.209 3.3444 1.50152 0
M  V30 8306 H 785.857 3.0951 3.965 0
M  V30 8307 H 785.557 4.76867 3.43324 0
M  V30 8308 H 787.081 4.36228 4.27244 0
M  V30 8309 H 788.495 5.29375 2.20078 0
M  V30 8310 H 786.892 5.78837 1.58327 0
M  V30 8311 H 787.962 4.81697 0.55638 0
M  V30 8312 N 789.305 -0.326896 1.54172 0
M  V30 8313 C 790.582 -1.08326 1.62864 0
M  V30 8314 C 790.962 -2.06018 0.46039 0
M  V30 8315 O 790.31 -2.21889 -0.545685 0
M  V30 8316 C 790.52 -1.78816 2.9971 0
M  V30 8317 C 791.868 -2.31958 3.55641 0
M  V30 8318 O 792.892 -1.88888 3.01993 0
M  V30 8319 O 791.751 -3.10801 4.49517 0
M  V30 8320 H 788.845 -0.499131 0.659392 0
M  V30 8321 H 791.391 -0.327054 1.66519 0
M  V30 8322 H 790.163 -1.07739 3.76176 0
M  V30 8323 H 789.786 -2.61255 2.99719 0
M  V30 8324 N 790.784 -1.46188 -0.588786 0
M  V30 8325 C 792.012 -1.54743 -1.37339 0
M  V30 8326 C 792.427 -0.186446 -1.87877 0
M  V30 8327 O 791.784 0.815247 -1.63279 0
M  V30 8328 C 791.835 -2.54727 -2.56508 0
M  V30 8329 O 791.556 -3.85539 -2.08066 0
M  V30 8330 C 793.057 -2.73163 -3.49137 0
M  V30 8331 H 790.277 -0.523484 -0.419768 0
M  V30 8332 H 792.821 -1.91543 -0.716345 0
M  V30 8333 H 790.976 -2.20948 -3.18215 0
M  V30 8334 H 791.39 -4.39905 -2.85629 0
M  V30 8335 H 792.864 -3.47057 -4.2925 0
M  V30 8336 H 793.341 -1.79856 -4.00685 0
M  V30 8337 H 793.947 -3.08014 -2.9327 0
M  V30 8338 N 792.262 0.832906 -1.33792 0
M  V30 8339 C 793.21 1.96455 -1.24532 0
M  V30 8340 C 794.204 1.68774 -0.145455 0
M  V30 8341 O 795.41 1.77314 -0.309797 0
M  V30 8342 H 791.785 0.645008 -0.386611 0
M  V30 8343 H 793.756 2.01389 -2.20193 0
M  V30 8344 C 792.505 3.32784 -1.00748 0
M  V30 8345 H 791.828 3.54626 -1.84609 0
M  V30 8346 H 793.268 4.12447 -0.98301 0
M  V30 8347 C 791.727 3.35654 0.289475 0
M  V30 8348 O 792.257 3.80281 1.29419 0
M  V30 8349 N 790.463 2.88843 0.3191 0
M  V30 8350 H 790.01 2.52719 -0.499069 0
M  V30 8351 H 789.968 2.91145 1.18667 0
M  V30 8352 N 793.74 1.17359 1.05189 0
M  V30 8353 C 794.67 0.91365 2.14883 0
M  V30 8354 C 795.651 -0.144365 1.69486 0
M  V30 8355 O 796.836 0.00587861 1.94199 0
M  V30 8356 C 793.966 0.426196 3.44675 0
M  V30 8357 C 792.92 1.4234 4.03638 0
M  V30 8358 C 792.246 0.793902 5.28773 0
M  V30 8359 C 793.546 2.7966 4.41121 0
M  V30 8360 H 795.24 1.831 2.36885 0
M  V30 8361 H 792.786 0.881781 1.13845 0
M  V30 8362 H 794.739 0.231767 4.20762 0
M  V30 8363 H 793.463 -0.526693 3.22325 0
M  V30 8364 H 792.122 1.60457 3.2962 0
M  V30 8365 H 791.77 -0.165824 5.02727 0
M  V30 8366 H 791.47 1.45959 5.69183 0
M  V30 8367 H 792.994 0.609747 6.07548 0
M  V30 8368 H 794.408 2.6526 5.08242 0
M  V30 8369 H 792.805 3.42807 4.92548 0
M  V30 8370 H 793.875 3.34068 3.51464 0
M  V30 8371 N 795.218 -1.23913 0.973828 0
M  V30 8372 C 796.165 -2.25132 0.508366 0
M  V30 8373 C 797.135 -1.59908 -0.449307 0
M  V30 8374 O 798.32 -1.87405 -0.358313 0
M  V30 8375 C 795.46 -3.4458 -0.189422 0
M  V30 8376 C 794.573 -4.24381 0.807738 0
M  V30 8377 C 793.708 -5.31131 0.0854315 0
M  V30 8378 C 792.747 -6.02635 1.07225 0
M  V30 8379 N 791.884 -7.01073 0.379535 0
M  V30 8380 H 796.724 -2.64313 1.37632 0
M  V30 8381 H 794.261 -1.29924 0.689802 0
M  V30 8382 H 796.219 -4.12706 -0.610733 0
M  V30 8383 H 794.849 -3.06218 -1.02129 0
M  V30 8384 H 793.901 -3.55735 1.34747 0
M  V30 8385 H 795.213 -4.73778 1.55998 0
M  V30 8386 H 794.367 -6.05422 -0.393572 0
M  V30 8387 H 793.106 -4.82658 -0.699461 0
M  V30 8388 H 792.111 -5.27143 1.56207 0
M  V30 8389 H 793.336 -6.53197 1.85769 0
M  V30 8390 H 791.282 -6.54862 -0.386269 0
M  V30 8391 H 791.199 -7.48382 1.07054 0
M  V30 8392 H 792.467 -7.79462 -0.0772984 0
M  V30 8393 N 796.696 -0.74468 -1.38897 0
M  V30 8394 C 797.936 -0.301691 -2.02161 0
M  V30 8395 C 798.3 1.09338 -1.57826 0
M  V30 8396 O 799.501 1.63499 -2.13358 0
M  V30 8397 C 797.772 -0.410601 -3.55034 0
M  V30 8398 S 799.331 -0.0488802 -4.38773 0
M  V30 8399 H 796.149 -0.117583 -0.70121 0
M  V30 8400 H 798.751 -0.973334 -1.69548 0
M  V30 8401 H 797.455 -1.42705 -3.8479 0
M  V30 8402 H 796.986 0.278531 -3.92413 0
M  V30 8403 H 799.001 1.16434 -4.82346 0
M  V30 8404 N 798.174 1.49689 -0.493057 0
M  V30 8405 C 799.402 2.06836 0.0513141 0
M  V30 8406 C 799.817 1.35436 1.31539 0
M  V30 8407 O 799.174 0.430248 1.77356 0
M  V30 8408 C 799.225 3.60107 0.317003 0
M  V30 8409 O 798.946 4.2882 -0.896957 0
M  V30 8410 C 800.447 4.33945 0.905902 0
M  V30 8411 H 797.667 0.670787 -0.0169048 0
M  V30 8412 H 800.211 1.92574 -0.688139 0
M  V30 8413 H 798.366 3.74099 1.00642 0
M  V30 8414 H 798.78 5.20395 -0.654939 0
M  V30 8415 H 800.254 5.42087 1.04144 0
M  V30 8416 H 800.731 3.95895 1.90168 0
M  V30 8417 H 801.337 4.2454 0.254195 0
M  V30 8418 N 799.652 0.226554 1.55963 0
M  V30 8419 C 800.929 -0.453058 1.90281 0
M  V30 8420 C 801.309 -1.77377 1.14458 0
M  V30 8421 O 800.657 -2.27067 0.255496 0
M  V30 8422 C 800.867 -0.641108 3.43061 0
M  V30 8423 C 802.215 -0.946265 4.13921 0
M  V30 8424 O 803.239 -0.727713 3.48687 0
M  V30 8425 O 802.098 -1.36131 5.29274 0
M  V30 8426 H 799.192 -0.240242 0.791336 0
M  V30 8427 H 801.738 0.26911 1.67553 0
M  V30 8428 H 800.51 0.290283 3.90222 0
M  V30 8429 H 800.133 -1.41458 3.71585 0
M  V30 8430 N 801.13 -1.57531 -0.0467866 0
M  V30 8431 C 802.546 -1.54451 -0.402107 0
M  V30 8432 C 802.746 -0.950275 -1.77685 0
M  V30 8433 O 801.802 -0.563602 -2.4613 0
M  V30 8434 C 803.115 -2.9899 -0.320212 0
M  V30 8435 C 804.663 -3.10452 -0.398588 0
M  V30 8436 C 805.138 -4.56689 -0.346335 0
M  V30 8437 N 806.629 -4.6142 -0.405666 0
M  V30 8438 C 807.364 -5.72087 -0.387845 0
M  V30 8439 N 806.86 -6.92045 -0.32336 0
M  V30 8440 N 808.653 -5.60404 -0.436263 0
M  V30 8441 H 800.804 -1.94515 0.853087 0
M  V30 8442 H 803.067 -0.891397 0.322669 0
M  V30 8443 H 802.773 -3.46124 0.623794 0
M  V30 8444 H 802.647 -3.60164 -1.1208 0
M  V30 8445 H 805.034 -2.63276 -1.33302 0
M  V30 8446 H 805.115 -2.52142 0.431026 0
M  V30 8447 H 804.759 -5.04527 0.584356 0
M  V30 8448 H 804.689 -5.12889 -1.19382 0
M  V30 8449 H 807.18 -3.75105 -0.458737 0
M  V30 8450 H 807.493 -7.7216 -0.314375 0
M  V30 8451 H 805.838 -6.94396 -0.28967 0
M  V30 8452 H 809.029 -4.65586 -0.48451 0
M  V30 8453 H 809.202 -6.46645 -0.418907 0
M  V30 8454 N 802.608 0.318715 -1.54344 0
M  V30 8455 C 803.538 1.39751 -1.87061 0
M  V30 8456 C 804.519 1.53741 -0.727848 0
M  V30 8457 O 805.704 1.67541 -0.982016 0
M  V30 8458 C 802.834 2.76446 -2.10226 0
M  V30 8459 C 801.788 2.77239 -3.26071 0
M  V30 8460 C 801.114 4.17056 -3.34617 0
M  V30 8461 C 802.414 2.40555 -4.63606 0
M  V30 8462 H 804.108 1.12619 -2.77412 0
M  V30 8463 H 801.654 0.540318 -1.33479 0
M  V30 8464 H 803.607 3.51985 -2.31699 0
M  V30 8465 H 802.331 3.05066 -1.16629 0
M  V30 8466 H 800.99 2.04155 -3.04493 0
M  V30 8467 H 800.638 4.42824 -2.3857 0
M  V30 8468 H 800.338 4.18492 -4.12478 0
M  V30 8469 H 801.862 4.94401 -3.5833 0
M  V30 8470 H 803.276 3.05808 -4.84927 0
M  V30 8471 H 801.673 2.53234 -5.44052 0
M  V30 8472 H 802.743 1.35698 -4.65526 0
M  V30 8473 N 804.086 1.46499 0.581025 0
M  V30 8474 C 805.363 1.42372 1.34125 0
M  V30 8475 C 805.743 0.108073 2.10823 0
M  V30 8476 O 805.091 -0.910366 2.09582 0
M  V30 8477 C 805.301 2.65445 2.26583 0
M  V30 8478 C 806.649 3.11664 2.88359 0
M  V30 8479 O 807.673 2.66006 2.36896 0
M  V30 8480 O 806.532 3.90974 3.81839 0
M  V30 8481 H 803.626 0.566262 0.602724 0
M  V30 8482 H 806.172 1.58667 0.601903 0
M  V30 8483 H 804.944 3.52756 1.69348 0
M  V30 8484 H 804.567 2.51618 3.07854 0
M  V30 8485 N 805.565 -0.825799 1.34232 0
M  V30 8486 C 806.475 -1.9684 1.27638 0
M  V30 8487 C 807.491 -1.73018 0.184569 0
M  V30 8488 O 808.667 -1.97172 0.410525 0
M  V30 8489 C 805.732 -3.31084 1.02879 0
M  V30 8490 C 804.793 -3.67933 2.21188 0
M  V30 8491 C 804.026 -4.95772 1.976 0
M  V30 8492 O 804.249 -5.62721 0.93281 0
M  V30 8493 O 803.183 -5.30431 2.84477 0
M  V30 8494 H 807.009 -2.05346 2.23756 0
M  V30 8495 H 804.594 -0.960772 1.1441 0
M  V30 8496 H 806.476 -4.11492 0.908406 0
M  V30 8497 H 805.151 -3.23552 0.0979821 0
M  V30 8498 H 804.058 -2.87981 2.38784 0
M  V30 8499 H 805.391 -3.80147 3.12648 0
M  V30 8500 N 807.043 -1.17915 -1.04565 0
M  V30 8501 C 808.32 -0.881187 -1.74627 0
M  V30 8502 C 808.7 0.617123 -2.01878 0
M  V30 8503 O 808.048 1.57032 -1.65991 0
M  V30 8504 C 808.258 -1.72299 -3.03503 0
M  V30 8505 C 809.606 -1.94688 -3.77335 0
M  V30 8506 O 810.63 -1.6931 -3.13389 0
M  V30 8507 O 809.489 -2.37379 -4.92253 0
M  V30 8508 H 806.583 -0.326864 -0.759664 0
M  V30 8509 H 809.129 -1.28642 -1.10676 0
M  V30 8510 H 807.901 -2.73891 -2.79462 0
M  V30 8511 H 807.524 -1.31593 -3.75192 0
M  V30 8512 N 808.521 1.23394 -0.980386 0
M  V30 8513 C 809.769 1.91431 -0.647978 0
M  V30 8514 C 810.09 1.76871 0.821066 0
M  V30 8515 O 809.36 1.14808 1.58732 0
M  V30 8516 H 807.94 0.708516 -0.236673 0
M  V30 8517 H 810.602 1.50019 -1.2442 0
M  V30 8518 H 809.698 2.98854 -0.899592 0
M  V30 8519 N 809.999 0.752036 1.385 0
M  V30 8520 C 810.947 0.112634 2.32327 0
M  V30 8521 C 811.941 -0.707037 1.53939 0
M  V30 8522 O 813.147 -0.606309 1.69481 0
M  V30 8523 H 809.522 0.0176275 0.751793 0
M  V30 8524 H 811.493 0.920074 2.83861 0
M  V30 8525 C 810.242 -0.767458 3.39124 0
M  V30 8526 H 809.565 -0.146122 3.99533 0
M  V30 8527 H 811.005 -1.18216 4.07187 0
M  V30 8528 C 809.464 -1.90938 2.77568 0
M  V30 8529 O 809.994 -3.00342 2.66754 0
M  V30 8530 N 808.2 -1.70396 2.35401 0
M  V30 8531 H 807.747 -0.81413 2.44397 0
M  V30 8532 H 807.705 -2.46972 1.94557 0
M  V30 8533 N 811.477 -1.49425 0.500989 0
M  V30 8534 C 812.705 -2.06861 -0.0403443 0
M  V30 8535 C 813.12 -1.36132 -1.30819 0
M  V30 8536 O 812.477 -0.439647 -1.77125 0
M  V30 8537 C 812.528 -3.6027 -0.297902 0
M  V30 8538 O 812.249 -4.28338 0.919686 0
M  V30 8539 C 813.75 -4.34419 -0.882876 0
M  V30 8540 H 810.97 -0.670688 0.0204619 0
M  V30 8541 H 813.514 -1.92207 0.698342 0
M  V30 8542 H 811.669 -3.74627 -0.98657 0
M  V30 8543 H 812.083 -5.2004 0.682528 0
M  V30 8544 H 813.557 -5.42631 -1.01268 0
M  V30 8545 H 814.034 -3.96898 -1.88066 0
M  V30 8546 H 814.64 -4.24669 -0.231677 0
M  V30 8547 N 812.955 -0.234822 -1.55841 0
M  V30 8548 C 813.918 0.656378 -2.196 0
M  V30 8549 C 814.918 1.11179 -1.16171 0
M  V30 8550 O 816.108 1.01845 -1.41326 0
M  V30 8551 C 813.24 1.90072 -2.82993 0
M  V30 8552 H 814.433 0.100281 -2.99732 0
M  V30 8553 H 811.986 0.0147613 -1.56293 0
M  V30 8554 H 812.721 2.49836 -2.06767 0
M  V30 8555 H 812.506 1.5825 -3.58747 0
M  V30 8556 H 813.996 2.53538 -3.31826 0
M  V30 8557 N 814.433 1.57553 0.0384317 0
M  V30 8558 C 815.363 2.0898 1.04161 0
M  V30 8559 C 816.344 0.99029 1.38301 0
M  V30 8560 O 817.529 1.26499 1.47349 0
M  V30 8561 C 814.659 2.56145 2.34536 0
M  V30 8562 C 813.613 3.70275 2.14663 0
M  V30 8563 C 812.939 4.03612 3.50715 0
M  V30 8564 C 814.239 4.99067 1.54045 0
M  V30 8565 H 815.933 2.93046 0.613548 0
M  V30 8566 H 813.479 1.40973 0.293684 0
M  V30 8567 H 815.432 2.90741 3.05037 0
M  V30 8568 H 814.156 1.6915 2.79385 0
M  V30 8569 H 812.815 3.36013 1.46597 0
M  V30 8570 H 812.463 3.13698 3.93195 0
M  V30 8571 H 812.163 4.80482 3.38247 0
M  V30 8572 H 813.687 4.40735 4.22593 0
M  V30 8573 H 815.101 5.3168 2.14451 0
M  V30 8574 H 813.498 5.80484 1.52178 0
M  V30 8575 H 814.568 4.8226 0.505259 0
M  V30 8576 N 815.911 -0.310526 1.54511 0
M  V30 8577 C 816.861 -1.38405 1.81185 0
M  V30 8578 C 817.845 -1.46355 0.668499 0
M  V30 8579 O 819.037 -1.50668 0.928873 0
M  V30 8580 C 816.166 -2.75059 2.0542 0
M  V30 8581 C 815.252 -2.7137 3.25913 0
M  V30 8582 N 815.643 -2.37298 4.4668 0
M  V30 8583 C 813.941 -3.02484 3.27749 0
M  V30 8584 C 814.642 -2.42669 5.28665 0
M  V30 8585 N 813.618 -2.79639 4.66158 0
M  V30 8586 H 817.42 -1.11012 2.72128 0
M  V30 8587 H 814.934 -0.519068 1.53881 0
M  V30 8588 H 816.931 -3.52451 2.22674 0
M  V30 8589 H 815.591 -3.03372 1.15739 0
M  V30 8590 H 816.602 -2.09917 4.73451 0
M  V30 8591 H 813.279 -3.35754 2.48144 0
M  V30 8592 H 814.669 -2.19206 6.35136 0
M  V30 8593 N 817.389 -1.46805 -0.573248 0
M  V30 8594 C 818.636 -1.52604 -1.3311 0
M  V30 8595 C 818.964 -0.181633 -1.9365 0
M  V30 8596 O 818.219 0.823775 -1.77517 0
M  V30 8597 C 818.518 -2.58001 -2.47326 0
M  V30 8598 C 818.184 -4.01747 -2.04719 0
M  V30 8599 C 816.846 -4.40881 -1.92814 0
M  V30 8600 C 819.198 -4.92008 -1.71982 0
M  V30 8601 C 816.526 -5.68129 -1.46445 0
M  V30 8602 C 818.878 -6.19703 -1.27089 0
M  V30 8603 C 817.542 -6.57733 -1.13768 0
M  V30 8604 H 816.812 -0.558417 -0.487084 0
M  V30 8605 H 819.459 -1.80327 -0.644538 0
M  V30 8606 H 817.764 -2.23974 -3.2147 0
M  V30 8607 H 819.461 -2.59715 -3.05531 0
M  V30 8608 H 816.051 -3.70819 -2.14922 0
M  V30 8609 H 820.235 -4.62485 -1.8006 0
M  V30 8610 H 815.491 -5.96359 -1.34783 0
M  V30 8611 H 819.665 -6.89064 -1.00814 0
M  V30 8612 H 817.292 -7.56228 -0.776142 0
M  V30 8613 N 818.867 0.818669 -1.34668 0
M  V30 8614 C 819.83 1.9114 -1.26483 0
M  V30 8615 C 820.83 1.598 -0.179044 0
M  V30 8616 O 822.02 1.6876 -0.431952 0
M  V30 8617 C 819.152 3.27285 -0.95381 0
M  V30 8618 H 820.345 1.9982 -2.23634 0
M  V30 8619 H 817.898 1.01314 -1.19018 0
M  V30 8620 H 818.633 3.24297 0.0143428 0
M  V30 8621 H 818.418 3.51416 -1.73924 0
M  V30 8622 H 819.908 4.07299 -0.921827 0
M  V30 8623 N 820.346 1.18468 1.03938 0
M  V30 8624 C 821.309 0.914944 2.10146 0
M  V30 8625 C 822.309 -0.10022 1.60487 0
M  V30 8626 O 823.499 0.133365 1.73689 0
M  V30 8627 C 820.631 0.372993 3.38853 0
M  V30 8628 H 821.824 1.85677 2.35508 0
M  V30 8629 H 819.377 0.996876 1.20383 0
M  V30 8630 H 820.112 -0.57538 3.19155 0
M  V30 8631 H 819.897 1.1048 3.76213 0
M  V30 8632 H 821.387 0.203014 4.17106 0
M  V30 8633 N 821.824 -1.22873 0.986916 0
M  V30 8634 C 823.24 -1.43594 0.696633 0
M  V30 8635 C 823.44 -1.87622 -0.734869 0
M  V30 8636 O 822.496 -2.02633 -1.50652 0
M  V30 8637 C 823.809 -2.48231 1.69711 0
M  V30 8638 C 825.357 -2.62037 1.71188 0
M  V30 8639 C 825.832 -3.6989 2.70084 0
M  V30 8640 N 827.323 -3.77341 2.68641 0
M  V30 8641 C 828.058 -4.6037 3.41829 0
M  V30 8642 N 827.554 -5.47438 4.24598 0
M  V30 8643 N 829.347 -4.54626 3.30563 0
M  V30 8644 H 821.498 -0.925982 1.91153 0
M  V30 8645 H 823.761 -0.46866 0.824052 0
M  V30 8646 H 823.467 -2.22812 2.72117 0
M  V30 8647 H 823.341 -3.46731 1.48516 0
M  V30 8648 H 825.728 -2.86803 0.694837 0
M  V30 8649 H 825.809 -1.63831 1.96451 0
M  V30 8650 H 825.453 -3.45872 3.71934 0
M  V30 8651 H 825.383 -4.67652 2.42093 0
M  V30 8652 H 827.874 -3.15124 2.08578 0
M  V30 8653 H 828.187 -6.078 4.77283 0
M  V30 8654 H 826.532 -5.4704 4.28687 0
M  V30 8655 H 829.723 -3.85627 2.65347 0
M  V30 8656 H 829.896 -5.19103 3.8786 0
M  V30 8657 N 823.302 -0.75937 -1.38099 0
M  V30 8658 C 824.212 -0.13774 -2.34195 0
M  V30 8659 C 825.228 0.693985 -1.59561 0
M  V30 8660 O 826.404 0.616792 -1.91723 0
M  V30 8661 C 823.469 0.740535 -3.38699 0
M  V30 8662 C 822.53 -0.106225 -4.29169 0
M  V30 8663 C 821.763 0.730225 -5.28681 0
M  V30 8664 O 821.986 1.96796 -5.35376 0
M  V30 8665 O 820.92 0.145969 -6.01723 0
M  V30 8666 H 824.746 -0.931512 -2.89061 0
M  V30 8667 H 822.331 -0.520345 -1.40046 0
M  V30 8668 H 824.213 1.24232 -4.02672 0
M  V30 8669 H 822.888 1.51271 -2.8618 0
M  V30 8670 H 821.795 -0.654088 -3.68337 0
M  V30 8671 H 823.128 -0.841186 -4.84959 0
M  V30 8672 N 824.78 1.49157 -0.508906 0
M  V30 8673 C 826.028 2.02073 0.0327335 0
M  V30 8674 C 826.349 1.39012 1.3675 0
M  V30 8675 O 825.619 0.548153 1.88075 0
M  V30 8676 H 824.199 0.746848 0.0150864 0
M  V30 8677 H 826.861 1.83097 -0.667946 0
M  V30 8678 H 825.957 3.11707 0.1566 0
M  V30 8679 N 826.258 0.243083 1.55714 0
M  V30 8680 C 827.208 -0.671915 2.17875 0
M  V30 8681 C 828.192 -1.14199 1.13347 0
M  V30 8682 O 829.384 -1.09239 1.39269 0
M  V30 8683 C 826.513 -1.87027 2.87881 0
M  V30 8684 C 825.599 -1.41888 3.99661 0
M  V30 8685 N 825.99 -0.681465 5.01188 0
M  V30 8686 C 824.288 -1.70447 4.12145 0
M  V30 8687 C 824.989 -0.448285 5.7997 0
M  V30 8688 N 823.965 -1.01137 5.34109 0
M  V30 8689 H 827.767 -0.100321 2.93729 0
M  V30 8690 H 825.281 0.0452371 1.62337 0
M  V30 8691 H 827.278 -2.53674 3.3084 0
M  V30 8692 H 825.938 -2.44613 2.13529 0
M  V30 8693 H 826.949 -0.331959 5.16835 0
M  V30 8694 H 823.626 -2.29198 3.48962 0
M  V30 8695 H 825.016 0.140141 6.71754 0
M  V30 8696 N 827.736 -1.57571 -0.0300757 0
M  V30 8697 C 828.699 -2.05468 -1.01565 0
M  V30 8698 C 829.699 -0.958628 -1.29101 0
M  V30 8699 O 830.889 -1.22228 -1.24121 0
M  V30 8700 C 828.021 -2.47077 -2.34874 0
M  V30 8701 H 829.214 -2.93797 -0.601936 0
M  V30 8702 H 826.767 -1.53828 -0.276878 0
M  V30 8703 H 827.502 -1.61901 -2.80996 0
M  V30 8704 H 827.287 -3.27097 -2.16218 0
M  V30 8705 H 828.777 -2.84564 -3.05635 0
M  V30 8706 N 829.214 0.302327 -1.54673 0
M  V30 8707 C 830.161 1.37282 -1.85532 0
M  V30 8708 C 831.131 1.50437 -0.704129 0
M  V30 8709 O 832.316 1.65317 -0.952627 0
M  V30 8710 C 829.456 2.73309 -2.10704 0
M  V30 8711 C 828.569 2.68614 -3.38335 0
M  V30 8712 C 827.704 3.96626 -3.53357 0
M  V30 8713 C 826.743 3.86324 -4.74784 0
M  V30 8714 N 825.88 5.06109 -4.86619 0
M  V30 8715 H 830.72 1.10265 -2.76849 0
M  V30 8716 H 828.257 0.533346 -1.37091 0
M  V30 8717 H 830.215 3.52414 -2.23294 0
M  V30 8718 H 828.845 2.98589 -1.22656 0
M  V30 8719 H 827.897 1.81381 -3.34373 0
M  V30 8720 H 829.209 2.56891 -4.27561 0
M  V30 8721 H 828.363 4.84168 -3.65604 0
M  V30 8722 H 827.102 4.11182 -2.62261 0
M  V30 8723 H 826.107 2.97166 -4.62572 0
M  V30 8724 H 827.332 3.73315 -5.67286 0
M  V30 8725 H 825.278 5.2113 -3.98446 0
M  V30 8726 H 825.195 4.96804 -5.69844 0
M  V30 8727 H 826.463 5.95306 -5.03221 0
M  V30 8728 N 830.692 1.47107 0.565454 0
M  V30 8729 C 831.655 1.58535 1.65527 0
M  V30 8730 C 832.655 0.461081 1.54048 0
M  V30 8731 O 833.845 0.725911 1.58355 0
M  V30 8732 C 830.977 1.52204 3.05036 0
M  V30 8733 H 832.17 2.55676 1.56747 0
M  V30 8734 H 829.723 1.35174 0.78471 0
M  V30 8735 H 830.458 0.564071 3.19357 0
M  V30 8736 H 830.243 2.3379 3.14777 0
M  V30 8737 H 831.733 1.63322 3.84338 0
M  V30 8738 N 832.17 -0.811516 1.35101 0
M  V30 8739 C 833.416 -1.57068 1.28287 0
M  V30 8740 C 833.749 -1.93667 -0.143808 0
M  V30 8741 O 833.024 -1.60953 -1.09199 0
M  V30 8742 C 833.307 -2.86259 2.18466 0
M  V30 8743 C 833.16 -2.56168 3.69727 0
M  V30 8744 C 834.479 -3.87924 2.07852 0
M  V30 8745 H 831.598 -0.569869 0.467353 0
M  V30 8746 H 834.24 -0.934023 1.65457 0
M  V30 8747 H 832.39 -3.4059 1.86898 0
M  V30 8748 H 834.062 -2.08059 4.11715 0
M  V30 8749 H 832.305 -1.89436 3.90252 0
M  V30 8750 H 832.976 -3.48344 4.28206 0
M  V30 8751 H 835.452 -3.4298 2.35593 0
M  V30 8752 H 834.328 -4.76106 2.73157 0
M  V30 8753 H 834.589 -4.2923 1.05896 0
M  V30 8754 N 833.648 -1.19017 -1.03309 0
M  V30 8755 C 834.611 -0.926076 -2.09658 0
M  V30 8756 C 835.611 0.0917077 -1.60538 0
M  V30 8757 O 836.801 -0.142574 -1.73616 0
M  V30 8758 C 833.933 -0.390958 -3.38651 0
M  V30 8759 H 835.126 -1.86923 -2.3452 0
M  V30 8760 H 832.679 -1.00325 -1.19853 0
M  V30 8761 H 833.414 0.558446 -3.19456 0
M  V30 8762 H 833.199 -1.12474 -3.75622 0
M  V30 8763 H 834.689 -0.225131 -4.16993 0
M  V30 8764 N 835.127 1.22348 -0.993418 0
M  V30 8765 C 836.057 2.26584 -0.564088 0
M  V30 8766 C 837.038 1.65102 0.409298 0
M  V30 8767 O 838.223 1.91872 0.299819 0
M  V30 8768 C 835.353 3.47087 0.121554 0
M  V30 8769 C 834.307 4.21009 -0.770429 0
M  V30 8770 C 833.633 5.34678 0.0481586 0
M  V30 8771 C 834.933 4.79636 -2.06752 0
M  V30 8772 H 836.627 2.62749 -1.43538 0
M  V30 8773 H 834.173 1.26303 -0.691628 0
M  V30 8774 H 836.126 4.19166 0.433303 0
M  V30 8775 H 834.85 3.1002 1.0274 0
M  V30 8776 H 833.509 3.50764 -1.06583 0
M  V30 8777 H 833.157 4.93852 0.954933 0
M  V30 8778 H 832.857 5.85061 -0.545641 0
M  V30 8779 H 834.381 6.09573 0.353991 0
M  V30 8780 H 835.795 5.43654 -1.81969 0
M  V30 8781 H 834.192 5.4036 -2.61019 0
M  V30 8782 H 835.262 3.99659 -2.74592 0
M  V30 8783 N 836.605 0.766683 1.37694 0
M  V30 8784 C 837.535 0.163432 2.32927 0
M  V30 8785 C 838.516 -0.688861 1.55527 0
M  V30 8786 O 839.701 -0.627363 1.83787 0
M  V30 8787 C 836.831 -0.720416 3.39746 0
M  V30 8788 C 835.785 0.0301718 4.27989 0
M  V30 8789 C 835.111 -0.972788 5.25776 0
M  V30 8790 C 836.411 1.20623 5.0818 0
M  V30 8791 H 838.105 0.958988 2.83626 0
M  V30 8792 H 835.651 0.462601 1.36367 0
M  V30 8793 H 837.604 -1.15221 4.05342 0
M  V30 8794 H 836.328 -1.54844 2.8756 0
M  V30 8795 H 834.987 0.442685 3.63917 0
M  V30 8796 H 834.635 -1.79522 4.69873 0
M  V30 8797 H 834.335 -0.475145 5.85676 0
M  V30 8798 H 835.859 -1.40362 5.94248 0
M  V30 8799 H 837.273 0.851341 5.66944 0
M  V30 8800 H 835.67 1.63561 5.7738 0
M  V30 8801 H 836.74 2.01281 4.41151 0
M  V30 8802 N 838.083 -1.48885 0.516809 0
M  V30 8803 C 839.013 -2.32241 -0.242157 0
M  V30 8804 C 839.994 -1.41258 -0.947633 0
M  V30 8805 O 841.179 -1.70156 -0.935973 0
M  V30 8806 C 838.309 -3.22151 -1.29754 0
M  V30 8807 C 837.263 -4.22053 -0.710995 0
M  V30 8808 C 836.589 -5.01007 -1.86806 0
M  V30 8809 C 837.889 -5.21388 0.30853 0
M  V30 8810 H 839.583 -2.95943 0.453651 0
M  V30 8811 H 837.129 -1.42316 0.219612 0
M  V30 8812 H 839.082 -3.79284 -1.83634 0
M  V30 8813 H 837.806 -2.56423 -2.02274 0
M  V30 8814 H 836.465 -3.66087 -0.193819 0
M  V30 8815 H 836.113 -4.31713 -2.58133 0
M  V30 8816 H 835.813 -5.68615 -1.48159 0
M  V30 8817 H 837.337 -5.60989 -2.4109 0
M  V30 8818 H 838.751 -5.73122 -0.142703 0
M  V30 8819 H 837.148 -5.96975 0.611673 0
M  V30 8820 H 838.218 -4.69329 1.21894 0
M  V30 8821 N 839.561 -0.251338 -1.55583 0
M  V30 8822 C 840.786 0.379136 -2.03905 0
M  V30 8823 C 841.211 1.50428 -1.12929 0
M  V30 8824 O 840.569 1.80882 -0.123114 0
M  V30 8825 C 840.617 0.86009 -3.50193 0
M  V30 8826 O 839.721 1.96932 -3.62342 0
M  V30 8827 H 839.062 0.0820183 -0.658915 0
M  V30 8828 H 841.592 -0.378692 -2.01065 0
M  V30 8829 H 841.602 1.16214 -3.91099 0
M  V30 8830 H 840.277 0.0367559 -4.15884 0
M  V30 8831 H 838.854 1.67163 -3.33333 0
M  V30 8832 N 841.039 1.57585 0.0217189 0
M  V30 8833 C 841.989 2.03506 1.02807 0
M  V30 8834 C 842.973 0.925716 1.31603 0
M  V30 8835 O 844.165 1.18958 1.31065 0
M  V30 8836 C 841.294 2.52407 2.32693 0
M  V30 8837 C 840.38 3.70176 2.06955 0
M  V30 8838 N 840.771 4.82641 1.513 0
M  V30 8839 C 839.069 3.77691 2.37204 0
M  V30 8840 C 839.77 5.64218 1.41536 0
M  V30 8841 N 838.746 5.09557 1.89348 0
M  V30 8842 H 842.548 2.87878 0.591899 0
M  V30 8843 H 840.062 1.60793 0.227875 0
M  V30 8844 H 842.059 2.83569 3.05605 0
M  V30 8845 H 840.719 1.69444 2.76982 0
M  V30 8846 H 841.73 5.03931 1.19472 0
M  V30 8847 H 838.407 3.05542 2.84517 0
M  V30 8848 H 839.797 6.64576 0.989333 0
M  V30 8849 N 842.517 -0.29412 1.54831 0
M  V30 8850 C 843.465 -1.38296 1.87021 0
M  V30 8851 C 844.459 -1.5216 0.744557 0
M  V30 8852 O 845.665 -1.54196 0.92864 0
M  V30 8853 H 842.04 -0.462088 0.593278 0
M  V30 8854 H 844.011 -1.08386 2.7802 0
M  V30 8855 C 842.76 -2.74024 2.14023 0
M  V30 8856 H 842.083 -2.6414 3.00117 0
M  V30 8857 H 843.523 -3.49205 2.40482 0
M  V30 8858 C 841.982 -3.23492 0.940982 0
M  V30 8859 O 842.512 -4.01361 0.164937 0
M  V30 8860 N 840.718 -2.80902 0.744467 0
M  V30 8861 H 840.265 -2.17694 1.37721 0
M  V30 8862 H 840.223 -3.14349 -0.0563652 0
M  V30 8863 N 843.995 -1.47404 -0.557645 0
M  V30 8864 C 844.958 -1.59411 -1.64684 0
M  V30 8865 C 845.958 -0.469244 -1.53801 0
M  V30 8866 O 847.148 -0.734298 -1.57967 0
M  V30 8867 C 844.28 -1.5382 -3.04224 0
M  V30 8868 H 845.473 -2.56504 -1.55389 0
M  V30 8869 H 843.026 -1.35588 -0.777531 0
M  V30 8870 H 843.761 -0.581 -3.19053 0
M  V30 8871 H 843.546 -2.35456 -3.13533 0
M  V30 8872 H 845.036 -1.65358 -3.83466 0
M  V30 8873 N 845.473 0.80434 -1.35529 0
M  V30 8874 C 846.75 1.5486 -1.1949 0
M  V30 8875 C 847.13 2.09897 0.22506 0
M  V30 8876 O 846.478 1.92643 1.22886 0
M  V30 8877 C 846.688 2.65535 -2.26478 0
M  V30 8878 C 848.036 3.33814 -2.62399 0
M  V30 8879 O 849.06 2.75807 -2.25409 0
M  V30 8880 O 847.919 4.38612 -3.26009 0
M  V30 8881 H 845.013 0.68433 -0.464351 0
M  V30 8882 H 847.559 0.844107 -1.47217 0
M  V30 8883 H 846.331 2.22754 -3.21709 0
M  V30 8884 H 845.954 3.43617 -2.00033 0
M  V30 8885 N 846.951 1.19563 1.02676 0
M  V30 8886 C 848.2 0.993864 1.75514 0
M  V30 8887 C 848.513 -0.475882 1.89723 0
M  V30 8888 O 849.719 -0.796525 2.59553 0
M  V30 8889 C 848.175 1.72937 3.15628 0
M  V30 8890 C 847.783 3.23937 3.09466 0
M  V30 8891 C 849.527 1.61092 3.92746 0
M  V30 8892 C 847.434 3.90067 4.44524 0
M  V30 8893 H 846.364 0.368244 0.657961 0
M  V30 8894 H 849.015 1.43081 1.14891 0
M  V30 8895 H 847.397 1.22025 3.76731 0
M  V30 8896 H 848.571 3.81983 2.57731 0
M  V30 8897 H 846.886 3.3608 2.45843 0
M  V30 8898 H 849.483 2.07848 4.92649 0
M  V30 8899 H 849.826 0.565415 4.12442 0
M  V30 8900 H 850.359 2.09361 3.3825 0
M  V30 8901 H 847.098 4.94725 4.30032 0
M  V30 8902 H 846.618 3.36809 4.96306 0
M  V30 8903 H 848.297 3.93736 5.13401 0
M  V30 8904 N 848.429 -1.21819 0.999893 0
M  V30 8905 C 849.675 -1.91035 0.680701 0
M  V30 8906 C 850.008 -1.77582 -0.786021 0
M  V30 8907 O 849.283 -1.14917 -1.56921 0
M  V30 8908 C 849.566 -3.43013 1.0961 0
M  V30 8909 C 849.419 -3.65481 2.6219 0
M  V30 8910 C 850.738 -4.35204 0.654616 0
M  V30 8911 H 847.857 -0.693748 0.248763 0
M  V30 8912 H 850.499 -1.43555 1.24466 0
M  V30 8913 H 848.649 -3.83581 0.616253 0
M  V30 8914 H 850.321 -3.34273 3.17899 0
M  V30 8915 H 848.564 -3.09522 3.03938 0
M  V30 8916 H 849.235 -4.71945 2.86307 0
M  V30 8917 H 851.711 -4.0219 1.06688 0
M  V30 8918 H 850.587 -5.40198 0.973492 0
M  V30 8919 H 850.848 -4.3986 -0.444458 0
M  V30 8920 N 849.908 -0.773975 -1.37286 0
M  V30 8921 C 850.838 -0.175782 -2.32837 0
M  V30 8922 C 851.819 0.680603 -1.5589 0
M  V30 8923 O 853.004 0.617607 -1.84117 0
M  V30 8924 C 850.134 0.702388 -3.40123 0
M  V30 8925 C 849.088 -0.0528687 -4.27967 0
M  V30 8926 C 848.414 0.944891 -5.26285 0
M  V30 8927 C 849.714 -1.23316 -5.07534 0
M  V30 8928 H 851.408 -0.974016 -2.83114 0
M  V30 8929 H 848.954 -0.469826 -1.3612 0
M  V30 8930 H 850.907 1.13069 -4.05947 0
M  V30 8931 H 849.631 1.53316 -2.88378 0
M  V30 8932 H 848.29 -0.461978 -3.63678 0
M  V30 8933 H 847.938 1.77028 -4.70819 0
M  V30 8934 H 847.638 0.444079 -5.8592 0
M  V30 8935 H 849.162 1.37209 -5.94984 0
M  V30 8936 H 850.576 -0.881395 -5.66484 0
M  V30 8937 H 848.973 -1.66621 -5.76504 0
M  V30 8938 H 850.043 -2.03617 -4.40077 0
M  V30 8939 N 851.386 1.48609 -0.524698 0
M  V30 8940 C 852.334 2.31205 0.254398 0
M  V30 8941 C 853.328 1.40894 0.940491 0
M  V30 8942 O 854.534 1.57827 0.865478 0
M  V30 8943 H 850.909 0.745199 0.100907 0
M  V30 8944 H 852.88 2.94804 -0.461876 0
M  V30 8945 C 851.629 3.2282 1.2916 0
M  V30 8946 H 850.952 3.92255 0.773074 0
M  V30 8947 H 852.392 3.83508 1.80825 0
M  V30 8948 C 850.851 2.4406 2.32242 0
M  V30 8949 O 851.381 2.16163 3.3858 0
M  V30 8950 N 849.587 2.05651 2.05319 0
M  V30 8951 H 849.134 2.28539 1.18861 0
M  V30 8952 H 849.092 1.53265 2.74513 0
M  V30 8953 N 852.864 0.259585 1.55447 0
M  V30 8954 C 853.811 -0.634578 2.21905 0
M  V30 8955 C 854.781 -1.16168 1.18719 0
M  V30 8956 O 855.966 -1.21383 1.4721 0
M  V30 8957 C 853.106 -1.82005 2.93203 0
M  V30 8958 C 852.219 -1.32828 4.11073 0
M  V30 8959 C 851.354 -2.47431 4.70055 0
M  V30 8960 C 850.393 -1.95179 5.80148 0
M  V30 8961 N 849.53 -3.03197 6.33258 0
M  V30 8962 H 854.37 -0.0611886 2.97937 0
M  V30 8963 H 851.907 -0.0184378 1.47088 0
M  V30 8964 H 853.865 -2.51664 3.32748 0
M  V30 8965 H 852.495 -2.36571 2.19622 0
M  V30 8966 H 851.547 -0.525301 3.76756 0
M  V30 8967 H 852.859 -0.905435 4.90513 0
M  V30 8968 H 852.013 -3.25111 5.12238 0
M  V30 8969 H 850.752 -2.93023 3.89857 0
M  V30 8970 H 849.757 -1.15974 5.37429 0
M  V30 8971 H 850.982 -1.50541 6.62204 0
M  V30 8972 H 848.928 -3.48199 5.55961 0
M  V30 8973 H 848.845 -2.65282 7.07928 0
M  V30 8974 H 850.113 -3.80898 6.80101 0
M  V30 8975 N 854.342 -1.57594 -0.0133615 0
M  V30 8976 C 855.274 -2.04402 -1.03695 0
M  V30 8977 C 856.287 -0.959546 -1.31516 0
M  V30 8978 O 857.476 -1.23659 -1.28727 0
M  V30 8979 C 854.576 -2.41766 -2.37491 0
M  V30 8980 C 853.749 -3.72785 -2.28802 0
M  V30 8981 C 852.808 -3.97165 -3.45176 0
M  V30 8982 O 851.834 -4.68013 -3.23963 0
M  V30 8983 N 853.036 -3.44021 -4.67579 0
M  V30 8984 H 855.801 -2.92833 -0.637874 0
M  V30 8985 H 853.362 -1.60647 -0.20101 0
M  V30 8986 H 855.354 -2.55201 -3.14093 0
M  V30 8987 H 853.924 -1.58924 -2.69188 0
M  V30 8988 H 853.144 -3.69555 -1.37197 0
M  V30 8989 H 854.432 -4.58704 -2.20154 0
M  V30 8990 H 853.83 -2.86623 -4.87713 0
M  V30 8991 H 852.387 -3.62808 -5.41492 0
M  V30 8992 N 855.82 0.285905 -1.54985 0
M  V30 8993 C 856.752 1.37505 -1.83371 0
M  V30 8994 C 857.765 1.46138 -0.717454 0
M  V30 8995 O 858.954 1.48186 -0.995142 0
M  V30 8996 C 856.054 2.7575 -1.97016 0
M  V30 8997 C 855.227 2.89866 -3.27561 0
M  V30 8998 C 854.286 4.08704 -3.31433 0
M  V30 8999 O 853.312 4.00073 -4.04883 0
M  V30 9000 N 854.514 5.20062 -2.57907 0
M  V30 9001 H 857.279 1.13505 -2.77375 0
M  V30 9002 H 854.84 0.476006 -1.54744 0
M  V30 9003 H 856.832 3.5352 -1.96991 0
M  V30 9004 H 855.402 2.9263 -1.09938 0
M  V30 9005 H 854.622 1.99085 -3.40234 0
M  V30 9006 H 855.91 2.96219 -4.13681 0
M  V30 9007 H 855.308 5.29958 -1.97891 0
M  V30 9008 H 853.865 5.96111 -2.63619 0
M  V30 9009 N 857.298 1.47698 0.54982 0
M  V30 9010 C 858.261 1.60282 1.63837 0
M  V30 9011 C 859.261 0.477394 1.5355 0
M  V30 9012 O 860.451 0.742665 1.57576 0
M  V30 9013 C 857.583 1.55431 3.03404 0
M  V30 9014 H 858.776 2.57325 1.54026 0
M  V30 9015 H 856.329 1.35999 0.770329 0
M  V30 9016 H 857.064 0.597912 3.1874 0
M  V30 9017 H 856.849 2.37116 3.12279 0
M  V30 9018 H 858.339 1.6739 3.82584 0
M  V30 9019 N 858.776 -0.797141 1.35954 0
M  V30 9020 C 860.001 -1.59097 1.33053 0
M  V30 9021 C 860.426 -1.87897 -0.0874592 0
M  V30 9022 O 859.784 -1.47291 -1.05712 0
M  V30 9023 C 859.832 -2.89346 2.152 0
M  V30 9024 O 858.936 -3.826 1.5392 0
M  V30 9025 H 858.277 -0.482895 0.45575 0
M  V30 9026 H 860.807 -0.988633 1.79129 0
M  V30 9027 H 860.817 -3.38686 2.27499 0
M  V30 9028 H 859.492 -2.6771 3.18283 0
M  V30 9029 H 858.069 -3.41174 1.50516 0
M  V30 9030 N 860.254 -1.20106 -1.0204 0
M  V30 9031 C 861.501 -1.00889 -1.75578 0
M  V30 9032 C 861.829 0.459415 -1.88996 0
M  V30 9033 O 861.084 1.35735 -1.40977 0
M  V30 9034 C 861.383 -1.63308 -3.17908 0
M  V30 9035 C 861.049 -3.13091 -3.24476 0
M  V30 9036 C 859.711 -3.53968 -3.25976 0
M  V30 9037 C 862.063 -4.09093 -3.22944 0
M  V30 9038 C 859.391 -4.89381 -3.2361 0
M  V30 9039 C 861.743 -5.44447 -3.22119 0
M  V30 9040 C 860.407 -5.84742 -3.2192 0
M  V30 9041 H 859.677 -0.36918 -0.642485 0
M  V30 9042 H 862.324 -1.49475 -1.19706 0
M  V30 9043 H 860.629 -1.06974 -3.76914 0
M  V30 9044 H 862.326 -1.45958 -3.73493 0
M  V30 9045 H 858.916 -2.80526 -3.24042 0
M  V30 9046 H 863.1 -3.78549 -3.20958 0
M  V30 9047 H 858.356 -5.1987 -3.21785 0
M  V30 9048 H 862.53 -6.18584 -3.19885 0
M  V30 9049 H 860.157 -6.89642 -3.19841 0
M  V30 9050 N 861.732 1.21287 -1.00634 0
M  V30 9051 C 862.662 2.25973 -0.588089 0
M  V30 9052 C 863.643 1.65527 0.391764 0
M  V30 9053 O 864.828 1.92179 0.279452 0
M  V30 9054 C 861.958 3.47197 0.0847336 0
M  V30 9055 C 860.912 4.20168 -0.815039 0
M  V30 9056 C 860.238 5.34699 -0.00855393 0
M  V30 9057 C 861.538 4.77416 -2.11828 0
M  V30 9058 H 863.232 2.61212 -1.46317 0
M  V30 9059 H 860.778 1.25563 -0.704985 0
M  V30 9060 H 862.731 4.19602 0.388821 0
M  V30 9061 H 861.455 3.11092 0.994456 0
M  V30 9062 H 860.114 3.49614 -1.10297 0
M  V30 9063 H 859.762 4.94837 0.902499 0
M  V30 9064 H 859.462 5.84449 -0.607664 0
M  V30 9065 H 860.986 6.09914 0.289317 0
M  V30 9066 H 862.4 5.41694 -1.87725 0
M  V30 9067 H 860.797 5.37561 -2.66736 0
M  V30 9068 H 861.867 3.96724 -2.78816 0
M  V30 9069 N 863.21 0.781244 1.36873 0
M  V30 9070 C 864.16 0.147313 2.27524 0
M  V30 9071 C 865.144 -0.663928 1.46563 0
M  V30 9072 O 866.336 -0.525343 1.69024 0
M  V30 9073 C 863.465 -0.723511 3.35589 0
M  V30 9074 C 862.551 0.0960763 4.23991 0
M  V30 9075 N 862.942 1.14649 4.92635 0
M  V30 9076 C 861.24 -0.126397 4.45821 0
M  V30 9077 C 861.941 1.64474 5.57964 0
M  V30 9078 N 860.917 0.955316 5.3514 0
M  V30 9079 H 864.719 0.951406 2.78075 0
M  V30 9080 H 862.233 0.619913 1.50103 0
M  V30 9081 H 864.23 -1.19351 3.99451 0
M  V30 9082 H 862.89 -1.52624 2.86594 0
M  V30 9083 H 863.901 1.5288 4.94821 0
M  V30 9084 H 860.578 -0.900284 4.07678 0
M  V30 9085 H 861.968 2.52124 6.22803 0
M  V30 9086 N 864.689 -1.48329 0.532571 0
M  V30 9087 C 865.619 -2.32485 -0.217511 0
M  V30 9088 C 866.6 -1.42255 -0.932598 0
M  V30 9089 O 867.785 -1.7114 -0.917873 0
M  V30 9090 C 864.915 -3.23509 -1.26329 0
M  V30 9091 C 863.869 -4.22784 -0.666191 0
M  V30 9092 C 863.195 -5.0296 -1.81482 0
M  V30 9093 C 864.495 -5.21031 0.363813 0
M  V30 9094 H 866.189 -2.95445 0.485014 0
M  V30 9095 H 863.735 -1.42075 0.234694 0
M  V30 9096 H 865.688 -3.81211 -1.79601 0
M  V30 9097 H 864.412 -2.58554 -1.99543 0
M  V30 9098 H 863.071 -3.66272 -0.15498 0
M  V30 9099 H 862.719 -4.34427 -2.5354 0
M  V30 9100 H 862.419 -5.70154 -1.4212 0
M  V30 9101 H 863.943 -5.63514 -2.35126 0
M  V30 9102 H 865.357 -5.73241 -0.0819079 0
M  V30 9103 H 863.754 -5.96292 0.674956 0
M  V30 9104 H 864.824 -4.6801 1.26865 0
M  V30 9105 N 866.167 -0.267825 -1.55308 0
M  V30 9106 C 867.13 0.60965 -2.20943 0
M  V30 9107 C 868.13 1.0869 -1.18504 0
M  V30 9108 O 869.32 0.988248 -1.43455 0
M  V30 9109 C 866.452 1.84027 -2.86961 0
M  V30 9110 H 867.645 0.0366806 -2.99878 0
M  V30 9111 H 865.198 -0.0183941 -1.56289 0
M  V30 9112 H 865.933 2.45394 -2.1202 0
M  V30 9113 H 865.718 1.50605 -3.62023 0
M  V30 9114 H 867.208 2.46442 -3.37129 0
M  V30 9115 N 867.645 1.57599 0.00500368 0
M  V30 9116 C 868.575 2.11143 0.99705 0
M  V30 9117 C 869.556 1.0194 1.3617 0
M  V30 9118 O 870.741 1.29596 1.44632 0
M  V30 9119 C 867.871 2.61062 2.2905 0
M  V30 9120 C 866.825 3.74745 2.0676 0
M  V30 9121 C 866.151 4.10961 3.42075 0
M  V30 9122 C 867.451 5.02222 1.43424 0
M  V30 9123 H 869.145 2.94281 0.551251 0
M  V30 9124 H 866.691 1.41565 0.263715 0
M  V30 9125 H 868.644 2.97146 2.98801 0
M  V30 9126 H 867.368 1.75038 2.75734 0
M  V30 9127 H 866.027 3.39047 1.39436 0
M  V30 9128 H 865.675 3.21968 3.86453 0
M  V30 9129 H 865.375 4.87549 3.27979 0
M  V30 9130 H 866.899 4.49599 4.1315 0
M  V30 9131 H 868.313 5.36109 2.03125 0
M  V30 9132 H 866.71 5.83581 1.39831 0
M  V30 9133 H 867.78 4.83224 0.40285 0
M  V30 9134 N 869.123 -0.277682 1.55134 0
M  V30 9135 C 870.073 -1.34531 1.8408 0
M  V30 9136 C 871.057 -1.44904 0.699393 0
M  V30 9137 O 872.249 -1.48664 0.960623 0
M  V30 9138 C 869.378 -2.7064 2.11208 0
M  V30 9139 C 868.464 -2.64396 3.31596 0
M  V30 9140 N 868.855 -2.2777 4.51613 0
M  V30 9141 C 867.153 -2.95464 3.34091 0
M  V30 9142 C 867.854 -2.31401 5.33693 0
M  V30 9143 N 866.83 -2.69688 4.71984 0
M  V30 9144 H 870.632 -1.05214 2.74421 0
M  V30 9145 H 868.146 -0.486311 1.54948 0
M  V30 9146 H 870.143 -3.47649 2.301 0
M  V30 9147 H 868.803 -3.00849 1.22148 0
M  V30 9148 H 869.814 -1.99827 4.77797 0
M  V30 9149 H 866.491 -3.30415 2.5521 0
M  V30 9150 H 867.881 -2.05685 6.39643 0
M  V30 9151 N 870.601 -1.47988 -0.541979 0
M  V30 9152 C 871.549 -1.62044 -1.66867 0
M  V30 9153 C 872.543 -0.487217 -1.62242 0
M  V30 9154 O 873.749 -0.66554 -1.67244 0
M  V30 9155 H 870.124 -0.51024 -0.552412 0
M  V30 9156 H 872.095 -2.56695 -1.52153 0
M  V30 9157 C 870.844 -1.66615 -3.0518 0
M  V30 9158 H 870.167 -2.5317 -3.09427 0
M  V30 9159 H 871.607 -1.80496 -3.83663 0
M  V30 9160 C 870.066 -0.402421 -3.34488 0
M  V30 9161 O 870.596 0.48992 -3.98701 0
M  V30 9162 N 868.802 -0.277778 -2.89269 0
M  V30 9163 H 868.349 -1.00488 -2.37192 0
M  V30 9164 H 868.307 0.566784 -3.09249 0
M  V30 9165 N 872.079 0.78992 -1.36375 0
M  V30 9166 C 873.026 1.90254 -1.3066 0
M  V30 9167 C 873.996 1.65171 -0.17539 0
M  V30 9168 O 875.181 1.87338 -0.361824 0
M  V30 9169 C 872.321 3.27057 -1.10125 0
M  V30 9170 C 871.434 3.64215 -2.32317 0
M  V30 9171 C 870.569 4.90134 -2.04798 0
M  V30 9172 C 869.608 5.19969 -3.22953 0
M  V30 9173 N 868.745 6.37071 -2.95102 0
M  V30 9174 H 873.585 1.94474 -2.25796 0
M  V30 9175 H 871.122 0.951022 -1.12223 0
M  V30 9176 H 873.08 4.05947 -0.962453 0
M  V30 9177 H 871.71 3.22261 -0.186444 0
M  V30 9178 H 870.762 2.80454 -2.57002 0
M  V30 9179 H 872.074 3.82212 -3.20492 0
M  V30 9180 H 871.228 5.76888 -1.87845 0
M  V30 9181 H 869.967 4.74205 -1.13932 0
M  V30 9182 H 868.972 4.31699 -3.40465 0
M  V30 9183 H 870.197 5.37817 -4.14644 0
M  V30 9184 H 868.143 6.22535 -2.06848 0
M  V30 9185 H 868.06 6.55398 -3.76815 0
M  V30 9186 H 869.328 7.26808 -2.81727 0
M  V30 9187 N 873.557 1.20646 1.01402 0
M  V30 9188 C 874.973 0.961866 1.27359 0
M  V30 9189 C 875.173 -0.357083 1.98311 0
M  V30 9190 O 874.229 -1.08498 2.28001 0
M  V30 9191 C 875.542 2.14627 2.10609 0
M  V30 9192 C 877.09 2.18753 2.23866 0
M  V30 9193 C 877.565 3.36686 3.10494 0
M  V30 9194 N 879.056 3.36716 3.18083 0
M  V30 9195 C 879.791 4.24615 3.85343 0
M  V30 9196 N 879.287 5.22697 4.54708 0
M  V30 9197 N 881.08 4.12449 3.81893 0
M  V30 9198 H 873.231 2.05481 0.537721 0
M  V30 9199 H 875.494 0.899292 0.299963 0
M  V30 9200 H 875.2 3.10159 1.65814 0
M  V30 9201 H 875.074 2.12935 3.11349 0
M  V30 9202 H 877.461 1.23782 2.67885 0
M  V30 9203 H 877.542 2.24492 1.22626 0
M  V30 9204 H 877.186 4.31945 2.67181 0
M  V30 9205 H 877.116 3.28185 4.11828 0
M  V30 9206 H 879.607 2.65728 2.68695 0
M  V30 9207 H 879.92 5.86087 5.03708 0
M  V30 9208 H 878.265 5.26631 4.53525 0
M  V30 9209 H 881.456 3.35091 3.26851 0
M  V30 9210 H 881.629 4.81162 4.34035 0
M  V30 9211 N 875.035 -1.20752 1.01276 0
M  V30 9212 C 875.982 -2.234 0.579732 0
M  V30 9213 C 876.952 -1.61256 -0.398206 0
M  V30 9214 O 878.137 -1.8845 -0.29851 0
M  V30 9215 C 875.277 -3.45008 -0.0797006 0
M  V30 9216 C 874.39 -4.21597 0.942343 0
M  V30 9217 C 873.525 -5.30591 0.254364 0
M  V30 9218 C 872.564 -5.98919 1.26343 0
M  V30 9219 N 871.701 -6.99511 0.602384 0
M  V30 9220 H 876.541 -2.59801 1.45971 0
M  V30 9221 H 874.078 -1.27663 0.730787 0
M  V30 9222 H 876.036 -4.1444 -0.479125 0
M  V30 9223 H 874.666 -3.09312 -0.923354 0
M  V30 9224 H 873.718 -3.51268 1.45996 0
M  V30 9225 H 875.03 -4.68576 1.70992 0
M  V30 9226 H 874.184 -6.06368 -0.200763 0
M  V30 9227 H 872.923 -4.84639 -0.545553 0
M  V30 9228 H 871.928 -5.21906 1.72898 0
M  V30 9229 H 873.153 -6.46957 2.06456 0
M  V30 9230 H 871.099 -6.55759 -0.177734 0
M  V30 9231 H 871.016 -7.44597 1.30809 0
M  V30 9232 H 872.284 -7.79313 0.17072 0
M  V30 9233 N 876.513 -0.788492 -1.36457 0
M  V30 9234 C 877.423 -0.187385 -2.3385 0
M  V30 9235 C 878.439 0.659984 -1.60998 0
M  V30 9236 O 879.615 0.575986 -1.92988 0
M  V30 9237 C 876.68 0.668525 -3.40194 0
M  V30 9238 C 875.741 -0.197234 -4.28847 0
M  V30 9239 C 874.974 0.61792 -5.30111 0
M  V30 9240 O 875.197 1.85396 -5.3943 0
M  V30 9241 O 874.131 0.0183016 -6.01897 0
M  V30 9242 H 877.957 -0.992617 -2.87021 0
M  V30 9243 H 875.542 -0.549934 -1.3891 0
M  V30 9244 H 877.424 1.15663 -4.05216 0
M  V30 9245 H 876.099 1.45166 -2.89324 0
M  V30 9246 H 875.006 -0.73207 -3.66867 0
M  V30 9247 H 876.339 -0.943863 -4.83065 0
M  V30 9248 N 877.991 1.48044 -0.54043 0
M  V30 9249 C 879.237 2.02797 -0.0101718 0
M  V30 9250 C 879.57 1.41565 1.32939 0
M  V30 9251 O 878.845 0.565139 1.86109 0
M  V30 9252 C 879.128 3.59959 0.100758 0
M  V30 9253 C 878.981 4.31654 -1.26471 0
M  V30 9254 C 880.3 4.32347 0.822455 0
M  V30 9255 H 877.419 0.736982 -0.00517052 0
M  V30 9256 H 880.061 1.76656 -0.69948 0
M  V30 9257 H 878.211 3.82363 0.687824 0
M  V30 9258 H 879.883 4.20639 -1.89369 0
M  V30 9259 H 878.126 3.92663 -1.84386 0
M  V30 9260 H 878.797 5.401 -1.13998 0
M  V30 9261 H 881.273 4.14835 0.324164 0
M  V30 9262 H 880.149 5.41978 0.868993 0
M  V30 9263 H 880.41 4.00369 1.87501 0
M  V30 9264 N 879.47 0.276058 1.55163 0
M  V30 9265 C 880.716 -0.340959 1.99913 0
M  V30 9266 C 881.049 -1.55434 1.16422 0
M  V30 9267 O 880.324 -1.93081 0.234517 0
M  V30 9268 C 880.607 -0.722211 3.52783 0
M  V30 9269 C 880.46 0.498575 4.47028 0
M  V30 9270 C 881.779 -1.5583 4.11589 0
M  V30 9271 H 878.898 -0.122455 0.726756 0
M  V30 9272 H 881.54 0.38319 1.86096 0
M  V30 9273 H 879.69 -1.33919 3.64689 0
M  V30 9274 H 881.362 1.13713 4.47065 0
M  V30 9275 H 879.605 1.13646 4.18649 0
M  V30 9276 H 880.276 0.188041 5.5168 0
M  V30 9277 H 882.752 -1.03722 4.02965 0
M  V30 9278 H 881.628 -1.79387 5.1876 0
M  V30 9279 H 881.889 -2.53963 3.61877 0
M  V30 9280 N 880.948 -1.576 0.00335426 0
M  V30 9281 C 881.878 -2.11668 -0.985839 0
M  V30 9282 C 882.859 -1.02661 -1.35627 0
M  V30 9283 O 884.044 -1.30361 -1.43943 0
M  V30 9284 C 881.174 -2.62273 -2.27662 0
M  V30 9285 C 880.128 -3.75837 -2.0477 0
M  V30 9286 C 879.454 -4.12769 -3.39891 0
M  V30 9287 C 880.754 -5.02975 -1.40759 0
M  V30 9288 H 882.448 -2.9457 -0.535637 0
M  V30 9289 H 879.994 -1.41702 -0.256204 0
M  V30 9290 H 881.947 -2.98727 -2.97221 0
M  V30 9291 H 880.671 -1.76498 -2.74802 0
M  V30 9292 H 879.33 -3.39782 -1.37636 0
M  V30 9293 H 878.978 -3.24013 -3.8474 0
M  V30 9294 H 878.678 -4.89281 -3.25389 0
M  V30 9295 H 880.202 -4.51784 -4.1076 0
M  V30 9296 H 881.616 -5.37179 -2.00279 0
M  V30 9297 H 880.013 -5.84315 -1.36734 0
M  V30 9298 H 881.083 -4.83431 -0.377218 0
M  V30 9299 N 882.426 0.269451 -1.5528 0
M  V30 9300 C 883.654 1.01872 -1.80082 0
M  V30 9301 C 884.069 1.79802 -0.575917 0
M  V30 9302 O 883.426 1.76735 0.455081 0
M  V30 9303 C 883.477 1.9745 -3.02813 0
M  V30 9304 O 883.198 1.22677 -4.20573 0
M  V30 9305 C 884.699 2.8416 -3.40247 0
M  V30 9306 H 881.919 0.300781 -0.59981 0
M  V30 9307 H 884.463 0.29916 -2.023 0
M  V30 9308 H 882.618 2.64864 -2.82712 0
M  V30 9309 H 883.032 1.87129 -4.89982 0
M  V30 9310 H 884.506 3.47014 -4.29284 0
M  V30 9311 H 884.983 3.54113 -2.59809 0
M  V30 9312 H 885.589 2.22232 -3.6262 0
M  V30 9313 N 883.904 1.48273 0.534124 0
M  V30 9314 C 885.153 1.55334 1.28663 0
M  V30 9315 C 885.466 0.230345 1.94239 0
M  V30 9316 O 886.672 0.179161 2.70908 0
M  V30 9317 C 885.128 2.73927 2.33435 0
M  V30 9318 C 884.736 4.12852 1.73947 0
M  V30 9319 C 886.48 2.90298 3.09722 0
M  V30 9320 C 884.387 5.22711 2.76636 0
M  V30 9321 H 883.317 0.578262 0.483869 0
M  V30 9322 H 885.968 1.74598 0.564602 0
M  V30 9323 H 884.35 2.48089 3.08655 0
M  V30 9324 H 885.524 4.48691 1.04944 0
M  V30 9325 H 883.839 4.01562 1.10167 0
M  V30 9326 H 886.436 3.69542 3.86449 0
M  V30 9327 H 886.779 1.99598 3.6533 0
M  V30 9328 H 887.312 3.16017 2.41616 0
M  V30 9329 H 884.051 6.15362 2.25852 0
M  V30 9330 H 883.571 4.91364 3.43979 0
M  V30 9331 H 885.25 5.50648 3.39699 0
M  V30 9332 N 885.382 -0.782676 1.36792 0
M  V30 9333 C 886.631 -1.53605 1.30723 0
M  V30 9334 C 886.944 -1.95294 -0.109296 0
M  V30 9335 O 888.15 -2.69921 -0.292398 0
M  V30 9336 C 886.606 -2.77321 2.29393 0
M  V30 9337 C 886.214 -2.42774 3.76517 0
M  V30 9338 C 887.958 -3.55289 2.32314 0
M  V30 9339 C 885.865 -3.62926 4.66947 0
M  V30 9340 H 884.795 -0.576646 0.485794 0
M  V30 9341 H 887.446 -0.858255 1.62192 0
M  V30 9342 H 885.828 -3.46934 1.90927 0
M  V30 9343 H 887.002 -1.81014 4.23758 0
M  V30 9344 H 885.317 -1.78002 3.76436 0
M  V30 9345 H 887.914 -4.44573 2.97083 0
M  V30 9346 H 888.257 -3.94361 1.3336 0
M  V30 9347 H 888.79 -2.92662 2.69432 0
M  V30 9348 H 885.529 -3.28944 5.66989 0
M  V30 9349 H 885.049 -4.23828 4.24418 0
M  V30 9350 H 886.728 -4.29873 4.83548 0
M  V30 9351 N 886.86 -1.21182 -1.00761 0
M  V30 9352 C 888.276 -0.968607 -1.26847 0
M  V30 9353 C 888.476 0.346561 -1.98497 0
M  V30 9354 O 887.532 1.07287 -2.28573 0
M  V30 9355 C 888.845 -2.1574 -2.09467 0
M  V30 9356 C 890.393 -2.19937 -2.22703 0
M  V30 9357 C 890.868 -3.38328 -3.08704 0
M  V30 9358 N 892.359 -3.38398 -3.16293 0
M  V30 9359 C 893.094 -4.26653 -3.83086 0
M  V30 9360 N 892.59 -5.25101 -4.5193 0
M  V30 9361 N 894.383 -4.14469 -3.797 0
M  V30 9362 H 886.534 -2.05763 -0.526816 0
M  V30 9363 H 888.797 -0.90087 -0.29519 0
M  V30 9364 H 888.503 -3.11034 -1.64167 0
M  V30 9365 H 888.377 -2.14584 -3.10216 0
M  V30 9366 H 890.764 -1.25201 -2.67224 0
M  V30 9367 H 890.845 -2.25139 -1.21433 0
M  V30 9368 H 890.489 -4.33356 -2.64886 0
M  V30 9369 H 890.419 -3.30364 -4.10082 0
M  V30 9370 H 892.91 -2.67149 -2.67282 0
M  V30 9371 H 893.223 -5.8875 -5.00592 0
M  V30 9372 H 891.568 -5.29029 -4.50726 0
M  V30 9373 H 894.759 -3.3682 -3.25069 0
M  V30 9374 H 894.932 -4.83458 -4.31477 0
M  V30 9375 N 888.338 1.20213 -1.01915 0
M  V30 9376 C 889.563 1.94163 -0.729076 0
M  V30 9377 C 889.988 1.74416 0.704323 0
M  V30 9378 O 889.346 1.0401 1.48498 0
M  V30 9379 C 889.394 3.44258 -1.07324 0
M  V30 9380 O 888.498 4.11979 -0.186367 0
M  V30 9381 H 887.839 0.606506 -0.270272 0
M  V30 9382 H 890.369 1.52571 -1.3632 0
M  V30 9383 H 890.379 3.94888 -1.02603 0
M  V30 9384 H 889.054 3.57954 -2.11759 0
M  V30 9385 H 887.631 3.7176 -0.291334 0
M  V30 9386 N 889.816 0.795718 1.36037 0
M  V30 9387 C 890.763 0.196548 2.29962 0
M  V30 9388 C 891.733 -0.663213 1.52285 0
M  V30 9389 O 892.918 -0.610574 1.80767 0
M  V30 9390 C 890.058 -0.657639 3.38776 0
M  V30 9391 C 889.171 0.221358 4.31433 0
M  V30 9392 C 888.306 -0.6398 5.27333 0
M  V30 9393 C 887.345 0.240265 6.11628 0
M  V30 9394 N 886.482 -0.580237 6.99698 0
M  V30 9395 H 891.322 1.00295 2.80615 0
M  V30 9396 H 888.859 0.506147 1.38118 0
M  V30 9397 H 890.817 -1.16793 4.00519 0
M  V30 9398 H 889.447 -1.42941 2.89426 0
M  V30 9399 H 888.499 0.84967 3.70789 0
M  V30 9400 H 889.811 0.899195 4.90628 0
M  V30 9401 H 888.965 -1.21566 5.94396 0
M  V30 9402 H 887.704 -1.35124 4.68607 0
M  V30 9403 H 886.709 0.828474 5.43522 0
M  V30 9404 H 887.934 0.949403 6.72431 0
M  V30 9405 H 885.88 -1.27585 6.43473 0
M  V30 9406 H 885.797 0.0397853 7.5599 0
M  V30 9407 H 887.065 -1.13972 7.71123 0
M  V30 9408 N 891.294 -1.47756 0.548274 0
M  V30 9409 C 892.71 -1.58247 0.207401 0
M  V30 9410 C 892.91 -1.54804 -1.28988 0
M  V30 9411 O 891.966 -1.44673 -2.06944 0
M  V30 9412 C 893.279 -2.89129 0.826142 0
M  V30 9413 C 894.827 -3.02695 0.79655 0
M  V30 9414 C 895.302 -4.36264 1.3942 0
M  V30 9415 N 896.793 -4.42877 1.35698 0
M  V30 9416 C 897.528 -5.44773 1.78913 0
M  V30 9417 N 897.024 -6.53528 2.29942 0
M  V30 9418 N 898.817 -5.35765 1.70038 0
M  V30 9419 H 890.968 -1.48236 1.52117 0
M  V30 9420 H 893.231 -0.704957 0.633829 0
M  V30 9421 H 892.937 -2.97358 1.87806 0
M  V30 9422 H 892.811 -3.75891 0.313916 0
M  V30 9423 H 895.198 -2.94067 -0.246655 0
M  V30 9424 H 895.279 -2.17496 1.34644 0
M  V30 9425 H 894.923 -4.45646 2.43642 0
M  V30 9426 H 894.853 -5.20179 0.819827 0
M  V30 9427 H 897.344 -3.64874 0.983623 0
M  V30 9428 H 897.657 -7.27441 2.60863 0
M  V30 9429 H 896.002 -6.54442 2.33947 0
M  V30 9430 H 899.193 -4.49699 1.29955 0
M  V30 9431 H 899.366 -6.1504 2.04035 0
M  V30 9432 N 892.772 -0.284283 -1.55015 0
M  V30 9433 C 894.018 0.3233 -2.00814 0
M  V30 9434 C 894.373 1.52796 -1.16923 0
M  V30 9435 O 893.666 1.90172 -0.233499 0
M  V30 9436 C 893.86 0.747219 -3.49502 0
M  V30 9437 C 893.689 -0.414821 -4.47783 0
M  V30 9438 C 892.459 -0.901531 -4.97193 0
M  V30 9439 C 894.657 -1.25433 -4.9877 0
M  V30 9440 N 892.639 -2.03208 -5.79292 0
M  V30 9441 C 894.01 -2.23262 -5.78406 0
M  V30 9442 C 896.065 -1.28662 -4.80989 0
M  V30 9443 C 894.768 -3.24077 -6.42158 0
M  V30 9444 C 896.794 -2.28326 -5.45547 0
M  V30 9445 C 896.156 -3.24887 -6.25002 0
M  V30 9446 H 892.255 0.0832226 -0.777559 0
M  V30 9447 H 894.839 -0.410393 -1.90326 0
M  V30 9448 H 893.01 1.45012 -3.60314 0
M  V30 9449 H 894.742 1.33292 -3.8212 0
M  V30 9450 H 891.497 -0.479291 -4.71169 0
M  V30 9451 H 891.921 -2.60125 -6.25031 0
M  V30 9452 H 896.563 -0.553858 -4.19157 0
M  V30 9453 H 894.281 -3.98281 -7.03134 0
M  V30 9454 H 897.867 -2.31578 -5.33726 0
M  V30 9455 H 896.747 -4.00745 -6.74072 0
M  V30 9456 N 894.251 1.57596 -0.0117121 0
M  V30 9457 C 895.528 1.82323 0.708356 0
M  V30 9458 C 895.908 0.891947 1.91331 0
M  V30 9459 O 895.256 -0.0565984 2.2843 0
M  V30 9460 C 895.466 3.31111 1.10303 0
M  V30 9461 C 896.814 3.97147 1.50199 0
M  V30 9462 O 897.838 3.35503 1.1965 0
M  V30 9463 O 896.697 5.0576 2.07049 0
M  V30 9464 H 893.791 0.751173 0.345931 0
M  V30 9465 H 896.337 1.69657 -0.0380632 0
M  V30 9466 H 895.109 3.90534 0.24467 0
M  V30 9467 H 894.732 3.48818 1.90818 0
M  V30 9468 N 895.729 -0.261212 1.5542 0
M  V30 9469 C 896.639 -1.34493 1.92221 0
M  V30 9470 C 897.655 -1.53421 0.82086 0
M  V30 9471 O 898.831 -1.6732 1.12099 0
M  V30 9472 C 895.896 -2.68209 2.19692 0
M  V30 9473 C 894.957 -2.57927 3.43179 0
M  V30 9474 C 894.19 -3.85266 3.69331 0
M  V30 9475 O 894.413 -4.86493 2.97793 0
M  V30 9476 O 893.347 -3.8476 4.62865 0
M  V30 9477 H 897.173 -1.06278 2.84497 0
M  V30 9478 H 894.758 -0.460752 1.42118 0
M  V30 9479 H 896.64 -3.47252 2.38734 0
M  V30 9480 H 895.315 -2.96186 1.30597 0
M  V30 9481 H 894.222 -1.77219 3.2946 0
M  V30 9482 H 895.555 -2.34898 4.32532 0
M  V30 9483 N 897.207 -1.48554 -0.526253 0
M  V30 9484 C 898.447 -1.58362 -1.29232 0
M  V30 9485 C 898.811 -0.253353 -1.90321 0
M  V30 9486 O 900.012 -0.226439 -2.67845 0
M  V30 9487 C 898.283 -2.69294 -2.3498 0
M  V30 9488 S 899.842 -2.98891 -3.21262 0
M  V30 9489 H 896.66 -0.558859 -0.439543 0
M  V30 9490 H 899.262 -1.86094 -0.599099 0
M  V30 9491 H 897.966 -3.64504 -1.88587 0
M  V30 9492 H 897.497 -2.43475 -3.09004 0
M  V30 9493 H 899.512 -2.38475 -4.35137 0
M  V30 9494 N 898.685 0.775411 -1.37205 0
M  V30 9495 C 899.615 1.90258 -1.35367 0
M  V30 9496 C 900.596 1.68634 -0.222864 0
M  V30 9497 O 901.781 1.89545 -0.422659 0
M  V30 9498 C 898.911 3.27488 -1.15623 0
M  V30 9499 C 897.865 3.63668 -2.25676 0
M  V30 9500 C 897.191 4.994 -1.91059 0
M  V30 9501 C 898.491 3.70797 -3.67841 0
M  V30 9502 H 900.185 1.92053 -2.29687 0
M  V30 9503 H 897.731 0.922597 -1.10563 0
M  V30 9504 H 899.684 4.05976 -1.12968 0
M  V30 9505 H 898.408 3.26117 -0.177573 0
M  V30 9506 H 897.067 2.87486 -2.2748 0
M  V30 9507 H 896.715 4.94565 -0.917324 0
M  V30 9508 H 896.415 5.24576 -2.64751 0
M  V30 9509 H 897.939 5.80291 -1.89985 0
M  V30 9510 H 899.353 4.39444 -3.68187 0
M  V30 9511 H 897.75 4.07468 -4.40556 0
M  V30 9512 H 898.82 2.71549 -4.01732 0
M  V30 9513 N 900.163 1.21714 1.00117 0
M  V30 9514 C 901.11 0.979837 2.08968 0
M  V30 9515 C 902.08 -0.0955324 1.65825 0
M  V30 9516 O 903.265 0.0523742 1.90728 0
M  V30 9517 C 900.405 0.554758 3.40612 0
M  V30 9518 C 899.518 1.69999 3.97145 0
M  V30 9519 C 898.653 1.2237 5.16913 0
M  V30 9520 C 897.692 2.34101 5.65564 0
M  V30 9521 N 896.829 1.87579 6.76579 0
M  V30 9522 H 901.669 1.91167 2.28602 0
M  V30 9523 H 899.206 0.952645 1.12085 0
M  V30 9524 H 901.164 0.289526 4.16194 0
M  V30 9525 H 899.794 -0.340073 3.21004 0
M  V30 9526 H 898.846 2.07976 3.18512 0
M  V30 9527 H 900.158 2.54074 4.29241 0
M  V30 9528 H 899.312 0.915358 5.99755 0
M  V30 9529 H 898.051 0.353045 4.8642 0
M  V30 9530 H 897.056 2.65734 4.81316 0
M  V30 9531 H 898.281 3.21669 5.98085 0
M  V30 9532 H 896.227 1.02863 6.47885 0
M  V30 9533 H 896.144 2.65225 7.07949 0
M  V30 9534 H 897.412 1.5979 7.62947 0
M  V30 9535 N 901.641 -1.19671 1.02551 0
M  V30 9536 C 902.89 -1.88591 0.715272 0
M  V30 9537 C 903.203 -1.80274 -0.758982 0
M  V30 9538 O 904.409 -2.44413 -1.18213 0
M  V30 9539 C 902.865 -3.38264 1.22905 0
M  V30 9540 C 902.473 -3.55146 2.73084 0
M  V30 9541 C 904.217 -4.12683 0.994649 0
M  V30 9542 C 902.124 -4.98693 3.17897 0
M  V30 9543 H 901.054 -0.706326 0.263857 0
M  V30 9544 H 903.705 -1.35322 1.23936 0
M  V30 9545 H 902.087 -3.9091 0.632892 0
M  V30 9546 H 903.261 -3.12845 3.38326 0
M  V30 9547 H 901.576 -2.94112 2.94766 0
M  V30 9548 H 904.173 -5.18536 1.30478 0
M  V30 9549 H 904.516 -4.16243 -0.0686466 0
M  V30 9550 H 905.049 -3.66164 1.55464 0
M  V30 9551 H 901.788 -5.00293 4.23542 0
M  V30 9552 H 901.308 -5.4177 2.57381 0
M  V30 9553 H 902.987 -5.67327 3.11045 0
M  V30 9554 N 903.119 -0.802921 -1.35613 0
M  V30 9555 C 904.366 -0.381576 -1.98872 0
M  V30 9556 C 904.694 1.0503 -1.63704 0
M  V30 9557 O 903.949 1.7427 -0.890418 0
M  V30 9558 C 904.248 -0.507806 -3.53774 0
M  V30 9559 C 903.914 -1.90245 -4.088 0
M  V30 9560 C 902.576 -2.28401 -4.2354 0
M  V30 9561 C 904.928 -2.81504 -4.3864 0
M  V30 9562 C 902.256 -3.57192 -4.65436 0
M  V30 9563 C 904.608 -4.09737 -4.81973 0
M  V30 9564 C 903.272 -4.47897 -4.94919 0
M  V30 9565 H 902.542 -0.139629 -0.727726 0
M  V30 9566 H 905.189 -1.023 -1.61886 0
M  V30 9567 H 903.494 0.21708 -3.91198 0
M  V30 9568 H 905.191 -0.162625 -4.0067 0
M  V30 9569 H 901.781 -1.596 -3.97776 0
M  V30 9570 H 905.965 -2.53276 -4.26808 0
M  V30 9571 H 901.221 -3.86611 -4.73648 0
M  V30 9572 H 905.395 -4.80555 -5.04024 0
M  V30 9573 H 903.022 -5.47747 -5.27141 0
M  V30 9574 N 904.597 1.47463 -0.556102 0
M  V30 9575 C 905.822 2.07371 -0.0344729 0
M  V30 9576 C 906.247 1.40621 1.2493 0
M  V30 9577 O 905.605 0.48082 1.74808 0
M  V30 9578 C 905.653 3.60306 0.145563 0
M  V30 9579 O 904.757 3.94299 1.20839 0
M  V30 9580 H 904.098 0.662052 -0.0508274 0
M  V30 9581 H 906.628 1.89498 -0.771469 0
M  V30 9582 H 906.638 4.06408 0.360112 0
M  V30 9583 H 905.313 4.08288 -0.792089 0
M  V30 9584 H 903.89 3.59944 0.97442 0
M  V30 9585 N 906.075 0.2925 1.54862 0
M  V30 9586 C 907.025 -0.60226 2.19902 0
M  V30 9587 C 908.009 -1.10535 1.16923 0
M  V30 9588 O 909.201 -1.04753 1.42674 0
M  V30 9589 C 906.33 -1.77774 2.93686 0
M  V30 9590 C 905.416 -1.29101 4.03972 0
M  V30 9591 N 905.807 -0.521671 5.03103 0
M  V30 9592 C 904.105 -1.57248 4.17359 0
M  V30 9593 C 904.806 -0.263545 5.81103 0
M  V30 9594 N 903.782 -0.840937 5.37056 0
M  V30 9595 H 907.584 -0.00682274 2.93899 0
M  V30 9596 H 905.098 0.0968604 1.62111 0
M  V30 9597 H 907.095 -2.43021 3.38743 0
M  V30 9598 H 905.755 -2.37696 2.21203 0
M  V30 9599 H 906.766 -0.167364 5.1763 0
M  V30 9600 H 903.443 -2.1798 3.56077 0
M  V30 9601 H 904.833 0.353783 6.70968 0
M  V30 9602 N 907.553 -1.57587 0.0200696 0
M  V30 9603 C 908.501 -2.10814 -0.982868 0
M  V30 9604 C 909.495 -1.03263 -1.34287 0
M  V30 9605 O 910.701 -1.21708 -1.32617 0
M  V30 9606 H 907.076 -0.673409 -0.334701 0
M  V30 9607 H 909.047 -2.94034 -0.50856 0
M  V30 9608 C 907.796 -2.64301 -2.25921 0
M  V30 9609 H 907.119 -3.46703 -1.99091 0
M  V30 9610 H 908.559 -3.052 -2.94328 0
M  V30 9611 C 907.018 -1.56628 -2.98277 0
M  V30 9612 O 907.548 -0.960825 -3.9004 0
M  V30 9613 N 905.754 -1.28889 -2.60453 0
M  V30 9614 H 905.301 -1.7831 -1.85912 0
M  V30 9615 H 905.259 -0.570697 -3.09177 0
M  V30 9616 N 909.032 0.252966 -1.55557 0
M  V30 9617 C 910.257 1.0038 -1.8149 0
M  V30 9618 C 910.682 1.78397 -0.596318 0
M  V30 9619 O 910.04 1.7551 0.454535 0
M  V30 9620 C 910.088 1.9222 -3.05096 0
M  V30 9621 O 909.192 3.01302 -2.81587 0
M  V30 9622 H 908.533 0.285949 -0.599274 0
M  V30 9623 H 911.063 0.275795 -2.02733 0
M  V30 9624 H 911.073 2.338 -3.34368 0
M  V30 9625 H 909.748 1.34852 -3.93431 0
M  V30 9626 H 908.325 2.63894 -2.63466 0
M  V30 9627 N 910.51 1.48831 0.518367 0
M  V30 9628 C 911.921 1.50842 1.10016 0
M  V30 9629 C 912.272 0.284744 1.94123 0
M  V30 9630 O 911.397 -0.607088 2.0771 0
M  V30 9631 C 911.992 2.73329 2.00191 0
M  V30 9632 C 910.551 2.78175 2.53566 0
M  V30 9633 C 909.698 2.4452 1.30786 0
M  V30 9634 H 912.649 1.55779 0.303073 0
M  V30 9635 H 912.67 2.52506 2.84642 0
M  V30 9636 H 912.182 3.62374 1.3895 0
M  V30 9637 H 910.283 1.93368 3.18496 0
M  V30 9638 H 910.396 3.79905 2.91906 0
M  V30 9639 H 908.76 1.95924 1.62744 0
M  V30 9640 H 909.543 3.35819 0.712797 0
M  V30 9641 N 911.988 -0.768124 1.37614 0
M  V30 9642 C 913.236 -1.52379 1.3276 0
M  V30 9643 C 913.557 -1.94809 -0.0863564 0
M  V30 9644 O 912.827 -1.66568 -1.03112 0
M  V30 9645 H 911.407 -0.565179 0.488448 0
M  V30 9646 H 914.069 -0.913974 1.72141 0
M  V30 9647 H 913.165 -2.4215 1.96901 0
M  V30 9648 N 913.466 -1.22244 -0.994698 0
M  V30 9649 C 914.414 -0.988118 -2.10568 0
M  V30 9650 C 915.408 0.0681541 -1.69263 0
M  V30 9651 O 916.614 -0.0841311 -1.79803 0
M  V30 9652 H 912.989 -0.302343 -0.688544 0
M  V30 9653 H 914.96 -1.93091 -2.27505 0
M  V30 9654 C 913.709 -0.580557 -3.42819 0
M  V30 9655 H 913.032 -1.385 -3.75044 0
M  V30 9656 H 914.472 -0.456004 -4.21541 0
M  V30 9657 C 912.931 0.709692 -3.2934 0
M  V30 9658 O 913.461 1.76259 -3.60965 0
M  V30 9659 N 911.667 0.680155 -2.82528 0
M  V30 9660 H 911.214 -0.176977 -2.56991 0
M  V30 9661 H 911.172 1.54372 -2.73892 0
M  V30 9662 N 914.944 1.19125 -1.03184 0
M  V30 9663 C 915.891 2.2245 -0.6152 0
M  V30 9664 C 916.861 1.61869 0.372502 0
M  V30 9665 O 918.046 1.88901 0.268491 0
M  V30 9666 C 915.186 3.45091 0.0248027 0
M  V30 9667 C 914.299 4.20044 -1.0093 0
M  V30 9668 C 913.434 5.30119 -0.338744 0
M  V30 9669 C 912.473 5.96833 -1.35855 0
M  V30 9670 N 911.61 6.98464 -0.713594 0
M  V30 9671 H 916.45 2.57445 -1.50086 0
M  V30 9672 H 913.987 1.26485 -0.751005 0
M  V30 9673 H 915.945 4.15149 0.413131 0
M  V30 9674 H 914.575 3.10742 0.874028 0
M  V30 9675 H 913.627 3.48901 -1.51566 0
M  V30 9676 H 914.939 4.65796 -1.78425 0
M  V30 9677 H 914.093 6.0661 0.104269 0
M  V30 9678 H 912.832 4.85446 0.468382 0
M  V30 9679 H 911.837 5.1909 -1.81179 0
M  V30 9680 H 913.062 6.4359 -2.16722 0
M  V30 9681 H 911.008 6.55959 0.0733863 0
M  V30 9682 H 910.925 7.42422 -1.42638 0
M  V30 9683 H 912.193 7.78943 -0.294681 0
M  V30 9684 N 916.422 0.810101 1.35185 0
M  V30 9685 C 917.662 0.397802 2.00492 0
M  V30 9686 C 918.026 -1.01684 1.62863 0
M  V30 9687 O 919.227 -1.53133 2.20916 0
M  V30 9688 C 917.498 0.579524 3.5267 0
M  V30 9689 S 919.057 0.258169 4.3804 0
M  V30 9690 H 915.875 0.150904 0.694801 0
M  V30 9691 H 918.477 1.05312 1.64711 0
M  V30 9692 H 917.181 1.60901 3.77543 0
M  V30 9693 H 916.712 -0.0909886 3.93295 0
M  V30 9694 H 918.727 -0.932882 4.87352 0
M  V30 9695 N 917.9 -1.47166 0.563914 0
M  V30 9696 C 919.311 -1.86231 0.132307 0
M  V30 9697 C 919.662 -1.46976 -1.29971 0
M  V30 9698 O 918.787 -0.875911 -1.97881 0
M  V30 9699 C 919.382 -3.37996 0.233335 0
M  V30 9700 C 917.941 -3.76127 -0.143278 0
M  V30 9701 C 917.088 -2.71212 0.577857 0
M  V30 9702 H 920.039 -1.38588 0.773249 0
M  V30 9703 H 920.06 -3.76558 -0.546309 0
M  V30 9704 H 919.572 -3.66535 1.27568 0
M  V30 9705 H 917.673 -3.53205 -1.18648 0
M  V30 9706 H 917.786 -4.78595 0.219952 0
M  V30 9707 H 916.15 -2.54692 0.020186 0
M  V30 9708 H 916.933 -3.02593 1.62149 0
M  V30 9709 N 919.378 -0.300708 -1.54705 0
M  V30 9710 C 920.627 0.309428 -1.99312 0
M  V30 9711 C 920.94 1.55027 -1.19272 0
M  V30 9712 O 922.146 2.23498 -1.54146 0
M  V30 9713 C 920.602 0.601856 -3.54832 0
M  V30 9714 C 920.21 -0.620636 -4.4368 0
M  V30 9715 C 921.954 1.1732 -4.07966 0
M  V30 9716 C 919.861 -0.301376 -5.90632 0
M  V30 9717 H 918.791 0.119395 -0.744487 0
M  V30 9718 H 921.442 -0.409368 -1.78875 0
M  V30 9719 H 919.824 1.38024 -3.71168 0
M  V30 9720 H 920.998 -1.39685 -4.39118 0
M  V30 9721 H 919.313 -1.1106 -4.01316 0
M  V30 9722 H 921.91 1.42631 -5.15326 0
M  V30 9723 H 922.253 2.11537 -3.5855 0
M  V30 9724 H 922.786 0.456534 -3.95172 0
M  V30 9725 H 919.525 -1.21209 -6.44196 0
M  V30 9726 H 919.045 0.437574 -5.98202 0
M  V30 9727 H 920.724 0.097164 -6.46927 0
M  V30 9728 N 920.856 1.57574 -0.0284266 0
M  V30 9729 C 922.084 1.96071 0.660575 0
M  V30 9730 C 922.499 0.904881 1.65703 0
M  V30 9731 O 921.856 -0.113379 1.82147 0
M  V30 9732 C 921.907 3.34634 1.36756 0
M  V30 9733 O 921.628 4.36167 0.411041 0
M  V30 9734 C 923.129 3.87758 2.14845 0
M  V30 9735 H 920.349 0.645794 0.182183 0
M  V30 9736 H 922.893 2.04311 -0.0879858 0
M  V30 9737 H 921.048 3.27616 2.06753 0
M  V30 9738 H 921.462 5.16493 0.913 0
M  V30 9739 H 922.936 4.87058 2.59767 0
M  V30 9740 H 923.413 3.21967 2.9872 0
M  V30 9741 H 924.019 3.98043 1.49807 0
M  V30 9742 N 922.334 -0.244713 1.55689 0
M  V30 9743 C 923.244 -1.32447 1.93636 0
M  V30 9744 C 924.26 -1.52541 0.837086 0
M  V30 9745 O 925.436 -1.66121 1.13867 0
M  V30 9746 C 922.501 -2.65864 2.22525 0
M  V30 9747 C 921.562 -2.54273 3.45896 0
M  V30 9748 C 920.795 -3.81327 3.73397 0
M  V30 9749 O 921.018 -4.83307 3.02936 0
M  V30 9750 O 919.952 -3.79829 4.66919 0
M  V30 9751 H 923.778 -1.03255 2.85608 0
M  V30 9752 H 921.363 -0.445652 1.42598 0
M  V30 9753 H 923.245 -3.447 2.42404 0
M  V30 9754 H 921.92 -2.94784 1.33731 0
M  V30 9755 H 920.827 -1.73715 3.31321 0
M  V30 9756 H 922.16 -2.30297 4.34999 0
M  V30 9757 N 923.813 -1.49104 -0.510467 0
M  V30 9758 C 924.746 -1.59667 -1.63039 0
M  V30 9759 C 925.724 -0.446145 -1.5636 0
M  V30 9760 O 926.908 -0.660414 -1.76552 0
M  V30 9761 C 924.035 -1.54282 -3.01521 0
M  V30 9762 C 923.081 -2.74415 -3.26494 0
M  V30 9763 S 923.914 -4.3619 -3.10643 0
M  V30 9764 C 925.07 -4.33435 -4.51536 0
M  V30 9765 H 925.303 -2.54407 -1.53833 0
M  V30 9766 H 922.836 -1.37878 -0.694916 0
M  V30 9767 H 924.794 -1.51861 -3.81377 0
M  V30 9768 H 923.455 -0.608458 -3.0815 0
M  V30 9769 H 922.648 -2.66841 -4.27565 0
M  V30 9770 H 922.25 -2.74199 -2.54344 0
M  V30 9771 H 924.542 -4.04571 -5.43441 0
M  V30 9772 H 925.485 -5.34752 -4.64162 0
M  V30 9773 H 925.893 -3.63638 -4.31773 0
M  V30 9774 N 925.291 0.760815 -1.38019 0
M  V30 9775 C 926.54 1.51506 -1.3315 0
M  V30 9776 C 926.853 1.95444 0.0782124 0
M  V30 9777 O 928.059 2.70352 0.249418 0
M  V30 9778 C 926.515 2.73636 -2.33776 0
M  V30 9779 C 926.123 2.36753 -3.80332 0
M  V30 9780 C 927.867 3.51548 -2.37937 0
M  V30 9781 C 925.774 3.55451 -4.72661 0
M  V30 9782 H 924.704 0.568844 -0.494907 0
M  V30 9783 H 927.355 0.832343 -1.63537 0
M  V30 9784 H 925.737 3.43852 -1.96422 0
M  V30 9785 H 926.911 1.7425 -4.26584 0
M  V30 9786 H 925.226 1.71991 -3.7922 0
M  V30 9787 H 927.823 4.39791 -3.04119 0
M  V30 9788 H 928.166 3.9219 -1.39617 0
M  V30 9789 H 928.699 2.88339 -2.74054 0
M  V30 9790 H 925.438 3.19882 -5.7215 0
M  V30 9791 H 924.958 4.17022 -4.31107 0
M  V30 9792 H 926.637 4.22125 -4.90326 0
M  V30 9793 N 926.769 1.22769 0.988202 0
M  V30 9794 C 927.679 1.01844 2.11341 0
M  V30 9795 C 928.695 -0.0346937 1.73965 0
M  V30 9796 O 929.871 0.159061 2.00771 0
M  V30 9797 C 926.936 0.603837 3.41401 0
M  V30 9798 C 925.997 1.73113 3.92849 0
M  V30 9799 C 925.23 1.33621 5.16702 0
M  V30 9800 O 925.453 0.217041 5.69987 0
M  V30 9801 O 924.387 2.15444 5.62021 0
M  V30 9802 H 928.213 1.96127 2.31879 0
M  V30 9803 H 925.798 1.01405 1.09715 0
M  V30 9804 H 927.68 0.383196 4.19654 0
M  V30 9805 H 926.355 -0.310082 3.22211 0
M  V30 9806 H 925.262 2.00634 3.15748 0
M  V30 9807 H 926.595 2.62308 4.1648 0
M  V30 9808 N 928.247 -1.18576 1.03814 0
M  V30 9809 C 929.477 -1.92158 0.758864 0
M  V30 9810 C 929.885 -1.76267 -0.687498 0
M  V30 9811 O 929.228 -1.08806 -1.4801 0
M  V30 9812 C 929.29 -3.44063 1.04217 0
M  V30 9813 C 928.954 -3.8373 2.48193 0
M  V30 9814 C 929.951 -3.87722 3.46363 0
M  V30 9815 C 927.636 -4.151 2.82838 0
M  V30 9816 C 929.63 -4.2253 4.77229 0
M  V30 9817 C 927.317 -4.49578 4.13911 0
M  V30 9818 C 928.315 -4.53269 5.10917 0
M  V30 9819 O 928.003 -4.86945 6.39641 0
M  V30 9820 H 927.735 -0.61694 0.276335 0
M  V30 9821 H 930.289 -1.51388 1.38819 0
M  V30 9822 H 928.519 -3.85061 0.355709 0
M  V30 9823 H 930.208 -3.9889 0.751091 0
M  V30 9824 H 930.974 -3.63627 3.20936 0
M  V30 9825 H 926.853 -4.11406 2.08006 0
M  V30 9826 H 930.397 -4.25326 5.52941 0
M  V30 9827 H 926.294 -4.73133 4.39107 0
M  V30 9828 H 927.062 -5.04857 6.44253 0
M  V30 9829 N 929.725 -0.817259 -1.34754 0
M  V30 9830 C 930.655 -0.249769 -2.3216 0
M  V30 9831 C 931.636 0.630663 -1.57977 0
M  V30 9832 O 932.821 0.558719 -1.85989 0
M  V30 9833 C 929.951 0.593825 -3.42186 0
M  V30 9834 C 928.905 -0.188997 -4.27583 0
M  V30 9835 C 928.231 0.776979 -5.29025 0
M  V30 9836 C 929.531 -1.39401 -5.03354 0
M  V30 9837 H 931.225 -1.06359 -2.79872 0
M  V30 9838 H 928.771 -0.512894 -1.34556 0
M  V30 9839 H 930.724 1.00097 -4.09339 0
M  V30 9840 H 929.448 1.44064 -2.93109 0
M  V30 9841 H 928.107 -0.577445 -3.62024 0
M  V30 9842 H 927.755 1.61959 -4.76212 0
M  V30 9843 H 927.455 0.257448 -5.87036 0
M  V30 9844 H 928.979 1.18211 -5.99048 0
M  V30 9845 H 930.393 -1.06117 -5.63393 0
M  V30 9846 H 928.79 -1.84878 -5.70912 0
M  V30 9847 H 929.86 -2.17515 -4.33377 0
M  V30 9848 N 931.203 1.46865 -0.571711 0
M  V30 9849 C 932.614 1.86158 -0.142181 0
M  V30 9850 C 932.965 1.47663 1.2919 0
M  V30 9851 O 932.09 0.886393 1.97413 0
M  V30 9852 C 932.685 3.37867 -0.251256 0
M  V30 9853 C 931.244 3.76198 0.123329 0
M  V30 9854 C 930.391 2.70902 -0.592232 0
M  V30 9855 H 933.342 1.38176 -0.780587 0
M  V30 9856 H 933.363 3.76842 0.526331 0
M  V30 9857 H 932.875 3.65853 -1.2951 0
M  V30 9858 H 930.976 3.53829 1.16773 0
M  V30 9859 H 931.089 4.78471 -0.24533 0
M  V30 9860 H 929.453 2.54678 -0.0336927 0
M  V30 9861 H 930.236 3.01729 -1.63751 0
M  V30 9862 N 932.681 0.308908 1.54543 0
M  V30 9863 C 933.591 -0.572939 2.27496 0
M  V30 9864 C 934.607 -1.14171 1.31305 0
M  V30 9865 O 935.783 -1.16481 1.64299 0
M  V30 9866 C 932.848 -1.72483 3.0075 0
M  V30 9867 C 931.909 -1.18934 4.12496 0
M  V30 9868 C 931.142 -2.28634 4.82247 0
M  V30 9869 O 931.365 -3.48691 4.5141 0
M  V30 9870 O 930.299 -1.94879 5.69478 0
M  V30 9871 H 934.125 0.0190877 3.03694 0
M  V30 9872 H 931.71 0.0750943 1.49211 0
M  V30 9873 H 933.592 -2.39578 3.46671 0
M  V30 9874 H 932.267 -2.30332 2.2744 0
M  V30 9875 H 931.174 -0.483904 3.70957 0
M  V30 9876 H 932.507 -0.656185 4.87806 0
M  V30 9877 N 934.159 -1.57557 0.0367827 0
M  V30 9878 C 935.399 -1.93981 -0.644252 0
M  V30 9879 C 935.763 -0.913982 -1.6885 0
M  V30 9880 O 936.964 -1.16468 -2.42257 0
M  V30 9881 C 935.235 -3.35281 -1.23779 0
M  V30 9882 S 936.794 -3.93643 -1.93883 0
M  V30 9883 H 933.612 -0.678683 -0.21192 0
M  V30 9884 H 936.214 -1.95232 0.102281 0
M  V30 9885 H 934.918 -4.07752 -0.465451 0
M  V30 9886 H 934.449 -3.37492 -2.02146 0
M  V30 9887 H 936.464 -3.777 -3.21803 0
M  V30 9888 N 935.637 0.236453 -1.55816 0
M  V30 9889 C 936.57 1.3196 -1.86177 0
M  V30 9890 C 937.548 1.459 -0.717769 0
M  V30 9891 O 938.732 1.61949 -0.964606 0
M  V30 9892 C 935.859 2.69183 -2.05568 0
M  V30 9893 C 934.905 2.72338 -3.28229 0
M  V30 9894 S 935.738 2.27898 -4.84585 0
M  V30 9895 C 936.894 3.67025 -5.06994 0
M  V30 9896 H 937.127 1.06011 -2.77757 0
M  V30 9897 H 934.66 0.437961 -1.48058 0
M  V30 9898 H 936.618 3.48191 -2.17423 0
M  V30 9899 H 935.279 2.92365 -1.14811 0
M  V30 9900 H 934.472 3.7314 -3.38795 0
M  V30 9901 H 934.074 2.01382 -3.15153 0
M  V30 9902 H 936.366 4.62604 -4.94979 0
M  V30 9903 H 937.309 3.61385 -6.08939 0
M  V30 9904 H 937.717 3.60022 -4.34792 0
M  V30 9905 N 937.115 1.49373 0.502552 0
M  V30 9906 C 938.062 1.65927 1.60427 0
M  V30 9907 C 939.032 0.500768 1.58371 0
M  V30 9908 O 940.217 0.727606 1.76382 0
M  V30 9909 C 937.357 1.73043 2.9858 0
M  V30 9910 C 936.47 3.00187 3.10663 0
M  V30 9911 C 935.605 2.98292 4.3954 0
M  V30 9912 C 934.644 4.20022 4.4525 0
M  V30 9913 N 933.781 4.16046 5.65553 0
M  V30 9914 H 938.621 2.59998 1.45619 0
M  V30 9915 H 936.158 1.28912 0.708519 0
M  V30 9916 H 938.116 1.7515 3.78653 0
M  V30 9917 H 936.746 0.824397 3.12095 0
M  V30 9918 H 935.798 3.07699 2.23663 0
M  V30 9919 H 937.11 3.9018 3.10742 0
M  V30 9920 H 936.264 2.98953 5.27932 0
M  V30 9921 H 935.003 2.06075 4.42023 0
M  V30 9922 H 934.008 4.19607 3.5526 0
M  V30 9923 H 935.233 5.13431 4.44484 0
M  V30 9924 H 933.179 3.26665 5.68881 0
M  V30 9925 H 933.096 4.99773 5.67242 0
M  V30 9926 H 934.364 4.20807 6.56156 0
M  V30 9927 N 938.594 -0.753485 1.38421 0
M  V30 9928 C 939.84 -1.51485 1.34834 0
M  V30 9929 C 940.173 -1.94102 -0.0615381 0
M  V30 9930 O 939.448 -1.65439 -1.02274 0
M  V30 9931 C 939.731 -2.76736 2.30411 0
M  V30 9932 C 939.584 -2.40256 3.80259 0
M  V30 9933 C 940.903 -3.7876 2.24119 0
M  V30 9934 H 938.022 -0.549534 0.491102 0
M  V30 9935 H 940.664 -0.863006 1.6927 0
M  V30 9936 H 938.814 -3.32357 2.01175 0
M  V30 9937 H 940.486 -1.90409 4.20169 0
M  V30 9938 H 938.729 -1.72714 3.97935 0
M  V30 9939 H 939.4 -3.29869 4.42595 0
M  V30 9940 H 941.876 -3.32679 2.49928 0
M  V30 9941 H 940.752 -4.64092 2.93104 0
M  V30 9942 H 941.013 -4.24352 1.24006 0
M  V30 9943 N 940.072 -1.23292 -0.981677 0
M  V30 9944 C 941.002 -1.03738 -2.09191 0
M  V30 9945 C 941.983 0.0453041 -1.7004 0
M  V30 9946 O 943.168 -0.119092 -1.93834 0
M  V30 9947 C 940.298 -0.626426 -3.41604 0
M  V30 9948 C 939.252 -1.65631 -3.94652 0
M  V30 9949 C 938.578 -1.10084 -5.23245 0
M  V30 9950 C 939.878 -3.04903 -4.24066 0
M  V30 9951 H 941.572 -1.966 -2.25807 0
M  V30 9952 H 939.118 -0.946656 -1.0851 0
M  V30 9953 H 941.071 -0.476689 -4.18695 0
M  V30 9954 H 939.795 0.337873 -3.24848 0
M  V30 9955 H 938.454 -1.79402 -3.19704 0
M  V30 9956 H 938.102 -0.127562 -5.02838 0
M  V30 9957 H 937.802 -1.78896 -5.59705 0
M  V30 9958 H 939.326 -0.962928 -6.02959 0
M  V30 9959 H 940.74 -2.94441 -4.91912 0
M  V30 9960 H 939.137 -3.70941 -4.71724 0
M  V30 9961 H 940.207 -3.53991 -3.31389 0
M  V30 9962 N 941.55 1.18024 -1.04442 0
M  V30 9963 C 942.48 2.23988 -0.659683 0
M  V30 9964 C 943.461 1.6669 0.338904 0
M  V30 9965 O 944.646 1.92971 0.21817 0
M  V30 9966 C 941.776 3.4729 -0.0257672 0
M  V30 9967 C 940.73 4.17362 -0.948299 0
M  V30 9968 C 940.056 5.34401 -0.17866 0
M  V30 9969 C 941.356 4.70435 -2.26909 0
M  V30 9970 H 943.05 2.56425 -1.54553 0
M  V30 9971 H 940.596 1.23256 -0.744575 0
M  V30 9972 H 942.549 4.20627 0.255131 0
M  V30 9973 H 941.273 3.14098 0.894981 0
M  V30 9974 H 939.932 3.45928 -1.21364 0
M  V30 9975 H 939.58 4.97458 0.744614 0
M  V30 9976 H 939.28 5.8222 -0.793294 0
M  V30 9977 H 940.804 6.10526 0.0951315 0
M  V30 9978 H 942.218 5.35447 -2.04864 0
M  V30 9979 H 940.615 5.28803 -2.83703 0
M  V30 9980 H 941.685 3.87653 -2.91296 0
M  V30 9981 N 943.028 0.824394 1.34319 0
M  V30 9982 C 944.305 0.335692 1.92698 0
M  V30 9983 C 944.685 -1.17715 1.75232 0
M  V30 9984 O 944.033 -1.98493 1.13194 0
M  V30 9985 C 944.243 0.766647 3.40475 0
M  V30 9986 C 945.591 0.766323 4.17627 0
M  V30 9987 O 946.615 0.709321 3.49066 0
M  V30 9988 O 945.474 0.840856 5.39992 0
M  V30 9989 H 942.568 0.0919996 0.821867 0
M  V30 9990 H 945.114 0.909282 1.43283 0
M  V30 9991 H 943.886 1.80859 3.46995 0
M  V30 9992 H 943.509 0.168833 3.97241 0
M  V30 9993 N 944.506 -1.46559 0.579492 0
M  V30 9994 C 945.753 -2.02399 0.0638418 0
M  V30 9995 C 946.081 -1.45135 -1.29484 0
M  V30 9996 O 945.336 -0.605061 -1.86112 0
M  V30 9997 C 945.635 -3.57357 -0.0552803 0
M  V30 9998 C 945.301 -4.33646 1.23539 0
M  V30 9999 C 943.963 -4.54207 1.589 0
M  V30 10000 C 946.315 -4.77476 2.08965 0
M  V30 10001 C 943.643 -5.1585 2.79492 0
M  V30 10002 C 945.995 -5.4045 3.2878 0
M  V30 10003 C 944.659 -5.5924 3.64427 0
M  V30 10004 H 943.929 -0.740632 0.0233614 0
M  V30 10005 H 946.576 -1.75968 0.755482 0
M  V30 10006 H 944.881 -3.82907 -0.83003 0
M  V30 10007 H 946.578 -3.98237 -0.469964 0
M  V30 10008 H 943.168 -4.17937 0.9501 0
M  V30 10009 H 947.352 -4.61349 1.8295 0
M  V30 10010 H 942.608 -5.28589 3.07252 0
M  V30 10011 H 946.782 -5.73371 3.95245 0
M  V30 10012 H 944.409 -6.06775 4.57961 0
M  V30 10013 N 945.984 -0.3171 -1.54377 0
M  V30 10014 C 947.224 0.288083 -2.0236 0
M  V30 10015 C 947.588 1.4985 -1.20038 0
M  V30 10016 O 948.789 2.17611 -1.57794 0
M  V30 10017 C 947.06 0.620192 -3.51978 0
M  V30 10018 S 948.619 1.20595 -4.21903 0
M  V30 10019 H 945.437 0.0875231 -0.705592 0
M  V30 10020 H 948.039 -0.448719 -1.90281 0
M  V30 10021 H 946.743 -0.268982 -4.09518 0
M  V30 10022 H 946.274 1.38736 -3.68125 0
M  V30 10023 H 948.289 2.49308 -4.29022 0
M  V30 10024 N 947.462 1.57535 -0.0451378 0
M  V30 10025 C 948.395 2.06721 0.96653 0
M  V30 10026 C 949.373 0.966392 1.30766 0
M  V30 10027 O 950.557 1.23789 1.42157 0
M  V30 10028 C 947.684 2.50266 2.2822 0
M  V30 10029 C 946.73 3.71525 2.09455 0
M  V30 10030 S 947.563 5.17453 1.37851 0
M  V30 10031 C 948.719 5.64308 2.70753 0
M  V30 10032 H 948.952 2.92207 0.547911 0
M  V30 10033 H 946.485 1.53494 0.166973 0
M  V30 10034 H 948.443 2.76019 3.03849 0
M  V30 10035 H 947.104 1.65097 2.67211 0
M  V30 10036 H 946.297 3.99894 3.06759 0
M  V30 10037 H 945.899 3.46008 1.41967 0
M  V30 10038 H 948.191 5.69525 3.66943 0
M  V30 10039 H 949.134 6.63613 2.47028 0
M  V30 10040 H 949.542 4.92014 2.76736 0
M  V30 10041 N 948.94 -0.228186 1.55939 0
M  V30 10042 C 949.87 -1.28607 1.94891 0
M  V30 10043 C 950.851 -1.49236 0.816245 0
M  V30 10044 O 952.036 -1.61531 1.07803 0
M  V30 10045 C 949.166 -2.63719 2.25986 0
M  V30 10046 C 948.12 -2.57757 3.4168 0
M  V30 10047 C 947.446 -3.96837 3.58364 0
M  V30 10048 C 948.746 -2.13116 4.76843 0
M  V30 10049 H 950.44 -0.962531 2.83506 0
M  V30 10050 H 947.986 -0.461577 1.36402 0
M  V30 10051 H 949.939 -3.37878 2.51826 0
M  V30 10052 H 948.663 -2.97747 1.34217 0
M  V30 10053 H 947.322 -1.86055 3.15878 0
M  V30 10054 H 946.97 -4.28162 2.63982 0
M  V30 10055 H 946.67 -3.93731 4.36176 0
M  V30 10056 H 948.194 -4.72668 3.86545 0
M  V30 10057 H 949.608 -2.77015 5.01932 0
M  V30 10058 H 948.005 -2.21083 5.57891 0
M  V30 10059 H 949.075 -1.08326 4.72645 0
M  V30 10060 N 950.418 -1.49637 -0.494624 0
M  V30 10061 C 951.368 -1.63168 -1.59249 0
M  V30 10062 C 952.352 -0.487089 -1.5335 0
M  V30 10063 O 953.544 -0.74036 -1.60772 0
M  V30 10064 C 950.673 -1.70744 -2.97828 0
M  V30 10065 C 949.759 -2.90802 -3.08699 0
M  V30 10066 N 950.15 -4.14797 -2.89442 0
M  V30 10067 C 948.448 -2.88871 -3.39808 0
M  V30 10068 C 949.149 -4.95535 -3.04663 0
M  V30 10069 N 948.125 -4.29025 -3.33824 0
M  V30 10070 H 951.927 -2.56751 -1.43024 0
M  V30 10071 H 949.441 -1.46497 -0.700885 0
M  V30 10072 H 951.438 -1.78537 -3.76736 0
M  V30 10073 H 950.098 -0.783024 -3.15117 0
M  V30 10074 H 951.109 -4.44675 -2.6549 0
M  V30 10075 H 947.786 -2.05834 -3.63233 0
M  V30 10076 H 949.176 -6.0406 -2.94214 0
M  V30 10077 N 951.896 0.746133 -1.38819 0
M  V30 10078 C 953.121 1.54049 -1.38866 0
M  V30 10079 C 953.546 1.88092 0.0176624 0
M  V30 10080 O 952.904 1.51113 1.00173 0
M  V30 10081 C 952.952 2.8116 -2.25791 0
M  V30 10082 O 952.056 3.76623 -1.68014 0
M  V30 10083 H 951.397 0.465648 -0.473359 0
M  V30 10084 H 953.927 0.921469 -1.82675 0
M  V30 10085 H 953.937 3.30009 -2.39913 0
M  V30 10086 H 952.612 2.55713 -3.27999 0
M  V30 10087 H 951.189 3.35352 -1.63074 0
M  V30 10088 N 953.375 1.23811 0.975125 0
M  V30 10089 C 954.603 1.10019 1.75224 0
M  V30 10090 C 955.018 -0.34791 1.85567 0
M  V30 10091 O 954.375 -1.24043 1.33864 0
M  V30 10092 C 954.426 1.72572 3.1765 0
M  V30 10093 O 954.147 3.11719 3.07836 0
M  V30 10094 C 955.648 1.64292 4.11732 0
M  V30 10095 H 952.868 0.38476 0.549728 0
M  V30 10096 H 955.412 1.63768 1.22476 0
M  V30 10097 H 953.567 1.22843 3.67408 0
M  V30 10098 H 953.981 3.42152 3.97533 0
M  V30 10099 H 955.455 2.12754 5.09352 0
M  V30 10100 H 955.932 0.602722 4.35045 0
M  V30 10101 H 956.538 2.13411 3.6788 0
M  V30 10102 N 954.853 -1.17469 1.05066 0
M  V30 10103 C 955.763 -2.25089 0.661222 0
M  V30 10104 C 956.779 -1.71086 -0.31712 0
M  V30 10105 O 957.955 -2.00685 -0.169534 0
M  V30 10106 C 955.02 -3.46676 0.0406415 0
M  V30 10107 C 954.081 -4.15771 1.06927 0
M  V30 10108 C 953.314 -5.31553 0.478208 0
M  V30 10109 O 953.537 -5.6593 -0.712714 0
M  V30 10110 O 952.471 -5.89574 1.21185 0
M  V30 10111 H 956.297 -2.60685 1.5581 0
M  V30 10112 H 953.882 -1.24744 0.822147 0
M  V30 10113 H 955.764 -4.203 -0.304312 0
M  V30 10114 H 954.439 -3.1288 -0.829909 0
M  V30 10115 H 953.346 -3.44171 1.46619 0
M  V30 10116 H 954.679 -4.53591 1.91092 0
M  V30 10117 N 956.331 -0.831506 -1.3388 0
M  V30 10118 C 957.608 -0.345907 -1.92517 0
M  V30 10119 C 957.988 1.16784 -1.75854 0
M  V30 10120 O 957.336 1.97889 -1.14245 0
M  V30 10121 C 957.546 -0.784692 -3.40064 0
M  V30 10122 C 958.894 -0.78846 -4.17215 0
M  V30 10123 O 959.918 -0.727823 -3.48685 0
M  V30 10124 O 958.777 -0.869481 -5.39539 0
M  V30 10125 H 955.871 -0.0963568 -0.821367 0
M  V30 10126 H 958.417 -0.916868 -1.42799 0
M  V30 10127 H 957.189 -1.82697 -3.46031 0
M  V30 10128 H 956.812 -0.189897 -3.97146 0
M  V30 10129 N 957.809 1.4625 -0.587256 0
M  V30 10130 C 958.756 2.30354 0.143384 0
M  V30 10131 C 959.726 1.40891 0.879716 0
M  V30 10132 O 960.911 1.69837 0.869486 0
M  V30 10133 C 958.051 3.25441 1.14815 0
M  V30 10134 C 957.164 4.30004 0.414792 0
M  V30 10135 C 956.299 5.12214 1.40748 0
M  V30 10136 C 955.338 6.08523 0.660786 0
M  V30 10137 N 954.475 6.83585 1.60176 0
M  V30 10138 H 959.315 2.92304 -0.579866 0
M  V30 10139 H 956.852 1.44055 -0.29777 0
M  V30 10140 H 958.81 3.79018 1.7436 0
M  V30 10141 H 957.44 2.6529 1.83906 0
M  V30 10142 H 956.492 3.79248 -0.295787 0
M  V30 10143 H 957.804 4.98515 -0.168738 0
M  V30 10144 H 956.958 5.70091 2.0756 0
M  V30 10145 H 955.697 4.43675 2.02494 0
M  V30 10146 H 954.702 5.49796 -0.0210864 0
M  V30 10147 H 955.927 6.79083 0.0486551 0
M  V30 10148 H 953.873 6.17752 2.20724 0
M  V30 10149 H 953.79 7.48373 1.07115 0
M  V30 10150 H 955.058 7.46016 2.26009 0
M  V30 10151 N 959.287 0.325282 1.54207 0
M  V30 10152 C 960.512 -0.281418 2.05482 0
M  V30 10153 C 960.937 -1.44869 1.19977 0
M  V30 10154 O 960.295 -1.80088 0.209275 0
M  V30 10155 C 960.343 -0.692029 3.53897 0
M  V30 10156 O 959.447 -1.7942 3.71325 0
M  V30 10157 H 958.788 -0.0504872 0.662078 0
M  V30 10158 H 961.318 0.474191 1.99029 0
M  V30 10159 H 961.328 -0.974219 3.96198 0
M  V30 10160 H 960.003 0.161709 4.15586 0
M  V30 10161 H 958.58 -1.51069 3.40929 0
M  V30 10162 N 960.765 -1.57509 0.0534917 0
M  V30 10163 C 962.005 -1.94654 -0.623641 0
M  V30 10164 C 962.369 -0.93184 -1.67871 0
M  V30 10165 O 963.57 -1.19031 -2.41009 0
M  V30 10166 C 961.841 -3.36575 -1.20216 0
M  V30 10167 S 963.4 -3.95677 -1.89697 0
M  V30 10168 H 960.218 -0.680893 -0.20471 0
M  V30 10169 H 962.82 -1.95113 0.122982 0
M  V30 10170 H 961.524 -4.08223 -0.422177 0
M  V30 10171 H 961.055 -3.39617 -1.98555 0
M  V30 10172 H 963.07 -3.81092 -3.17779 0
M  V30 10173 N 962.243 0.219913 -1.56058 0
M  V30 10174 C 963.659 0.569685 -1.49086 0
M  V30 10175 C 963.859 1.87066 -0.748903 0
M  V30 10176 O 962.915 2.50838 -0.289235 0
M  V30 10177 C 964.228 0.647397 -2.93648 0
M  V30 10178 C 965.776 0.737914 -3.04177 0
M  V30 10179 C 966.251 0.846957 -4.50101 0
M  V30 10180 N 967.742 0.911136 -4.5415 0
M  V30 10181 C 968.477 1.01525 -5.64341 0
M  V30 10182 N 967.973 1.0832 -6.8428 0
M  V30 10183 N 969.766 1.05051 -5.52196 0
M  V30 10184 H 961.917 -0.633778 -2.02724 0
M  V30 10185 H 964.18 -0.222583 -0.921499 0
M  V30 10186 H 963.886 -0.238987 -3.50887 0
M  V30 10187 H 963.76 1.51046 -3.45637 0
M  V30 10188 H 966.147 1.61474 -2.47002 0
M  V30 10189 H 966.228 -0.150845 -2.55355 0
M  V30 10190 H 965.872 -0.0254166 -5.07894 0
M  V30 10191 H 965.802 1.75116 -4.96631 0
M  V30 10192 H 968.293 0.868869 -3.67776 0
M  V30 10193 H 968.606 1.16247 -7.64007 0
M  V30 10194 H 966.951 1.05231 -6.86987 0
M  V30 10195 H 970.142 0.994086 -4.57423 0
M  V30 10196 H 970.315 1.12819 -6.38103 0
M  V30 10197 N 963.721 1.49897 0.486681 0
M  V30 10198 C 964.998 1.50614 1.24799 0
M  V30 10199 C 965.378 0.24193 2.09709 0
M  V30 10200 O 964.726 -0.775237 2.14947 0
M  V30 10201 C 964.936 2.79318 2.09243 0
M  V30 10202 C 966.284 3.29371 2.67955 0
M  V30 10203 O 967.308 2.80533 2.19499 0
M  V30 10204 O 966.167 4.14466 3.56202 0
M  V30 10205 H 963.261 0.603447 0.565491 0
M  V30 10206 H 965.807 1.62174 0.499778 0
M  V30 10207 H 964.579 3.62812 1.46572 0
M  V30 10208 H 964.202 2.70687 2.91229 0
M  V30 10209 N 965.199 -0.738761 1.39212 0
M  V30 10210 C 966.429 -1.5258 1.39295 0
M  V30 10211 C 966.837 -1.89194 -0.0153 0
M  V30 10212 O 966.18 -1.5435 -0.996073 0
M  V30 10213 C 966.242 -2.84462 2.19822 0
M  V30 10214 C 965.906 -2.70303 3.68491 0
M  V30 10215 C 966.903 -2.39102 4.61656 0
M  V30 10216 C 964.588 -2.87291 4.1203 0
M  V30 10217 C 966.582 -2.25066 5.96342 0
M  V30 10218 C 964.269 -2.72874 5.46793 0
M  V30 10219 C 965.267 -2.41807 6.38763 0
M  V30 10220 O 964.955 -2.27475 7.71045 0
M  V30 10221 H 964.687 -0.478236 0.477772 0
M  V30 10222 H 967.241 -0.920846 1.83602 0
M  V30 10223 H 965.471 -3.47202 1.70257 0
M  V30 10224 H 967.16 -3.46058 2.12129 0
M  V30 10225 H 967.926 -2.25632 4.2932 0
M  V30 10226 H 963.805 -3.10466 3.40781 0
M  V30 10227 H 967.349 -2.00739 6.68094 0
M  V30 10228 H 963.246 -2.85922 5.78722 0
M  V30 10229 H 964.014 -2.42574 7.81729 0
M  V30 10230 N 966.677 -1.24326 -0.968545 0
M  V30 10231 C 967.907 -1.10786 -1.74385 0
M  V30 10232 C 968.315 0.342503 -1.86074 0
M  V30 10233 O 967.658 1.24817 -1.34782 0
M  V30 10234 C 967.72 -1.67274 -3.18213 0
M  V30 10235 C 967.384 -3.1615 -3.29998 0
M  V30 10236 C 968.381 -4.13309 -3.15392 0
M  V30 10237 C 966.066 -3.56092 -3.54265 0
M  V30 10238 C 968.06 -5.48392 -3.24878 0
M  V30 10239 C 965.747 -4.91316 -3.63389 0
M  V30 10240 C 966.745 -5.87275 -3.48707 0
M  V30 10241 O 966.433 -7.20041 -3.57485 0
M  V30 10242 H 966.165 -0.387795 -0.553706 0
M  V30 10243 H 968.719 -1.64894 -1.22471 0
M  V30 10244 H 966.949 -1.07598 -3.71429 0
M  V30 10245 H 968.638 -1.49036 -3.77549 0
M  V30 10246 H 969.404 -3.83792 -2.96528 0
M  V30 10247 H 965.283 -2.81907 -3.6476 0
M  V30 10248 H 968.827 -6.23271 -3.13335 0
M  V30 10249 H 964.724 -5.20505 -3.81766 0
M  V30 10250 H 965.492 -7.27951 -3.74205 0
M  V30 10251 N 968.156 1.1691 -1.05688 0
M  V30 10252 C 969.405 1.86629 -0.765022 0
M  V30 10253 C 969.718 1.82223 0.710918 0
M  V30 10254 O 970.924 2.47462 1.11691 0
M  V30 10255 C 969.38 3.34886 -1.3183 0
M  V30 10256 C 968.988 3.47781 -2.82404 0
M  V30 10257 C 970.732 4.099 -1.10372 0
M  V30 10258 C 968.639 4.9009 -3.31008 0
M  V30 10259 H 967.569 0.699082 -0.282491 0
M  V30 10260 H 970.22 1.31989 -1.27481 0
M  V30 10261 H 968.602 3.89094 -0.736312 0
M  V30 10262 H 969.776 3.03765 -3.46502 0
M  V30 10263 H 968.091 2.86193 -3.02461 0
M  V30 10264 H 970.688 5.14894 -1.4418 0
M  V30 10265 H 971.031 4.16279 -0.0417372 0
M  V30 10266 H 971.564 3.61913 -1.65117 0
M  V30 10267 H 968.303 4.88887 -4.36657 0
M  V30 10268 H 967.823 5.34756 -2.71655 0
M  V30 10269 H 969.502 5.58881 -3.25977 0
M  V30 10270 N 969.634 0.838594 1.33437 0
M  V30 10271 C 970.544 0.274048 2.32994 0
M  V30 10272 C 971.56 -0.599776 1.63336 0
M  V30 10273 O 972.736 -0.503963 1.94993 0
M  V30 10274 C 969.801 -0.541804 3.4244 0
M  V30 10275 C 968.862 0.356262 4.27819 0
M  V30 10276 C 968.095 -0.420747 5.32039 0
M  V30 10277 O 968.318 -1.65247 5.45939 0
M  V30 10278 O 967.252 0.205101 6.0155 0
M  V30 10279 H 971.078 1.09846 2.83139 0
M  V30 10280 H 968.663 0.601111 1.36774 0
M  V30 10281 H 970.545 -1.00544 4.0923 0
M  V30 10282 H 969.22 -1.34328 2.94513 0
M  V30 10283 H 968.127 0.867726 3.63897 0
M  V30 10284 H 969.46 1.1225 4.79229 0
M  V30 10285 N 971.112 -1.45937 0.595003 0
M  V30 10286 C 972.342 -2.06399 0.0911607 0
M  V30 10287 C 972.75 -1.44236 -1.22444 0
M  V30 10288 O 972.093 -0.546265 -1.7539 0
M  V30 10289 C 972.155 -3.59242 -0.136079 0
M  V30 10290 C 971.819 -4.43668 1.09579 0
M  V30 10291 C 972.816 -4.79437 2.01088 0
M  V30 10292 C 970.501 -4.84616 1.32109 0
M  V30 10293 C 972.495 -5.54995 3.13464 0
M  V30 10294 C 970.182 -5.5993 2.44788 0
M  V30 10295 C 971.18 -5.95035 3.35294 0
M  V30 10296 O 970.868 -6.68825 4.46014 0
M  V30 10297 H 970.6 -0.673316 0.0601779 0
M  V30 10298 H 973.154 -1.88365 0.819005 0
M  V30 10299 H 971.384 -3.75629 -0.918676 0
M  V30 10300 H 973.073 -4.0159 -0.589954 0
M  V30 10301 H 973.839 -4.48371 1.84902 0
M  V30 10302 H 969.718 -4.56735 0.625662 0
M  V30 10303 H 973.262 -5.82314 3.84131 0
M  V30 10304 H 969.159 -5.90411 2.60931 0
M  V30 10305 H 969.927 -6.87262 4.44537 0
M  V30 10306 N 972.59 -0.333456 -1.54032 0
M  V30 10307 C 973.538 0.543414 -2.26163 0
M  V30 10308 C 974.532 1.11037 -1.27934 0
M  V30 10309 O 975.738 1.05727 -1.45677 0
M  V30 10310 H 972.113 0.19391 -0.726569 0
M  V30 10311 H 974.084 -0.0871052 -2.98273 0
M  V30 10312 C 972.833 1.68769 -3.03994 0
M  V30 10313 H 972.156 1.26069 -3.79403 0
M  V30 10314 H 973.596 2.27662 -3.57695 0
M  V30 10315 C 972.055 2.61117 -2.12884 0
M  V30 10316 O 972.585 3.63097 -1.71823 0
M  V30 10317 N 970.791 2.29573 -1.7817 0
M  V30 10318 H 970.338 1.46684 -2.11759 0
M  V30 10319 H 970.296 2.91622 -1.1749 0
M  V30 10320 N 974.068 1.57479 -0.061844 0
M  V30 10321 C 975.315 1.93108 0.60954 0
M  V30 10322 C 975.643 0.941086 1.70217 0
M  V30 10323 O 974.898 -0.044914 1.95648 0
M  V30 10324 C 975.197 3.35394 1.23474 0
M  V30 10325 C 974.863 4.50095 0.269247 0
M  V30 10326 C 973.525 4.812 0.00360316 0
M  V30 10327 C 975.877 5.19725 -0.391839 0
M  V30 10328 C 973.205 5.79276 -0.930383 0
M  V30 10329 C 975.557 6.18801 -1.31408 0
M  V30 10330 C 974.221 6.48328 -1.58829 0
M  V30 10331 H 973.491 0.706634 0.223046 0
M  V30 10332 H 976.138 1.91054 -0.1306 0
M  V30 10333 H 974.443 3.33866 2.05039 0
M  V30 10334 H 976.14 3.60247 1.76134 0
M  V30 10335 H 972.73 4.2583 0.486477 0
M  V30 10336 H 976.914 4.95898 -0.199713 0
M  V30 10337 H 972.17 6.00484 -1.15019 0
M  V30 10338 H 976.344 6.71862 -1.83234 0
M  V30 10339 H 973.971 7.24137 -2.31363 0
M  V30 10340 N 975.546 -0.211634 1.56173 0
M  V30 10341 C 976.493 -1.26231 1.93221 0
M  V30 10342 C 977.463 -1.46076 0.790641 0
M  V30 10343 O 978.648 -1.59482 1.04739 0
M  V30 10344 C 975.788 -2.60559 2.26281 0
M  V30 10345 C 974.901 -2.48431 3.5342 0
M  V30 10346 C 974.036 -3.7535 3.7588 0
M  V30 10347 C 973.075 -3.57985 4.96501 0
M  V30 10348 N 972.212 -4.76877 5.15299 0
M  V30 10349 H 977.052 -0.939367 2.82807 0
M  V30 10350 H 974.589 -0.452511 1.39967 0
M  V30 10351 H 976.547 -3.38796 2.43461 0
M  V30 10352 H 975.177 -2.9093 1.39855 0
M  V30 10353 H 974.229 -1.61577 3.44379 0
M  V30 10354 H 975.541 -2.31526 4.41811 0
M  V30 10355 H 974.695 -4.62029 3.9321 0
M  V30 10356 H 973.434 -3.95191 2.85788 0
M  V30 10357 H 972.439 -2.69691 4.79111 0
M  V30 10358 H 973.664 -3.39605 5.88086 0
M  V30 10359 H 971.61 -4.97013 4.28152 0
M  V30 10360 H 971.527 -4.62735 5.9784 0
M  V30 10361 H 972.795 -5.64954 5.37073 0
M  V30 10362 N 977.024 -1.50153 -0.478725 0
M  V30 10363 C 978.254 -1.64266 -1.253 0
M  V30 10364 C 978.662 -0.322256 -1.86435 0
M  V30 10365 O 978.005 0.704925 -1.69636 0
M  V30 10366 C 978.067 -2.67017 -2.40712 0
M  V30 10367 C 977.731 -4.10779 -2.00274 0
M  V30 10368 C 978.728 -4.96889 -1.52963 0
M  V30 10369 C 976.413 -4.5665 -2.09228 0
M  V30 10370 C 978.407 -6.26914 -1.15139 0
M  V30 10371 C 976.094 -5.86683 -1.71015 0
M  V30 10372 C 977.092 -6.71641 -1.24048 0
M  V30 10373 O 976.78 -7.99248 -0.863617 0
M  V30 10374 H 976.512 -0.555382 -0.385392 0
M  V30 10375 H 979.066 -1.97078 -0.578751 0
M  V30 10376 H 977.296 -2.29432 -3.11284 0
M  V30 10377 H 978.985 -2.70428 -3.02694 0
M  V30 10378 H 979.751 -4.62669 -1.45474 0
M  V30 10379 H 975.63 -3.90674 -2.44735 0
M  V30 10380 H 979.174 -6.93179 -0.784089 0
M  V30 10381 H 975.071 -6.20426 -1.78162 0
M  V30 10382 H 975.839 -8.12452 -0.993139 0
M  V30 10383 N 978.502 0.731368 -1.39602 0
M  V30 10384 C 979.432 1.85855 -1.41351 0
M  V30 10385 C 980.413 1.67839 -0.2764 0
M  V30 10386 O 981.598 1.88104 -0.482747 0
M  V30 10387 C 978.728 3.23644 -1.25983 0
M  V30 10388 C 977.682 3.56304 -2.37132 0
M  V30 10389 C 977.008 4.93069 -2.0685 0
M  V30 10390 C 978.308 3.58906 -3.79452 0
M  V30 10391 H 980.002 1.84648 -2.3568 0
M  V30 10392 H 977.548 0.886955 -1.13442 0
M  V30 10393 H 979.501 4.02176 -1.25826 0
M  V30 10394 H 978.225 3.25387 -0.281234 0
M  V30 10395 H 976.884 2.80104 -2.36511 0
M  V30 10396 H 976.532 4.91396 -1.0742 0
M  V30 10397 H 976.232 5.15888 -2.81306 0
M  V30 10398 H 977.756 5.73953 -2.0835 0
M  V30 10399 H 979.17 4.27508 -3.81982 0
M  V30 10400 H 977.567 3.93246 -4.53297 0
M  V30 10401 H 978.637 2.58631 -4.10168 0
M  V30 10402 N 979.98 1.24838 0.961938 0
M  V30 10403 C 980.912 1.00369 2.06055 0
M  V30 10404 C 981.925 -0.0288583 1.62774 0
M  V30 10405 O 983.114 0.208853 1.77274 0
M  V30 10406 C 980.214 0.493953 3.35281 0
M  V30 10407 C 979.387 1.59097 4.07439 0
M  V30 10408 C 978.446 1.08288 5.14937 0
M  V30 10409 O 977.472 1.77577 5.40791 0
M  V30 10410 N 978.674 -0.0796836 5.80445 0
M  V30 10411 H 981.439 1.94962 2.27618 0
M  V30 10412 H 979 1.15945 1.12997 0
M  V30 10413 H 980.992 0.138675 4.04462 0
M  V30 10414 H 979.562 -0.357851 3.10545 0
M  V30 10415 H 978.782 2.11817 3.32456 0
M  V30 10416 H 980.07 2.32817 4.52409 0
M  V30 10417 H 979.468 -0.658827 5.6185 0
M  V30 10418 H 978.025 -0.376057 6.50714 0
M  V30 10419 N 981.458 -1.16348 1.06306 0
M  V30 10420 C 982.698 -1.88556 0.789055 0
M  V30 10421 C 983.062 -1.79849 -0.672179 0
M  V30 10422 O 984.263 -2.46984 -1.06078 0
M  V30 10423 C 982.534 -3.34069 1.27016 0
M  V30 10424 S 984.093 -4.24128 1.12522 0
M  V30 10425 H 980.911 -0.65084 0.286232 0
M  V30 10426 H 983.513 -1.40443 1.36 0
M  V30 10427 H 982.217 -3.37944 2.32856 0
M  V30 10428 H 981.748 -3.87231 0.693963 0
M  V30 10429 H 983.763 -4.96168 0.0562142 0
M  V30 10430 N 982.937 -0.845659 -1.3299 0
M  V30 10431 C 984.348 -0.50048 -1.79867 0
M  V30 10432 C 984.699 0.981027 -1.69913 0
M  V30 10433 O 983.824 1.76477 -1.25239 0
M  V30 10434 C 984.419 -0.901679 -3.26581 0
M  V30 10435 C 982.978 -0.608536 -3.71448 0
M  V30 10436 C 982.125 -1.10632 -2.54275 0
M  V30 10437 H 985.076 -1.03372 -1.20416 0
M  V30 10438 H 985.097 -0.214433 -3.79895 0
M  V30 10439 H 984.609 -1.97998 -3.33794 0
M  V30 10440 H 982.71 0.459416 -3.69757 0
M  V30 10441 H 982.823 -1.16853 -4.64631 0
M  V30 10442 H 981.187 -0.526925 -2.4919 0
M  V30 10443 H 981.97 -2.19154 -2.64247 0
M  V30 10444 N 984.415 1.45619 -0.602734 0
M  V30 10445 C 985.345 2.33258 0.106342 0
M  V30 10446 C 986.326 1.46543 0.863664 0
M  V30 10447 O 987.511 1.75324 0.835175 0
M  V30 10448 C 984.641 3.29168 1.10751 0
M  V30 10449 C 983.595 4.25481 0.463717 0
M  V30 10450 C 982.921 5.11046 1.57278 0
M  V30 10451 C 984.221 5.18702 -0.61199 0
M  V30 10452 H 985.915 2.92795 -0.625423 0
M  V30 10453 H 983.461 1.40793 -0.302213 0
M  V30 10454 H 985.414 3.89346 1.61208 0
M  V30 10455 H 984.138 2.6778 1.8698 0
M  V30 10456 H 982.797 3.66595 -0.0199496 0
M  V30 10457 H 982.445 4.46029 2.32524 0
M  V30 10458 H 982.145 5.76286 1.14755 0
M  V30 10459 H 983.669 5.74091 2.07972 0
M  V30 10460 H 985.083 5.72979 -0.191686 0
M  V30 10461 H 983.48 5.92393 -0.958686 0
M  V30 10462 H 984.55 4.61424 -1.4905 0
M  V30 10463 N 985.893 0.34162 1.53853 0
M  V30 10464 C 986.803 -0.524555 2.2866 0
M  V30 10465 C 987.819 -1.1136 1.33697 0
M  V30 10466 O 988.995 -1.1297 1.66732 0
M  V30 10467 C 986.06 -1.66065 3.04341 0
M  V30 10468 C 985.121 -1.10158 4.14926 0
M  V30 10469 C 984.354 -2.18353 4.86988 0
M  V30 10470 O 984.577 -3.39038 4.58704 0
M  V30 10471 O 983.511 -1.82756 5.73484 0
M  V30 10472 H 987.337 0.0835014 3.03585 0
M  V30 10473 H 984.922 0.106727 1.49018 0
M  V30 10474 H 986.804 -2.3217 3.51674 0
M  V30 10475 H 985.479 -2.25456 2.32275 0
M  V30 10476 H 984.386 -0.405109 3.719 0
M  V30 10477 H 985.719 -0.552567 4.89088 0
M  V30 10478 N 987.371 -1.57444 0.0701946 0
M  V30 10479 C 988.618 -1.93429 -0.59929 0
M  V30 10480 C 988.946 -0.9501 -1.69715 0
M  V30 10481 O 988.201 0.0345377 -1.9567 0
M  V30 10482 C 988.5 -3.36044 -1.21694 0
M  V30 10483 C 988.166 -4.50232 -0.245374 0
M  V30 10484 C 986.828 -4.81195 0.0219161 0
M  V30 10485 C 989.18 -5.1951 0.419396 0
M  V30 10486 C 986.508 -5.78775 0.96109 0
M  V30 10487 C 988.86 -6.18095 1.34688 0
M  V30 10488 C 987.524 -6.47477 1.62265 0
M  V30 10489 H 986.794 -0.707807 -0.219296 0
M  V30 10490 H 989.441 -1.90982 0.14073 0
M  V30 10491 H 987.746 -3.34948 -2.03265 0
M  V30 10492 H 989.443 -3.61176 -1.74221 0
M  V30 10493 H 986.033 -4.26082 -0.463887 0
M  V30 10494 H 990.217 -4.95785 0.226009 0
M  V30 10495 H 985.473 -5.99865 1.18202 0
M  V30 10496 H 989.647 -6.7088 1.86795 0
M  V30 10497 H 987.274 -7.229 2.352 0
M  V30 10498 N 988.849 0.203349 -1.56283 0
M  V30 10499 C 990.077 0.941426 -1.84241 0
M  V30 10500 C 990.492 1.77197 -0.651658 0
M  V30 10501 O 989.849 1.78506 0.379713 0
M  V30 10502 C 989.9 1.84429 -3.10915 0
M  V30 10503 O 989.621 1.04729 -4.25398 0
M  V30 10504 C 991.122 2.69474 -3.51993 0
M  V30 10505 H 988.342 0.27507 -0.612027 0
M  V30 10506 H 990.886 0.213088 -2.03387 0
M  V30 10507 H 989.041 2.52635 -2.93691 0
M  V30 10508 H 989.455 1.66179 -4.97478 0
M  V30 10509 H 990.929 3.28495 -4.43616 0
M  V30 10510 H 991.406 3.42775 -2.74594 0
M  V30 10511 H 992.012 2.06652 -3.71719 0
M  V30 10512 N 990.327 1.50405 0.470755 0
M  V30 10513 C 991.274 1.69293 1.56871 0
M  V30 10514 C 992.244 0.534248 1.57274 0
M  V30 10515 O 993.429 0.764855 1.74799 0
M  V30 10516 C 990.569 1.79338 2.94842 0
M  V30 10517 C 989.682 3.06709 3.04226 0
M  V30 10518 C 988.817 3.07548 4.33114 0
M  V30 10519 C 987.856 4.29372 4.36241 0
M  V30 10520 N 986.993 4.27949 5.56601 0
M  V30 10521 H 991.833 2.63029 1.40071 0
M  V30 10522 H 989.37 1.30386 0.681016 0
M  V30 10523 H 991.328 1.83143 3.74853 0
M  V30 10524 H 989.958 0.890411 3.10277 0
M  V30 10525 H 989.01 3.12374 2.17086 0
M  V30 10526 H 990.322 3.96684 3.02396 0
M  V30 10527 H 989.476 3.10084 5.21472 0
M  V30 10528 H 988.215 2.15404 4.37553 0
M  V30 10529 H 987.22 4.27048 3.4628 0
M  V30 10530 H 988.445 5.22743 4.33493 0
M  V30 10531 H 986.391 3.38658 5.61824 0
M  V30 10532 H 986.308 5.11692 5.56513 0
M  V30 10533 H 987.576 4.34631 6.47083 0
M  V30 10534 N 991.805 -0.723954 1.39988 0
M  V30 10535 C 992.752 -1.83803 1.39589 0
M  V30 10536 C 993.722 -1.64146 0.253996 0
M  V30 10537 O 994.907 -1.85398 0.450793 0
M  V30 10538 C 992.047 -3.21431 1.25604 0
M  V30 10539 C 991.16 -3.52717 2.49429 0
M  V30 10540 C 990.295 -4.79805 2.27949 0
M  V30 10541 C 989.334 -5.03968 3.47394 0
M  V30 10542 N 988.471 -6.22266 3.25161 0
M  V30 10543 H 993.311 -1.83479 2.34818 0
M  V30 10544 H 990.848 -0.896396 1.16633 0
M  V30 10545 H 992.806 -4.00892 1.15504 0
M  V30 10546 H 991.436 -3.21005 0.339986 0
M  V30 10547 H 990.488 -2.67872 2.7009 0
M  V30 10548 H 991.8 -3.66486 3.38363 0
M  V30 10549 H 990.954 -5.67268 2.15155 0
M  V30 10550 H 989.693 -4.68229 1.36428 0
M  V30 10551 H 988.698 -4.14963 3.60674 0
M  V30 10552 H 989.923 -5.17422 4.39831 0
M  V30 10553 H 987.869 -6.11957 2.36314 0
M  V30 10554 H 987.786 -6.36673 4.07656 0
M  V30 10555 H 989.054 -7.12539 3.16083 0
M  V30 10556 N 993.283 -1.25346 -0.955304 0
M  V30 10557 C 994.511 -1.12793 -1.73451 0
M  V30 10558 C 994.926 0.318344 -1.86097 0
M  V30 10559 O 994.283 1.21897 -1.35821 0
M  V30 10560 C 994.334 -1.77603 -3.14864 0
M  V30 10561 O 994.055 -3.16577 -3.02837 0
M  V30 10562 C 995.556 -1.70821 -4.09066 0
M  V30 10563 H 992.776 -0.393457 -0.543537 0
M  V30 10564 H 995.32 -1.65696 -1.19855 0
M  V30 10565 H 993.475 -1.28673 -3.65407 0
M  V30 10566 H 993.889 -3.48433 -3.92039 0
M  V30 10567 H 995.363 -2.2083 -5.05903 0
M  V30 10568 H 995.84 -0.671858 -4.34031 0
M  V30 10569 H 996.446 -2.19237 -3.64438 0
M  V30 10570 N 994.761 1.15782 -1.06922 0
M  V30 10571 C 996.172 1.68062 -0.813144 0
M  V30 10572 C 996.523 1.84681 0.662374 0
M  V30 10573 O 995.648 1.54696 1.51321 0
M  V30 10574 C 996.243 3.05273 -1.46949 0
M  V30 10575 C 994.802 3.54647 -1.26104 0
M  V30 10576 C 993.949 2.30477 -1.54194 0
M  V30 10577 H 996.9 1.00056 -1.23185 0
M  V30 10578 H 996.921 3.69986 -0.888308 0
M  V30 10579 H 996.433 2.93145 -2.54337 0
M  V30 10580 H 994.534 3.72024 -0.20718 0
M  V30 10581 H 994.647 4.36354 -1.97819 0
M  V30 10582 H 993.011 2.35803 -0.96276 0
M  V30 10583 H 993.794 2.2094 -2.62755 0
M  V30 10584 N 996.239 0.8527 1.3254 0
M  V30 10585 C 997.467 0.469044 2.01513 0
M  V30 10586 C 997.882 -0.933701 1.64096 0
M  V30 10587 O 997.239 -1.60898 0.861283 0
M  V30 10588 C 997.29 0.596228 3.56549 0
M  V30 10589 O 997.011 1.94371 3.92621 0
M  V30 10590 C 998.512 0.211324 4.42796 0
M  V30 10591 H 995.732 0.184589 0.645111 0
M  V30 10592 H 998.276 1.1491 1.69163 0
M  V30 10593 H 996.431 -0.0360712 3.87383 0
M  V30 10594 H 996.845 1.93909 4.87339 0
M  V30 10595 H 998.319 0.351324 5.50881 0
M  V30 10596 H 998.796 -0.848055 4.30935 0
M  V30 10597 H 999.402 0.818617 4.17347 0
M  V30 10598 N 997.718 -1.45297 0.610449 0
M  V30 10599 C 998.65 -2.28742 -0.144884 0
M  V30 10600 C 999.663 -1.40114 -0.828977 0
M  V30 10601 O 1000.85 -1.64461 -0.693887 0
M  V30 10602 C 997.952 -3.15934 -1.22632 0
M  V30 10603 C 997.125 -4.32857 -0.628785 0
M  V30 10604 C 996.184 -5.01237 -1.60148 0
M  V30 10605 O 995.21 -5.57938 -1.12667 0
M  V30 10606 N 996.412 -5.00785 -2.9359 0
M  V30 10607 H 999.177 -2.94207 0.571145 0
M  V30 10608 H 996.738 -1.55517 0.450134 0
M  V30 10609 H 998.73 -3.58545 -1.87691 0
M  V30 10610 H 997.3 -2.52358 -1.84483 0
M  V30 10611 H 996.52 -3.93693 0.199951 0
M  V30 10612 H 997.808 -5.08367 -0.209845 0
M  V30 10613 H 997.206 -4.56014 -3.34765 0
M  V30 10614 H 995.763 -5.4725 -3.54064 0
M  V30 10615 N 999.196 -0.349774 -1.5367 0
M  V30 10616 C 1000.47 0.300419 -1.93279 0
M  V30 10617 C 1000.85 1.67721 -1.28191 0
M  V30 10618 O 1000.2 2.24319 -0.435127 0
M  V30 10619 C 1000.41 0.366466 -3.47071 0
M  V30 10620 C 1001.76 0.614349 -4.20132 0
M  V30 10621 O 1002.78 0.448327 -3.53367 0
M  V30 10622 O 1001.64 0.936421 -5.38417 0
M  V30 10623 H 998.736 0.176599 -0.807924 0
M  V30 10624 H 1001.28 -0.401405 -1.64884 0
M  V30 10625 H 1000.05 -0.599455 -3.86681 0
M  V30 10626 H 999.677 1.11482 -3.81651 0
M  V30 10627 N 1000.67 1.57404 -0.0785433 0
M  V30 10628 C 1001.92 1.94031 0.589896 0
M  V30 10629 C 1002.25 0.959297 1.68852 0
M  V30 10630 O 1001.53 -0.0103978 1.94497 0
M  V30 10631 C 1001.81 3.40886 1.16055 0
M  V30 10632 C 1001.66 4.49748 0.0681072 0
M  V30 10633 C 1002.98 3.88699 2.06401 0
M  V30 10634 H 1000.1 0.70556 0.212965 0
M  V30 10635 H 1002.74 1.89439 -0.145886 0
M  V30 10636 H 1000.89 3.4493 1.78761 0
M  V30 10637 H 1002.57 4.57823 -0.565318 0
M  V30 10638 H 1000.81 4.29625 -0.600431 0
M  V30 10639 H 1001.48 5.49658 0.507906 0
M  V30 10640 H 1003.96 3.86703 1.53622 0
M  V30 10641 H 1002.83 4.92052 2.43261 0
M  V30 10642 H 1003.09 3.2703 2.97496 0
M  V30 10643 N 1002.15 -0.195058 1.56388 0
M  V30 10644 C 1003.4 -0.913626 1.79821 0
M  V30 10645 C 1003.71 -1.84422 0.651767 0
M  V30 10646 O 1004.92 -2.6034 0.770402 0
M  V30 10647 C 1003.38 -1.67497 3.18548 0
M  V30 10648 C 1002.98 -0.789205 4.40994 0
M  V30 10649 C 1004.73 -2.38318 3.5129 0
M  V30 10650 C 1002.63 -1.54942 5.70742 0
M  V30 10651 H 1001.56 -0.344891 0.670497 0
M  V30 10652 H 1004.22 -0.166912 1.82739 0
M  V30 10653 H 1002.6 -2.46557 3.0988 0
M  V30 10654 H 1003.77 -0.0372595 4.60785 0
M  V30 10655 H 1002.09 -0.191834 4.15958 0
M  V30 10656 H 1004.68 -2.95745 4.45465 0
M  V30 10657 H 1005.03 -3.12507 2.75037 0
M  V30 10658 H 1005.56 -1.66224 3.61406 0
M  V30 10659 H 1002.3 -0.85031 6.49962 0
M  V30 10660 H 1001.82 -2.2753 5.54969 0
M  V30 10661 H 1003.5 -2.1032 6.11861 0
M  V30 10662 N 1003.63 -1.50653 -0.462772 0
M  V30 10663 C 1004.86 -1.65586 -1.23551 0
M  V30 10664 C 1005.27 -0.342012 -1.86083 0
M  V30 10665 O 1004.61 0.686893 -1.70374 0
M  V30 10666 C 1004.67 -2.69555 -2.37867 0
M  V30 10667 C 1004.34 -4.1288 -1.95906 0
M  V30 10668 C 1005.33 -4.98483 -1.47685 0
M  V30 10669 C 1003.02 -4.58843 -2.04373 0
M  V30 10670 C 1005.01 -6.281 -1.08484 0
M  V30 10671 C 1002.7 -5.88464 -1.64783 0
M  V30 10672 C 1003.7 -6.72918 -1.16918 0
M  V30 10673 O 1003.39 -8.00119 -0.778798 0
M  V30 10674 H 1003.12 -0.559438 -0.37948 0
M  V30 10675 H 1005.67 -1.9768 -0.557816 0
M  V30 10676 H 1003.9 -2.3272 -3.08834 0
M  V30 10677 H 1005.59 -2.73624 -2.99808 0
M  V30 10678 H 1006.36 -4.64186 -1.40558 0
M  V30 10679 H 1002.24 -3.93247 -2.40577 0
M  V30 10680 H 1005.78 -6.93972 -0.710524 0
M  V30 10681 H 1001.68 -6.22281 -1.71571 0
M  V30 10682 H 1002.44 -8.1346 -0.906911 0
M  V30 10683 N 1005.11 0.71652 -1.4037 0
M  V30 10684 C 1006.02 1.86074 -1.42876 0
M  V30 10685 C 1007.03 1.71005 -0.321475 0
M  V30 10686 O 1008.21 1.93286 -0.565909 0
M  V30 10687 C 1005.28 3.21862 -1.28863 0
M  V30 10688 C 1004.34 3.49193 -2.49726 0
M  V30 10689 C 1003.57 4.78502 -2.36372 0
M  V30 10690 O 1003.79 5.53529 -1.37703 0
M  V30 10691 O 1002.73 5.06147 -3.25728 0
M  V30 10692 H 1006.55 1.86916 -2.39366 0
M  V30 10693 H 1004.14 0.866818 -1.21683 0
M  V30 10694 H 1006.02 4.02972 -1.23253 0
M  V30 10695 H 1004.69 3.2175 -0.354783 0
M  V30 10696 H 1003.6 2.68095 -2.60913 0
M  V30 10697 H 1004.93 3.54101 -3.41868 0
M  V30 10698 N 1006.59 1.25851 0.948643 0
M  V30 10699 C 1008 1.09975 1.50872 0
M  V30 10700 C 1008.35 -0.322497 1.93531 0
M  V30 10701 O 1007.47 -1.21316 1.79197 0
M  V30 10702 C 1008.07 1.99021 2.74182 0
M  V30 10703 C 1006.63 1.87313 3.26483 0
M  V30 10704 C 1005.77 1.92815 1.99293 0
M  V30 10705 H 1008.73 1.3905 0.764908 0
M  V30 10706 H 1008.75 1.53372 3.4822 0
M  V30 10707 H 1008.26 3.02527 2.43103 0
M  V30 10708 H 1006.36 0.867136 3.62369 0
M  V30 10709 H 1006.47 2.72446 3.94094 0
M  V30 10710 H 1004.84 1.36774 2.1486 0
M  V30 10711 H 1005.62 2.97936 1.70554 0
M  V30 10712 N 1008.06 -1.15214 1.07534 0
M  V30 10713 C 1008.99 -2.2216 0.718837 0
M  V30 10714 C 1009.98 -1.6753 -0.29459 0
M  V30 10715 O 1011.16 -1.93481 -0.166931 0
M  V30 10716 C 1008.29 -3.471 0.117836 0
M  V30 10717 C 1007.24 -4.14701 1.05862 0
M  V30 10718 C 1006.57 -5.3374 0.320284 0
M  V30 10719 C 1007.87 -4.64254 2.39302 0
M  V30 10720 H 1009.56 -2.52237 1.61297 0
M  V30 10721 H 1007.11 -1.21239 0.776992 0
M  V30 10722 H 1009.06 -4.21156 -0.143519 0
M  V30 10723 H 1007.79 -3.16361 -0.811389 0
M  V30 10724 H 1006.45 -3.42589 1.30493 0
M  V30 10725 H 1006.09 -4.99257 -0.61246 0
M  V30 10726 H 1005.79 -5.79912 0.947381 0
M  V30 10727 H 1007.32 -6.10563 0.0667721 0
M  V30 10728 H 1008.73 -5.29827 2.18988 0
M  V30 10729 H 1007.13 -5.21095 2.97623 0
M  V30 10730 H 1008.2 -3.79793 3.01472 0
M  V30 10731 N 1009.54 -0.859717 -1.32086 0
M  V30 10732 C 1010.77 -0.479724 -2.01262 0
M  V30 10733 C 1011.19 0.924985 -1.64589 0
M  V30 10734 O 1010.54 1.60439 -0.869803 0
M  V30 10735 C 1010.59 -0.615128 -3.56228 0
M  V30 10736 O 1010.31 -1.96451 -3.91585 0
M  V30 10737 C 1011.82 -0.234804 -4.42678 0
M  V30 10738 H 1009.04 -0.188007 -0.644123 0
M  V30 10739 H 1011.58 -1.15805 -1.68551 0
M  V30 10740 H 1009.73 0.0155268 -3.87397 0
M  V30 10741 H 1010.15 -1.96491 -4.86304 0
M  V30 10742 H 1011.62 -0.380534 -5.50687 0
M  V30 10743 H 1012.1 0.825189 -4.31378 0
M  V30 10744 H 1012.71 -0.840739 -4.16907 0
M  V30 10745 N 1011.02 1.44971 -0.618145 0
M  V30 10746 C 1011.98 2.29044 0.0846739 0
M  V30 10747 C 1012.98 1.40341 0.784921 0
M  V30 10748 O 1014.17 1.62351 0.631479 0
M  V30 10749 C 1011.31 3.21617 1.13027 0
M  V30 10750 H 1012.5 2.92668 -0.654612 0
M  V30 10751 H 1010.05 1.51668 -0.377672 0
M  V30 10752 H 1010.79 2.62815 1.89997 0
M  V30 10753 H 1010.57 3.86969 0.63224 0
M  V30 10754 H 1012.06 3.84805 1.62218 0
M  V30 10755 N 1012.5 0.357919 1.53482 0
M  V30 10756 C 1013.43 -0.484231 2.28424 0
M  V30 10757 C 1014.41 -1.09046 1.30548 0
M  V30 10758 O 1015.59 -1.10916 1.59409 0
M  V30 10759 C 1012.72 -1.62803 3.06778 0
M  V30 10760 C 1011.68 -1.14943 4.12277 0
M  V30 10761 C 1011 -2.38287 4.78669 0
M  V30 10762 C 1012.3 -0.239627 5.2175 0
M  V30 10763 H 1014 0.140979 2.99068 0
M  V30 10764 H 1011.54 0.069244 1.43833 0
M  V30 10765 H 1013.5 -2.22374 3.57949 0
M  V30 10766 H 1012.22 -2.28036 2.3381 0
M  V30 10767 H 1010.88 -0.576442 3.6204 0
M  V30 10768 H 1010.53 -3.01959 4.02281 0
M  V30 10769 H 1010.23 -2.06939 5.49955 0
M  V30 10770 H 1011.75 -2.98558 5.32631 0
M  V30 10771 H 1013.17 -0.742597 5.6847 0
M  V30 10772 H 1011.56 -0.0173747 6.00097 0
M  V30 10773 H 1012.63 0.720333 4.7952 0
M  V30 10774 N 1013.98 -1.5736 0.0868897 0
M  V30 10775 C 1014.92 -2.14793 -0.892571 0
M  V30 10776 C 1015.92 -1.08866 -1.29787 0
M  V30 10777 O 1017.12 -1.27223 -1.27335 0
M  V30 10778 H 1013.5 -0.686998 -0.305838 0
M  V30 10779 H 1015.47 -2.95927 -0.383393 0
M  V30 10780 C 1014.22 -2.73646 -2.14507 0
M  V30 10781 H 1013.54 -3.54835 -1.84207 0
M  V30 10782 H 1014.98 -3.17409 -2.81118 0
M  V30 10783 C 1013.44 -1.69138 -2.91366 0
M  V30 10784 O 1013.97 -1.12539 -3.85614 0
M  V30 10785 N 1012.18 -1.3982 -2.54752 0
M  V30 10786 H 1011.72 -1.86035 -1.78182 0
M  V30 10787 H 1011.68 -0.701316 -3.06478 0
M  V30 10788 N 1015.45 0.186762 -1.56489 0
M  V30 10789 C 1016.42 1.21511 -1.94339 0
M  V30 10790 C 1017.42 1.38001 -0.82537 0
M  V30 10791 O 1018.61 1.3567 -1.09266 0
M  V30 10792 C 1015.74 2.583 -2.22472 0
M  V30 10793 H 1016.93 0.891371 -2.86347 0
M  V30 10794 H 1014.49 0.428612 -1.50308 0
M  V30 10795 H 1015.22 2.95715 -1.33129 0
M  V30 10796 H 1015.01 2.47701 -3.03951 0
M  V30 10797 H 1016.5 3.32441 -2.5273 0
M  V30 10798 N 1016.93 1.50896 0.454776 0
M  V30 10799 C 1017.87 1.65608 1.57001 0
M  V30 10800 C 1018.84 0.50387 1.54596 0
M  V30 10801 O 1020.03 0.725485 1.7398 0
M  V30 10802 C 1017.15 1.65366 2.95587 0
M  V30 10803 C 1016.2 2.86344 3.16085 0
M  V30 10804 S 1017.03 4.47418 2.9424 0
M  V30 10805 C 1018.19 4.49895 4.35138 0
M  V30 10806 H 1018.42 2.59941 1.44285 0
M  V30 10807 H 1015.96 1.40362 0.643264 0
M  V30 10808 H 1017.91 1.65911 3.75478 0
M  V30 10809 H 1016.57 0.722407 3.0568 0
M  V30 10810 H 1015.77 2.82526 4.17367 0
M  V30 10811 H 1015.37 2.8345 2.43992 0
M  V30 10812 H 1017.66 4.24462 5.28051 0
M  V30 10813 H 1018.6 5.5161 4.43995 0
M  V30 10814 H 1019.01 3.79412 4.17979 0
M  V30 10815 N 1018.41 -0.709066 1.40748 0
M  V30 10816 C 1019.66 -1.47119 1.39585 0
M  V30 10817 C 1019.99 -1.942 0.000245323 0
M  V30 10818 O 1019.26 -1.68609 -0.969593 0
M  V30 10819 C 1019.55 -2.69266 2.39099 0
M  V30 10820 C 1019.4 -2.28037 3.8771 0
M  V30 10821 C 1020.72 -3.71438 2.36055 0
M  V30 10822 H 1017.84 -0.533632 0.508336 0
M  V30 10823 H 1020.48 -0.808718 1.7193 0
M  V30 10824 H 1018.63 -3.25788 2.11647 0
M  V30 10825 H 1020.3 -1.76946 4.26014 0
M  V30 10826 H 1018.55 -1.59966 4.03229 0
M  V30 10827 H 1019.22 -3.15621 4.52866 0
M  V30 10828 H 1021.69 -3.24559 2.60385 0
M  V30 10829 H 1020.57 -4.54532 3.07721 0
M  V30 10830 H 1020.83 -4.20193 1.37443 0
M  V30 10831 N 1019.89 -1.26353 -0.941956 0
M  V30 10832 C 1020.82 -1.03634 -2.04432 0
M  V30 10833 C 1021.83 0.00295864 -1.628 0
M  V30 10834 O 1023.02 -0.237029 -1.76919 0
M  V30 10835 C 1020.12 -0.547231 -3.34453 0
M  V30 10836 C 1019.3 -1.65559 -4.04857 0
M  V30 10837 C 1018.36 -1.16466 -5.13149 0
M  V30 10838 O 1017.38 -1.86158 -5.37898 0
M  V30 10839 N 1018.58 -0.0126703 -5.80499 0
M  V30 10840 H 1021.35 -1.98558 -2.24488 0
M  V30 10841 H 1018.91 -1.17728 -1.11138 0
M  V30 10842 H 1020.9 -0.203004 -4.04191 0
M  V30 10843 H 1019.47 0.308401 -3.11075 0
M  V30 10844 H 1018.69 -2.17079 -3.29044 0
M  V30 10845 H 1019.98 -2.39985 -4.48647 0
M  V30 10846 H 1019.38 0.569358 -5.62828 0
M  V30 10847 H 1017.93 0.272486 -6.5123 0
M  V30 10848 N 1021.37 1.14642 -1.08144 0
M  V30 10849 C 1022.32 2.21708 -0.703448 0
M  V30 10850 C 1023.31 1.66907 0.289535 0
M  V30 10851 O 1024.52 1.79354 0.152387 0
M  V30 10852 H 1020.89 0.722247 -0.209437 0
M  V30 10853 H 1022.86 2.50862 -1.61588 0
M  V30 10854 C 1021.61 3.47472 -0.125975 0
M  V30 10855 H 1020.93 3.89967 -0.881216 0
M  V30 10856 H 1022.37 4.2388 0.100737 0
M  V30 10857 C 1020.83 3.17189 1.13546 0
M  V30 10858 O 1021.36 3.34733 2.22073 0
M  V30 10859 N 1019.57 2.71169 1.04479 0
M  V30 10860 H 1019.12 2.57093 0.161566 0
M  V30 10861 H 1019.07 2.51282 1.88957 0
M  V30 10862 N 1022.85 0.866709 1.31628 0
M  V30 10863 C 1023.79 0.309128 2.30537 0
M  V30 10864 C 1024.79 -0.574028 1.59378 0
M  V30 10865 O 1025.99 -0.460491 1.7401 0
M  V30 10866 H 1022.37 0.081279 0.747595 0
M  V30 10867 H 1024.34 1.15734 2.75042 0
M  V30 10868 C 1023.09 -0.477287 3.44409 0
M  V30 10869 H 1022.41 0.19301 3.99334 0
M  V30 10870 H 1023.85 -0.832818 4.1574 0
M  V30 10871 C 1022.31 -1.66727 2.92752 0
M  V30 10872 O 1022.84 -2.76654 2.91248 0
M  V30 10873 N 1021.05 -1.49833 2.48995 0
M  V30 10874 H 1020.59 -0.604073 2.50417 0
M  V30 10875 H 1020.55 -2.29594 2.14788 0
M  V30 10876 N 1024.32 -1.44642 0.625825 0
M  V30 10877 C 1025.74 -1.56925 0.290992 0
M  V30 10878 C 1025.94 -1.61424 -1.20601 0
M  V30 10879 O 1025 -1.55439 -1.98985 0
M  V30 10880 C 1026.31 -2.84343 0.978242 0
M  V30 10881 C 1027.86 -2.98047 0.955882 0
M  V30 10882 C 1028.33 -4.2826 1.62349 0
M  V30 10883 N 1029.82 -4.35062 1.58983 0
M  V30 10884 C 1030.56 -5.34524 2.07538 0
M  V30 10885 N 1030.05 -6.4042 2.6426 0
M  V30 10886 N 1031.85 -5.25998 1.98198 0
M  V30 10887 H 1024 -1.39965 1.59761 0
M  V30 10888 H 1026.26 -0.670368 0.670306 0
M  V30 10889 H 1025.97 -2.86985 2.03304 0
M  V30 10890 H 1025.84 -3.73699 0.512726 0
M  V30 10891 H 1028.23 -2.94961 -0.0904292 0
M  V30 10892 H 1028.31 -2.10053 1.45984 0
M  V30 10893 H 1027.95 -4.32105 2.66923 0
M  V30 10894 H 1027.88 -5.15102 1.09441 0
M  V30 10895 H 1030.37 -3.59147 1.17565 0
M  V30 10896 H 1030.69 -7.1259 2.99056 0
M  V30 10897 H 1029.03 -6.41121 2.68308 0
M  V30 10898 H 1032.22 -4.42178 1.5361 0
M  V30 10899 H 1032.4 -6.03359 2.3635 0
M  V30 10900 N 1025.8 -0.366053 -1.5329 0
M  V30 10901 C 1027.05 0.224614 -2.00445 0
M  V30 10902 C 1027.36 1.49829 -1.2574 0
M  V30 10903 O 1028.57 2.16759 -1.63487 0
M  V30 10904 C 1027.03 0.450818 -3.57065 0
M  V30 10905 C 1026.63 -0.808257 -4.40649 0
M  V30 10906 C 1028.38 0.999116 -4.12575 0
M  V30 10907 C 1026.28 -0.551612 -5.88822 0
M  V30 10908 H 1025.21 0.0877114 -0.748881 0
M  V30 10909 H 1027.87 -0.484866 -1.76978 0
M  V30 10910 H 1026.25 1.22157 -3.76688 0
M  V30 10911 H 1027.42 -1.58184 -4.32798 0
M  V30 10912 H 1025.74 -1.27981 -3.96245 0
M  V30 10913 H 1028.33 1.20646 -5.20911 0
M  V30 10914 H 1028.68 1.96139 -3.67199 0
M  V30 10915 H 1029.21 0.288518 -3.96752 0
M  V30 10916 H 1025.95 -1.48423 -6.38475 0
M  V30 10917 H 1025.47 0.183462 -5.99519 0
M  V30 10918 H 1027.15 -0.177307 -6.46757 0
M  V30 10919 N 1027.28 1.57312 -0.0952337 0
M  V30 10920 C 1028.19 2.17556 0.877877 0
M  V30 10921 C 1029.21 1.14505 1.31014 0
M  V30 10922 O 1030.38 1.46876 1.37802 0
M  V30 10923 C 1027.45 2.74413 2.11892 0
M  V30 10924 C 1026.51 3.92419 1.74085 0
M  V30 10925 C 1025.74 4.46556 2.92273 0
M  V30 10926 O 1025.96 3.99631 4.07002 0
M  V30 10927 O 1024.9 5.37576 2.70732 0
M  V30 10928 H 1028.72 3.01116 0.395312 0
M  V30 10929 H 1026.31 1.48841 0.129123 0
M  V30 10930 H 1028.19 3.10754 2.84622 0
M  V30 10931 H 1026.87 1.93899 2.59201 0
M  V30 10932 H 1025.77 3.6089 0.985346 0
M  V30 10933 H 1027.11 4.74298 1.31539 0
M  V30 10934 N 1028.76 -0.17846 1.56586 0
M  V30 10935 C 1029.69 -1.22342 1.98884 0
M  V30 10936 C 1030.67 -1.46564 0.86331 0
M  V30 10937 O 1031.85 -1.58019 1.12887 0
M  V30 10938 C 1028.98 -2.56396 2.34261 0
M  V30 10939 C 1027.94 -2.46756 3.49708 0
M  V30 10940 C 1027.26 -3.85235 3.70807 0
M  V30 10941 C 1028.56 -1.97838 4.83381 0
M  V30 10942 H 1030.26 -0.871848 2.86425 0
M  V30 10943 H 1027.8 -0.417948 1.37801 0
M  V30 10944 H 1029.76 -3.29695 2.62448 0
M  V30 10945 H 1028.48 -2.93327 1.43621 0
M  V30 10946 H 1027.14 -1.75912 3.21637 0
M  V30 10947 H 1026.79 -4.19547 2.7747 0
M  V30 10948 H 1026.49 -3.79655 4.48481 0
M  V30 10949 H 1028.01 -4.60131 4.01387 0
M  V30 10950 H 1029.43 -2.60906 5.10491 0
M  V30 10951 H 1027.82 -2.03223 5.64642 0
M  V30 10952 H 1028.89 -0.932339 4.75852 0
M  V30 10953 N 1030.24 -1.51135 -0.446768 0
M  V30 10954 C 1031.17 -1.74709 -1.54916 0
M  V30 10955 C 1032.15 -0.596628 -1.59293 0
M  V30 10956 O 1033.33 -0.838356 -1.75172 0
M  V30 10957 C 1030.46 -1.86353 -2.9307 0
M  V30 10958 C 1029.42 -3.01725 -3.03556 0
M  V30 10959 C 1028.74 -2.9854 -4.43597 0
M  V30 10960 C 1030.04 -4.41848 -2.7851 0
M  V30 10961 H 1031.74 -2.67014 -1.3544 0
M  V30 10962 H 1029.28 -1.28489 -0.650131 0
M  V30 10963 H 1031.23 -2.01428 -3.70141 0
M  V30 10964 H 1029.96 -0.906887 -3.13756 0
M  V30 10965 H 1028.62 -2.86339 -2.28922 0
M  V30 10966 H 1028.27 -2.00673 -4.61237 0
M  V30 10967 H 1027.97 -3.76008 -4.51544 0
M  V30 10968 H 1029.49 -3.15696 -5.22655 0
M  V30 10969 H 1030.9 -4.57633 -3.45319 0
M  V30 10970 H 1029.3 -5.2095 -2.97877 0
M  V30 10971 H 1030.37 -4.52536 -1.74182 0
M  V30 10972 N 1031.71 0.701592 -1.41122 0
M  V30 10973 C 1032.66 1.83691 -1.4269 0
M  V30 10974 C 1033.66 1.6662 -0.305658 0
M  V30 10975 O 1034.86 1.73554 -0.477392 0
M  V30 10976 H 1031.24 0.605222 -0.44633 0
M  V30 10977 H 1033.21 1.79485 -2.38386 0
M  V30 10978 C 1031.96 3.21666 -1.32008 0
M  V30 10979 H 1031.28 3.35416 -2.17569 0
M  V30 10980 H 1032.72 4.012 -1.37165 0
M  V30 10981 C 1031.18 3.36885 -0.0317678 0
M  V30 10982 O 1031.71 3.90885 0.925836 0
M  V30 10983 N 1029.91 2.90569 0.0423401 0
M  V30 10984 H 1029.46 2.46812 -0.737673 0
M  V30 10985 H 1029.42 3.0113 0.903764 0
M  V30 10986 N 1033.19 1.2685 0.935242 0
M  V30 10987 C 1034.14 1.05586 2.02078 0
M  V30 10988 C 1035.13 -0.013699 1.60894 0
M  V30 10989 O 1036.32 0.203956 1.75821 0
M  V30 10990 C 1033.45 0.697118 3.36148 0
M  V30 10991 C 1032.53 1.80444 3.83798 0
M  V30 10992 N 1032.92 3.04283 4.04037 0
M  V30 10993 C 1031.22 1.68939 4.12766 0
M  V30 10994 C 1031.92 3.7629 4.436 0
M  V30 10995 N 1030.9 3.04011 4.50642 0
M  V30 10996 H 1034.7 1.99577 2.15746 0
M  V30 10997 H 1032.21 1.17455 1.12153 0
M  V30 10998 H 1034.21 0.525915 4.1357 0
M  V30 10999 H 1032.87 -0.235247 3.23847 0
M  V30 11000 H 1033.88 3.40125 3.90558 0
M  V30 11001 H 1030.56 0.827341 4.0922 0
M  V30 11002 H 1031.95 4.82687 4.67401 0
M  V30 11003 N 1034.67 -1.14067 1.0875 0
M  V30 11004 C 1036.08 -1.66747 0.839778 0
M  V30 11005 C 1036.43 -1.85711 -0.632909 0
M  V30 11006 O 1035.56 -1.57084 -1.48841 0
M  V30 11007 C 1036.15 -3.02896 1.51787 0
M  V30 11008 C 1034.71 -3.52596 1.3173 0
M  V30 11009 C 1033.86 -2.27994 1.57841 0
M  V30 11010 H 1036.81 -0.980838 1.24761 0
M  V30 11011 H 1036.83 -3.68526 0.947057 0
M  V30 11012 H 1036.34 -2.89062 2.58969 0
M  V30 11013 H 1034.44 -3.71647 0.266339 0
M  V30 11014 H 1034.56 -4.33151 2.04736 0
M  V30 11015 H 1032.92 -2.34241 1.00015 0
M  V30 11016 H 1033.7 -2.16732 2.66237 0
M  V30 11017 N 1036.15 -0.873678 -1.31166 0
M  V30 11018 C 1037.39 -0.487178 -1.96861 0
M  V30 11019 C 1037.73 0.95887 -1.68877 0
M  V30 11020 O 1037 1.6758 -0.987279 0
M  V30 11021 C 1037.29 -0.74925 -3.52219 0
M  V30 11022 C 1037.14 -2.2451 -3.89763 0
M  V30 11023 C 1038.46 -0.218194 -4.39559 0
M  V30 11024 H 1035.58 -0.178477 -0.715063 0
M  V30 11025 H 1038.22 -1.0956 -1.55231 0
M  V30 11026 H 1036.37 -0.231403 -3.8781 0
M  V30 11027 H 1038.04 -2.83049 -3.64254 0
M  V30 11028 H 1036.28 -2.71621 -3.38237 0
M  V30 11029 H 1036.95 -2.37911 -4.98099 0
M  V30 11030 H 1039.43 -0.661274 -4.10812 0
M  V30 11031 H 1038.31 -0.430983 -5.47205 0
M  V30 11032 H 1038.57 0.880056 -4.33252 0
M  V30 11033 N 1037.63 1.44308 -0.633487 0
M  V30 11034 C 1038.87 2.03904 -0.14226 0
M  V30 11035 C 1039.23 1.48768 1.21376 0
M  V30 11036 O 1040.43 1.99882 1.79724 0
M  V30 11037 C 1038.7 3.5716 -0.130975 0
M  V30 11038 S 1040.26 4.37805 0.295287 0
M  V30 11039 H 1037.08 0.70827 -0.0622429 0
M  V30 11040 H 1039.68 1.76657 -0.837405 0
M  V30 11041 H 1038.39 3.94794 -1.12096 0
M  V30 11042 H 1037.92 3.89021 0.585342 0
M  V30 11043 H 1039.93 4.71732 1.53894 0
M  V30 11044 N 1039.1 0.374177 1.53094 0
M  V30 11045 C 1040.05 -0.468226 2.26001 0
M  V30 11046 C 1041.02 -1.07041 1.27009 0
M  V30 11047 O 1042.21 -1.10129 1.55809 0
M  V30 11048 C 1039.35 -1.59754 3.05896 0
M  V30 11049 C 1038.46 -1.01969 4.19793 0
M  V30 11050 C 1037.59 -2.11882 4.87113 0
M  V30 11051 C 1036.63 -1.51607 5.93028 0
M  V30 11052 N 1035.77 -2.55388 6.54004 0
M  V30 11053 H 1040.61 0.159983 2.9757 0
M  V30 11054 H 1038.15 0.0907196 1.4682 0
M  V30 11055 H 1040.11 -2.26288 3.50499 0
M  V30 11056 H 1038.74 -2.19628 2.36565 0
M  V30 11057 H 1037.79 -0.244386 3.79614 0
M  V30 11058 H 1039.1 -0.539089 4.95878 0
M  V30 11059 H 1038.25 -2.86218 5.34943 0
M  V30 11060 H 1036.99 -2.63297 4.10519 0
M  V30 11061 H 1036 -0.757891 5.44551 0
M  V30 11062 H 1037.22 -1.01006 6.71546 0
M  V30 11063 H 1035.17 -3.06 5.80258 0
M  V30 11064 H 1035.09 -2.12039 7.25655 0
M  V30 11065 H 1036.35 -3.294 7.06481 0
M  V30 11066 N 1040.58 -1.57259 0.103575 0
M  V30 11067 C 1041.49 -2.18018 -0.866327 0
M  V30 11068 C 1042.51 -1.15198 -1.30404 0
M  V30 11069 O 1043.68 -1.47605 -1.37021 0
M  V30 11070 C 1040.75 -2.75533 -2.10434 0
M  V30 11071 C 1039.81 -3.93337 -1.72002 0
M  V30 11072 C 1039.04 -4.481 -2.89901 0
M  V30 11073 O 1039.27 -4.01784 -4.04877 0
M  V30 11074 O 1038.2 -5.39004 -2.67877 0
M  V30 11075 H 1042.03 -3.01322 -0.379338 0
M  V30 11076 H 1039.61 -1.48907 -0.121228 0
M  V30 11077 H 1041.49 -3.12259 -2.8297 0
M  V30 11078 H 1040.17 -1.9527 -2.58169 0
M  V30 11079 H 1039.08 -3.61408 -0.966193 0
M  V30 11080 H 1040.41 -4.74989 -1.29022 0
M  V30 11081 N 1042.06 0.170153 -1.56679 0
M  V30 11082 C 1043.29 0.900826 -1.85927 0
M  V30 11083 C 1043.7 1.76285 -0.687033 0
M  V30 11084 O 1043.04 1.80276 0.353029 0
M  V30 11085 C 1043.1 1.82723 -3.096 0
M  V30 11086 C 1042.77 1.14469 -4.42432 0
M  V30 11087 C 1043.76 0.509598 -5.17396 0
M  V30 11088 C 1041.45 1.1411 -4.89167 0
M  V30 11089 C 1043.44 -0.119976 -6.37287 0
M  V30 11090 C 1041.13 0.507703 -6.08987 0
M  V30 11091 C 1042.13 -0.121731 -6.82892 0
M  V30 11092 O 1041.82 -0.74514 -8.00439 0
M  V30 11093 H 1041.55 0.267087 -0.621 0
M  V30 11094 H 1044.1 0.17474 -2.04655 0
M  V30 11095 H 1042.33 2.59367 -2.8682 0
M  V30 11096 H 1044.02 2.42784 -3.25285 0
M  V30 11097 H 1044.79 0.504341 -4.82371 0
M  V30 11098 H 1040.67 1.62043 -4.31582 0
M  V30 11099 H 1044.21 -0.611872 -6.94911 0
M  V30 11100 H 1040.11 0.510548 -6.43478 0
M  V30 11101 H 1040.88 -0.644506 -8.15959 0
M  V30 11102 N 1043.54 1.5137 0.438746 0
M  V30 11103 C 1044.47 1.75528 1.53987 0
M  V30 11104 C 1045.45 0.605067 1.58975 0
M  V30 11105 O 1046.63 0.847634 1.74725 0
M  V30 11106 C 1043.76 1.87904 2.92078 0
M  V30 11107 C 1042.72 3.0333 3.01951 0
M  V30 11108 C 1042.04 3.00888 4.42007 0
M  V30 11109 C 1043.34 4.43319 2.76163 0
M  V30 11110 H 1045.04 2.67728 1.34022 0
M  V30 11111 H 1042.58 1.28831 0.643308 0
M  V30 11112 H 1044.54 2.03388 3.69068 0
M  V30 11113 H 1043.26 0.923514 3.13271 0
M  V30 11114 H 1041.92 2.87549 2.274 0
M  V30 11115 H 1041.57 2.03116 4.60166 0
M  V30 11116 H 1041.27 3.78397 4.49544 0
M  V30 11117 H 1042.79 3.18464 5.20973 0
M  V30 11118 H 1044.21 4.59458 3.42887 0
M  V30 11119 H 1042.6 5.22523 2.9511 0
M  V30 11120 H 1043.67 4.53453 1.71779 0
M  V30 11121 N 1045.02 -0.694098 1.41492 0
M  V30 11122 C 1045.95 -1.82042 1.46229 0
M  V30 11123 C 1046.93 -1.67047 0.320803 0
M  V30 11124 O 1048.11 -1.86758 0.53245 0
M  V30 11125 C 1045.24 -3.2019 1.34519 0
M  V30 11126 C 1044.2 -3.49892 2.46495 0
M  V30 11127 C 1043.52 -4.87411 2.1985 0
M  V30 11128 C 1044.82 -3.4872 3.88834 0
M  V30 11129 H 1046.52 -1.78335 2.40493 0
M  V30 11130 H 1044.06 -0.856566 1.15754 0
M  V30 11131 H 1046.02 -3.98699 1.36445 0
M  V30 11132 H 1044.74 -3.24527 0.367406 0
M  V30 11133 H 1043.4 -2.73734 2.43854 0
M  V30 11134 H 1043.05 -4.88375 1.20411 0
M  V30 11135 H 1042.75 -5.08248 2.94885 0
M  V30 11136 H 1044.27 -5.68228 2.23494 0
M  V30 11137 H 1045.68 -4.1723 3.93182 0
M  V30 11138 H 1044.08 -3.81089 4.63564 0
M  V30 11139 H 1045.15 -2.47665 4.16881 0
M  V30 11140 N 1046.49 -1.27344 -0.928501 0
M  V30 11141 C 1047.43 -1.04322 -2.02959 0
M  V30 11142 C 1048.41 0.0361118 -1.6256 0
M  V30 11143 O 1049.59 -0.108872 -1.88185 0
M  V30 11144 C 1046.72 -0.582329 -3.33656 0
M  V30 11145 C 1045.76 -1.65611 -3.93033 0
M  V30 11146 S 1046.6 -3.2484 -4.25722 0
M  V30 11147 C 1047.75 -2.8055 -5.59502 0
M  V30 11148 H 1047.98 -1.97548 -2.22176 0
M  V30 11149 H 1045.52 -1.11167 -1.07151 0
M  V30 11150 H 1047.48 -0.323095 -4.09227 0
M  V30 11151 H 1046.14 0.329858 -3.12363 0
M  V30 11152 H 1045.33 -1.28491 -4.87346 0
M  V30 11153 H 1044.93 -1.86738 -3.24045 0
M  V30 11154 H 1047.22 -2.25803 -6.38764 0
M  V30 11155 H 1048.17 -3.73603 -6.0152 0
M  V30 11156 H 1048.57 -2.19717 -5.19985 0
M  V30 11157 N 1047.97 1.13488 -1.09353 0
M  V30 11158 C 1048.92 2.18876 -0.732251 0
M  V30 11159 C 1049.89 1.63616 0.286175 0
M  V30 11160 O 1051.07 1.90059 0.167981 0
M  V30 11161 C 1048.21 3.44737 -0.158157 0
M  V30 11162 C 1047.33 4.14104 -1.23053 0
M  V30 11163 C 1046.46 5.27578 -0.619272 0
M  V30 11164 C 1045.5 5.88793 -1.67301 0
M  V30 11165 N 1044.64 6.937 -1.08283 0
M  V30 11166 H 1049.48 2.49128 -1.63522 0
M  V30 11167 H 1047.02 1.22326 -0.816995 0
M  V30 11168 H 1048.97 4.16756 0.192488 0
M  V30 11169 H 1047.6 3.14938 0.708082 0
M  V30 11170 H 1046.66 3.40376 -1.69847 0
M  V30 11171 H 1047.97 4.55683 -2.02865 0
M  V30 11172 H 1047.12 6.0631 -0.217428 0
M  V30 11173 H 1045.86 4.87246 0.210399 0
M  V30 11174 H 1044.87 5.08756 -2.0844 0
M  V30 11175 H 1046.09 6.31197 -2.50533 0
M  V30 11176 H 1044.04 6.55426 -0.274426 0
M  V30 11177 H 1043.95 7.33817 -1.81792 0
M  V30 11178 H 1045.22 7.76286 -0.707167 0
M  V30 11179 N 1049.45 0.880621 1.30701 0
M  V30 11180 C 1050.7 0.506967 1.96981 0
M  V30 11181 C 1051.05 -0.932694 1.68281 0
M  V30 11182 O 1050.35 -1.64954 0.974709 0
M  V30 11183 C 1050.54 0.713203 3.50212 0
M  V30 11184 C 1050.37 2.17136 3.93805 0
M  V30 11185 C 1049.14 2.81508 4.19621 0
M  V30 11186 C 1051.34 3.14473 4.06954 0
M  V30 11187 N 1049.32 4.17965 4.49643 0
M  V30 11188 C 1050.69 4.3599 4.40809 0
M  V30 11189 C 1052.74 3.1032 3.89366 0
M  V30 11190 C 1051.45 5.53889 4.58911 0
M  V30 11191 C 1053.47 4.27487 4.08667 0
M  V30 11192 C 1052.84 5.47769 4.42864 0
M  V30 11193 H 1048.93 0.234756 0.745931 0
M  V30 11194 H 1051.52 1.13745 1.5802 0
M  V30 11195 H 1049.69 0.112239 3.88238 0
M  V30 11196 H 1051.42 0.30688 4.03535 0
M  V30 11197 H 1048.18 2.32399 4.12659 0
M  V30 11198 H 1048.6 4.88425 4.68796 0
M  V30 11199 H 1053.24 2.18428 3.62007 0
M  V30 11200 H 1050.96 6.46289 4.85114 0
M  V30 11201 H 1054.55 4.25738 3.96533 0
M  V30 11202 H 1053.43 6.36922 4.57493 0
M  V30 11203 N 1050.93 -1.4397 0.641131 0
M  V30 11204 C 1051.86 -2.33458 -0.04446 0
M  V30 11205 C 1052.84 -1.48781 -0.824507 0
M  V30 11206 O 1054.03 -1.77477 -0.788397 0
M  V30 11207 C 1051.16 -3.31989 -1.01984 0
M  V30 11208 C 1050.11 -4.2656 -0.350745 0
M  V30 11209 C 1049.44 -5.15036 -1.43673 0
M  V30 11210 C 1050.74 -5.16897 0.749299 0
M  V30 11211 H 1052.43 -2.91034 0.702832 0
M  V30 11212 H 1049.98 -1.39942 0.339435 0
M  V30 11213 H 1051.93 -3.93483 -1.50828 0
M  V30 11214 H 1050.65 -2.72643 -1.79815 0
M  V30 11215 H 1049.31 -3.66413 0.117139 0
M  V30 11216 H 1048.96 -4.52037 -2.20617 0
M  V30 11217 H 1048.66 -5.79125 -0.994358 0
M  V30 11218 H 1050.18 -5.79403 -1.92678 0
M  V30 11219 H 1051.6 -5.7227 0.343534 0
M  V30 11220 H 1049.99 -5.89643 1.11541 0
M  V30 11221 H 1051.06 -4.5731 1.61232 0
M  V30 11222 N 1052.41 -0.382291 -1.52893 0
M  V30 11223 C 1053.37 0.44408 -2.24857 0
M  V30 11224 C 1054.37 0.996004 -1.26239 0
M  V30 11225 O 1055.56 0.879114 -1.5039 0
M  V30 11226 C 1052.69 1.62234 -2.99822 0
M  V30 11227 H 1053.89 -0.185862 -2.99324 0
M  V30 11228 H 1051.44 -0.134275 -1.55722 0
M  V30 11229 H 1052.17 2.28991 -2.29638 0
M  V30 11230 H 1051.96 1.23336 -3.72197 0
M  V30 11231 H 1053.45 2.20756 -3.54481 0
M  V30 11232 N 1053.89 1.57202 -0.111913 0
M  V30 11233 C 1055.12 1.99008 0.554907 0
M  V30 11234 C 1055.52 0.990323 1.61212 0
M  V30 11235 O 1054.87 -0.0259612 1.83682 0
M  V30 11236 C 1054.93 3.37218 1.24598 0
M  V30 11237 C 1054.59 4.55752 0.337549 0
M  V30 11238 C 1055.59 5.18192 -0.421026 0
M  V30 11239 C 1053.27 5.01674 0.25069 0
M  V30 11240 C 1055.27 6.24938 -1.25426 0
M  V30 11241 C 1052.96 6.08282 -0.586186 0
M  V30 11242 C 1053.95 6.6978 -1.3373 0
M  V30 11243 O 1053.64 7.7433 -2.16029 0
M  V30 11244 H 1053.37 0.658669 0.152091 0
M  V30 11245 H 1055.93 2.04492 -0.192937 0
M  V30 11246 H 1054.16 3.28467 2.04074 0
M  V30 11247 H 1055.85 3.63359 1.809 0
M  V30 11248 H 1056.61 4.83634 -0.363752 0
M  V30 11249 H 1052.49 4.53558 0.825005 0
M  V30 11250 H 1056.04 6.72869 -1.84102 0
M  V30 11251 H 1051.93 6.42271 -0.64488 0
M  V30 11252 H 1052.7 7.91395 -2.08894 0
M  V30 11253 N 1055.36 -0.161842 1.56767 0
M  V30 11254 C 1056.61 -0.875192 1.82167 0
M  V30 11255 C 1056.93 -1.82367 0.690444 0
M  V30 11256 O 1056.2 -1.93756 -0.289023 0
M  V30 11257 H 1054.78 -0.326178 0.672024 0
M  V30 11258 H 1057.44 -0.159392 1.94247 0
M  V30 11259 H 1056.54 -1.44639 2.76561 0
M  V30 11260 N 1056.84 -1.516 -0.430713 0
M  V30 11261 C 1058.09 -1.64596 -1.17959 0
M  V30 11262 C 1058.42 -0.365382 -1.91037 0
M  V30 11263 O 1057.67 0.650826 -1.84561 0
M  V30 11264 C 1057.97 -2.804 -2.21609 0
M  V30 11265 C 1057.64 -4.19431 -1.65495 0
M  V30 11266 C 1056.3 -4.57252 -1.49915 0
M  V30 11267 C 1058.65 -5.0616 -1.24304 0
M  V30 11268 C 1055.98 -5.79501 -0.916276 0
M  V30 11269 C 1058.33 -6.28995 -0.674437 0
M  V30 11270 C 1056.99 -6.65582 -0.505591 0
M  V30 11271 H 1056.26 -0.602301 -0.431642 0
M  V30 11272 H 1058.91 -1.8565 -0.469726 0
M  V30 11273 H 1057.22 -2.53595 -2.98658 0
M  V30 11274 H 1058.91 -2.87654 -2.79385 0
M  V30 11275 H 1055.5 -3.89615 -1.78599 0
M  V30 11276 H 1059.69 -4.77541 -1.35159 0
M  V30 11277 H 1054.94 -6.0649 -0.77328 0
M  V30 11278 H 1059.12 -6.95536 -0.346779 0
M  V30 11279 H 1056.74 -7.60182 -0.0518188 0
M  V30 11280 N 1058.32 0.686584 -1.41858 0
M  V30 11281 C 1059.74 0.998283 -1.24525 0
M  V30 11282 C 1059.94 2.01006 -0.141007 0
M  V30 11283 O 1058.99 2.47667 0.491648 0
M  V30 11284 C 1060.3 1.51432 -2.59786 0
M  V30 11285 C 1061.85 1.6327 -2.67043 0
M  V30 11286 C 1062.33 2.18274 -4.02642 0
M  V30 11287 N 1063.82 2.25622 -4.04535 0
M  V30 11288 C 1064.55 2.69229 -5.06264 0
M  V30 11289 N 1064.05 3.12375 -6.1838 0
M  V30 11290 N 1065.84 2.68873 -4.93623 0
M  V30 11291 H 1057.99 0.0164825 -2.12394 0
M  V30 11292 H 1060.26 0.0698613 -0.945422 0
M  V30 11293 H 1059.96 0.845426 -3.41388 0
M  V30 11294 H 1059.84 2.49502 -2.82894 0
M  V30 11295 H 1062.22 2.29269 -1.85794 0
M  V30 11296 H 1062.3 0.637221 -2.47736 0
M  V30 11297 H 1061.95 1.52887 -4.84343 0
M  V30 11298 H 1061.88 3.18591 -4.19294 0
M  V30 11299 H 1064.37 1.95186 -3.23591 0
M  V30 11300 H 1064.68 3.44301 -6.91864 0
M  V30 11301 H 1063.03 3.10262 -6.21902 0
M  V30 11302 H 1066.22 2.34521 -4.05114 0
M  V30 11303 H 1066.39 3.02539 -5.7304 0
M  V30 11304 N 1059.8 1.27835 0.921735 0
M  V30 11305 C 1060.76 1.11108 2.00469 0
M  V30 11306 C 1061.76 0.053203 1.60712 0
M  V30 11307 O 1062.95 0.298308 1.71627 0
M  V30 11308 C 1060.08 0.694269 3.33755 0
M  V30 11309 H 1061.28 2.07279 2.16738 0
M  V30 11310 H 1058.83 1.10708 1.10333 0
M  V30 11311 H 1059.56 -0.268561 3.23186 0
M  V30 11312 H 1059.35 1.45836 3.6397 0
M  V30 11313 H 1060.84 0.59965 4.13272 0
M  V30 11314 N 1061.28 -1.12907 1.09954 0
M  V30 11315 C 1062.23 -2.16558 0.713204 0
M  V30 11316 C 1063.21 -1.5853 -0.27515 0
M  V30 11317 O 1064.4 -1.76797 -0.0846643 0
M  V30 11318 C 1061.53 -3.43009 0.141224 0
M  V30 11319 C 1060.62 -4.08032 1.15632 0
M  V30 11320 N 1061.01 -4.48139 2.34531 0
M  V30 11321 C 1059.31 -4.34743 0.995701 0
M  V30 11322 C 1060.01 -4.98885 2.99147 0
M  V30 11323 N 1058.98 -4.9408 2.26684 0
M  V30 11324 H 1062.78 -2.45328 1.61838 0
M  V30 11325 H 1060.3 -1.29759 0.976539 0
M  V30 11326 H 1062.3 -4.16617 -0.153598 0
M  V30 11327 H 1060.96 -3.15711 -0.758729 0
M  V30 11328 H 1061.97 -4.40668 2.72089 0
M  V30 11329 H 1058.64 -4.17227 0.150888 0
M  V30 11330 H 1060.03 -5.3967 4.00257 0
M  V30 11331 N 1062.75 -0.88754 -1.30232 0
M  V30 11332 C 1063.69 -0.300814 -2.26209 0
M  V30 11333 C 1064.66 0.580088 -1.519 0
M  V30 11334 O 1065.85 0.529611 -1.80907 0
M  V30 11335 C 1062.98 0.572336 -3.33829 0
M  V30 11336 C 1062.02 -0.239589 -4.25827 0
M  V30 11337 S 1062.85 -1.62953 -5.10104 0
M  V30 11338 C 1064.01 -0.762979 -6.21232 0
M  V30 11339 H 1064.24 -1.11435 -2.75626 0
M  V30 11340 H 1061.78 -0.687123 -1.38268 0
M  V30 11341 H 1063.73 1.07036 -3.963 0
M  V30 11342 H 1062.4 1.35999 -2.83131 0
M  V30 11343 H 1061.59 0.426854 -5.02189 0
M  V30 11344 H 1061.19 -0.670325 -3.67944 0
M  V30 11345 H 1063.48 0.0189354 -6.77497 0
M  V30 11346 H 1064.43 -1.49829 -6.92067 0
M  V30 11347 H 1064.83 -0.322747 -5.63577 0
M  V30 11348 N 1064.23 1.43628 -0.648757 0
M  V30 11349 C 1065.17 2.28001 0.0952198 0
M  V30 11350 C 1066.14 1.39569 0.834225 0
M  V30 11351 O 1067.33 1.69011 0.834711 0
M  V30 11352 C 1064.45 3.18886 1.14145 0
M  V30 11353 C 1063.5 4.23547 0.500996 0
M  V30 11354 S 1064.33 5.30609 -0.722118 0
M  V30 11355 C 1065.49 6.25062 0.323687 0
M  V30 11356 H 1065.72 2.90752 -0.620511 0
M  V30 11357 H 1063.26 1.48073 -0.437457 0
M  V30 11358 H 1065.21 3.71795 1.74008 0
M  V30 11359 H 1063.87 2.55322 1.82947 0
M  V30 11360 H 1063.07 4.87224 1.28954 0
M  V30 11361 H 1062.67 3.73993 -0.0234176 0
M  V30 11362 H 1064.96 6.66946 1.19118 0
M  V30 11363 H 1065.9 7.07554 -0.277939 0
M  V30 11364 H 1066.31 5.60658 0.657493 0
M  V30 11365 N 1065.71 0.390394 1.52688 0
M  V30 11366 C 1066.66 -0.4591 2.28024 0
M  V30 11367 C 1067.65 -1.06212 1.31967 0
M  V30 11368 O 1068.86 -1.00247 1.49501 0
M  V30 11369 H 1065.23 -0.16681 0.733266 0
M  V30 11370 H 1067.2 0.197747 2.97744 0
M  V30 11371 C 1065.95 -1.5737 3.10048 0
M  V30 11372 H 1065.28 -1.11901 3.83821 0
M  V30 11373 H 1066.72 -2.1423 3.65898 0
M  V30 11374 C 1065.18 -2.53036 2.22429 0
M  V30 11375 O 1065.71 -3.5647 1.85181 0
M  V30 11376 N 1063.91 -2.22802 1.86567 0
M  V30 11377 H 1063.46 -1.38723 2.17057 0
M  V30 11378 H 1063.42 -2.87061 1.28233 0
M  V30 11379 N 1067.19 -1.57141 0.120249 0
M  V30 11380 C 1068.12 -2.18398 -0.826112 0
M  V30 11381 C 1069.1 -1.12439 -1.27638 0
M  V30 11382 O 1070.28 -1.40679 -1.33877 0
M  V30 11383 C 1067.41 -2.78438 -2.0758 0
M  V30 11384 C 1066.37 -3.89991 -1.76327 0
M  V30 11385 C 1065.69 -4.36844 -3.08336 0
M  V30 11386 C 1066.99 -5.12031 -1.03062 0
M  V30 11387 H 1068.69 -2.97731 -0.315656 0
M  V30 11388 H 1066.23 -1.43213 -0.150387 0
M  V30 11389 H 1068.19 -3.19951 -2.74243 0
M  V30 11390 H 1066.91 -1.96396 -2.60953 0
M  V30 11391 H 1065.57 -3.49055 -1.12053 0
M  V30 11392 H 1065.22 -3.51659 -3.59646 0
M  V30 11393 H 1064.92 -5.1207 -2.88199 0
M  V30 11394 H 1066.44 -4.81009 -3.76116 0
M  V30 11395 H 1067.86 -5.50555 -1.59881 0
M  V30 11396 H 1066.25 -5.92848 -0.930146 0
M  V30 11397 H 1067.32 -4.84897 -0.017582 0
M  V30 11398 N 1068.67 0.153526 -1.5685 0
M  V30 11399 C 1069.91 0.865519 -1.82629 0
M  V30 11400 C 1070.24 1.81999 -0.700105 0
M  V30 11401 O 1069.51 1.93907 0.278744 0
M  V30 11402 H 1068.09 0.32261 -0.673745 0
M  V30 11403 H 1070.75 0.149088 -1.94329 0
M  V30 11404 H 1069.84 1.43171 -2.77324 0
M  V30 11405 N 1070.14 1.51827 0.422667 0
M  V30 11406 C 1071.37 1.69337 1.19748 0
M  V30 11407 C 1071.79 0.396312 1.83878 0
M  V30 11408 O 1071.15 -0.644976 1.6944 0
M  V30 11409 C 1071.2 2.82082 2.24637 0
M  V30 11410 O 1070.3 2.46708 3.30468 0
M  V30 11411 H 1069.65 0.564154 0.35018 0
M  V30 11412 H 1072.18 1.98465 0.497289 0
M  V30 11413 H 1072.19 3.06599 2.69186 0
M  V30 11414 H 1070.86 3.76195 1.77341 0
M  V30 11415 H 1069.44 2.32815 2.91293 0
M  V30 11416 N 1071.62 -0.679052 1.4222 0
M  V30 11417 C 1072.85 -1.46534 1.45641 0
M  V30 11418 C 1073.26 -1.89088 0.0649574 0
M  V30 11419 O 1072.6 -1.58436 -0.929712 0
M  V30 11420 C 1072.67 -2.74882 2.3169 0
M  V30 11421 C 1072.33 -2.5443 3.79624 0
M  V30 11422 C 1073.33 -2.19307 4.71382 0
M  V30 11423 C 1071.01 -2.69557 4.23845 0
M  V30 11424 C 1073.01 -1.99571 6.05351 0
M  V30 11425 C 1070.69 -2.49437 5.57875 0
M  V30 11426 C 1071.69 -2.14497 6.48444 0
M  V30 11427 O 1071.38 -1.94567 7.79999 0
M  V30 11428 H 1071.11 -0.457542 0.497626 0
M  V30 11429 H 1073.66 -0.842145 1.87342 0
M  V30 11430 H 1071.89 -3.39669 1.8483 0
M  V30 11431 H 1073.58 -3.3675 2.26615 0
M  V30 11432 H 1074.35 -2.0722 4.38503 0
M  V30 11433 H 1070.23 -2.95733 3.53642 0
M  V30 11434 H 1073.77 -1.72222 6.76007 0
M  V30 11435 H 1069.67 -2.61119 5.90328 0
M  V30 11436 H 1070.44 -2.092 7.91314 0
M  V30 11437 N 1073.1 -1.28322 -0.914942 0
M  V30 11438 C 1074.34 -1.16657 -1.6784 0
M  V30 11439 C 1074.7 0.280473 -1.8994 0
M  V30 11440 O 1075.91 0.519801 -2.63726 0
M  V30 11441 C 1074.18 -1.94185 -3.00045 0
M  V30 11442 S 1075.74 -1.98881 -3.91141 0
M  V30 11443 H 1072.55 -0.416232 -0.57643 0
M  V30 11444 H 1075.16 -1.62405 -1.08834 0
M  V30 11445 H 1073.86 -2.98488 -2.81661 0
M  V30 11446 H 1073.39 -1.48982 -3.64099 0
M  V30 11447 H 1075.41 -1.09445 -4.8398 0
M  V30 11448 N 1074.58 1.12322 -1.10551 0
M  V30 11449 C 1075.51 2.20176 -0.777486 0
M  V30 11450 C 1076.49 1.68252 0.250069 0
M  V30 11451 O 1077.67 1.93856 0.115574 0
M  V30 11452 C 1074.8 3.46666 -0.209822 0
M  V30 11453 C 1073.76 4.11749 -1.1682 0
M  V30 11454 C 1073.08 5.32703 -0.461684 0
M  V30 11455 C 1074.38 4.57746 -2.51527 0
M  V30 11456 H 1076.08 2.47872 -1.67928 0
M  V30 11457 H 1073.62 1.19136 -0.808863 0
M  V30 11458 H 1075.58 4.21388 0.0318068 0
M  V30 11459 H 1074.3 3.18401 0.727226 0
M  V30 11460 H 1072.96 3.39009 -1.3953 0
M  V30 11461 H 1072.61 5.00706 0.479875 0
M  V30 11462 H 1072.31 5.77197 -1.1008 0
M  V30 11463 H 1073.83 6.10172 -0.228629 0
M  V30 11464 H 1075.25 5.23835 -2.32958 0
M  V30 11465 H 1073.64 5.13021 -3.11335 0
M  V30 11466 H 1074.71 3.71667 -3.11435 0
M  V30 11467 N 1076.06 0.894434 1.2976 0
M  V30 11468 C 1077.3 0.516646 1.95385 0
M  V30 11469 C 1077.63 -0.939141 1.70895 0
M  V30 11470 O 1076.9 -1.66153 1.03778 0
M  V30 11471 H 1075.48 0.188072 0.722937 0
M  V30 11472 H 1078.14 1.13958 1.58113 0
M  V30 11473 H 1077.23 0.694819 3.04267 0
M  V30 11474 N 1077.53 -1.43282 0.656365 0
M  V30 11475 C 1078.46 -2.33492 -0.0196962 0
M  V30 11476 C 1079.45 -1.49647 -0.80868 0
M  V30 11477 O 1080.63 -1.78303 -0.769529 0
M  V30 11478 C 1077.76 -3.33052 -0.984574 0
M  V30 11479 C 1076.71 -4.26908 -0.305483 0
M  V30 11480 C 1076.04 -5.16531 -1.38202 0
M  V30 11481 C 1077.34 -5.16073 0.804081 0
M  V30 11482 H 1079.03 -2.90272 0.733661 0
M  V30 11483 H 1076.58 -1.39574 0.354259 0
M  V30 11484 H 1078.53 -3.9506 -1.46647 0
M  V30 11485 H 1077.26 -2.74535 -1.76913 0
M  V30 11486 H 1075.92 -3.66268 0.155995 0
M  V30 11487 H 1075.56 -4.54351 -2.1581 0
M  V30 11488 H 1075.26 -5.80148 -0.932878 0
M  V30 11489 H 1076.79 -5.81414 -1.86522 0
M  V30 11490 H 1078.2 -5.71873 0.404212 0
M  V30 11491 H 1076.6 -5.88427 1.17789 0
M  V30 11492 H 1077.67 -4.55574 1.66073 0
M  V30 11493 N 1079.01 -0.398486 -1.52479 0
M  V30 11494 C 1080.26 0.182046 -2.00877 0
M  V30 11495 C 1080.58 1.47128 -1.2889 0
M  V30 11496 O 1081.78 2.13242 -1.68048 0
M  V30 11497 C 1080.24 0.374978 -3.57941 0
M  V30 11498 C 1079.85 -0.901544 -4.38835 0
M  V30 11499 C 1081.59 0.911378 -4.14601 0
M  V30 11500 C 1079.5 -0.676385 -5.87519 0
M  V30 11501 H 1078.43 0.0718068 -0.750573 0
M  V30 11502 H 1081.08 -0.522297 -1.7591 0
M  V30 11503 H 1079.46 1.14139 -3.79194 0
M  V30 11504 H 1080.63 -1.67329 -4.29346 0
M  V30 11505 H 1078.95 -1.36357 -3.93441 0
M  V30 11506 H 1081.55 1.09569 -5.23353 0
M  V30 11507 H 1081.89 1.88306 -3.71277 0
M  V30 11508 H 1082.42 0.204296 -3.97275 0
M  V30 11509 H 1079.16 -1.61933 -6.35184 0
M  V30 11510 H 1078.68 0.0562542 -5.99774 0
M  V30 11511 H 1080.36 -0.314454 -6.46235 0
M  V30 11512 N 1080.49 1.57075 -0.12858 0
M  V30 11513 C 1081.9 1.82468 0.39526 0
M  V30 11514 C 1082.25 1.0463 1.65973 0
M  V30 11515 O 1081.38 0.285835 2.14504 0
M  V30 11516 C 1081.97 3.30976 0.723889 0
M  V30 11517 C 1080.53 3.57016 1.19232 0
M  V30 11518 C 1079.68 2.76534 0.205907 0
M  V30 11519 H 1082.63 1.54711 -0.353571 0
M  V30 11520 H 1082.65 3.46127 1.58039 0
M  V30 11521 H 1082.16 3.87602 -0.196595 0
M  V30 11522 H 1080.26 3.05758 2.12938 0
M  V30 11523 H 1080.38 4.65558 1.13103 0
M  V30 11524 H 1078.74 2.45038 0.694872 0
M  V30 11525 H 1079.52 3.35923 -0.707842 0
M  V30 11526 N 1081.97 -0.145205 1.5693 0
M  V30 11527 C 1082.9 -1.20881 1.93553 0
M  V30 11528 C 1083.88 -1.41467 0.801612 0
M  V30 11529 O 1085.06 -1.5605 1.05739 0
M  V30 11530 C 1082.19 -2.5674 2.20912 0
M  V30 11531 C 1081.24 -2.52738 3.43549 0
M  V30 11532 S 1082.07 -1.99257 4.97048 0
M  V30 11533 C 1083.23 -3.36842 5.27531 0
M  V30 11534 H 1083.46 -0.896362 2.83465 0
M  V30 11535 H 1080.99 -0.350894 1.5036 0
M  V30 11536 H 1082.95 -3.34923 2.37354 0
M  V30 11537 H 1081.61 -2.85174 1.31661 0
M  V30 11538 H 1080.8 -3.52753 3.59974 0
M  V30 11539 H 1080.41 -1.82665 3.26358 0
M  V30 11540 H 1082.7 -4.32958 5.21108 0
M  V30 11541 H 1083.64 -3.25268 6.28973 0
M  V30 11542 H 1084.05 -3.3406 4.55043 0
M  V30 11543 N 1083.45 -1.52049 -0.414609 0
M  V30 11544 C 1084.68 -1.69679 -1.18392 0
M  V30 11545 C 1085.09 -0.403881 -1.84429 0
M  V30 11546 O 1084.45 0.619636 -1.71659 0
M  V30 11547 C 1084.5 -2.82855 -2.25112 0
M  V30 11548 O 1084.22 -4.07138 -1.61772 0
M  V30 11549 C 1085.72 -3.11948 -3.14965 0
M  V30 11550 H 1082.94 -0.56879 -0.355977 0
M  V30 11551 H 1085.48 -1.9858 -0.488505 0
M  V30 11552 H 1083.64 -2.56488 -2.90332 0
M  V30 11553 H 1084.05 -4.70163 -2.32479 0
M  V30 11554 H 1085.53 -3.94665 -3.85932 0
M  V30 11555 H 1086 -2.25276 -3.77024 0
M  V30 11556 H 1086.61 -3.40059 -2.55421 0
M  V30 11557 N 1084.93 0.6715 -1.42579 0
M  V30 11558 C 1086.17 1.42731 -1.42516 0
M  V30 11559 C 1086.49 1.95545 -0.0462407 0
M  V30 11560 O 1087.69 2.71391 0.0769798 0
M  V30 11561 C 1086.15 2.58215 -2.50705 0
M  V30 11562 C 1085.76 2.12086 -3.94618 0
M  V30 11563 C 1087.5 3.35705 -2.59813 0
M  V30 11564 C 1085.41 3.24672 -4.9431 0
M  V30 11565 H 1084.34 0.536218 -0.530081 0
M  V30 11566 H 1086.99 0.726655 -1.68499 0
M  V30 11567 H 1085.37 3.30665 -2.17892 0
M  V30 11568 H 1086.55 1.46768 -4.36802 0
M  V30 11569 H 1084.86 1.47526 -3.89391 0
M  V30 11570 H 1087.46 4.1956 -3.31472 0
M  V30 11571 H 1087.8 3.82517 -1.64276 0
M  V30 11572 H 1088.33 2.70326 -2.91836 0
M  V30 11573 H 1085.07 2.82848 -5.91335 0
M  V30 11574 H 1084.59 3.88761 -4.56755 0
M  V30 11575 H 1086.27 3.90088 -5.16179 0
M  V30 11576 N 1086.4 1.28806 0.908124 0
M  V30 11577 C 1087.33 1.15758 2.02787 0
M  V30 11578 C 1088.31 0.053911 1.70015 0
M  V30 11579 O 1089.5 0.231901 1.9281 0
M  V30 11580 C 1086.63 0.824526 3.37371 0
M  V30 11581 C 1085.58 1.88359 3.84324 0
M  V30 11582 C 1084.91 1.40404 5.15937 0
M  V30 11583 C 1086.21 3.29108 4.05568 0
M  V30 11584 H 1087.9 2.09431 2.13961 0
M  V30 11585 H 1085.45 1.00831 1.02806 0
M  V30 11586 H 1087.4 0.71999 4.15204 0
M  V30 11587 H 1086.13 -0.147902 3.26265 0
M  V30 11588 H 1084.79 1.97736 3.087 0
M  V30 11589 H 1084.43 0.420515 5.01239 0
M  V30 11590 H 1084.13 2.11224 5.48323 0
M  V30 11591 H 1085.66 1.31283 5.9632 0
M  V30 11592 H 1087.07 3.2262 4.73909 0
M  V30 11593 H 1085.47 3.97812 4.49294 0
M  V30 11594 H 1086.54 3.72709 3.10187 0
M  V30 11595 N 1087.88 -1.11734 1.11145 0
M  V30 11596 C 1089.13 -1.83677 0.859684 0
M  V30 11597 C 1089.46 -1.84265 -0.613182 0
M  V30 11598 O 1088.74 -1.29351 -1.45254 0
M  V30 11599 C 1089.02 -3.31003 1.41805 0
M  V30 11600 C 1088.87 -3.38827 2.95831 0
M  V30 11601 C 1090.19 -4.26984 1.06645 0
M  V30 11602 H 1087.31 -0.666879 0.313754 0
M  V30 11603 H 1089.95 -1.31038 1.37583 0
M  V30 11604 H 1088.1 -3.75961 0.979054 0
M  V30 11605 H 1089.77 -3.02451 3.48312 0
M  V30 11606 H 1088.02 -2.79143 3.32056 0
M  V30 11607 H 1088.69 -4.42508 3.29986 0
M  V30 11608 H 1091.16 -3.9019 1.44537 0
M  V30 11609 H 1090.04 -5.2846 1.48394 0
M  V30 11610 H 1090.3 -4.42094 -0.0231866 0
M  V30 11611 N 1089.36 -0.901303 -1.29284 0
M  V30 11612 C 1090.61 -0.528826 -1.95784 0
M  V30 11613 C 1090.94 0.922833 -1.70873 0
M  V30 11614 O 1090.21 1.65448 -1.0226 0
M  V30 11615 C 1090.5 -0.823793 -3.50551 0
M  V30 11616 C 1090.35 -2.32727 -3.84913 0
M  V30 11617 C 1091.67 -0.311382 -4.38997 0
M  V30 11618 H 1088.79 -0.193604 -0.711116 0
M  V30 11619 H 1091.43 -1.12828 -1.52872 0
M  V30 11620 H 1089.58 -0.313612 -3.87232 0
M  V30 11621 H 1091.25 -2.90712 -3.58168 0
M  V30 11622 H 1089.49 -2.78735 -3.32399 0
M  V30 11623 H 1090.17 -2.48423 -4.9294 0
M  V30 11624 H 1092.64 -0.748265 -4.09317 0
M  V30 11625 H 1091.52 -0.546957 -5.46168 0
M  V30 11626 H 1091.78 0.787959 -4.35021 0
M  V30 11627 N 1090.84 1.42931 -0.663954 0
M  V30 11628 C 1091.79 2.32577 0.03287 0
M  V30 11629 C 1092.78 1.49217 0.801918 0
M  V30 11630 O 1093.99 1.65358 0.711106 0
M  V30 11631 H 1090.36 0.751424 0.0294198 0
M  V30 11632 H 1092.33 2.89059 -0.740763 0
M  V30 11633 C 1091.08 3.33661 0.978025 0
M  V30 11634 H 1090.4 3.97837 0.395681 0
M  V30 11635 H 1091.84 3.98997 1.43448 0
M  V30 11636 C 1090.3 2.65085 2.07922 0
M  V30 11637 O 1090.83 2.4745 3.16435 0
M  V30 11638 N 1089.04 2.24285 1.84783 0
M  V30 11639 H 1088.59 2.38827 0.965368 0
M  V30 11640 H 1088.54 1.78732 2.58655 0
M  V30 11641 N 1092.32 0.406567 1.52266 0
M  V30 11642 C 1093.56 -0.171391 2.00971 0
M  V30 11643 C 1093.88 -1.46443 1.29668 0
M  V30 11644 O 1095.08 -2.12348 1.69176 0
M  V30 11645 C 1093.54 -0.35599 3.58135 0
M  V30 11646 C 1093.15 0.924803 4.38351 0
M  V30 11647 C 1094.89 -0.889378 4.15079 0
M  V30 11648 C 1092.8 0.707534 5.87152 0
M  V30 11649 H 1091.73 -0.0678253 0.750943 0
M  V30 11650 H 1094.38 0.531619 1.7563 0
M  V30 11651 H 1092.76 -1.12127 3.79794 0
M  V30 11652 H 1093.94 1.69603 4.28452 0
M  V30 11653 H 1092.25 1.38442 3.92712 0
M  V30 11654 H 1094.85 -1.06792 5.23927 0
M  V30 11655 H 1095.19 -1.86334 3.7227 0
M  V30 11656 H 1095.72 -0.183224 3.97378 0
M  V30 11657 H 1092.46 1.65299 6.34316 0
M  V30 11658 H 1091.98 -0.024446 5.99795 0
M  V30 11659 H 1093.66 0.348721 6.4606 0
M  V30 11660 N 1093.79 -1.57004 0.136909 0
M  V30 11661 C 1094.74 -2.16246 -0.806607 0
M  V30 11662 C 1095.71 -1.09246 -1.25118 0
M  V30 11663 O 1096.9 -1.3724 -1.32551 0
M  V30 11664 C 1094.04 -2.78031 -2.04433 0
M  V30 11665 C 1093.15 -3.99393 -1.64649 0
M  V30 11666 C 1092.28 -4.49208 -2.83524 0
M  V30 11667 C 1091.32 -5.63059 -2.40064 0
M  V30 11668 N 1090.46 -6.07537 -3.51913 0
M  V30 11669 H 1095.3 -2.9654 -0.294596 0
M  V30 11670 H 1092.84 -1.46491 -0.133705 0
M  V30 11671 H 1094.8 -3.11992 -2.76978 0
M  V30 11672 H 1093.43 -2.00398 -2.53062 0
M  V30 11673 H 1092.48 -3.71477 -0.819077 0
M  V30 11674 H 1093.79 -4.81904 -1.28723 0
M  V30 11675 H 1092.94 -4.85171 -3.64271 0
M  V30 11676 H 1091.68 -3.65683 -3.22688 0
M  V30 11677 H 1090.69 -5.26682 -1.57754 0
M  V30 11678 H 1091.91 -6.48362 -2.01997 0
M  V30 11679 H 1089.86 -5.2695 -3.90717 0
M  V30 11680 H 1089.78 -6.84949 -3.1997 0
M  V30 11681 H 1091.04 -6.48143 -4.33048 0
M  V30 11682 N 1095.27 0.136881 -1.57004 0
M  V30 11683 C 1096.68 0.695911 -1.73245 0
M  V30 11684 C 1097.03 1.8118 -0.75288 0
M  V30 11685 O 1096.16 2.16258 0.0782477 0
M  V30 11686 C 1096.75 1.26914 -3.14131 0
M  V30 11687 C 1095.31 1.77463 -3.31939 0
M  V30 11688 C 1094.46 0.667128 -2.69156 0
M  V30 11689 H 1097.41 -0.0888841 -1.58451 0
M  V30 11690 H 1097.43 2.13892 -3.14691 0
M  V30 11691 H 1096.94 0.456754 -3.85403 0
M  V30 11692 H 1095.05 2.61236 -2.65681 0
M  V30 11693 H 1095.16 1.89638 -4.39971 0
M  V30 11694 H 1093.52 1.09629 -2.29899 0
M  V30 11695 H 1094.31 -0.13398 -3.43038 0
M  V30 11696 N 1096.75 1.52266 0.40654 0
M  V30 11697 C 1098 1.66123 1.15097 0
M  V30 11698 C 1098.32 0.394836 1.90961 0
M  V30 11699 O 1097.59 -0.590349 1.86793 0
M  V30 11700 H 1096.17 0.612317 0.427875 0
M  V30 11701 H 1098.83 1.89318 0.463106 0
M  V30 11702 H 1097.93 2.50351 1.86361 0
M  V30 11703 N 1098.23 -0.663929 1.42933 0
M  V30 11704 C 1099.16 -1.78876 1.41699 0
M  V30 11705 C 1100.14 -1.60174 0.27981 0
M  V30 11706 O 1101.32 -1.82502 0.471735 0
M  V30 11707 C 1098.45 -3.1603 1.2183 0
M  V30 11708 C 1097.5 -3.53457 2.38685 0
M  V30 11709 S 1098.33 -3.54648 4.01229 0
M  V30 11710 C 1099.49 -4.94477 3.83723 0
M  V30 11711 H 1099.72 -1.7965 2.36882 0
M  V30 11712 H 1097.25 -0.835596 1.29835 0
M  V30 11713 H 1099.21 -3.95193 1.11054 0
M  V30 11714 H 1097.87 -3.1283 0.282139 0
M  V30 11715 H 1097.06 -4.53178 2.20559 0
M  V30 11716 H 1096.67 -2.81681 2.46032 0
M  V30 11717 H 1098.96 -5.82851 3.45386 0
M  V30 11718 H 1099.9 -5.17652 4.83158 0
M  V30 11719 H 1100.31 -4.67507 3.16382 0
M  V30 11720 N 1099.71 -1.29285 -0.901281 0
M  V30 11721 C 1100.67 -1.14283 -1.98676 0
M  V30 11722 C 1101.67 -0.0787641 -1.60607 0
M  V30 11723 O 1102.86 -0.325574 -1.71131 0
M  V30 11724 C 1099.99 -0.747279 -3.32609 0
M  V30 11725 H 1101.18 -2.10701 -2.13413 0
M  V30 11726 H 1098.74 -1.12449 -1.08558 0
M  V30 11727 H 1099.47 0.217111 -3.23572 0
M  V30 11728 H 1099.26 -1.51608 -3.61604 0
M  V30 11729 H 1100.75 -0.665322 -4.12266 0
M  V30 11730 N 1101.18 1.11143 -1.11736 0
M  V30 11731 C 1102.43 1.82948 -0.868127 0
M  V30 11732 C 1102.76 1.84813 0.606182 0
M  V30 11733 O 1102.01 1.29901 1.4637 0
M  V30 11734 C 1102.31 3.29733 -1.3788 0
M  V30 11735 C 1101.98 3.48025 -2.86687 0
M  V30 11736 C 1100.64 3.52725 -3.2732 0
M  V30 11737 C 1102.99 3.54024 -3.82513 0
M  V30 11738 C 1100.32 3.60983 -4.62502 0
M  V30 11739 C 1102.67 3.63814 -5.17515 0
M  V30 11740 C 1101.34 3.66776 -5.57702 0
M  V30 11741 H 1100.61 0.669452 -0.31767 0
M  V30 11742 H 1103.25 1.31057 -1.3963 0
M  V30 11743 H 1101.56 3.8414 -0.77093 0
M  V30 11744 H 1103.26 3.83787 -1.16225 0
M  V30 11745 H 1099.85 3.45039 -2.54256 0
M  V30 11746 H 1104.03 3.4965 -3.52219 0
M  V30 11747 H 1099.29 3.61554 -4.9304 0
M  V30 11748 H 1103.46 3.674 -5.916 0
M  V30 11749 H 1101.09 3.72927 -6.62442 0
M  V30 11750 N 1102.66 0.908147 1.28804 0
M  V30 11751 C 1103.61 0.382315 2.29437 0
M  V30 11752 C 1104.6 -0.523033 1.61123 0
M  V30 11753 O 1105.81 -0.404898 1.75387 0
M  V30 11754 H 1102.19 0.105022 0.74463 0
M  V30 11755 H 1104.16 1.24425 2.71221 0
M  V30 11756 C 1102.91 -0.367475 3.45753 0
M  V30 11757 H 1102.23 0.319957 3.98518 0
M  V30 11758 H 1103.67 -0.700131 4.1818 0
M  V30 11759 C 1102.13 -1.57329 2.97908 0
M  V30 11760 O 1102.66 -2.67248 2.99902 0
M  V30 11761 N 1100.86 -1.41835 2.53636 0
M  V30 11762 H 1100.41 -0.524099 2.52212 0
M  V30 11763 H 1100.37 -2.22645 2.21984 0
M  V30 11764 N 1104.14 -1.42577 0.671525 0
M  V30 11765 C 1105.37 -2.06442 0.199152 0
M  V30 11766 C 1105.79 -1.50104 -1.1336 0
M  V30 11767 O 1105.15 -0.618211 -1.70434 0
M  V30 11768 C 1105.2 -3.60323 0.141215 0
M  V30 11769 O 1104.3 -4.02655 -0.891238 0
M  V30 11770 H 1103.64 -0.655919 0.103277 0
M  V30 11771 H 1106.17 -1.82768 0.919614 0
M  V30 11772 H 1106.18 -4.07984 -0.0360209 0
M  V30 11773 H 1104.86 -4.00702 1.11403 0
M  V30 11774 H 1103.43 -3.66549 -0.685309 0
M  V30 11775 N 1105.62 -0.414636 -1.52048 0
M  V30 11776 C 1106.85 0.158686 -2.06291 0
M  V30 11777 C 1107.26 1.38397 -1.2842 0
M  V30 11778 O 1106.62 1.79351 -0.337539 0
M  V30 11779 C 1106.67 0.503634 -3.57975 0
M  V30 11780 O 1106.39 -0.672996 -4.329 0
M  V30 11781 C 1107.89 1.13009 -4.28653 0
M  V30 11782 H 1105.11 0.0179622 -0.67076 0
M  V30 11783 H 1107.66 -0.587177 -1.95889 0
M  V30 11784 H 1105.81 1.19939 -3.68366 0
M  V30 11785 H 1106.22 -0.383735 -5.23094 0
M  V30 11786 H 1107.7 1.32162 -5.35945 0
M  V30 11787 H 1108.18 2.10476 -3.85482 0
M  V30 11788 H 1108.78 0.474379 -4.22646 0
M  V30 11789 N 1107.1 1.56929 -0.145233 0
M  V30 11790 C 1108.34 1.95681 0.50532 0
M  V30 11791 C 1108.67 1.03098 1.65516 0
M  V30 11792 O 1107.94 0.0921961 1.95683 0
M  V30 11793 H 1106.52 0.72252 0.189668 0
M  V30 11794 H 1109.18 1.93651 -0.220318 0
M  V30 11795 H 1108.27 2.99359 0.882631 0
M  V30 11796 N 1108.58 -0.128553 1.57075 0
M  V30 11797 C 1109.82 -0.836536 1.83535 0
M  V30 11798 C 1110.14 -1.81491 0.7294 0
M  V30 11799 O 1111.34 -2.56838 0.880128 0
M  V30 11800 C 1109.8 -1.53836 3.25365 0
M  V30 11801 C 1109.41 -0.601454 4.43944 0
M  V30 11802 C 1111.15 -2.23204 3.61082 0
M  V30 11803 C 1109.06 -1.30596 5.768 0
M  V30 11804 H 1107.99 -0.316142 0.684522 0
M  V30 11805 H 1110.64 -0.0892555 1.83283 0
M  V30 11806 H 1109.02 -2.33192 3.20058 0
M  V30 11807 H 1110.2 0.158209 4.60528 0
M  V30 11808 H 1108.51 -0.0152393 4.16397 0
M  V30 11809 H 1111.11 -2.76585 4.57608 0
M  V30 11810 H 1111.45 -3.0056 2.88044 0
M  V30 11811 H 1111.98 -1.50746 3.68131 0
M  V30 11812 H 1108.72 -0.573874 6.52983 0
M  V30 11813 H 1108.24 -2.03787 5.6412 0
M  V30 11814 H 1109.92 -1.8418 6.20231 0
M  V30 11815 N 1110.05 -1.5248 -0.398459 0
M  V30 11816 C 1111.3 -1.66287 -1.14155 0
M  V30 11817 C 1111.62 -0.40429 -1.91376 0
M  V30 11818 O 1112.82 -0.422341 -2.68195 0
M  V30 11819 C 1111.28 -2.93831 -2.07825 0
M  V30 11820 C 1110.89 -4.26836 -1.3607 0
M  V30 11821 C 1112.63 -3.17004 -2.82327 0
M  V30 11822 C 1110.54 -5.45495 -2.28451 0
M  V30 11823 H 1109.47 -0.619478 -0.42984 0
M  V30 11824 H 1112.12 -1.78972 -0.405112 0
M  V30 11825 H 1110.5 -2.7487 -2.85065 0
M  V30 11826 H 1111.67 -4.56317 -0.641205 0
M  V30 11827 H 1109.99 -4.0985 -0.735659 0
M  V30 11828 H 1112.59 -4.02834 -3.51609 0
M  V30 11829 H 1112.93 -2.3168 -3.45876 0
M  V30 11830 H 1113.46 -3.36487 -2.12183 0
M  V30 11831 H 1110.2 -6.33198 -1.69532 0
M  V30 11832 H 1109.72 -5.20338 -2.98343 0
M  V30 11833 H 1111.4 -5.78996 -2.88743 0
M  V30 11834 N 1111.53 0.65634 -1.43283 0
M  V30 11835 C 1112.48 1.79058 -1.48462 0
M  V30 11836 C 1113.47 1.65563 -0.358512 0
M  V30 11837 O 1114.68 1.71947 -0.532365 0
M  V30 11838 H 1111.05 0.590716 -0.465358 0
M  V30 11839 H 1113.03 1.7181 -2.43975 0
M  V30 11840 C 1111.77 3.17304 -1.42175 0
M  V30 11841 H 1111.1 3.28324 -2.2813 0
M  V30 11842 H 1112.54 3.96633 -1.4986 0
M  V30 11843 C 1111 3.36613 -0.138929 0
M  V30 11844 O 1111.53 3.93633 0.80101 0
M  V30 11845 N 1109.73 2.90557 -0.0501237 0
M  V30 11846 H 1109.28 2.4434 -0.815821 0
M  V30 11847 H 1109.24 3.03853 0.807504 0
M  V30 11848 N 1113.01 1.29761 0.894412 0
M  V30 11849 C 1113.92 1.1724 2.03204 0
M  V30 11850 C 1114.94 0.0944452 1.73743 0
M  V30 11851 O 1116.11 0.307549 1.99038 0
M  V30 11852 C 1113.18 0.855416 3.35981 0
M  V30 11853 C 1112.24 2.01777 3.78926 0
M  V30 11854 C 1111.47 1.71581 5.05367 0
M  V30 11855 O 1111.69 0.639245 5.66807 0
M  V30 11856 O 1110.63 2.56539 5.44492 0
M  V30 11857 H 1114.45 2.12787 2.16692 0
M  V30 11858 H 1112.04 1.09264 1.0189 0
M  V30 11859 H 1113.92 0.693429 4.15656 0
M  V30 11860 H 1112.6 -0.0702195 3.23624 0
M  V30 11861 H 1111.5 2.23502 2.99996 0
M  V30 11862 H 1112.84 2.92479 3.95875 0
M  V30 11863 N 1114.49 -1.10549 1.12324 0
M  V30 11864 C 1115.72 -1.8627 0.900618 0
M  V30 11865 C 1116.13 -1.80609 -0.550069 0
M  V30 11866 O 1115.49 -1.19396 -1.38025 0
M  V30 11867 C 1115.54 -3.34716 1.36556 0
M  V30 11868 O 1115.26 -3.40279 2.75938 0
M  V30 11869 C 1116.76 -4.27315 1.17969 0
M  V30 11870 H 1113.98 -0.588741 0.321908 0
M  V30 11871 H 1116.52 -1.39759 1.49291 0
M  V30 11872 H 1114.68 -3.78697 0.81652 0
M  V30 11873 H 1115.09 -4.32781 2.96312 0
M  V30 11874 H 1116.57 -5.29677 1.55391 0
M  V30 11875 H 1117.04 -4.39036 0.120158 0
M  V30 11876 H 1117.65 -3.89137 1.71617 0
M  V30 11877 N 1115.97 -0.914965 -1.28321 0
M  V30 11878 C 1117.19 -0.564023 -1.99583 0
M  V30 11879 C 1117.62 0.847821 -1.6791 0
M  V30 11880 O 1116.97 1.56682 -0.912171 0
M  V30 11881 C 1117.02 -0.781368 -3.52033 0
M  V30 11882 O 1116.13 0.159072 -4.12093 0
M  V30 11883 H 1115.47 -0.218565 -0.626997 0
M  V30 11884 H 1118 -1.23074 -1.63444 0
M  V30 11885 H 1118.01 -0.691946 -4.0209 0
M  V30 11886 H 1116.68 -1.81059 -3.7442 0
M  V30 11887 H 1115.26 0.0208145 -3.72894 0
M  V30 11888 N 1117.44 1.42219 -0.679077 0
M  V30 11889 C 1118.72 1.95155 -0.13188 0
M  V30 11890 C 1119.1 1.6193 1.35433 0
M  V30 11891 O 1118.45 0.917672 2.09263 0
M  V30 11892 C 1118.66 3.46635 -0.405578 0
M  V30 11893 C 1120.01 4.23359 -0.324394 0
M  V30 11894 O 1121.03 3.54578 -0.339564 0
M  V30 11895 O 1119.89 5.45831 -0.270268 0
M  V30 11896 H 1116.98 0.826983 -0.00535438 0
M  V30 11897 H 1119.53 1.52024 -0.754101 0
M  V30 11898 H 1118.3 3.6404 -1.43495 0
M  V30 11899 H 1117.92 3.96823 0.248439 0
M  V30 11900 N 1118.92 0.422693 1.51826 0
M  V30 11901 C 1119.87 -0.413725 2.24215 0
M  V30 11902 C 1120.86 -1.00228 1.2587 0
M  V30 11903 O 1122.05 -0.922845 1.51038 0
M  V30 11904 C 1119.18 -1.52244 3.07696 0
M  V30 11905 C 1118.26 -0.943999 4.1346 0
M  V30 11906 N 1118.65 -0.0934117 5.05714 0
M  V30 11907 C 1116.95 -1.21311 4.29185 0
M  V30 11908 C 1117.65 0.229891 5.81246 0
M  V30 11909 N 1116.63 -0.382753 5.42251 0
M  V30 11910 H 1120.43 0.242283 2.929 0
M  V30 11911 H 1117.94 0.233902 1.60707 0
M  V30 11912 H 1119.94 -2.13438 3.5812 0
M  V30 11913 H 1118.6 -2.18093 2.40552 0
M  V30 11914 H 1119.61 0.271932 5.17186 0
M  V30 11915 H 1116.29 -1.87018 3.7327 0
M  V30 11916 H 1117.68 0.921159 6.65556 0
M  V30 11917 N 1120.4 -1.5685 0.153553 0
M  V30 11918 C 1121.62 -2.01135 -0.505904 0
M  V30 11919 C 1122.05 -1.03301 -1.57196 0
M  V30 11920 O 1121.41 -0.00976022 -1.81297 0
M  V30 11921 C 1121.46 -3.44129 -1.0774 0
M  V30 11922 O 1120.56 -3.49318 -2.19205 0
M  V30 11923 H 1119.9 -0.652496 -0.123062 0
M  V30 11924 H 1122.43 -2.03039 0.252216 0
M  V30 11925 H 1122.44 -3.83066 -1.40444 0
M  V30 11926 H 1121.12 -4.1484 -0.296754 0
M  V30 11927 H 1119.69 -3.22227 -1.8768 0
M  V30 11928 N 1121.88 0.120221 -1.57141 0
M  V30 11929 C 1122.79 1.16641 -2.03549 0
M  V30 11930 C 1123.8 1.45407 -0.955656 0
M  V30 11931 O 1124.98 1.56547 -1.26708 0
M  V30 11932 C 1122.04 2.4734 -2.42948 0
M  V30 11933 C 1121.11 2.25982 -3.65008 0
M  V30 11934 C 1120.34 3.50449 -4.02518 0
M  V30 11935 O 1120.56 4.57706 -3.40384 0
M  V30 11936 O 1119.5 3.41524 -4.95626 0
M  V30 11937 H 1123.32 0.802323 -2.9291 0
M  V30 11938 H 1120.91 0.330927 -1.45689 0
M  V30 11939 H 1122.79 3.24348 -2.69029 0
M  V30 11940 H 1121.46 2.83225 -1.56733 0
M  V30 11941 H 1120.37 1.46837 -3.44078 0
M  V30 11942 H 1121.7 1.95002 -4.51924 0
M  V30 11943 N 1123.36 1.52689 0.390367 0
M  V30 11944 C 1124.61 1.6689 1.13272 0
M  V30 11945 C 1124.92 0.414433 1.91159 0
M  V30 11946 O 1126.12 0.436559 2.67967 0
M  V30 11947 C 1124.58 2.94929 2.06264 0
M  V30 11948 C 1124.19 4.27551 1.33805 0
M  V30 11949 C 1125.93 3.18497 2.80642 0
M  V30 11950 C 1123.84 5.46698 2.25554 0
M  V30 11951 H 1122.77 0.621749 0.426549 0
M  V30 11952 H 1125.42 1.79185 0.395615 0
M  V30 11953 H 1123.8 2.76378 2.83604 0
M  V30 11954 H 1124.98 4.56651 0.616997 0
M  V30 11955 H 1123.29 4.10234 0.713913 0
M  V30 11956 H 1125.89 4.04693 3.49467 0
M  V30 11957 H 1126.23 2.33511 3.44642 0
M  V30 11958 H 1126.76 3.37607 2.10395 0
M  V30 11959 H 1123.5 6.34088 1.66171 0
M  V30 11960 H 1123.02 5.21913 2.95579 0
M  V30 11961 H 1124.7 5.80519 2.85668 0
M  V30 11962 N 1124.83 -0.648732 1.43629 0
M  V30 11963 C 1125.76 -1.77298 1.51947 0
M  V30 11964 C 1126.75 -1.65942 0.373785 0
M  V30 11965 O 1127.93 -1.8497 0.591596 0
M  V30 11966 C 1125.06 -3.15749 1.44638 0
M  V30 11967 C 1124.01 -3.41872 2.57502 0
M  V30 11968 C 1123.34 -4.8017 2.35246 0
M  V30 11969 C 1124.64 -3.36173 3.99731 0
M  V30 11970 H 1126.33 -1.70594 2.46045 0
M  V30 11971 H 1123.88 -0.819306 1.1842 0
M  V30 11972 H 1125.83 -3.94156 1.4906 0
M  V30 11973 H 1124.56 -3.23194 0.470466 0
M  V30 11974 H 1123.22 -2.65838 2.5244 0
M  V30 11975 H 1122.86 -4.84297 1.35887 0
M  V30 11976 H 1122.56 -4.9861 3.10906 0
M  V30 11977 H 1124.09 -5.6083 2.41459 0
M  V30 11978 H 1125.5 -4.0451 4.06257 0
M  V30 11979 H 1123.9 -3.66148 4.75453 0
M  V30 11980 H 1124.97 -2.34277 4.24549 0
M  V30 11981 N 1126.31 -1.30234 -0.887518 0
M  V30 11982 C 1127.59 -1.09572 -1.62029 0
M  V30 11983 C 1127.97 0.355877 -2.08079 0
M  V30 11984 O 1127.32 1.34692 -1.84582 0
M  V30 11985 C 1127.53 -2.0943 -2.79177 0
M  V30 11986 C 1128.88 -2.4101 -3.4957 0
M  V30 11987 O 1129.9 -2.0772 -2.89363 0
M  V30 11988 O 1128.76 -2.97943 -4.5814 0
M  V30 11989 H 1125.85 -0.420648 -0.712028 0
M  V30 11990 H 1128.4 -1.41651 -0.934517 0
M  V30 11991 H 1127.17 -3.07149 -2.42436 0
M  V30 11992 H 1126.79 -1.78154 -3.55453 0
M  V30 11993 N 1127.79 1.09952 -1.12909 0
M  V30 11994 C 1129.02 1.8579 -0.910483 0
M  V30 11995 C 1129.43 1.80898 0.540484 0
M  V30 11996 O 1128.79 1.20126 1.3739 0
M  V30 11997 C 1128.84 3.33987 -1.38329 0
M  V30 11998 O 1128.56 3.38811 -2.77739 0
M  V30 11999 C 1130.06 4.26683 -1.20234 0
M  V30 12000 H 1127.28 0.587026 -0.325025 0
M  V30 12001 H 1129.83 1.38965 -1.5003 0
M  V30 12002 H 1127.98 3.78259 -0.836592 0
M  V30 12003 H 1128.4 4.31204 -2.98603 0
M  V30 12004 H 1129.87 5.28846 -1.58197 0
M  V30 12005 H 1130.35 4.38966 -0.14344 0
M  V30 12006 H 1130.95 3.88221 -1.73679 0
M  V30 12007 N 1129.27 0.921757 1.27833 0
M  V30 12008 C 1130.5 0.575202 1.98744 0
M  V30 12009 C 1130.91 -0.845405 1.68815 0
M  V30 12010 O 1130.27 -1.56106 0.94536 0
M  V30 12011 C 1130.32 0.784389 3.52888 0
M  V30 12012 O 1130.04 2.1491 3.81766 0
M  V30 12013 C 1131.54 0.445744 4.41053 0
M  V30 12014 H 1128.76 0.218525 0.634419 0
M  V30 12015 H 1131.31 1.23715 1.62834 0
M  V30 12016 H 1129.46 0.169323 3.8703 0
M  V30 12017 H 1129.87 2.19469 4.76375 0
M  V30 12018 H 1131.35 0.64284 5.48244 0
M  V30 12019 H 1131.83 -0.618433 4.34824 0
M  V30 12020 H 1132.43 1.03869 4.12421 0
M  V30 12021 N 1130.75 -1.41857 0.686609 0
M  V30 12022 C 1131.69 -2.326 0.0041351 0
M  V30 12023 C 1132.69 -1.50474 -0.778077 0
M  V30 12024 O 1133.89 -1.66468 -0.684709 0
M  V30 12025 H 1130.27 -0.751797 -0.0174615 0
M  V30 12026 H 1132.24 -2.87844 0.786656 0
M  V30 12027 C 1130.99 -3.35175 -0.924819 0
M  V30 12028 H 1130.31 -3.98416 -0.332339 0
M  V30 12029 H 1131.75 -4.01229 -1.37082 0
M  V30 12030 C 1130.21 -2.68359 -2.03679 0
M  V30 12031 O 1130.74 -2.52453 -3.12459 0
M  V30 12032 N 1128.95 -2.27196 -1.81192 0
M  V30 12033 H 1128.49 -2.40333 -0.92725 0
M  V30 12034 H 1128.45 -1.82824 -2.55778 0
M  V30 12035 N 1132.22 -0.430739 -1.51599 0
M  V30 12036 C 1133.45 0.139197 -2.06932 0
M  V30 12037 C 1133.87 1.3626 -1.29672 0
M  V30 12038 O 1133.23 1.78219 -0.332836 0
M  V30 12039 C 1133.28 0.446593 -3.57824 0
M  V30 12040 O 1132.38 1.53414 -3.82803 0
M  V30 12041 H 1131.73 0.00475812 -0.663983 0
M  V30 12042 H 1134.26 -0.610171 -1.9529 0
M  V30 12043 H 1134.27 0.698972 -4.01968 0
M  V30 12044 H 1132.94 -0.447613 -4.13484 0
M  V30 12045 H 1131.52 1.27224 -3.50526 0
M  V30 12046 N 1133.7 1.56767 -0.161869 0
M  V30 12047 C 1134.93 2.00673 0.491314 0
M  V30 12048 C 1135.34 1.04111 1.5798 0
M  V30 12049 O 1134.68 0.0324889 1.83671 0
M  V30 12050 C 1134.75 3.41011 1.13806 0
M  V30 12051 C 1134.41 4.56595 0.192384 0
M  V30 12052 C 1135.41 5.16591 -0.585671 0
M  V30 12053 C 1133.09 5.02218 0.0909594 0
M  V30 12054 C 1135.09 6.20631 -1.45245 0
M  V30 12055 C 1132.77 6.06109 -0.77941 0
M  V30 12056 C 1133.77 6.65187 -1.54971 0
M  V30 12057 O 1133.46 7.67065 -2.40555 0
M  V30 12058 H 1133.19 0.663174 0.131059 0
M  V30 12059 H 1135.74 2.03775 -0.257896 0
M  V30 12060 H 1133.97 3.34793 1.93521 0
M  V30 12061 H 1135.66 3.68931 1.69248 0
M  V30 12062 H 1136.43 4.82232 -0.517432 0
M  V30 12063 H 1132.31 4.55953 0.680292 0
M  V30 12064 H 1135.85 6.66671 -2.05415 0
M  V30 12065 H 1131.75 6.39894 -0.848887 0
M  V30 12066 H 1132.52 7.84348 -2.33966 0
M  V30 12067 N 1135.18 -0.111886 1.57202 0
M  V30 12068 C 1136.11 -1.13796 2.03894 0
M  V30 12069 C 1137.09 -1.4277 0.924696 0
M  V30 12070 O 1138.28 -1.53089 1.19488 0
M  V30 12071 C 1135.41 -2.46229 2.44925 0
M  V30 12072 C 1134.36 -2.31702 3.59859 0
M  V30 12073 C 1133.69 -3.69161 3.86813 0
M  V30 12074 C 1134.99 -1.77158 4.91337 0
M  V30 12075 H 1136.68 -0.749581 2.89865 0
M  V30 12076 H 1134.23 -0.359126 1.3945 0
M  V30 12077 H 1136.18 -3.18267 2.76195 0
M  V30 12078 H 1134.9 -2.86971 1.55933 0
M  V30 12079 H 1133.56 -1.62112 3.28809 0
M  V30 12080 H 1133.21 -4.07401 2.95015 0
M  V30 12081 H 1132.91 -3.60292 4.6418 0
M  V30 12082 H 1134.43 -4.42693 4.20542 0
M  V30 12083 H 1135.85 -2.3902 5.21097 0
M  V30 12084 H 1134.25 -1.79091 5.72753 0
M  V30 12085 H 1135.32 -0.729675 4.79379 0
M  V30 12086 N 1136.66 -1.52894 -0.382264 0
M  V30 12087 C 1137.91 -1.67489 -1.12385 0
M  V30 12088 C 1138.22 -0.424565 -1.90937 0
M  V30 12089 O 1139.43 -0.450763 -2.67732 0
M  V30 12090 C 1137.88 -2.96019 -2.04697 0
M  V30 12091 C 1137.49 -4.28255 -1.31535 0
M  V30 12092 C 1139.23 -3.19981 -2.78949 0
M  V30 12093 C 1137.14 -5.47887 -2.22652 0
M  V30 12094 H 1136.07 -0.624002 -0.423246 0
M  V30 12095 H 1138.72 -1.79392 -0.386107 0
M  V30 12096 H 1137.1 -2.77878 -2.82134 0
M  V30 12097 H 1138.28 -4.56971 -0.592771 0
M  V30 12098 H 1136.59 -4.10607 -0.692148 0
M  V30 12099 H 1139.19 -4.06541 -3.47316 0
M  V30 12100 H 1139.53 -2.35335 -3.43399 0
M  V30 12101 H 1140.07 -3.38718 -2.08602 0
M  V30 12102 H 1136.81 -6.3496 -1.62806 0
M  V30 12103 H 1136.33 -5.23473 -2.92807 0
M  V30 12104 H 1138 -5.82026 -2.82586 0
M  V30 12105 N 1138.14 0.641106 -1.43971 0
M  V30 12106 C 1139.08 1.75352 -1.50068 0
M  V30 12107 C 1140.05 1.62386 -0.349266 0
M  V30 12108 O 1141.24 1.82455 -0.558118 0
M  V30 12109 C 1138.38 3.13561 -1.4413 0
M  V30 12110 C 1137.49 3.37574 -2.6957 0
M  V30 12111 C 1136.63 4.65698 -2.55535 0
M  V30 12112 C 1135.67 4.82857 -3.76186 0
M  V30 12113 N 1134.8 6.02249 -3.60888 0
M  V30 12114 H 1139.64 1.69477 -2.45116 0
M  V30 12115 H 1137.18 0.826871 -1.2166 0
M  V30 12116 H 1139.14 3.93476 -1.38681 0
M  V30 12117 H 1137.77 3.18476 -0.526563 0
M  V30 12118 H 1136.82 2.5167 -2.85248 0
M  V30 12119 H 1138.13 3.46135 -3.59154 0
M  V30 12120 H 1137.29 5.53759 -2.47862 0
M  V30 12121 H 1136.03 4.59479 -1.63495 0
M  V30 12122 H 1135.03 3.93229 -3.84254 0
M  V30 12123 H 1136.26 4.90898 -4.6925 0
M  V30 12124 H 1134.2 5.97138 -2.71591 0
M  V30 12125 H 1134.12 6.11822 -4.44083 0
M  V30 12126 H 1135.39 6.92898 -3.57088 0
M  V30 12127 N 1139.62 1.30703 0.880598 0
M  V30 12128 C 1140.84 1.22714 1.6658 0
M  V30 12129 C 1141.26 -0.209303 1.87636 0
M  V30 12130 O 1140.62 -1.13771 1.42697 0
M  V30 12131 C 1140.67 1.95659 3.03974 0
M  V30 12132 O 1140.39 3.33695 2.83865 0
M  V30 12133 C 1141.89 1.9438 3.98411 0
M  V30 12134 H 1139.11 0.424478 0.519673 0
M  V30 12135 H 1141.65 1.72402 1.0999 0
M  V30 12136 H 1139.81 1.49758 3.57283 0
M  V30 12137 H 1140.22 3.70697 3.71058 0
M  V30 12138 H 1141.7 2.4995 4.92168 0
M  V30 12139 H 1142.17 0.923767 4.29375 0
M  V30 12140 H 1142.78 2.40112 3.51036 0
M  V30 12141 N 1141.09 -1.09351 1.1349 0
M  V30 12142 C 1142.33 -1.83156 0.907372 0
M  V30 12143 C 1142.7 -1.8376 -0.556441 0
M  V30 12144 O 1143.9 -2.5323 -0.90156 0
M  V30 12145 C 1142.17 -3.25315 1.48004 0
M  V30 12146 S 1143.73 -4.16113 1.39268 0
M  V30 12147 H 1140.55 -0.631319 0.327043 0
M  V30 12148 H 1143.15 -1.31509 1.44657 0
M  V30 12149 H 1141.85 -3.22452 2.53876 0
M  V30 12150 H 1141.38 -3.82034 0.938822 0
M  V30 12151 H 1143.4 -4.94806 0.371645 0
M  V30 12152 N 1142.57 -0.928524 -1.27343 0
M  V30 12153 C 1143.5 -0.372628 -2.25137 0
M  V30 12154 C 1144.48 0.531468 -1.53669 0
M  V30 12155 O 1145.67 0.471788 -1.825 0
M  V30 12156 C 1142.79 0.465841 -3.35481 0
M  V30 12157 C 1141.84 -0.374941 -4.24849 0
M  V30 12158 S 1142.67 -1.791 -5.04662 0
M  V30 12159 C 1143.83 -0.960233 -6.1849 0
M  V30 12160 H 1144.06 -1.20147 -2.71941 0
M  V30 12161 H 1141.59 -0.730764 -1.36012 0
M  V30 12162 H 1143.55 0.943741 -3.99504 0
M  V30 12163 H 1142.21 1.26922 -2.87314 0
M  V30 12164 H 1141.41 0.266871 -5.03293 0
M  V30 12165 H 1141.01 -0.787045 -3.65625 0
M  V30 12166 H 1143.3 -0.196615 -6.77215 0
M  V30 12167 H 1144.24 -1.71771 -6.8695 0
M  V30 12168 H 1144.65 -0.501881 -5.62265 0
M  V30 12169 N 1144.05 1.41491 -0.694123 0
M  V30 12170 C 1145.3 2.00479 -0.221585 0
M  V30 12171 C 1145.61 1.55605 1.18518 0
M  V30 12172 O 1146.82 2.07143 1.7551 0
M  V30 12173 C 1145.27 3.5824 -0.345264 0
M  V30 12174 C 1144.88 4.12096 -1.7573 0
M  V30 12175 C 1146.63 4.24446 0.0675731 0
M  V30 12176 C 1144.53 5.62286 -1.83271 0
M  V30 12177 H 1143.46 0.749841 -0.0790854 0
M  V30 12178 H 1146.11 1.61987 -0.86211 0
M  V30 12179 H 1144.5 3.94328 0.363487 0
M  V30 12180 H 1145.67 3.8743 -2.49469 0
M  V30 12181 H 1143.98 3.58411 -2.11969 0
M  V30 12182 H 1146.58 5.34691 0.0316485 0
M  V30 12183 H 1146.92 4.01338 1.10606 0
M  V30 12184 H 1147.46 3.93388 -0.59085 0
M  V30 12185 H 1144.2 5.9022 -2.85168 0
M  V30 12186 H 1143.72 5.88883 -1.13914 0
M  V30 12187 H 1145.4 6.27033 -1.59494 0
M  V30 12188 N 1145.53 0.438773 1.51369 0
M  V30 12189 C 1146.46 -0.362467 2.3067 0
M  V30 12190 C 1147.44 -1.01973 1.36145 0
M  V30 12191 O 1148.62 -1.0231 1.65065 0
M  V30 12192 C 1145.75 -1.46313 3.14976 0
M  V30 12193 C 1144.71 -0.929272 4.1779 0
M  V30 12194 C 1144.03 -2.12579 4.90627 0
M  V30 12195 C 1145.33 0.0372782 5.22287 0
M  V30 12196 H 1147.03 0.29931 2.979 0
M  V30 12197 H 1144.57 0.14539 1.43264 0
M  V30 12198 H 1146.53 -2.03088 3.69233 0
M  V30 12199 H 1145.25 -2.15321 2.45569 0
M  V30 12200 H 1143.91 -0.383722 3.64586 0
M  V30 12201 H 1143.56 -2.8021 4.17722 0
M  V30 12202 H 1143.26 -1.77496 5.60151 0
M  V30 12203 H 1144.78 -2.69905 5.47708 0
M  V30 12204 H 1146.2 -0.44022 5.71607 0
M  V30 12205 H 1144.59 0.300748 5.99346 0
M  V30 12206 H 1145.66 0.973503 4.75027 0
M  V30 12207 N 1147.01 -1.56678 0.170181 0
M  V30 12208 C 1148.25 -1.9714 -0.475767 0
M  V30 12209 C 1148.58 -1.05611 -1.62972 0
M  V30 12210 O 1147.86 -0.103017 -1.94227 0
M  V30 12211 C 1148.14 -3.47072 -0.959828 0
M  V30 12212 C 1148 -4.4938 0.194225 0
M  V30 12213 C 1149.31 -4.00071 -1.83387 0
M  V30 12214 H 1146.43 -0.716776 -0.171466 0
M  V30 12215 H 1149.08 -1.88266 0.256086 0
M  V30 12216 H 1147.23 -3.54766 -1.58346 0
M  V30 12217 H 1148.9 -4.53748 0.83128 0
M  V30 12218 H 1147.14 -4.25393 0.849893 0
M  V30 12219 H 1147.81 -5.51685 -0.186575 0
M  V30 12220 H 1150.29 -3.95002 -1.30815 0
M  V30 12221 H 1149.16 -5.05398 -2.14159 0
M  V30 12222 H 1149.42 -3.43819 -2.77923 0
M  V30 12223 N 1148.48 0.103547 -1.57259 0
M  V30 12224 C 1149.73 0.808576 -1.85656 0
M  V30 12225 C 1150.06 1.79143 -0.757502 0
M  V30 12226 O 1149.31 1.941 0.249723 0
M  V30 12227 C 1149.61 1.57946 -3.20605 0
M  V30 12228 C 1149.28 0.739502 -4.44795 0
M  V30 12229 C 1147.94 0.507921 -4.78512 0
M  V30 12230 C 1150.29 0.155034 -5.20969 0
M  V30 12231 C 1147.62 -0.318129 -5.85837 0
M  V30 12232 C 1149.97 -0.658292 -6.29166 0
M  V30 12233 C 1148.64 -0.900044 -6.61404 0
M  V30 12234 H 1147.91 0.295879 -0.679365 0
M  V30 12235 H 1150.55 0.0703604 -1.91371 0
M  V30 12236 H 1148.86 2.38902 -3.10537 0
M  V30 12237 H 1150.56 2.12921 -3.39803 0
M  V30 12238 H 1147.15 0.930103 -4.18386 0
M  V30 12239 H 1151.33 0.32113 -4.9526 0
M  V30 12240 H 1146.59 -0.514495 -6.09231 0
M  V30 12241 H 1150.76 -1.11809 -6.87366 0
M  V30 12242 H 1148.39 -1.54194 -7.44398 0
M  V30 12243 N 1149.96 1.53094 0.37415 0
M  V30 12244 C 1150.89 1.81901 1.46404 0
M  V30 12245 C 1151.87 0.671949 1.56265 0
M  V30 12246 O 1153.06 0.920978 1.70973 0
M  V30 12247 C 1150.19 2.00123 2.83845 0
M  V30 12248 C 1149.14 3.15864 2.88814 0
M  V30 12249 C 1148.47 3.19364 4.28848 0
M  V30 12250 C 1149.77 4.54633 2.57112 0
M  V30 12251 H 1151.46 2.73172 1.22546 0
M  V30 12252 H 1149.01 1.31444 0.588087 0
M  V30 12253 H 1150.96 2.18859 3.6011 0
M  V30 12254 H 1149.68 1.05555 3.09072 0
M  V30 12255 H 1148.34 2.96935 2.15 0
M  V30 12256 H 1147.99 2.2245 4.51137 0
M  V30 12257 H 1147.69 3.97123 4.3309 0
M  V30 12258 H 1149.22 3.40273 5.06997 0
M  V30 12259 H 1150.63 4.73587 3.23091 0
M  V30 12260 H 1149.03 5.34569 2.72683 0
M  V30 12261 H 1150.1 4.60331 1.52392 0
M  V30 12262 N 1151.44 -0.633461 1.44309 0
M  V30 12263 C 1152.66 -1.42527 1.50668 0
M  V30 12264 C 1153.09 -1.87637 0.131861 0
M  V30 12265 O 1152.45 -1.58595 -0.878477 0
M  V30 12266 C 1152.5 -2.62328 2.47419 0
M  V30 12267 O 1151.6 -3.62081 1.97411 0
M  V30 12268 H 1150.94 -0.426559 0.508864 0
M  V30 12269 H 1153.47 -0.773392 1.8942 0
M  V30 12270 H 1153.48 -3.09901 2.65378 0
M  V30 12271 H 1152.16 -2.2884 3.47283 0
M  V30 12272 H 1150.73 -3.21333 1.89208 0
M  V30 12273 N 1152.92 -1.31168 -0.873655 0
M  V30 12274 C 1154.14 -1.23728 -1.66452 0
M  V30 12275 C 1154.57 0.194869 -1.87088 0
M  V30 12276 O 1153.93 1.1397 -1.40998 0
M  V30 12277 C 1153.97 -1.98285 -3.0119 0
M  V30 12278 O 1153.08 -1.31767 -3.90783 0
M  V30 12279 H 1152.42 -0.427362 -0.508191 0
M  V30 12280 H 1154.95 -1.73176 -1.08955 0
M  V30 12281 H 1154.96 -2.0774 -3.51153 0
M  V30 12282 H 1153.63 -3.02437 -2.8549 0
M  V30 12283 H 1152.21 -1.3074 -3.4923 0
M  V30 12284 N 1154.4 1.08748 -1.14068 0
M  V30 12285 C 1155.65 1.8044 -0.901352 0
M  V30 12286 C 1155.96 1.86995 0.573791 0
M  V30 12287 O 1157.16 2.55065 0.930275 0
M  V30 12288 C 1155.62 3.24185 -1.56308 0
M  V30 12289 C 1155.23 3.25875 -3.07424 0
M  V30 12290 C 1156.97 4.00584 -1.40473 0
M  V30 12291 C 1154.88 4.64186 -3.66449 0
M  V30 12292 H 1153.81 0.676201 -0.333569 0
M  V30 12293 H 1156.46 1.22169 -1.3692 0
M  V30 12294 H 1154.84 3.82561 -1.0229 0
M  V30 12295 H 1156.02 2.77225 -3.6808 0
M  V30 12296 H 1154.33 2.62969 -3.22856 0
M  V30 12297 H 1156.93 5.02781 -1.81976 0
M  V30 12298 H 1157.27 4.14823 -0.350408 0
M  V30 12299 H 1157.8 3.48668 -1.91508 0
M  V30 12300 H 1154.54 4.5515 -4.71719 0
M  V30 12301 H 1154.06 5.13132 -3.10574 0
M  V30 12302 H 1155.74 5.33161 -3.66536 0
M  V30 12303 N 1155.87 0.935264 1.26849 0
M  V30 12304 C 1157.12 0.57969 1.94025 0
M  V30 12305 C 1157.45 -0.880295 1.73439 0
M  V30 12306 O 1156.7 -1.64429 1.0612 0
M  V30 12307 C 1157 0.861098 3.46872 0
M  V30 12308 C 1156.67 2.30402 3.87589 0
M  V30 12309 C 1155.33 2.69848 3.98417 0
M  V30 12310 C 1157.68 3.242 4.08098 0
M  V30 12311 C 1155.01 4.02199 4.27145 0
M  V30 12312 C 1157.36 4.56141 4.38313 0
M  V30 12313 C 1156.03 4.9541 4.47354 0
M  V30 12314 H 1155.3 0.212123 0.709989 0
M  V30 12315 H 1157.94 1.18066 1.50774 0
M  V30 12316 H 1156.25 0.177534 3.91398 0
M  V30 12317 H 1157.95 0.564841 3.97002 0
M  V30 12318 H 1154.54 1.98803 3.79704 0
M  V30 12319 H 1158.72 2.94924 3.99166 0
M  V30 12320 H 1153.98 4.32295 4.32355 0
M  V30 12321 H 1158.15 5.28818 4.53128 0
M  V30 12322 H 1155.78 5.97994 4.69368 0
M  V30 12323 N 1157.35 -1.41121 0.701616 0
M  V30 12324 C 1158.6 -2.00733 0.234682 0
M  V30 12325 C 1158.92 -1.55869 -1.17174 0
M  V30 12326 O 1158.19 -0.791965 -1.79178 0
M  V30 12327 H 1156.77 -0.742288 0.0837745 0
M  V30 12328 H 1159.43 -1.7266 0.904127 0
M  V30 12329 H 1158.53 -3.11041 0.256831 0
M  V30 12330 N 1158.83 -0.446794 -1.51134 0
M  V30 12331 C 1160.06 0.114727 -2.06281 0
M  V30 12332 C 1160.47 1.36192 -1.31333 0
M  V30 12333 O 1159.81 1.79956 -0.368982 0
M  V30 12334 C 1159.87 0.492968 -3.56104 0
M  V30 12335 C 1159.54 -0.648755 -4.52372 0
M  V30 12336 C 1160.53 -1.52369 -4.97071 0
M  V30 12337 C 1158.22 -0.832177 -4.95359 0
M  V30 12338 C 1160.21 -2.56667 -5.83439 0
M  V30 12339 C 1157.9 -1.87841 -5.81514 0
M  V30 12340 C 1158.9 -2.74404 -6.25453 0
M  V30 12341 O 1158.59 -3.7723 -7.09896 0
M  V30 12342 H 1158.32 0.007138 -0.675962 0
M  V30 12343 H 1160.87 -0.627452 -1.95582 0
M  V30 12344 H 1159.1 1.28799 -3.6462 0
M  V30 12345 H 1160.79 0.986739 -3.93724 0
M  V30 12346 H 1161.56 -1.39356 -4.64548 0
M  V30 12347 H 1157.44 -0.167954 -4.60694 0
M  V30 12348 H 1160.98 -3.24264 -6.17656 0
M  V30 12349 H 1156.88 -2.00871 -6.1345 0
M  V30 12350 H 1157.65 -3.73924 -7.28095 0
M  V30 12351 N 1160.31 1.56586 -0.178487 0
M  V30 12352 C 1161.55 1.98994 0.466987 0
M  V30 12353 C 1161.91 1.06229 1.59935 0
M  V30 12354 O 1163.11 1.37806 2.30788 0
M  V30 12355 C 1161.38 3.45064 0.930899 0
M  V30 12356 S 1162.94 4.095 1.57655 0
M  V30 12357 H 1159.76 0.695007 0.149955 0
M  V30 12358 H 1162.36 1.93519 -0.27764 0
M  V30 12359 H 1161.07 4.10287 0.0964476 0
M  V30 12360 H 1160.6 3.54321 1.70939 0
M  V30 12361 H 1162.61 4.05139 2.86491 0
M  V30 12362 N 1161.79 -0.095206 1.57312 0
M  V30 12363 C 1162.73 -1.11551 2.02052 0
M  V30 12364 C 1163.7 -1.39808 0.896818 0
M  V30 12365 O 1164.89 -1.51273 1.1628 0
M  V30 12366 C 1162.03 -2.43056 2.44985 0
M  V30 12367 C 1161.14 -2.21531 3.70875 0
M  V30 12368 C 1160.28 -3.46434 4.02687 0
M  V30 12369 C 1159.32 -3.2017 5.21687 0
M  V30 12370 N 1158.45 -4.37339 5.49253 0
M  V30 12371 H 1163.29 -0.727 2.88996 0
M  V30 12372 H 1160.83 -0.347441 1.42938 0
M  V30 12373 H 1162.79 -3.19803 2.67921 0
M  V30 12374 H 1161.42 -2.79754 1.61051 0
M  V30 12375 H 1160.47 -1.35587 3.55416 0
M  V30 12376 H 1161.78 -1.98116 4.57768 0
M  V30 12377 H 1160.94 -4.31589 4.26399 0
M  V30 12378 H 1159.67 -3.72904 3.14315 0
M  V30 12379 H 1158.68 -2.33409 4.97796 0
M  V30 12380 H 1159.9 -2.95047 6.11657 0
M  V30 12381 H 1157.85 -4.63885 4.6384 0
M  V30 12382 H 1157.77 -4.17114 6.30517 0
M  V30 12383 H 1159.04 -5.23559 5.775 0
M  V30 12384 N 1163.26 -1.53291 -0.366026 0
M  V30 12385 C 1164.17 -1.82656 -1.47221 0
M  V30 12386 C 1165.19 -0.71491 -1.58635 0
M  V30 12387 O 1166.37 -1.00492 -1.74538 0
M  V30 12388 C 1163.43 -2.00995 -2.82492 0
M  V30 12389 C 1162.49 -3.24895 -2.8061 0
M  V30 12390 C 1161.73 -3.4235 -4.09429 0
M  V30 12391 O 1161.95 -2.6411 -5.05571 0
M  V30 12392 O 1160.88 -4.35702 -4.15268 0
M  V30 12393 H 1164.71 -2.76634 -1.2533 0
M  V30 12394 H 1162.29 -1.38665 -0.556084 0
M  V30 12395 H 1164.18 -2.14632 -3.62645 0
M  V30 12396 H 1162.85 -1.10207 -3.04362 0
M  V30 12397 H 1161.76 -3.16682 -1.99157 0
M  V30 12398 H 1163.09 -4.15604 -2.63694 0
M  V30 12399 N 1164.74 0.6258 -1.44643 0
M  V30 12400 C 1165.71 1.71941 -1.51555 0
M  V30 12401 C 1166.71 1.55822 -0.396988 0
M  V30 12402 O 1167.9 1.61221 -0.65981 0
M  V30 12403 C 1165.03 3.11068 -1.39461 0
M  V30 12404 H 1166.22 1.67185 -2.48976 0
M  V30 12405 H 1163.77 0.839934 -1.31814 0
M  V30 12406 H 1164.51 3.21416 -0.431534 0
M  V30 12407 H 1164.29 3.24175 -2.20574 0
M  V30 12408 H 1165.78 3.90762 -1.4729 0
M  V30 12409 N 1166.22 1.31629 0.866686 0
M  V30 12410 C 1167.47 1.21263 1.61678 0
M  V30 12411 C 1167.79 -0.228562 1.93656 0
M  V30 12412 O 1167.06 -1.15014 1.58583 0
M  V30 12413 H 1165.64 0.445817 0.59938 0
M  V30 12414 H 1168.3 1.64998 1.03739 0
M  V30 12415 H 1167.4 1.78669 2.55898 0
M  V30 12416 N 1167.7 -1.08142 1.14644 0
M  V30 12417 C 1168.63 -2.15022 0.793614 0
M  V30 12418 C 1169.64 -1.61679 -0.190729 0
M  V30 12419 O 1170.83 -1.78472 0.0313696 0
M  V30 12420 C 1167.93 -3.38532 0.157785 0
M  V30 12421 C 1167.11 -4.21252 1.17753 0
M  V30 12422 C 1166.17 -5.23158 0.564968 0
M  V30 12423 O 1165.19 -5.5578 1.22869 0
M  V30 12424 N 1166.39 -5.7677 -0.657022 0
M  V30 12425 H 1169.16 -2.45893 1.71338 0
M  V30 12426 H 1166.72 -1.23976 1.04122 0
M  V30 12427 H 1168.71 -4.03834 -0.264586 0
M  V30 12428 H 1167.28 -3.05441 -0.665168 0
M  V30 12429 H 1166.5 -3.51888 1.77675 0
M  V30 12430 H 1167.79 -4.73335 1.86632 0
M  V30 12431 H 1167.19 -5.52503 -1.21478 0
M  V30 12432 H 1165.74 -6.4374 -1.02186 0
M  V30 12433 N 1169.18 -0.941978 -1.26351 0
M  V30 12434 C 1170.43 -0.585711 -1.93009 0
M  V30 12435 C 1170.74 0.879507 -1.74711 0
M  V30 12436 O 1171.95 1.34518 -2.35833 0
M  V30 12437 C 1170.4 -0.996787 -3.45821 0
M  V30 12438 C 1170.01 -2.48367 -3.72851 0
M  V30 12439 C 1171.75 -0.712452 -4.18479 0
M  V30 12440 C 1169.66 -2.83341 -5.19107 0
M  V30 12441 H 1168.59 -0.215342 -0.722595 0
M  V30 12442 H 1171.24 -1.14472 -1.43417 0
M  V30 12443 H 1169.62 -0.366295 -3.94302 0
M  V30 12444 H 1170.8 -3.16328 -3.35072 0
M  V30 12445 H 1169.11 -2.74139 -3.13427 0
M  V30 12446 H 1171.71 -0.95007 -5.26192 0
M  V30 12447 H 1172.05 0.350811 -4.14819 0
M  V30 12448 H 1172.59 -1.3027 -3.75865 0
M  V30 12449 H 1169.32 -3.88633 -5.27868 0
M  V30 12450 H 1168.84 -2.20043 -5.5798 0
M  V30 12451 H 1170.52 -2.71849 -5.87118 0
M  V30 12452 N 1170.66 1.40747 -0.709091 0
M  V30 12453 C 1171.9 2.01003 -0.24581 0
M  V30 12454 C 1172.23 1.56203 1.15891 0
M  V30 12455 O 1171.49 0.770166 1.79908 0
M  V30 12456 C 1171.78 3.56404 -0.266685 0
M  V30 12457 C 1171.45 4.20762 -1.6208 0
M  V30 12458 C 1170.11 4.38056 -1.99148 0
M  V30 12459 C 1172.46 4.56723 -2.51105 0
M  V30 12460 C 1169.79 4.88591 -3.248 0
M  V30 12461 C 1172.14 5.08654 -3.76103 0
M  V30 12462 C 1170.81 5.24158 -4.13297 0
M  V30 12463 H 1170.08 0.73552 -0.0899481 0
M  V30 12464 H 1172.73 1.68451 -0.910844 0
M  V30 12465 H 1171.03 3.88825 0.481915 0
M  V30 12466 H 1172.73 4.0085 0.109509 0
M  V30 12467 H 1169.32 4.07685 -1.32252 0
M  V30 12468 H 1173.5 4.43004 -2.23744 0
M  V30 12469 H 1168.76 4.98779 -3.53595 0
M  V30 12470 H 1172.93 5.35457 -4.45262 0
M  V30 12471 H 1170.56 5.63079 -5.10731 0
M  V30 12472 N 1172.13 0.454803 1.50895 0
M  V30 12473 C 1173.07 -0.383826 2.25963 0
M  V30 12474 C 1174.08 -0.971263 1.30653 0
M  V30 12475 O 1175.27 -0.862434 1.56283 0
M  V30 12476 C 1172.37 -1.55069 3.01342 0
M  V30 12477 C 1171.54 -1.07899 4.23883 0
M  V30 12478 C 1170.6 -2.118 4.81692 0
M  V30 12479 O 1169.63 -1.70523 5.43057 0
M  V30 12480 N 1170.83 -3.44459 4.67256 0
M  V30 12481 H 1173.59 0.259646 2.98573 0
M  V30 12482 H 1171.15 0.284661 1.59378 0
M  V30 12483 H 1173.15 -2.24236 3.36898 0
M  V30 12484 H 1171.72 -2.09917 2.31633 0
M  V30 12485 H 1170.94 -0.213773 3.9362 0
M  V30 12486 H 1172.22 -0.741501 5.03368 0
M  V30 12487 H 1171.62 -3.80716 4.18416 0
M  V30 12488 H 1170.18 -4.0947 5.07127 0
M  V30 12489 N 1173.61 -1.56489 0.186789 0
M  V30 12490 C 1174.54 -2.15911 -0.769104 0
M  V30 12491 C 1175.56 -1.11872 -1.18273 0
M  V30 12492 O 1176.75 -1.38999 -1.1199 0
M  V30 12493 C 1173.85 -2.69957 -2.04882 0
M  V30 12494 C 1173.02 -3.98812 -1.79631 0
M  V30 12495 C 1172.08 -4.37767 -2.9197 0
M  V30 12496 O 1171.1 -5.0535 -2.61935 0
M  V30 12497 N 1172.31 -4.0059 -4.20128 0
M  V30 12498 H 1175.07 -2.98561 -0.261007 0
M  V30 12499 H 1172.63 -1.61899 0.00453357 0
M  V30 12500 H 1174.62 -2.93006 -2.79158 0
M  V30 12501 H 1173.19 -1.91808 -2.46837 0
M  V30 12502 H 1172.41 -3.8398 -0.891776 0
M  V30 12503 H 1173.7 -4.82939 -1.60148 0
M  V30 12504 H 1173.1 -3.46213 -4.47385 0
M  V30 12505 H 1171.66 -4.28608 -4.91059 0
M  V30 12506 N 1175.09 0.086862 -1.5736 0
M  V30 12507 C 1176.04 1.10478 -2.02641 0
M  V30 12508 C 1177.01 1.39331 -0.904219 0
M  V30 12509 O 1178.19 1.50654 -1.17081 0
M  V30 12510 C 1175.33 2.41754 -2.4627 0
M  V30 12511 C 1174.44 2.19561 -3.72044 0
M  V30 12512 C 1173.58 3.44294 -4.04519 0
M  V30 12513 C 1172.62 3.17399 -5.23378 0
M  V30 12514 N 1171.76 4.3442 -5.51564 0
M  V30 12515 H 1176.6 0.711663 -2.89378 0
M  V30 12516 H 1174.13 0.339856 -1.4312 0
M  V30 12517 H 1176.09 3.18378 -2.69613 0
M  V30 12518 H 1174.72 2.78896 -1.62532 0
M  V30 12519 H 1173.77 1.337 -3.5613 0
M  V30 12520 H 1175.08 1.95685 -4.58812 0
M  V30 12521 H 1174.24 4.29321 -4.28682 0
M  V30 12522 H 1172.98 3.71232 -3.16289 0
M  V30 12523 H 1171.98 2.30765 -4.99026 0
M  V30 12524 H 1173.21 2.91799 -6.13213 0
M  V30 12525 H 1171.15 4.61418 -4.66293 0
M  V30 12526 H 1171.07 4.13764 -6.3272 0
M  V30 12527 H 1172.34 5.20489 -5.80269 0
M  V30 12528 N 1176.57 1.53483 0.357892 0
M  V30 12529 C 1177.98 1.43426 0.700073 0
M  V30 12530 C 1178.18 0.579493 1.92987 0
M  V30 12531 O 1177.24 0.0649086 2.52417 0
M  V30 12532 C 1178.55 2.86723 0.906099 0
M  V30 12533 C 1180.1 2.96405 1.00563 0
M  V30 12534 C 1180.58 4.4078 1.24407 0
M  V30 12535 N 1182.07 4.44243 1.3116 0
M  V30 12536 C 1182.8 5.53069 1.51333 0
M  V30 12537 N 1182.3 6.71928 1.68774 0
M  V30 12538 N 1184.09 5.40659 1.53765 0
M  V30 12539 H 1176.24 2.07559 -0.450894 0
M  V30 12540 H 1178.5 0.937649 -0.139711 0
M  V30 12541 H 1178.21 3.51622 0.0741579 0
M  V30 12542 H 1178.08 3.30827 1.81199 0
M  V30 12543 H 1180.47 2.31656 1.8281 0
M  V30 12544 H 1180.55 2.55684 0.0769512 0
M  V30 12545 H 1180.2 5.06105 0.426575 0
M  V30 12546 H 1180.13 4.7908 2.18608 0
M  V30 12547 H 1182.62 3.58587 1.19265 0
M  V30 12548 H 1182.93 7.50634 1.83762 0
M  V30 12549 H 1181.28 6.749 1.65937 0
M  V30 12550 H 1184.47 4.46764 1.39713 0
M  V30 12551 H 1184.64 6.25535 1.69146 0
M  V30 12552 N 1178.05 -0.61812 1.44973 0
M  V30 12553 C 1178.99 -1.75059 1.53157 0
M  V30 12554 C 1179.99 -1.64554 0.402282 0
M  V30 12555 O 1181.19 -1.70475 0.577767 0
M  V30 12556 H 1177.57 -0.57817 0.480856 0
M  V30 12557 H 1179.54 -1.65281 2.48445 0
M  V30 12558 C 1178.29 -3.13423 1.50538 0
M  V30 12559 H 1177.61 -3.2216 2.36755 0
M  V30 12560 H 1179.05 -3.92521 1.60323 0
M  V30 12561 C 1177.51 -3.36127 0.228127 0
M  V30 12562 O 1178.04 -3.95618 -0.696364 0
M  V30 12563 N 1176.25 -2.90322 0.127142 0
M  V30 12564 H 1175.79 -2.42091 0.880317 0
M  V30 12565 H 1175.75 -3.05887 -0.726659 0
M  V30 12566 N 1179.52 -1.32087 -0.859693 0
M  V30 12567 C 1180.75 -1.25167 -1.64368 0
M  V30 12568 C 1181.16 0.183572 -1.88307 0
M  V30 12569 O 1180.5 1.12945 -1.44876 0
M  V30 12570 C 1180.57 -1.93641 -3.02892 0
M  V30 12571 C 1180.23 -3.4298 -3.02017 0
M  V30 12572 C 1181.23 -4.38551 -2.79229 0
M  V30 12573 C 1178.91 -3.84835 -3.22812 0
M  V30 12574 C 1180.91 -5.73952 -2.77232 0
M  V30 12575 C 1178.59 -5.20346 -3.20442 0
M  V30 12576 C 1179.59 -6.14716 -2.97681 0
M  V30 12577 O 1179.28 -7.47748 -2.95175 0
M  V30 12578 H 1179.01 -0.433327 -0.518848 0
M  V30 12579 H 1181.57 -1.7468 -1.08055 0
M  V30 12580 H 1179.8 -1.3869 -3.60974 0
M  V30 12581 H 1181.48 -1.80497 -3.63559 0
M  V30 12582 H 1182.25 -4.07542 -2.62935 0
M  V30 12583 H 1178.13 -3.11806 -3.39555 0
M  V30 12584 H 1181.67 -6.47584 -2.59385 0
M  V30 12585 H 1177.57 -5.50987 -3.36279 0
M  V30 12586 H 1178.34 -7.57046 -3.11165 0
M  V30 12587 N 1181 1.07532 -1.15215 0
M  V30 12588 C 1182.25 1.80093 -0.925891 0
M  V30 12589 C 1182.58 1.86648 0.547079 0
M  V30 12590 O 1181.83 1.34492 1.42164 0
M  V30 12591 C 1182.13 3.2518 -1.483 0
M  V30 12592 C 1181.8 3.38728 -2.97614 0
M  V30 12593 C 1180.46 3.42133 -3.38376 0
M  V30 12594 C 1182.81 3.41676 -3.93583 0
M  V30 12595 C 1180.14 3.46086 -4.73752 0
M  V30 12596 C 1182.49 3.47166 -5.28828 0
M  V30 12597 C 1181.15 3.48847 -5.69089 0
M  V30 12598 H 1180.42 0.659007 -0.338808 0
M  V30 12599 H 1183.07 1.26548 -1.43728 0
M  V30 12600 H 1181.38 3.81493 -0.892751 0
M  V30 12601 H 1183.07 3.79895 -1.28376 0
M  V30 12602 H 1179.66 3.36775 -2.65105 0
M  V30 12603 H 1183.85 3.38268 -3.63165 0
M  V30 12604 H 1179.1 3.45686 -5.04293 0
M  V30 12605 H 1183.28 3.48393 -6.02989 0
M  V30 12606 H 1180.9 3.51663 -6.73971 0
M  V30 12607 N 1182.48 0.948665 1.2585 0
M  V30 12608 C 1183.41 0.408398 2.24516 0
M  V30 12609 C 1184.39 -0.506954 1.54495 0
M  V30 12610 O 1185.58 -0.442695 1.83228 0
M  V30 12611 C 1182.7 -0.41241 3.3618 0
M  V30 12612 C 1181.75 0.442483 4.24198 0
M  V30 12613 S 1182.58 1.87106 5.01749 0
M  V30 12614 C 1183.74 1.05851 6.16884 0
M  V30 12615 H 1183.97 1.24458 2.69995 0
M  V30 12616 H 1181.5 0.752309 1.34832 0
M  V30 12617 H 1183.46 -0.880064 4.00955 0
M  V30 12618 H 1182.12 -1.22335 2.89297 0
M  V30 12619 H 1181.32 -0.186767 5.03654 0
M  V30 12620 H 1180.92 0.845113 3.64327 0
M  V30 12621 H 1183.21 0.304329 6.76816 0
M  V30 12622 H 1184.15 1.82678 6.8413 0
M  V30 12623 H 1184.56 0.591269 5.61395 0
M  V30 12624 N 1183.96 -1.40369 0.716545 0
M  V30 12625 C 1185.24 -1.94737 0.183576 0
M  V30 12626 C 1185.62 -1.65464 -1.31092 0
M  V30 12627 O 1184.96 -0.972832 -2.06756 0
M  V30 12628 C 1185.17 -3.45438 0.497339 0
M  V30 12629 C 1186.52 -4.2235 0.436526 0
M  V30 12630 O 1187.55 -3.53553 0.433454 0
M  V30 12631 O 1186.4 -5.44923 0.41489 0
M  V30 12632 H 1183.5 -0.82655 0.0272785 0
M  V30 12633 H 1186.04 -1.49972 0.794143 0
M  V30 12634 H 1184.82 -3.60107 1.53097 0
M  V30 12635 H 1184.44 -3.97342 -0.143141 0
M  V30 12636 N 1185.44 -0.462799 -1.50652 0
M  V30 12637 C 1186.69 0.0966838 -2.01468 0
M  V30 12638 C 1187 1.41529 -1.35014 0
M  V30 12639 O 1188.2 2.05923 -1.76941 0
M  V30 12640 C 1186.66 0.222826 -3.5921 0
M  V30 12641 C 1186.27 -1.08686 -4.34616 0
M  V30 12642 C 1188.01 0.734711 -4.18094 0
M  V30 12643 C 1185.92 -0.924964 -5.84122 0
M  V30 12644 H 1184.85 0.0399078 -0.752943 0
M  V30 12645 H 1187.5 -0.596437 -1.73536 0
M  V30 12646 H 1185.88 0.979539 -3.83694 0
M  V30 12647 H 1187.06 -1.85388 -4.21862 0
M  V30 12648 H 1185.37 -1.52922 -3.87303 0
M  V30 12649 H 1187.97 0.872734 -5.2753 0
M  V30 12650 H 1188.31 1.72389 -3.7893 0
M  V30 12651 H 1188.84 0.0356139 -3.97784 0
M  V30 12652 H 1185.58 -1.88727 -6.27744 0
M  V30 12653 H 1185.1 -0.198181 -5.99473 0
M  V30 12654 H 1186.78 -0.588262 -6.4432 0
M  V30 12655 N 1186.91 1.56388 -0.195085 0
M  V30 12656 C 1188.14 2.02406 0.452399 0
M  V30 12657 C 1188.56 1.07432 1.54402 0
M  V30 12658 O 1187.92 0.0578246 1.81208 0
M  V30 12659 C 1187.97 3.46864 0.985778 0
M  V30 12660 O 1187.07 3.55007 2.09867 0
M  V30 12661 H 1186.42 0.65553 0.105719 0
M  V30 12662 H 1188.95 2.02299 -0.30596 0
M  V30 12663 H 1188.96 3.86655 1.30238 0
M  V30 12664 H 1187.63 4.15481 0.186662 0
M  V30 12665 H 1186.21 3.2709 1.79071 0
M  V30 12666 N 1188.39 -0.0785156 1.57404 0
M  V30 12667 C 1189.34 -1.11278 2.04255 0
M  V30 12668 C 1190.33 -1.40482 0.946633 0
M  V30 12669 O 1191.54 -1.39968 1.13177 0
M  V30 12670 H 1187.92 -0.376157 0.65116 0
M  V30 12671 H 1189.89 -0.691437 2.90279 0
M  V30 12672 C 1188.64 -2.42006 2.49656 0
M  V30 12673 H 1187.96 -2.20383 3.33574 0
M  V30 12674 H 1189.4 -3.12837 2.86197 0
M  V30 12675 C 1187.86 -3.07488 1.37669 0
M  V30 12676 O 1188.39 -3.95285 0.715036 0
M  V30 12677 N 1186.59 -2.68004 1.1235 0
M  V30 12678 H 1186.14 -1.96698 1.66336 0
M  V30 12679 H 1186.1 -3.12141 0.376238 0
M  V30 12680 N 1189.87 -1.5367 -0.349747 0
M  V30 12681 C 1191.12 -1.7087 -1.0923 0
M  V30 12682 C 1191.45 -0.467299 -1.88494 0
M  V30 12683 O 1190.72 0.535619 -1.8698 0
M  V30 12684 C 1191.01 -2.9684 -2.03858 0
M  V30 12685 C 1190.86 -4.31174 -1.28097 0
M  V30 12686 C 1192.18 -3.18459 -3.03763 0
M  V30 12687 H 1189.3 -0.621757 -0.395711 0
M  V30 12688 H 1191.94 -1.86333 -0.371481 0
M  V30 12689 H 1190.09 -2.83788 -2.65323 0
M  V30 12690 H 1191.76 -4.56066 -0.692933 0
M  V30 12691 H 1190.01 -4.29866 -0.582924 0
M  V30 12692 H 1190.68 -5.15482 -1.9744 0
M  V30 12693 H 1193.15 -3.30801 -2.52409 0
M  V30 12694 H 1192.03 -4.08006 -3.67182 0
M  V30 12695 H 1192.29 -2.34467 -3.74803 0
M  V30 12696 N 1191.35 0.610423 -1.45298 0
M  V30 12697 C 1192.28 1.73207 -1.56594 0
M  V30 12698 C 1193.26 1.64893 -0.417651 0
M  V30 12699 O 1194.44 1.83336 -0.64043 0
M  V30 12700 C 1191.57 3.11803 -1.52959 0
M  V30 12701 C 1190.53 3.34925 -2.66475 0
M  V30 12702 C 1189.85 4.73764 -2.47894 0
M  V30 12703 C 1191.15 3.25456 -4.08504 0
M  V30 12704 H 1192.85 1.6401 -2.50482 0
M  V30 12705 H 1190.39 0.787621 -1.20551 0
M  V30 12706 H 1192.35 3.90065 -1.59458 0
M  V30 12707 H 1191.07 3.21833 -0.55599 0
M  V30 12708 H 1189.73 2.59051 -2.59399 0
M  V30 12709 H 1189.38 4.80524 -1.4868 0
M  V30 12710 H 1189.08 4.90191 -3.24016 0
M  V30 12711 H 1190.6 5.54231 -2.56243 0
M  V30 12712 H 1192.02 3.93597 -4.16839 0
M  V30 12713 H 1190.41 3.53414 -4.84994 0
M  V30 12714 H 1191.48 2.22939 -4.30612 0
M  V30 12715 N 1192.83 1.32541 0.852676 0
M  V30 12716 C 1193.74 1.23646 1.99371 0
M  V30 12717 C 1194.75 0.149673 1.73355 0
M  V30 12718 O 1195.93 0.370716 1.97959 0
M  V30 12719 C 1192.99 0.961873 3.3309 0
M  V30 12720 C 1192.05 2.1373 3.72315 0
M  V30 12721 C 1191.29 1.87572 4.99652 0
M  V30 12722 O 1191.51 0.819247 5.64486 0
M  V30 12723 O 1190.44 2.73732 5.36054 0
M  V30 12724 H 1194.27 2.19573 2.09813 0
M  V30 12725 H 1191.86 1.12451 0.983627 0
M  V30 12726 H 1193.74 0.825316 4.13239 0
M  V30 12727 H 1192.41 0.0327745 3.23683 0
M  V30 12728 H 1191.32 2.32933 2.92733 0
M  V30 12729 H 1192.65 3.04925 3.86369 0
M  V30 12730 N 1194.3 -1.0692 1.15784 0
M  V30 12731 C 1195.55 -1.8002 0.946795 0
M  V30 12732 C 1195.91 -1.85232 -0.520268 0
M  V30 12733 O 1195.2 -1.32825 -1.38087 0
M  V30 12734 C 1195.39 -3.24389 1.50022 0
M  V30 12735 C 1195.22 -3.33245 3.01957 0
M  V30 12736 C 1193.99 -3.43549 3.70543 0
M  V30 12737 C 1196.19 -3.23634 3.99707 0
M  V30 12738 N 1194.17 -3.41354 5.10246 0
M  V30 12739 C 1195.54 -3.28608 5.25754 0
M  V30 12740 C 1197.6 -3.07475 3.91617 0
M  V30 12741 C 1196.3 -3.19084 6.44653 0
M  V30 12742 C 1198.33 -2.99286 5.1008 0
M  V30 12743 C 1197.69 -3.04876 6.35004 0
M  V30 12744 H 1193.79 -0.671859 0.400162 0
M  V30 12745 H 1196.37 -1.27592 1.47066 0
M  V30 12746 H 1194.54 -3.75228 1.00293 0
M  V30 12747 H 1196.27 -3.85633 1.22756 0
M  V30 12748 H 1193.03 -3.48079 3.21151 0
M  V30 12749 H 1193.45 -3.43772 5.83223 0
M  V30 12750 H 1198.1 -3.02004 2.95895 0
M  V30 12751 H 1195.81 -3.23313 7.40604 0
M  V30 12752 H 1199.4 -2.8788 5.05585 0
M  V30 12753 H 1198.28 -2.9859 7.2513 0
M  V30 12754 N 1195.78 -0.955326 -1.25345 0
M  V30 12755 C 1197.03 -0.606149 -1.92377 0
M  V30 12756 C 1197.34 0.860927 -1.75634 0
M  V30 12757 O 1198.55 1.3201 -2.37246 0
M  V30 12758 C 1197.01 -1.03341 -3.44744 0
M  V30 12759 C 1196.61 -2.52308 -3.70196 0
M  V30 12760 C 1198.36 -0.756797 -4.17699 0
M  V30 12761 C 1196.27 -2.88831 -5.16072 0
M  V30 12762 H 1195.2 -0.222994 -0.720271 0
M  V30 12763 H 1197.85 -1.15987 -1.42194 0
M  V30 12764 H 1196.23 -0.408096 -3.93892 0
M  V30 12765 H 1197.4 -3.19864 -3.31698 0
M  V30 12766 H 1195.72 -2.77448 -3.10502 0
M  V30 12767 H 1198.31 -1.00583 -5.25154 0
M  V30 12768 H 1198.66 0.306794 -4.15168 0
M  V30 12769 H 1199.19 -1.34249 -3.74462 0
M  V30 12770 H 1195.93 -3.9421 -5.23716 0
M  V30 12771 H 1195.45 -2.25948 -5.55614 0
M  V30 12772 H 1197.13 -2.78061 -5.84201 0
M  V30 12773 N 1197.26 1.39987 -0.723979 0
M  V30 12774 C 1198.51 1.99964 -0.26406 0
M  V30 12775 C 1198.82 1.58084 1.1519 0
M  V30 12776 O 1200.03 2.10819 1.71077 0
M  V30 12777 C 1198.49 3.57427 -0.421174 0
M  V30 12778 C 1198.09 4.08276 -1.84432 0
M  V30 12779 C 1199.84 4.24494 -0.0224734 0
M  V30 12780 C 1197.74 5.58272 -1.95157 0
M  V30 12781 H 1196.67 0.747995 -0.0949728 0
M  V30 12782 H 1199.33 1.60122 -0.896276 0
M  V30 12783 H 1197.71 3.95011 0.279762 0
M  V30 12784 H 1198.88 3.82051 -2.57631 0
M  V30 12785 H 1197.2 3.53834 -2.19523 0
M  V30 12786 H 1199.79 5.34637 -0.0817744 0
M  V30 12787 H 1200.14 4.03593 1.02069 0
M  V30 12788 H 1200.67 3.92046 -0.67416 0
M  V30 12789 H 1197.41 5.84038 -2.97623 0
M  V30 12790 H 1196.93 5.86335 -1.2638 0
M  V30 12791 H 1198.61 6.23509 -1.72759 0
M  V30 12792 N 1198.74 0.470782 1.50404 0
M  V30 12793 C 1199.97 -0.0818945 2.06438 0
M  V30 12794 C 1200.38 -1.34085 1.33483 0
M  V30 12795 O 1199.72 -1.79346 0.397565 0
M  V30 12796 C 1199.78 -0.436252 3.56843 0
M  V30 12797 C 1199.45 0.720641 4.51282 0
M  V30 12798 C 1200.44 1.60258 4.94584 0
M  V30 12799 C 1198.13 0.910879 4.93972 0
M  V30 12800 C 1200.12 2.65916 5.79282 0
M  V30 12801 C 1197.81 1.97069 5.78452 0
M  V30 12802 C 1198.81 2.84319 6.21008 0
M  V30 12803 O 1198.5 3.88476 7.03805 0
M  V30 12804 H 1198.23 0.00361688 0.67599 0
M  V30 12805 H 1200.78 0.658488 1.94559 0
M  V30 12806 H 1199.01 -1.22982 3.66623 0
M  V30 12807 H 1200.7 -0.923976 3.95244 0
M  V30 12808 H 1201.47 1.46729 4.62272 0
M  V30 12809 H 1197.35 0.241225 4.60368 0
M  V30 12810 H 1200.89 3.3405 6.12419 0
M  V30 12811 H 1196.79 2.10605 6.10177 0
M  V30 12812 H 1197.55 3.8546 7.22054 0
M  V30 12813 N 1200.22 -1.56282 0.203376 0
M  V30 12814 C 1201.45 -2.02198 -0.438572 0
M  V30 12815 C 1201.86 -1.08343 -1.54619 0
M  V30 12816 O 1201.22 -0.0897594 -1.82279 0
M  V30 12817 C 1201.27 -3.4776 -0.987184 0
M  V30 12818 O 1200.99 -4.38034 0.0762552 0
M  V30 12819 C 1202.49 -4.09234 -1.70419 0
M  V30 12820 H 1199.71 -0.662041 -0.109282 0
M  V30 12821 H 1202.25 -2.02067 0.314509 0
M  V30 12822 H 1200.41 -3.48564 -1.69061 0
M  V30 12823 H 1200.82 -5.2344 -0.333322 0
M  V30 12824 H 1202.3 -5.1291 -2.04027 0
M  V30 12825 H 1202.77 -3.53172 -2.61087 0
M  V30 12826 H 1203.38 -4.12226 -1.04641 0
M  V30 12827 N 1201.7 0.070167 -1.57444 0
M  V30 12828 C 1202.92 0.781894 -1.91557 0
M  V30 12829 C 1203.34 1.71037 -0.799489 0
M  V30 12830 O 1202.7 1.81082 0.227062 0
M  V30 12831 C 1202.75 1.57415 -3.25427 0
M  V30 12832 O 1202.47 0.682991 -4.32743 0
M  V30 12833 C 1203.97 2.38673 -3.73564 0
M  V30 12834 H 1201.19 0.222211 -0.633138 0
M  V30 12835 H 1203.73 0.0399504 -2.04461 0
M  V30 12836 H 1201.89 2.26835 -3.14045 0
M  V30 12837 H 1202.3 1.2342 -5.09772 0
M  V30 12838 H 1203.78 2.89716 -4.6986 0
M  V30 12839 H 1204.25 3.18269 -3.02657 0
M  V30 12840 H 1204.86 1.74405 -3.87896 0
M  V30 12841 N 1203.17 1.53854 0.341593 0
M  V30 12842 C 1204.42 1.70856 1.07948 0
M  V30 12843 C 1204.74 0.475474 1.89114 0
M  V30 12844 O 1204.01 -0.510592 1.89129 0
M  V30 12845 H 1202.59 0.629914 0.401519 0
M  V30 12846 H 1205.25 1.91112 0.382393 0
M  V30 12847 H 1204.35 2.5803 1.75575 0
M  V30 12848 N 1204.65 -0.602709 1.4562 0
M  V30 12849 C 1205.9 -1.35769 1.49163 0
M  V30 12850 C 1206.21 -1.95102 0.139485 0
M  V30 12851 O 1207.42 -2.71449 0.0525919 0
M  V30 12852 C 1205.88 -2.45959 2.62739 0
M  V30 12853 C 1205.48 -1.93017 4.04288 0
M  V30 12854 C 1207.23 -3.22926 2.75534 0
M  V30 12855 C 1205.13 -3.00718 5.09237 0
M  V30 12856 H 1204.06 -0.510317 0.555061 0
M  V30 12857 H 1206.72 -0.645434 1.71774 0
M  V30 12858 H 1205.1 -3.19892 2.3342 0
M  V30 12859 H 1206.27 -1.2576 4.43307 0
M  V30 12860 H 1204.59 -1.2878 3.95986 0
M  V30 12861 H 1207.18 -4.03267 3.51112 0
M  V30 12862 H 1207.53 -3.74243 1.82339 0
M  V30 12863 H 1208.06 -2.56095 3.04402 0
M  V30 12864 H 1204.8 -2.54312 6.04157 0
M  V30 12865 H 1204.32 -3.66526 4.74783 0
M  V30 12866 H 1206 -3.65016 5.34202 0
M  V30 12867 N 1206.13 -1.32992 -0.845635 0
M  V30 12868 C 1207.38 -1.23415 -1.59536 0
M  V30 12869 C 1207.69 0.200278 -1.94572 0
M  V30 12870 O 1208.9 0.417993 -2.68263 0
M  V30 12871 C 1207.35 -2.16207 -2.8772 0
M  V30 12872 C 1206.96 -3.64782 -2.60073 0
M  V30 12873 C 1208.71 -2.15488 -3.65739 0
M  V30 12874 C 1206.61 -4.49508 -3.84313 0
M  V30 12875 H 1205.54 -0.458366 -0.598679 0
M  V30 12876 H 1208.19 -1.58012 -0.932981 0
M  V30 12877 H 1206.58 -1.74535 -3.55462 0
M  V30 12878 H 1207.75 -4.14852 -2.00585 0
M  V30 12879 H 1206.06 -3.67723 -1.95369 0
M  V30 12880 H 1208.66 -2.76021 -4.57948 0
M  V30 12881 H 1209 -1.14818 -4.00153 0
M  V30 12882 H 1209.54 -2.55487 -3.04912 0
M  V30 12883 H 1206.28 -5.51027 -3.55035 0
M  V30 12884 H 1205.8 -4.04185 -4.43165 0
M  V30 12885 H 1207.48 -4.62969 -4.51961 0
M  V30 12886 N 1207.61 1.06304 -1.1635 0
M  V30 12887 C 1208.85 1.79101 -0.94494 0
M  V30 12888 C 1209.18 1.87217 0.527251 0
M  V30 12889 O 1208.44 1.35992 1.40729 0
M  V30 12890 C 1208.74 3.23589 -1.51741 0
M  V30 12891 C 1208.4 3.35552 -3.0119 0
M  V30 12892 C 1207.06 3.38525 -3.41986 0
M  V30 12893 C 1209.42 3.37482 -3.97184 0
M  V30 12894 C 1206.74 3.41042 -4.77396 0
M  V30 12895 C 1209.1 3.41537 -5.3248 0
M  V30 12896 C 1207.76 3.42792 -5.72757 0
M  V30 12897 H 1207.03 0.655377 -0.345778 0
M  V30 12898 H 1209.68 1.25017 -1.45062 0
M  V30 12899 H 1207.98 3.80525 -0.933164 0
M  V30 12900 H 1209.68 3.78512 -1.32399 0
M  V30 12901 H 1206.27 3.33944 -2.68662 0
M  V30 12902 H 1210.45 3.34397 -3.66732 0
M  V30 12903 H 1205.71 3.40317 -5.07931 0
M  V30 12904 H 1209.88 3.41977 -6.0665 0
M  V30 12905 H 1207.51 3.44495 -6.77663 0
M  V30 12906 N 1209.09 0.96196 1.24836 0
M  V30 12907 C 1210.33 0.621634 1.93038 0
M  V30 12908 C 1210.66 -0.840257 1.75081 0
M  V30 12909 O 1209.94 -1.60381 1.10038 0
M  V30 12910 C 1210.22 0.990107 3.46221 0
M  V30 12911 C 1210.08 2.50827 3.73371 0
M  V30 12912 C 1211.39 0.520478 4.37011 0
M  V30 12913 H 1208.51 0.227312 0.701069 0
M  V30 12914 H 1211.16 1.19993 1.47315 0
M  V30 12915 H 1209.31 0.498008 3.85295 0
M  V30 12916 H 1210.98 3.07469 3.4389 0
M  V30 12917 H 1209.22 2.94277 3.18722 0
M  V30 12918 H 1209.89 2.71659 4.80526 0
M  V30 12919 H 1212.37 0.942703 4.05281 0
M  V30 12920 H 1211.24 0.806918 5.42937 0
M  V30 12921 H 1211.5 -0.579507 4.38285 0
M  V30 12922 N 1210.56 -1.39601 0.731392 0
M  V30 12923 C 1211.49 -2.33268 0.1041 0
M  V30 12924 C 1212.47 -1.53724 -0.728219 0
M  V30 12925 O 1213.66 -1.82131 -0.673933 0
M  V30 12926 C 1210.79 -3.37802 -0.806646 0
M  V30 12927 C 1209.74 -4.27928 -0.0787588 0
M  V30 12928 C 1209.07 -5.23131 -1.10628 0
M  V30 12929 C 1210.37 -5.11086 1.07651 0
M  V30 12930 H 1212.06 -2.85975 0.886496 0
M  V30 12931 H 1209.61 -1.375 0.427746 0
M  V30 12932 H 1211.56 -4.02278 -1.25499 0
M  V30 12933 H 1210.29 -2.83527 -1.62112 0
M  V30 12934 H 1208.95 -3.64926 0.349926 0
M  V30 12935 H 1208.59 -4.65152 -1.91422 0
M  V30 12936 H 1208.29 -5.84277 -0.624043 0
M  V30 12937 H 1209.82 -5.90483 -1.5544 0
M  V30 12938 H 1211.23 -5.68927 0.706781 0
M  V30 12939 H 1209.63 -5.81356 1.48814 0
M  V30 12940 H 1210.7 -4.46131 1.89988 0
M  V30 12941 N 1212.04 -0.478751 -1.50152 0
M  V30 12942 C 1213.45 -0.0254907 -1.86683 0
M  V30 12943 C 1213.8 1.38171 -1.39295 0
M  V30 12944 O 1212.93 2.0257 -0.761207 0
M  V30 12945 C 1213.52 -0.0394819 -3.38777 0
M  V30 12946 C 1212.08 0.35834 -3.7469 0
M  V30 12947 C 1211.23 -0.421667 -2.74075 0
M  V30 12948 H 1214.18 -0.692653 -1.42787 0
M  V30 12949 H 1214.2 0.760957 -3.72813 0
M  V30 12950 H 1213.71 -1.06378 -3.73236 0
M  V30 12951 H 1211.82 1.38671 -3.45834 0
M  V30 12952 H 1211.93 0.0543589 -4.79069 0
M  V30 12953 H 1210.29 0.125634 -2.5439 0
M  V30 12954 H 1211.08 -1.44562 -3.11379 0
M  V30 12955 N 1213.52 1.56172 -0.211661 0
M  V30 12956 C 1214.45 2.22843 0.697375 0
M  V30 12957 C 1215.43 1.19689 1.20866 0
M  V30 12958 O 1216.62 1.48245 1.25447 0
M  V30 12959 C 1213.75 2.90067 1.90993 0
M  V30 12960 C 1212.7 3.99608 1.5329 0
M  V30 12961 C 1212.03 4.54078 2.82343 0
M  V30 12962 C 1213.33 5.17169 0.730333 0
M  V30 12963 H 1215.02 2.99065 0.141533 0
M  V30 12964 H 1212.57 1.43846 0.0666337 0
M  V30 12965 H 1214.52 3.35396 2.55123 0
M  V30 12966 H 1213.24 2.11276 2.49058 0
M  V30 12967 H 1211.9 3.54995 0.915115 0
M  V30 12968 H 1211.55 3.72029 3.38531 0
M  V30 12969 H 1211.25 5.28001 2.57853 0
M  V30 12970 H 1212.77 5.02119 3.47432 0
M  V30 12971 H 1214.19 5.5894 1.2751 0
M  V30 12972 H 1212.59 5.97262 0.582916 0
M  V30 12973 H 1213.66 4.84174 -0.265157 0
M  V30 12974 N 1215 -0.0618163 1.57479 0
M  V30 12975 C 1216.25 -0.759069 1.87735 0
M  V30 12976 C 1216.57 -1.77071 0.804732 0
M  V30 12977 O 1215.83 -1.94694 -0.198173 0
M  V30 12978 C 1216.13 -1.4939 3.2468 0
M  V30 12979 C 1215.79 -0.621312 4.46599 0
M  V30 12980 C 1214.46 -0.380873 4.7969 0
M  V30 12981 C 1216.81 -0.0168537 5.21197 0
M  V30 12982 C 1214.14 0.473341 5.84787 0
M  V30 12983 C 1216.49 0.824872 6.27199 0
M  V30 12984 C 1215.15 1.07509 6.58785 0
M  V30 12985 H 1214.42 -0.277763 0.686971 0
M  V30 12986 H 1217.07 -0.0195971 1.9149 0
M  V30 12987 H 1215.37 -2.30584 3.16762 0
M  V30 12988 H 1217.07 -2.03837 3.45328 0
M  V30 12989 H 1213.66 -0.818848 4.20705 0
M  V30 12990 H 1217.84 -0.189707 4.95937 0
M  V30 12991 H 1213.1 0.675842 6.07653 0
M  V30 12992 H 1217.27 1.29993 6.8416 0
M  V30 12993 H 1214.9 1.73876 7.40048 0
M  V30 12994 N 1216.48 -1.54033 -0.333429 0
M  V30 12995 C 1217.72 -1.72019 -1.07411 0
M  V30 12996 C 1218.06 -0.487265 -1.87988 0
M  V30 12997 O 1217.33 0.515757 -1.87537 0
M  V30 12998 C 1217.61 -2.98986 -2.00698 0
M  V30 12999 C 1217.47 -4.32509 -1.23517 0
M  V30 13000 C 1218.79 -3.21663 -3.00368 0
M  V30 13001 H 1215.9 -0.625919 -0.389094 0
M  V30 13002 H 1218.55 -1.86717 -0.351697 0
M  V30 13003 H 1216.7 -2.86586 -2.62298 0
M  V30 13004 H 1218.37 -4.56775 -0.644522 0
M  V30 13005 H 1216.61 -4.3046 -0.537298 0
M  V30 13006 H 1217.28 -5.17547 -1.91962 0
M  V30 13007 H 1219.76 -3.33459 -2.48886 0
M  V30 13008 H 1218.63 -4.11877 -3.62834 0
M  V30 13009 H 1218.9 -2.3843 -3.72295 0
M  V30 13010 N 1217.95 0.594978 -1.45938 0
M  V30 13011 C 1218.86 1.73296 -1.58132 0
M  V30 13012 C 1219.88 1.67665 -0.465245 0
M  V30 13013 O 1221.06 1.87794 -0.727684 0
M  V30 13014 C 1218.12 3.09783 -1.55677 0
M  V30 13015 C 1217.18 3.26772 -2.78422 0
M  V30 13016 C 1216.42 4.56748 -2.76075 0
M  V30 13017 O 1216.64 5.39867 -1.84119 0
M  V30 13018 O 1215.57 4.76721 -3.67452 0
M  V30 13019 H 1219.4 1.65957 -2.54346 0
M  V30 13020 H 1216.98 0.760572 -1.28591 0
M  V30 13021 H 1218.87 3.91077 -1.56961 0
M  V30 13022 H 1217.54 3.17585 -0.626191 0
M  V30 13023 H 1216.45 2.45018 -2.82696 0
M  V30 13024 H 1217.78 3.23853 -3.70648 0
M  V30 13025 N 1219.43 1.33438 0.838571 0
M  V30 13026 C 1220.68 1.24259 1.58879 0
M  V30 13027 C 1220.99 -0.189957 1.94675 0
M  V30 13028 O 1222.2 -0.40376 2.68481 0
M  V30 13029 C 1220.66 2.1773 2.86569 0
M  V30 13030 C 1220.26 3.66156 2.58135 0
M  V30 13031 C 1222.01 2.17424 3.64591 0
M  V30 13032 C 1219.92 4.5154 3.81923 0
M  V30 13033 H 1218.85 0.461534 0.59624 0
M  V30 13034 H 1221.5 1.58504 0.924588 0
M  V30 13035 H 1219.88 1.76418 3.54532 0
M  V30 13036 H 1221.05 4.1591 1.98382 0
M  V30 13037 H 1219.37 3.68754 1.93416 0
M  V30 13038 H 1221.96 2.78446 4.56478 0
M  V30 13039 H 1222.31 1.16939 3.99539 0
M  V30 13040 H 1222.84 2.571 3.03553 0
M  V30 13041 H 1219.58 5.52902 3.52107 0
M  V30 13042 H 1219.1 4.06529 4.41015 0
M  V30 13043 H 1220.78 4.65359 4.495 0
M  V30 13044 N 1220.91 -1.05686 1.16912 0
M  V30 13045 C 1222.32 -1.60059 0.961153 0
M  V30 13046 C 1222.67 -1.89894 -0.493409 0
M  V30 13047 O 1221.8 -1.67692 -1.36778 0
M  V30 13048 C 1222.39 -2.90803 1.73837 0
M  V30 13049 C 1220.95 -3.41854 1.57522 0
M  V30 13050 C 1220.1 -2.15658 1.74319 0
M  V30 13051 H 1223.05 -0.885592 1.31693 0
M  V30 13052 H 1223.07 -3.60485 1.21781 0
M  V30 13053 H 1222.58 -2.69056 2.79697 0
M  V30 13054 H 1220.68 -3.68647 0.541284 0
M  V30 13055 H 1220.8 -4.16771 2.36302 0
M  V30 13056 H 1219.16 -2.26177 1.17115 0
M  V30 13057 H 1219.94 -1.96386 2.8158 0
M  V30 13058 N 1222.39 -0.968567 -1.24324 0
M  V30 13059 C 1223.35 -0.504307 -2.23583 0
M  V30 13060 C 1224.35 0.399626 -1.55755 0
M  V30 13061 O 1225.54 0.194966 -1.73106 0
M  V30 13062 C 1222.67 0.26956 -3.39833 0
M  V30 13063 H 1223.87 -1.3818 -2.6617 0
M  V30 13064 H 1221.42 -0.753241 -1.36952 0
M  V30 13065 H 1222.15 1.16411 -3.02686 0
M  V30 13066 H 1221.94 -0.379133 -3.90263 0
M  V30 13067 H 1223.43 0.583376 -4.13505 0
M  V30 13068 N 1223.87 1.39211 -0.738786 0
M  V30 13069 C 1224.82 2.27869 -0.0772787 0
M  V30 13070 C 1225.8 1.44452 0.708683 0
M  V30 13071 O 1226.99 1.67329 0.57707 0
M  V30 13072 C 1224.12 3.33206 0.826364 0
M  V30 13073 C 1223.21 4.24086 0.034349 0
M  V30 13074 N 1223.6 4.95928 -0.99446 0
M  V30 13075 C 1221.9 4.45221 0.26343 0
M  V30 13076 C 1222.6 5.62757 -1.47238 0
M  V30 13077 N 1221.57 5.37824 -0.790305 0
M  V30 13078 H 1225.38 2.80869 -0.865447 0
M  V30 13079 H 1222.89 1.51938 -0.573462 0
M  V30 13080 H 1224.89 3.95592 1.31578 0
M  V30 13081 H 1223.55 2.81765 1.61365 0
M  V30 13082 H 1224.56 4.99289 -1.37591 0
M  V30 13083 H 1221.23 4.04717 1.02522 0
M  V30 13084 H 1222.62 6.30261 -2.32853 0
M  V30 13085 N 1225.34 0.486708 1.49896 0
M  V30 13086 C 1226.27 -0.288898 2.31706 0
M  V30 13087 C 1227.26 -0.975901 1.3932 0
M  V30 13088 O 1228.44 -0.970065 1.68236 0
M  V30 13089 C 1225.57 -1.36218 3.19471 0
M  V30 13090 C 1224.52 -0.795884 4.20535 0
M  V30 13091 C 1223.85 -1.96862 4.97141 0
M  V30 13092 C 1225.15 0.203421 5.21904 0
M  V30 13093 H 1226.84 0.393934 2.96797 0
M  V30 13094 H 1224.39 0.190894 1.42729 0
M  V30 13095 H 1226.34 -1.91238 3.75508 0
M  V30 13096 H 1225.07 -2.074 2.52295 0
M  V30 13097 H 1223.73 -0.267538 3.65622 0
M  V30 13098 H 1223.37 -2.66779 4.26425 0
M  V30 13099 H 1223.07 -1.59585 5.65514 0
M  V30 13100 H 1224.6 -2.52343 5.56017 0
M  V30 13101 H 1226.01 -0.258144 5.72719 0
M  V30 13102 H 1224.41 0.491273 5.98086 0
M  V30 13103 H 1225.48 1.12414 4.7169 0
M  V30 13104 N 1226.82 -1.56058 0.219941 0
M  V30 13105 C 1227.76 -2.17494 -0.723133 0
M  V30 13106 C 1228.77 -1.14356 -1.15873 0
M  V30 13107 O 1229.96 -1.41343 -1.09016 0
M  V30 13108 C 1227.06 -2.74242 -1.99109 0
M  V30 13109 C 1226.23 -4.02533 -1.71132 0
M  V30 13110 C 1225.29 -4.43862 -2.82618 0
M  V30 13111 O 1224.32 -5.10792 -2.51157 0
M  V30 13112 N 1225.52 -4.09412 -4.11537 0
M  V30 13113 H 1228.28 -2.99048 -0.197619 0
M  V30 13114 H 1225.84 -1.61853 0.0388738 0
M  V30 13115 H 1227.84 -2.98862 -2.7288 0
M  V30 13116 H 1226.41 -1.97 -2.42713 0
M  V30 13117 H 1225.63 -3.85786 -0.810128 0
M  V30 13118 H 1226.91 -4.86227 -1.49868 0
M  V30 13119 H 1226.31 -3.55624 -4.39941 0
M  V30 13120 H 1224.87 -4.38928 -4.81857 0
M  V30 13121 N 1228.3 0.053464 -1.57509 0
M  V30 13122 C 1229.55 0.744867 -1.8927 0
M  V30 13123 C 1229.9 1.74249 -0.815791 0
M  V30 13124 O 1229.2 1.9077 0.178187 0
M  V30 13125 C 1229.39 1.47666 -3.25468 0
M  V30 13126 C 1229.22 0.551427 -4.46306 0
M  V30 13127 C 1227.99 0.181517 -5.04974 0
M  V30 13128 C 1230.19 -0.159765 -5.14052 0
M  V30 13129 N 1228.17 -0.747526 -6.09332 0
M  V30 13130 C 1229.54 -0.94533 -6.12751 0
M  V30 13131 C 1231.59 -0.2293 -4.97372 0
M  V30 13132 C 1230.3 -1.794 -6.96569 0
M  V30 13133 C 1232.32 -1.065 -5.81732 0
M  V30 13134 C 1231.69 -1.83856 -6.79983 0
M  V30 13135 H 1227.78 0.247424 -0.741826 0
M  V30 13136 H 1230.37 0.00570542 -1.94699 0
M  V30 13137 H 1228.54 2.18643 -3.21014 0
M  V30 13138 H 1230.27 2.11852 -3.4482 0
M  V30 13139 H 1227.03 0.538408 -4.7053 0
M  V30 13140 H 1227.45 -1.20583 -6.66175 0
M  V30 13141 H 1232.09 0.354441 -4.21312 0
M  V30 13142 H 1229.81 -2.38864 -7.71991 0
M  V30 13143 H 1233.4 -1.12202 -5.70878 0
M  V30 13144 H 1232.28 -2.47479 -7.44126 0
M  V30 13145 N 1229.78 1.54207 0.325255 0
M  V30 13146 C 1230.71 1.79812 1.42128 0
M  V30 13147 C 1231.72 0.68003 1.47917 0
M  V30 13148 O 1232.91 0.957107 1.50671 0
M  V30 13149 C 1230.01 1.89935 2.80674 0
M  V30 13150 C 1229.19 3.20078 2.98108 0
M  V30 13151 C 1228.25 3.20924 4.17006 0
M  V30 13152 O 1227.27 3.94571 4.10247 0
M  V30 13153 N 1228.47 2.44588 5.26457 0
M  V30 13154 H 1231.24 2.74396 1.20527 0
M  V30 13155 H 1228.8 1.53483 0.515233 0
M  V30 13156 H 1230.79 1.8793 3.58419 0
M  V30 13157 H 1229.36 1.02455 2.95333 0
M  V30 13158 H 1228.58 3.35057 2.07679 0
M  V30 13159 H 1229.87 4.06008 3.06651 0
M  V30 13160 H 1229.27 1.8434 5.34823 0
M  V30 13161 H 1227.82 2.48363 6.02627 0
M  V30 13162 N 1231.26 -0.58723 1.46251 0
M  V30 13163 C 1232.5 -1.3567 1.52882 0
M  V30 13164 C 1232.86 -1.91206 0.174438 0
M  V30 13165 O 1234.06 -2.68552 0.115491 0
M  V30 13166 C 1232.33 -2.45914 2.59347 0
M  V30 13167 S 1233.89 -3.33347 2.85351 0
M  V30 13168 H 1230.71 -0.462276 0.540205 0
M  V30 13169 H 1233.31 -0.675537 1.83458 0
M  V30 13170 H 1232.02 -2.03498 3.56394 0
M  V30 13171 H 1231.55 -3.18807 2.30489 0
M  V30 13172 H 1233.56 -4.44626 2.20278 0
M  V30 13173 N 1232.74 -1.33881 -0.831482 0
M  V30 13174 C 1233.98 -1.25507 -1.58406 0
M  V30 13175 C 1234.3 0.177137 -1.94194 0
M  V30 13176 O 1233.57 1.10769 -1.61576 0
M  V30 13177 H 1232.15 -0.461551 -0.587349 0
M  V30 13178 H 1234.82 -1.6769 -0.99328 0
M  V30 13179 H 1233.91 -1.85391 -2.51071 0
M  V30 13180 N 1234.21 1.05064 -1.1747 0
M  V30 13181 C 1235.18 2.1101 -0.89485 0
M  V30 13182 C 1236.18 1.60384 0.11553 0
M  V30 13183 O 1237.37 1.73808 -0.116785 0
M  V30 13184 C 1234.5 3.39194 -0.340642 0
M  V30 13185 H 1235.69 2.37269 -1.83421 0
M  V30 13186 H 1233.24 1.21329 -0.985343 0
M  V30 13187 H 1233.98 3.18591 0.605808 0
M  V30 13188 H 1233.76 3.77251 -1.06885 0
M  V30 13189 H 1235.25 4.17281 -0.163204 0
M  V30 13190 N 1235.69 0.975146 1.23809 0
M  V30 13191 C 1236.94 0.636678 1.91388 0
M  V30 13192 C 1237.25 -0.832876 1.76982 0
M  V30 13193 O 1238.46 -1.28218 2.39316 0
M  V30 13194 C 1236.92 1.08813 3.43057 0
M  V30 13195 C 1236.52 2.58165 3.66135 0
M  V30 13196 C 1238.27 0.823154 4.16443 0
M  V30 13197 C 1236.17 2.97004 5.11412 0
M  V30 13198 H 1235.1 0.234424 0.716632 0
M  V30 13199 H 1237.76 1.18235 1.40331 0
M  V30 13200 H 1236.14 0.470709 3.93192 0
M  V30 13201 H 1237.31 3.25101 3.26567 0
M  V30 13202 H 1235.63 2.82353 3.06049 0
M  V30 13203 H 1238.22 1.08925 5.23488 0
M  V30 13204 H 1238.57 -0.240705 4.15604 0
M  V30 13205 H 1239.1 1.4019 3.72279 0
M  V30 13206 H 1235.84 4.02492 5.17378 0
M  V30 13207 H 1235.36 2.34759 5.51949 0
M  V30 13208 H 1237.04 2.8732 5.79704 0
M  V30 13209 N 1237.17 -1.38817 0.746158 0
M  V30 13210 C 1238.13 -2.28876 0.121886 0
M  V30 13211 C 1239.13 -1.46838 -0.655379 0
M  V30 13212 O 1240.32 -1.67377 -0.482744 0
M  V30 13213 C 1237.45 -3.30487 -0.836118 0
M  V30 13214 H 1238.65 -2.85586 0.915453 0
M  V30 13215 H 1236.2 -1.47652 0.512691 0
M  V30 13216 H 1236.94 -2.78853 -1.65563 0
M  V30 13217 H 1236.72 -3.9109 -0.281271 0
M  V30 13218 H 1238.21 -3.97848 -1.26914 0
M  V30 13219 N 1238.65 -0.49465 -1.49636 0
M  V30 13220 C 1239.89 0.0521945 -2.02733 0
M  V30 13221 C 1240.23 1.3723 -1.37411 0
M  V30 13222 O 1239.5 1.87758 -0.507642 0
M  V30 13223 C 1239.78 0.2114 -3.59479 0
M  V30 13224 C 1239.64 -1.13138 -4.35339 0
M  V30 13225 C 1240.96 0.955015 -4.29613 0
M  V30 13226 H 1238.08 0.0174946 -0.736792 0
M  V30 13227 H 1240.72 -0.644827 -1.78723 0
M  V30 13228 H 1238.87 0.805078 -3.80067 0
M  V30 13229 H 1240.54 -1.76345 -4.26263 0
M  V30 13230 H 1238.78 -1.72224 -3.98147 0
M  V30 13231 H 1239.45 -0.97336 -5.4335 0
M  V30 13232 H 1241.93 0.451575 -4.13642 0
M  V30 13233 H 1240.81 1.03524 -5.39049 0
M  V30 13234 H 1241.07 1.99724 -3.94414 0
M  V30 13235 N 1240.13 1.55939 -0.228214 0
M  V30 13236 C 1241.36 2.02576 0.405759 0
M  V30 13237 C 1241.76 1.10718 1.53422 0
M  V30 13238 O 1241.11 0.110361 1.83368 0
M  V30 13239 C 1241.17 3.45531 0.992405 0
M  V30 13240 C 1240.83 4.57 -0.00144674 0
M  V30 13241 C 1241.83 5.13642 -0.804248 0
M  V30 13242 C 1239.51 5.02152 -0.12213 0
M  V30 13243 C 1241.51 6.13912 -1.71437 0
M  V30 13244 C 1239.2 6.02258 -1.03578 0
M  V30 13245 C 1240.19 6.58015 -1.83044 0
M  V30 13246 O 1239.88 7.56172 -2.72872 0
M  V30 13247 H 1239.61 0.668136 0.102813 0
M  V30 13248 H 1242.17 2.02497 -0.344092 0
M  V30 13249 H 1240.4 3.427 1.79147 0
M  V30 13250 H 1242.09 3.75777 1.53448 0
M  V30 13251 H 1242.85 4.79603 -0.721497 0
M  V30 13252 H 1238.73 4.58428 0.486294 0
M  V30 13253 H 1242.28 6.57359 -2.33506 0
M  V30 13254 H 1238.17 6.35718 -1.11952 0
M  V30 13255 H 1238.94 7.73719 -2.67022 0
M  V30 13256 N 1241.6 -0.0451101 1.57535 0
M  V30 13257 C 1242.85 -0.739114 1.88529 0
M  V30 13258 C 1243.18 -1.76208 0.823468 0
M  V30 13259 O 1242.43 -1.94893 -0.177512 0
M  V30 13260 C 1242.73 -1.45938 3.26247 0
M  V30 13261 C 1242.4 -0.57391 4.47233 0
M  V30 13262 C 1241.06 -0.329974 4.80067 0
M  V30 13263 C 1243.41 0.0384272 5.21186 0
M  V30 13264 C 1240.74 0.535339 5.84253 0
M  V30 13265 C 1243.09 0.891349 6.26289 0
M  V30 13266 C 1241.76 1.1449 6.57608 0
M  V30 13267 H 1241.03 -0.270461 0.689878 0
M  V30 13268 H 1243.67 0.000714103 1.915 0
M  V30 13269 H 1241.98 -2.27212 3.1919 0
M  V30 13270 H 1243.68 -2.00162 3.47471 0
M  V30 13271 H 1240.27 -0.774181 4.2155 0
M  V30 13272 H 1244.45 -0.137096 4.96111 0
M  V30 13273 H 1239.71 0.740253 6.06902 0
M  V30 13274 H 1243.88 1.37243 6.82743 0
M  V30 13275 H 1241.51 1.81715 7.38162 0
M  V30 13276 N 1243.08 -1.54377 -0.317073 0
M  V30 13277 C 1244.31 -1.76608 -1.07206 0
M  V30 13278 C 1244.72 -0.517818 -1.81976 0
M  V30 13279 O 1244.06 0.521375 -1.76146 0
M  V30 13280 C 1244.13 -2.91 -2.11091 0
M  V30 13281 C 1243.79 -4.29673 -1.55661 0
M  V30 13282 C 1244.79 -5.1029 -0.994999 0
M  V30 13283 C 1242.47 -4.76234 -1.59708 0
M  V30 13284 C 1244.47 -6.35581 -0.48123 0
M  V30 13285 C 1242.15 -6.01491 -1.07944 0
M  V30 13286 C 1243.15 -6.80999 -0.522467 0
M  V30 13287 O 1242.84 -8.03899 -0.0126274 0
M  V30 13288 H 1242.57 -0.593061 -0.32443 0
M  V30 13289 H 1245.12 -2.02097 -0.366859 0
M  V30 13290 H 1243.35 -2.61097 -2.85246 0
M  V30 13291 H 1245.04 -3.00954 -2.72363 0
M  V30 13292 H 1245.81 -4.7547 -0.956752 0
M  V30 13293 H 1241.69 -4.14387 -2.02 0
M  V30 13294 H 1245.23 -6.97585 -0.0458374 0
M  V30 13295 H 1241.13 -6.35801 -1.11478 0
M  V30 13296 H 1241.9 -8.18401 -0.127442 0
M  V30 13297 N 1244.56 0.579466 -1.4656 0
M  V30 13298 C 1245.81 1.33738 -1.5325 0
M  V30 13299 C 1246.16 1.91527 -0.183045 0
M  V30 13300 O 1245.45 1.73698 0.80867 0
M  V30 13301 C 1245.65 2.48417 -2.56951 0
M  V30 13302 C 1245.48 2.01862 -4.01848 0
M  V30 13303 C 1244.25 1.86729 -4.69532 0
M  V30 13304 C 1246.45 1.57633 -4.89547 0
M  V30 13305 N 1244.43 1.34279 -5.99034 0
M  V30 13306 C 1245.8 1.16797 -6.08899 0
M  V30 13307 C 1247.85 1.45481 -4.76172 0
M  V30 13308 C 1246.56 0.650182 -7.16355 0
M  V30 13309 C 1248.58 0.951049 -5.83703 0
M  V30 13310 C 1247.94 0.552488 -7.0223 0
M  V30 13311 H 1244.04 0.482241 -0.615603 0
M  V30 13312 H 1246.63 0.659411 -1.83193 0
M  V30 13313 H 1244.8 3.13773 -2.28912 0
M  V30 13314 H 1246.53 3.15374 -2.53616 0
M  V30 13315 H 1243.29 2.08773 -4.25101 0
M  V30 13316 H 1243.71 1.10207 -6.6797 0
M  V30 13317 H 1248.35 1.74912 -3.84923 0
M  V30 13318 H 1246.07 0.343456 -8.0737 0
M  V30 13319 H 1249.66 0.860884 -5.75396 0
M  V30 13320 H 1248.54 0.168703 -7.84019 0
M  V30 13321 N 1246.04 1.3432 0.824371 0
M  V30 13322 C 1246.97 1.2012 1.94027 0
M  V30 13323 C 1247.95 0.0931808 1.62333 0
M  V30 13324 O 1249.13 0.258069 1.86725 0
M  V30 13325 C 1246.26 0.845628 3.27974 0
M  V30 13326 C 1245.31 1.9632 3.7863 0
M  V30 13327 S 1246.14 3.57642 3.98563 0
M  V30 13328 C 1247.3 3.24124 5.35439 0
M  V30 13329 H 1247.53 2.14579 2.05775 0
M  V30 13330 H 1245.06 1.1933 0.979783 0
M  V30 13331 H 1247.02 0.647266 4.05365 0
M  V30 13332 H 1245.68 -0.0805948 3.13997 0
M  V30 13333 H 1244.87 1.66812 4.75594 0
M  V30 13334 H 1244.48 2.11897 3.08181 0
M  V30 13335 H 1246.77 2.75848 6.188 0
M  V30 13336 H 1247.71 4.20222 5.69929 0
M  V30 13337 H 1248.12 2.60343 5.00881 0
M  V30 13338 N 1247.52 -1.0444 1.18026 0
M  V30 13339 C 1248.46 -2.14474 0.900202 0
M  V30 13340 C 1249.46 -1.68836 -0.138086 0
M  V30 13341 O 1250.66 -1.79997 0.00971011 0
M  V30 13342 H 1247.04 -0.700457 0.273613 0
M  V30 13343 H 1249.01 -2.35295 1.83518 0
M  V30 13344 C 1247.76 -3.44926 0.438305 0
M  V30 13345 H 1247.08 -3.8045 1.22874 0
M  V30 13346 H 1248.52 -4.23066 0.281306 0
M  V30 13347 C 1246.98 -3.26124 -0.845268 0
M  V30 13348 O 1247.51 -3.53368 -1.91034 0
M  V30 13349 N 1245.72 -2.79474 -0.7964 0
M  V30 13350 H 1245.26 -2.57503 0.0705595 0
M  V30 13351 H 1245.22 -2.67274 -1.65566 0
M  V30 13352 N 1248.99 -0.981699 -1.2329 0
M  V30 13353 C 1250.24 -0.651302 -1.9174 0
M  V30 13354 C 1250.57 0.815318 -1.76587 0
M  V30 13355 O 1249.82 1.60377 -1.1215 0
M  V30 13356 C 1250.12 -0.989244 -3.43437 0
M  V30 13357 C 1249.79 -2.44629 -3.78771 0
M  V30 13358 C 1248.45 -2.84449 -3.88127 0
M  V30 13359 C 1250.8 -3.39123 -3.95784 0
M  V30 13360 C 1248.13 -4.17775 -4.11923 0
M  V30 13361 C 1250.48 -4.72095 -4.21081 0
M  V30 13362 C 1249.15 -5.11672 -4.28659 0
M  V30 13363 H 1248.42 -0.238328 -0.701627 0
M  V30 13364 H 1251.06 -1.2358 -1.46288 0
M  V30 13365 H 1249.37 -0.322677 -3.90469 0
M  V30 13366 H 1251.07 -0.711796 -3.94632 0
M  V30 13367 H 1247.66 -2.12759 -3.72064 0
M  V30 13368 H 1251.84 -3.09536 -3.87945 0
M  V30 13369 H 1247.1 -4.48043 -4.16013 0
M  V30 13370 H 1251.27 -5.45271 -4.33189 0
M  V30 13371 H 1248.9 -6.15003 -4.46851 0
M  V30 13372 N 1250.47 1.3842 -0.753509 0
M  V30 13373 C 1251.4 2.33073 -0.141198 0
M  V30 13374 C 1252.38 1.54863 0.70367 0
M  V30 13375 O 1253.57 1.8318 0.644872 0
M  V30 13376 C 1250.7 3.39043 0.752802 0
M  V30 13377 C 1249.65 4.27999 0.0106692 0
M  V30 13378 C 1248.98 5.24824 1.02291 0
M  V30 13379 C 1250.28 5.09308 -1.15768 0
M  V30 13380 H 1251.97 2.84528 -0.93188 0
M  V30 13381 H 1249.52 1.36802 -0.449567 0
M  V30 13382 H 1251.47 4.04224 1.19083 0
M  V30 13383 H 1250.2 2.8607 1.57581 0
M  V30 13384 H 1248.85 3.64323 -0.407939 0
M  V30 13385 H 1248.5 4.68139 1.83998 0
M  V30 13386 H 1248.2 5.85196 0.53101 0
M  V30 13387 H 1249.73 5.92882 1.46026 0
M  V30 13388 H 1251.14 5.6773 -0.797203 0
M  V30 13389 H 1249.54 5.78914 -1.58044 0
M  V30 13390 H 1250.61 4.43051 -1.97062 0
M  V30 13391 N 1251.95 0.502579 1.49372 0
M  V30 13392 C 1252.88 -0.264307 2.31999 0
M  V30 13393 C 1253.86 -0.96107 1.40348 0
M  V30 13394 O 1255.05 -0.952167 1.69255 0
M  V30 13395 C 1252.18 -1.32822 3.20898 0
M  V30 13396 C 1251.13 -0.751236 4.21355 0
M  V30 13397 C 1250.46 -1.91578 4.99201 0
M  V30 13398 C 1251.76 0.258764 5.21659 0
M  V30 13399 H 1253.45 0.425391 2.96363 0
M  V30 13400 H 1251 0.206022 1.42519 0
M  V30 13401 H 1252.95 -1.87245 3.77515 0
M  V30 13402 H 1251.67 -2.04712 2.54481 0
M  V30 13403 H 1250.33 -0.228743 3.65886 0
M  V30 13404 H 1249.98 -2.62241 4.2923 0
M  V30 13405 H 1249.68 -1.53578 5.67175 0
M  V30 13406 H 1251.2 -2.46432 5.58663 0
M  V30 13407 H 1252.62 -0.197385 5.7296 0
M  V30 13408 H 1251.02 0.554681 5.97531 0
M  V30 13409 H 1252.09 1.1741 4.70471 0
M  V30 13410 N 1253.43 -1.55816 0.23648 0
M  V30 13411 C 1254.66 -2.02789 -0.39501 0
M  V30 13412 C 1255.07 -1.1153 -1.52832 0
M  V30 13413 O 1254.41 -0.120084 -1.83307 0
M  V30 13414 C 1254.47 -3.46052 -0.974066 0
M  V30 13415 C 1254.14 -4.56993 0.0256825 0
M  V30 13416 C 1255.13 -5.13208 0.831477 0
M  V30 13417 C 1252.82 -5.0208 0.148759 0
M  V30 13418 C 1254.81 -6.12994 1.74691 0
M  V30 13419 C 1252.5 -6.017 1.0677 0
M  V30 13420 C 1253.5 -6.57035 1.86531 0
M  V30 13421 O 1253.18 -7.54714 2.76878 0
M  V30 13422 H 1252.92 -0.668672 -0.0992687 0
M  V30 13423 H 1255.47 -2.02312 0.354826 0
M  V30 13424 H 1253.7 -3.43645 -1.77327 0
M  V30 13425 H 1255.39 -3.76586 -1.51453 0
M  V30 13426 H 1256.16 -4.79214 0.746922 0
M  V30 13427 H 1252.03 -4.58679 -0.461976 0
M  V30 13428 H 1255.58 -6.56111 2.36989 0
M  V30 13429 H 1251.48 -6.35115 1.15322 0
M  V30 13430 H 1252.24 -7.72292 2.71122 0
M  V30 13431 N 1254.91 0.036755 -1.57557 0
M  V30 13432 C 1255.84 1.03939 -2.09091 0
M  V30 13433 C 1256.82 1.38196 -0.991761 0
M  V30 13434 O 1258 1.47214 -1.26656 0
M  V30 13435 C 1255.13 2.34263 -2.56394 0
M  V30 13436 C 1254.09 2.14269 -3.70504 0
M  V30 13437 C 1253.41 3.50286 -4.03985 0
M  V30 13438 C 1254.71 1.53514 -4.9923 0
M  V30 13439 H 1256.41 0.610429 -2.93111 0
M  V30 13440 H 1253.95 0.292183 -1.41005 0
M  V30 13441 H 1255.91 3.04727 -2.91066 0
M  V30 13442 H 1254.63 2.79205 -1.69447 0
M  V30 13443 H 1253.29 1.46239 -3.36169 0
M  V30 13444 H 1252.94 3.92861 -3.14116 0
M  V30 13445 H 1252.64 3.37735 -4.80842 0
M  V30 13446 H 1254.16 4.22124 -4.41184 0
M  V30 13447 H 1255.57 2.13885 -5.31908 0
M  V30 13448 H 1253.97 1.51561 -5.80646 0
M  V30 13449 H 1255.04 0.500126 -4.82314 0
M  V30 13450 N 1256.39 1.54543 0.308881 0
M  V30 13451 C 1257.32 1.81309 1.40212 0
M  V30 13452 C 1258.33 0.69568 1.47187 0
M  V30 13453 O 1259.52 0.973034 1.49647 0
M  V30 13454 C 1256.62 1.92901 2.78644 0
M  V30 13455 C 1255.79 3.23222 2.94697 0
M  V30 13456 C 1254.85 3.25329 4.13579 0
M  V30 13457 O 1253.88 3.989 4.06039 0
M  V30 13458 N 1255.08 2.50158 5.23833 0
M  V30 13459 H 1257.84 2.75659 1.1761 0
M  V30 13460 H 1255.41 1.54021 0.498925 0
M  V30 13461 H 1257.4 1.91721 3.56406 0
M  V30 13462 H 1255.97 1.05582 2.9423 0
M  V30 13463 H 1255.19 3.37241 2.04113 0
M  V30 13464 H 1256.48 4.09238 3.02328 0
M  V30 13465 H 1255.87 1.90002 5.32838 0
M  V30 13466 H 1254.43 2.5474 5.99959 0
M  V30 13467 N 1257.86 -0.571685 1.46866 0
M  V30 13468 C 1259.28 -0.896172 1.32064 0
M  V30 13469 C 1259.48 -1.9925 0.300291 0
M  V30 13470 O 1258.54 -2.50791 -0.293284 0
M  V30 13471 C 1259.85 -1.3031 2.70998 0
M  V30 13472 C 1261.4 -1.41533 2.79173 0
M  V30 13473 C 1261.87 -1.85587 4.18714 0
M  V30 13474 N 1263.36 -1.92762 4.21185 0
M  V30 13475 C 1264.1 -2.28148 5.26057 0
M  V30 13476 N 1263.59 -2.62248 6.41247 0
M  V30 13477 N 1265.39 -2.28797 5.13428 0
M  V30 13478 H 1257.54 0.152349 2.11853 0
M  V30 13479 H 1259.8 0.00548777 0.947984 0
M  V30 13480 H 1259.51 -0.571469 3.47026 0
M  V30 13481 H 1259.38 -2.26233 3.01826 0
M  V30 13482 H 1261.77 -2.1378 2.03426 0
M  V30 13483 H 1261.85 -0.438342 2.52016 0
M  V30 13484 H 1261.49 -1.13915 4.9496 0
M  V30 13485 H 1261.42 -2.84264 4.43285 0
M  V30 13486 H 1263.91 -1.68854 3.38078 0
M  V30 13487 H 1264.23 -2.88234 7.17036 0
M  V30 13488 H 1262.57 -2.59861 6.44591 0
M  V30 13489 H 1265.76 -2.01587 4.22469 0
M  V30 13490 H 1265.94 -2.56045 5.95269 0
M  V30 13491 N 1259.34 -1.34755 -0.817236 0
M  V30 13492 C 1260.59 -1.27432 -1.57377 0
M  V30 13493 C 1260.92 0.15419 -1.93888 0
M  V30 13494 O 1260.17 1.11686 -1.60701 0
M  V30 13495 C 1260.47 -2.11611 -2.8802 0
M  V30 13496 C 1260.14 -3.60543 -2.70776 0
M  V30 13497 C 1258.8 -4.01141 -2.6578 0
M  V30 13498 C 1261.15 -4.55089 -2.54053 0
M  V30 13499 C 1258.48 -5.34469 -2.41991 0
M  V30 13500 C 1260.83 -5.88603 -2.31795 0
M  V30 13501 C 1259.49 -6.28358 -2.25215 0
M  V30 13502 H 1258.76 -0.466305 -0.575882 0
M  V30 13503 H 1261.41 -1.66552 -0.945128 0
M  V30 13504 H 1259.72 -1.65336 -3.55206 0
M  V30 13505 H 1261.41 -2.03287 -3.45652 0
M  V30 13506 H 1258 -3.2832 -2.75506 0
M  V30 13507 H 1262.19 -4.24617 -2.56932 0
M  V30 13508 H 1257.44 -5.64284 -2.35359 0
M  V30 13509 H 1261.62 -6.61451 -2.17844 0
M  V30 13510 H 1259.24 -7.31604 -2.06543 0
M  V30 13511 N 1260.82 1.03812 -1.18578 0
M  V30 13512 C 1261.73 2.15371 -0.930182 0
M  V30 13513 C 1262.75 1.73673 0.106599 0
M  V30 13514 O 1263.92 2.01257 -0.0759054 0
M  V30 13515 C 1260.99 3.43606 -0.462151 0
M  V30 13516 C 1260.05 3.99671 -1.5672 0
M  V30 13517 C 1259.28 5.21785 -1.12141 0
M  V30 13518 O 1259.5 5.70397 0.0188357 0
M  V30 13519 O 1258.44 5.70449 -1.9202 0
M  V30 13520 H 1262.26 2.39791 -1.86371 0
M  V30 13521 H 1259.85 1.13814 -0.967819 0
M  V30 13522 H 1261.73 4.2088 -0.20934 0
M  V30 13523 H 1260.41 3.20654 0.443052 0
M  V30 13524 H 1259.31 3.23774 -1.87406 0
M  V30 13525 H 1260.65 4.2697 -2.44862 0
M  V30 13526 N 1262.3 0.988223 1.22768 0
M  V30 13527 C 1263.25 0.527454 2.26541 0
M  V30 13528 C 1264.24 -0.419506 1.64123 0
M  V30 13529 O 1265.45 -0.292539 1.77607 0
M  V30 13530 H 1261.82 0.152165 0.736444 0
M  V30 13531 H 1263.79 1.41422 2.62759 0
M  V30 13532 C 1262.54 -0.146845 3.4739 0
M  V30 13533 H 1261.86 0.572752 3.95676 0
M  V30 13534 H 1263.3 -0.432768 4.21786 0
M  V30 13535 C 1261.76 -1.38065 3.0731 0
M  V30 13536 O 1262.29 -2.47634 3.16291 0
M  V30 13537 N 1260.5 -1.25418 2.62143 0
M  V30 13538 H 1260.05 -0.362641 2.55035 0
M  V30 13539 H 1260 -2.08077 2.35694 0
M  V30 13540 N 1263.78 -1.38018 0.760839 0
M  V30 13541 C 1265.02 -2.01795 0.325264 0
M  V30 13542 C 1265.38 -1.59092 -1.07489 0
M  V30 13543 O 1266.58 -2.15251 -1.60998 0
M  V30 13544 C 1264.85 -3.5453 0.452007 0
M  V30 13545 S 1266.41 -4.38686 0.100084 0
M  V30 13546 H 1263.23 -0.69979 0.125758 0
M  V30 13547 H 1265.83 -1.684 0.993054 0
M  V30 13548 H 1264.53 -3.83099 1.47186 0
M  V30 13549 H 1264.07 -3.92711 -0.232716 0
M  V30 13550 H 1266.08 -4.83672 -1.10797 0
M  V30 13551 N 1265.25 -0.510493 -1.49103 0
M  V30 13552 C 1266.5 0.0305831 -2.02077 0
M  V30 13553 C 1266.82 1.36602 -1.39157 0
M  V30 13554 O 1266.09 1.88016 -0.550154 0
M  V30 13555 H 1264.67 0.0142916 -0.746863 0
M  V30 13556 H 1267.33 -0.669895 -1.83026 0
M  V30 13557 H 1266.43 0.153283 -3.11723 0
M  V30 13558 N 1266.73 1.55688 -0.24474 0
M  V30 13559 C 1267.98 1.98067 0.381081 0
M  V30 13560 C 1268.29 1.13606 1.59227 0
M  V30 13561 O 1269.5 1.45988 2.2891 0
M  V30 13562 C 1267.96 3.52432 0.729385 0
M  V30 13563 C 1267.56 4.45629 -0.460282 0
M  V30 13564 C 1269.31 4.03471 1.31952 0
M  V30 13565 C 1267.21 5.91334 -0.088252 0
M  V30 13566 H 1266.14 0.739699 0.146157 0
M  V30 13567 H 1268.8 1.80235 -0.344615 0
M  V30 13568 H 1267.18 3.65951 1.51315 0
M  V30 13569 H 1268.35 4.43868 -1.23764 0
M  V30 13570 H 1266.67 4.05059 -0.965197 0
M  V30 13571 H 1269.26 5.09849 1.61116 0
M  V30 13572 H 1269.61 3.50691 2.24325 0
M  V30 13573 H 1270.14 3.93269 0.5987 0
M  V30 13574 H 1266.88 6.48147 -0.979069 0
M  V30 13575 H 1266.4 5.96235 0.652947 0
M  V30 13576 H 1268.08 6.46156 0.330324 0
M  V30 13577 N 1268.21 -0.0283989 1.57574 0
M  V30 13578 C 1269.46 -0.719077 1.89303 0
M  V30 13579 C 1269.78 -1.75325 0.84211 0
M  V30 13580 O 1269.04 -1.95071 -0.15683 0
M  V30 13581 C 1269.34 -1.4247 3.27776 0
M  V30 13582 C 1269 -0.526442 4.47816 0
M  V30 13583 C 1267.67 -0.279038 4.8039 0
M  V30 13584 C 1270.02 0.0937038 5.21116 0
M  V30 13585 C 1267.35 0.597277 5.83652 0
M  V30 13586 C 1269.7 0.957725 6.25308 0
M  V30 13587 C 1268.36 1.21458 6.56357 0
M  V30 13588 H 1267.63 -0.263129 0.692708 0
M  V30 13589 H 1270.28 0.0210252 1.91488 0
M  V30 13590 H 1268.58 -2.23813 3.21582 0
M  V30 13591 H 1270.28 -1.96466 3.49574 0
M  V30 13592 H 1266.87 -0.729426 4.22347 0
M  V30 13593 H 1271.06 -0.084469 4.96228 0
M  V30 13594 H 1266.31 0.804582 6.06083 0
M  V30 13595 H 1270.49 1.44476 6.81249 0
M  V30 13596 H 1268.11 1.89534 7.36193 0
M  V30 13597 N 1269.69 -1.54705 -0.300681 0
M  V30 13598 C 1270.94 -1.73211 -1.03349 0
M  V30 13599 C 1271.25 -0.52518 -1.88418 0
M  V30 13600 O 1272.46 -0.592049 -2.64966 0
M  V30 13601 C 1270.91 -3.06453 -1.88717 0
M  V30 13602 C 1270.52 -4.34625 -1.0865 0
M  V30 13603 C 1272.26 -3.34317 -2.61595 0
M  V30 13604 C 1270.17 -5.58919 -1.93297 0
M  V30 13605 H 1269.1 -0.64556 -0.389574 0
M  V30 13606 H 1271.75 -1.81186 -0.290472 0
M  V30 13607 H 1270.13 -2.92443 -2.67008 0
M  V30 13608 H 1271.31 -4.59471 -0.349707 0
M  V30 13609 H 1269.62 -4.13699 -0.473521 0
M  V30 13610 H 1272.22 -4.2438 -3.25278 0
M  V30 13611 H 1272.56 -2.53207 -3.30442 0
M  V30 13612 H 1273.1 -3.493 -1.90354 0
M  V30 13613 H 1269.83 -6.42697 -1.2892 0
M  V30 13614 H 1269.35 -5.38258 -2.64647 0
M  V30 13615 H 1271.03 -5.96187 -2.51336 0
M  V30 13616 N 1271.17 0.563888 -1.47167 0
M  V30 13617 C 1272.41 1.32331 -1.53676 0
M  V30 13618 C 1272.75 1.93213 -0.195593 0
M  V30 13619 O 1272.02 1.77508 0.795068 0
M  V30 13620 C 1272.3 2.43848 -2.64972 0
M  V30 13621 C 1272.16 1.8788 -4.08682 0
M  V30 13622 C 1273.48 3.45809 -2.72221 0
M  V30 13623 H 1270.59 0.479791 -0.559437 0
M  V30 13624 H 1273.24 0.631669 -1.79192 0
M  V30 13625 H 1271.39 3.02846 -2.43345 0
M  V30 13626 H 1273.06 1.33195 -4.41652 0
M  V30 13627 H 1271.3 1.18593 -4.17275 0
M  V30 13628 H 1271.97 2.68465 -4.82318 0
M  V30 13629 H 1274.45 2.9672 -2.91713 0
M  V30 13630 H 1273.32 4.21272 -3.51882 0
M  V30 13631 H 1273.59 4.04236 -1.79014 0
M  V30 13632 N 1272.64 1.35187 0.810078 0
M  V30 13633 C 1273.58 1.22171 1.92742 0
M  V30 13634 C 1274.56 0.110393 1.62225 0
M  V30 13635 O 1275.74 0.27786 1.86441 0
M  V30 13636 C 1272.87 0.880367 3.27058 0
M  V30 13637 C 1271.91 2.00325 3.76527 0
M  V30 13638 S 1272.75 3.6185 3.94747 0
M  V30 13639 C 1273.9 3.29784 5.31971 0
M  V30 13640 H 1274.13 2.16749 2.03488 0
M  V30 13641 H 1271.67 1.20362 0.967072 0
M  V30 13642 H 1273.63 0.690224 4.04656 0
M  V30 13643 H 1272.29 -0.0472868 3.14064 0
M  V30 13644 H 1271.48 1.71847 4.73798 0
M  V30 13645 H 1271.08 2.15154 3.05916 0
M  V30 13646 H 1273.37 2.82396 6.1584 0
M  V30 13647 H 1274.32 4.26243 5.6544 0
M  V30 13648 H 1274.72 2.65641 4.98092 0
M  V30 13649 N 1274.12 -1.03182 1.19127 0
M  V30 13650 C 1275.05 -2.13301 0.94999 0
M  V30 13651 C 1276.03 -1.69707 -0.115577 0
M  V30 13652 O 1277.22 -1.94161 0.0388395 0
M  V30 13653 C 1274.35 -3.43902 0.484637 0
M  V30 13654 C 1273.3 -4.01164 1.4917 0
M  V30 13655 C 1272.63 -5.2735 0.883537 0
M  V30 13656 C 1273.93 -4.36311 2.87107 0
M  V30 13657 H 1275.62 -2.33743 1.87095 0
M  V30 13658 H 1273.17 -1.12332 0.900977 0
M  V30 13659 H 1275.12 -4.20308 0.30315 0
M  V30 13660 H 1273.85 -3.23173 -0.471909 0
M  V30 13661 H 1272.5 -3.26849 1.66028 0
M  V30 13662 H 1272.15 -5.02936 -0.0804712 0
M  V30 13663 H 1271.85 -5.66624 1.55599 0
M  V30 13664 H 1273.38 -6.06425 0.71278 0
M  V30 13665 H 1274.79 -5.03666 2.73848 0
M  V30 13666 H 1273.19 -4.86659 3.51117 0
M  V30 13667 H 1274.26 -3.45743 3.39985 0
M  V30 13668 N 1275.6 -0.99472 -1.22242 0
M  V30 13669 C 1276.51 -0.555502 -2.27928 0
M  V30 13670 C 1277.53 0.396584 -1.6942 0
M  V30 13671 O 1278.7 0.262965 -1.99676 0
M  V30 13672 C 1275.77 0.121121 -3.46488 0
M  V30 13673 C 1274.83 -0.874155 -4.20306 0
M  V30 13674 C 1274.06 -0.229726 -5.33205 0
M  V30 13675 O 1274.28 0.975935 -5.61989 0
M  V30 13676 O 1273.22 -0.935501 -5.94586 0
M  V30 13677 H 1277.04 -1.4348 -2.6767 0
M  V30 13678 H 1274.63 -0.763061 -1.28444 0
M  V30 13679 H 1276.51 0.500043 -4.18423 0
M  V30 13680 H 1275.19 0.974959 -3.08668 0
M  V30 13681 H 1274.09 -1.30404 -3.50636 0
M  V30 13682 H 1275.43 -1.69725 -4.62011 0
M  V30 13683 N 1277.08 1.37613 -0.768148 0
M  V30 13684 C 1278.32 2.00075 -0.331331 0
M  V30 13685 C 1278.66 1.60839 1.08833 0
M  V30 13686 O 1277.93 0.852849 1.74805 0
M  V30 13687 C 1278.22 3.57009 -0.470789 0
M  V30 13688 C 1278.07 4.06166 -1.9326 0
M  V30 13689 C 1279.39 4.39916 0.127111 0
M  V30 13690 H 1276.51 0.726855 -0.121864 0
M  V30 13691 H 1279.15 1.63343 -0.970518 0
M  V30 13692 H 1277.3 3.88431 0.0733688 0
M  V30 13693 H 1278.97 3.85325 -2.53618 0
M  V30 13694 H 1277.21 3.58492 -2.44266 0
M  V30 13695 H 1277.88 5.15219 -1.98125 0
M  V30 13696 H 1280.36 4.14732 -0.337144 0
M  V30 13697 H 1279.24 5.489 -0.000624226 0
M  V30 13698 H 1279.5 4.25018 1.21704 0
M  V30 13699 N 1278.56 0.518393 1.4883 0
M  V30 13700 C 1279.81 -0.0218436 2.01688 0
M  V30 13701 C 1280.12 -1.36421 1.40174 0
M  V30 13702 O 1281.32 -1.99214 1.84461 0
M  V30 13703 C 1279.78 -0.0893538 3.59789 0
M  V30 13704 C 1279.39 1.24741 4.30283 0
M  V30 13705 C 1281.13 -0.579032 4.20532 0
M  V30 13706 C 1279.04 1.14112 5.80286 0
M  V30 13707 H 1277.97 -0.0119353 0.753906 0
M  V30 13708 H 1280.62 0.660432 1.71203 0
M  V30 13709 H 1279 -0.836458 3.87065 0
M  V30 13710 H 1280.18 2.00917 4.14691 0
M  V30 13711 H 1278.49 1.67191 3.81361 0
M  V30 13712 H 1281.09 -0.676343 5.30405 0
M  V30 13713 H 1281.43 -1.58207 3.85067 0
M  V30 13714 H 1281.96 0.112046 3.97642 0
M  V30 13715 H 1278.7 2.11895 6.20307 0
M  V30 13716 H 1278.22 0.420535 5.98324 0
M  V30 13717 H 1279.9 0.826992 6.41693 0
M  V30 13718 N 1280.03 -1.55556 0.252993 0
M  V30 13719 C 1280.96 -2.24613 -0.638047 0
M  V30 13720 C 1281.95 -1.22852 -1.1765 0
M  V30 13721 O 1283.13 -1.51519 -1.21472 0
M  V30 13722 C 1280.26 -2.95029 -1.83236 0
M  V30 13723 C 1279.21 -4.03531 -1.42641 0
M  V30 13724 C 1278.54 -4.61404 -2.70204 0
M  V30 13725 C 1279.84 -5.18923 -0.592958 0
M  V30 13726 H 1281.53 -2.99335 -0.0621918 0
M  V30 13727 H 1279.08 -1.43972 -0.0284722 0
M  V30 13728 H 1281.03 -3.42042 -2.46141 0
M  V30 13729 H 1279.76 -2.17805 -2.43369 0
M  V30 13730 H 1278.42 -3.57296 -0.820672 0
M  V30 13731 H 1278.06 -3.80874 -3.28548 0
M  V30 13732 H 1277.76 -5.34652 -2.43764 0
M  V30 13733 H 1279.29 -5.11154 -3.33997 0
M  V30 13734 H 1280.7 -5.62124 -1.12646 0
M  V30 13735 H 1279.1 -5.98598 -0.424358 0
M  V30 13736 H 1280.17 -4.83301 0.393434 0
M  V30 13737 N 1281.51 0.0200419 -1.57587 0
M  V30 13738 C 1282.46 1.01784 -2.07144 0
M  V30 13739 C 1283.43 1.3537 -0.962501 0
M  V30 13740 O 1284.61 1.45553 -1.23365 0
M  V30 13741 C 1281.75 2.31091 -2.56302 0
M  V30 13742 C 1280.87 2.03584 -3.81022 0
M  V30 13743 C 1280 3.26827 -4.18757 0
M  V30 13744 C 1279.04 2.94915 -5.36369 0
M  V30 13745 N 1278.18 4.10636 -5.69493 0
M  V30 13746 H 1283.02 0.588288 -2.92136 0
M  V30 13747 H 1280.56 0.278848 -1.44433 0
M  V30 13748 H 1282.51 3.06656 -2.82874 0
M  V30 13749 H 1281.14 2.71752 -1.74215 0
M  V30 13750 H 1280.2 1.18475 -3.6148 0
M  V30 13751 H 1281.51 1.76049 -4.66699 0
M  V30 13752 H 1280.66 4.10753 -4.46505 0
M  V30 13753 H 1279.4 3.57483 -3.31749 0
M  V30 13754 H 1278.41 2.09392 -5.08365 0
M  V30 13755 H 1279.63 2.65528 -6.25037 0
M  V30 13756 H 1277.58 4.41226 -4.85444 0
M  V30 13757 H 1277.49 3.86556 -6.497 0
M  V30 13758 H 1278.76 4.95409 -6.01822 0
M  V30 13759 N 1282.99 1.54862 0.292472 0
M  V30 13760 C 1284.22 1.7855 1.04534 0
M  V30 13761 C 1284.63 0.549161 1.80637 0
M  V30 13762 O 1283.99 -0.481268 1.7604 0
M  V30 13763 C 1284.04 2.99849 2.01923 0
M  V30 13764 O 1283.76 4.18706 1.28907 0
M  V30 13765 C 1285.26 3.35991 2.8918 0
M  V30 13766 H 1282.48 0.595279 0.309652 0
M  V30 13767 H 1285.03 2.01834 0.329159 0
M  V30 13768 H 1283.18 2.78749 2.69032 0
M  V30 13769 H 1283.6 4.87151 1.94383 0
M  V30 13770 H 1285.07 4.24085 3.53349 0
M  V30 13771 H 1285.55 2.54524 3.57931 0
M  V30 13772 H 1286.15 3.59281 2.27591 0
M  V30 13773 N 1284.47 -0.556076 1.47464 0
M  V30 13774 C 1285.4 -1.67275 1.62915 0
M  V30 13775 C 1286.38 -1.63229 0.478562 0
M  V30 13776 O 1287.56 -1.80833 0.708032 0
M  V30 13777 C 1284.69 -3.05911 1.64426 0
M  V30 13778 C 1283.65 -3.24804 2.78722 0
M  V30 13779 C 1282.97 -4.64238 2.65307 0
M  V30 13780 C 1284.27 -3.10071 4.20302 0
M  V30 13781 H 1285.97 -1.54601 2.56396 0
M  V30 13782 H 1283.51 -0.742337 1.23391 0
M  V30 13783 H 1285.47 -3.83878 1.73826 0
M  V30 13784 H 1284.19 -3.19547 0.675053 0
M  V30 13785 H 1282.85 -2.49246 2.68835 0
M  V30 13786 H 1282.5 -4.74675 1.66412 0
M  V30 13787 H 1282.2 -4.77828 3.41986 0
M  V30 13788 H 1283.72 -5.44339 2.76637 0
M  V30 13789 H 1285.14 -3.77855 4.3116 0
M  V30 13790 H 1283.53 -3.3517 4.97776 0
M  V30 13791 H 1284.6 -2.06803 4.38589 0
M  V30 13792 N 1285.95 -1.35615 -0.802897 0
M  V30 13793 C 1286.88 -1.31506 -1.92947 0
M  V30 13794 C 1287.86 -0.188843 -1.69048 0
M  V30 13795 O 1289.04 -0.384384 -1.90358 0
M  V30 13796 C 1286.17 -1.09001 -3.29752 0
M  V30 13797 C 1285.13 -2.18303 -3.68141 0
M  V30 13798 C 1284.45 -1.80959 -5.03148 0
M  V30 13799 C 1285.75 -3.60296 -3.78132 0
M  V30 13800 H 1287.45 -2.25771 -1.96642 0
M  V30 13801 H 1284.99 -1.08682 -0.944685 0
M  V30 13802 H 1286.95 -1.04766 -4.08169 0
M  V30 13803 H 1285.67 -0.111832 -3.26408 0
M  V30 13804 H 1284.33 -2.21642 -2.92011 0
M  V30 13805 H 1283.98 -0.817495 -4.96312 0
M  V30 13806 H 1283.68 -2.54129 -5.29804 0
M  V30 13807 H 1285.2 -1.78255 -5.84001 0
M  V30 13808 H 1286.62 -3.59259 -4.46773 0
M  V30 13809 H 1285.01 -4.32258 -4.16261 0
M  V30 13810 H 1286.08 -3.9618 -2.79588 0
M  V30 13811 N 1287.43 1.02549 -1.19673 0
M  V30 13812 C 1288.84 1.28271 -0.94967 0
M  V30 13813 C 1289.04 1.97961 0.37599 0
M  V30 13814 O 1288.1 2.26955 1.10668 0
M  V30 13815 C 1289.41 2.12647 -2.12607 0
M  V30 13816 C 1290.96 2.25943 -2.16607 0
M  V30 13817 C 1291.43 3.13693 -3.33708 0
M  V30 13818 N 1292.92 3.21281 -3.33665 0
M  V30 13819 C 1293.66 3.89377 -4.20919 0
M  V30 13820 N 1293.16 4.59675 -5.18334 0
M  V30 13821 N 1294.95 3.85811 -4.08786 0
M  V30 13822 H 1287.1 0.557304 -2.04958 0
M  V30 13823 H 1289.36 0.308531 -0.896389 0
M  V30 13824 H 1289.07 1.68766 -3.08563 0
M  V30 13825 H 1288.94 3.13367 -2.09955 0
M  V30 13826 H 1291.33 2.69053 -1.2122 0
M  V30 13827 H 1291.41 1.24762 -2.23311 0
M  V30 13828 H 1291.05 2.7129 -4.29376 0
M  V30 13829 H 1290.98 4.14941 -3.2424 0
M  V30 13830 H 1293.48 2.71218 -2.63152 0
M  V30 13831 H 1293.79 5.09277 -5.81254 0
M  V30 13832 H 1292.13 4.58529 -5.22279 0
M  V30 13833 H 1295.32 3.30033 -3.31957 0
M  V30 13834 H 1295.5 4.38607 -4.76999 0
M  V30 13835 N 1288.9 1.00119 1.21713 0
M  V30 13836 C 1290.13 0.700172 1.95224 0
M  V30 13837 C 1290.55 -0.730138 1.73351 0
M  V30 13838 O 1289.91 -1.50026 1.01794 0
M  V30 13839 C 1289.96 1.02202 3.45814 0
M  V30 13840 O 1289.06 0.125188 4.1221 0
M  V30 13841 H 1288.4 0.261238 0.610451 0
M  V30 13842 H 1290.93 1.34041 1.54578 0
M  V30 13843 H 1290.94 0.967293 3.96368 0
M  V30 13844 H 1289.62 2.06422 3.61058 0
M  V30 13845 H 1288.2 0.236114 3.72152 0
M  V30 13846 N 1290.38 -1.37203 0.775435 0
M  V30 13847 C 1291.61 -2.03868 0.352927 0
M  V30 13848 C 1292.02 -1.58482 -1.0261 0
M  V30 13849 O 1291.38 -0.767772 -1.65564 0
M  V30 13850 C 1291.43 -3.59378 0.39116 0
M  V30 13851 O 1291.15 -4.03103 1.71579 0
M  V30 13852 C 1292.65 -4.4328 -0.0424808 0
M  V30 13853 H 1289.87 -0.654619 0.14736 0
M  V30 13854 H 1292.42 -1.75463 1.05039 0
M  V30 13855 H 1290.57 -3.86542 -0.257752 0
M  V30 13856 H 1290.99 -4.9764 1.65695 0
M  V30 13857 H 1292.46 -5.51989 0.0354215 0
M  V30 13858 H 1292.94 -4.25374 -1.09333 0
M  V30 13859 H 1293.54 -4.21349 0.578384 0
M  V30 13860 N 1291.86 -0.526279 -1.48553 0
M  V30 13861 C 1293.11 0.00918008 -2.02798 0
M  V30 13862 C 1293.44 1.34284 -1.4029 0
M  V30 13863 O 1292.71 1.86639 -0.547355 0
M  V30 13864 C 1293 0.135102 -3.59846 0
M  V30 13865 C 1292.85 -1.22347 -4.32841 0
M  V30 13866 C 1294.17 0.863673 -4.31542 0
M  V30 13867 H 1291.29 0.00186216 -0.736998 0
M  V30 13868 H 1293.93 -0.682591 -1.77315 0
M  V30 13869 H 1292.08 0.724279 -3.81689 0
M  V30 13870 H 1293.75 -1.85347 -4.22427 0
M  V30 13871 H 1291.99 -1.80631 -3.94405 0
M  V30 13872 H 1292.67 -1.08839 -5.41164 0
M  V30 13873 H 1295.14 0.363734 -4.14507 0
M  V30 13874 H 1294.02 0.92067 -5.41124 0
M  V30 13875 H 1294.28 1.91313 -3.98562 0
M  V30 13876 N 1293.34 1.5542 -0.261239 0
M  V30 13877 C 1294.58 1.99579 0.36002 0
M  V30 13878 C 1294.92 1.14933 1.56538 0
M  V30 13879 O 1294.19 0.216082 1.93296 0
M  V30 13880 C 1294.47 3.52078 0.755842 0
M  V30 13881 C 1294.33 4.47484 -0.455896 0
M  V30 13882 C 1295.65 4.10083 1.5975 0
M  V30 13883 H 1292.77 0.725554 0.129385 0
M  V30 13884 H 1295.41 1.86453 -0.365415 0
M  V30 13885 H 1293.56 3.63394 1.37393 0
M  V30 13886 H 1295.23 4.4813 -1.09441 0
M  V30 13887 H 1293.47 4.19714 -1.09646 0
M  V30 13888 H 1294.14 5.51834 -0.13539 0
M  V30 13889 H 1296.62 4.01957 1.07562 0
M  V30 13890 H 1295.5 5.17024 1.84329 0
M  V30 13891 H 1295.76 3.59438 2.57404 0
M  V30 13892 N 1294.82 -0.0116844 1.57596 0
M  V30 13893 C 1296.06 -0.698958 1.90055 0
M  V30 13894 C 1296.39 -1.74422 0.860659 0
M  V30 13895 O 1295.65 -1.95226 -0.136132 0
M  V30 13896 C 1295.94 -1.38985 3.29269 0
M  V30 13897 C 1295.61 -0.478916 4.48349 0
M  V30 13898 C 1294.27 -0.228071 4.80659 0
M  V30 13899 C 1296.62 0.14897 5.20987 0
M  V30 13900 C 1293.95 0.659147 5.82986 0
M  V30 13901 C 1296.3 1.02399 6.24257 0
M  V30 13902 C 1294.97 1.28413 6.55032 0
M  V30 13903 H 1294.24 -0.255767 0.69546 0
M  V30 13904 H 1296.89 0.0413339 1.91455 0
M  V30 13905 H 1295.19 -2.2039 3.23937 0
M  V30 13906 H 1296.89 -1.92747 3.51638 0
M  V30 13907 H 1293.48 -0.68459 4.23097 0
M  V30 13908 H 1297.66 -0.0318326 4.9629 0
M  V30 13909 H 1292.92 0.86882 6.05195 0
M  V30 13910 H 1297.09 1.51694 6.79678 0
M  V30 13911 H 1294.72 1.97332 7.34142 0
M  V30 13912 N 1296.29 -1.55015 -0.284256 0
M  V30 13913 C 1297.54 -1.74297 -1.01506 0
M  V30 13914 C 1297.86 -0.545134 -1.8785 0
M  V30 13915 O 1299.06 -0.620118 -2.64323 0
M  V30 13916 C 1297.52 -3.08438 -1.85456 0
M  V30 13917 C 1297.13 -4.35753 -1.04034 0
M  V30 13918 C 1298.87 -3.37073 -2.58035 0
M  V30 13919 C 1296.78 -5.60938 -1.87358 0
M  V30 13920 H 1295.71 -0.649656 -0.382705 0
M  V30 13921 H 1298.36 -1.81484 -0.271239 0
M  V30 13922 H 1296.74 -2.95259 -2.63891 0
M  V30 13923 H 1297.91 -4.59816 -0.300954 0
M  V30 13924 H 1296.23 -4.14178 -0.429616 0
M  V30 13925 H 1298.83 -4.27806 -3.20759 0
M  V30 13926 H 1299.17 -2.56698 -3.27738 0
M  V30 13927 H 1299.7 -3.51299 -1.86638 0
M  V30 13928 H 1296.44 -6.44029 -1.22096 0
M  V30 13929 H 1295.96 -5.41035 -2.58923 0
M  V30 13930 H 1297.64 -5.98819 -2.44999 0
M  V30 13931 N 1297.77 0.548248 -1.47757 0
M  V30 13932 C 1299.02 1.30501 -1.54841 0
M  V30 13933 C 1299.35 1.93314 -0.214476 0
M  V30 13934 O 1298.6 1.7889 0.793526 0
M  V30 13935 C 1298.9 2.42911 -2.62162 0
M  V30 13936 C 1298.57 1.97871 -4.05164 0
M  V30 13937 C 1297.23 1.85304 -4.4409 0
M  V30 13938 C 1299.58 1.63606 -4.94856 0
M  V30 13939 C 1296.91 1.36781 -5.70533 0
M  V30 13940 C 1299.26 1.16552 -6.2177 0
M  V30 13941 C 1297.92 1.02588 -6.5957 0
M  V30 13942 H 1297.19 0.477536 -0.566604 0
M  V30 13943 H 1299.84 0.613837 -1.81395 0
M  V30 13944 H 1298.15 3.17622 -2.29398 0
M  V30 13945 H 1299.84 3.01078 -2.64864 0
M  V30 13946 H 1296.43 2.08597 -3.74413 0
M  V30 13947 H 1300.62 1.72184 -4.65474 0
M  V30 13948 H 1295.87 1.24641 -5.9856 0
M  V30 13949 H 1300.05 0.891041 -6.90676 0
M  V30 13950 H 1297.67 0.647675 -7.57436 0
M  V30 13951 N 1299.25 1.36039 0.795694 0
M  V30 13952 C 1300.18 1.32528 1.92246 0
M  V30 13953 C 1301.16 0.197805 1.68946 0
M  V30 13954 O 1302.35 0.394474 1.90151 0
M  V30 13955 C 1299.48 1.10748 3.29169 0
M  V30 13956 C 1298.43 2.20253 3.66978 0
M  V30 13957 C 1297.76 1.83624 5.02181 0
M  V30 13958 C 1299.06 3.62296 3.76216 0
M  V30 13959 H 1300.75 2.2681 1.95442 0
M  V30 13960 H 1298.3 1.09181 0.938908 0
M  V30 13961 H 1300.25 1.06929 4.07608 0
M  V30 13962 H 1298.97 0.129141 3.26345 0
M  V30 13963 H 1297.63 2.23187 2.90832 0
M  V30 13964 H 1297.28 0.843804 4.95872 0
M  V30 13965 H 1296.98 2.56935 5.28449 0
M  V30 13966 H 1298.5 1.81349 5.83048 0
M  V30 13967 H 1299.92 3.61623 4.44861 0
M  V30 13968 H 1298.31 4.34459 4.13963 0
M  V30 13969 H 1299.38 3.97657 2.77483 0
M  V30 13970 N 1300.73 -1.01913 1.20215 0
M  V30 13971 C 1301.66 -2.12282 0.97256 0
M  V30 13972 C 1302.64 -1.6982 -0.0975709 0
M  V30 13973 O 1303.82 -1.94109 0.0594307 0
M  V30 13974 C 1300.95 -3.43369 0.521085 0
M  V30 13975 C 1299.91 -3.99559 1.53417 0
M  V30 13976 C 1299.23 -5.26383 0.93942 0
M  V30 13977 C 1300.53 -4.33241 2.91718 0
M  V30 13978 H 1302.23 -2.31746 1.89563 0
M  V30 13979 H 1299.77 -1.1137 0.912841 0
M  V30 13980 H 1301.73 -4.19963 0.347713 0
M  V30 13981 H 1300.45 -3.23655 -0.437605 0
M  V30 13982 H 1299.11 -3.25069 1.69486 0
M  V30 13983 H 1298.76 -5.02993 -0.0271236 0
M  V30 13984 H 1298.46 -5.64942 1.616 0
M  V30 13985 H 1299.98 -6.05635 0.777059 0
M  V30 13986 H 1301.4 -5.00734 2.79175 0
M  V30 13987 H 1299.79 -4.82907 3.56259 0
M  V30 13988 H 1300.86 -3.42118 3.43633 0
M  V30 13989 N 1302.21 -1.00763 -1.2118 0
M  V30 13990 C 1303.14 -0.590493 -2.2591 0
M  V30 13991 C 1304.12 0.390002 -1.65569 0
M  V30 13992 O 1305.3 0.277406 -1.92208 0
M  V30 13993 C 1302.43 0.0810388 -3.47205 0
M  V30 13994 C 1301.39 -0.81951 -4.20081 0
M  V30 13995 C 1300.71 -0.014244 -5.34698 0
M  V30 13996 C 1302.01 -2.12336 -4.7719 0
M  V30 13997 H 1303.71 -1.46595 -2.61056 0
M  V30 13998 H 1301.25 -0.706321 -1.25487 0
M  V30 13999 H 1303.21 0.384355 -4.19644 0
M  V30 14000 H 1301.93 0.991145 -3.11197 0
M  V30 14001 H 1300.59 -1.10669 -3.49497 0
M  V30 14002 H 1300.24 0.897233 -4.94933 0
M  V30 14003 H 1299.94 -0.613883 -5.84384 0
M  V30 14004 H 1301.46 0.282827 -6.09945 0
M  V30 14005 H 1302.87 -1.88301 -5.41494 0
M  V30 14006 H 1301.27 -2.67308 -5.37277 0
M  V30 14007 H 1302.34 -2.79238 -3.96427 0
M  V30 14008 N 1303.68 1.3679 -0.7827 0
M  V30 14009 C 1304.65 2.28472 -0.182525 0
M  V30 14010 C 1305.65 1.48524 0.616217 0
M  V30 14011 O 1306.84 1.68599 0.438197 0
M  V30 14012 C 1303.97 3.32588 0.748202 0
M  V30 14013 H 1305.16 2.83059 -0.99085 0
M  V30 14014 H 1302.72 1.46241 -0.551658 0
M  V30 14015 H 1303.45 2.83145 1.58112 0
M  V30 14016 H 1303.24 3.91698 0.177481 0
M  V30 14017 H 1304.73 4.01073 1.16321 0
M  V30 14018 N 1305.16 0.53415 1.48272 0
M  V30 14019 C 1306.41 0.00157259 2.025 0
M  V30 14020 C 1306.74 -1.33886 1.41085 0
M  V30 14021 O 1305.99 -1.87884 0.547544 0
M  V30 14022 C 1306.29 -0.165144 3.57018 0
M  V30 14023 C 1305.96 1.10146 4.3724 0
M  V30 14024 C 1304.62 1.44857 4.58879 0
M  V30 14025 C 1306.97 1.94183 4.83676 0
M  V30 14026 C 1304.3 2.63497 5.24201 0
M  V30 14027 C 1306.65 3.12005 5.50305 0
M  V30 14028 C 1305.32 3.47058 5.70182 0
M  V30 14029 H 1304.59 0.00057545 0.741 0
M  V30 14030 H 1307.23 0.701014 1.78208 0
M  V30 14031 H 1305.54 -0.947384 3.80173 0
M  V30 14032 H 1307.23 -0.592202 3.96603 0
M  V30 14033 H 1303.82 0.821132 4.20661 0
M  V30 14034 H 1308.01 1.68677 4.66757 0
M  V30 14035 H 1303.26 2.90852 5.37787 0
M  V30 14036 H 1307.44 3.77426 5.85254 0
M  V30 14037 H 1305.07 4.39086 6.2057 0
M  V30 14038 N 1306.64 -1.55279 0.269478 0
M  V30 14039 C 1307.89 -1.99077 -0.348224 0
M  V30 14040 C 1308.21 -1.15925 -1.568 0
M  V30 14041 O 1307.48 -0.247404 -1.94331 0
M  V30 14042 H 1306.06 -0.735307 -0.131653 0
M  V30 14043 H 1308.72 -1.91288 0.373506 0
M  V30 14044 H 1307.82 -3.05427 -0.641953 0
M  V30 14045 N 1308.12 0.00332656 -1.576 0
M  V30 14046 C 1309.05 0.994803 -2.11248 0
M  V30 14047 C 1310.03 1.36061 -1.02085 0
M  V30 14048 O 1311.21 1.44494 -1.2975 0
M  V30 14049 C 1308.34 2.28772 -2.61306 0
M  V30 14050 C 1307.3 2.06362 -3.74965 0
M  V30 14051 C 1306.62 3.41638 -4.11324 0
M  V30 14052 C 1307.92 1.4289 -5.02374 0
M  V30 14053 H 1309.62 0.548119 -2.9434 0
M  V30 14054 H 1307.16 0.262208 -1.41593 0
M  V30 14055 H 1309.12 2.98485 -2.97464 0
M  V30 14056 H 1307.84 2.75547 -1.75332 0
M  V30 14057 H 1306.5 1.39076 -3.39195 0
M  V30 14058 H 1306.15 3.8611 -3.22379 0
M  V30 14059 H 1305.85 3.2746 -4.87897 0
M  V30 14060 H 1307.37 4.12671 -4.50039 0
M  V30 14061 H 1308.79 2.02555 -5.36325 0
M  V30 14062 H 1307.18 1.3921 -5.8373 0
M  V30 14063 H 1308.25 0.397708 -4.83266 0
M  V30 14064 N 1309.6 1.55164 0.276031 0
M  V30 14065 C 1310.82 1.7998 1.03063 0
M  V30 14066 C 1311.25 0.569769 1.79263 0
M  V30 14067 O 1310.6 -0.48054 1.74816 0
M  V30 14068 C 1310.65 3.02209 1.96728 0
M  V30 14069 O 1309.76 2.77083 3.05449 0
M  V30 14070 H 1309.1 0.594963 0.294814 0
M  V30 14071 H 1311.63 2.02301 0.305861 0
M  V30 14072 H 1311.64 3.3086 2.38738 0
M  V30 14073 H 1310.31 3.91386 1.40677 0
M  V30 14074 H 1308.89 2.5952 2.67776 0
M  V30 14075 N 1311.07 -0.540404 1.48045 0
M  V30 14076 C 1312.32 -1.29678 1.55531 0
M  V30 14077 C 1312.65 -1.93197 0.224725 0
M  V30 14078 O 1311.9 -1.79308 -0.784028 0
M  V30 14079 C 1312.2 -2.41517 2.63447 0
M  V30 14080 C 1311.87 -1.95719 4.06208 0
M  V30 14081 C 1310.53 -1.82946 4.45067 0
M  V30 14082 C 1312.88 -1.6098 4.95717 0
M  V30 14083 C 1310.21 -1.33753 5.7125 0
M  V30 14084 C 1312.56 -1.13253 6.2238 0
M  V30 14085 C 1311.23 -0.990886 6.60104 0
M  V30 14086 H 1310.5 -0.474525 0.569129 0
M  V30 14087 H 1313.14 -0.604209 1.81718 0
M  V30 14088 H 1311.45 -3.16401 2.3108 0
M  V30 14089 H 1313.15 -2.9967 2.66457 0
M  V30 14090 H 1309.74 -2.06609 3.75514 0
M  V30 14091 H 1313.92 -1.69713 4.66381 0
M  V30 14092 H 1309.18 -1.21465 5.99213 0
M  V30 14093 H 1313.35 -0.854401 6.91139 0
M  V30 14094 H 1310.98 -0.607497 7.57769 0
M  V30 14095 N 1312.55 -1.36459 -0.788468 0
M  V30 14096 C 1313.78 -1.33703 -1.57502 0
M  V30 14097 C 1314.19 0.0834961 -1.89016 0
M  V30 14098 O 1313.53 1.05107 -1.50659 0
M  V30 14099 C 1313.6 -2.09424 -2.92201 0
M  V30 14100 C 1313.26 -3.58507 -2.83411 0
M  V30 14101 C 1314.26 -4.52736 -2.5559 0
M  V30 14102 C 1311.94 -4.01405 -3.01959 0
M  V30 14103 C 1313.94 -5.87841 -2.46419 0
M  V30 14104 C 1311.62 -5.366 -2.92409 0
M  V30 14105 C 1312.62 -6.29631 -2.64677 0
M  V30 14106 O 1312.31 -7.62343 -2.55124 0
M  V30 14107 H 1312.04 -0.460221 -0.495149 0
M  V30 14108 H 1314.59 -1.80163 -0.986437 0
M  V30 14109 H 1312.82 -1.5763 -3.53114 0
M  V30 14110 H 1314.51 -1.99515 -3.53481 0
M  V30 14111 H 1315.28 -4.20906 -2.40962 0
M  V30 14112 H 1311.16 -3.29367 -3.2255 0
M  V30 14113 H 1314.7 -6.60423 -2.24694 0
M  V30 14114 H 1310.6 -5.68038 -3.066 0
M  V30 14115 H 1311.37 -7.72476 -2.70598 0
M  V30 14116 N 1314.03 1.01274 -1.20754 0
M  V30 14117 C 1315.28 1.74342 -1.01428 0
M  V30 14118 C 1315.59 1.90265 0.453708 0
M  V30 14119 O 1316.8 2.60465 0.76618 0
M  V30 14120 C 1315.25 3.13588 -1.76609 0
M  V30 14121 C 1314.86 3.05664 -3.27526 0
M  V30 14122 C 1316.61 3.9084 -1.65664 0
M  V30 14123 C 1314.51 4.39942 -3.95228 0
M  V30 14124 H 1313.44 0.653619 -0.375897 0
M  V30 14125 H 1316.09 1.13214 -1.44412 0
M  V30 14126 H 1314.48 3.75281 -1.26413 0
M  V30 14127 H 1315.65 2.53256 -3.84965 0
M  V30 14128 H 1313.97 2.41904 -3.38927 0
M  V30 14129 H 1316.56 4.9019 -2.13583 0
M  V30 14130 H 1316.91 4.11754 -0.61351 0
M  V30 14131 H 1317.44 3.35783 -2.13294 0
M  V30 14132 H 1314.18 4.24229 -4.9971 0
M  V30 14133 H 1313.7 4.92342 -3.42578 0
M  V30 14134 H 1315.38 5.08771 -3.99701 0
M  V30 14135 N 1315.51 1.01404 1.20644 0
M  V30 14136 C 1316.44 0.602465 2.25594 0
M  V30 14137 C 1317.42 -0.381216 1.65773 0
M  V30 14138 O 1318.61 -0.267209 1.92353 0
M  V30 14139 C 1315.74 -0.0626245 3.47244 0
M  V30 14140 C 1314.69 0.841776 4.1964 0
M  V30 14141 C 1314.02 0.0426002 5.34683 0
M  V30 14142 C 1315.32 2.14864 4.76058 0
M  V30 14143 H 1317.01 1.47977 2.60275 0
M  V30 14144 H 1314.56 0.712966 1.25111 0
M  V30 14145 H 1316.51 -0.362095 4.19841 0
M  V30 14146 H 1315.23 -0.974627 3.11719 0
M  V30 14147 H 1313.89 1.12521 3.48905 0
M  V30 14148 H 1313.54 -0.870973 4.95402 0
M  V30 14149 H 1313.24 0.644866 5.84051 0
M  V30 14150 H 1314.76 -0.250476 6.10086 0
M  V30 14151 H 1316.18 1.9117 5.40488 0
M  V30 14152 H 1314.57 2.70153 5.35852 0
M  V30 14153 H 1315.64 2.81336 3.9494 0
M  V30 14154 N 1316.99 -1.36373 0.789944 0
M  V30 14155 C 1317.92 -2.32616 0.202944 0
M  V30 14156 C 1318.9 -1.56674 -0.662364 0
M  V30 14157 O 1320.08 -1.84826 -0.596078 0
M  V30 14158 C 1317.21 -3.4092 -0.662646 0
M  V30 14159 C 1316.17 -4.27877 0.102811 0
M  V30 14160 C 1315.49 -5.27352 -0.883407 0
M  V30 14161 C 1316.79 -5.0606 1.29231 0
M  V30 14162 H 1318.49 -2.81958 1.00699 0
M  V30 14163 H 1316.03 -1.35562 0.48568 0
M  V30 14164 H 1317.99 -4.07239 -1.08324 0
M  V30 14165 H 1316.71 -2.90147 -1.4994 0
M  V30 14166 H 1315.37 -3.63114 0.504389 0
M  V30 14167 H 1315.02 -4.72853 -1.71521 0
M  V30 14168 H 1314.72 -5.86398 -0.375669 0
M  V30 14169 H 1316.24 -5.96545 -1.30256 0
M  V30 14170 H 1317.66 -5.65417 0.947446 0
M  V30 14171 H 1316.05 -5.74521 1.73338 0
M  V30 14172 H 1317.12 -4.37671 2.08739 0
M  V30 14173 N 1318.47 -0.542005 -1.47987 0
M  V30 14174 C 1319.41 0.227398 -2.31486 0
M  V30 14175 C 1320.41 0.923984 -1.41982 0
M  V30 14176 O 1321.61 0.847 -1.58827 0
M  V30 14177 H 1317.99 0.0922034 -0.746326 0
M  V30 14178 H 1319.96 -0.49625 -2.94245 0
M  V30 14179 C 1318.71 1.25384 -3.24306 0
M  V30 14180 H 1318.03 0.727243 -3.9313 0
M  V30 14181 H 1319.47 1.76337 -3.85592 0
M  V30 14182 C 1317.93 2.29378 -2.46754 0
M  V30 14183 O 1318.46 3.36034 -2.201 0
M  V30 14184 N 1316.67 2.02905 -2.08033 0
M  V30 14185 H 1316.21 1.16186 -2.2991 0
M  V30 14186 H 1316.17 2.72705 -1.56458 0
M  V30 14187 N 1319.94 1.55134 -0.277709 0
M  V30 14188 C 1320.87 2.256 0.602232 0
M  V30 14189 C 1321.85 1.24708 1.15681 0
M  V30 14190 O 1323.04 1.53433 1.19046 0
M  V30 14191 C 1320.17 2.97907 1.78519 0
M  V30 14192 C 1319.12 4.0575 1.36203 0
M  V30 14193 C 1318.45 4.65644 2.62829 0
M  V30 14194 C 1319.75 5.19801 0.510327 0
M  V30 14195 H 1321.44 2.99396 0.0145622 0
M  V30 14196 H 1318.99 1.43999 0.00556389 0
M  V30 14197 H 1320.94 3.45915 2.40668 0
M  V30 14198 H 1319.67 2.21649 2.39873 0
M  V30 14199 H 1318.33 3.58557 0.763726 0
M  V30 14200 H 1317.97 3.86053 3.22447 0
M  V30 14201 H 1317.67 5.38463 2.35227 0
M  V30 14202 H 1319.2 5.16403 3.25823 0
M  V30 14203 H 1320.61 5.63845 1.03689 0
M  V30 14204 H 1319.01 5.99197 0.329073 0
M  V30 14205 H 1320.08 4.82614 -0.470273 0
M  V30 14206 N 1321.42 0.00503138 1.57599 0
M  V30 14207 C 1322.35 -1.01302 2.05598 0
M  V30 14208 C 1323.37 -1.30388 0.974829 0
M  V30 14209 O 1324.56 -1.27275 1.25153 0
M  V30 14210 C 1321.66 -2.34654 2.44522 0
M  V30 14211 C 1320.83 -2.24436 3.7543 0
M  V30 14212 C 1319.89 -3.40517 4.01166 0
M  V30 14213 O 1318.91 -3.18479 4.71762 0
M  V30 14214 N 1320.12 -4.63532 3.49454 0
M  V30 14215 H 1322.88 -0.603656 2.93558 0
M  V30 14216 H 1320.44 -0.182248 1.60871 0
M  V30 14217 H 1322.43 -3.11093 2.5885 0
M  V30 14218 H 1321 -2.67315 1.62055 0
M  V30 14219 H 1320.22 -1.32875 3.71131 0
M  V30 14220 H 1321.51 -2.14786 4.61242 0
M  V30 14221 H 1320.91 -4.84334 2.92296 0
M  V30 14222 H 1319.47 -5.37221 3.69103 0
M  V30 14223 N 1322.9 -1.55308 -0.267798 0
M  V30 14224 C 1324.18 -1.66881 -1.02029 0
M  V30 14225 C 1324.56 -0.538708 -2.04111 0
M  V30 14226 O 1323.9 0.460575 -2.2381 0
M  V30 14227 C 1324.11 -3.06318 -1.67243 0
M  V30 14228 C 1325.46 -3.64237 -2.18212 0
M  V30 14229 O 1326.49 -3.08984 -1.77221 0
M  V30 14230 O 1325.35 -4.61055 -2.93413 0
M  V30 14231 H 1322.44 -0.677967 -0.473593 0
M  V30 14232 H 1324.99 -1.67646 -0.263242 0
M  V30 14233 H 1323.76 -3.80015 -0.932985 0
M  V30 14234 H 1323.38 -3.09475 -2.49622 0
M  V30 14235 N 1324.38 0.532545 -1.4833 0
M  V30 14236 C 1325.79 1.11451 -1.49785 0
M  V30 14237 C 1326.14 1.94386 -0.266207 0
M  V30 14238 O 1325.26 2.07121 0.62688 0
M  V30 14239 C 1325.86 2.0279 -2.71407 0
M  V30 14240 C 1324.42 2.56209 -2.75742 0
M  V30 14241 C 1323.57 1.33114 -2.43261 0
M  V30 14242 H 1326.52 0.317924 -1.55483 0
M  V30 14243 H 1326.54 2.87038 -2.49779 0
M  V30 14244 H 1326.05 1.42401 -3.61031 0
M  V30 14245 H 1324.15 3.20327 -1.9032 0
M  V30 14246 H 1324.26 2.95518 -3.77102 0
M  V30 14247 H 1322.63 1.64607 -1.94362 0
M  V30 14248 H 1323.41 0.744809 -3.35123 0
M  V30 14249 N 1325.86 1.36875 0.78122 0
M  V30 14250 C 1327.1 1.31559 1.53943 0
M  V30 14251 C 1327.43 -0.10273 1.94229 0
M  V30 14252 O 1326.69 -1.07386 1.63605 0
M  V30 14253 C 1326.98 2.19173 2.82309 0
M  V30 14254 C 1326.65 3.67595 2.61121 0
M  V30 14255 C 1325.31 4.08047 2.55051 0
M  V30 14256 C 1327.66 4.61665 2.41898 0
M  V30 14257 C 1324.99 5.40697 2.27736 0
M  V30 14258 C 1327.34 5.94542 2.16108 0
M  V30 14259 C 1326.01 6.34109 2.08476 0
M  V30 14260 H 1325.28 0.48141 0.563317 0
M  V30 14261 H 1327.93 1.68999 0.900638 0
M  V30 14262 H 1326.23 1.74696 3.50697 0
M  V30 14263 H 1327.93 2.12379 3.40141 0
M  V30 14264 H 1324.52 3.35509 2.66705 0
M  V30 14265 H 1328.7 4.3128 2.45584 0
M  V30 14266 H 1323.96 5.70325 2.20315 0
M  V30 14267 H 1328.13 6.66994 2.0023 0
M  V30 14268 H 1325.76 7.36823 1.87073 0
M  V30 14269 N 1327.33 -1.00632 1.21289 0
M  V30 14270 C 1328.56 -1.78503 1.05601 0
M  V30 14271 C 1328.98 -1.84015 -0.389879 0
M  V30 14272 O 1328.34 -1.28277 -1.2812 0
M  V30 14273 C 1328.39 -3.20313 1.65626 0
M  V30 14274 O 1327.49 -4.02441 0.900841 0
M  V30 14275 H 1326.83 -0.550183 0.371746 0
M  V30 14276 H 1329.36 -1.26505 1.60803 0
M  V30 14277 H 1329.37 -3.70992 1.69792 0
M  V30 14278 H 1328.05 -3.15616 2.7085 0
M  V30 14279 H 1326.63 -3.61009 0.934178 0
M  V30 14280 N 1328.81 -1.02043 -1.20104 0
M  V30 14281 C 1330.04 -0.731142 -1.94085 0
M  V30 14282 C 1330.46 0.702467 -1.74491 0
M  V30 14283 O 1329.82 1.48387 -1.04168 0
M  V30 14284 C 1329.87 -1.07691 -3.44144 0
M  V30 14285 O 1328.97 -0.190751 -4.11959 0
M  V30 14286 H 1328.31 -0.270917 -0.606218 0
M  V30 14287 H 1330.84 -1.36483 -1.52426 0
M  V30 14288 H 1330.85 -1.03023 -3.94779 0
M  V30 14289 H 1329.53 -2.1214 -3.57728 0
M  V30 14290 H 1328.1 -0.29529 -3.71729 0
M  V30 14291 N 1330.29 1.35952 -0.797165 0
M  V30 14292 C 1331.7 1.81554 -0.435311 0
M  V30 14293 C 1332.05 1.66266 1.04164 0
M  V30 14294 O 1331.18 1.18796 1.80877 0
M  V30 14295 C 1331.77 3.29619 -0.783358 0
M  V30 14296 C 1330.33 3.73401 -0.47423 0
M  V30 14297 C 1329.48 2.58098 -1.01394 0
M  V30 14298 H 1332.43 1.24064 -0.989638 0
M  V30 14299 H 1332.45 3.80421 -0.0773381 0
M  V30 14300 H 1331.96 3.40715 -1.85836 0
M  V30 14301 H 1330.06 3.6786 0.592418 0
M  V30 14302 H 1330.18 4.68542 -1.00026 0
M  V30 14303 H 1328.54 2.50927 -0.436747 0
M  V30 14304 H 1329.32 2.71976 -2.09485 0
M  V30 14305 N 1331.77 0.549846 1.47697 0
M  V30 14306 C 1332.7 -0.190364 2.32723 0
M  V30 14307 C 1333.68 -0.915933 1.43334 0
M  V30 14308 O 1334.86 -0.897838 1.72199 0
M  V30 14309 C 1331.99 -1.22545 3.24961 0
M  V30 14310 C 1330.95 -0.616805 4.23532 0
M  V30 14311 C 1330.27 -1.75599 5.05044 0
M  V30 14312 C 1331.57 0.424595 5.20571 0
M  V30 14313 H 1333.27 0.519461 2.94859 0
M  V30 14314 H 1330.81 0.251259 1.41791 0
M  V30 14315 H 1332.77 -1.75139 3.83281 0
M  V30 14316 H 1331.49 -1.96512 2.60865 0
M  V30 14317 H 1330.15 -0.112224 3.66428 0
M  V30 14318 H 1329.8 -2.48453 4.37356 0
M  V30 14319 H 1329.5 -1.35456 5.71774 0
M  V30 14320 H 1331.02 -2.28533 5.6622 0
M  V30 14321 H 1332.44 -0.0150025 5.73298 0
M  V30 14322 H 1330.83 0.7445 5.95464 0
M  V30 14323 H 1331.9 1.32318 4.66497 0
M  V30 14324 N 1333.25 -1.54984 0.285932 0
M  V30 14325 C 1334.18 -2.25916 -0.590259 0
M  V30 14326 C 1335.16 -1.25319 -1.15018 0
M  V30 14327 O 1336.34 -1.54062 -1.18231 0
M  V30 14328 C 1333.47 -2.98849 -1.76936 0
M  V30 14329 C 1332.43 -4.06466 -1.3405 0
M  V30 14330 C 1331.75 -4.67032 -2.60356 0
M  V30 14331 C 1333.05 -5.20064 -0.482754 0
M  V30 14332 H 1334.75 -2.994 0.00131571 0
M  V30 14333 H 1332.29 -1.44 0.00207281 0
M  V30 14334 H 1334.25 -3.47186 -2.3883 0
M  V30 14335 H 1332.97 -2.22918 -2.38694 0
M  V30 14336 H 1331.63 -3.58957 -0.7447 0
M  V30 14337 H 1331.28 -3.87757 -3.20396 0
M  V30 14338 H 1330.98 -5.39703 -2.32368 0
M  V30 14339 H 1332.5 -5.18124 -3.23079 0
M  V30 14340 H 1333.91 -5.64387 -1.00697 0
M  V30 14341 H 1332.31 -5.99363 -0.297291 0
M  V30 14342 H 1333.38 -4.82358 0.495861 0
M  V30 14343 N 1334.72 -0.0133892 -1.57594 0
M  V30 14344 C 1335.95 0.682855 -1.95836 0
M  V30 14345 C 1336.37 1.65763 -0.889049 0
M  V30 14346 O 1335.73 1.80665 0.151585 0
M  V30 14347 C 1335.78 1.37931 -3.33178 0
M  V30 14348 O 1334.88 2.49416 -3.28429 0
M  V30 14349 H 1334.23 0.180629 -0.638959 0
M  V30 14350 H 1336.76 -0.0705644 -2.04478 0
M  V30 14351 H 1336.77 1.73969 -3.69051 0
M  V30 14352 H 1335.44 0.664675 -4.10554 0
M  V30 14353 H 1334.02 2.15606 -3.04251 0
M  V30 14354 N 1336.2 1.55448 0.259558 0
M  V30 14355 C 1337.45 1.7589 0.987201 0
M  V30 14356 C 1337.76 0.574951 1.86959 0
M  V30 14357 O 1338.97 0.662091 2.63303 0
M  V30 14358 C 1337.43 3.11349 1.80526 0
M  V30 14359 C 1337.03 4.37353 0.970882 0
M  V30 14360 C 1338.78 3.41136 2.5264 0
M  V30 14361 C 1336.69 5.63847 1.7841 0
M  V30 14362 H 1335.62 0.655662 0.372321 0
M  V30 14363 H 1338.27 1.81893 0.242332 0
M  V30 14364 H 1336.65 2.9942 2.5916 0
M  V30 14365 H 1337.82 4.60237 0.227763 0
M  V30 14366 H 1336.14 4.14809 0.363669 0
M  V30 14367 H 1338.73 4.32855 3.13912 0
M  V30 14368 H 1339.08 2.61879 3.23612 0
M  V30 14369 H 1339.61 3.54224 1.81026 0
M  V30 14370 H 1336.35 6.4589 1.11834 0
M  V30 14371 H 1335.87 5.45086 2.50283 0
M  V30 14372 H 1337.55 6.02641 2.35441 0
M  V30 14373 N 1337.68 -0.524672 1.4861 0
M  V30 14374 C 1338.93 -1.27671 1.5615 0
M  V30 14375 C 1339.24 -1.94088 0.242709 0
M  V30 14376 O 1340.45 -2.70789 0.196407 0
M  V30 14377 C 1338.9 -2.31686 2.75408 0
M  V30 14378 C 1338.51 -1.71315 4.13951 0
M  V30 14379 C 1340.26 -3.07867 2.92264 0
M  V30 14380 C 1338.16 -2.73302 5.24462 0
M  V30 14381 H 1337.09 -0.480177 0.581332 0
M  V30 14382 H 1339.74 -0.553473 1.74954 0
M  V30 14383 H 1338.13 -3.07069 2.50049 0
M  V30 14384 H 1339.3 -1.02085 4.4935 0
M  V30 14385 H 1337.62 -1.07608 4.02255 0
M  V30 14386 H 1340.21 -3.84088 3.71995 0
M  V30 14387 H 1340.56 -3.64052 2.01921 0
M  V30 14388 H 1341.09 -2.39599 3.17549 0
M  V30 14389 H 1337.83 -2.21929 6.16788 0
M  V30 14390 H 1337.35 -3.40843 4.93544 0
M  V30 14391 H 1339.03 -3.36186 5.528 0
M  V30 14392 N 1339.16 -1.37287 -0.77395 0
M  V30 14393 C 1340.09 -1.28746 -1.89624 0
M  V30 14394 C 1341.1 -0.203715 -1.6152 0
M  V30 14395 O 1342.29 -0.459684 -1.72479 0
M  V30 14396 C 1339.39 -0.967342 -3.24801 0
M  V30 14397 C 1338.57 -2.1561 -3.80567 0
M  V30 14398 C 1337.62 -1.80661 -4.94215 0
M  V30 14399 O 1336.65 -2.5293 -5.09917 0
M  V30 14400 N 1337.85 -0.749424 -5.75642 0
M  V30 14401 H 1340.62 -2.25447 -1.97468 0
M  V30 14402 H 1338.18 -1.30883 -0.952956 0
M  V30 14403 H 1340.17 -0.714421 -3.98344 0
M  V30 14404 H 1338.74 -0.0889573 -3.12473 0
M  V30 14405 H 1337.96 -2.57091 -2.98828 0
M  V30 14406 H 1339.25 -2.94993 -4.14556 0
M  V30 14407 H 1338.65 -0.149673 -5.65502 0
M  V30 14408 H 1337.2 -0.556358 -6.49421 0
M  V30 14409 N 1340.64 0.999871 -1.21821 0
M  V30 14410 C 1341.86 1.77405 -1.06467 0
M  V30 14411 C 1342.28 1.84828 0.385227 0
M  V30 14412 O 1341.64 1.31338 1.26714 0
M  V30 14413 C 1341.69 3.21062 -1.66137 0
M  V30 14414 O 1341.41 3.14054 -3.05454 0
M  V30 14415 C 1342.91 4.14958 -1.55963 0
M  V30 14416 H 1340.13 0.557368 -0.373607 0
M  V30 14417 H 1342.67 1.2575 -1.61267 0
M  V30 14418 H 1340.83 3.69808 -1.15416 0
M  V30 14419 H 1341.24 4.04346 -3.34073 0
M  V30 14420 H 1342.72 5.13536 -2.02448 0
M  V30 14421 H 1343.19 4.36171 -0.514949 0
M  V30 14422 H 1343.8 3.72105 -2.05956 0
M  V30 14423 N 1342.11 1.02678 1.19562 0
M  V30 14424 C 1343.36 0.722016 1.89191 0
M  V30 14425 C 1343.69 -0.749217 1.79491 0
M  V30 14426 O 1342.94 -1.56105 1.18025 0
M  V30 14427 C 1343.24 1.11603 3.39529 0
M  V30 14428 C 1342.91 2.58518 3.69431 0
M  V30 14429 C 1341.57 2.98658 3.77302 0
M  V30 14430 C 1343.92 3.53579 3.82925 0
M  V30 14431 C 1341.25 4.32776 3.96134 0
M  V30 14432 C 1343.6 4.87398 4.0327 0
M  V30 14433 C 1342.27 5.27229 4.09373 0
M  V30 14434 H 1341.54 0.264204 0.692298 0
M  V30 14435 H 1344.18 1.28924 1.41601 0
M  V30 14436 H 1342.49 0.467374 3.89002 0
M  V30 14437 H 1344.19 0.857771 3.91718 0
M  V30 14438 H 1340.78 2.26421 3.63911 0
M  V30 14439 H 1344.96 3.23721 3.76189 0
M  V30 14440 H 1340.22 4.63175 3.99098 0
M  V30 14441 H 1344.39 5.60973 4.12653 0
M  V30 14442 H 1342.02 6.31164 4.23718 0
M  V30 14443 N 1343.59 -1.35528 0.804364 0
M  V30 14444 C 1344.82 -2.03604 0.395013 0
M  V30 14445 C 1345.24 -1.60225 -0.985371 0
M  V30 14446 O 1344.6 -0.777844 -1.63766 0
M  V30 14447 C 1344.65 -3.57337 0.484011 0
M  V30 14448 O 1343.75 -4.09316 -0.503395 0
M  V30 14449 H 1343.09 -0.643089 0.165325 0
M  V30 14450 H 1345.62 -1.73171 1.08963 0
M  V30 14451 H 1345.63 -4.0647 0.353009 0
M  V30 14452 H 1344.31 -3.8826 1.49088 0
M  V30 14453 H 1342.89 -3.71412 -0.332817 0
M  V30 14454 N 1345.07 -0.557671 -1.47404 0
M  V30 14455 C 1346 0.237612 -2.2696 0
M  V30 14456 C 1346.98 0.919871 -1.34079 0
M  V30 14457 O 1348.17 0.938767 -1.63461 0
M  V30 14458 C 1345.29 1.33863 -3.11124 0
M  V30 14459 C 1344.34 0.764877 -4.19585 0
M  V30 14460 S 1345.17 -0.388893 -5.34086 0
M  V30 14461 C 1346.33 0.713932 -6.21815 0
M  V30 14462 H 1346.56 -0.437477 -2.94064 0
M  V30 14463 H 1344.09 -0.344004 -1.50519 0
M  V30 14464 H 1346.05 1.96917 -3.60186 0
M  V30 14465 H 1344.71 1.98556 -2.43381 0
M  V30 14466 H 1343.91 1.5917 -4.78206 0
M  V30 14467 H 1343.51 0.210502 -3.73407 0
M  V30 14468 H 1345.8 1.60592 -6.58192 0
M  V30 14469 H 1346.74 0.165069 -7.07908 0
M  V30 14470 H 1347.15 1.00681 -5.55449 0
M  V30 14471 N 1346.55 1.54831 -0.294147 0
M  V30 14472 C 1347.48 2.19422 0.626821 0
M  V30 14473 C 1348.46 1.16136 1.13804 0
M  V30 14474 O 1349.64 1.44747 1.2075 0
M  V30 14475 C 1346.77 2.83262 1.85689 0
M  V30 14476 C 1345.82 4.00016 1.4795 0
M  V30 14477 S 1346.65 5.32757 0.541307 0
M  V30 14478 C 1347.81 6.00076 1.77932 0
M  V30 14479 H 1348.04 2.97198 0.0780539 0
M  V30 14480 H 1345.57 1.54201 -0.0783131 0
M  V30 14481 H 1347.53 3.20671 2.56282 0
M  V30 14482 H 1346.19 2.05345 2.37681 0
M  V30 14483 H 1345.38 4.43443 2.3953 0
M  V30 14484 H 1344.99 3.64129 0.853573 0
M  V30 14485 H 1347.28 6.20466 2.7208 0
M  V30 14486 H 1348.22 6.94368 1.38774 0
M  V30 14487 H 1348.63 5.29643 1.95292 0
M  V30 14488 N 1348.03 0.0217466 1.57585 0
M  V30 14489 C 1348.96 -0.961069 2.12804 0
M  V30 14490 C 1349.94 -1.3442 1.04237 0
M  V30 14491 O 1351.12 -1.42412 1.32032 0
M  V30 14492 C 1348.25 -2.24586 2.64912 0
M  V30 14493 C 1347.21 -2.0037 3.78201 0
M  V30 14494 C 1346.53 -3.35051 4.16708 0
M  V30 14495 C 1347.83 -1.34879 5.04584 0
M  V30 14496 H 1349.53 -0.501222 2.95175 0
M  V30 14497 H 1347.07 -0.239649 1.41992 0
M  V30 14498 H 1349.03 -2.93715 3.02175 0
M  V30 14499 H 1347.75 -2.72723 1.79693 0
M  V30 14500 H 1346.41 -1.33662 3.41365 0
M  V30 14501 H 1346.06 -3.80932 3.28481 0
M  V30 14502 H 1345.76 -3.19656 4.93045 0
M  V30 14503 H 1347.28 -4.05459 4.56547 0
M  V30 14504 H 1348.7 -1.93997 5.3948 0
M  V30 14505 H 1347.09 -1.29906 5.85871 0
M  V30 14506 H 1348.16 -0.320774 4.83838 0
M  V30 14507 N 1349.51 -1.55583 -0.251311 0
M  V30 14508 C 1350.75 -1.76859 -0.978031 0
M  V30 14509 C 1351.07 -0.584924 -1.86021 0
M  V30 14510 O 1350.34 0.399456 -1.91784 0
M  V30 14511 H 1348.92 -0.652252 -0.364111 0
M  V30 14512 H 1351.59 -1.93016 -0.270319 0
M  V30 14513 H 1350.68 -2.67828 -1.60233 0
M  V30 14514 N 1350.98 0.516783 -1.48886 0
M  V30 14515 C 1352.26 1.27808 -1.48069 0
M  V30 14516 C 1352.64 2.10154 -0.19963 0
M  V30 14517 O 1351.99 2.13342 0.818386 0
M  V30 14518 C 1352.2 2.14828 -2.75045 0
M  V30 14519 C 1353.55 2.74536 -3.23906 0
M  V30 14520 O 1354.57 2.25107 -2.76053 0
M  V30 14521 O 1353.43 3.6448 -4.07206 0
M  V30 14522 H 1350.52 0.577535 -0.591931 0
M  V30 14523 H 1353.07 0.532351 -1.61134 0
M  V30 14524 H 1351.84 1.53852 -3.59785 0
M  V30 14525 H 1351.46 2.96624 -2.64764 0
M  V30 14526 N 1352.46 1.37696 0.766659 0
M  V30 14527 C 1353.71 1.32507 1.52069 0
M  V30 14528 C 1354.02 -0.0864967 1.95409 0
M  V30 14529 O 1355.23 -0.260877 2.70244 0
M  V30 14530 C 1353.69 2.32614 2.74625 0
M  V30 14531 C 1353.29 3.79325 2.38363 0
M  V30 14532 C 1355.04 2.36445 3.52554 0
M  V30 14533 C 1352.94 4.7115 3.57451 0
M  V30 14534 H 1351.87 0.492491 0.570937 0
M  V30 14535 H 1354.53 1.63183 0.839268 0
M  V30 14536 H 1352.91 1.94963 3.44682 0
M  V30 14537 H 1354.08 4.25841 1.76056 0
M  V30 14538 H 1352.4 3.78488 1.73597 0
M  V30 14539 H 1354.99 3.02252 4.41076 0
M  V30 14540 H 1355.34 1.37953 3.92778 0
M  V30 14541 H 1355.87 2.72829 2.89498 0
M  V30 14542 H 1352.61 5.70789 3.22304 0
M  V30 14543 H 1352.13 4.29335 4.18846 0
M  V30 14544 H 1353.81 4.88532 4.242 0
M  V30 14545 N 1353.94 -0.993397 1.22349 0
M  V30 14546 C 1354.89 -2.10463 0.990358 0
M  V30 14547 C 1355.88 -1.6927 -0.0663528 0
M  V30 14548 O 1357.09 -1.79794 0.0860444 0
M  V30 14549 H 1353.46 -0.688222 0.303075 0
M  V30 14550 H 1355.43 -2.273 1.93333 0
M  V30 14551 C 1354.18 -3.42757 0.584205 0
M  V30 14552 H 1353.51 -3.74896 1.38899 0
M  V30 14553 H 1354.95 -4.21492 0.46049 0
M  V30 14554 C 1353.4 -3.29416 -0.706187 0
M  V30 14555 O 1353.93 -3.61152 -1.75875 0
M  V30 14556 N 1352.14 -2.82601 -0.677148 0
M  V30 14557 H 1351.69 -2.56972 0.179712 0
M  V30 14558 H 1351.65 -2.74056 -1.54081 0
M  V30 14559 N 1355.42 -1.03311 -1.19015 0
M  V30 14560 C 1356.65 -0.750712 -1.92478 0
M  V30 14561 C 1357.06 0.694964 -1.75974 0
M  V30 14562 O 1356.4 1.4847 -1.08177 0
M  V30 14563 C 1356.46 -1.02757 -3.44501 0
M  V30 14564 C 1356.12 -2.46565 -3.84779 0
M  V30 14565 C 1357.12 -3.44716 -3.89187 0
M  V30 14566 C 1354.81 -2.81076 -4.16295 0
M  V30 14567 C 1356.8 -4.75433 -4.24549 0
M  V30 14568 C 1354.49 -4.12002 -4.51329 0
M  V30 14569 C 1355.49 -5.08991 -4.55431 0
M  V30 14570 O 1355.17 -6.37571 -4.89652 0
M  V30 14571 H 1354.91 -0.273717 -0.618106 0
M  V30 14572 H 1357.46 -1.38176 -1.51975 0
M  V30 14573 H 1355.69 -0.339383 -3.85208 0
M  V30 14574 H 1357.38 -0.734175 -3.99205 0
M  V30 14575 H 1358.14 -3.19392 -3.64985 0
M  V30 14576 H 1354.02 -2.0626 -4.12284 0
M  V30 14577 H 1357.57 -5.51133 -4.27666 0
M  V30 14578 H 1353.46 -4.37098 -4.7499 0
M  V30 14579 H 1354.23 -6.42107 -5.07583 0
M  V30 14580 N 1356.9 1.35099 -0.81154 0
M  V30 14581 C 1358.31 1.51701 -0.495883 0
M  V30 14582 C 1358.51 1.7595 0.982035 0
M  V30 14583 O 1357.57 1.8038 1.7669 0
M  V30 14584 C 1358.88 2.68916 -1.34554 0
M  V30 14585 C 1360.43 2.82795 -1.34149 0
M  V30 14586 C 1360.9 4.0304 -2.17538 0
M  V30 14587 N 1362.39 4.10227 -2.151 0
M  V30 14588 C 1363.13 5.02397 -2.76377 0
M  V30 14589 N 1362.63 5.99866 -3.46601 0
M  V30 14590 N 1364.42 4.95181 -2.65992 0
M  V30 14591 H 1356.57 1.17617 -1.76862 0
M  V30 14592 H 1358.83 0.575875 -0.753042 0
M  V30 14593 H 1358.54 2.57591 -2.39458 0
M  V30 14594 H 1358.41 3.63641 -1.00223 0
M  V30 14595 H 1360.8 2.93568 -0.300285 0
M  V30 14596 H 1360.88 1.88912 -1.7247 0
M  V30 14597 H 1360.52 3.93027 -3.21702 0
M  V30 14598 H 1360.45 4.96114 -1.76574 0
M  V30 14599 H 1362.95 3.40454 -1.6401 0
M  V30 14600 H 1363.26 6.66803 -3.90632 0
M  V30 14601 H 1361.6 6.00025 -3.50706 0
M  V30 14602 H 1364.79 4.17991 -2.10715 0
M  V30 14603 H 1364.97 5.6682 -3.14036 0
M  V30 14604 N 1358.37 0.56548 1.47106 0
M  V30 14605 C 1359.28 -0.180488 2.33905 0
M  V30 14606 C 1360.3 -0.90355 1.48701 0
M  V30 14607 O 1361.48 -0.870595 1.81611 0
M  V30 14608 C 1358.54 -1.19212 3.2556 0
M  V30 14609 C 1357.6 -0.475589 4.26658 0
M  V30 14610 C 1356.83 -1.43902 5.13934 0
M  V30 14611 O 1357.06 -2.67443 5.03816 0
M  V30 14612 O 1355.99 -0.958998 5.94211 0
M  V30 14613 H 1359.82 0.531726 2.99009 0
M  V30 14614 H 1357.4 0.32602 1.45799 0
M  V30 14615 H 1359.28 -1.77586 3.82153 0
M  V30 14616 H 1357.96 -1.8861 2.63074 0
M  V30 14617 H 1356.87 0.149561 3.73801 0
M  V30 14618 H 1358.2 0.177103 4.91881 0
M  V30 14619 N 1359.85 -1.54672 0.302354 0
M  V30 14620 C 1361.08 -2.05041 -0.311891 0
M  V30 14621 C 1361.5 -1.17814 -1.46634 0
M  V30 14622 O 1360.86 -0.182517 -1.80379 0
M  V30 14623 C 1360.91 -3.52831 -0.744489 0
M  V30 14624 O 1360.01 -3.68621 -1.84913 0
M  V30 14625 H 1359.35 -0.661255 -0.0603102 0
M  V30 14626 H 1361.88 -1.99711 0.444593 0
M  V30 14627 H 1361.89 -3.94708 -1.03293 0
M  V30 14628 H 1360.57 -4.1578 0.0999976 0
M  V30 14629 H 1359.15 -3.38649 -1.56113 0
M  V30 14630 N 1361.33 -0.0301034 -1.57571 0
M  V30 14631 C 1362.58 0.648323 -1.91841 0
M  V30 14632 C 1362.91 1.72078 -0.906601 0
M  V30 14633 O 1362.16 1.95518 0.0843233 0
M  V30 14634 C 1362.46 1.30206 -3.32838 0
M  V30 14635 C 1362.13 0.359876 -4.49462 0
M  V30 14636 C 1360.79 0.100552 -4.81095 0
M  V30 14637 C 1363.14 -0.287048 -5.20409 0
M  V30 14638 C 1360.47 -0.813484 -5.81033 0
M  V30 14639 C 1362.82 -1.18914 -6.21323 0
M  V30 14640 C 1361.48 -1.45735 -6.51397 0
M  V30 14641 H 1360.75 0.237238 -0.701997 0
M  V30 14642 H 1363.4 -0.0920804 -1.91278 0
M  V30 14643 H 1361.71 2.11724 -3.29667 0
M  V30 14644 H 1363.4 1.83356 -3.56625 0
M  V30 14645 H 1359.99 0.572172 -4.24764 0
M  V30 14646 H 1364.18 -0.0997611 -4.962 0
M  V30 14647 H 1359.43 -1.02897 -6.02679 0
M  V30 14648 H 1363.61 -1.69661 -6.75417 0
M  V30 14649 H 1361.23 -2.16727 -7.28652 0
M  V30 14650 N 1362.81 1.55714 0.243056 0
M  V30 14651 C 1363.74 1.93655 1.30461 0
M  V30 14652 C 1364.72 0.801968 1.50008 0
M  V30 14653 O 1365.9 1.06256 1.62552 0
M  V30 14654 C 1363.03 2.23459 2.65863 0
M  V30 14655 C 1361.99 3.39205 2.61006 0
M  V30 14656 C 1361.31 3.5456 4.00239 0
M  V30 14657 C 1362.61 4.74787 2.17656 0
M  V30 14658 H 1364.31 2.82575 0.98954 0
M  V30 14659 H 1361.85 1.35955 0.474572 0
M  V30 14660 H 1363.81 2.48591 3.40266 0
M  V30 14661 H 1362.53 1.31369 2.99014 0
M  V30 14662 H 1361.19 3.14088 1.89061 0
M  V30 14663 H 1360.84 2.59884 4.30661 0
M  V30 14664 H 1360.54 4.32399 3.97876 0
M  V30 14665 H 1362.06 3.82017 4.76335 0
M  V30 14666 H 1363.48 4.99266 2.81792 0
M  V30 14667 H 1361.87 5.55756 2.26397 0
M  V30 14668 H 1362.94 4.7159 1.12831 0
M  V30 14669 N 1364.29 -0.50888 1.49158 0
M  V30 14670 C 1365.2 -1.63782 1.67966 0
M  V30 14671 C 1366.21 -1.64667 0.562207 0
M  V30 14672 O 1367.39 -1.83232 0.835935 0
M  V30 14673 C 1364.45 -3.00179 1.73474 0
M  V30 14674 C 1363.51 -3.09983 2.97 0
M  V30 14675 C 1362.75 -4.39875 3.02235 0
M  V30 14676 O 1362.97 -5.28214 2.15282 0
M  V30 14677 O 1361.9 -4.54486 3.94621 0
M  V30 14678 H 1365.73 -1.50846 2.63589 0
M  V30 14679 H 1363.32 -0.684306 1.32807 0
M  V30 14680 H 1365.2 -3.8126 1.79495 0
M  V30 14681 H 1363.87 -3.13394 0.810287 0
M  V30 14682 H 1362.78 -2.28119 2.965 0
M  V30 14683 H 1364.11 -3.01693 3.88899 0
M  V30 14684 N 1365.76 -1.381 -0.759346 0
M  V30 14685 C 1367.18 -1.30379 -1.33635 0
M  V30 14686 C 1367.53 0.0430279 -1.96153 0
M  V30 14687 O 1366.65 0.945029 -1.94675 0
M  V30 14688 C 1367.25 -2.3611 -2.42976 0
M  V30 14689 C 1365.81 -2.31985 -2.96412 0
M  V30 14690 C 1364.95 -2.19281 -1.69739 0
M  V30 14691 H 1367.9 -1.48542 -0.558656 0
M  V30 14692 H 1367.92 -2.01493 -3.22771 0
M  V30 14693 H 1367.44 -3.34122 -1.97445 0
M  V30 14694 H 1365.54 -1.37536 -3.46287 0
M  V30 14695 H 1365.65 -3.25895 -3.51183 0
M  V30 14696 H 1364.01 -1.66035 -1.93144 0
M  V30 14697 H 1364.8 -3.19225 -1.26293 0
M  V30 14698 N 1367.24 0.986894 -1.22875 0
M  V30 14699 C 1368.47 1.7601 -1.08185 0
M  V30 14700 C 1368.88 1.85545 0.370088 0
M  V30 14701 O 1368.22 1.32915 1.26804 0
M  V30 14702 C 1368.29 3.20661 -1.62532 0
M  V30 14703 C 1367.95 3.34655 -3.11216 0
M  V30 14704 C 1368.95 3.21493 -4.08581 0
M  V30 14705 C 1366.63 3.59512 -3.50794 0
M  V30 14706 C 1368.63 3.32983 -5.43508 0
M  V30 14707 C 1366.31 3.70642 -4.85868 0
M  V30 14708 C 1367.31 3.57387 -5.82034 0
M  V30 14709 O 1367 3.68135 -7.14655 0
M  V30 14710 H 1366.73 0.559402 -0.379533 0
M  V30 14711 H 1369.28 1.24905 -1.63058 0
M  V30 14712 H 1367.51 3.72985 -1.02073 0
M  V30 14713 H 1369.2 3.7972 -1.43415 0
M  V30 14714 H 1369.97 3.02193 -3.79347 0
M  V30 14715 H 1365.85 3.68904 -2.76461 0
M  V30 14716 H 1369.39 3.22553 -6.18551 0
M  V30 14717 H 1365.29 3.89451 -5.1478 0
M  V30 14718 H 1366.06 3.84971 -7.22316 0
M  V30 14719 N 1368.72 1.0394 1.18466 0
M  V30 14720 C 1369.65 0.650182 2.24265 0
M  V30 14721 C 1370.63 -0.345968 1.66545 0
M  V30 14722 O 1371.82 -0.226348 1.92876 0
M  V30 14723 C 1368.95 0.0110451 3.47298 0
M  V30 14724 C 1367.9 0.930599 4.17761 0
M  V30 14725 C 1367.23 0.156005 5.34472 0
M  V30 14726 C 1368.53 2.24913 4.71393 0
M  V30 14727 H 1370.22 1.53465 2.57078 0
M  V30 14728 H 1367.77 0.739343 1.23571 0
M  V30 14729 H 1369.72 -0.272959 4.20515 0
M  V30 14730 H 1368.44 -0.908288 3.13716 0
M  V30 14731 H 1367.1 1.19897 3.4644 0
M  V30 14732 H 1366.75 -0.765695 4.97138 0
M  V30 14733 H 1366.45 0.768606 5.82551 0
M  V30 14734 H 1367.97 -0.121011 6.1048 0
M  V30 14735 H 1369.39 2.02592 5.36311 0
M  V30 14736 H 1367.79 2.81459 5.30001 0
M  V30 14737 H 1368.86 2.8965 3.88884 0
M  V30 14738 N 1370.2 -1.34667 0.818693 0
M  V30 14739 C 1371.61 -1.51436 0.503921 0
M  V30 14740 C 1371.81 -1.76468 -0.972691 0
M  V30 14741 O 1370.87 -1.81314 -1.75731 0
M  V30 14742 C 1372.18 -2.68198 1.35978 0
M  V30 14743 C 1373.73 -2.8208 1.35647 0
M  V30 14744 C 1374.21 -4.01881 2.19672 0
M  V30 14745 N 1375.7 -4.0908 2.17273 0
M  V30 14746 C 1376.43 -5.00925 2.79038 0
M  V30 14747 N 1375.93 -5.9802 3.49777 0
M  V30 14748 N 1377.72 -4.93764 2.68615 0
M  V30 14749 H 1369.87 -1.16677 1.77483 0
M  V30 14750 H 1372.14 -0.571873 0.756085 0
M  V30 14751 H 1371.84 -2.56317 2.4082 0
M  V30 14752 H 1371.72 -3.63105 1.0215 0
M  V30 14753 H 1374.1 -2.93405 0.315849 0
M  V30 14754 H 1374.18 -1.87994 1.7347 0
M  V30 14755 H 1373.83 -3.91316 3.23781 0
M  V30 14756 H 1373.76 -4.95171 1.79202 0
M  V30 14757 H 1376.25 -3.3958 1.65814 0
M  V30 14758 H 1376.56 -6.64722 3.94162 0
M  V30 14759 H 1374.91 -5.98157 3.53883 0
M  V30 14760 H 1378.1 -4.16868 2.12929 0
M  V30 14761 H 1378.27 -5.65147 3.17038 0
M  V30 14762 N 1371.68 -0.573274 -1.46804 0
M  V30 14763 C 1372.62 0.178246 -2.31916 0
M  V30 14764 C 1373.62 0.89366 -1.4391 0
M  V30 14765 O 1374.82 0.81312 -1.60588 0
M  V30 14766 H 1371.2 0.0763519 -0.748114 0
M  V30 14767 H 1373.17 -0.558552 -2.93126 0
M  V30 14768 C 1371.92 1.18476 -3.26892 0
M  V30 14769 H 1371.24 0.643691 -3.94584 0
M  V30 14770 H 1372.68 1.68118 -3.89246 0
M  V30 14771 C 1371.14 2.24092 -2.51564 0
M  V30 14772 O 1371.67 3.3129 -2.27178 0
M  V30 14773 N 1369.88 1.98447 -2.1229 0
M  V30 14774 H 1369.42 1.11283 -2.32323 0
M  V30 14775 H 1369.38 2.69325 -1.62207 0
M  V30 14776 N 1373.15 1.5451 -0.310553 0
M  V30 14777 C 1374.06 2.27557 0.570518 0
M  V30 14778 C 1375.08 1.31426 1.14032 0
M  V30 14779 O 1376.26 1.64423 1.16306 0
M  V30 14780 C 1373.32 3.00933 1.72163 0
M  V30 14781 C 1372.38 4.12623 1.18495 0
M  V30 14782 C 1371.62 4.8249 2.28121 0
M  V30 14783 O 1371.84 4.5178 3.48211 0
M  V30 14784 O 1370.77 5.69686 1.94273 0
M  V30 14785 H 1374.6 3.03692 -0.0223195 0
M  V30 14786 H 1372.18 1.49203 -0.0766821 0
M  V30 14787 H 1374.07 3.46925 2.39208 0
M  V30 14788 H 1372.74 2.27685 2.3009 0
M  V30 14789 H 1371.65 3.71008 0.479956 0
M  V30 14790 H 1372.98 4.87876 0.650994 0
M  V30 14791 N 1374.63 0.0384594 1.57553 0
M  V30 14792 C 1375.56 -0.938444 2.13812 0
M  V30 14793 C 1376.54 -1.33307 1.05657 0
M  V30 14794 O 1377.73 -1.41003 1.33535 0
M  V30 14795 C 1374.86 -2.21764 2.67279 0
M  V30 14796 C 1373.81 -1.96347 3.80305 0
M  V30 14797 C 1373.14 -3.30612 4.20238 0
M  V30 14798 C 1374.44 -1.2952 5.05986 0
M  V30 14799 H 1376.13 -0.469887 2.9569 0
M  V30 14800 H 1373.68 -0.224576 1.42238 0
M  V30 14801 H 1375.63 -2.90493 3.05273 0
M  V30 14802 H 1374.36 -2.70802 1.82576 0
M  V30 14803 H 1373.02 -1.30033 3.42764 0
M  V30 14804 H 1372.66 -3.77427 3.32502 0
M  V30 14805 H 1372.36 -3.14409 4.96408 0
M  V30 14806 H 1373.89 -4.00594 4.60822 0
M  V30 14807 H 1375.3 -1.88264 5.41507 0
M  V30 14808 H 1373.7 -1.23685 5.87216 0
M  V30 14809 H 1374.77 -0.269439 4.84151 0
M  V30 14810 N 1376.11 -1.55841 -0.234795 0
M  V30 14811 C 1377.07 -1.9051 -1.2743 0
M  V30 14812 C 1378.07 -0.782543 -1.40474 0
M  V30 14813 O 1379.26 -1.05043 -1.38966 0
M  V30 14814 C 1376.4 -2.14424 -2.65019 0
M  V30 14815 H 1377.59 -2.83471 -0.979003 0
M  V30 14816 H 1375.14 -1.48919 -0.47463 0
M  V30 14817 H 1375.88 -1.23972 -2.99669 0
M  V30 14818 H 1375.66 -2.96191 -2.56931 0
M  V30 14819 H 1377.15 -2.42388 -3.40056 0
M  V30 14820 N 1377.59 0.500963 -1.49426 0
M  V30 14821 C 1378.54 1.59939 -1.62492 0
M  V30 14822 C 1379.52 1.53555 -0.480584 0
M  V30 14823 O 1380.72 1.61085 -0.733538 0
M  V30 14824 C 1377.84 2.98549 -1.6948 0
M  V30 14825 C 1376.93 3.09929 -2.89491 0
M  V30 14826 N 1377.32 2.91198 -4.13567 0
M  V30 14827 C 1375.62 3.41029 -2.87428 0
M  V30 14828 C 1376.32 3.06761 -4.94239 0
M  V30 14829 N 1375.3 3.35639 -4.27606 0
M  V30 14830 H 1379.1 1.44111 -2.56143 0
M  V30 14831 H 1376.61 0.707088 -1.46199 0
M  V30 14832 H 1378.61 3.7749 -1.76938 0
M  V30 14833 H 1377.27 3.15446 -0.769658 0
M  V30 14834 H 1378.28 2.67373 -4.43545 0
M  V30 14835 H 1374.96 3.64103 -2.04293 0
M  V30 14836 H 1376.35 2.96772 -6.02807 0
M  V30 14837 N 1379.07 1.38501 0.752011 0
M  V30 14838 C 1380.48 1.31086 1.32941 0
M  V30 14839 C 1380.83 -0.0326248 1.96173 0
M  V30 14840 O 1379.95 -0.934692 1.95173 0
M  V30 14841 C 1380.55 2.37395 2.41721 0
M  V30 14842 C 1379.11 2.33553 2.95177 0
M  V30 14843 C 1378.26 2.20178 1.68573 0
M  V30 14844 H 1381.21 1.48836 0.550771 0
M  V30 14845 H 1381.23 2.03202 3.21697 0
M  V30 14846 H 1380.74 3.35164 1.9567 0
M  V30 14847 H 1378.84 1.39371 3.45553 0
M  V30 14848 H 1378.95 3.27753 3.49449 0
M  V30 14849 H 1377.32 1.67057 1.9226 0
M  V30 14850 H 1378.1 3.19891 1.24599 0
M  V30 14851 N 1380.55 -0.980364 1.23396 0
M  V30 14852 C 1381.79 -1.72421 1.06765 0
M  V30 14853 C 1382.12 -1.90151 -0.394515 0
M  V30 14854 O 1381.4 -1.4538 -1.29209 0
M  V30 14855 C 1381.68 -3.12246 1.79372 0
M  V30 14856 C 1381.54 -3.02087 3.33262 0
M  V30 14857 C 1382.85 -4.11667 1.55624 0
M  V30 14858 H 1379.97 -0.625822 0.389251 0
M  V30 14859 H 1382.62 -1.14132 1.51901 0
M  V30 14860 H 1380.77 -3.62008 1.41004 0
M  V30 14861 H 1382.44 -2.59848 3.81152 0
M  V30 14862 H 1380.68 -2.38592 3.62293 0
M  V30 14863 H 1381.35 -4.01087 3.79254 0
M  V30 14864 H 1383.83 -3.70712 1.88975 0
M  V30 14865 H 1382.7 -5.07593 2.08902 0
M  V30 14866 H 1382.96 -4.39358 0.491601 0
M  V30 14867 N 1382.02 -1.04567 -1.17913 0
M  V30 14868 C 1382.95 -0.662066 -2.23917 0
M  V30 14869 C 1383.93 0.33713 -1.66726 0
M  V30 14870 O 1385.12 0.216116 -1.92994 0
M  V30 14871 C 1382.25 -0.029463 -3.47288 0
M  V30 14872 C 1381.2 -0.95274 -4.17261 0
M  V30 14873 C 1380.53 -0.184347 -5.34382 0
M  V30 14874 C 1381.83 -2.2741 -4.70194 0
M  V30 14875 H 1383.52 -1.54826 -2.5626 0
M  V30 14876 H 1381.07 -0.745886 -1.23177 0
M  V30 14877 H 1383.02 0.250654 -4.20654 0
M  V30 14878 H 1381.75 0.891638 -3.14193 0
M  V30 14879 H 1380.41 -1.21732 -3.45799 0
M  V30 14880 H 1380.05 0.73932 -4.97537 0
M  V30 14881 H 1379.75 -0.79949 -5.82136 0
M  V30 14882 H 1381.28 0.0886344 -6.10536 0
M  V30 14883 H 1382.69 -2.05433 -5.35229 0
M  V30 14884 H 1381.09 -2.84265 -5.28501 0
M  V30 14885 H 1382.16 -2.91708 -3.87342 0
M  V30 14886 N 1383.5 1.34231 -0.825823 0
M  V30 14887 C 1384.73 2.02949 -0.427354 0
M  V30 14888 C 1385.15 1.61772 0.959755 0
M  V30 14889 O 1384.51 0.803799 1.62508 0
M  V30 14890 C 1384.56 3.56522 -0.540799 0
M  V30 14891 O 1383.66 4.10065 0.438213 0
M  V30 14892 H 1383 0.640378 -0.175535 0
M  V30 14893 H 1385.53 1.71416 -1.11704 0
M  V30 14894 H 1385.54 4.05857 -0.41763 0
M  V30 14895 H 1384.22 3.85839 -1.55246 0
M  V30 14896 H 1382.79 3.71894 0.273687 0
M  V30 14897 N 1384.98 0.581051 1.46498 0
M  V30 14898 C 1386.23 0.0659956 2.02392 0
M  V30 14899 C 1386.55 -1.29329 1.45273 0
M  V30 14900 O 1385.81 -1.86047 0.607041 0
M  V30 14901 C 1386.11 -0.0514774 3.57363 0
M  V30 14902 C 1385.77 1.24 4.33514 0
M  V30 14903 C 1384.44 1.59383 4.54038 0
M  V30 14904 C 1386.79 2.09473 4.77253 0
M  V30 14905 C 1384.12 2.8004 5.15552 0
M  V30 14906 C 1386.47 3.29355 5.401 0
M  V30 14907 C 1385.13 3.65022 5.58852 0
M  V30 14908 H 1384.4 0.0241495 0.740606 0
M  V30 14909 H 1387.05 0.757354 1.75887 0
M  V30 14910 H 1385.35 -0.825955 3.82995 0
M  V30 14911 H 1387.05 -0.465726 3.98286 0
M  V30 14912 H 1383.64 0.954547 4.17835 0
M  V30 14913 H 1387.83 1.83441 4.61154 0
M  V30 14914 H 1383.08 3.07814 5.28262 0
M  V30 14915 H 1387.26 3.95855 5.7295 0
M  V30 14916 H 1384.88 4.58607 6.06287 0
M  V30 14917 N 1386.46 -1.54343 0.318742 0
M  V30 14918 C 1387.42 -2.22828 -0.536679 0
M  V30 14919 C 1388.42 -1.22013 -1.04735 0
M  V30 14920 O 1389.61 -1.46626 -0.940549 0
M  V30 14921 C 1386.74 -2.92857 -1.74493 0
M  V30 14922 H 1387.94 -2.99836 0.0619325 0
M  V30 14923 H 1385.49 -1.56144 0.0697687 0
M  V30 14924 H 1386.22 -2.19973 -2.3829 0
M  V30 14925 H 1386.01 -3.66779 -1.38621 0
M  V30 14926 H 1387.5 -3.45049 -2.35225 0
M  V30 14927 N 1387.94 -0.0468143 -1.5753 0
M  V30 14928 C 1388.87 0.958157 -2.08211 0
M  V30 14929 C 1389.88 1.27757 -1.00906 0
M  V30 14930 O 1391.07 1.23913 -1.28483 0
M  V30 14931 C 1388.17 2.28088 -2.50657 0
M  V30 14932 C 1387.34 2.14403 -3.81248 0
M  V30 14933 C 1386.4 3.29761 -4.10054 0
M  V30 14934 O 1385.43 3.05859 -4.8004 0
M  V30 14935 N 1386.63 4.54104 -3.61621 0
M  V30 14936 H 1389.39 0.525612 -2.95055 0
M  V30 14937 H 1386.96 0.139532 -1.61298 0
M  V30 14938 H 1388.95 3.04121 -2.67007 0
M  V30 14939 H 1387.52 2.62924 -1.69085 0
M  V30 14940 H 1386.74 1.22988 -3.74523 0
M  V30 14941 H 1388.03 2.02482 -4.66775 0
M  V30 14942 H 1387.42 4.76414 -3.05034 0
M  V30 14943 H 1385.98 5.27246 -3.83217 0
M  V30 14944 N 1389.41 1.55964 0.226527 0
M  V30 14945 C 1390.34 1.95028 1.284 0
M  V30 14946 C 1391.33 0.817833 1.49149 0
M  V30 14947 O 1392.51 1.07975 1.61416 0
M  V30 14948 C 1389.64 2.26266 2.63478 0
M  V30 14949 C 1388.59 3.41954 2.57393 0
M  V30 14950 C 1387.92 3.58786 3.96456 0
M  V30 14951 C 1389.22 4.77069 2.12608 0
M  V30 14952 H 1390.91 2.83608 0.959513 0
M  V30 14953 H 1388.46 1.36451 0.460125 0
M  V30 14954 H 1390.41 2.52186 3.3761 0
M  V30 14955 H 1389.14 1.34533 2.97604 0
M  V30 14956 H 1387.8 3.16076 1.85719 0
M  V30 14957 H 1387.44 2.64437 4.27881 0
M  V30 14958 H 1387.14 4.36595 3.93267 0
M  V30 14959 H 1388.67 3.87048 4.72256 0
M  V30 14960 H 1390.08 5.02226 2.76481 0
M  V30 14961 H 1388.48 5.58126 2.2049 0
M  V30 14962 H 1389.55 4.7276 1.07823 0
M  V30 14963 N 1390.89 -0.493031 1.4969 0
M  V30 14964 C 1392.14 -1.24849 1.59814 0
M  V30 14965 C 1392.47 -1.92059 0.287555 0
M  V30 14966 O 1391.75 -1.81099 -0.709471 0
M  V30 14967 C 1392.03 -2.30929 2.76304 0
M  V30 14968 C 1391.88 -1.68167 4.17181 0
M  V30 14969 C 1393.2 -3.32427 2.8841 0
M  V30 14970 H 1390.32 -0.452553 0.581691 0
M  V30 14971 H 1392.96 -0.545455 1.82002 0
M  V30 14972 H 1391.11 -2.9089 2.57517 0
M  V30 14973 H 1392.78 -1.11971 4.47504 0
M  V30 14974 H 1391.03 -0.985496 4.22458 0
M  V30 14975 H 1391.7 -2.45148 4.94577 0
M  V30 14976 H 1394.17 -2.82464 3.05537 0
M  V30 14977 H 1393.05 -4.04004 3.71581 0
M  V30 14978 H 1393.31 -3.95234 1.98097 0
M  V30 14979 N 1392.37 -1.38898 -0.744656 0
M  V30 14980 C 1393.6 -1.3903 -1.53901 0
M  V30 14981 C 1394.02 0.0156607 -1.88093 0
M  V30 14982 O 1393.38 1.00012 -1.51219 0
M  V30 14983 C 1393.43 -2.2609 -2.80919 0
M  V30 14984 O 1392.53 -1.68414 -3.76444 0
M  V30 14985 H 1391.87 -0.473854 -0.465144 0
M  V30 14986 H 1394.4 -1.82773 -0.919525 0
M  V30 14987 H 1394.41 -2.40264 -3.29754 0
M  V30 14988 H 1393.09 -3.28271 -2.55364 0
M  V30 14989 H 1391.66 -1.63431 -3.35179 0
M  V30 14990 N 1393.85 0.973806 -1.23914 0
M  V30 14991 C 1395.1 1.71598 -1.07519 0
M  V30 14992 C 1395.42 1.90613 0.386926 0
M  V30 14993 O 1394.68 1.46056 1.30254 0
M  V30 14994 C 1394.98 3.11441 -1.75326 0
M  V30 14995 C 1394.64 3.12286 -3.25251 0
M  V30 14996 C 1393.31 3.12224 -3.66155 0
M  V30 14997 C 1395.66 3.0709 -4.21124 0
M  V30 14998 C 1392.99 3.0469 -5.01379 0
M  V30 14999 C 1395.34 3.01098 -5.56348 0
M  V30 15000 C 1394 2.99362 -5.96606 0
M  V30 15001 H 1393.27 0.627922 -0.39344 0
M  V30 15002 H 1395.92 1.13912 -1.53936 0
M  V30 15003 H 1394.22 3.72555 -1.21286 0
M  V30 15004 H 1395.92 3.67649 -1.60111 0
M  V30 15005 H 1392.51 3.13096 -2.92693 0
M  V30 15006 H 1396.69 3.06272 -3.90527 0
M  V30 15007 H 1391.95 3.01703 -5.31776 0
M  V30 15008 H 1396.12 2.96036 -6.30346 0
M  V30 15009 H 1393.75 2.93279 -7.0135 0
M  V30 15010 N 1395.33 1.05191 1.17357 0
M  V30 15011 C 1396.55 0.782373 1.91537 0
M  V30 15012 C 1396.97 -0.661935 1.76816 0
M  V30 15013 O 1396.33 -1.45221 1.10531 0
M  V30 15014 C 1396.38 1.15357 3.426 0
M  V30 15015 O 1396.1 2.54119 3.56869 0
M  V30 15016 C 1397.6 0.910167 4.33856 0
M  V30 15017 H 1394.82 0.284461 0.607719 0
M  V30 15018 H 1397.36 1.40259 1.48821 0
M  V30 15019 H 1395.52 0.578107 3.83062 0
M  V30 15020 H 1395.93 2.68668 4.50464 0
M  V30 15021 H 1397.41 1.21964 5.38358 0
M  V30 15022 H 1397.88 -0.154624 4.38928 0
M  V30 15023 H 1398.49 1.46947 3.99107 0
M  V30 15024 N 1396.8 -1.33791 0.83293 0
M  V30 15025 C 1398.05 -1.97233 0.422127 0
M  V30 15026 C 1398.37 -1.66738 -1.02264 0
M  V30 15027 O 1399.57 -2.23747 -1.53783 0
M  V30 15028 C 1398.03 -3.5295 0.703872 0
M  V30 15029 C 1397.64 -3.92329 2.16292 0
M  V30 15030 C 1399.38 -4.22973 0.359727 0
M  V30 15031 C 1397.29 -5.40999 2.38903 0
M  V30 15032 H 1396.22 -0.738082 0.154112 0
M  V30 15033 H 1398.87 -1.52494 1.02068 0
M  V30 15034 H 1397.25 -3.95985 0.0350184 0
M  V30 15035 H 1398.42 -3.6037 2.87176 0
M  V30 15036 H 1396.74 -3.35271 2.46947 0
M  V30 15037 H 1399.34 -5.32297 0.506366 0
M  V30 15038 H 1399.68 -4.10428 -0.696743 0
M  V30 15039 H 1400.21 -3.85449 0.983568 0
M  V30 15040 H 1396.95 -5.58541 3.43093 0
M  V30 15041 H 1396.47 -5.74438 1.72573 0
M  V30 15042 H 1398.15 -6.07809 2.2176 0
M  V30 15043 N 1398.28 -0.588812 -1.46187 0
M  V30 15044 C 1399.53 -0.076728 -2.02355 0
M  V30 15045 C 1399.86 1.28557 -1.45956 0
M  V30 15046 O 1399.11 1.85722 -0.616899 0
M  V30 15047 C 1399.41 0.0325249 -3.57385 0
M  V30 15048 C 1399.08 -1.26298 -4.32851 0
M  V30 15049 C 1397.74 -1.61789 -4.53186 0
M  V30 15050 C 1400.09 -2.12001 -4.76136 0
M  V30 15051 C 1397.42 -2.82771 -5.1406 0
M  V30 15052 C 1399.77 -3.32214 -5.38346 0
M  V30 15053 C 1398.44 -3.6798 -5.56908 0
M  V30 15054 H 1397.71 -0.0280768 -0.740468 0
M  V30 15055 H 1400.35 -0.766671 -1.75483 0
M  V30 15056 H 1398.66 0.805632 -3.83428 0
M  V30 15057 H 1400.35 0.444597 -3.98528 0
M  V30 15058 H 1396.94 -0.976692 -4.17323 0
M  V30 15059 H 1401.13 -1.85884 -4.60175 0
M  V30 15060 H 1396.38 -3.10611 -5.26622 0
M  V30 15061 H 1400.56 -3.98888 -5.70843 0
M  V30 15062 H 1398.19 -4.61815 -6.03846 0
M  V30 15063 N 1399.76 1.54172 -0.326923 0
M  V30 15064 C 1401.01 2.00926 0.275047 0
M  V30 15065 C 1401.34 1.21469 1.51522 0
M  V30 15066 O 1400.61 0.297871 1.92206 0
M  V30 15067 C 1400.9 3.54967 0.605833 0
M  V30 15068 C 1400.75 4.45147 -0.645279 0
M  V30 15069 C 1402.07 4.16489 1.42213 0
M  V30 15070 H 1399.19 0.730389 0.098495 0
M  V30 15071 H 1401.83 1.84735 -0.444168 0
M  V30 15072 H 1399.98 3.68895 1.21857 0
M  V30 15073 H 1401.65 4.43085 -1.2835 0
M  V30 15074 H 1399.9 4.14686 -1.27349 0
M  V30 15075 H 1400.57 5.50763 -0.36932 0
M  V30 15076 H 1403.04 4.06158 0.904172 0
M  V30 15077 H 1401.92 5.24377 1.62234 0
M  V30 15078 H 1402.18 3.70032 2.41928 0
M  V30 15079 N 1401.24 0.0551678 1.57503 0
M  V30 15080 C 1402.65 -0.479948 1.80426 0
M  V30 15081 C 1403 -1.70673 0.967733 0
M  V30 15082 O 1402.13 -2.15604 0.185462 0
M  V30 15083 C 1402.72 -0.877496 3.27239 0
M  V30 15084 C 1401.28 -1.35757 3.51066 0
M  V30 15085 C 1400.43 -0.334681 2.75273 0
M  V30 15086 H 1403.38 0.281016 1.56192 0
M  V30 15087 H 1403.4 -1.74013 3.38378 0
M  V30 15088 H 1402.91 0.015571 3.88097 0
M  V30 15089 H 1401.01 -2.26969 2.95492 0
M  V30 15090 H 1401.12 -1.34697 4.59776 0
M  V30 15091 H 1399.49 -0.808421 2.4153 0
M  V30 15092 H 1400.27 0.550369 3.3886 0
M  V30 15093 N 1402.72 -1.56081 -0.218252 0
M  V30 15094 C 1403.97 -1.78445 -0.94022 0
M  V30 15095 C 1404.28 -0.624317 -1.85369 0
M  V30 15096 O 1405.48 -0.731669 -2.61455 0
M  V30 15097 C 1403.94 -3.16026 -1.72208 0
M  V30 15098 C 1403.55 -4.39774 -0.854584 0
M  V30 15099 C 1405.29 -3.47714 -2.43506 0
M  V30 15100 C 1403.2 -5.68379 -1.63398 0
M  V30 15101 H 1402.13 -0.665303 -0.354806 0
M  V30 15102 H 1404.78 -1.82471 -0.194021 0
M  V30 15103 H 1403.16 -3.06185 -2.5113 0
M  V30 15104 H 1404.34 -4.60679 -0.105659 0
M  V30 15105 H 1402.65 -4.15627 -0.253562 0
M  V30 15106 H 1405.25 -4.41026 -3.02325 0
M  V30 15107 H 1405.59 -2.70367 -3.16555 0
M  V30 15108 H 1406.12 -3.58899 -1.71571 0
M  V30 15109 H 1402.86 -6.48628 -0.946704 0
M  V30 15110 H 1402.38 -5.5153 -2.35743 0
M  V30 15111 H 1404.06 -6.08672 -2.1938 0
M  V30 15112 N 1404.2 0.485086 -1.49949 0
M  V30 15113 C 1405.44 1.23999 -1.60474 0
M  V30 15114 C 1405.77 1.91904 -0.297736 0
M  V30 15115 O 1405.05 1.81472 0.699857 0
M  V30 15116 C 1405.33 2.2946 -2.77525 0
M  V30 15117 C 1405.19 1.65952 -4.18067 0
M  V30 15118 C 1406.5 3.30893 -2.90169 0
M  V30 15119 H 1403.62 0.449462 -0.584083 0
M  V30 15120 H 1406.27 0.535795 -1.82289 0
M  V30 15121 H 1404.42 2.89521 -2.59056 0
M  V30 15122 H 1406.09 1.09596 -4.48092 0
M  V30 15123 H 1404.33 0.963079 -4.22974 0
M  V30 15124 H 1405 2.42521 -4.9587 0
M  V30 15125 H 1407.48 2.8084 -3.07031 0
M  V30 15126 H 1406.35 4.02027 -3.73718 0
M  V30 15127 H 1406.61 3.94178 -2.0019 0
M  V30 15128 N 1405.67 1.39291 0.737279 0
M  V30 15129 C 1406.6 1.40562 1.86452 0
M  V30 15130 C 1407.58 0.269283 1.67955 0
M  V30 15131 O 1408.77 0.474769 1.88307 0
M  V30 15132 C 1405.9 1.2461 3.24175 0
M  V30 15133 C 1404.85 2.35619 3.57306 0
M  V30 15134 C 1404.18 2.04758 4.93941 0
M  V30 15135 C 1405.48 3.77927 3.60512 0
M  V30 15136 H 1407.17 2.34896 1.85646 0
M  V30 15137 H 1404.72 1.13065 0.891756 0
M  V30 15138 H 1406.67 1.2412 4.02706 0
M  V30 15139 H 1405.4 0.267438 3.25503 0
M  V30 15140 H 1404.06 2.35322 2.81104 0
M  V30 15141 H 1403.7 1.05336 4.91847 0
M  V30 15142 H 1403.4 2.79117 5.17076 0
M  V30 15143 H 1404.93 2.05915 5.74832 0
M  V30 15144 H 1406.34 3.80166 4.29123 0
M  V30 15145 H 1404.74 4.51626 3.95164 0
M  V30 15146 H 1405.81 4.09068 2.60368 0
M  V30 15147 N 1407.15 -0.967221 1.24429 0
M  V30 15148 C 1408.08 -2.06071 0.980314 0
M  V30 15149 C 1409.06 -1.62372 -0.0860829 0
M  V30 15150 O 1410.25 -1.88431 0.0509524 0
M  V30 15151 C 1407.37 -3.35289 0.479452 0
M  V30 15152 C 1406.42 -3.9794 1.53447 0
M  V30 15153 S 1407.25 -4.3551 3.11595 0
M  V30 15154 C 1408.41 -5.67865 2.63212 0
M  V30 15155 H 1408.64 -2.28145 1.90623 0
M  V30 15156 H 1406.17 -1.10519 1.07819 0
M  V30 15157 H 1408.13 -4.10027 0.197103 0
M  V30 15158 H 1406.79 -3.11201 -0.425755 0
M  V30 15159 H 1405.99 -4.91067 1.13445 0
M  V30 15160 H 1405.59 -3.29634 1.76685 0
M  V30 15161 H 1407.88 -6.45405 2.06054 0
M  V30 15162 H 1408.82 -6.12724 3.5493 0
M  V30 15163 H 1409.23 -5.26496 2.03623 0
M  V30 15164 N 1408.63 -1.05812 -1.16797 0
M  V30 15165 C 1409.58 -0.658636 -2.2308 0
M  V30 15166 C 1410.57 0.323104 -1.6629 0
M  V30 15167 O 1411.78 0.188492 -1.7901 0
M  V30 15168 H 1408.15 -0.194843 -0.72632 0
M  V30 15169 H 1410.12 -1.56501 -2.54067 0
M  V30 15170 C 1408.87 -0.0559428 -3.47655 0
M  V30 15171 H 1408.2 -0.802468 -3.91664 0
M  V30 15172 H 1409.64 0.186118 -4.23591 0
M  V30 15173 C 1408.09 1.19913 -3.14837 0
M  V30 15174 O 1408.62 2.28772 -3.30191 0
M  V30 15175 N 1406.83 1.09921 -2.69009 0
M  V30 15176 H 1406.38 0.213331 -2.56715 0
M  V30 15177 H 1406.34 1.93981 -2.47424 0
M  V30 15178 N 1410.11 1.33347 -0.840014 0
M  V30 15179 C 1411.04 2.31703 -0.289138 0
M  V30 15180 C 1412.02 1.59024 0.603759 0
M  V30 15181 O 1413.2 1.86911 0.527071 0
M  V30 15182 C 1410.33 3.43144 0.53566 0
M  V30 15183 C 1409.29 4.272 -0.261544 0
M  V30 15184 C 1408.61 5.30267 0.687075 0
M  V30 15185 C 1409.91 5.00915 -1.47924 0
M  V30 15186 H 1411.61 2.78026 -1.11094 0
M  V30 15187 H 1409.15 1.33666 -0.535658 0
M  V30 15188 H 1411.11 4.10979 0.931351 0
M  V30 15189 H 1409.83 2.95512 1.39069 0
M  V30 15190 H 1408.49 3.60991 -0.638809 0
M  V30 15191 H 1408.14 4.78893 1.53853 0
M  V30 15192 H 1407.84 5.87388 0.157773 0
M  V30 15193 H 1409.36 6.00968 1.08026 0
M  V30 15194 H 1410.78 5.61511 -1.15664 0
M  V30 15195 H 1409.17 5.67692 -1.94541 0
M  V30 15196 H 1410.24 4.29622 -2.24839 0
M  V30 15197 N 1411.59 0.596556 1.45873 0
M  V30 15198 C 1412.52 -0.116229 2.33211 0
M  V30 15199 C 1413.5 -0.869868 1.46176 0
M  V30 15200 O 1414.68 -0.842599 1.74968 0
M  V30 15201 C 1411.81 -1.12145 3.28696 0
M  V30 15202 C 1410.77 -0.481749 4.2528 0
M  V30 15203 C 1410.09 -1.59443 5.10374 0
M  V30 15204 C 1411.39 0.589996 5.18957 0
M  V30 15205 H 1413.09 0.613005 2.93057 0
M  V30 15206 H 1410.63 0.296242 1.4092 0
M  V30 15207 H 1412.58 -1.62857 3.88659 0
M  V30 15208 H 1411.31 -1.88114 2.66985 0
M  V30 15209 H 1409.97 0.0044092 3.666 0
M  V30 15210 H 1409.62 -2.34413 4.45039 0
M  V30 15211 H 1409.32 -1.17197 5.75794 0
M  V30 15212 H 1410.84 -2.10404 5.73204 0
M  V30 15213 H 1412.25 0.167395 5.73056 0
M  V30 15214 H 1410.65 0.933565 5.92794 0
M  V30 15215 H 1411.72 1.47093 4.62052 0
M  V30 15216 N 1413.06 -1.53996 0.335095 0
M  V30 15217 C 1414.31 -1.99952 -0.264954 0
M  V30 15218 C 1414.63 -1.22696 -1.52332 0
M  V30 15219 O 1415.83 -1.59086 -2.20009 0
M  V30 15220 C 1414.29 -3.56085 -0.522667 0
M  V30 15221 C 1413.9 -4.42188 0.719314 0
M  V30 15222 C 1415.64 -4.10478 -1.08204 0
M  V30 15223 C 1413.55 -5.89814 0.432867 0
M  V30 15224 H 1412.48 -0.746962 -0.102782 0
M  V30 15225 H 1415.13 -1.77919 0.449111 0
M  V30 15226 H 1413.51 -3.7415 -1.29722 0
M  V30 15227 H 1414.68 -4.35898 1.49432 0
M  V30 15228 H 1413 -3.98743 1.19972 0
M  V30 15229 H 1415.6 -5.18375 -1.31116 0
M  V30 15230 H 1415.94 -3.63173 -2.03497 0
M  V30 15231 H 1416.47 -3.96091 -0.368395 0
M  V30 15232 H 1413.21 -6.41336 1.35529 0
M  V30 15233 H 1412.73 -5.99028 -0.304214 0
M  V30 15234 H 1414.41 -6.46983 0.0469657 0
M  V30 15235 N 1414.54 -0.0635198 -1.57472 0
M  V30 15236 C 1415.79 0.606285 -1.92792 0
M  V30 15237 C 1416.11 1.70648 -0.943615 0
M  V30 15238 O 1415.38 1.95898 0.00957612 0
M  V30 15239 H 1413.96 0.226943 -0.711692 0
M  V30 15240 H 1416.62 -0.119429 -1.94534 0
M  V30 15241 H 1415.72 1.03694 -2.9437 0
M  V30 15242 N 1416.02 1.56195 0.209972 0
M  V30 15243 C 1416.95 1.96378 1.26324 0
M  V30 15244 C 1417.93 0.833606 1.48273 0
M  V30 15245 O 1419.12 1.0968 1.60262 0
M  V30 15246 C 1416.25 2.29048 2.61064 0
M  V30 15247 C 1415.2 3.44665 2.53752 0
M  V30 15248 C 1414.53 3.6297 3.92628 0
M  V30 15249 C 1415.83 4.79297 2.07536 0
M  V30 15250 H 1417.52 2.8461 0.929379 0
M  V30 15251 H 1415.07 1.36931 0.445627 0
M  V30 15252 H 1417.02 2.55752 3.34916 0
M  V30 15253 H 1415.74 1.37682 2.96161 0
M  V30 15254 H 1414.4 3.18028 1.82356 0
M  V30 15255 H 1414.05 2.68961 4.25052 0
M  V30 15256 H 1413.75 4.40741 3.88614 0
M  V30 15257 H 1415.27 3.92035 4.68125 0
M  V30 15258 H 1416.69 5.05131 2.71138 0
M  V30 15259 H 1415.08 5.60433 2.14557 0
M  V30 15260 H 1416.15 4.73877 1.02802 0
M  V30 15261 N 1417.5 -0.477127 1.50204 0
M  V30 15262 C 1418.46 -1.55824 1.68082 0
M  V30 15263 C 1419.46 -1.51039 0.551719 0
M  V30 15264 O 1420.65 -1.53766 0.818638 0
M  V30 15265 C 1417.78 -2.95462 1.70044 0
M  V30 15266 H 1418.98 -1.41292 2.64531 0
M  V30 15267 H 1416.53 -0.70308 1.39594 0
M  V30 15268 H 1417.26 -3.15445 0.752663 0
M  V30 15269 H 1417.05 -3.00343 2.52065 0
M  V30 15270 H 1418.54 -3.73964 1.85851 0
M  V30 15271 N 1418.98 -1.3968 -0.729882 0
M  V30 15272 C 1420.22 -1.37385 -1.49175 0
M  V30 15273 C 1420.56 0.0285839 -1.94179 0
M  V30 15274 O 1419.83 0.994516 -1.67152 0
M  V30 15275 C 1420.11 -2.35075 -2.72785 0
M  V30 15276 C 1419.97 -3.84282 -2.33767 0
M  V30 15277 C 1421.29 -2.30515 -3.74901 0
M  V30 15278 H 1418.4 -0.500359 -0.541119 0
M  V30 15279 H 1421.05 -1.7071 -0.834152 0
M  V30 15280 H 1419.2 -2.06787 -3.28894 0
M  V30 15281 H 1420.87 -4.2334 -1.8325 0
M  V30 15282 H 1419.11 -4.00809 -1.65935 0
M  V30 15283 H 1419.78 -4.48131 -3.22309 0
M  V30 15284 H 1422.26 -2.55539 -3.28389 0
M  V30 15285 H 1421.13 -3.00939 -4.5905 0
M  V30 15286 H 1421.4 -1.3119 -4.22187 0
M  V30 15287 N 1420.45 0.960609 -1.2494 0
M  V30 15288 C 1421.7 1.70111 -1.09117 0
M  V30 15289 C 1422.02 1.91466 0.369544 0
M  V30 15290 O 1421.29 1.49749 1.26302 0
M  V30 15291 H 1419.87 0.630372 -0.400799 0
M  V30 15292 H 1422.54 1.15525 -1.56971 0
M  V30 15293 H 1421.63 2.68277 -1.5948 0
M  V30 15294 N 1421.93 1.0643 1.16234 0
M  V30 15295 C 1423.21 0.695256 1.82827 0
M  V30 15296 C 1423.59 -0.823242 1.94386 0
M  V30 15297 O 1422.94 -1.73406 1.48804 0
M  V30 15298 C 1423.15 1.3988 3.19741 0
M  V30 15299 C 1424.5 1.54489 3.95498 0
M  V30 15300 O 1425.52 1.35882 3.29264 0
M  V30 15301 O 1424.38 1.85027 5.14225 0
M  V30 15302 H 1421.47 0.246285 0.789476 0
M  V30 15303 H 1424.02 1.16466 1.23426 0
M  V30 15304 H 1422.79 2.43419 3.06371 0
M  V30 15305 H 1422.41 0.91957 3.8682 0
M  V30 15306 N 1423.41 -1.329 0.847073 0
M  V30 15307 C 1424.66 -1.96774 0.443022 0
M  V30 15308 C 1424.97 -1.67813 -1.0049 0
M  V30 15309 O 1426.18 -2.25366 -1.51402 0
M  V30 15310 C 1424.63 -3.52184 0.741268 0
M  V30 15311 C 1424.24 -3.90013 2.20441 0
M  V30 15312 C 1425.99 -4.22568 0.404569 0
M  V30 15313 C 1423.89 -5.38434 2.44627 0
M  V30 15314 H 1422.82 -0.736406 0.161932 0
M  V30 15315 H 1425.47 -1.51402 1.0368 0
M  V30 15316 H 1423.86 -3.95925 0.0770158 0
M  V30 15317 H 1425.03 -3.57304 2.90982 0
M  V30 15318 H 1423.35 -3.32633 2.50489 0
M  V30 15319 H 1425.94 -5.3173 0.562795 0
M  V30 15320 H 1426.29 -4.11144 -0.653172 0
M  V30 15321 H 1426.82 -3.84384 1.0244 0
M  V30 15322 H 1423.56 -5.5487 3.48997 0
M  V30 15323 H 1423.08 -5.72575 1.78656 0
M  V30 15324 H 1424.76 -6.05423 2.28194 0
M  V30 15325 N 1424.89 -0.604284 -1.45555 0
M  V30 15326 C 1425.85 0.106526 -2.28952 0
M  V30 15327 C 1426.85 0.798277 -1.39586 0
M  V30 15328 O 1428.04 0.646943 -1.61741 0
M  V30 15329 C 1425.17 1.16091 -3.20524 0
M  V30 15330 H 1426.37 -0.626655 -2.9328 0
M  V30 15331 H 1423.92 -0.363183 -1.52022 0
M  V30 15332 H 1424.65 1.92496 -2.6099 0
M  V30 15333 H 1424.44 0.669137 -3.86348 0
M  V30 15334 H 1425.93 1.65882 -3.8324 0
M  V30 15335 N 1426.37 1.53816 -0.343257 0
M  V30 15336 C 1427.28 2.28716 0.522121 0
M  V30 15337 C 1428.29 1.33815 1.11218 0
M  V30 15338 O 1429.47 1.66853 1.12793 0
M  V30 15339 C 1426.53 3.04517 1.65741 0
M  V30 15340 C 1425.59 4.15043 1.09716 0
M  V30 15341 C 1424.83 4.8722 2.17835 0
M  V30 15342 O 1425.05 4.59065 3.38549 0
M  V30 15343 O 1423.98 5.73678 1.82145 0
M  V30 15344 H 1427.81 3.03576 -0.086732 0
M  V30 15345 H 1425.4 1.49007 -0.108313 0
M  V30 15346 H 1427.28 3.51921 2.31796 0
M  V30 15347 H 1425.95 2.32514 2.25208 0
M  V30 15348 H 1424.86 3.71943 0.401152 0
M  V30 15349 H 1426.19 4.89147 0.547362 0
M  V30 15350 N 1427.84 0.0718701 1.57436 0
M  V30 15351 C 1429.09 -0.598116 1.93779 0
M  V30 15352 C 1429.42 -1.69258 0.952131 0
M  V30 15353 O 1428.7 -1.94491 -0.0186426 0
M  V30 15354 C 1428.98 -1.17499 3.40391 0
M  V30 15355 C 1428.83 -0.0871719 4.49716 0
M  V30 15356 C 1430.15 -2.08047 3.8782 0
M  V30 15357 H 1427.27 -0.215954 0.704651 0
M  V30 15358 H 1429.91 0.137854 1.89499 0
M  V30 15359 H 1428.06 -1.80221 3.44169 0
M  V30 15360 H 1429.74 0.545906 4.58058 0
M  V30 15361 H 1427.98 0.582213 4.29875 0
M  V30 15362 H 1428.65 -0.531202 5.49438 0
M  V30 15363 H 1431.13 -1.5526 3.86049 0
M  V30 15364 H 1430 -2.45345 4.91016 0
M  V30 15365 H 1430.26 -2.98879 3.25766 0
M  V30 15366 N 1429.32 -1.56304 -0.201686 0
M  V30 15367 C 1430.25 -1.90538 -1.27389 0
M  V30 15368 C 1431.27 -0.795422 -1.42045 0
M  V30 15369 O 1432.46 -1.07381 -1.42589 0
M  V30 15370 C 1429.56 -2.11638 -2.64694 0
M  V30 15371 C 1428.73 -3.42755 -2.71731 0
M  V30 15372 C 1427.79 -3.53047 -3.90185 0
M  V30 15373 O 1426.81 -4.25923 -3.77595 0
M  V30 15374 N 1428.02 -2.85649 -5.05356 0
M  V30 15375 H 1430.78 -2.83106 -0.983411 0
M  V30 15376 H 1428.34 -1.57092 -0.391638 0
M  V30 15377 H 1430.33 -2.15818 -3.42352 0
M  V30 15378 H 1428.9 -1.256 -2.86258 0
M  V30 15379 H 1428.12 -3.50501 -1.80397 0
M  V30 15380 H 1429.41 -4.29092 -2.73418 0
M  V30 15381 H 1428.81 -2.26256 -5.18483 0
M  V30 15382 H 1427.37 -2.95465 -5.80985 0
M  V30 15383 N 1430.8 0.469154 -1.50455 0
M  V30 15384 C 1431.75 1.56691 -1.6946 0
M  V30 15385 C 1432.72 1.57217 -0.535921 0
M  V30 15386 O 1433.9 1.74717 -0.766715 0
M  V30 15387 C 1431.04 2.94651 -1.79651 0
M  V30 15388 C 1430.16 3.03899 -3.07033 0
M  V30 15389 C 1429.29 4.32786 -3.08009 0
M  V30 15390 C 1428.33 4.35784 -4.29836 0
M  V30 15391 N 1427.47 5.56145 -4.28541 0
M  V30 15392 H 1432.31 1.39791 -2.63178 0
M  V30 15393 H 1429.84 0.679628 -1.30459 0
M  V30 15394 H 1431.8 3.74658 -1.83541 0
M  V30 15395 H 1430.43 3.10182 -0.893713 0
M  V30 15396 H 1429.48 2.16754 -3.12605 0
M  V30 15397 H 1430.8 3.01974 -3.97005 0
M  V30 15398 H 1429.95 5.21141 -3.10639 0
M  V30 15399 H 1428.69 4.37323 -2.1587 0
M  V30 15400 H 1427.69 3.45825 -4.27417 0
M  V30 15401 H 1428.92 4.32937 -5.23204 0
M  V30 15402 H 1426.86 5.61464 -3.39256 0
M  V30 15403 H 1426.78 5.55969 -5.12284 0
M  V30 15404 H 1428.05 6.4662 -4.35319 0
M  V30 15405 N 1432.28 1.40065 0.722464 0
M  V30 15406 C 1433.23 1.36267 1.82798 0
M  V30 15407 C 1434.21 0.241375 1.59079 0
M  V30 15408 O 1435.4 0.479929 1.70369 0
M  V30 15409 C 1432.53 1.22086 3.20858 0
M  V30 15410 C 1431.62 2.38969 3.50364 0
M  V30 15411 N 1432.01 3.6445 3.50727 0
M  V30 15412 C 1430.31 2.32199 3.80788 0
M  V30 15413 C 1431.01 4.41816 3.78383 0
M  V30 15414 N 1429.99 3.71565 3.96787 0
M  V30 15415 H 1433.79 2.31236 1.81403 0
M  V30 15416 H 1431.3 1.33739 0.92128 0
M  V30 15417 H 1433.3 1.17448 4.00014 0
M  V30 15418 H 1431.96 0.280787 3.23484 0
M  V30 15419 H 1432.97 3.97705 3.3174 0
M  V30 15420 H 1429.65 1.46521 3.90945 0
M  V30 15421 H 1431.04 5.5064 3.85027 0
M  V30 15422 N 1433.76 -0.95397 1.25448 0
M  V30 15423 C 1434.72 -2.03231 1.0597 0
M  V30 15424 C 1435.72 -1.60795 0.0122855 0
M  V30 15425 O 1436.91 -1.7233 0.254533 0
M  V30 15426 C 1434.04 -3.35414 0.609105 0
M  V30 15427 H 1435.24 -2.21943 2.01696 0
M  V30 15428 H 1432.79 -1.13115 1.07864 0
M  V30 15429 H 1433.52 -3.22398 -0.350723 0
M  V30 15430 H 1433.31 -3.67564 1.36526 0
M  V30 15431 H 1434.8 -4.14664 0.49428 0
M  V30 15432 N 1435.24 -1.07045 -1.15668 0
M  V30 15433 C 1436.46 -0.812802 -1.9081 0
M  V30 15434 C 1436.89 0.627827 -1.77313 0
M  V30 15435 O 1436.24 1.43836 -1.10368 0
M  V30 15436 C 1436.29 -1.2219 -3.39267 0
M  V30 15437 O 1435.4 -0.365305 -4.10779 0
M  V30 15438 H 1434.74 -0.296385 -0.594182 0
M  V30 15439 H 1437.27 -1.42825 -1.465 0
M  V30 15440 H 1437.28 -1.19674 -3.90054 0
M  V30 15441 H 1435.95 -2.27121 -3.48409 0
M  V30 15442 H 1434.53 -0.452687 -3.70142 0
M  V30 15443 N 1436.71 1.32449 -0.85411 0
M  V30 15444 C 1437.64 2.31383 -0.313697 0
M  V30 15445 C 1438.62 1.59656 0.586858 0
M  V30 15446 O 1439.81 1.87459 0.507216 0
M  V30 15447 C 1436.94 3.43693 0.499235 0
M  V30 15448 C 1435.89 4.26899 -0.306839 0
M  V30 15449 C 1435.22 5.30966 0.630795 0
M  V30 15450 C 1436.52 4.99318 -1.53229 0
M  V30 15451 H 1438.21 2.76832 -1.14037 0
M  V30 15452 H 1435.76 1.33091 -0.549805 0
M  V30 15453 H 1437.71 4.11944 0.887709 0
M  V30 15454 H 1436.44 2.96971 1.35926 0
M  V30 15455 H 1435.1 3.60294 -0.677061 0
M  V30 15456 H 1434.74 4.80498 1.48765 0
M  V30 15457 H 1434.44 5.87522 0.0954635 0
M  V30 15458 H 1435.97 6.0208 1.01646 0
M  V30 15459 H 1437.38 5.60253 -1.21614 0
M  V30 15460 H 1435.78 5.65596 -2.00552 0
M  V30 15461 H 1436.85 4.27213 -2.29383 0
M  V30 15462 N 1438.19 0.611994 1.45232 0
M  V30 15463 C 1439.14 -0.104265 2.30564 0
M  V30 15464 C 1440.11 -0.855676 1.42364 0
M  V30 15465 O 1441.29 -0.840534 1.71288 0
M  V30 15466 C 1438.43 -1.09274 3.27343 0
M  V30 15467 C 1437.55 -0.341747 4.30646 0
M  V30 15468 C 1436.68 -1.32034 5.14529 0
M  V30 15469 C 1435.72 -0.557405 6.09557 0
M  V30 15470 N 1434.86 -1.4855 6.86205 0
M  V30 15471 H 1439.7 0.629396 2.91278 0
M  V30 15472 H 1437.23 0.322177 1.43528 0
M  V30 15473 H 1439.19 -1.67902 3.81923 0
M  V30 15474 H 1437.82 -1.79376 2.68373 0
M  V30 15475 H 1436.87 0.360114 3.78692 0
M  V30 15476 H 1438.19 0.253328 4.98156 0
M  V30 15477 H 1437.34 -1.97854 5.73532 0
M  V30 15478 H 1436.08 -1.94934 4.47048 0
M  V30 15479 H 1435.08 0.114401 5.49681 0
M  V30 15480 H 1436.31 0.0666137 6.79067 0
M  V30 15481 H 1434.26 -2.10207 6.21409 0
M  V30 15482 H 1434.17 -0.943972 7.50083 0
M  V30 15483 H 1435.44 -2.13314 7.49745 0
M  V30 15484 N 1439.67 -1.53632 0.351409 0
M  V30 15485 C 1441.09 -1.596 -0.000214515 0
M  V30 15486 C 1441.29 -1.36709 -1.4803 0
M  V30 15487 O 1440.34 -1.16524 -2.24006 0
M  V30 15488 C 1441.65 -2.97419 0.443013 0
M  V30 15489 C 1443.2 -3.10485 0.396025 0
M  V30 15490 C 1443.68 -4.50693 0.814843 0
M  V30 15491 N 1445.17 -4.56766 0.76934 0
M  V30 15492 C 1445.9 -5.63418 1.06526 0
M  V30 15493 N 1445.4 -6.77887 1.42974 0
M  V30 15494 N 1447.19 -5.53331 0.988986 0
M  V30 15495 H 1439.34 -1.66765 1.31542 0
M  V30 15496 H 1441.61 -0.781418 0.53674 0
M  V30 15497 H 1441.31 -3.19262 1.47529 0
M  V30 15498 H 1441.19 -3.76781 -0.177725 0
M  V30 15499 H 1443.57 -2.8836 -0.627092 0
M  V30 15500 H 1443.65 -2.33163 1.05207 0
M  V30 15501 H 1443.3 -4.73554 1.83601 0
M  V30 15502 H 1443.23 -5.26424 0.136193 0
M  V30 15503 H 1445.72 -3.74569 0.500623 0
M  V30 15504 H 1446.03 -7.55194 1.64018 0
M  V30 15505 H 1444.38 -6.79314 1.46827 0
M  V30 15506 H 1447.57 -4.62783 0.703526 0
M  V30 15507 H 1447.74 -6.36355 1.22295 0
M  V30 15508 N 1441.15 -0.0802183 -1.57396 0
M  V30 15509 C 1442.4 0.586573 -1.92982 0
M  V30 15510 C 1442.71 1.70256 -0.962918 0
M  V30 15511 O 1443.92 2.4295 -1.21193 0
M  V30 15512 C 1442.37 1.09475 -3.42846 0
M  V30 15513 C 1441.98 0.0093098 -4.47999 0
M  V30 15514 C 1443.72 1.73512 -3.87419 0
M  V30 15515 C 1441.63 0.532002 -5.89002 0
M  V30 15516 H 1440.56 0.222878 -0.720306 0
M  V30 15517 H 1443.21 -0.153816 -1.82854 0
M  V30 15518 H 1441.59 1.88836 -3.48076 0
M  V30 15519 H 1442.77 -0.765609 -4.54395 0
M  V30 15520 H 1441.08 -0.535345 -4.12944 0
M  V30 15521 H 1443.68 2.13665 -4.90154 0
M  V30 15522 H 1444.02 2.59845 -3.25248 0
M  V30 15523 H 1444.56 1.00758 -3.84828 0
M  V30 15524 H 1441.29 -0.294364 -6.54839 0
M  V30 15525 H 1440.81 1.27425 -5.86108 0
M  V30 15526 H 1442.49 1.00573 -6.39135 0
M  V30 15527 N 1442.63 1.56409 0.193394 0
M  V30 15528 C 1443.59 1.93822 1.22334 0
M  V30 15529 C 1444.59 0.819513 1.3835 0
M  V30 15530 O 1445.78 1.0869 1.36132 0
M  V30 15531 C 1442.91 2.21375 2.59241 0
M  V30 15532 H 1444.1 2.85967 0.903502 0
M  V30 15533 H 1441.66 1.50125 0.43498 0
M  V30 15534 H 1442.39 1.31874 2.96277 0
M  V30 15535 H 1442.18 3.02899 2.48988 0
M  V30 15536 H 1443.67 2.51319 3.33509 0
M  V30 15537 N 1444.1 -0.461169 1.50702 0
M  V30 15538 C 1445.04 -1.57702 1.64941 0
M  V30 15539 C 1446.01 -1.54808 0.497312 0
M  V30 15540 O 1447.2 -1.74286 0.718104 0
M  V30 15541 C 1444.33 -2.96285 1.64112 0
M  V30 15542 C 1443.37 -3.17296 2.85001 0
M  V30 15543 S 1444.2 -2.96134 4.46167 0
M  V30 15544 C 1445.36 -4.37042 4.48046 0
M  V30 15545 H 1445.59 -1.45386 2.59327 0
M  V30 15546 H 1443.13 -0.649209 1.40088 0
M  V30 15547 H 1445.08 -3.76178 1.64318 0
M  V30 15548 H 1443.75 -3.05983 0.709442 0
M  V30 15549 H 1442.94 -4.18561 2.80754 0
M  V30 15550 H 1442.54 -2.45191 2.82413 0
M  V30 15551 H 1444.83 -5.29846 4.2222 0
M  V30 15552 H 1445.78 -4.4633 5.49723 0
M  V30 15553 H 1446.18 -4.19584 3.77637 0
M  V30 15554 N 1445.58 -1.40446 -0.715026 0
M  V30 15555 C 1446.51 -1.36673 -1.83993 0
M  V30 15556 C 1447.53 -0.272038 -1.60511 0
M  V30 15557 O 1448.72 -0.532425 -1.70375 0
M  V30 15558 C 1445.82 -1.10423 -3.20406 0
M  V30 15559 C 1444.99 -2.31557 -3.71079 0
M  V30 15560 C 1444.05 -2.01459 -4.86108 0
M  V30 15561 O 1443.07 -2.7433 -4.9873 0
M  V30 15562 N 1444.28 -0.992899 -5.71946 0
M  V30 15563 H 1447.04 -2.3362 -1.87728 0
M  V30 15564 H 1444.6 -1.34807 -0.896586 0
M  V30 15565 H 1446.59 -0.88273 -3.94956 0
M  V30 15566 H 1445.16 -0.221408 -3.11815 0
M  V30 15567 H 1444.38 -2.69534 -2.87655 0
M  V30 15568 H 1445.67 -3.1231 -4.01671 0
M  V30 15569 H 1445.07 -0.389387 -5.64358 0
M  V30 15570 H 1443.63 -0.831299 -6.46477 0
M  V30 15571 N 1447.06 0.947303 -1.25952 0
M  V30 15572 C 1448.31 1.6953 -1.11299 0
M  V30 15573 C 1448.64 1.9113 0.343961 0
M  V30 15574 O 1447.91 1.48755 1.25309 0
M  V30 15575 C 1448.2 3.0738 -1.87588 0
M  V30 15576 C 1448.05 2.93145 -3.41154 0
M  V30 15577 C 1449.37 4.07396 -1.66483 0
M  V30 15578 H 1446.49 0.615281 -0.405707 0
M  V30 15579 H 1449.13 1.10064 -1.54874 0
M  V30 15580 H 1447.28 3.58143 -1.50553 0
M  V30 15581 H 1448.95 2.49651 -3.87907 0
M  V30 15582 H 1447.19 2.28902 -3.68492 0
M  V30 15583 H 1447.87 3.9089 -3.89755 0
M  V30 15584 H 1450.34 3.65572 -1.98738 0
M  V30 15585 H 1449.22 5.01876 -2.22287 0
M  V30 15586 H 1449.48 4.379 -0.607916 0
M  V30 15587 N 1448.54 1.07657 1.15099 0
M  V30 15588 C 1449.45 0.711198 2.2356 0
M  V30 15589 C 1450.46 -0.278932 1.7175 0
M  V30 15590 O 1451.64 -0.124788 2.01013 0
M  V30 15591 C 1448.71 0.117855 3.465 0
M  V30 15592 C 1447.77 1.16162 4.13286 0
M  V30 15593 C 1447 0.596494 5.30356 0
M  V30 15594 O 1447.22 -0.586474 5.67377 0
M  V30 15595 O 1446.16 1.34288 5.86729 0
M  V30 15596 H 1449.98 1.61578 2.5715 0
M  V30 15597 H 1447.57 0.84973 1.22882 0
M  V30 15598 H 1449.45 -0.210613 4.20873 0
M  V30 15599 H 1448.12 -0.760008 3.14652 0
M  V30 15600 H 1447.03 1.54249 3.4082 0
M  V30 15601 H 1448.36 2.01149 4.49221 0
M  V30 15602 N 1450.02 -1.31994 0.861122 0
M  V30 15603 C 1450.95 -2.31214 0.325963 0
M  V30 15604 C 1451.93 -1.59965 -0.578383 0
M  V30 15605 O 1453.11 -1.87726 -0.497268 0
M  V30 15606 C 1450.24 -3.43953 -0.481001 0
M  V30 15607 C 1449.2 -4.2673 0.329474 0
M  V30 15608 C 1448.52 -5.31293 -0.602627 0
M  V30 15609 C 1449.82 -4.98498 1.55874 0
M  V30 15610 H 1451.52 -2.76223 1.15503 0
M  V30 15611 H 1449.06 -1.32797 0.556856 0
M  V30 15612 H 1451.02 -4.12409 -0.86585 0
M  V30 15613 H 1449.74 -2.97687 -1.3435 0
M  V30 15614 H 1448.4 -3.59929 0.696159 0
M  V30 15615 H 1448.05 -4.8128 -1.46215 0
M  V30 15616 H 1447.75 -5.87565 -0.0643044 0
M  V30 15617 H 1449.27 -6.02611 -0.984512 0
M  V30 15618 H 1450.68 -5.596 1.24583 0
M  V30 15619 H 1449.08 -5.64525 2.03548 0
M  V30 15620 H 1450.15 -4.25991 2.31646 0
M  V30 15621 N 1451.49 -0.619688 -1.44906 0
M  V30 15622 C 1452.44 0.113696 -2.27716 0
M  V30 15623 C 1453.43 0.82709 -1.38015 0
M  V30 15624 O 1454.62 0.715083 -1.61912 0
M  V30 15625 C 1451.75 1.10233 -3.25121 0
M  V30 15626 C 1450.84 0.389147 -4.22311 0
M  V30 15627 N 1451.23 -0.575929 -5.0251 0
M  V30 15628 C 1449.52 0.635112 -4.41455 0
M  V30 15629 C 1450.23 -0.996243 -5.73105 0
M  V30 15630 N 1449.2 -0.337427 -5.42552 0
M  V30 15631 H 1453 -0.627351 -2.87126 0
M  V30 15632 H 1450.52 -0.444293 -1.56204 0
M  V30 15633 H 1452.51 1.64223 -3.83192 0
M  V30 15634 H 1451.17 1.8438 -2.67272 0
M  V30 15635 H 1452.19 -0.953232 -5.09052 0
M  V30 15636 H 1448.86 1.36033 -3.94717 0
M  V30 15637 H 1450.25 -1.7929 -6.47537 0
M  V30 15638 N 1452.97 1.53444 -0.359552 0
M  V30 15639 C 1454.2 2.05584 0.232953 0
M  V30 15640 C 1454.62 1.23347 1.42937 0
M  V30 15641 O 1453.97 0.272662 1.80452 0
M  V30 15642 C 1454.02 3.55926 0.632359 0
M  V30 15643 O 1453.74 4.35045 -0.516494 0
M  V30 15644 C 1455.25 4.24301 1.28389 0
M  V30 15645 H 1452.47 0.669676 0.042132 0
M  V30 15646 H 1455.01 1.97878 -0.516176 0
M  V30 15647 H 1453.16 3.63802 1.33141 0
M  V30 15648 H 1453.58 5.24138 -0.194906 0
M  V30 15649 H 1455.05 5.30832 1.51397 0
M  V30 15650 H 1455.53 3.77644 2.24236 0
M  V30 15651 H 1456.14 4.20661 0.626438 0
M  V30 15652 N 1454.45 0.0885642 1.57351 0
M  V30 15653 C 1455.68 -0.588641 1.98871 0
M  V30 15654 C 1456.1 -1.61333 0.967125 0
M  V30 15655 O 1455.46 -1.81183 -0.0652149 0
M  V30 15656 C 1455.51 -1.21877 3.39379 0
M  V30 15657 O 1454.61 -2.33462 3.39955 0
M  V30 15658 H 1453.95 -0.149938 0.64685 0
M  V30 15659 H 1456.48 0.168043 2.03909 0
M  V30 15660 H 1456.49 -1.56163 3.76931 0
M  V30 15661 H 1455.17 -0.468037 4.13258 0
M  V30 15662 H 1453.74 -2.00844 3.14191 0
M  V30 15663 N 1455.93 -1.56509 -0.185096 0
M  V30 15664 C 1456.86 -1.98363 -1.23184 0
M  V30 15665 C 1457.84 -0.85709 -1.46929 0
M  V30 15666 O 1459.02 -1.12216 -1.58497 0
M  V30 15667 C 1456.15 -2.33172 -2.57387 0
M  V30 15668 C 1455.11 -3.48658 -2.48236 0
M  V30 15669 C 1454.43 -3.69171 -3.86804 0
M  V30 15670 C 1455.73 -4.82538 -1.99885 0
M  V30 15671 H 1457.43 -2.86053 -0.883982 0
M  V30 15672 H 1454.97 -1.37623 -0.423786 0
M  V30 15673 H 1456.93 -2.61048 -3.30805 0
M  V30 15674 H 1455.65 -1.42377 -2.93933 0
M  V30 15675 H 1454.31 -3.20889 -1.77273 0
M  V30 15676 H 1453.96 -2.75689 -4.20719 0
M  V30 15677 H 1453.66 -4.46868 -3.81553 0
M  V30 15678 H 1455.18 -3.99433 -4.61829 0
M  V30 15679 H 1456.6 -5.0938 -2.63068 0
M  V30 15680 H 1454.99 -5.63775 -2.05614 0
M  V30 15681 H 1456.06 -4.75453 -0.952503 0
M  V30 15682 N 1457.41 0.45317 -1.50944 0
M  V30 15683 C 1458.32 1.57435 -1.73929 0
M  V30 15684 C 1459.33 1.62467 -0.622935 0
M  V30 15685 O 1460.51 1.80004 -0.903365 0
M  V30 15686 C 1457.57 2.93534 -1.84495 0
M  V30 15687 C 1456.63 2.98747 -3.083 0
M  V30 15688 C 1455.87 4.28354 -3.18352 0
M  V30 15689 O 1456.09 5.1986 -2.34738 0
M  V30 15690 O 1455.02 4.39527 -4.11217 0
M  V30 15691 H 1458.85 1.40959 -2.69006 0
M  V30 15692 H 1456.44 0.634545 -1.35255 0
M  V30 15693 H 1458.32 3.74336 -1.93522 0
M  V30 15694 H 1456.99 3.10171 -0.926044 0
M  V30 15695 H 1455.9 2.16958 -3.04762 0
M  V30 15696 H 1457.23 2.87051 -3.99828 0
M  V30 15697 N 1458.88 1.40823 0.707568 0
M  V30 15698 C 1459.83 1.41724 1.82162 0
M  V30 15699 C 1460.8 0.273135 1.63839 0
M  V30 15700 O 1461.99 0.472399 1.84859 0
M  V30 15701 C 1459.13 1.29347 3.19943 0
M  V30 15702 C 1458.24 2.53529 3.49782 0
M  V30 15703 C 1457.37 2.33533 4.77112 0
M  V30 15704 C 1456.41 3.53252 4.9988 0
M  V30 15705 N 1455.55 3.32401 6.18429 0
M  V30 15706 H 1460.39 2.36943 1.80726 0
M  V30 15707 H 1457.93 1.17671 0.882723 0
M  V30 15708 H 1459.89 1.20175 3.99517 0
M  V30 15709 H 1458.52 0.377426 3.20586 0
M  V30 15710 H 1457.57 2.73198 2.64702 0
M  V30 15711 H 1458.88 3.42617 3.62512 0
M  V30 15712 H 1458.03 2.2176 5.64719 0
M  V30 15713 H 1456.77 1.41883 4.66605 0
M  V30 15714 H 1455.78 3.65492 4.10725 0
M  V30 15715 H 1457 4.4584 5.12253 0
M  V30 15716 H 1454.95 2.4344 6.09158 0
M  V30 15717 H 1454.87 4.15059 6.31872 0
M  V30 15718 H 1456.13 3.24377 7.08802 0
M  V30 15719 N 1460.36 -0.94061 1.26453 0
M  V30 15720 C 1461.31 -2.03941 1.08059 0
M  V30 15721 C 1462.28 -1.66094 -0.0145388 0
M  V30 15722 O 1463.46 -1.90246 0.145338 0
M  V30 15723 C 1460.6 -3.37501 0.720228 0
M  V30 15724 C 1459.72 -3.88381 1.89167 0
M  V30 15725 C 1458.85 -5.10329 1.47437 0
M  V30 15726 C 1457.89 -5.53473 2.61408 0
M  V30 15727 N 1457.03 -6.66624 2.20355 0
M  V30 15728 H 1461.87 -2.19006 2.0209 0
M  V30 15729 H 1459.41 -1.07305 1.00618 0
M  V30 15730 H 1461.36 -4.14287 0.492177 0
M  V30 15731 H 1459.99 -3.2228 -0.183101 0
M  V30 15732 H 1459.05 -3.0799 2.23264 0
M  V30 15733 H 1460.36 -4.16338 2.74708 0
M  V30 15734 H 1459.51 -5.94577 1.20679 0
M  V30 15735 H 1458.25 -4.8412 0.589873 0
M  V30 15736 H 1457.26 -4.67782 2.88894 0
M  V30 15737 H 1458.48 -5.81684 3.50458 0
M  V30 15738 H 1456.43 -6.42097 1.34341 0
M  V30 15739 H 1456.34 -6.9417 2.99439 0
M  V30 15740 H 1457.61 -7.54245 1.96811 0
M  V30 15741 N 1461.84 -1.08266 -1.14527 0
M  V30 15742 C 1462.77 -0.732968 -2.21698 0
M  V30 15743 C 1463.75 0.283917 -1.67714 0
M  V30 15744 O 1464.94 0.154607 -1.93584 0
M  V30 15745 C 1462.07 -0.139935 -3.47018 0
M  V30 15746 C 1461.02 -1.08501 -4.14019 0
M  V30 15747 C 1460.35 -0.354263 -5.33525 0
M  V30 15748 C 1461.65 -2.42254 -4.62721 0
M  V30 15749 H 1463.34 -1.629 -2.51205 0
M  V30 15750 H 1460.89 -0.784696 -1.20742 0
M  V30 15751 H 1462.84 0.1167 -4.21238 0
M  V30 15752 H 1461.56 0.791228 -3.16871 0
M  V30 15753 H 1460.22 -1.32672 -3.41751 0
M  V30 15754 H 1459.87 0.580658 -4.99637 0
M  V30 15755 H 1459.57 -0.984287 -5.79297 0
M  V30 15756 H 1461.09 -0.105648 -6.10509 0
M  V30 15757 H 1462.51 -2.22357 -5.28422 0
M  V30 15758 H 1460.91 -3.00935 -5.1919 0
M  V30 15759 H 1461.98 -3.03884 -3.77866 0
M  V30 15760 N 1463.32 1.31536 -0.86811 0
M  V30 15761 C 1464.73 1.78991 -0.530937 0
M  V30 15762 C 1465.08 1.71553 0.952046 0
M  V30 15763 O 1464.21 1.28216 1.74326 0
M  V30 15764 C 1464.8 3.25004 -0.956981 0
M  V30 15765 C 1463.36 3.70362 -0.671495 0
M  V30 15766 C 1462.51 2.52361 -1.14932 0
M  V30 15767 H 1465.46 1.18644 -1.05401 0
M  V30 15768 H 1465.48 3.79477 -0.278883 0
M  V30 15769 H 1464.99 3.30385 -2.03635 0
M  V30 15770 H 1463.09 3.70483 0.39659 0
M  V30 15771 H 1463.21 4.62581 -1.24722 0
M  V30 15772 H 1461.57 2.4826 -0.569144 0
M  V30 15773 H 1462.35 2.60489 -2.23608 0
M  V30 15774 N 1464.8 0.627364 1.44575 0
M  V30 15775 C 1465.73 -0.066735 2.33405 0
M  V30 15776 C 1466.71 -0.838666 1.47988 0
M  V30 15777 O 1467.89 -0.805296 1.76716 0
M  V30 15778 C 1465.02 -1.05148 3.31 0
M  V30 15779 C 1463.98 -0.391433 4.26206 0
M  V30 15780 C 1463.3 -1.48581 5.13642 0
M  V30 15781 C 1464.6 0.699942 5.17589 0
M  V30 15782 H 1466.3 0.675029 2.91691 0
M  V30 15783 H 1463.84 0.326066 1.4026 0
M  V30 15784 H 1465.8 -1.54576 3.92026 0
M  V30 15785 H 1464.52 -1.82408 2.70915 0
M  V30 15786 H 1463.18 0.0821694 3.66508 0
M  V30 15787 H 1462.83 -2.2492 4.49911 0
M  V30 15788 H 1462.53 -1.04957 5.7815 0
M  V30 15789 H 1464.05 -1.98198 5.77538 0
M  V30 15790 H 1465.47 0.288911 5.72572 0
M  V30 15791 H 1463.86 1.0591 5.9068 0
M  V30 15792 H 1464.93 1.5686 4.58828 0
M  V30 15793 N 1466.28 -1.53251 0.367684 0
M  V30 15794 C 1467.52 -2.02269 -0.214246 0
M  V30 15795 C 1467.88 -1.25014 -1.46251 0
M  V30 15796 O 1467.17 -0.335984 -1.88631 0
M  V30 15797 C 1467.36 -3.53031 -0.557149 0
M  V30 15798 C 1467.19 -4.44885 0.656332 0
M  V30 15799 C 1465.96 -4.91591 1.16905 0
M  V30 15800 C 1468.16 -4.91258 1.52218 0
M  V30 15801 N 1466.14 -5.67457 2.34233 0
M  V30 15802 C 1467.51 -5.65488 2.5421 0
M  V30 15803 C 1469.57 -4.73329 1.54481 0
M  V30 15804 C 1468.27 -6.23696 3.58324 0
M  V30 15805 C 1470.3 -5.32403 2.5749 0
M  V30 15806 C 1469.66 -6.06521 3.58206 0
M  V30 15807 H 1465.76 -0.780921 -0.0410579 0
M  V30 15808 H 1468.34 -1.87828 0.512703 0
M  V30 15809 H 1466.51 -3.67628 -1.25317 0
M  V30 15810 H 1468.25 -3.88768 -1.12435 0
M  V30 15811 H 1465 -4.67888 0.733353 0
M  V30 15812 H 1465.42 -6.10052 2.9354 0
M  V30 15813 H 1470.07 -4.15549 0.779688 0
M  V30 15814 H 1467.78 -6.8057 4.35717 0
M  V30 15815 H 1471.37 -5.20423 2.60098 0
M  V30 15816 H 1470.25 -6.51418 4.36606 0
M  V30 15817 N 1467.75 -0.0969077 -1.57302 0
M  V30 15818 C 1469 0.566373 -1.94418 0
M  V30 15819 C 1469.33 1.68078 -0.978769 0
M  V30 15820 O 1468.58 1.957 0.0013214 0
M  V30 15821 C 1468.88 1.15972 -3.38061 0
M  V30 15822 C 1468.55 0.16892 -4.50583 0
M  V30 15823 C 1467.21 -0.103587 -4.81088 0
M  V30 15824 C 1469.56 -0.507513 -5.18723 0
M  V30 15825 C 1466.89 -1.05919 -5.7706 0
M  V30 15826 C 1469.24 -1.4516 -6.1572 0
M  V30 15827 C 1467.91 -1.73232 -6.44629 0
M  V30 15828 H 1467.18 0.207251 -0.711427 0
M  V30 15829 H 1469.82 -0.173125 -1.90716 0
M  V30 15830 H 1468.13 1.97551 -3.3835 0
M  V30 15831 H 1469.83 1.68066 -3.64081 0
M  V30 15832 H 1466.42 0.391501 -4.26808 0
M  V30 15833 H 1470.6 -0.310127 -4.9533 0
M  V30 15834 H 1465.86 -1.28366 -5.97773 0
M  V30 15835 H 1470.03 -1.98155 -6.67613 0
M  V30 15836 H 1467.66 -2.47436 -7.18804 0
M  V30 15837 N 1469.23 1.56605 0.176793 0
M  V30 15838 C 1470.16 1.99014 1.2213 0
M  V30 15839 C 1471.14 0.86487 1.46472 0
M  V30 15840 O 1472.33 1.13055 1.57899 0
M  V30 15841 C 1469.46 2.34534 2.56146 0
M  V30 15842 C 1468.41 3.4997 2.46384 0
M  V30 15843 C 1467.74 3.71217 3.8484 0
M  V30 15844 C 1469.04 4.83592 1.97323 0
M  V30 15845 H 1470.73 2.86517 0.8688 0
M  V30 15846 H 1468.28 1.37846 0.416481 0
M  V30 15847 H 1470.23 2.62799 3.29416 0
M  V30 15848 H 1468.95 1.43933 2.93174 0
M  V30 15849 H 1467.61 3.21824 1.75569 0
M  V30 15850 H 1467.26 2.77916 4.19251 0
M  V30 15851 H 1466.96 4.48885 3.79178 0
M  V30 15852 H 1468.49 4.01877 4.59704 0
M  V30 15853 H 1469.9 5.10768 2.60363 0
M  V30 15854 H 1468.3 5.64858 2.02622 0
M  V30 15855 H 1469.37 4.75951 0.927275 0
M  V30 15856 N 1470.71 -0.445159 1.51182 0
M  V30 15857 C 1472.13 -0.781023 1.39184 0
M  V30 15858 C 1472.33 -1.95988 0.468076 0
M  V30 15859 O 1471.38 -2.52374 -0.0796822 0
M  V30 15860 C 1472.69 -1.06874 2.81067 0
M  V30 15861 C 1474.24 -1.17364 2.90163 0
M  V30 15862 C 1474.72 -1.49433 4.32936 0
M  V30 15863 N 1476.21 -1.56373 4.36006 0
M  V30 15864 C 1476.94 -1.82743 5.435 0
M  V30 15865 N 1476.44 -2.06958 6.61166 0
M  V30 15866 N 1478.23 -1.84461 5.30971 0
M  V30 15867 H 1470.38 0.331347 2.098 0
M  V30 15868 H 1472.65 0.0858102 0.944108 0
M  V30 15869 H 1472.35 -0.275306 3.50621 0
M  V30 15870 H 1472.23 -1.99839 3.19913 0
M  V30 15871 H 1474.61 -1.95771 2.20812 0
M  V30 15872 H 1474.69 -0.22318 2.54825 0
M  V30 15873 H 1474.34 -0.715573 5.02834 0
M  V30 15874 H 1474.27 -2.45673 4.65782 0
M  V30 15875 H 1476.76 -1.39595 3.51172 0
M  V30 15876 H 1477.07 -2.26427 7.38885 0
M  V30 15877 H 1475.42 -2.04297 6.64295 0
M  V30 15878 H 1478.61 -1.65057 4.38034 0
M  V30 15879 H 1478.78 -2.04675 6.14827 0
M  V30 15880 N 1472.19 -1.41197 -0.700089 0
M  V30 15881 C 1473.13 -1.42688 -1.81407 0
M  V30 15882 C 1474.1 -0.28182 -1.63692 0
M  V30 15883 O 1475.29 -0.482196 -1.84606 0
M  V30 15884 C 1472.43 -1.31041 -3.19252 0
M  V30 15885 C 1471.54 -2.5538 -3.48432 0
M  V30 15886 C 1470.68 -2.3606 -4.75867 0
M  V30 15887 C 1469.72 -3.55898 -4.97999 0
M  V30 15888 N 1468.85 -3.35676 -6.16657 0
M  V30 15889 H 1473.69 -2.37898 -1.79467 0
M  V30 15890 H 1471.23 -1.18137 -0.87647 0
M  V30 15891 H 1473.19 -1.22292 -3.98874 0
M  V30 15892 H 1471.82 -0.394422 -3.20381 0
M  V30 15893 H 1470.87 -2.74598 -2.6325 0
M  V30 15894 H 1472.18 -3.44535 -3.6069 0
M  V30 15895 H 1471.34 -2.24752 -5.63535 0
M  V30 15896 H 1470.08 -1.44355 -4.65846 0
M  V30 15897 H 1469.08 -3.67665 -4.08781 0
M  V30 15898 H 1470.31 -4.4855 -5.09882 0
M  V30 15899 H 1468.25 -2.46667 -6.07858 0
M  V30 15900 H 1468.17 -4.18404 -6.29662 0
M  V30 15901 H 1469.44 -3.28132 -7.07071 0
M  V30 15902 N 1473.67 0.933891 -1.2695 0
M  V30 15903 C 1474.91 1.6834 -1.13091 0
M  V30 15904 C 1475.24 1.91484 0.32367 0
M  V30 15905 O 1474.52 1.50075 1.23724 0
M  V30 15906 C 1474.8 3.05374 -1.90838 0
M  V30 15907 C 1474.66 2.8951 -3.44244 0
M  V30 15908 C 1475.97 4.05607 -1.70795 0
M  V30 15909 H 1473.09 0.610944 -0.41221 0
M  V30 15910 H 1475.74 1.08416 -1.56032 0
M  V30 15911 H 1473.89 3.56526 -1.54343 0
M  V30 15912 H 1475.56 2.45523 -3.90533 0
M  V30 15913 H 1473.8 2.24981 -3.70899 0
M  V30 15914 H 1474.47 3.86734 -3.93879 0
M  V30 15915 H 1476.95 3.63443 -2.02604 0
M  V30 15916 H 1475.82 4.9949 -2.27597 0
M  V30 15917 H 1476.08 4.37231 -0.654327 0
M  V30 15918 N 1475.14 1.08871 1.13951 0
M  V30 15919 C 1476.42 0.73388 1.81311 0
M  V30 15920 C 1476.8 -0.781824 1.96089 0
M  V30 15921 O 1476.15 -1.70211 1.52448 0
M  V30 15922 C 1476.36 1.46631 3.16702 0
M  V30 15923 C 1477.71 1.62843 3.92132 0
M  V30 15924 O 1478.73 1.42836 3.26307 0
M  V30 15925 O 1477.59 1.95893 5.10185 0
M  V30 15926 H 1474.68 0.262976 0.784074 0
M  V30 15927 H 1477.23 1.19057 1.20927 0
M  V30 15928 H 1476 2.49863 3.01138 0
M  V30 15929 H 1475.62 1.00141 3.84782 0
M  V30 15930 N 1476.62 -1.31073 0.875073 0
M  V30 15931 C 1477.55 -2.27335 0.291809 0
M  V30 15932 C 1478.57 -1.53298 -0.548036 0
M  V30 15933 O 1479.76 -1.7464 -0.369198 0
M  V30 15934 C 1476.86 -3.33465 -0.604521 0
M  V30 15935 C 1476.03 -4.36924 0.204029 0
M  V30 15936 C 1475.09 -5.2252 -0.621238 0
M  V30 15937 O 1474.11 -5.6918 -0.0474551 0
M  V30 15938 N 1475.32 -5.47397 -1.93227 0
M  V30 15939 H 1478.08 -2.78024 1.11906 0
M  V30 15940 H 1475.64 -1.44149 0.737064 0
M  V30 15941 H 1477.63 -3.87646 -1.16243 0
M  V30 15942 H 1476.2 -2.8278 -1.33244 0
M  V30 15943 H 1475.42 -3.82745 0.943389 0
M  V30 15944 H 1476.71 -5.03112 0.758644 0
M  V30 15945 H 1476.11 -5.11253 -2.4215 0
M  V30 15946 H 1474.67 -6.04493 -2.43785 0
M  V30 15947 N 1478.1 -0.635022 -1.4424 0
M  V30 15948 C 1479.05 0.0675707 -2.30701 0
M  V30 15949 C 1480.02 0.832919 -1.43707 0
M  V30 15950 O 1481.2 0.813177 -1.72604 0
M  V30 15951 C 1478.34 1.04053 -3.2904 0
M  V30 15952 C 1477.46 0.273191 -4.31135 0
M  V30 15953 C 1476.59 1.23831 -5.16565 0
M  V30 15954 C 1475.63 0.460359 -6.10366 0
M  V30 15955 N 1474.77 1.37614 -6.88481 0
M  V30 15956 H 1479.61 -0.675656 -2.90239 0
M  V30 15957 H 1477.14 -0.344971 -1.42998 0
M  V30 15958 H 1479.1 1.61805 -3.84545 0
M  V30 15959 H 1477.73 1.75084 -2.71193 0
M  V30 15960 H 1476.78 -0.420315 -3.78071 0
M  V30 15961 H 1478.1 -0.332548 -4.9769 0
M  V30 15962 H 1477.25 1.88704 -5.76607 0
M  V30 15963 H 1475.99 1.87797 -4.50093 0
M  V30 15964 H 1474.99 -0.201836 -5.49429 0
M  V30 15965 H 1476.22 -0.174639 -6.78875 0
M  V30 15966 H 1474.16 2.00294 -6.24675 0
M  V30 15967 H 1474.08 0.82452 -7.5149 0
M  V30 15968 H 1475.35 2.01359 -7.53044 0
M  V30 15969 N 1479.58 1.53054 -0.375806 0
M  V30 15970 C 1480.8 2.06296 0.213708 0
M  V30 15971 C 1481.23 1.24675 1.40846 0
M  V30 15972 O 1480.59 0.268371 1.79303 0
M  V30 15973 C 1480.63 3.55981 0.575301 0
M  V30 15974 O 1479.74 3.77023 1.67115 0
M  V30 15975 H 1479.08 0.66338 0.0286922 0
M  V30 15976 H 1481.61 1.97362 -0.539371 0
M  V30 15977 H 1481.62 3.99187 0.843431 0
M  V30 15978 H 1480.29 4.14829 -0.298258 0
M  V30 15979 H 1478.87 3.45712 1.39778 0
M  V30 15980 N 1481.06 0.105248 1.57248 0
M  V30 15981 C 1482.28 -0.564157 1.9906 0
M  V30 15982 C 1482.7 -1.61092 0.984624 0
M  V30 15983 O 1482.06 -1.82484 -0.0244031 0
M  V30 15984 C 1482.11 -1.20272 3.40906 0
M  V30 15985 O 1481.83 -0.197815 4.37653 0
M  V30 15986 C 1483.33 -1.95677 3.97776 0
M  V30 15987 H 1480.55 -0.150468 0.653912 0
M  V30 15988 H 1483.09 0.187532 2.03638 0
M  V30 15989 H 1481.25 -1.90528 3.3731 0
M  V30 15990 H 1481.66 -0.659998 5.20331 0
M  V30 15991 H 1483.14 -2.35702 4.99148 0
M  V30 15992 H 1483.61 -2.82661 3.36154 0
M  V30 15993 H 1484.22 -1.30215 4.04876 0
M  V30 15994 N 1482.53 -1.56697 -0.168486 0
M  V30 15995 C 1483.78 -1.81346 -0.882973 0
M  V30 15996 C 1484.1 -0.682975 -1.83289 0
M  V30 15997 O 1485.3 -0.814479 -2.58995 0
M  V30 15998 C 1483.76 -3.21345 -1.62066 0
M  V30 15999 C 1483.37 -4.4227 -0.714241 0
M  V30 16000 C 1485.11 -3.55285 -2.32321 0
M  V30 16001 C 1483.02 -5.7329 -1.45233 0
M  V30 16002 H 1481.95 -0.676254 -0.333461 0
M  V30 16003 H 1484.6 -1.82996 -0.135871 0
M  V30 16004 H 1482.98 -3.1402 -2.41262 0
M  V30 16005 H 1484.15 -4.60782 0.0409556 0
M  V30 16006 H 1482.47 -4.16224 -0.121205 0
M  V30 16007 H 1485.07 -4.50421 -2.88141 0
M  V30 16008 H 1485.41 -2.80301 -3.07793 0
M  V30 16009 H 1485.94 -3.64176 -1.60066 0
M  V30 16010 H 1482.68 -6.51311 -0.739869 0
M  V30 16011 H 1482.2 -5.58751 -2.18077 0
M  V30 16012 H 1483.88 -6.15343 -1.99905 0
M  V30 16013 N 1484.01 0.437135 -1.51416 0
M  V30 16014 C 1485.26 1.18831 -1.64338 0
M  V30 16015 C 1485.59 1.9086 -0.358638 0
M  V30 16016 O 1484.87 1.83607 0.641769 0
M  V30 16017 C 1485.15 2.20515 -2.84685 0
M  V30 16018 C 1485 1.52568 -4.23135 0
M  V30 16019 C 1486.32 3.21494 -3.00549 0
M  V30 16020 H 1483.44 0.430652 -0.598087 0
M  V30 16021 H 1486.08 0.47753 -1.83901 0
M  V30 16022 H 1484.23 2.81132 -2.68136 0
M  V30 16023 H 1485.9 0.952851 -4.51352 0
M  V30 16024 H 1484.15 0.828025 -4.25824 0
M  V30 16025 H 1484.82 2.26623 -5.03335 0
M  V30 16026 H 1487.29 2.7093 -3.1581 0
M  V30 16027 H 1486.17 3.89934 -3.86319 0
M  V30 16028 H 1486.43 3.8761 -2.12629 0
M  V30 16029 N 1485.49 1.41566 0.692592 0
M  V30 16030 C 1486.72 1.44236 1.47917 0
M  V30 16031 C 1487.13 0.0469112 1.89142 0
M  V30 16032 O 1486.47 -0.944788 1.57542 0
M  V30 16033 C 1486.53 2.29056 2.7708 0
M  V30 16034 C 1486.2 3.77179 2.58041 0
M  V30 16035 C 1487.19 4.69267 2.23795 0
M  V30 16036 C 1484.88 4.21253 2.73589 0
M  V30 16037 C 1486.87 6.03419 2.05338 0
M  V30 16038 C 1484.56 5.55469 2.54749 0
M  V30 16039 C 1485.56 6.46368 2.20675 0
M  V30 16040 O 1485.25 7.78107 2.02002 0
M  V30 16041 H 1484.98 0.493237 0.462269 0
M  V30 16042 H 1487.53 1.8653 0.859984 0
M  V30 16043 H 1485.76 1.8158 3.41417 0
M  V30 16044 H 1487.45 2.23392 3.38897 0
M  V30 16045 H 1488.22 4.36506 2.11395 0
M  V30 16046 H 1484.1 3.50804 2.99094 0
M  V30 16047 H 1487.64 6.74333 1.78665 0
M  V30 16048 H 1483.54 5.87809 2.66741 0
M  V30 16049 H 1484.31 7.89282 2.16741 0
M  V30 16050 N 1486.97 -0.927146 1.27443 0
M  V30 16051 C 1488.38 -1.48984 1.1252 0
M  V30 16052 C 1488.73 -1.94051 -0.289602 0
M  V30 16053 O 1487.86 -1.8123 -1.18257 0
M  V30 16054 C 1488.45 -2.70765 2.03646 0
M  V30 16055 C 1487.01 -3.23256 1.92827 0
M  V30 16056 C 1486.16 -1.95991 1.9617 0
M  V30 16057 H 1489.11 -0.741196 1.40328 0
M  V30 16058 H 1489.13 -3.45567 1.5926 0
M  V30 16059 H 1488.64 -2.37933 3.0661 0
M  V30 16060 H 1486.74 -3.60845 0.928516 0
M  V30 16061 H 1486.85 -3.89413 2.79096 0
M  V30 16062 H 1485.22 -2.12508 1.40402 0
M  V30 16063 H 1486 -1.65473 3.00788 0
M  V30 16064 N 1488.45 -1.09474 -1.13372 0
M  V30 16065 C 1489.39 -0.729274 -2.20872 0
M  V30 16066 C 1490.39 0.270036 -1.67234 0
M  V30 16067 O 1491.59 0.131445 -1.79519 0
M  V30 16068 H 1487.97 -0.217852 -0.719753 0
M  V30 16069 H 1489.94 -1.64505 -2.48959 0
M  V30 16070 C 1488.69 -0.166518 -3.47301 0
M  V30 16071 H 1488.01 -0.926666 -3.88913 0
M  V30 16072 H 1489.45 0.0512617 -4.23969 0
M  V30 16073 C 1487.91 1.09836 -3.18493 0
M  V30 16074 O 1488.44 2.18152 -3.37302 0
M  V30 16075 N 1486.65 1.01307 -2.7237 0
M  V30 16076 H 1486.19 0.131551 -2.57264 0
M  V30 16077 H 1486.15 1.86011 -2.5347 0
M  V30 16078 N 1489.92 1.30607 -0.882012 0
M  V30 16079 C 1490.87 2.2821 -0.344826 0
M  V30 16080 C 1491.84 1.56254 0.563361 0
M  V30 16081 O 1493.03 1.84336 0.492416 0
M  V30 16082 C 1490.17 3.42319 0.437216 0
M  V30 16083 C 1489.28 4.29098 -0.499851 0
M  V30 16084 C 1488.41 5.30366 0.297497 0
M  V30 16085 C 1487.45 6.08795 -0.63523 0
M  V30 16086 N 1486.59 7.01986 0.12661 0
M  V30 16087 H 1491.43 2.73543 -1.18229 0
M  V30 16088 H 1488.97 1.34556 -0.594392 0
M  V30 16089 H 1490.93 4.07232 0.906521 0
M  V30 16090 H 1489.56 2.98063 1.23928 0
M  V30 16091 H 1488.61 3.6452 -1.08764 0
M  V30 16092 H 1489.92 4.83787 -1.21454 0
M  V30 16093 H 1489.07 6.01013 0.828786 0
M  V30 16094 H 1487.81 4.76364 1.04542 0
M  V30 16095 H 1486.82 5.37028 -1.17817 0
M  V30 16096 H 1488.04 6.64885 -1.3822 0
M  V30 16097 H 1485.99 6.50376 0.857125 0
M  V30 16098 H 1485.91 7.5415 -0.528512 0
M  V30 16099 H 1487.17 7.76879 0.638738 0
M  V30 16100 N 1491.4 0.642663 1.43901 0
M  V30 16101 C 1492.81 0.232809 1.85243 0
M  V30 16102 C 1493.16 -1.21834 1.53789 0
M  V30 16103 O 1492.29 -1.92855 0.981625 0
M  V30 16104 C 1492.88 0.415749 3.36239 0
M  V30 16105 C 1491.44 0.0603055 3.76352 0
M  V30 16106 C 1490.59 0.723658 2.67691 0
M  V30 16107 H 1493.54 0.847052 1.34204 0
M  V30 16108 H 1493.56 -0.341903 3.78961 0
M  V30 16109 H 1493.07 1.472 3.59101 0
M  V30 16110 H 1491.18 -0.993761 3.59103 0
M  V30 16111 H 1491.29 0.478408 4.76705 0
M  V30 16112 H 1489.65 0.15787 2.5421 0
M  V30 16113 H 1490.44 1.78273 2.93383 0
M  V30 16114 N 1492.88 -1.52852 0.383918 0
M  V30 16115 C 1494.3 -1.59565 0.0336391 0
M  V30 16116 C 1494.5 -1.39819 -1.45097 0
M  V30 16117 O 1493.55 -1.21249 -2.21484 0
M  V30 16118 C 1494.87 -2.96412 0.506001 0
M  V30 16119 C 1496.41 -3.09575 0.461794 0
M  V30 16120 C 1496.89 -4.48863 0.910259 0
M  V30 16121 N 1498.38 -4.55032 0.866053 0
M  V30 16122 C 1499.12 -5.61032 1.18453 0
M  V30 16123 N 1498.61 -6.74701 1.57321 0
M  V30 16124 N 1500.4 -5.51109 1.10613 0
M  V30 16125 H 1492.56 -1.63937 1.3505 0
M  V30 16126 H 1494.82 -0.769857 0.553194 0
M  V30 16127 H 1494.52 -3.16061 1.54268 0
M  V30 16128 H 1494.4 -3.77073 -0.0977643 0
M  V30 16129 H 1496.79 -2.89625 -0.565786 0
M  V30 16130 H 1496.87 -2.30879 1.10129 0
M  V30 16131 H 1496.51 -4.69553 1.93604 0
M  V30 16132 H 1496.44 -5.26017 0.247825 0
M  V30 16133 H 1498.93 -3.73423 0.579962 0
M  V30 16134 H 1499.24 -7.51545 1.8 0
M  V30 16135 H 1497.59 -6.76046 1.61203 0
M  V30 16136 H 1500.78 -4.61187 0.801531 0
M  V30 16137 H 1500.95 -6.33618 1.35766 0
M  V30 16138 N 1494.36 -0.113586 -1.5719 0
M  V30 16139 C 1495.58 0.556928 -1.99783 0
M  V30 16140 C 1496.01 1.59774 -0.992669 0
M  V30 16141 O 1495.37 1.81263 0.0363821 0
M  V30 16142 C 1495.42 1.16463 -3.41275 0
M  V30 16143 O 1494.52 2.28024 -3.43626 0
M  V30 16144 H 1493.86 0.139628 -0.649153 0
M  V30 16145 H 1496.39 -0.200462 -2.03616 0
M  V30 16146 H 1496.4 1.50147 -3.79368 0
M  V30 16147 H 1495.08 0.402232 -4.1395 0
M  V30 16148 H 1493.65 1.9582 -3.17347 0
M  V30 16149 N 1495.84 1.56784 0.160173 0
M  V30 16150 C 1497.09 1.8226 0.873253 0
M  V30 16151 C 1497.41 0.692384 1.82294 0
M  V30 16152 O 1496.68 -0.286961 1.93787 0
M  V30 16153 H 1495.26 0.672371 0.325463 0
M  V30 16154 H 1497.92 1.94264 0.157325 0
M  V30 16155 H 1497.01 2.76714 1.44345 0
M  V30 16156 N 1497.32 -0.429099 1.51646 0
M  V30 16157 C 1498.56 -1.17551 1.64396 0
M  V30 16158 C 1498.88 -1.91526 0.366444 0
M  V30 16159 O 1498.15 -1.85896 -0.618013 0
M  V30 16160 H 1496.73 -0.436918 0.605898 0
M  V30 16161 H 1499.4 -0.491159 1.8861 0
M  V30 16162 H 1498.49 -1.90057 2.47557 0
M  V30 16163 N 1498.79 -1.41931 -0.685074 0
M  V30 16164 C 1499.73 -1.39028 -1.8096 0
M  V30 16165 C 1500.7 -0.256001 -1.60572 0
M  V30 16166 O 1501.89 -0.44459 -1.83182 0
M  V30 16167 C 1499.02 -1.17125 -3.17804 0
M  V30 16168 C 1498.06 -2.33411 -3.56961 0
M  V30 16169 S 1498.89 -3.9592 -3.60565 0
M  V30 16170 C 1500.05 -3.7634 -5.00119 0
M  V30 16171 H 1500.28 -2.34189 -1.83146 0
M  V30 16172 H 1497.82 -1.2858 -0.854778 0
M  V30 16173 H 1499.77 -1.05175 -3.96798 0
M  V30 16174 H 1498.44 -0.235668 -3.13215 0
M  V30 16175 H 1497.63 -2.13807 -4.56402 0
M  V30 16176 H 1497.23 -2.41823 -2.85303 0
M  V30 16177 H 1499.52 -3.36695 -5.87914 0
M  V30 16178 H 1500.47 -4.7542 -5.24768 0
M  V30 16179 H 1500.87 -3.09407 -4.72152 0
M  V30 16180 N 1500.27 0.920374 -1.27933 0
M  V30 16181 C 1501.2 2.03882 -1.13817 0
M  V30 16182 C 1502.18 1.70058 -0.0376853 0
M  V30 16183 O 1503.37 1.93023 -0.213492 0
M  V30 16184 C 1500.5 3.38142 -0.792296 0
M  V30 16185 C 1499.45 3.86104 -1.84683 0
M  V30 16186 C 1498.78 5.17253 -1.35474 0
M  V30 16187 C 1500.08 4.0869 -3.25223 0
M  V30 16188 H 1501.77 2.15949 -2.07379 0
M  V30 16189 H 1499.32 1.03764 -0.998454 0
M  V30 16190 H 1501.27 4.15872 -0.680337 0
M  V30 16191 H 1499.99 3.26109 0.179029 0
M  V30 16192 H 1498.65 3.10573 -1.94782 0
M  V30 16193 H 1498.3 5.01618 -0.372666 0
M  V30 16194 H 1498 5.50314 -2.05982 0
M  V30 16195 H 1499.53 5.97545 -1.25587 0
M  V30 16196 H 1500.94 4.76965 -3.18083 0
M  V30 16197 H 1499.34 4.5307 -3.93507 0
M  V30 16198 H 1500.41 3.13729 -3.69733 0
M  V30 16199 N 1501.75 1.10074 1.1279 0
M  V30 16200 C 1503 0.840873 1.84216 0
M  V30 16201 C 1503.32 -0.633551 1.83892 0
M  V30 16202 O 1502.58 -1.48283 1.27714 0
M  V30 16203 C 1502.88 1.32969 3.31744 0
M  V30 16204 C 1502.54 2.81489 3.52242 0
M  V30 16205 C 1501.21 3.22048 3.57545 0
M  V30 16206 C 1503.56 3.77216 3.59664 0
M  V30 16207 C 1500.89 4.57092 3.67809 0
M  V30 16208 C 1503.24 5.12057 3.71457 0
M  V30 16209 C 1501.9 5.52196 3.75014 0
M  V30 16210 H 1501.17 0.307697 0.674095 0
M  V30 16211 H 1503.82 1.37669 1.33115 0
M  V30 16212 H 1502.12 0.713819 3.85243 0
M  V30 16213 H 1503.82 1.10515 3.8547 0
M  V30 16214 H 1500.41 2.49106 3.48775 0
M  V30 16215 H 1504.6 3.4699 3.5484 0
M  V30 16216 H 1499.85 4.87618 3.68834 0
M  V30 16217 H 1504.03 5.86081 3.76142 0
M  V30 16218 H 1501.65 6.56833 3.8272 0
M  V30 16219 N 1503.23 -1.30138 0.888926 0
M  V30 16220 C 1504.18 -2.25598 0.33005 0
M  V30 16221 C 1505.16 -1.51434 -0.543751 0
M  V30 16222 O 1506.35 -1.72706 -0.387529 0
M  V30 16223 C 1503.48 -3.40326 -0.450925 0
M  V30 16224 C 1502.57 -4.21841 0.437187 0
M  V30 16225 N 1502.96 -4.81803 1.53947 0
M  V30 16226 C 1501.26 -4.45391 0.233015 0
M  V30 16227 C 1501.96 -5.42907 2.0887 0
M  V30 16228 N 1500.93 -5.25709 1.38314 0
M  V30 16229 H 1504.74 -2.6951 1.17224 0
M  V30 16230 H 1502.25 -1.44623 0.738771 0
M  V30 16231 H 1504.25 -4.07764 -0.867971 0
M  V30 16232 H 1502.91 -2.97953 -1.2905 0
M  V30 16233 H 1503.92 -4.80904 1.92229 0
M  V30 16234 H 1500.6 -4.13603 -0.569074 0
M  V30 16235 H 1501.99 -6.00478 3.01457 0
M  V30 16236 N 1504.71 -0.650285 -1.43559 0
M  V30 16237 C 1505.95 -0.159832 -2.01066 0
M  V30 16238 C 1506.27 1.23246 -1.51887 0
M  V30 16239 O 1507.47 1.81797 -2.01648 0
M  V30 16240 C 1505.93 -0.23494 -3.59132 0
M  V30 16241 C 1505.54 -1.62975 -4.17305 0
M  V30 16242 C 1507.28 0.198061 -4.24038 0
M  V30 16243 C 1505.19 -1.65894 -5.67656 0
M  V30 16244 H 1504.12 -0.0559899 -0.751918 0
M  V30 16245 H 1506.77 -0.811891 -1.64562 0
M  V30 16246 H 1505.15 0.484573 -3.93024 0
M  V30 16247 H 1506.33 -2.37438 -3.94918 0
M  V30 16248 H 1504.64 -2.00847 -3.64759 0
M  V30 16249 H 1507.24 0.196054 -5.3434 0
M  V30 16250 H 1507.58 1.22896 -3.97747 0
M  V30 16251 H 1508.11 -0.469602 -3.95018 0
M  V30 16252 H 1504.85 -2.66883 -5.9871 0
M  V30 16253 H 1504.37 -0.957519 -5.92108 0
M  V30 16254 H 1506.05 -1.40137 -6.31641 0
M  V30 16255 N 1506.18 1.52647 -0.392018 0
M  V30 16256 C 1507.43 2.01613 0.1893 0
M  V30 16257 C 1507.76 1.27837 1.46588 0
M  V30 16258 O 1507.01 0.368018 1.92209 0
M  V30 16259 C 1507.31 3.53872 0.500914 0
M  V30 16260 C 1506.98 4.45675 -0.684434 0
M  V30 16261 C 1505.64 4.70489 -1.00961 0
M  V30 16262 C 1507.99 4.99825 -1.4773 0
M  V30 16263 C 1505.32 5.46703 -2.12915 0
M  V30 16264 C 1507.67 5.77263 -2.58747 0
M  V30 16265 C 1506.34 6.00355 -2.9177 0
M  V30 16266 H 1505.61 0.737755 0.0692697 0
M  V30 16267 H 1508.25 1.84022 -0.529924 0
M  V30 16268 H 1506.56 3.69551 1.3015 0
M  V30 16269 H 1508.26 3.89256 0.963382 0
M  V30 16270 H 1504.85 4.26527 -0.420985 0
M  V30 16271 H 1509.03 4.80577 -1.23932 0
M  V30 16272 H 1504.29 5.62807 -2.38868 0
M  V30 16273 H 1508.46 6.18223 -3.20583 0
M  V30 16274 H 1506.09 6.59194 -3.7864 0
M  V30 16275 N 1507.66 0.121921 1.57128 0
M  V30 16276 C 1508.9 -0.538423 1.97181 0
M  V30 16277 C 1509.27 -1.63661 1.00394 0
M  V30 16278 O 1510.47 -2.35606 1.29396 0
M  V30 16279 C 1508.74 -1.05469 3.41484 0
M  V30 16280 S 1510.3 -1.72315 4.0355 0
M  V30 16281 H 1507.12 -0.174913 0.689149 0
M  V30 16282 H 1509.72 0.207694 1.94394 0
M  V30 16283 H 1508.42 -0.244297 4.09672 0
M  V30 16284 H 1507.95 -1.83602 3.47928 0
M  V30 16285 H 1509.97 -3.0091 3.94547 0
M  V30 16286 N 1509.14 -1.56867 -0.151857 0
M  V30 16287 C 1510.39 -1.83082 -0.865285 0
M  V30 16288 C 1510.72 -0.702056 -1.81387 0
M  V30 16289 O 1509.97 0.309291 -1.9324 0
M  V30 16290 C 1510.27 -3.15597 -1.6773 0
M  V30 16291 C 1509.94 -4.4231 -0.875929 0
M  V30 16292 C 1508.6 -4.76724 -0.654826 0
M  V30 16293 C 1510.95 -5.20246 -0.315162 0
M  V30 16294 C 1508.28 -5.86538 0.13783 0
M  V30 16295 C 1510.63 -6.30892 0.464508 0
M  V30 16296 C 1509.29 -6.63859 0.696233 0
M  V30 16297 H 1508.56 -0.669945 -0.31663 0
M  V30 16298 H 1511.21 -1.91064 -0.129175 0
M  V30 16299 H 1509.52 -3.03044 -2.48338 0
M  V30 16300 H 1511.21 -3.33094 -2.23269 0
M  V30 16301 H 1507.8 -4.15328 -1.05832 0
M  V30 16302 H 1511.99 -4.94038 -0.473273 0
M  V30 16303 H 1507.24 -6.10525 0.32691 0
M  V30 16304 H 1511.42 -6.90479 0.906187 0
M  V30 16305 H 1509.04 -7.48788 1.3123 0
M  V30 16306 N 1510.62 0.421051 -1.51871 0
M  V30 16307 C 1511.55 1.51928 -1.77313 0
M  V30 16308 C 1512.53 1.58258 -0.623579 0
M  V30 16309 O 1513.71 1.73724 -0.867967 0
M  V30 16310 C 1510.84 2.89865 -1.913 0
M  V30 16311 C 1509.8 2.98391 -3.06834 0
M  V30 16312 C 1509.12 4.38466 -3.06026 0
M  V30 16313 C 1510.42 2.7097 -4.46511 0
M  V30 16314 H 1512.12 1.30889 -2.69274 0
M  V30 16315 H 1509.66 0.628229 -1.29573 0
M  V30 16316 H 1511.62 3.66669 -2.07682 0
M  V30 16317 H 1510.34 3.12172 -0.960011 0
M  V30 16318 H 1509 2.24029 -2.90184 0
M  V30 16319 H 1508.65 4.57764 -2.08472 0
M  V30 16320 H 1508.35 4.45097 -3.83618 0
M  V30 16321 H 1509.87 5.17221 -3.24522 0
M  V30 16322 H 1511.29 3.37501 -4.63428 0
M  V30 16323 H 1509.68 2.88992 -5.25931 0
M  V30 16324 H 1510.75 1.66476 -4.55427 0
M  V30 16325 N 1512.1 1.42293 0.677538 0
M  V30 16326 C 1513.34 1.42616 1.4376 0
M  V30 16327 C 1513.67 0.0416268 1.94455 0
M  V30 16328 O 1512.93 -0.949544 1.7112 0
M  V30 16329 C 1513.23 2.3951 2.65273 0
M  V30 16330 C 1512.89 3.85952 2.33135 0
M  V30 16331 C 1511.55 4.25842 2.24081 0
M  V30 16332 C 1513.91 4.78337 2.06987 0
M  V30 16333 C 1511.23 5.561 1.87001 0
M  V30 16334 C 1513.59 6.08934 1.71411 0
M  V30 16335 C 1512.25 6.47826 1.60865 0
M  V30 16336 H 1511.52 0.521869 0.526055 0
M  V30 16337 H 1514.17 1.75214 0.772797 0
M  V30 16338 H 1512.47 2.00229 3.36773 0
M  V30 16339 H 1514.17 2.37025 3.2345 0
M  V30 16340 H 1510.76 3.54369 2.41083 0
M  V30 16341 H 1514.94 4.48308 2.12916 0
M  V30 16342 H 1510.2 5.85097 1.77403 0
M  V30 16343 H 1514.37 6.80009 1.50203 0
M  V30 16344 H 1512 7.48669 1.31902 0
M  V30 16345 N 1513.57 -0.913576 1.28419 0
M  V30 16346 C 1514.81 -1.67716 1.16836 0
M  V30 16347 C 1515.18 -1.8997 -0.278452 0
M  V30 16348 O 1516.38 -2.63781 -0.516994 0
M  V30 16349 C 1514.65 -2.99838 1.94504 0
M  V30 16350 S 1516.21 -3.9093 1.99297 0
M  V30 16351 H 1513.03 -0.575987 0.416845 0
M  V30 16352 H 1515.63 -1.08661 1.62521 0
M  V30 16353 H 1514.33 -2.81343 2.98788 0
M  V30 16354 H 1513.86 -3.6394 1.4937 0
M  V30 16355 H 1515.88 -4.83863 1.0996 0
M  V30 16356 N 1515.05 -1.1067 -1.12204 0
M  V30 16357 C 1516.28 -0.872867 -1.87586 0
M  V30 16358 C 1516.7 0.57682 -1.79773 0
M  V30 16359 O 1516.05 1.39782 -1.17334 0
M  V30 16360 C 1516.1 -1.31572 -3.36706 0
M  V30 16361 O 1515.82 -2.70856 -3.44338 0
M  V30 16362 C 1517.33 -1.11613 -4.29019 0
M  V30 16363 H 1514.55 -0.313132 -0.593455 0
M  V30 16364 H 1517.09 -1.47199 -1.4196 0
M  V30 16365 H 1515.24 -0.760212 -3.79868 0
M  V30 16366 H 1515.66 -2.89854 -4.37132 0
M  V30 16367 H 1517.13 -1.4751 -5.31925 0
M  V30 16368 H 1517.61 -0.0549698 -4.39166 0
M  V30 16369 H 1518.22 -1.65822 -3.91642 0
M  V30 16370 N 1516.53 1.29665 -0.895815 0
M  V30 16371 C 1517.78 1.9533 -0.518725 0
M  V30 16372 C 1518.1 1.70995 0.937322 0
M  V30 16373 O 1517.37 1.03955 1.66043 0
M  V30 16374 H 1515.95 0.722736 -0.188841 0
M  V30 16375 H 1518.61 1.57991 -1.14126 0
M  V30 16376 H 1517.71 3.04193 -0.698057 0
M  V30 16377 N 1518.01 0.657889 1.43212 0
M  V30 16378 C 1518.92 -0.0313677 2.34579 0
M  V30 16379 C 1519.93 -0.807153 1.54146 0
M  V30 16380 O 1521.11 -0.753335 1.8678 0
M  V30 16381 C 1518.18 -0.982659 3.32483 0
M  V30 16382 C 1517.24 -0.203288 4.28818 0
M  V30 16383 C 1516.47 -1.10927 5.22045 0
M  V30 16384 O 1516.69 -2.34861 5.19804 0
M  V30 16385 O 1515.63 -0.57916 5.99107 0
M  V30 16386 H 1519.45 0.720808 2.95022 0
M  V30 16387 H 1517.04 0.418083 1.43431 0
M  V30 16388 H 1518.92 -1.52923 3.92673 0
M  V30 16389 H 1517.59 -1.71498 2.74536 0
M  V30 16390 H 1516.5 0.386982 3.72093 0
M  V30 16391 H 1517.83 0.489562 4.89759 0
M  V30 16392 N 1519.49 -1.52437 0.400108 0
M  V30 16393 C 1520.74 -2.00896 -0.179909 0
M  V30 16394 C 1521.05 -1.29046 -1.46991 0
M  V30 16395 O 1522.25 -1.68274 -2.13063 0
M  V30 16396 C 1520.71 -3.57981 -0.371169 0
M  V30 16397 C 1520.32 -4.38739 0.906213 0
M  V30 16398 C 1522.06 -4.14698 -0.906965 0
M  V30 16399 C 1519.97 -5.87447 0.682637 0
M  V30 16400 H 1518.9 -0.750649 -0.071008 0
M  V30 16401 H 1521.55 -1.75854 0.524169 0
M  V30 16402 H 1519.93 -3.79315 -1.13736 0
M  V30 16403 H 1521.11 -4.29167 1.67785 0
M  V30 16404 H 1519.42 -3.93296 1.36776 0
M  V30 16405 H 1522.02 -5.2347 -1.09012 0
M  V30 16406 H 1522.36 -3.71477 -1.87911 0
M  V30 16407 H 1522.89 -3.97297 -0.200068 0
M  V30 16408 H 1519.63 -6.35011 1.62608 0
M  V30 16409 H 1519.15 -5.99779 -0.0498716 0
M  V30 16410 H 1520.83 -6.46202 0.321331 0
M  V30 16411 N 1520.96 -0.130252 -1.57061 0
M  V30 16412 C 1522.38 0.226279 -1.57988 0
M  V30 16413 C 1522.58 1.65902 -1.14363 0
M  V30 16414 O 1521.64 2.38252 -0.836191 0
M  V30 16415 C 1522.95 -0.0172647 -3.00695 0
M  V30 16416 C 1524.5 0.0477572 -3.12964 0
M  V30 16417 C 1524.97 -0.168238 -4.57691 0
M  V30 16418 N 1526.46 -0.114591 -4.63058 0
M  V30 16419 C 1527.2 -0.256462 -5.72826 0
M  V30 16420 N 1526.69 -0.455129 -6.91303 0
M  V30 16421 N 1528.49 -0.195243 -5.61761 0
M  V30 16422 H 1520.64 -1.06594 -1.83716 0
M  V30 16423 H 1522.9 -0.420643 -0.849567 0
M  V30 16424 H 1522.61 -1.00819 -3.3694 0
M  V30 16425 H 1522.48 0.709629 -3.70465 0
M  V30 16426 H 1524.87 1.02922 -2.7657 0
M  V30 16427 H 1524.95 -0.711198 -2.45714 0
M  V30 16428 H 1524.59 -1.14673 -4.94785 0
M  V30 16429 H 1524.52 0.610839 -5.23045 0
M  V30 16430 H 1527.01 0.0349873 -3.77884 0
M  V30 16431 H 1527.33 -0.553943 -7.70812 0
M  V30 16432 H 1525.67 -0.491244 -6.93262 0
M  V30 16433 H 1528.86 -0.0409186 -4.68082 0
M  V30 16434 H 1529.04 -0.309248 -6.47262 0
M  V30 16435 N 1522.44 1.56945 0.143535 0
M  V30 16436 C 1523.38 1.95134 1.2023 0
M  V30 16437 C 1524.39 0.847593 1.38995 0
M  V30 16438 O 1525.58 1.12599 1.38505 0
M  V30 16439 C 1522.68 2.21316 2.56656 0
M  V30 16440 C 1521.85 3.52604 2.58822 0
M  V30 16441 C 1520.91 3.67285 3.76813 0
M  V30 16442 O 1519.94 4.39644 3.61527 0
M  V30 16443 N 1521.14 3.04208 4.94406 0
M  V30 16444 H 1523.9 2.86561 0.87766 0
M  V30 16445 H 1521.46 1.58437 0.333065 0
M  V30 16446 H 1523.46 2.28375 3.34106 0
M  V30 16447 H 1522.03 1.36137 2.81399 0
M  V30 16448 H 1521.25 3.56954 1.67264 0
M  V30 16449 H 1522.53 4.38944 2.57304 0
M  V30 16450 H 1521.93 2.45344 5.09728 0
M  V30 16451 H 1520.49 3.16824 5.69619 0
M  V30 16452 N 1523.92 -0.412991 1.52093 0
M  V30 16453 C 1524.83 -1.52768 1.78042 0
M  V30 16454 C 1525.85 -1.60758 0.665791 0
M  V30 16455 O 1527.02 -1.77545 0.950772 0
M  V30 16456 C 1524.09 -2.8854 1.92213 0
M  V30 16457 C 1523.15 -2.90468 3.16112 0
M  V30 16458 C 1522.38 -4.19763 3.29598 0
M  V30 16459 O 1522.61 -5.13454 2.48438 0
M  V30 16460 O 1521.54 -4.2847 4.22726 0
M  V30 16461 H 1525.37 -1.33777 2.72649 0
M  V30 16462 H 1522.95 -0.598461 1.3689 0
M  V30 16463 H 1524.83 -3.69073 2.03379 0
M  V30 16464 H 1523.51 -3.07607 1.00795 0
M  V30 16465 H 1522.41 -2.08801 3.10408 0
M  V30 16466 H 1523.75 -2.76349 4.07298 0
M  V30 16467 N 1525.4 -1.4265 -0.669982 0
M  V30 16468 C 1526.65 -1.42667 -1.42579 0
M  V30 16469 C 1526.96 -0.0483217 -1.9554 0
M  V30 16470 O 1528.17 0.0740917 -2.71399 0
M  V30 16471 C 1526.62 -2.5098 -2.57948 0
M  V30 16472 C 1526.23 -3.94844 -2.11666 0
M  V30 16473 C 1527.98 -2.6017 -3.35428 0
M  V30 16474 C 1525.88 -4.94655 -3.24146 0
M  V30 16475 H 1524.81 -0.530651 -0.535654 0
M  V30 16476 H 1527.46 -1.68576 -0.724861 0
M  V30 16477 H 1525.85 -2.18244 -3.30432 0
M  V30 16478 H 1527.02 -4.36958 -1.46303 0
M  V30 16479 H 1525.33 -3.89547 -1.47111 0
M  V30 16480 H 1527.93 -3.31918 -4.19207 0
M  V30 16481 H 1528.27 -1.64683 -3.82342 0
M  V30 16482 H 1528.81 -2.92124 -2.70016 0
M  V30 16483 H 1525.55 -5.91636 -2.82218 0
M  V30 16484 H 1525.07 -4.57168 -3.88275 0
M  V30 16485 H 1526.75 -5.16593 -3.89538 0
M  V30 16486 N 1526.88 0.906753 -1.28902 0
M  V30 16487 C 1528.29 1.47175 -1.14876 0
M  V30 16488 C 1528.64 1.94487 0.258693 0
M  V30 16489 O 1527.76 1.83088 1.15359 0
M  V30 16490 C 1528.36 2.67491 -2.07928 0
M  V30 16491 C 1526.92 3.20148 -1.97946 0
M  V30 16492 C 1526.07 1.92846 -1.99263 0
M  V30 16493 H 1529.02 0.718777 -1.4149 0
M  V30 16494 H 1529.04 3.42989 -1.64738 0
M  V30 16495 H 1528.55 2.33025 -3.10356 0
M  V30 16496 H 1526.65 3.59322 -0.985806 0
M  V30 16497 H 1526.76 3.84923 -2.85256 0
M  V30 16498 H 1525.13 2.10247 -1.43765 0
M  V30 16499 H 1525.91 1.60666 -3.03383 0
M  V30 16500 N 1528.36 1.11264 1.11616 0
M  V30 16501 C 1529.3 0.764321 2.19684 0
M  V30 16502 C 1530.3 -0.243396 1.67642 0
M  V30 16503 O 1531.5 -0.102869 1.79706 0
M  V30 16504 H 1527.88 0.229275 0.716196 0
M  V30 16505 H 1529.85 1.68445 2.46311 0
M  V30 16506 C 1528.6 0.22175 3.46992 0
M  V30 16507 H 1527.92 0.988422 3.87389 0
M  V30 16508 H 1529.36 0.0161946 4.23997 0
M  V30 16509 C 1527.82 -1.04755 3.202 0
M  V30 16510 O 1528.35 -2.12758 3.4073 0
M  V30 16511 N 1526.56 -0.969608 2.73947 0
M  V30 16512 H 1526.1 -0.0906063 2.57441 0
M  V30 16513 H 1526.06 -1.81955 2.56397 0
M  V30 16514 N 1529.83 -1.29188 0.902679 0
M  V30 16515 C 1530.8 -2.25901 0.387485 0
M  V30 16516 C 1531.8 -1.53469 -0.479993 0
M  V30 16517 O 1532.99 -1.71859 -0.284623 0
M  V30 16518 C 1530.12 -3.37974 -0.445723 0
M  V30 16519 H 1531.31 -2.72988 1.24167 0
M  V30 16520 H 1528.86 -1.4068 0.681083 0
M  V30 16521 H 1529.6 -2.9623 -1.31977 0
M  V30 16522 H 1529.38 -3.91705 0.175899 0
M  V30 16523 H 1530.87 -4.09917 -0.797384 0
M  V30 16524 N 1531.31 -0.665475 -1.42861 0
M  V30 16525 C 1532.59 -0.113252 -1.95272 0
M  V30 16526 C 1532.97 1.36972 -1.6063 0
M  V30 16527 O 1532.32 2.10129 -0.897662 0
M  V30 16528 C 1532.53 -0.372482 -3.47007 0
M  V30 16529 C 1533.87 -0.283982 -4.23649 0
M  V30 16530 O 1534.9 -0.305714 -3.54886 0
M  V30 16531 O 1533.76 -0.218171 -5.46064 0
M  V30 16532 H 1530.85 0.00253712 -0.826996 0
M  V30 16533 H 1533.4 -0.739561 -1.52737 0
M  V30 16534 H 1532.17 -1.40015 -3.65392 0
M  V30 16535 H 1531.79 0.286294 -3.96568 0
M  V30 16536 N 1532.79 1.52222 -0.408187 0
M  V30 16537 C 1533.74 2.26988 0.417767 0
M  V30 16538 C 1534.71 1.29362 1.04185 0
M  V30 16539 O 1535.89 1.58223 1.06631 0
M  V30 16540 C 1533.03 3.09379 1.52901 0
M  V30 16541 C 1532.14 4.2196 0.92593 0
M  V30 16542 C 1531.28 4.91712 2.00979 0
M  V30 16543 C 1530.32 5.96258 1.3836 0
M  V30 16544 N 1529.46 6.59531 2.40756 0
M  V30 16545 H 1534.3 2.9714 -0.226228 0
M  V30 16546 H 1531.83 1.46581 -0.123402 0
M  V30 16547 H 1533.79 3.55452 2.18425 0
M  V30 16548 H 1532.42 2.41399 2.14304 0
M  V30 16549 H 1531.47 3.80064 0.159765 0
M  V30 16550 H 1532.78 4.96956 0.428497 0
M  V30 16551 H 1531.94 5.41186 2.74231 0
M  V30 16552 H 1530.68 4.16282 2.54087 0
M  V30 16553 H 1529.68 5.46104 0.636402 0
M  V30 16554 H 1530.91 6.7363 0.860218 0
M  V30 16555 H 1528.85 5.86931 2.92999 0
M  V30 16556 H 1528.77 7.30198 1.95822 0
M  V30 16557 H 1530.04 7.13643 3.13581 0
M  V30 16558 N 1534.27 0.138579 1.5699 0
M  V30 16559 C 1535.49 -0.525074 2.00643 0
M  V30 16560 C 1535.92 -1.58174 1.01796 0
M  V30 16561 O 1535.28 -1.81298 -0.00754003 0
M  V30 16562 C 1535.32 -1.11019 3.43085 0
M  V30 16563 O 1534.43 -2.22529 3.4721 0
M  V30 16564 H 1533.77 -0.129283 0.651292 0
M  V30 16565 H 1536.3 0.23283 2.03271 0
M  V30 16566 H 1536.31 -1.44093 3.81708 0
M  V30 16567 H 1534.98 -0.336325 4.14538 0
M  V30 16568 H 1533.56 -1.90747 3.20422 0
M  V30 16569 N 1535.75 -1.57019 -0.13521 0
M  V30 16570 C 1536.68 -2.02182 -1.16811 0
M  V30 16571 C 1537.66 -0.9034 -1.44127 0
M  V30 16572 O 1538.84 -1.17202 -1.54846 0
M  V30 16573 C 1535.97 -2.41243 -2.49838 0
M  V30 16574 C 1534.93 -3.56379 -2.37018 0
M  V30 16575 C 1534.25 -3.8129 -3.74863 0
M  V30 16576 C 1535.55 -4.88653 -1.84432 0
M  V30 16577 H 1537.25 -2.8872 -0.792529 0
M  V30 16578 H 1534.79 -1.38901 -0.379788 0
M  V30 16579 H 1536.74 -2.7144 -3.22332 0
M  V30 16580 H 1535.47 -1.51656 -2.89254 0
M  V30 16581 H 1534.13 -3.26366 -1.66975 0
M  V30 16582 H 1533.78 -2.88934 -4.11735 0
M  V30 16583 H 1533.48 -4.58781 -3.67143 0
M  V30 16584 H 1535 -4.13924 -4.48887 0
M  V30 16585 H 1536.41 -5.17492 -2.46729 0
M  V30 16586 H 1534.81 -5.70032 -1.87574 0
M  V30 16587 H 1535.88 -4.78242 -0.800759 0
M  V30 16588 N 1537.22 0.404919 -1.52309 0
M  V30 16589 C 1538.13 1.51822 -1.7885 0
M  V30 16590 C 1539.15 1.60403 -0.674307 0
M  V30 16591 O 1540.33 1.77038 -0.960175 0
M  V30 16592 C 1537.39 2.87516 -1.9374 0
M  V30 16593 C 1536.45 2.88787 -3.17648 0
M  V30 16594 C 1535.69 4.18009 -3.31819 0
M  V30 16595 O 1535.91 5.12129 -2.51158 0
M  V30 16596 O 1534.84 4.26222 -4.24992 0
M  V30 16597 H 1538.67 1.32329 -2.73354 0
M  V30 16598 H 1536.25 0.591193 -1.37205 0
M  V30 16599 H 1538.14 3.6799 -2.05333 0
M  V30 16600 H 1536.81 3.07068 -1.02425 0
M  V30 16601 H 1535.72 2.07152 -3.11511 0
M  V30 16602 H 1537.05 2.74185 -4.08758 0
M  V30 16603 N 1538.7 1.43003 0.662408 0
M  V30 16604 C 1539.64 1.4189 1.78725 0
M  V30 16605 C 1540.61 0.281515 1.60144 0
M  V30 16606 O 1541.8 0.473677 1.82452 0
M  V30 16607 C 1538.92 1.22166 3.159 0
M  V30 16608 C 1537.97 2.39061 3.53203 0
M  V30 16609 S 1538.8 4.01607 3.54221 0
M  V30 16610 C 1539.96 3.84249 4.94068 0
M  V30 16611 H 1540.19 2.37073 1.79398 0
M  V30 16612 H 1537.73 1.29924 0.834214 0
M  V30 16613 H 1539.68 1.11474 3.95074 0
M  V30 16614 H 1538.34 0.285468 3.128 0
M  V30 16615 H 1537.54 2.21041 4.52943 0
M  V30 16616 H 1537.14 2.46331 2.81419 0
M  V30 16617 H 1539.43 3.46006 5.82483 0
M  V30 16618 H 1540.37 4.83709 5.17138 0
M  V30 16619 H 1540.78 3.16879 4.6717 0
M  V30 16620 N 1540.18 -0.899904 1.29381 0
M  V30 16621 C 1541.09 -2.03699 1.16378 0
M  V30 16622 C 1542.11 -1.73782 0.0870792 0
M  V30 16623 O 1543.28 -1.99167 0.299109 0
M  V30 16624 C 1540.35 -3.36341 0.841166 0
M  V30 16625 C 1539.41 -3.79778 2.00168 0
M  V30 16626 C 1538.64 -5.0609 1.69437 0
M  V30 16627 O 1538.86 -5.67073 0.615212 0
M  V30 16628 O 1537.8 -5.45574 2.54229 0
M  V30 16629 H 1541.62 -2.17592 2.11866 0
M  V30 16630 H 1539.21 -1.02353 1.08831 0
M  V30 16631 H 1541.09 -4.15946 0.675803 0
M  V30 16632 H 1539.77 -3.23591 -0.0839376 0
M  V30 16633 H 1538.67 -3.00941 2.22229 0
M  V30 16634 H 1540.01 -3.97111 2.90798 0
M  V30 16635 N 1541.66 -1.11854 -1.11024 0
M  V30 16636 C 1542.91 -0.864814 -1.82219 0
M  V30 16637 C 1543.22 0.611349 -1.85801 0
M  V30 16638 O 1544.43 0.981475 -2.53139 0
M  V30 16639 C 1542.88 -1.49745 -3.27268 0
M  V30 16640 C 1542.49 -3.00796 -3.32003 0
M  V30 16641 C 1544.23 -1.32374 -4.03333 0
M  V30 16642 C 1542.14 -3.57023 -4.71475 0
M  V30 16643 H 1541.07 -0.319877 -0.682784 0
M  V30 16644 H 1543.72 -1.34431 -1.24903 0
M  V30 16645 H 1542.1 -0.94562 -3.84544 0
M  V30 16646 H 1543.28 -3.6242 -2.84585 0
M  V30 16647 H 1541.59 -3.17493 -2.6942 0
M  V30 16648 H 1544.19 -1.7181 -5.06345 0
M  V30 16649 H 1544.53 -0.26676 -4.15444 0
M  V30 16650 H 1545.07 -1.84444 -3.52456 0
M  V30 16651 H 1541.81 -4.62453 -4.64562 0
M  V30 16652 H 1541.33 -3.00172 -5.19285 0
M  V30 16653 H 1543 -3.5572 -5.40437 0
M  V30 16654 N 1543.14 1.28707 -0.909517 0
M  V30 16655 C 1544.07 2.29845 -0.411552 0
M  V30 16656 C 1545.05 1.62001 0.518615 0
M  V30 16657 O 1546.23 1.89442 0.427252 0
M  V30 16658 C 1543.36 3.45501 0.353013 0
M  V30 16659 C 1542.32 4.25213 -0.487625 0
M  V30 16660 C 1541.64 5.33164 0.405026 0
M  V30 16661 C 1542.94 4.9237 -1.74268 0
M  V30 16662 H 1544.64 2.71746 -1.25676 0
M  V30 16663 H 1542.18 1.30639 -0.605759 0
M  V30 16664 H 1544.14 4.15338 0.712191 0
M  V30 16665 H 1542.86 3.02469 1.23209 0
M  V30 16666 H 1541.52 3.57098 -0.829265 0
M  V30 16667 H 1541.17 4.86375 1.28252 0
M  V30 16668 H 1540.87 5.87399 -0.153811 0
M  V30 16669 H 1542.39 6.0585 0.760179 0
M  V30 16670 H 1543.8 5.5459 -1.45266 0
M  V30 16671 H 1542.2 5.56581 -2.2436 0
M  V30 16672 H 1543.27 4.171 -2.47297 0
M  V30 16673 N 1544.61 0.673042 1.42506 0
M  V30 16674 C 1545.56 -0.00638067 2.30799 0
M  V30 16675 C 1546.53 -0.794524 1.45865 0
M  V30 16676 O 1547.72 -0.767129 1.74699 0
M  V30 16677 C 1544.86 -0.952923 3.31683 0
M  V30 16678 C 1543.97 -0.158787 4.31708 0
M  V30 16679 C 1543.1 -1.10092 5.19666 0
M  V30 16680 C 1542.14 -0.29837 6.11372 0
M  V30 16681 N 1541.28 -1.19312 6.91888 0
M  V30 16682 H 1546.12 0.75237 2.88346 0
M  V30 16683 H 1543.66 0.382763 1.42033 0
M  V30 16684 H 1545.62 -1.51552 3.887 0
M  V30 16685 H 1544.25 -1.67832 2.75739 0
M  V30 16686 H 1543.3 0.520406 3.76823 0
M  V30 16687 H 1544.61 0.464385 4.96634 0
M  V30 16688 H 1543.76 -1.7335 5.81407 0
M  V30 16689 H 1542.5 -1.75798 4.54914 0
M  V30 16690 H 1541.51 0.347437 5.48701 0
M  V30 16691 H 1542.73 0.354569 6.78174 0
M  V30 16692 H 1540.68 -1.83661 6.29765 0
M  V30 16693 H 1540.6 -0.624986 7.53412 0
M  V30 16694 H 1541.86 -1.81323 7.58118 0
M  V30 16695 N 1546.09 -1.52004 0.416254 0
M  V30 16696 C 1547.02 -2.24913 -0.441208 0
M  V30 16697 C 1548.04 -1.28139 -1.0042 0
M  V30 16698 O 1549.23 -1.54037 -0.901928 0
M  V30 16699 C 1546.33 -2.97298 -1.62688 0
M  V30 16700 C 1545.5 -4.20999 -1.18652 0
M  V30 16701 C 1544.56 -4.76146 -2.2399 0
M  V30 16702 O 1543.58 -5.38541 -1.84288 0
M  V30 16703 N 1544.79 -4.58338 -3.56239 0
M  V30 16704 H 1547.55 -2.99137 0.183576 0
M  V30 16705 H 1545.11 -1.60051 0.244008 0
M  V30 16706 H 1547.1 -3.31082 -2.32737 0
M  V30 16707 H 1545.67 -2.26216 -2.15744 0
M  V30 16708 H 1544.89 -3.92948 -0.313877 0
M  V30 16709 H 1546.18 -5.01318 -0.869365 0
M  V30 16710 H 1545.58 -4.08592 -3.91241 0
M  V30 16711 H 1544.14 -4.96542 -4.22244 0
M  V30 16712 N 1547.57 -0.146903 -1.56914 0
M  V30 16713 C 1548.52 0.792821 -2.16756 0
M  V30 16714 C 1549.49 1.2442 -1.1004 0
M  V30 16715 O 1550.67 1.31674 -1.38081 0
M  V30 16716 C 1547.81 2.02659 -2.79327 0
M  V30 16717 C 1546.93 1.62102 -4.00433 0
M  V30 16718 C 1546.06 2.80658 -4.51004 0
M  V30 16719 C 1545.1 2.36474 -5.64576 0
M  V30 16720 N 1544.24 3.48038 -6.09766 0
M  V30 16721 H 1549.08 0.275708 -2.96722 0
M  V30 16722 H 1546.61 0.124374 -1.46573 0
M  V30 16723 H 1548.57 2.74986 -3.13749 0
M  V30 16724 H 1547.2 2.51781 -2.02005 0
M  V30 16725 H 1546.25 0.795407 -3.71991 0
M  V30 16726 H 1547.57 1.25652 -4.82714 0
M  V30 16727 H 1546.72 3.61175 -4.87481 0
M  V30 16728 H 1545.46 3.20353 -3.6773 0
M  V30 16729 H 1544.46 1.54397 -5.27676 0
M  V30 16730 H 1545.69 1.97865 -6.49635 0
M  V30 16731 H 1543.63 3.87354 -5.29427 0
M  V30 16732 H 1543.55 3.15602 -6.86972 0
M  V30 16733 H 1544.82 4.28912 -6.50887 0
M  V30 16734 N 1549.05 1.57088 0.126881 0
M  V30 16735 C 1550.28 1.8834 0.849211 0
M  V30 16736 C 1550.69 0.735386 1.74324 0
M  V30 16737 O 1550.03 -0.30318 1.81181 0
M  V30 16738 C 1550.09 3.14522 1.74116 0
M  V30 16739 C 1549.76 4.4542 1.02225 0
M  V30 16740 C 1550.75 5.18605 0.366722 0
M  V30 16741 C 1548.44 4.92128 1.00577 0
M  V30 16742 C 1550.43 6.36714 -0.295675 0
M  V30 16743 C 1548.12 6.10156 0.33957 0
M  V30 16744 C 1549.12 6.82296 -0.310005 0
M  V30 16745 O 1548.8 7.9808 -0.965594 0
M  V30 16746 H 1548.54 0.628129 0.24986 0
M  V30 16747 H 1551.09 2.05059 0.118236 0
M  V30 16748 H 1549.32 2.93864 2.51358 0
M  V30 16749 H 1551.01 3.31857 2.33722 0
M  V30 16750 H 1551.78 4.83578 0.371126 0
M  V30 16751 H 1547.65 4.35887 1.5008 0
M  V30 16752 H 1551.2 6.9296 -0.803275 0
M  V30 16753 H 1547.1 6.44641 0.332902 0
M  V30 16754 H 1547.86 8.13871 -0.869277 0
M  V30 16755 N 1550.53 -0.396836 1.52522 0
M  V30 16756 C 1551.94 -0.736347 1.41598 0
M  V30 16757 C 1552.14 -1.944 0.530191 0
M  V30 16758 O 1551.2 -2.525 0.000649033 0
M  V30 16759 C 1552.51 -0.978775 2.84325 0
M  V30 16760 C 1554.06 -1.08073 2.9375 0
M  V30 16761 C 1554.53 -1.35584 4.37471 0
M  V30 16762 N 1556.03 -1.42423 4.40761 0
M  V30 16763 C 1556.76 -1.6536 5.49039 0
M  V30 16764 N 1556.26 -1.85819 6.67415 0
M  V30 16765 N 1558.05 -1.67475 5.36571 0
M  V30 16766 H 1550.2 0.397925 2.08639 0
M  V30 16767 H 1552.46 0.115803 0.9409 0
M  V30 16768 H 1552.17 -0.16362 3.51319 0
M  V30 16769 H 1552.04 -1.8956 3.26109 0
M  V30 16770 H 1554.43 -1.88646 2.26928 0
M  V30 16771 H 1554.51 -0.141996 2.55406 0
M  V30 16772 H 1554.16 -0.555238 5.04856 0
M  V30 16773 H 1554.09 -2.3073 4.73362 0
M  V30 16774 H 1556.58 -1.28352 3.55435 0
M  V30 16775 H 1556.89 -2.02806 7.45714 0
M  V30 16776 H 1555.23 -1.83059 6.70458 0
M  V30 16777 H 1558.43 -1.51038 4.43064 0
M  V30 16778 H 1558.6 -1.85011 6.21027 0
M  V30 16779 N 1552.01 -1.43353 -0.654814 0
M  V30 16780 C 1552.94 -1.51194 -1.7794 0
M  V30 16781 C 1553.92 -0.366747 -1.66099 0
M  V30 16782 O 1555.1 -0.58375 -1.85219 0
M  V30 16783 C 1552.23 -1.43298 -3.16359 0
M  V30 16784 C 1551.19 -2.5605 -3.42961 0
M  V30 16785 C 1550.51 -2.33208 -4.81163 0
M  V30 16786 C 1551.81 -3.98303 -3.37864 0
M  V30 16787 H 1553.51 -2.4532 -1.71635 0
M  V30 16788 H 1551.05 -1.18072 -0.824319 0
M  V30 16789 H 1553 -1.47388 -3.94784 0
M  V30 16790 H 1551.73 -0.456761 -3.2339 0
M  V30 16791 H 1550.39 -2.5131 -2.66906 0
M  V30 16792 H 1550.04 -1.33833 -4.84869 0
M  V30 16793 H 1549.74 -3.08789 -4.99923 0
M  V30 16794 H 1551.26 -2.39079 -5.61848 0
M  V30 16795 H 1552.67 -4.04538 -4.06229 0
M  V30 16796 H 1551.07 -4.73897 -3.6816 0
M  V30 16797 H 1552.14 -4.23552 -2.36075 0
M  V30 16798 N 1553.48 0.89303 -1.29857 0
M  V30 16799 C 1554.43 1.9979 -1.15554 0
M  V30 16800 C 1555.4 1.66033 -0.0471157 0
M  V30 16801 O 1556.59 1.89575 -0.215846 0
M  V30 16802 C 1553.73 3.34595 -0.844993 0
M  V30 16803 C 1552.84 3.81093 -2.03451 0
M  V30 16804 C 1551.97 5.04506 -1.66275 0
M  V30 16805 C 1551.01 5.4339 -2.8177 0
M  V30 16806 N 1550.15 6.57987 -2.44945 0
M  V30 16807 H 1554.99 2.11355 -2.10079 0
M  V30 16808 H 1552.53 1.03497 -1.04531 0
M  V30 16809 H 1554.48 4.12175 -0.645598 0
M  V30 16810 H 1553.11 3.22738 0.0633626 0
M  V30 16811 H 1552.17 2.99491 -2.34541 0
M  V30 16812 H 1553.48 4.05855 -2.8997 0
M  V30 16813 H 1552.63 5.89688 -1.42664 0
M  V30 16814 H 1551.37 4.81597 -0.769144 0
M  V30 16815 H 1550.38 4.56738 -3.06056 0
M  V30 16816 H 1551.6 5.68276 -3.71805 0
M  V30 16817 H 1549.55 6.36669 -1.58079 0
M  V30 16818 H 1549.46 6.82579 -3.24996 0
M  V30 16819 H 1550.73 7.46421 -2.24669 0
M  V30 16820 N 1554.96 1.12442 1.10429 0
M  V30 16821 C 1556.24 0.791191 1.78884 0
M  V30 16822 C 1556.62 -0.719044 1.98477 0
M  V30 16823 O 1555.97 -1.65275 1.57786 0
M  V30 16824 C 1556.18 1.56632 3.11877 0
M  V30 16825 C 1557.52 1.75236 3.86752 0
M  V30 16826 O 1558.55 1.53145 3.21598 0
M  V30 16827 O 1557.41 2.12025 5.03694 0
M  V30 16828 H 1554.5 0.287788 0.775311 0
M  V30 16829 H 1557.05 1.22844 1.17078 0
M  V30 16830 H 1555.82 2.59317 2.93037 0
M  V30 16831 H 1555.44 1.12332 3.81402 0
M  V30 16832 N 1556.44 -1.28223 0.91633 0
M  V30 16833 C 1557.37 -2.29623 0.423735 0
M  V30 16834 C 1558.35 -1.62274 -0.510016 0
M  V30 16835 O 1559.54 -1.89666 -0.4172 0
M  V30 16836 C 1556.67 -3.45684 -0.334686 0
M  V30 16837 C 1555.62 -4.24949 0.510169 0
M  V30 16838 C 1554.95 -5.33371 -0.376745 0
M  V30 16839 C 1556.25 -4.91438 1.76877 0
M  V30 16840 H 1557.94 -2.71076 1.27115 0
M  V30 16841 H 1555.49 -1.30316 0.612678 0
M  V30 16842 H 1557.44 -4.1571 -0.690154 0
M  V30 16843 H 1556.16 -3.03118 -1.21603 0
M  V30 16844 H 1554.82 -3.56653 0.848191 0
M  V30 16845 H 1554.47 -4.87048 -1.25671 0
M  V30 16846 H 1554.17 -5.87309 0.18496 0
M  V30 16847 H 1555.69 -6.06244 -0.728039 0
M  V30 16848 H 1557.11 -5.53812 1.48205 0
M  V30 16849 H 1555.5 -5.55384 2.27308 0
M  V30 16850 H 1556.57 -4.15783 2.49505 0
M  V30 16851 N 1557.92 -0.68059 -1.42147 0
M  V30 16852 C 1559.15 -0.213839 -2.05792 0
M  V30 16853 C 1559.56 1.13123 -1.51158 0
M  V30 16854 O 1558.92 1.7039 -0.653708 0
M  V30 16855 C 1558.97 -0.146507 -3.61203 0
M  V30 16856 O 1558.69 -1.43843 -4.13813 0
M  V30 16857 C 1560.19 0.343043 -4.41971 0
M  V30 16858 H 1557.41 -0.10262 -0.663106 0
M  V30 16859 H 1559.95 -0.928957 -1.82183 0
M  V30 16860 H 1558.11 0.519335 -3.83903 0
M  V30 16861 H 1558.52 -1.31561 -5.07732 0
M  V30 16862 H 1560 0.339053 -5.50958 0
M  V30 16863 H 1560.47 1.37933 -4.16979 0
M  V30 16864 H 1561.08 -0.291267 -4.24301 0
M  V30 16865 N 1559.4 1.51781 -0.424309 0
M  V30 16866 C 1560.64 2.01969 0.146492 0
M  V30 16867 C 1560.97 1.30918 1.43843 0
M  V30 16868 O 1560.23 0.408705 1.91385 0
M  V30 16869 C 1560.52 3.54855 0.42574 0
M  V30 16870 C 1560.19 4.44123 -0.778814 0
M  V30 16871 C 1558.85 4.68242 -1.10918 0
M  V30 16872 C 1561.2 4.96579 -1.58299 0
M  V30 16873 C 1558.53 5.42063 -2.24464 0
M  V30 16874 C 1560.88 5.71645 -2.70934 0
M  V30 16875 C 1559.55 5.94031 -3.04439 0
M  V30 16876 H 1558.82 0.739059 0.0536052 0
M  V30 16877 H 1561.47 1.82856 -0.568838 0
M  V30 16878 H 1559.77 3.72229 1.22282 0
M  V30 16879 H 1561.47 3.91212 0.880598 0
M  V30 16880 H 1558.06 4.25539 -0.511363 0
M  V30 16881 H 1562.24 4.77841 -1.34098 0
M  V30 16882 H 1557.5 5.57614 -2.50753 0
M  V30 16883 H 1561.67 6.11284 -3.33624 0
M  V30 16884 H 1559.3 6.51014 -3.92537 0
M  V30 16885 N 1560.87 0.155222 1.56834 0
M  V30 16886 C 1561.8 -0.777258 2.20184 0
M  V30 16887 C 1562.78 -1.25102 1.15254 0
M  V30 16888 O 1563.97 -1.3071 1.43627 0
M  V30 16889 C 1561.1 -2.01326 2.82993 0
M  V30 16890 C 1560.05 -1.67596 3.93822 0
M  V30 16891 C 1559.38 -2.98529 4.43604 0
M  V30 16892 C 1560.68 -0.916302 5.142 0
M  V30 16893 H 1562.37 -0.249257 2.98361 0
M  V30 16894 H 1559.92 -0.118448 1.43512 0
M  V30 16895 H 1561.87 -2.67048 3.2598 0
M  V30 16896 H 1560.6 -2.56513 2.0216 0
M  V30 16897 H 1559.26 -1.0425 3.51465 0
M  V30 16898 H 1558.9 -3.51723 3.59583 0
M  V30 16899 H 1558.6 -2.76721 5.18362 0
M  V30 16900 H 1560.13 -3.65308 4.89267 0
M  V30 16901 H 1561.54 -1.47577 5.5398 0
M  V30 16902 H 1559.94 -0.797856 5.94772 0
M  V30 16903 H 1561.01 0.0904351 4.84816 0
M  V30 16904 N 1562.35 -1.57153 -0.118549 0
M  V30 16905 C 1563.28 -2.03409 -1.1466 0
M  V30 16906 C 1564.26 -0.918636 -1.43161 0
M  V30 16907 O 1565.45 -1.18838 -1.53594 0
M  V30 16908 C 1562.58 -2.43879 -2.47265 0
M  V30 16909 C 1561.53 -3.58873 -2.33225 0
M  V30 16910 C 1560.86 -3.85244 -3.70798 0
M  V30 16911 C 1562.16 -4.90582 -1.79239 0
M  V30 16912 H 1563.85 -2.89545 -0.761862 0
M  V30 16913 H 1561.4 -1.39296 -0.365034 0
M  V30 16914 H 1563.35 -2.74844 -3.19435 0
M  V30 16915 H 1562.07 -1.54715 -2.8763 0
M  V30 16916 H 1560.73 -3.28119 -1.63504 0
M  V30 16917 H 1560.38 -2.93285 -4.08648 0
M  V30 16918 H 1560.08 -4.62649 -3.62257 0
M  V30 16919 H 1561.61 -4.18661 -4.44472 0
M  V30 16920 H 1563.02 -5.20079 -2.41227 0
M  V30 16921 H 1561.42 -5.71989 -1.81518 0
M  V30 16922 H 1562.49 -4.79065 -0.74999 0
M  V30 16923 N 1563.83 0.388742 -1.5273 0
M  V30 16924 C 1564.74 1.49916 -1.8045 0
M  V30 16925 C 1565.76 1.59679 -0.691282 0
M  V30 16926 O 1566.93 1.7601 -0.978898 0
M  V30 16927 C 1564 2.85445 -1.96779 0
M  V30 16928 C 1563.06 2.85402 -3.20693 0
M  V30 16929 C 1562.29 4.14466 -3.36234 0
M  V30 16930 O 1562.51 5.09436 -2.56576 0
M  V30 16931 O 1561.45 4.2169 -4.29489 0
M  V30 16932 H 1565.27 1.29423 -2.74743 0
M  V30 16933 H 1562.86 0.576607 -1.37825 0
M  V30 16934 H 1564.74 3.65791 -2.09224 0
M  V30 16935 H 1563.42 3.05964 -1.05676 0
M  V30 16936 H 1562.32 2.03836 -3.1369 0
M  V30 16937 H 1563.66 2.69835 -4.11643 0
M  V30 16938 N 1565.31 1.43698 0.647203 0
M  V30 16939 C 1566.25 1.49323 1.75987 0
M  V30 16940 C 1567.22 0.342379 1.62533 0
M  V30 16941 O 1568.41 0.550379 1.8269 0
M  V30 16942 C 1565.55 1.428 3.14169 0
M  V30 16943 C 1564.66 2.68136 3.38714 0
M  V30 16944 C 1563.8 2.53559 4.66778 0
M  V30 16945 C 1562.84 3.74135 4.84447 0
M  V30 16946 N 1561.97 3.58332 6.03774 0
M  V30 16947 H 1566.81 2.44395 1.70514 0
M  V30 16948 H 1564.35 1.21309 0.832021 0
M  V30 16949 H 1566.31 1.37011 3.94061 0
M  V30 16950 H 1564.94 0.513057 3.18697 0
M  V30 16951 H 1563.99 2.84179 2.52877 0
M  V30 16952 H 1565.3 3.57684 3.47654 0
M  V30 16953 H 1564.46 2.45513 5.54805 0
M  V30 16954 H 1563.2 1.61545 4.60168 0
M  V30 16955 H 1562.2 3.82584 3.94854 0
M  V30 16956 H 1563.43 4.67165 4.92883 0
M  V30 16957 H 1561.37 2.69057 5.98284 0
M  V30 16958 H 1561.29 4.41485 6.13699 0
M  V30 16959 H 1562.56 3.54148 6.94406 0
M  V30 16960 N 1566.79 -0.886131 1.30328 0
M  V30 16961 C 1567.72 -1.99733 1.12425 0
M  V30 16962 C 1568.73 -1.62659 0.067824 0
M  V30 16963 O 1569.92 -1.75721 0.313723 0
M  V30 16964 C 1567.02 -3.31757 0.692122 0
M  V30 16965 C 1566.19 -3.97276 1.83004 0
M  V30 16966 C 1565.25 -5.076 1.38666 0
M  V30 16967 O 1564.28 -5.29295 2.09368 0
M  V30 16968 N 1565.48 -5.79895 0.265039 0
M  V30 16969 H 1568.25 -2.15643 2.0813 0
M  V30 16970 H 1565.81 -1.05915 1.22449 0
M  V30 16971 H 1567.8 -4.02926 0.37854 0
M  V30 16972 H 1566.37 -3.12122 -0.172864 0
M  V30 16973 H 1565.59 -3.19295 2.3118 0
M  V30 16974 H 1566.88 -4.37789 2.59264 0
M  V30 16975 H 1566.27 -5.64771 -0.324121 0
M  V30 16976 H 1564.83 -6.51799 0.0109044 0
M  V30 16977 N 1568.26 -1.13026 -1.09832 0
M  V30 16978 C 1569.21 -0.772653 -2.14509 0
M  V30 16979 C 1570.2 0.231327 -1.59228 0
M  V30 16980 O 1571.39 0.0358767 -1.76964 0
M  V30 16981 C 1568.52 -0.235762 -3.42489 0
M  V30 16982 C 1567.61 -1.2684 -4.04688 0
M  V30 16983 N 1568 -2.46801 -4.41501 0
M  V30 16984 C 1566.29 -1.11521 -4.31832 0
M  V30 16985 C 1567 -3.12791 -4.90445 0
M  V30 16986 N 1565.97 -2.40224 -4.87641 0
M  V30 16987 H 1569.77 -1.68541 -2.40772 0
M  V30 16988 H 1567.29 -1.01195 -1.27017 0
M  V30 16989 H 1569.28 0.038649 -4.16882 0
M  V30 16990 H 1567.94 0.671377 -3.17683 0
M  V30 16991 H 1568.96 -2.84137 -4.32997 0
M  V30 16992 H 1565.63 -0.26589 -4.16652 0
M  V30 16993 H 1567.02 -4.14988 -5.28427 0
M  V30 16994 N 1569.74 1.27735 -0.923117 0
M  V30 16995 C 1570.65 2.30734 -0.424124 0
M  V30 16996 C 1571.67 1.66872 0.49291 0
M  V30 16997 O 1572.84 1.97843 0.37683 0
M  V30 16998 C 1569.91 3.45227 0.319254 0
M  V30 16999 C 1568.97 4.2462 -0.632137 0
M  V30 17000 C 1568.2 5.33646 0.0758596 0
M  V30 17001 O 1568.43 5.55481 1.29602 0
M  V30 17002 O 1567.36 5.98966 -0.593624 0
M  V30 17003 H 1571.19 2.75444 -1.27923 0
M  V30 17004 H 1568.77 1.32601 -0.688288 0
M  V30 17005 H 1570.65 4.14874 0.73873 0
M  V30 17006 H 1569.33 3.02582 1.15004 0
M  V30 17007 H 1568.24 3.57525 -1.1012 0
M  V30 17008 H 1569.57 4.70969 -1.43001 0
M  V30 17009 N 1571.22 0.688118 1.41784 0
M  V30 17010 C 1572.15 0.0323199 2.33478 0
M  V30 17011 C 1573.13 -0.775145 1.51412 0
M  V30 17012 O 1574.32 -0.72962 1.79973 0
M  V30 17013 C 1571.45 -0.910141 3.35162 0
M  V30 17014 C 1570.4 -0.210312 4.27483 0
M  V30 17015 C 1569.73 -1.26662 5.19481 0
M  V30 17016 C 1571.03 0.918839 5.14154 0
M  V30 17017 H 1572.72 0.798138 2.88566 0
M  V30 17018 H 1570.27 0.385262 1.38751 0
M  V30 17019 H 1572.22 -1.3781 3.98229 0
M  V30 17020 H 1570.94 -1.70754 2.78408 0
M  V30 17021 H 1569.6 0.237544 3.6583 0
M  V30 17022 H 1569.25 -2.05635 4.59046 0
M  V30 17023 H 1568.95 -0.803416 5.82082 0
M  V30 17024 H 1570.47 -1.73524 5.85424 0
M  V30 17025 H 1571.89 0.531499 5.70831 0
M  V30 17026 H 1570.29 1.30867 5.85657 0
M  V30 17027 H 1571.36 1.7618 4.51762 0
M  V30 17028 N 1572.7 -1.51554 0.432352 0
M  V30 17029 C 1573.95 -2.01232 -0.137255 0
M  V30 17030 C 1574.26 -1.32135 -1.44221 0
M  V30 17031 O 1575.47 -1.72756 -2.09446 0
M  V30 17032 C 1573.92 -3.58688 -0.295152 0
M  V30 17033 C 1573.53 -4.36718 0.999072 0
M  V30 17034 C 1575.27 -4.16528 -0.818798 0
M  V30 17035 C 1573.18 -5.85867 0.80709 0
M  V30 17036 H 1572.11 -0.751986 -0.0550696 0
M  V30 17037 H 1574.76 -1.74703 0.561352 0
M  V30 17038 H 1573.14 -3.81643 -1.05664 0
M  V30 17039 H 1574.32 -4.25512 1.76851 0
M  V30 17040 H 1572.63 -3.90306 1.45087 0
M  V30 17041 H 1575.23 -5.25664 -0.978841 0
M  V30 17042 H 1575.57 -3.75379 -1.79989 0
M  V30 17043 H 1576.11 -3.97632 -0.11575 0
M  V30 17044 H 1572.85 -6.31419 1.76041 0
M  V30 17045 H 1572.37 -5.9975 0.0773617 0
M  V30 17046 H 1574.04 -6.45375 0.458328 0
M  V30 17047 N 1574.18 -0.163538 -1.56749 0
M  V30 17048 C 1575.12 0.769787 -2.17584 0
M  V30 17049 C 1576.09 1.23246 -1.11354 0
M  V30 17050 O 1577.28 1.30203 -1.3947 0
M  V30 17051 C 1574.42 1.99685 -2.81461 0
M  V30 17052 C 1573.53 1.57846 -4.0213 0
M  V30 17053 C 1572.67 2.75858 -4.53955 0
M  V30 17054 C 1571.71 2.30473 -5.67053 0
M  V30 17055 N 1570.84 3.41551 -6.13423 0
M  V30 17056 H 1575.68 0.244221 -2.96998 0
M  V30 17057 H 1573.22 0.108821 -1.46697 0
M  V30 17058 H 1575.18 2.71643 -3.16648 0
M  V30 17059 H 1573.81 2.49624 -2.04664 0
M  V30 17060 H 1572.86 0.755907 -3.72814 0
M  V30 17061 H 1574.17 1.20525 -4.8402 0
M  V30 17062 H 1573.33 3.55984 -4.91284 0
M  V30 17063 H 1572.06 3.16434 -3.71107 0
M  V30 17064 H 1571.07 1.48791 -5.29284 0
M  V30 17065 H 1572.29 1.90964 -6.51698 0
M  V30 17066 H 1570.24 3.81717 -5.33506 0
M  V30 17067 H 1570.16 3.08298 -6.90281 0
M  V30 17068 H 1571.43 4.21985 -6.554 0
M  V30 17069 N 1575.65 1.57214 0.110213 0
M  V30 17070 C 1576.58 2.04015 1.13579 0
M  V30 17071 C 1577.57 0.926215 1.42672 0
M  V30 17072 O 1578.75 1.19651 1.52962 0
M  V30 17073 C 1575.88 2.45187 2.45969 0
M  V30 17074 C 1574.83 3.60105 2.31319 0
M  V30 17075 C 1574.16 3.87205 3.68749 0
M  V30 17076 C 1575.46 4.91526 1.76635 0
M  V30 17077 H 1577.15 2.89944 0.746496 0
M  V30 17078 H 1574.7 1.39488 0.357642 0
M  V30 17079 H 1576.65 2.76534 3.17973 0
M  V30 17080 H 1575.38 1.56238 2.86805 0
M  V30 17081 H 1574.04 3.28981 1.61762 0
M  V30 17082 H 1573.68 2.95448 4.07087 0
M  V30 17083 H 1573.38 4.64563 3.59798 0
M  V30 17084 H 1574.91 4.21013 4.42245 0
M  V30 17085 H 1576.32 5.21351 2.38465 0
M  V30 17086 H 1574.72 5.72944 1.78482 0
M  V30 17087 H 1575.79 4.79456 0.724573 0
M  V30 17088 N 1577.13 -0.380637 1.52934 0
M  V30 17089 C 1578.38 -1.12207 1.67608 0
M  V30 17090 C 1578.69 -1.90891 0.426597 0
M  V30 17091 O 1579.9 -2.67684 0.453612 0
M  V30 17092 C 1578.36 -2.04381 2.96237 0
M  V30 17093 C 1577.96 -1.3108 4.28395 0
M  V30 17094 C 1579.71 -2.78608 3.20277 0
M  V30 17095 C 1577.62 -2.22069 5.48124 0
M  V30 17096 H 1576.55 -0.422582 0.624452 0
M  V30 17097 H 1579.2 -0.384198 1.79433 0
M  V30 17098 H 1577.58 -2.81838 2.78179 0
M  V30 17099 H 1578.75 -0.587907 4.57034 0
M  V30 17100 H 1577.07 -0.687778 4.10681 0
M  V30 17101 H 1579.66 -3.46883 4.0691 0
M  V30 17102 H 1580.01 -3.43149 2.35701 0
M  V30 17103 H 1580.54 -2.08241 3.3894 0
M  V30 17104 H 1577.28 -1.62131 6.35133 0
M  V30 17105 H 1576.8 -2.9225 5.23784 0
M  V30 17106 H 1578.48 -2.81966 5.82327 0
M  V30 17107 N 1578.61 -1.44039 -0.639573 0
M  V30 17108 C 1579.86 -1.4566 -1.39521 0
M  V30 17109 C 1580.17 -0.0897878 -1.95394 0
M  V30 17110 O 1581.38 0.0165074 -2.71495 0
M  V30 17111 C 1579.83 -2.56395 -2.52566 0
M  V30 17112 C 1579.44 -3.99245 -2.03243 0
M  V30 17113 C 1581.19 -2.67226 -3.29834 0
M  V30 17114 C 1579.09 -5.01419 -3.1358 0
M  V30 17115 H 1578.02 -0.541894 -0.524277 0
M  V30 17116 H 1580.67 -1.70076 -0.688941 0
M  V30 17117 H 1579.06 -2.25204 -3.25729 0
M  V30 17118 H 1580.23 -4.39963 -1.37002 0
M  V30 17119 H 1578.55 -3.9258 -1.38816 0
M  V30 17120 H 1581.14 -3.40736 -4.12072 0
M  V30 17121 H 1581.49 -1.72756 -3.78763 0
M  V30 17122 H 1582.02 -2.97786 -2.63758 0
M  V30 17123 H 1578.76 -5.97489 -2.69605 0
M  V30 17124 H 1578.28 -4.65301 -3.7849 0
M  V30 17125 H 1579.96 -5.2474 -3.78493 0
M  V30 17126 N 1580.09 0.879207 -1.30796 0
M  V30 17127 C 1581.02 1.99134 -1.13482 0
M  V30 17128 C 1582.03 1.6262 -0.0764492 0
M  V30 17129 O 1583.22 1.75553 -0.323038 0
M  V30 17130 C 1580.32 3.31386 -0.709706 0
M  V30 17131 C 1579.5 3.963 -1.85108 0
M  V30 17132 C 1578.55 5.06858 -1.41356 0
M  V30 17133 O 1577.58 5.28178 -2.12172 0
M  V30 17134 N 1578.78 5.79746 -0.295789 0
M  V30 17135 H 1581.55 2.14536 -2.09271 0
M  V30 17136 H 1579.11 1.05264 -1.23009 0
M  V30 17137 H 1581.1 4.02719 -0.399903 0
M  V30 17138 H 1579.67 3.12209 0.156309 0
M  V30 17139 H 1578.89 3.18065 -2.3287 0
M  V30 17140 H 1580.18 4.36408 -2.61582 0
M  V30 17141 H 1579.58 5.64935 0.294166 0
M  V30 17142 H 1578.13 6.51784 -0.0454707 0
M  V30 17143 N 1581.57 1.13606 1.09231 0
M  V30 17144 C 1582.51 0.815279 2.15921 0
M  V30 17145 C 1583.48 -0.223501 1.64589 0
M  V30 17146 O 1584.67 -0.0952982 1.90562 0
M  V30 17147 C 1581.81 0.289655 3.43882 0
M  V30 17148 C 1580.92 1.38773 4.09104 0
M  V30 17149 C 1580.06 0.820238 5.24829 0
M  V30 17150 C 1579.1 1.89658 5.81976 0
M  V30 17151 N 1578.23 1.34688 6.8906 0
M  V30 17152 H 1583.07 1.72914 2.42703 0
M  V30 17153 H 1580.61 0.863101 1.19117 0
M  V30 17154 H 1582.57 -0.0332398 4.17187 0
M  V30 17155 H 1581.2 -0.587329 3.17412 0
M  V30 17156 H 1580.25 1.82718 3.33644 0
M  V30 17157 H 1581.56 2.20114 4.47606 0
M  V30 17158 H 1580.72 0.448745 6.05038 0
M  V30 17159 H 1579.46 -0.0242261 4.87694 0
M  V30 17160 H 1578.46 2.27712 5.00427 0
M  V30 17161 H 1579.69 2.74448 6.21172 0
M  V30 17162 H 1577.63 0.524453 6.539 0
M  V30 17163 H 1577.55 2.09675 7.26342 0
M  V30 17164 H 1578.82 1.00302 7.7302 0
M  V30 17165 N 1583.05 -1.27244 0.929878 0
M  V30 17166 C 1583.98 -2.25097 0.375024 0
M  V30 17167 C 1584.96 -1.53726 -0.529833 0
M  V30 17168 O 1586.14 -1.82551 -0.469846 0
M  V30 17169 C 1583.27 -3.35531 -0.462271 0
M  V30 17170 C 1582.31 -4.24809 0.379462 0
M  V30 17171 S 1583.15 -5.04471 1.79637 0
M  V30 17172 C 1584.3 -6.18388 0.966815 0
M  V30 17173 H 1584.54 -2.71813 1.20436 0
M  V30 17174 H 1582.07 -1.35934 0.732211 0
M  V30 17175 H 1584.03 -3.99605 -0.939489 0
M  V30 17176 H 1582.69 -2.87449 -1.26616 0
M  V30 17177 H 1581.88 -5.03321 -0.261515 0
M  V30 17178 H 1581.48 -3.65541 0.790935 0
M  V30 17179 H 1583.77 -6.77193 0.203821 0
M  V30 17180 H 1584.72 -6.86767 1.72502 0
M  V30 17181 H 1585.13 -5.62211 0.507864 0
M  V30 17182 N 1584.52 -0.695628 -1.41417 0
M  V30 17183 C 1585.43 -0.0308378 -2.3458 0
M  V30 17184 C 1586.45 0.766 -1.56232 0
M  V30 17185 O 1587.63 0.703548 -1.88712 0
M  V30 17186 C 1584.69 0.894162 -3.34971 0
M  V30 17187 C 1583.75 0.0895231 -4.29207 0
M  V30 17188 C 1582.98 0.970467 -5.24802 0
M  V30 17189 O 1583.21 2.20997 -5.25848 0
M  V30 17190 O 1582.14 0.420114 -6.00432 0
M  V30 17191 H 1585.97 -0.798775 -2.93007 0
M  V30 17192 H 1583.55 -0.455964 -1.42272 0
M  V30 17193 H 1585.43 1.42458 -3.9659 0
M  V30 17194 H 1584.11 1.64159 -2.78987 0
M  V30 17195 H 1583.02 -0.4855 -3.70936 0
M  V30 17196 H 1584.35 -0.619241 -4.88289 0
M  V30 17197 N 1586 1.51322 -0.440383 0
M  V30 17198 C 1587.25 2.01302 0.126581 0
M  V30 17199 C 1587.56 1.32898 1.43518 0
M  V30 17200 O 1588.77 1.73864 2.08527 0
M  V30 17201 C 1587.23 3.58839 0.276126 0
M  V30 17202 C 1586.83 4.36182 -1.02222 0
M  V30 17203 C 1588.58 4.16957 0.796697 0
M  V30 17204 C 1586.48 5.85431 -0.838148 0
M  V30 17205 H 1585.41 0.752268 0.0510809 0
M  V30 17206 H 1588.07 1.74403 -0.570609 0
M  V30 17207 H 1586.45 3.82198 1.03639 0
M  V30 17208 H 1587.62 4.24568 -1.79105 0
M  V30 17209 H 1585.94 3.89531 -1.47155 0
M  V30 17210 H 1588.53 5.26176 0.95095 0
M  V30 17211 H 1588.88 3.76329 1.77996 0
M  V30 17212 H 1589.41 3.97687 0.0946613 0
M  V30 17213 H 1586.15 6.30476 -1.79387 0
M  V30 17214 H 1585.67 5.99701 -0.109167 0
M  V30 17215 H 1587.35 6.45122 -0.492547 0
M  V30 17216 N 1587.48 0.171848 1.5666 0
M  V30 17217 C 1588.73 -0.473061 1.96074 0
M  V30 17218 C 1589.04 -1.64353 1.06054 0
M  V30 17219 O 1590.25 -2.35471 1.35151 0
M  V30 17220 C 1588.7 -0.892995 3.48645 0
M  V30 17221 C 1588.31 0.251902 4.47291 0
M  V30 17222 C 1590.06 -1.50629 3.96877 0
M  V30 17223 C 1587.96 -0.187691 5.91102 0
M  V30 17224 H 1586.89 -0.180503 0.732075 0
M  V30 17225 H 1589.54 0.260164 1.81646 0
M  V30 17226 H 1587.93 -1.68221 3.58494 0
M  V30 17227 H 1589.1 1.02923 4.49159 0
M  V30 17228 H 1587.41 0.775193 4.09121 0
M  V30 17229 H 1590.01 -1.84724 5.01778 0
M  V30 17230 H 1590.35 -2.4044 3.39844 0
M  V30 17231 H 1590.89 -0.781502 3.90048 0
M  V30 17232 H 1587.63 0.675653 6.52009 0
M  V30 17233 H 1587.15 -0.93037 5.9254 0
M  V30 17234 H 1588.83 -0.631385 6.43912 0
M  V30 17235 N 1588.96 -1.5727 -0.101874 0
M  V30 17236 C 1590.18 -1.90319 -0.824215 0
M  V30 17237 C 1590.61 -0.765469 -1.7182 0
M  V30 17238 O 1589.97 0.283275 -1.79073 0
M  V30 17239 C 1590.01 -3.22201 -1.61922 0
M  V30 17240 O 1589.12 -3.09313 -2.72762 0
M  V30 17241 H 1588.46 -0.624042 -0.226864 0
M  V30 17242 H 1590.99 -2.04447 -0.0791314 0
M  V30 17243 H 1591 -3.55343 -2.00487 0
M  V30 17244 H 1589.67 -4.04596 -0.963078 0
M  V30 17245 H 1588.25 -2.87672 -2.37274 0
M  V30 17246 N 1590.44 0.372521 -1.53134 0
M  V30 17247 C 1591.35 1.47994 -1.8203 0
M  V30 17248 C 1592.36 1.58937 -0.708179 0
M  V30 17249 O 1593.54 1.74962 -0.997511 0
M  V30 17250 C 1590.6 2.83342 -1.99796 0
M  V30 17251 C 1589.66 2.81984 -3.23702 0
M  V30 17252 C 1588.9 4.10877 -3.40611 0
M  V30 17253 O 1589.12 5.06686 -2.61964 0
M  V30 17254 O 1588.05 4.17111 -4.33938 0
M  V30 17255 H 1591.88 1.26501 -2.761 0
M  V30 17256 H 1589.46 0.561957 -1.38428 0
M  V30 17257 H 1591.35 3.63551 -2.13092 0
M  V30 17258 H 1590.02 3.04826 -1.08916 0
M  V30 17259 H 1588.93 2.00498 -3.15834 0
M  V30 17260 H 1590.26 2.65453 -4.14482 0
M  V30 17261 N 1591.91 1.44376 0.631925 0
M  V30 17262 C 1593.14 1.50598 1.41873 0
M  V30 17263 C 1593.56 0.130589 1.88348 0
M  V30 17264 O 1592.91 -0.86336 1.60787 0
M  V30 17265 C 1592.96 2.47 2.63957 0
M  V30 17266 O 1592.69 3.79192 2.1942 0
M  V30 17267 C 1594.19 2.62678 3.57092 0
M  V30 17268 H 1591.41 0.510792 0.435124 0
M  V30 17269 H 1593.95 1.89332 0.772893 0
M  V30 17270 H 1592.11 2.11404 3.24634 0
M  V30 17271 H 1592.52 4.31231 2.98563 0
M  V30 17272 H 1593.99 3.34161 4.39364 0
M  V30 17273 H 1594.47 1.67881 4.05848 0
M  V30 17274 H 1595.08 2.99172 3.02285 0
M  V30 17275 N 1593.39 -0.872258 1.31261 0
M  V30 17276 C 1594.3 -2.01185 1.20673 0
M  V30 17277 C 1595.32 -1.73558 0.123921 0
M  V30 17278 O 1596.49 -1.98487 0.341288 0
M  V30 17279 C 1593.56 -3.34481 0.91232 0
M  V30 17280 C 1592.62 -3.75446 2.08179 0
M  V30 17281 C 1591.85 -5.02382 1.80134 0
M  V30 17282 O 1592.08 -5.6564 0.735358 0
M  V30 17283 O 1591.01 -5.40059 2.65744 0
M  V30 17284 H 1594.84 -2.13049 2.16434 0
M  V30 17285 H 1592.42 -1.00021 1.10978 0
M  V30 17286 H 1594.3 -4.14419 0.763879 0
M  V30 17287 H 1592.98 -3.23696 -0.0152802 0
M  V30 17288 H 1591.88 -2.96159 2.28562 0
M  V30 17289 H 1593.22 -3.90853 2.99156 0
M  V30 17290 N 1594.87 -1.14184 -1.08627 0
M  V30 17291 C 1596.15 -0.81955 -1.77603 0
M  V30 17292 C 1596.53 0.687377 -1.99595 0
M  V30 17293 O 1595.87 1.62744 -1.60396 0
M  V30 17294 C 1596.08 -1.61574 -3.09346 0
M  V30 17295 C 1597.43 -1.81367 -3.83916 0
M  V30 17296 O 1598.46 -1.58241 -3.19121 0
M  V30 17297 O 1597.32 -2.20011 -5.00257 0
M  V30 17298 H 1594.41 -0.300086 -0.770635 0
M  V30 17299 H 1596.96 -1.24691 -1.15109 0
M  V30 17300 H 1595.73 -2.63946 -2.88874 0
M  V30 17301 H 1595.35 -1.18386 -3.79566 0
M  V30 17302 N 1596.35 1.26749 -0.936613 0
M  V30 17303 C 1597.63 1.89106 -0.49981 0
M  V30 17304 C 1598.01 1.84687 1.02244 0
M  V30 17305 O 1597.35 1.2981 1.88047 0
M  V30 17306 C 1597.56 3.32641 -1.05598 0
M  V30 17307 C 1598.91 4.09511 -1.12187 0
M  V30 17308 O 1599.94 3.41692 -1.00624 0
M  V30 17309 O 1598.79 5.30785 -1.30113 0
M  V30 17310 H 1595.89 0.810941 -0.162185 0
M  V30 17311 H 1598.43 1.34952 -1.02888 0
M  V30 17312 H 1597.21 3.30196 -2.09968 0
M  V30 17313 H 1596.83 3.94327 -0.509086 0
M  V30 17314 N 1597.83 0.703118 1.41046 0
M  V30 17315 C 1599.1 0.164985 1.94903 0
M  V30 17316 C 1599.48 -1.32665 1.64205 0
M  V30 17317 O 1598.83 -2.07675 0.953058 0
M  V30 17318 C 1599.04 0.464354 3.45897 0
M  V30 17319 C 1600.39 0.396205 4.22747 0
M  V30 17320 O 1601.41 0.399698 3.5395 0
M  V30 17321 O 1600.27 0.362874 5.45294 0
M  V30 17322 H 1597.37 0.0193901 0.826773 0
M  V30 17323 H 1599.91 0.779796 1.50722 0
M  V30 17324 H 1598.68 1.49653 3.61552 0
M  V30 17325 H 1598.31 -0.18105 3.97188 0
M  V30 17326 N 1599.3 -1.51086 0.448402 0
M  V30 17327 C 1600.53 -2.07081 -0.115038 0
M  V30 17328 C 1600.95 -1.31253 -1.34737 0
M  V30 17329 O 1600.31 -0.353613 -1.77818 0
M  V30 17330 C 1600.36 -3.58321 -0.404803 0
M  V30 17331 O 1599.46 -3.84567 -1.48936 0
M  V30 17332 H 1598.81 -0.663993 0.00299118 0
M  V30 17333 H 1601.34 -1.94564 0.632921 0
M  V30 17334 H 1601.35 -4.02756 -0.652013 0
M  V30 17335 H 1600.02 -4.12934 0.495838 0
M  V30 17336 H 1598.6 -3.51987 -1.23124 0
M  V30 17337 N 1600.78 -0.180154 -1.56567 0
M  V30 17338 C 1601.73 0.759144 -2.14991 0
M  V30 17339 C 1602.72 1.18672 -1.08654 0
M  V30 17340 O 1603.91 1.14761 -1.34755 0
M  V30 17341 C 1601.04 1.98473 -2.80113 0
M  V30 17342 C 1600.12 1.57874 -3.9362 0
M  V30 17343 N 1600.51 0.882825 -4.98036 0
M  V30 17344 C 1598.81 1.86913 -4.04944 0
M  V30 17345 C 1599.51 0.681573 -5.77693 0
M  V30 17346 N 1598.49 1.22573 -5.29601 0
M  V30 17347 H 1602.29 0.218574 -2.93086 0
M  V30 17348 H 1599.81 0.0202002 -1.62387 0
M  V30 17349 H 1601.8 2.66797 -3.20351 0
M  V30 17350 H 1600.46 2.53017 -2.03501 0
M  V30 17351 H 1601.47 0.539906 -5.15078 0
M  V30 17352 H 1598.15 2.43071 -3.39445 0
M  V30 17353 H 1599.54 0.130602 -6.71773 0
M  V30 17354 N 1602.26 1.57322 0.0935319 0
M  V30 17355 C 1603.5 1.87995 0.802335 0
M  V30 17356 C 1603.86 0.771337 1.75825 0
M  V30 17357 O 1605.07 0.960519 2.51053 0
M  V30 17358 C 1603.34 3.23907 1.5106 0
M  V30 17359 S 1604.9 3.76276 2.25747 0
M  V30 17360 H 1601.71 0.658851 0.267275 0
M  V30 17361 H 1604.32 1.9541 0.0593887 0
M  V30 17362 H 1603.02 4.02512 0.800784 0
M  V30 17363 H 1602.55 3.19634 2.29341 0
M  V30 17364 H 1604.57 3.49818 3.51912 0
M  V30 17365 N 1603.74 -0.364395 1.53329 0
M  V30 17366 C 1604.96 -1.13196 1.73786 0
M  V30 17367 C 1605.39 -1.82231 0.466224 0
M  V30 17368 O 1604.75 -1.71778 -0.579817 0
M  V30 17369 C 1604.79 -2.13704 2.90453 0
M  V30 17370 O 1603.9 -3.20808 2.59144 0
M  V30 17371 H 1603.24 -0.328387 0.577112 0
M  V30 17372 H 1605.77 -0.421157 2.00218 0
M  V30 17373 H 1605.78 -2.57285 3.16652 0
M  V30 17374 H 1604.45 -1.6285 3.82691 0
M  V30 17375 H 1603.03 -2.82192 2.43767 0
M  V30 17376 N 1605.22 -1.44709 -0.62426 0
M  V30 17377 C 1606.46 -1.47853 -1.38368 0
M  V30 17378 C 1606.79 -0.113769 -1.94167 0
M  V30 17379 O 1606.05 0.88538 -1.74527 0
M  V30 17380 C 1606.35 -2.4919 -2.56201 0
M  V30 17381 C 1606.01 -3.94339 -2.1865 0
M  V30 17382 C 1604.67 -4.33865 -2.08122 0
M  V30 17383 C 1607.03 -4.85689 -1.89091 0
M  V30 17384 C 1604.35 -5.62658 -1.66233 0
M  V30 17385 C 1606.71 -6.14877 -1.48693 0
M  V30 17386 C 1605.37 -6.5335 -1.36711 0
M  V30 17387 H 1604.64 -0.541034 -0.506324 0
M  V30 17388 H 1607.29 -1.77962 -0.707235 0
M  V30 17389 H 1605.59 -2.1259 -3.29109 0
M  V30 17390 H 1607.29 -2.48867 -3.1443 0
M  V30 17391 H 1603.88 -3.63072 -2.27764 0
M  V30 17392 H 1608.06 -4.55902 -1.96131 0
M  V30 17393 H 1603.32 -5.91278 -1.55565 0
M  V30 17394 H 1607.49 -6.85115 -1.24861 0
M  V30 17395 H 1605.12 -7.53049 -1.04025 0
M  V30 17396 N 1606.69 0.865285 -1.31722 0
M  V30 17397 C 1607.63 1.97919 -1.15588 0
M  V30 17398 C 1608.64 1.6253 -0.0936929 0
M  V30 17399 O 1609.83 1.752 -0.341639 0
M  V30 17400 C 1606.93 3.30614 -0.744814 0
M  V30 17401 C 1606.1 3.94314 -1.89301 0
M  V30 17402 C 1605.16 5.0533 -1.46724 0
M  V30 17403 O 1604.19 5.25898 -2.17762 0
M  V30 17404 N 1605.39 5.794 -0.357262 0
M  V30 17405 H 1608.15 2.12304 -2.11535 0
M  V30 17406 H 1605.71 1.03953 -1.24118 0
M  V30 17407 H 1607.71 4.02273 -0.442594 0
M  V30 17408 H 1606.28 3.12357 0.123186 0
M  V30 17409 H 1605.5 3.15577 -2.3623 0
M  V30 17410 H 1606.78 4.33609 -2.66196 0
M  V30 17411 H 1606.18 5.65215 0.23423 0
M  V30 17412 H 1604.74 6.51699 -0.114599 0
M  V30 17413 N 1608.17 1.14759 1.0802 0
M  V30 17414 C 1609.45 0.828957 1.77166 0
M  V30 17415 C 1609.83 -0.676783 1.99957 0
M  V30 17416 O 1609.18 -1.61891 1.61256 0
M  V30 17417 C 1609.39 1.63213 3.08484 0
M  V30 17418 C 1610.74 1.834 3.82948 0
M  V30 17419 O 1611.76 1.59932 3.18277 0
M  V30 17420 O 1610.62 2.22661 4.99083 0
M  V30 17421 H 1607.71 0.304168 0.769032 0
M  V30 17422 H 1610.26 1.253 1.14446 0
M  V30 17423 H 1609.03 2.65474 2.8747 0
M  V30 17424 H 1608.65 1.20397 3.78933 0
M  V30 17425 N 1609.65 -1.26251 0.943322 0
M  V30 17426 C 1611.07 -1.45943 0.645966 0
M  V30 17427 C 1611.27 -1.84936 -0.800064 0
M  V30 17428 O 1610.32 -1.97238 -1.57649 0
M  V30 17429 C 1611.64 -2.54017 1.60922 0
M  V30 17430 C 1613.18 -2.67866 1.61916 0
M  V30 17431 C 1613.66 -3.79113 2.56977 0
M  V30 17432 N 1615.15 -3.86509 2.55275 0
M  V30 17433 C 1615.88 -4.72048 3.25513 0
M  V30 17434 N 1615.38 -5.61959 4.05184 0
M  V30 17435 N 1617.17 -4.65913 3.14454 0
M  V30 17436 H 1609.32 -0.992295 1.87796 0
M  V30 17437 H 1611.59 -0.497204 0.80715 0
M  V30 17438 H 1611.29 -2.32197 2.64155 0
M  V30 17439 H 1611.17 -3.51715 1.36294 0
M  V30 17440 H 1613.55 -2.89059 0.594067 0
M  V30 17441 H 1613.64 -1.70604 1.90598 0
M  V30 17442 H 1613.28 -3.58673 3.59605 0
M  V30 17443 H 1613.21 -4.75836 2.25583 0
M  V30 17444 H 1615.7 -3.22229 1.97425 0
M  V30 17445 H 1616.01 -6.24127 4.55725 0
M  V30 17446 H 1614.36 -5.61704 4.09285 0
M  V30 17447 H 1617.55 -3.94675 2.51693 0
M  V30 17448 H 1617.72 -5.32356 3.69461 0
M  V30 17449 N 1611.13 -0.710588 -1.40671 0
M  V30 17450 C 1612.38 -0.247949 -2.00976 0
M  V30 17451 C 1612.7 1.15725 -1.56327 0
M  V30 17452 O 1611.96 1.79826 -0.77208 0
M  V30 17453 C 1612.26 -0.270478 -3.56375 0
M  V30 17454 C 1611.92 -1.62528 -4.2059 0
M  V30 17455 C 1610.59 -1.99614 -4.37844 0
M  V30 17456 C 1612.94 -2.51591 -4.56455 0
M  V30 17457 C 1610.27 -3.2532 -4.88246 0
M  V30 17458 C 1612.62 -3.76644 -5.08254 0
M  V30 17459 C 1611.28 -4.13855 -5.23718 0
M  V30 17460 H 1610.55 -0.0907308 -0.735424 0
M  V30 17461 H 1613.2 -0.912636 -1.68354 0
M  V30 17462 H 1611.5 0.477777 -3.88876 0
M  V30 17463 H 1613.2 0.105243 -4.00862 0
M  V30 17464 H 1609.79 -1.32686 -4.07544 0
M  V30 17465 H 1613.98 -2.24215 -4.42766 0
M  V30 17466 H 1609.23 -3.54125 -4.98403 0
M  V30 17467 H 1613.41 -4.45832 -5.34983 0
M  V30 17468 H 1611.03 -5.1133 -5.62535 0
M  V30 17469 N 1612.61 1.50847 -0.456408 0
M  V30 17470 C 1613.55 2.28202 0.345341 0
M  V30 17471 C 1614.52 1.32611 1.00017 0
M  V30 17472 O 1615.71 1.61535 1.01543 0
M  V30 17473 C 1612.85 3.14087 1.42981 0
M  V30 17474 C 1611.96 4.24693 0.791217 0
M  V30 17475 C 1611.1 4.97857 1.85234 0
M  V30 17476 C 1610.14 6.00357 1.1932 0
M  V30 17477 N 1609.27 6.66856 2.19652 0
M  V30 17478 H 1614.11 2.9627 -0.320646 0
M  V30 17479 H 1611.65 1.46115 -0.169973 0
M  V30 17480 H 1613.61 3.62222 2.07006 0
M  V30 17481 H 1612.24 2.48095 2.06516 0
M  V30 17482 H 1611.29 3.8038 0.0387694 0
M  V30 17483 H 1612.6 4.98068 0.270177 0
M  V30 17484 H 1611.76 5.49636 2.56875 0
M  V30 17485 H 1610.5 4.24155 2.40715 0
M  V30 17486 H 1609.5 5.47853 0.462341 0
M  V30 17487 H 1610.73 6.76025 0.645473 0
M  V30 17488 H 1608.67 5.95955 2.74178 0
M  V30 17489 H 1608.59 7.36059 1.72492 0
M  V30 17490 H 1609.86 7.23259 2.90719 0
M  V30 17491 N 1614.09 0.188454 1.56469 0
M  V30 17492 C 1615.03 -0.735074 2.18781 0
M  V30 17493 C 1616 -1.21459 1.133 0
M  V30 17494 O 1617.19 -1.27967 1.41524 0
M  V30 17495 C 1614.33 -1.95181 2.84602 0
M  V30 17496 C 1613.44 -1.51428 4.0459 0
M  V30 17497 C 1612.58 -2.68601 4.58287 0
M  V30 17498 C 1611.61 -2.21422 5.70648 0
M  V30 17499 N 1610.75 -3.31749 6.18779 0
M  V30 17500 H 1615.59 -0.19694 2.97349 0
M  V30 17501 H 1613.13 -0.0854693 1.46851 0
M  V30 17502 H 1615.09 -2.66571 3.2093 0
M  V30 17503 H 1613.72 -2.46337 2.0861 0
M  V30 17504 H 1612.77 -0.6965 3.73969 0
M  V30 17505 H 1614.08 -1.1281 4.85876 0
M  V30 17506 H 1613.23 -3.48123 4.96885 0
M  V30 17507 H 1611.97 -3.1049 3.76095 0
M  V30 17508 H 1610.98 -1.40352 5.31584 0
M  V30 17509 H 1612.2 -1.80572 6.54653 0
M  V30 17510 H 1610.15 -3.73181 5.39511 0
M  V30 17511 H 1610.07 -2.97277 6.95099 0
M  V30 17512 H 1611.33 -4.11504 6.62031 0
M  V30 17513 N 1615.56 -1.5737 -0.0851874 0
M  V30 17514 C 1616.47 -2.06097 -1.12078 0
M  V30 17515 C 1617.49 -0.987809 -1.43242 0
M  V30 17516 O 1618.67 -1.30163 -1.53686 0
M  V30 17517 C 1615.73 -2.48397 -2.41867 0
M  V30 17518 C 1614.79 -3.69951 -2.17795 0
M  V30 17519 C 1614.02 -4.10225 -3.41396 0
M  V30 17520 O 1614.25 -3.50495 -4.5001 0
M  V30 17521 O 1613.18 -5.03111 -3.30399 0
M  V30 17522 H 1617.01 -2.94625 -0.736877 0
M  V30 17523 H 1614.59 -1.4639 -0.298392 0
M  V30 17524 H 1616.47 -2.76187 -3.18274 0
M  V30 17525 H 1615.15 -1.63003 -2.79664 0
M  V30 17526 H 1614.06 -3.47263 -1.39136 0
M  V30 17527 H 1615.39 -4.56156 -1.84886 0
M  V30 17528 N 1617.04 0.356258 -1.53521 0
M  V30 17529 C 1617.97 1.45722 -1.76912 0
M  V30 17530 C 1618.99 1.49257 -0.650091 0
M  V30 17531 O 1620.18 1.52569 -0.926557 0
M  V30 17532 C 1617.28 2.84444 -1.84241 0
M  V30 17533 C 1616.45 3.04497 -3.14007 0
M  V30 17534 C 1615.51 4.23387 -3.12458 0
M  V30 17535 O 1614.53 4.18113 -3.86225 0
M  V30 17536 N 1615.74 5.31278 -2.33931 0
M  V30 17537 H 1618.5 1.26031 -2.71912 0
M  V30 17538 H 1616.06 0.546052 -1.52414 0
M  V30 17539 H 1618.05 3.62133 -1.80671 0
M  V30 17540 H 1616.62 2.97338 -0.96484 0
M  V30 17541 H 1615.84 2.14387 -3.30805 0
M  V30 17542 H 1617.13 3.14769 -3.99747 0
M  V30 17543 H 1616.53 5.38428 -1.73527 0
M  V30 17544 H 1615.09 6.07508 -2.36171 0
M  V30 17545 N 1618.52 1.45038 0.616577 0
M  V30 17546 C 1619.45 1.47504 1.7412 0
M  V30 17547 C 1620.43 0.332321 1.59168 0
M  V30 17548 O 1621.61 0.531483 1.80852 0
M  V30 17549 C 1618.74 1.32155 3.11854 0
M  V30 17550 C 1617.79 2.50176 3.45419 0
M  V30 17551 S 1618.62 4.12673 3.41265 0
M  V30 17552 C 1619.78 3.99773 4.81594 0
M  V30 17553 H 1620.01 2.42661 1.71764 0
M  V30 17554 H 1617.54 1.32512 0.792457 0
M  V30 17555 H 1619.5 1.23987 3.91328 0
M  V30 17556 H 1618.16 0.384839 3.11734 0
M  V30 17557 H 1617.35 2.35339 4.45681 0
M  V30 17558 H 1616.96 2.5516 2.7344 0
M  V30 17559 H 1619.25 3.64362 5.7118 0
M  V30 17560 H 1620.19 4.99916 5.01487 0
M  V30 17561 H 1620.6 3.31581 4.56852 0
M  V30 17562 N 1620 -0.858287 1.32179 0
M  V30 17563 C 1620.91 -1.99894 1.228 0
M  V30 17564 C 1621.92 -1.73417 0.142323 0
M  V30 17565 O 1623.1 -1.98114 0.362321 0
M  V30 17566 C 1620.16 -3.33495 0.947745 0
M  V30 17567 C 1619.23 -3.73217 2.12149 0
M  V30 17568 C 1618.46 -5.00443 1.85452 0
M  V30 17569 O 1618.68 -5.64828 0.79531 0
M  V30 17570 O 1617.62 -5.3721 2.71457 0
M  V30 17571 H 1621.44 -2.10742 2.18682 0
M  V30 17572 H 1619.03 -0.988385 1.12033 0
M  V30 17573 H 1620.91 -4.13585 0.807791 0
M  V30 17574 H 1619.58 -3.23694 0.019053 0
M  V30 17575 H 1618.49 -2.93718 2.3169 0
M  V30 17576 H 1619.82 -3.87659 3.03285 0
M  V30 17577 N 1621.48 -1.1533 -1.07409 0
M  V30 17578 C 1622.41 -0.807289 -2.14512 0
M  V30 17579 C 1623.42 0.18043 -1.61797 0
M  V30 17580 O 1624.61 -0.042733 -1.78449 0
M  V30 17581 C 1621.71 -0.179338 -3.38425 0
M  V30 17582 C 1620.88 -1.20433 -4.20493 0
M  V30 17583 C 1619.94 -0.598268 -5.22788 0
M  V30 17584 O 1618.97 -1.26405 -5.54987 0
M  V30 17585 N 1620.17 0.620283 -5.77177 0
M  V30 17586 H 1622.93 -1.729 -2.44797 0
M  V30 17587 H 1620.5 -1.0491 -1.23311 0
M  V30 17588 H 1622.49 0.238867 -4.03994 0
M  V30 17589 H 1621.06 0.645706 -3.05858 0
M  V30 17590 H 1620.28 -1.79912 -3.5075 0
M  V30 17591 H 1621.57 -1.89642 -4.72137 0
M  V30 17592 H 1620.96 1.17958 -5.53265 0
M  V30 17593 H 1619.52 0.980853 -6.44378 0
M  V30 17594 N 1622.95 1.25748 -0.950004 0
M  V30 17595 C 1624.37 1.45599 -0.653697 0
M  V30 17596 C 1624.57 1.85357 0.790245 0
M  V30 17597 O 1623.63 1.98071 1.56601 0
M  V30 17598 C 1624.94 2.5316 -1.62267 0
M  V30 17599 C 1626.49 2.67004 -1.63334 0
M  V30 17600 C 1626.96 3.77745 -2.58984 0
M  V30 17601 N 1628.45 3.8515 -2.57321 0
M  V30 17602 C 1629.19 4.70315 -3.28011 0
M  V30 17603 N 1628.68 5.59802 -4.08159 0
M  V30 17604 N 1630.48 4.64239 -3.16921 0
M  V30 17605 H 1622.63 0.982321 -1.88319 0
M  V30 17606 H 1624.89 0.492917 -0.809776 0
M  V30 17607 H 1624.6 2.30792 -2.65382 0
M  V30 17608 H 1624.47 3.50988 -1.38158 0
M  V30 17609 H 1626.86 2.88739 -0.609388 0
M  V30 17610 H 1626.94 1.69591 -1.915 0
M  V30 17611 H 1626.58 3.56761 -3.61502 0
M  V30 17612 H 1626.51 4.74633 -2.28103 0
M  V30 17613 H 1629 3.21178 -1.99131 0
M  V30 17614 H 1629.32 6.21701 -4.59029 0
M  V30 17615 H 1627.66 5.59525 -4.12258 0
M  V30 17616 H 1630.85 3.93335 -2.53782 0
M  V30 17617 H 1631.03 5.30389 -3.72279 0
M  V30 17618 N 1624.43 0.718038 1.40292 0
M  V30 17619 C 1625.38 0.0559466 2.32533 0
M  V30 17620 C 1626.37 -0.744365 1.5217 0
M  V30 17621 O 1627.58 -0.647458 1.67952 0
M  V30 17622 H 1623.95 -0.000710627 0.752 0
M  V30 17623 H 1625.93 0.850579 2.8602 0
M  V30 17624 C 1624.67 -0.849927 3.37152 0
M  V30 17625 H 1624 -0.243507 3.99058 0
M  V30 17626 H 1625.44 -1.28111 4.04183 0
M  V30 17627 C 1623.9 -1.9765 2.7283 0
M  V30 17628 O 1624.43 -3.06757 2.59351 0
M  V30 17629 N 1622.63 -1.76086 2.31176 0
M  V30 17630 H 1622.18 -0.873485 2.42339 0
M  V30 17631 H 1622.14 -2.51643 1.88477 0
M  V30 17632 N 1625.91 -1.50602 0.464402 0
M  V30 17633 C 1627.14 -2.07191 -0.0930678 0
M  V30 17634 C 1627.56 -1.32675 -1.33338 0
M  V30 17635 O 1626.92 -0.372453 -1.77433 0
M  V30 17636 C 1626.97 -3.5873 -0.366775 0
M  V30 17637 O 1626.07 -3.86125 -1.44849 0
M  V30 17638 H 1625.41 -0.663924 0.0100336 0
M  V30 17639 H 1627.94 -1.93882 0.653522 0
M  V30 17640 H 1627.95 -4.03425 -0.609258 0
M  V30 17641 H 1626.63 -4.12385 0.539608 0
M  V30 17642 H 1625.2 -3.53273 -1.19384 0
M  V30 17643 N 1627.39 -0.19675 -1.56367 0
M  V30 17644 C 1628.8 0.159068 -1.58805 0
M  V30 17645 C 1629 1.60902 -1.21297 0
M  V30 17646 O 1628.06 2.34491 -0.93649 0
M  V30 17647 C 1629.37 -0.144784 -3.00351 0
M  V30 17648 C 1630.92 -0.0850243 -3.12884 0
M  V30 17649 C 1631.4 -0.362209 -4.56565 0
M  V30 17650 N 1632.89 -0.310887 -4.62156 0
M  V30 17651 C 1633.62 -0.499187 -5.71223 0
M  V30 17652 N 1633.12 -0.747925 -6.88751 0
M  V30 17653 N 1634.91 -0.433329 -5.60427 0
M  V30 17654 H 1627.06 -1.1429 -1.79029 0
M  V30 17655 H 1629.33 -0.456298 -0.830961 0
M  V30 17656 H 1629.03 -1.15019 -3.3236 0
M  V30 17657 H 1628.91 0.551864 -3.73141 0
M  V30 17658 H 1631.29 0.910992 -2.80687 0
M  V30 17659 H 1631.37 -0.814774 -2.42477 0
M  V30 17660 H 1631.02 -1.35555 -4.89477 0
M  V30 17661 H 1630.95 0.388448 -5.25165 0
M  V30 17662 H 1633.44 -0.125318 -3.77692 0
M  V30 17663 H 1633.75 -0.880372 -7.67769 0
M  V30 17664 H 1632.1 -0.784838 -6.90554 0
M  V30 17665 H 1635.29 -0.239411 -4.67487 0
M  V30 17666 H 1635.46 -0.583495 -6.45368 0
M  V30 17667 N 1628.87 1.57413 0.0768405 0
M  V30 17668 C 1630.11 1.88144 0.772882 0
M  V30 17669 C 1630.47 0.789834 1.75441 0
M  V30 17670 O 1629.76 -0.206487 1.90484 0
M  V30 17671 C 1629.95 3.2324 1.52482 0
M  V30 17672 C 1629.78 4.45439 0.61762 0
M  V30 17673 C 1628.55 5.04649 0.256461 0
M  V30 17674 C 1630.75 5.14232 -0.0834364 0
M  V30 17675 N 1628.73 6.10374 -0.656988 0
M  V30 17676 C 1630.1 6.14087 -0.854262 0
M  V30 17677 C 1632.16 4.97657 -0.155439 0
M  V30 17678 C 1630.86 6.99155 -1.69039 0
M  V30 17679 C 1632.89 5.83248 -0.978528 0
M  V30 17680 C 1632.25 6.82637 -1.73742 0
M  V30 17681 H 1628.35 0.738071 0.258409 0
M  V30 17682 H 1630.93 1.94669 0.0346081 0
M  V30 17683 H 1629.1 3.17732 2.23385 0
M  V30 17684 H 1630.84 3.41637 2.16948 0
M  V30 17685 H 1627.59 4.69679 0.608199 0
M  V30 17686 H 1628.02 6.67891 -1.10681 0
M  V30 17687 H 1632.66 4.20739 0.416946 0
M  V30 17688 H 1630.38 7.75452 -2.27377 0
M  V30 17689 H 1633.96 5.72481 -1.03715 0
M  V30 17690 H 1632.84 7.47718 -2.36405 0
M  V30 17691 N 1630.34 -0.348112 1.53707 0
M  V30 17692 C 1631.29 -1.44755 1.82068 0
M  V30 17693 C 1632.29 -1.54672 0.690865 0
M  V30 17694 O 1633.49 -1.5735 0.874123 0
M  V30 17695 H 1629.87 -0.482562 0.576747 0
M  V30 17696 H 1631.84 -1.18047 2.74058 0
M  V30 17697 C 1630.59 -2.81345 2.04305 0
M  V30 17698 H 1629.91 -2.74479 2.90691 0
M  V30 17699 H 1631.35 -3.57405 2.28117 0
M  V30 17700 C 1629.81 -3.26586 0.827224 0
M  V30 17701 O 1630.34 -4.01693 0.0244098 0
M  V30 17702 N 1628.55 -2.83335 0.645731 0
M  V30 17703 H 1628.09 -2.22379 1.3002 0
M  V30 17704 H 1628.05 -3.1396 -0.166313 0
M  V30 17705 N 1631.82 -1.45363 -0.608876 0
M  V30 17706 C 1633.05 -1.52836 -1.39459 0
M  V30 17707 C 1633.47 -0.160537 -1.88116 0
M  V30 17708 O 1632.82 0.837671 -1.6214 0
M  V30 17709 C 1632.87 -2.51168 -2.59994 0
M  V30 17710 O 1632.59 -3.82635 -2.13359 0
M  V30 17711 C 1634.1 -2.68326 -3.52868 0
M  V30 17712 H 1631.32 -0.51765 -0.426942 0
M  V30 17713 H 1633.86 -1.90538 -0.742674 0
M  V30 17714 H 1632.01 -2.16542 -3.2123 0
M  V30 17715 H 1632.43 -4.35927 -2.91665 0
M  V30 17716 H 1633.9 -3.41109 -4.33992 0
M  V30 17717 H 1634.38 -1.74317 -4.03126 0
M  V30 17718 H 1634.99 -3.03943 -2.97487 0
M  V30 17719 N 1633.3 0.851265 -1.32632 0
M  V30 17720 C 1634.55 1.60807 -1.23568 0
M  V30 17721 C 1634.88 1.93155 0.201238 0
M  V30 17722 O 1634.15 1.5764 1.13929 0
M  V30 17723 C 1634.44 2.92619 -2.09872 0
M  V30 17724 C 1634.29 2.67031 -3.61959 0
M  V30 17725 C 1635.61 3.93924 -1.96244 0
M  V30 17726 H 1632.73 0.583492 -0.450229 0
M  V30 17727 H 1635.37 0.98273 -1.62611 0
M  V30 17728 H 1633.52 3.45988 -1.76704 0
M  V30 17729 H 1635.19 2.2019 -4.05357 0
M  V30 17730 H 1633.44 2.00938 -3.84456 0
M  V30 17731 H 1634.11 3.60902 -4.17676 0
M  V30 17732 H 1636.58 3.49823 -2.25307 0
M  V30 17733 H 1635.46 4.84005 -2.58902 0
M  V30 17734 H 1635.72 4.32185 -0.931065 0
M  V30 17735 N 1634.78 1.15898 1.06796 0
M  V30 17736 C 1635.71 0.88395 2.16122 0
M  V30 17737 C 1636.69 -0.167708 1.69271 0
M  V30 17738 O 1637.87 -0.0208846 1.94189 0
M  V30 17739 C 1635 0.378656 3.4523 0
M  V30 17740 C 1633.96 1.36764 4.05561 0
M  V30 17741 C 1633.28 0.720956 5.29817 0
M  V30 17742 C 1634.58 2.73554 4.44933 0
M  V30 17743 H 1636.28 1.79818 2.39386 0
M  V30 17744 H 1633.82 0.866008 1.15049 0
M  V30 17745 H 1635.78 0.17376 4.21042 0
M  V30 17746 H 1634.5 -0.571063 3.21569 0
M  V30 17747 H 1633.16 1.55899 3.318 0
M  V30 17748 H 1632.81 -0.235089 5.0245 0
M  V30 17749 H 1632.51 1.38101 5.71141 0
M  V30 17750 H 1634.03 0.525963 6.0833 0
M  V30 17751 H 1635.45 2.58231 5.11849 0
M  V30 17752 H 1633.84 3.35986 4.97226 0
M  V30 17753 H 1634.91 3.29192 3.56034 0
M  V30 17754 N 1636.26 -1.25243 0.956659 0
M  V30 17755 C 1637.67 -1.4525 0.661409 0
M  V30 17756 C 1637.87 -1.85774 -0.780404 0
M  V30 17757 O 1636.93 -1.98899 -1.55549 0
M  V30 17758 C 1638.24 -2.52296 1.63607 0
M  V30 17759 C 1639.79 -2.66134 1.64748 0
M  V30 17760 C 1640.26 -3.76366 2.60983 0
M  V30 17761 N 1641.76 -3.8378 2.5936 0
M  V30 17762 C 1642.49 -4.68569 3.30501 0
M  V30 17763 N 1641.99 -5.5763 4.11122 0
M  V30 17764 N 1643.78 -4.62551 3.19378 0
M  V30 17765 H 1635.93 -0.972321 1.88838 0
M  V30 17766 H 1638.19 -0.488615 0.812379 0
M  V30 17767 H 1637.9 -2.29382 2.66603 0
M  V30 17768 H 1637.77 -3.5025 1.40017 0
M  V30 17769 H 1640.16 -2.88412 0.624692 0
M  V30 17770 H 1640.24 -1.68573 1.92397 0
M  V30 17771 H 1639.89 -3.54839 3.63389 0
M  V30 17772 H 1639.82 -4.73417 2.30617 0
M  V30 17773 H 1642.31 -3.20117 2.00832 0
M  V30 17774 H 1642.62 -6.19258 4.62319 0
M  V30 17775 H 1640.96 -5.57331 4.15219 0
M  V30 17776 H 1644.16 -3.91983 2.55865 0
M  V30 17777 H 1644.33 -5.28407 3.75086 0
M  V30 17778 N 1637.73 -0.725468 -1.3991 0
M  V30 17779 C 1638.7 -0.0878956 -2.29031 0
M  V30 17780 C 1639.7 0.677105 -1.45849 0
M  V30 17781 O 1640.89 0.507538 -1.66642 0
M  V30 17782 C 1638.02 0.885087 -3.2921 0
M  V30 17783 H 1639.21 -0.872957 -2.86914 0
M  V30 17784 H 1636.77 -0.490715 -1.48397 0
M  V30 17785 H 1637.5 1.69685 -2.76365 0
M  V30 17786 H 1637.29 0.339297 -3.90629 0
M  V30 17787 H 1638.78 1.32806 -3.9592 0
M  V30 17788 N 1639.21 1.50354 -0.472382 0
M  V30 17789 C 1640.46 2.02633 0.0822846 0
M  V30 17790 C 1640.79 1.35358 1.39254 0
M  V30 17791 O 1640.07 0.479714 1.88491 0
M  V30 17792 C 1640.35 3.59126 0.264742 0
M  V30 17793 C 1640.2 4.3697 -1.06663 0
M  V30 17794 C 1641.52 4.28148 1.01869 0
M  V30 17795 H 1638.64 0.736451 0.0284304 0
M  V30 17796 H 1641.28 1.79661 -0.618224 0
M  V30 17797 H 1639.43 3.7883 0.86141 0
M  V30 17798 H 1641.1 4.28834 -1.69997 0
M  V30 17799 H 1639.35 4.0066 -1.66295 0
M  V30 17800 H 1640.02 5.44736 -0.892592 0
M  V30 17801 H 1642.49 4.12926 0.512931 0
M  V30 17802 H 1641.37 5.37453 1.11515 0
M  V30 17803 H 1641.63 3.91406 2.05557 0
M  V30 17804 N 1640.69 0.205039 1.56261 0
M  V30 17805 C 1641.64 -0.711828 2.19549 0
M  V30 17806 C 1642.61 -1.2025 1.14582 0
M  V30 17807 O 1643.79 -1.26459 1.42873 0
M  V30 17808 C 1640.93 -1.92152 2.86656 0
M  V30 17809 C 1640.05 -1.47129 4.06174 0
M  V30 17810 C 1639.18 -2.63726 4.6111 0
M  V30 17811 C 1638.22 -2.15357 5.72964 0
M  V30 17812 N 1637.36 -3.25167 6.22263 0
M  V30 17813 H 1642.2 -0.165392 2.97541 0
M  V30 17814 H 1639.73 -0.0698889 1.46934 0
M  V30 17815 H 1641.69 -2.63152 3.23739 0
M  V30 17816 H 1640.32 -2.4411 2.11211 0
M  V30 17817 H 1639.37 -0.656797 3.74687 0
M  V30 17818 H 1640.69 -1.0765 4.87045 0
M  V30 17819 H 1639.84 -3.42833 5.0055 0
M  V30 17820 H 1638.58 -3.06484 3.79367 0
M  V30 17821 H 1637.58 -1.34706 5.33043 0
M  V30 17822 H 1638.81 -1.73618 6.56532 0
M  V30 17823 H 1636.76 -3.67438 5.43439 0
M  V30 17824 H 1636.67 -2.89888 6.98213 0
M  V30 17825 H 1637.94 -4.0446 6.66358 0
M  V30 17826 N 1642.17 -1.57451 -0.0684915 0
M  V30 17827 C 1643.13 -2.0293 -1.06545 0
M  V30 17828 C 1644.13 -0.926861 -1.314 0
M  V30 17829 O 1645.32 -1.19164 -1.27065 0
M  V30 17830 C 1642.45 -2.41276 -2.4083 0
M  V30 17831 H 1643.65 -2.92242 -0.673401 0
M  V30 17832 H 1641.2 -1.53107 -0.314307 0
M  V30 17833 H 1641.94 -1.55 -2.8486 0
M  V30 17834 H 1641.72 -3.21727 -2.2413 0
M  V30 17835 H 1643.21 -2.77026 -3.12484 0
M  V30 17836 N 1643.65 0.339955 -1.5389 0
M  V30 17837 C 1644.59 1.41765 -1.8213 0
M  V30 17838 C 1645.56 1.52109 -0.667235 0
M  V30 17839 O 1646.75 1.67591 -0.91203 0
M  V30 17840 C 1643.89 2.78366 -2.03977 0
M  V30 17841 C 1643 2.76785 -3.31684 0
M  V30 17842 C 1642.14 4.05125 -3.4358 0
M  V30 17843 C 1641.18 3.97787 -4.65223 0
M  V30 17844 N 1640.31 5.17825 -4.74133 0
M  V30 17845 H 1645.15 1.16984 -2.74078 0
M  V30 17846 H 1642.69 0.566618 -1.35749 0
M  V30 17847 H 1644.65 3.57755 -2.14633 0
M  V30 17848 H 1643.28 3.01491 -1.15338 0
M  V30 17849 H 1642.33 1.89481 -3.2985 0
M  V30 17850 H 1643.64 2.67241 -4.2117 0
M  V30 17851 H 1642.8 4.9294 -3.53688 0
M  V30 17852 H 1641.54 4.17455 -2.52157 0
M  V30 17853 H 1640.54 3.08357 -4.55188 0
M  V30 17854 H 1641.77 3.87037 -5.58014 0
M  V30 17855 H 1639.71 5.30691 -3.8562 0
M  V30 17856 H 1639.63 5.10552 -5.5756 0
M  V30 17857 H 1640.9 6.074 -4.88554 0
M  V30 17858 N 1645.13 1.45684 0.601159 0
M  V30 17859 C 1646.35 1.53574 1.38646 0
M  V30 17860 C 1646.77 0.170511 1.88028 0
M  V30 17861 O 1646.13 -0.829061 1.62582 0
M  V30 17862 C 1646.18 2.52543 2.58658 0
M  V30 17863 O 1645.9 3.83761 2.11327 0
M  V30 17864 C 1647.4 2.70194 3.5144 0
M  V30 17865 H 1644.62 0.519907 0.424191 0
M  V30 17866 H 1647.16 1.90929 0.732559 0
M  V30 17867 H 1645.32 2.18242 3.20077 0
M  V30 17868 H 1645.73 4.37467 2.89349 0
M  V30 17869 H 1647.21 3.43405 4.32177 0
M  V30 17870 H 1647.68 1.76452 4.02196 0
M  V30 17871 H 1648.29 3.05517 2.95871 0
M  V30 17872 N 1646.6 -0.84422 1.33082 0
M  V30 17873 C 1647.55 -1.94198 1.19463 0
M  V30 17874 C 1648.54 -1.60596 0.0988792 0
M  V30 17875 O 1649.73 -1.73964 0.326442 0
M  V30 17876 C 1646.86 -3.30448 0.930544 0
M  V30 17877 C 1645.94 -3.70236 2.06848 0
M  V30 17878 N 1646.34 -3.81763 3.31799 0
M  V30 17879 C 1644.63 -3.99937 1.97398 0
M  V30 17880 C 1645.33 -4.16192 4.06398 0
M  V30 17881 N 1644.31 -4.28273 3.34788 0
M  V30 17882 H 1648.11 -2.01257 2.14179 0
M  V30 17883 H 1645.63 -1.03662 1.25012 0
M  V30 17884 H 1647.62 -4.08878 0.813916 0
M  V30 17885 H 1646.28 -3.24699 -0.00814161 0
M  V30 17886 H 1647.29 -3.6581 3.66611 0
M  V30 17887 H 1643.97 -4.02431 1.11156 0
M  V30 17888 H 1645.36 -4.32492 5.14199 0
M  V30 17889 N 1648.08 -1.16463 -1.0618 0
M  V30 17890 C 1649.03 -0.840506 -2.11942 0
M  V30 17891 C 1650.02 0.180553 -1.59884 0
M  V30 17892 O 1651.21 -0.0204411 -1.76988 0
M  V30 17893 C 1648.34 -0.344603 -3.41566 0
M  V30 17894 C 1647.42 -1.39651 -4.00448 0
M  V30 17895 N 1647.81 -2.60722 -4.33426 0
M  V30 17896 C 1646.11 -1.25203 -4.28066 0
M  V30 17897 C 1646.81 -3.28236 -4.80246 0
M  V30 17898 N 1645.79 -2.55616 -4.79751 0
M  V30 17899 H 1649.59 -1.76116 -2.35288 0
M  V30 17900 H 1647.1 -1.05185 -1.23733 0
M  V30 17901 H 1649.1 -0.0939984 -4.16794 0
M  V30 17902 H 1647.76 0.569968 -3.19658 0
M  V30 17903 H 1648.77 -2.97769 -4.23738 0
M  V30 17904 H 1645.45 -0.39831 -4.15596 0
M  V30 17905 H 1646.84 -4.31589 -5.14957 0
M  V30 17906 N 1649.56 1.24734 -0.963288 0
M  V30 17907 C 1650.49 2.27892 -0.508667 0
M  V30 17908 C 1651.47 1.64055 0.449438 0
M  V30 17909 O 1652.66 1.91083 0.346519 0
M  V30 17910 C 1649.79 3.46688 0.206157 0
M  V30 17911 C 1648.74 4.22762 -0.667534 0
M  V30 17912 C 1648.07 5.34402 0.178529 0
M  V30 17913 C 1649.37 4.84535 -1.94995 0
M  V30 17914 H 1651.06 2.66171 -1.37088 0
M  V30 17915 H 1648.61 1.27952 -0.660622 0
M  V30 17916 H 1650.56 4.17985 0.535391 0
M  V30 17917 H 1649.28 3.07422 1.10269 0
M  V30 17918 H 1647.94 3.53259 -0.979976 0
M  V30 17919 H 1647.59 4.91377 1.07508 0
M  V30 17920 H 1647.29 5.86218 -0.402808 0
M  V30 17921 H 1648.81 6.08529 0.502533 0
M  V30 17922 H 1650.23 5.4793 -1.68658 0
M  V30 17923 H 1648.62 5.46564 -2.47765 0
M  V30 17924 H 1649.69 4.06236 -2.64765 0
M  V30 17925 N 1651.04 0.732878 1.39523 0
M  V30 17926 C 1651.95 0.0930216 2.34416 0
M  V30 17927 C 1652.96 -0.724309 1.58208 0
M  V30 17928 O 1654.14 -0.653267 1.90511 0
M  V30 17929 C 1651.2 -0.805036 3.37224 0
M  V30 17930 C 1650.27 0.0243049 4.29293 0
M  V30 17931 C 1649.5 -0.830984 5.27191 0
M  V30 17932 O 1649.72 -2.06977 5.31523 0
M  V30 17933 O 1648.66 -0.260772 6.01335 0
M  V30 17934 H 1652.48 0.876179 2.90786 0
M  V30 17935 H 1650.07 0.493525 1.41013 0
M  V30 17936 H 1651.95 -1.31894 4.00228 0
M  V30 17937 H 1650.62 -1.56704 2.83241 0
M  V30 17938 H 1649.53 0.583677 3.69519 0
M  V30 17939 H 1650.86 0.748485 4.86476 0
M  V30 17940 N 1652.52 -1.50101 0.480349 0
M  V30 17941 C 1653.93 -1.8668 0.0274773 0
M  V30 17942 C 1654.28 -1.39442 -1.38023 0
M  V30 17943 O 1653.4 -0.763363 -2.02489 0
M  V30 17944 C 1654 -3.38773 0.043087 0
M  V30 17945 C 1652.56 -3.74728 -0.354352 0
M  V30 17946 C 1651.7 -2.7403 0.424583 0
M  V30 17947 H 1654.65 -1.42713 0.694172 0
M  V30 17948 H 1654.68 -3.72894 -0.756989 0
M  V30 17949 H 1654.19 -3.73123 1.06775 0
M  V30 17950 H 1652.29 -3.45981 -1.38303 0
M  V30 17951 H 1652.4 -4.79075 -0.0492608 0
M  V30 17952 H 1650.77 -2.54403 -0.122927 0
M  V30 17953 H 1651.55 -3.11225 1.44894 0
M  V30 17954 O 1654.03 -0.354827 -1.57554 0
M  V30 17955 H 1654.72 0.198168 -1.92684 0
M  V30 END ATOM
M  V30 BEGIN BOND
M  V30 END BOND
M  V30 END CTAB
M  END
$$$$
