drugbank_target|Q51792 Trans-2,3-dihydro-3-hydroxyanthranilate isomerase (DB02124; DB03644)
 OpenBabel12092119563D

  0  0  0     0  0            999 V3000
M  V30 BEGIN CTAB
M  V30 COUNTS 4208 4259 0 0 0
M  V30 BEGIN ATOM
M  V30 1 H -0.908 1.98254 -0.117106 0
M  V30 2 N 0 1.576 0 0
M  V30 3 C 0.933 2.03868 1.02534 0
M  V30 4 C 1.911 0.928543 1.3348 0
M  V30 5 O 3.095 1.19667 1.45644 0
M  V30 6 C 0.222 2.43627 2.35294 0
M  V30 7 C -0.732 3.65373 2.2001 0
M  V30 8 S 0.101 5.13292 1.52614 0
M  V30 9 C 1.257 5.56322 2.86805 0
M  V30 10 H 1.49 2.90518 0.631377 0
M  V30 11 H -0.977 1.52953 0.210867 0
M  V30 12 H 0.981 2.67203 3.11629 0
M  V30 13 H -0.358 1.57376 2.7183 0
M  V30 14 H -1.165 3.90944 3.18086 0
M  V30 15 H -1.563 3.418 1.51819 0
M  V30 16 H 0.729 5.58782 3.83104 0
M  V30 17 H 1.672 6.56266 2.65933 0
M  V30 18 H 2.08 4.83886 2.90714 0
M  V30 19 N 1.4781 -0.272755 1.55222 0
M  V30 20 C 2.4281 -1.33946 1.84506 0
M  V30 21 C 3.4121 -1.44682 0.70399 0
M  V30 22 O 4.6041 -1.48358 0.965338 0
M  V30 23 C 1.7331 -2.69968 2.12067 0
M  V30 24 C 0.8191 -2.63341 3.32434 0
M  V30 25 N 1.2101 -2.26335 4.52334 0
M  V30 26 C -0.4919 -2.94402 3.35028 0
M  V30 27 C 0.2091 -2.29705 5.34425 0
M  V30 28 N -0.8149 -2.68188 4.72838 0
M  V30 29 H 2.9871 -1.04343 2.74754 0
M  V30 30 H 0.5011 -0.481389 1.55101 0
M  V30 31 H 2.4981 -3.46916 2.31202 0
M  V30 32 H 1.1581 -3.00459 1.23103 0
M  V30 33 H 2.1691 -1.98309 4.78429 0
M  V30 34 H -1.1539 -3.29603 2.56257 0
M  V30 35 H 0.2361 -2.03653 6.40293 0
M  V30 36 N 2.9562 -1.48159 -0.537278 0
M  V30 37 C 3.9042 -1.62573 -1.66352 0
M  V30 38 C 4.8982 -0.492366 -1.62087 0
M  V30 39 O 6.1042 -0.670847 -1.67032 0
M  V30 40 H 2.4792 -0.511992 -0.550789 0
M  V30 41 H 4.4502 -2.57176 -1.51337 0
M  V30 42 C 3.1992 -1.67583 -3.04649 0
M  V30 43 H 2.5222 -2.54151 -3.08622 0
M  V30 44 H 3.9622 -1.81713 -3.83088 0
M  V30 45 C 2.4212 -0.413039 -3.34358 0
M  V30 46 O 2.9512 0.477259 -3.98855 0
M  V30 47 N 1.1572 -0.286961 -2.8918 0
M  V30 48 H 0.7042 -1.01241 -2.36871 0
M  V30 49 H 0.6622 0.556963 -3.09427 0
M  V30 50 N 4.4343 0.785586 -1.36625 0
M  V30 51 C 5.6643 1.5722 -1.34036 0
M  V30 52 C 6.0723 1.89033 0.0795062 0
M  V30 53 O 5.4153 1.50881 1.04789 0
M  V30 54 C 5.4773 2.91759 -2.10041 0
M  V30 55 C 5.1413 2.82654 -3.59104 0
M  V30 56 C 6.1383 2.54634 -4.53274 0
M  V30 57 C 3.8233 3.01111 -4.02042 0
M  V30 58 C 5.8173 2.45177 -5.88359 0
M  V30 59 C 3.5043 2.91276 -5.37216 0
M  V30 60 C 4.5023 2.63348 -6.30188 0
M  V30 61 O 4.1903 2.53514 -7.6288 0
M  V30 62 H 3.9223 0.494177 -0.461265 0
M  V30 63 H 6.4763 0.982632 -1.8037 0
M  V30 64 H 4.7063 3.52781 -1.58375 0
M  V30 65 H 6.3953 3.53059 -2.00261 0
M  V30 66 H 7.1613 2.40073 -4.21414 0
M  V30 67 H 3.0403 3.21854 -3.30047 0
M  V30 68 H 6.5843 2.23299 -6.60896 0
M  V30 69 H 2.4813 3.054 -5.68684 0
M  V30 70 H 3.2493 2.68967 -7.73045 0
M  V30 71 N 5.9124 1.20967 1.01018 0
M  V30 72 C 7.1584 1.02526 1.74975 0
M  V30 73 C 7.4914 -0.4408 1.89131 0
M  V30 74 O 6.7664 -1.32718 1.42184 0
M  V30 75 C 7.0494 1.71699 3.1653 0
M  V30 76 C 6.9024 3.25791 3.10129 0
M  V30 77 C 8.2214 1.45531 4.15342 0
M  V30 78 H 5.3404 0.373863 0.635134 0
M  V30 79 H 7.9824 1.49071 1.17805 0
M  V30 80 H 6.1324 1.32128 3.65341 0
M  V30 81 H 7.8044 3.74697 2.69072 0
M  V30 82 H 6.0474 3.56363 2.47362 0
M  V30 83 H 6.7184 3.69353 4.10222 0
M  V30 84 H 9.1944 1.79872 3.75213 0
M  V30 85 H 8.0704 1.96453 5.1254 0
M  V30 86 H 8.3314 0.384237 4.40427 0
M  V30 87 N 7.3905 -1.2043 1.01659 0
M  V30 88 C 8.6395 -1.89118 0.701237 0
M  V30 89 C 8.9525 -1.79705 -0.772358 0
M  V30 90 O 10.1585 -2.43528 -1.20026 0
M  V30 91 C 8.6145 -3.39168 1.20388 0
M  V30 92 C 8.2225 -3.57166 2.70438 0
M  V30 93 C 9.9665 -4.1341 0.963953 0
M  V30 94 C 7.8735 -5.01042 3.14183 0
M  V30 95 H 6.8035 -0.708267 0.2586 0
M  V30 96 H 9.4545 -1.36239 1.22927 0
M  V30 97 H 7.8365 -3.91369 0.603824 0
M  V30 98 H 9.0105 -3.15351 3.35992 0
M  V30 99 H 7.3255 -2.96294 2.92572 0
M  V30 100 H 9.9225 -5.19491 1.26621 0
M  V30 101 H 10.2655 -4.16181 -0.099578 0
M  V30 102 H 10.7985 -3.67309 1.52738 0
M  V30 103 H 7.5375 -5.03426 4.19812 0
M  V30 104 H 7.0575 -5.43668 2.53348 0
M  V30 105 H 8.7365 -5.69623 3.0682 0
M  V30 106 N 8.8686 -0.792821 -1.36206 0
M  V30 107 C 10.1176 -0.363353 -1.984 0
M  V30 108 C 10.4306 1.07172 -1.63626 0
M  V30 109 O 11.6366 1.60362 -2.19081 0
M  V30 110 C 10.0926 -0.59872 -3.54885 0
M  V30 111 C 9.7006 -2.04543 -3.9858 0
M  V30 112 C 11.4446 -0.233926 -4.23855 0
M  V30 113 C 9.3516 -2.22727 -5.47856 0
M  V30 114 H 8.2816 -0.13212 -0.742334 0
M  V30 115 H 10.9326 -0.974935 -1.55458 0
M  V30 116 H 9.3146 0.0826222 -3.95914 0
M  V30 117 H 10.4886 -2.76345 -3.68741 0
M  V30 118 H 8.8036 -2.36879 -3.42458 0
M  V30 119 H 11.4006 -0.348027 -5.33566 0
M  V30 120 H 11.7436 0.818351 -4.08177 0
M  V30 121 H 12.2766 -0.868639 -3.882 0
M  V30 122 H 9.0156 -3.2635 -5.68486 0
M  V30 123 H 8.5356 -1.55434 -5.7931 0
M  V30 124 H 10.2146 -2.03607 -6.14128 0
M  V30 125 N 10.3467 1.47872 -0.545128 0
M  V30 126 C 11.6237 1.9554 0.0485222 0
M  V30 127 C 12.0037 1.4876 1.49779 0
M  V30 128 O 11.3517 0.720925 2.16829 0
M  V30 129 C 11.5617 3.48898 -0.084417 0
M  V30 130 C 12.9097 4.24547 0.0671239 0
M  V30 131 O 13.9337 3.56198 -0.0113649 0
M  V30 132 O 12.7927 5.45999 0.233882 0
M  V30 133 H 9.8867 0.823957 0.0708773 0
M  V30 134 H 12.4327 1.58327 -0.610798 0
M  V30 135 H 11.2047 3.75714 -1.09337 0
M  V30 136 H 10.8277 3.92845 0.613066 0
M  V30 137 N 11.8248 0.280983 1.55075 0
M  V30 138 C 12.7878 -0.590896 2.21452 0
M  V30 139 C 13.7878 -1.07682 1.19421 0
M  V30 140 O 14.9778 -0.97605 1.44288 0
M  V30 141 C 12.1098 -1.81587 2.88511 0
M  V30 142 H 13.3028 -0.0112554 2.99898 0
M  V30 143 H 10.8558 0.0316438 1.56268 0
M  V30 144 H 11.5908 -2.43587 2.14093 0
M  V30 145 H 11.3758 -1.4753 3.63287 0
M  V30 146 H 12.8658 -2.43575 3.39206 0
M  V30 147 N 13.3029 -1.57598 0.00835791 0
M  V30 148 C 14.5499 -1.90928 -0.674732 0
M  V30 149 C 14.8779 -0.88277 -1.73313 0
M  V30 150 O 14.1329 0.111294 -1.95383 0
M  V30 151 C 14.4319 -3.3101 -1.34787 0
M  V30 152 C 14.0979 -4.48922 -0.421861 0
M  V30 153 C 12.7599 -4.8091 -0.166927 0
M  V30 154 C 15.1119 -5.20755 0.215211 0
M  V30 155 C 12.4399 -5.821 0.733232 0
M  V30 156 C 14.7919 -6.22905 1.1033 0
M  V30 157 C 13.4559 -6.53346 1.36733 0
M  V30 158 H 12.7259 -0.698656 -0.246902 0
M  V30 159 H 15.3729 -1.91387 0.0656779 0
M  V30 160 H 13.6779 -3.26714 -2.16253 0
M  V30 161 H 15.3749 -3.54061 -1.8826 0
M  V30 162 H 11.9649 -4.23934 -0.630729 0
M  V30 163 H 16.1489 -4.9629 0.0312829 0
M  V30 164 H 11.4049 -6.04042 0.945712 0
M  V30 165 H 15.5789 -6.77694 1.60325 0
M  V30 166 H 13.2059 -7.31573 2.06652 0
M  V30 167 N 14.781 0.264519 -1.55364 0
M  V30 168 C 15.744 1.31046 -1.88042 0
M  V30 169 C 16.744 1.41943 -0.755569 0
M  V30 170 O 17.934 1.40947 -1.02369 0
M  V30 171 C 15.066 2.69067 -2.09323 0
M  V30 172 H 16.259 1.03297 -2.81549 0
M  V30 173 H 13.812 0.502989 -1.47986 0
M  V30 174 H 14.547 3.01982 -1.18226 0
M  V30 175 H 14.332 2.62542 -2.91229 0
M  V30 176 H 15.822 3.44623 -2.35848 0
M  V30 177 N 16.2591 1.48442 0.529413 0
M  V30 178 C 17.4841 1.60406 1.31471 0
M  V30 179 C 17.9091 0.264738 1.86228 0
M  V30 180 O 17.2671 -0.763668 1.64432 0
M  V30 181 C 17.3151 2.65419 2.44101 0
M  V30 182 O 16.4191 2.22618 3.47153 0
M  V30 183 H 15.7601 0.537863 0.389357 0
M  V30 184 H 18.2901 1.94432 0.636965 0
M  V30 185 H 18.3001 2.86709 2.90279 0
M  V30 186 H 16.9751 3.62652 2.03608 0
M  V30 187 H 15.5521 2.11543 3.0709 0
M  V30 188 N 17.7372 -0.778329 1.37039 0
M  V30 189 C 18.9832 -1.53892 1.32079 0
M  V30 190 C 19.3162 -1.9396 -0.0965386 0
M  V30 191 O 18.5912 -1.63568 -1.05242 0
M  V30 192 C 18.8742 -2.80847 2.25382 0
M  V30 193 C 18.7272 -2.47076 3.75864 0
M  V30 194 C 20.0462 -3.82741 2.1725 0
M  V30 195 H 17.1652 -0.558303 0.48111 0
M  V30 196 H 19.8072 -0.893397 1.67685 0
M  V30 197 H 17.9572 -3.35931 1.95148 0
M  V30 198 H 19.6292 -1.97957 4.16666 0
M  V30 199 H 17.8722 -1.79863 3.94755 0
M  V30 200 H 18.5432 -3.37798 4.36574 0
M  V30 201 H 21.0192 -3.37133 2.43887 0
M  V30 202 H 19.8952 -4.69303 2.84686 0
M  V30 203 H 20.1562 -4.2652 1.16331 0
M  V30 204 N 19.2153 -1.21501 -1.00376 0
M  V30 205 C 20.6263 -1.03146 -1.55621 0
M  V30 206 C 20.9773 0.408375 -1.91903 0
M  V30 207 O 20.1023 1.29177 -1.73616 0
M  V30 208 C 20.6973 -1.86612 -2.82775 0
M  V30 209 C 19.2563 -1.72586 -3.34501 0
M  V30 210 C 18.4033 -1.83747 -2.07683 0
M  V30 211 H 21.3543 -1.35505 -0.826081 0
M  V30 212 H 21.3753 -1.3771 -3.54706 0
M  V30 213 H 20.8873 -2.91399 -2.56336 0
M  V30 214 H 18.9883 -0.704877 -3.65872 0
M  V30 215 H 19.1013 -2.54623 -4.05837 0
M  V30 216 H 17.4653 -1.27069 -2.20739 0
M  V30 217 H 18.2483 -2.90044 -1.83655 0
M  V30 218 N 20.6934 1.19889 -1.02296 0
M  V30 219 C 21.6234 2.25141 -0.619174 0
M  V30 220 C 22.6044 1.66051 0.368915 0
M  V30 221 O 23.7894 1.92546 0.252941 0
M  V30 222 C 20.9194 3.4728 0.0368783 0
M  V30 223 C 19.8734 4.19005 -0.872865 0
M  V30 224 C 19.1994 5.34637 -0.0822402 0
M  V30 225 C 20.4994 4.74452 -2.18387 0
M  V30 226 H 22.1934 2.59171 -1.49903 0
M  V30 227 H 19.7394 1.24579 -0.722222 0
M  V30 228 H 21.6924 4.20098 0.330958 0
M  V30 229 H 20.4164 3.12433 0.95149 0
M  V30 230 H 19.0754 3.48061 -1.15105 0
M  V30 231 H 18.7234 4.96034 0.83422 0
M  V30 232 H 18.4234 5.83557 -0.688149 0
M  V30 233 H 19.9474 6.10255 0.205238 0
M  V30 234 H 21.3614 5.39055 -1.95172 0
M  V30 235 H 19.7584 5.33834 -2.74119 0
M  V30 236 H 20.8284 3.92844 -2.84257 0
M  V30 237 N 22.1715 0.800033 1.35784 0
M  V30 238 C 23.0815 0.207204 2.33683 0
M  V30 239 C 24.0975 -0.64631 1.61551 0
M  V30 240 O 25.2735 -0.559604 1.93469 0
M  V30 241 C 22.3385 -0.639659 3.40748 0
M  V30 242 C 21.3995 0.233585 4.28664 0
M  V30 243 C 20.6325 -0.572954 5.30616 0
M  V30 244 O 20.8555 -1.80816 5.40982 0
M  V30 245 O 19.7895 0.0327285 6.01891 0
M  V30 246 H 23.6155 1.01692 2.86169 0
M  V30 247 H 21.2005 0.561691 1.38439 0
M  V30 248 H 23.0825 -1.12223 4.06182 0
M  V30 249 H 21.7575 -1.42708 2.90544 0
M  V30 250 H 20.6645 0.763147 3.66233 0
M  V30 251 H 21.9975 0.984784 4.82248 0
M  V30 252 N 23.6496 -1.47581 0.552962 0
M  V30 253 C 24.8976 -2.02082 0.0272703 0
M  V30 254 C 25.2186 -1.4301 -1.32563 0
M  V30 255 O 24.4886 -0.603745 -1.86365 0
M  V30 256 H 23.0686 -0.746966 0.00709182 0
M  V30 257 H 25.7306 -1.81033 0.722008 0
M  V30 258 H 24.8266 -3.12034 -0.0639951 0
M  V30 259 N 25.1277 -0.289203 -1.54924 0
M  V30 260 C 26.0757 0.607966 -2.24514 0
M  V30 261 C 27.0697 1.14655 -1.24702 0
M  V30 262 O 28.2757 1.09856 -1.4259 0
M  V30 263 H 24.6507 0.21464 -0.720718 0
M  V30 264 H 26.6217 -0.00164182 -2.984 0
M  V30 265 C 25.3707 1.77406 -2.99036 0
M  V30 266 H 24.6937 1.36884 -3.75637 0
M  V30 267 H 26.1337 2.37814 -3.51028 0
M  V30 268 C 24.5927 2.67107 -2.05318 0
M  V30 269 O 25.1227 3.6787 -1.61353 0
M  V30 270 N 23.3287 2.34582 -1.71521 0
M  V30 271 H 22.8757 1.52688 -2.07471 0
M  V30 272 H 22.8337 2.94867 -1.0909 0
M  V30 273 N 26.6058 1.57591 -0.0167156 0
M  V30 274 C 28.0168 1.79201 0.523834 0
M  V30 275 C 28.3678 0.925796 1.72984 0
M  V30 276 O 27.4928 0.132792 2.15992 0
M  V30 277 C 28.0878 3.25 0.957091 0
M  V30 278 C 26.6468 3.47648 1.44283 0
M  V30 279 C 25.7938 2.74374 0.401757 0
M  V30 280 H 28.7448 1.56831 -0.242816 0
M  V30 281 H 28.7658 3.34031 1.82219 0
M  V30 282 H 28.2778 3.88019 0.0791415 0
M  V30 283 H 26.3788 2.89866 2.34113 0
M  V30 284 H 26.4918 4.56352 1.45877 0
M  V30 285 H 24.8558 2.39485 0.867121 0
M  V30 286 H 25.6388 3.40102 -0.467513 0
M  V30 287 N 28.0839 -0.256276 1.55502 0
M  V30 288 C 29.3299 -0.987079 1.77157 0
M  V30 289 C 29.6629 -1.85327 0.580315 0
M  V30 290 O 28.9379 -1.89874 -0.421686 0
M  V30 291 C 29.2209 -1.85553 3.08613 0
M  V30 292 C 29.0739 -1.01816 4.38125 0
M  V30 293 C 30.3929 -2.8397 3.36228 0
M  V30 294 H 27.5119 -0.357428 0.644526 0
M  V30 295 H 30.1539 -0.258239 1.88237 0
M  V30 296 H 28.3039 -2.47695 2.99298 0
M  V30 297 H 29.9759 -0.416159 4.59419 0
M  V30 298 H 28.2189 -0.322178 4.32602 0
M  V30 299 H 28.8899 -1.65939 5.26468 0
M  V30 300 H 31.3659 -2.31964 3.45445 0
M  V30 301 H 30.2419 -3.41864 4.29442 0
M  V30 302 H 30.5029 -3.59955 2.56681 0
M  V30 303 N 29.562 -1.4872 -0.521534 0
M  V30 304 C 30.525 -1.63379 -1.60748 0
M  V30 305 C 31.525 -0.50661 -1.52611 0
M  V30 306 O 32.715 -0.772601 -1.5613 0
M  V30 307 C 29.847 -1.61192 -3.00383 0
M  V30 308 H 31.04 -2.60217 -1.49087 0
M  V30 309 H 28.593 -1.37444 -0.744235 0
M  V30 310 H 29.328 -0.65863 -3.17541 0
M  V30 311 H 29.113 -2.43032 -3.07698 0
M  V30 312 H 30.603 -1.7466 -3.7932 0
M  V30 313 N 31.0401 0.771051 -1.3745 0
M  V30 314 C 32.2861 1.5319 -1.32894 0
M  V30 315 C 32.6191 1.94008 0.0862511 0
M  V30 316 O 31.8941 1.64124 1.04373 0
M  V30 317 C 32.1771 2.79648 -2.26868 0
M  V30 318 C 32.0301 2.45079 -3.77169 0
M  V30 319 C 33.3491 3.81583 -2.19277 0
M  V30 320 H 30.4681 0.555744 -0.484064 0
M  V30 321 H 33.1101 0.884492 -1.68157 0
M  V30 322 H 31.2601 3.34891 -1.96926 0
M  V30 323 H 32.9321 1.95745 -4.1771 0
M  V30 324 H 31.1751 1.77767 -3.95704 0
M  V30 325 H 31.8461 3.35478 -4.38359 0
M  V30 326 H 34.3221 3.35835 -2.45671 0
M  V30 327 H 33.1981 4.67787 -2.87171 0
M  V30 328 H 33.4591 4.25897 -1.18592 0
M  V30 329 N 32.5182 1.22032 0.997298 0
M  V30 330 C 33.7652 1.04222 1.73621 0
M  V30 331 C 34.0932 -0.423264 1.89839 0
M  V30 332 O 33.3482 -1.3302 1.43542 0
M  V30 333 C 33.6472 1.69345 3.14733 0
M  V30 334 C 33.3132 3.19226 3.18442 0
M  V30 335 C 31.9752 3.60124 3.19161 0
M  V30 336 C 34.3272 4.15181 3.15078 0
M  V30 337 C 31.6552 4.95467 3.14212 0
M  V30 338 C 34.0072 5.50495 3.1167 0
M  V30 339 C 32.6712 5.90779 3.10703 0
M  V30 340 H 31.9412 0.381374 0.635323 0
M  V30 341 H 34.5882 1.51732 1.16831 0
M  V30 342 H 32.8932 1.14147 3.74803 0
M  V30 343 H 34.5902 1.53059 3.7064 0
M  V30 344 H 31.1802 2.86659 3.18629 0
M  V30 345 H 35.3642 3.84605 3.13676 0
M  V30 346 H 30.6202 5.25916 3.11805 0
M  V30 347 H 34.7942 6.24576 3.08022 0
M  V30 348 H 32.4212 6.9562 3.06622 0
M  V30 349 N 33.9963 -1.19345 1.0293 0
M  V30 350 C 35.2433 -1.89038 0.726008 0
M  V30 351 C 35.5713 -1.79649 -0.745427 0
M  V30 352 O 34.8263 -1.18354 -1.55855 0
M  V30 353 C 35.1253 -3.39292 1.12319 0
M  V30 354 C 34.7913 -3.68885 2.59297 0
M  V30 355 C 33.4533 -3.76671 2.99453 0
M  V30 356 C 35.8053 -3.82178 3.54386 0
M  V30 357 C 33.1333 -3.9522 4.33611 0
M  V30 358 C 35.4853 -4.0224 4.88248 0
M  V30 359 C 34.1493 -4.08259 5.28092 0
M  V30 360 H 33.4193 -0.691739 0.265665 0
M  V30 361 H 36.0663 -1.41328 1.29223 0
M  V30 362 H 34.3713 -3.88903 0.475584 0
M  V30 363 H 36.0683 -3.91536 0.866037 0
M  V30 364 H 32.6583 -3.63433 2.27189 0
M  V30 365 H 36.8423 -3.75505 3.24514 0
M  V30 366 H 32.0983 -3.98119 4.64016 0
M  V30 367 H 36.2723 -4.11468 5.61843 0
M  V30 368 H 33.8993 -4.22384 6.32057 0
M  V30 369 N 35.4744 -0.807222 -1.35358 0
M  V30 370 C 36.7514 -0.311126 -1.9311 0
M  V30 371 C 37.1314 1.19937 -1.73719 0
M  V30 372 O 36.4794 1.99918 -1.10657 0
M  V30 373 C 36.6894 -0.723226 -3.41424 0
M  V30 374 C 38.0374 -0.713078 -4.18569 0
M  V30 375 O 39.0614 -0.664811 -3.49941 0
M  V30 376 O 37.9204 -0.772022 -5.41019 0
M  V30 377 H 35.0144 -0.081526 -0.822972 0
M  V30 378 H 37.5604 -0.890962 -1.4443 0
M  V30 379 H 36.3324 -1.76426 -3.4927 0
M  V30 380 H 35.9554 -0.118232 -3.97424 0
M  V30 381 N 36.9525 1.47285 -0.560781 0
M  V30 382 C 37.9155 2.28535 0.174488 0
M  V30 383 C 38.9155 1.37153 0.839388 0
M  V30 384 O 40.1055 1.59748 0.694702 0
M  V30 385 C 37.2375 3.16934 1.25561 0
M  V30 386 H 38.4305 2.95012 -0.539262 0
M  V30 387 H 35.9835 1.53034 -0.317865 0
M  V30 388 H 36.7185 2.55157 2.00164 0
M  V30 389 H 36.5035 3.8419 0.783604 0
M  V30 390 H 37.9935 3.78143 1.77193 0
M  V30 391 N 38.4306 0.297415 1.54768 0
M  V30 392 C 39.7076 -0.365847 1.92148 0
M  V30 393 C 40.0876 -1.71975 1.22424 0
M  V30 394 O 39.4356 -2.25666 0.358739 0
M  V30 395 C 39.6456 -0.484056 3.45627 0
M  V30 396 C 40.9936 -0.756594 4.17805 0
M  V30 397 O 42.0176 -0.568007 3.51642 0
M  V30 398 O 40.8766 -1.11863 5.34929 0
M  V30 399 H 37.9706 -0.203919 0.801465 0
M  V30 400 H 40.5166 0.34521 1.66152 0
M  V30 401 H 39.2886 0.467865 3.88493 0
M  V30 402 H 38.9116 -1.24372 3.77647 0
M  V30 403 N 39.9087 -1.5758 0.0250728 0
M  V30 404 C 41.1857 -1.82917 -0.692873 0
M  V30 405 C 41.5657 -0.908137 -1.90568 0
M  V30 406 O 40.9137 0.0372298 -2.2847 0
M  V30 407 C 41.1237 -3.32034 -1.07492 0
M  V30 408 C 42.4717 -3.98406 -1.46826 0
M  V30 409 O 43.4957 -3.36505 -1.16801 0
M  V30 410 O 42.3547 -5.07497 -2.02754 0
M  V30 411 H 39.4487 -0.754079 -0.33955 0
M  V30 412 H 41.9947 -1.69619 0.0524456 0
M  V30 413 H 40.7667 -3.90728 -0.211552 0
M  V30 414 H 40.3897 -3.50424 -1.87854 0
M  V30 415 N 41.3868 0.248026 -1.55636 0
M  V30 416 C 42.3168 1.31079 -1.93237 0
M  V30 417 C 43.2978 1.50264 -0.797174 0
M  V30 418 O 44.4828 1.62891 -1.05737 0
M  V30 419 C 41.6128 2.66575 -2.22609 0
M  V30 420 C 40.5668 2.62087 -3.3837 0
M  V30 421 C 39.8928 4.01369 -3.53281 0
M  V30 422 C 41.1928 2.19171 -4.7409 0
M  V30 423 H 42.8868 0.998556 -2.82257 0
M  V30 424 H 40.4328 0.47891 -1.35803 0
M  V30 425 H 42.3858 3.41057 -2.47503 0
M  V30 426 H 41.1098 2.99432 -1.30414 0
M  V30 427 H 39.7688 1.90063 -3.13483 0
M  V30 428 H 39.4168 4.31489 -2.58508 0
M  V30 429 H 39.1168 3.99254 -4.31127 0
M  V30 430 H 40.6408 4.77552 -3.80495 0
M  V30 431 H 42.0548 2.83384 -4.98363 0
M  V30 432 H 40.4518 2.2817 -5.5503 0
M  V30 433 H 41.5218 1.14336 -4.71227 0
M  V30 434 N 42.8649 1.48995 0.513639 0
M  V30 435 C 44.2759 1.5119 1.09537 0
M  V30 436 C 44.6269 0.290906 1.94031 0
M  V30 437 O 43.7519 -0.60049 2.07902 0
M  V30 438 C 44.3469 2.73964 1.99322 0
M  V30 439 C 42.9059 2.78978 2.52682 0
M  V30 440 C 42.0529 2.44934 1.30009 0
M  V30 441 H 45.0039 1.55875 0.298125 0
M  V30 442 H 45.0249 2.53409 2.83838 0
M  V30 443 H 44.5369 3.62813 1.37799 0
M  V30 444 H 42.6379 1.94378 3.1788 0
M  V30 445 H 42.7509 3.8083 2.90698 0
M  V30 446 H 41.1149 1.9644 1.62122 0
M  V30 447 H 41.8979 3.36043 0.702131 0
M  V30 448 N 44.343 -0.763751 1.37857 0
M  V30 449 C 45.754 -1.3405 1.29952 0
M  V30 450 C 46.105 -1.96138 -0.0492898 0
M  V30 451 O 45.23 -1.94372 -0.951239 0
M  V30 452 C 45.825 -2.43729 2.35333 0
M  V30 453 C 44.384 -2.97151 2.31037 0
M  V30 454 C 43.531 -1.70438 2.18738 0
M  V30 455 H 46.482 -0.563396 1.48363 0
M  V30 456 H 46.503 -3.23412 2.00462 0
M  V30 457 H 46.015 -1.9851 3.33489 0
M  V30 458 H 44.116 -3.46724 1.3643 0
M  V30 459 H 44.229 -3.52221 3.24772 0
M  V30 460 H 42.593 -1.93673 1.65418 0
M  V30 461 H 43.376 -1.27312 3.18821 0
M  V30 462 N 45.8211 -1.22559 -0.990812 0
M  V30 463 C 46.7841 -0.998863 -2.0629 0
M  V30 464 C 47.7841 0.0354834 -1.60761 0
M  V30 465 O 48.9741 -0.203231 -1.7301 0
M  V30 466 C 46.1061 -0.509203 -3.37076 0
M  V30 467 H 47.2991 -1.95014 -2.27837 0
M  V30 468 H 44.8521 -1.04456 -1.16269 0
M  V30 469 H 45.5871 0.446335 -3.21214 0
M  V30 470 H 45.3721 -1.25547 -3.71457 0
M  V30 471 H 46.8621 -0.370888 -4.1595 0
M  V30 472 N 47.2992 1.18797 -1.03562 0
M  V30 473 C 48.2312 2.21731 -0.580337 0
M  V30 474 C 49.2442 1.59051 0.347349 0
M  V30 475 O 50.4332 1.77929 0.142669 0
M  V30 476 C 47.5332 3.38459 0.172805 0
M  V30 477 C 46.7062 4.3072 -0.761496 0
M  V30 478 C 45.7652 5.26174 -0.0525547 0
M  V30 479 O 44.7912 5.65108 -0.681333 0
M  V30 480 N 45.9932 5.67624 1.21586 0
M  V30 481 H 48.7582 2.61417 -1.46565 0
M  V30 482 H 46.3192 1.33531 -0.915476 0
M  V30 483 H 48.3112 3.99335 0.656793 0
M  V30 484 H 46.8812 2.97507 0.959602 0
M  V30 485 H 46.1012 3.67525 -1.42544 0
M  V30 486 H 47.3892 4.89267 -1.39626 0
M  V30 487 H 46.7872 5.38038 1.74732 0
M  V30 488 H 45.3442 6.30721 1.64421 0
M  V30 489 N 48.7773 0.814389 1.34928 0
M  V30 490 C 49.7103 0.175641 2.27523 0
M  V30 491 C 50.6883 -0.662953 1.48471 0
M  V30 492 O 51.8723 -0.628545 1.77712 0
M  V30 493 C 48.9993 -0.755516 3.30166 0
M  V30 494 C 48.0453 0.00445305 4.265 0
M  V30 495 S 48.8783 1.34582 5.18313 0
M  V30 496 C 50.0343 0.419315 6.24494 0
M  V30 497 H 50.2673 0.960691 2.8135 0
M  V30 498 H 47.8003 0.609846 1.41846 0
M  V30 499 H 49.7583 -1.28723 3.89796 0
M  V30 500 H 48.4193 -1.51402 2.75202 0
M  V30 501 H 47.6123 -0.703077 4.99072 0
M  V30 502 H 47.2143 0.466447 3.7108 0
M  V30 503 H 49.5063 -0.392432 6.76362 0
M  V30 504 H 50.4493 1.11446 6.99275 0
M  V30 505 H 50.8573 0.0115389 5.64499 0
M  V30 506 N 50.2554 -1.46986 0.568584 0
M  V30 507 C 51.1874 -2.28233 -0.210337 0
M  V30 508 C 52.2004 -1.37682 -0.868767 0
M  V30 509 O 53.3894 -1.62406 -0.740705 0
M  V30 510 C 50.4894 -3.12293 -1.3163 0
M  V30 511 C 49.6624 -4.30878 -0.7525 0
M  V30 512 C 48.7214 -4.96445 -1.74439 0
M  V30 513 O 47.7474 -5.54482 -1.286 0
M  V30 514 N 48.9494 -4.92171 -3.07812 0
M  V30 515 H 51.7144 -2.95723 0.486648 0
M  V30 516 H 49.2754 -1.56742 0.405409 0
M  V30 517 H 51.2674 -3.53022 -1.97883 0
M  V30 518 H 49.8374 -2.46971 -1.91636 0
M  V30 519 H 49.0574 -3.94104 0.0871128 0
M  V30 520 H 50.3454 -5.07558 -0.35536 0
M  V30 521 H 49.7434 -4.46239 -3.47688 0
M  V30 522 H 48.3004 -5.36884 -3.69592 0
M  V30 523 N 51.7335 -0.305618 -1.54608 0
M  V30 524 C 53.1495 0.0476228 -1.59529 0
M  V30 525 C 53.3495 1.52025 -1.32252 0
M  V30 526 O 52.4055 2.27368 -1.09818 0
M  V30 527 C 53.7185 -0.354471 -2.98603 0
M  V30 528 C 55.2665 -0.303622 -3.11524 0
M  V30 529 C 55.7415 -0.680608 -4.52915 0
M  V30 530 N 57.2325 -0.63332 -4.5885 0
M  V30 531 C 57.9675 -0.897432 -5.66334 0
M  V30 532 N 57.4635 -1.22775 -6.81834 0
M  V30 533 N 59.2565 -0.824186 -5.56025 0
M  V30 534 H 51.4075 -1.2653 -1.70599 0
M  V30 535 H 53.6705 -0.513291 -0.797017 0
M  V30 536 H 53.3765 -1.3798 -3.23503 0
M  V30 537 H 53.2505 0.289568 -3.76087 0
M  V30 538 H 55.6375 0.712472 -2.8637 0
M  V30 539 H 55.7185 -0.982348 -2.36185 0
M  V30 540 H 55.3625 -1.69453 -4.78799 0
M  V30 541 H 55.2925 0.0202385 -5.26596 0
M  V30 542 H 57.7835 -0.389138 -3.75891 0
M  V30 543 H 58.0965 -1.41513 -7.59733 0
M  V30 544 H 56.4415 -1.26583 -6.83375 0
M  V30 545 H 59.6325 -0.565748 -4.64669 0
M  V30 546 H 59.8055 -1.03338 -6.39707 0
M  V30 547 N 53.2116 1.57565 -0.0334293 0
M  V30 548 C 54.4606 1.91155 0.643639 0
M  V30 549 C 54.7736 0.91192 1.73042 0
M  V30 550 O 55.9796 1.13923 2.46442 0
M  V30 551 C 54.4356 3.39443 1.1961 0
M  V30 552 C 54.0436 4.47774 0.142381 0
M  V30 553 C 55.7876 3.82094 1.84944 0
M  V30 554 C 53.6946 5.87162 0.706727 0
M  V30 555 H 52.6246 0.713368 0.244176 0
M  V30 556 H 55.2756 1.8323 -0.0994323 0
M  V30 557 H 53.6576 3.42313 1.99092 0
M  V30 558 H 54.8316 4.56469 -0.630296 0
M  V30 559 H 53.1466 4.14352 -0.412446 0
M  V30 560 H 55.7436 4.83591 2.2813 0
M  V30 561 H 56.0866 3.17386 2.69392 0
M  V30 562 H 56.6196 3.81665 1.12145 0
M  V30 563 H 53.3586 6.55424 -0.0997178 0
M  V30 564 H 52.8786 5.82064 1.44779 0
M  V30 565 H 54.5576 6.35866 1.19514 0
M  V30 566 N 54.6897 -0.239769 1.55765 0
M  V30 567 C 55.6527 -1.28038 1.90103 0
M  V30 568 C 56.6527 -1.40723 0.778055 0
M  V30 569 O 57.8427 -1.39301 1.04599 0
M  V30 570 C 54.9747 -2.65702 2.13577 0
M  V30 571 H 56.1677 -0.988048 2.83157 0
M  V30 572 H 53.7207 -0.479382 1.48767 0
M  V30 573 H 54.4557 -3.00063 1.23015 0
M  V30 574 H 54.2407 -2.57875 2.95369 0
M  V30 575 H 55.7307 -3.40828 2.41301 0
M  V30 576 N 56.1678 -1.49265 -0.50573 0
M  V30 577 C 57.5838 -1.35923 -0.836486 0
M  V30 578 C 57.7838 -0.388704 -1.97715 0
M  V30 579 O 56.8398 0.181336 -2.51848 0
M  V30 580 C 58.1528 -2.76531 -1.18115 0
M  V30 581 C 59.7008 -2.85197 -1.28964 0
M  V30 582 C 60.1758 -4.26561 -1.66761 0
M  V30 583 N 61.6668 -4.2935 -1.73819 0
M  V30 584 C 62.4018 -5.35693 -2.045 0
M  V30 585 N 61.8978 -6.52287 -2.33438 0
M  V30 586 N 63.6908 -5.23105 -2.05711 0
M  V30 587 H 55.8418 -2.10965 0.246519 0
M  V30 588 H 58.1048 -0.9468 0.0476887 0
M  V30 589 H 57.8108 -3.49226 -0.416398 0
M  V30 590 H 57.6848 -3.11599 -2.1257 0
M  V30 591 H 60.0718 -2.12742 -2.04511 0
M  V30 592 H 60.1528 -2.53718 -0.325704 0
M  V30 593 H 59.7968 -4.99541 -0.917656 0
M  V30 594 H 59.7268 -4.55502 -2.64246 0
M  V30 595 H 62.2178 -3.4526 -1.53635 0
M  V30 596 H 62.5308 -7.29158 -2.56024 0
M  V30 597 H 60.8758 -6.55521 -2.30905 0
M  V30 598 H 64.0668 -4.31026 -1.82577 0
M  V30 599 H 64.2398 -6.06078 -2.29289 0
M  V30 600 N 57.6459 0.756429 -1.3826 0
M  V30 601 C 58.5559 1.9009 -1.37488 0
M  V30 602 C 59.5719 1.71855 -0.272366 0
M  V30 603 O 60.7479 1.94827 -0.510318 0
M  V30 604 C 57.8129 3.25421 -1.19592 0
M  V30 605 C 56.8739 3.56202 -2.39622 0
M  V30 606 C 56.1069 4.85075 -2.2257 0
M  V30 607 O 56.3299 5.57246 -1.21793 0
M  V30 608 O 55.2639 5.15269 -3.11098 0
M  V30 609 H 59.0899 1.93695 -2.33914 0
M  V30 610 H 56.6749 0.901313 -1.1915 0
M  V30 611 H 58.5569 4.06337 -1.11661 0
M  V30 612 H 57.2319 3.22634 -0.262486 0
M  V30 613 H 56.1389 2.75458 -2.53128 0
M  V30 614 H 57.4719 3.63747 -3.31586 0
M  V30 615 N 59.124 1.23083 0.984299 0
M  V30 616 C 60.057 0.951786 2.07404 0
M  V30 617 C 61.035 -0.10848 1.62238 0
M  V30 618 O 62.219 0.0249467 1.88483 0
M  V30 619 C 59.346 0.433142 3.35919 0
M  V30 620 C 58.392 1.47941 4.0002 0
M  V30 621 S 59.225 3.05556 4.39768 0
M  V30 622 C 60.381 2.55351 5.71442 0
M  V30 623 H 60.614 1.87456 2.30754 0
M  V30 624 H 58.147 1.06284 1.11996 0
M  V30 625 H 60.105 0.140506 4.10259 0
M  V30 626 H 58.766 -0.468656 3.10584 0
M  V30 627 H 57.959 1.06658 4.92585 0
M  V30 628 H 57.561 1.7212 3.3204 0
M  V30 629 H 59.853 1.97128 6.48187 0
M  V30 630 H 60.796 3.46441 6.17563 0
M  V30 631 H 61.204 1.96339 5.29255 0
M  V30 632 N 60.6021 -1.18246 1.0419 0
M  V30 633 C 61.5501 -2.23968 0.627792 0
M  V30 634 C 62.5441 -1.65828 -0.346019 0
M  V30 635 O 63.7501 -1.78733 -0.213175 0
M  V30 636 H 60.1251 -0.728939 0.184802 0
M  V30 637 H 62.0961 -2.56202 1.52981 0
M  V30 638 C 60.8451 -3.47699 0.00796591 0
M  V30 639 H 60.1681 -3.92734 0.748347 0
M  V30 640 H 61.6081 -4.23294 -0.24455 0
M  V30 641 C 60.0671 -3.13153 -1.24246 0
M  V30 642 O 60.5971 -3.27003 -2.33307 0
M  V30 643 N 58.8031 -2.67467 -1.13622 0
M  V30 644 H 58.3501 -2.56396 -0.248734 0
M  V30 645 H 58.3081 -2.44724 -1.97377 0
M  V30 646 N 62.0802 -0.821533 -1.34494 0
M  V30 647 C 63.0102 -0.257138 -2.3208 0
M  V30 648 C 63.9912 0.625645 -1.58176 0
M  V30 649 O 65.1762 0.552811 -1.86166 0
M  V30 650 C 62.3062 0.582958 -3.42372 0
M  V30 651 C 61.2602 -0.202571 -4.2752 0
M  V30 652 C 60.5862 0.760179 -5.29269 0
M  V30 653 C 61.8862 -1.40998 -5.02908 0
M  V30 654 H 63.5802 -1.07247 -2.79532 0
M  V30 655 H 61.1262 -0.517163 -1.34393 0
M  V30 656 H 63.0792 0.987972 -4.09655 0
M  V30 657 H 61.8032 1.43133 -2.93565 0
M  V30 658 H 60.4622 -0.588936 -3.61838 0
M  V30 659 H 60.1102 1.60447 -4.76724 0
M  V30 660 H 59.8102 0.238809 -5.87115 0
M  V30 661 H 61.3342 1.16308 -5.9942 0
M  V30 662 H 62.7482 -1.07905 -5.63054 0
M  V30 663 H 61.1452 -1.86689 -5.70322 0
M  V30 664 H 62.2152 -2.1889 -4.32684 0
M  V30 665 N 63.5583 1.46682 -0.576371 0
M  V30 666 C 64.7833 2.07304 -0.0630475 0
M  V30 667 C 65.2083 1.42329 1.2298 0
M  V30 668 O 64.5663 0.504865 1.74129 0
M  V30 669 C 64.6143 3.60472 0.095895 0
M  V30 670 O 63.7183 3.95927 1.15394 0
M  V30 671 H 63.0593 0.661288 -0.0599463 0
M  V30 672 H 65.5893 1.88417 -0.797511 0
M  V30 673 H 65.5993 4.06865 0.304071 0
M  V30 674 H 64.2743 4.07157 -0.84828 0
M  V30 675 H 62.8513 3.61252 0.924724 0
M  V30 676 N 65.0364 0.313813 1.54444 0
M  V30 677 C 65.9464 -0.565714 2.27677 0
M  V30 678 C 66.9624 -1.13754 1.31666 0
M  V30 679 O 68.1384 -1.15959 1.64668 0
M  V30 680 C 65.2034 -1.71528 3.01296 0
M  V30 681 C 64.2644 -1.17624 4.12872 0
M  V30 682 C 63.4974 -2.27102 4.8297 0
M  V30 683 O 63.7204 -3.47256 4.52514 0
M  V30 684 O 62.6544 -1.9307 5.70094 0
M  V30 685 H 66.4804 0.0287296 3.03686 0
M  V30 686 H 64.0654 0.0798312 1.49187 0
M  V30 687 H 65.9474 -2.38476 3.4743 0
M  V30 688 H 64.6224 -2.29608 2.2817 0
M  V30 689 H 63.5294 -0.472124 3.71109 0
M  V30 690 H 64.8624 -0.640695 4.88012 0
M  V30 691 N 66.5145 -1.57545 0.0417849 0
M  V30 692 C 67.7395 -1.97035 -0.647455 0
M  V30 693 C 68.1645 -0.918775 -1.64135 0
M  V30 694 O 67.5225 0.119006 -1.80909 0
M  V30 695 C 67.5705 -3.35609 -1.31905 0
M  V30 696 O 66.6745 -3.3287 -2.43457 0
M  V30 697 H 66.0155 -0.64211 -0.169086 0
M  V30 698 H 68.5455 -2.04318 0.107399 0
M  V30 699 H 68.5555 -3.72126 -1.67291 0
M  V30 700 H 67.2305 -4.11685 -0.590586 0
M  V30 701 H 65.8075 -3.08087 -2.10088 0
M  V30 702 N 67.9926 0.231505 -1.5589 0
M  V30 703 C 69.2206 0.974505 -1.82513 0
M  V30 704 C 69.6356 1.78344 -0.619591 0
M  V30 705 O 68.9926 1.77792 0.411848 0
M  V30 706 C 69.0436 1.90007 -3.07538 0
M  V30 707 O 68.7646 1.12385 -4.2344 0
M  V30 708 C 70.2656 2.75779 -3.47075 0
M  V30 709 H 67.4856 0.286065 -0.606966 0
M  V30 710 H 70.0296 0.249739 -2.02969 0
M  V30 711 H 68.1846 2.57891 -2.89086 0
M  V30 712 H 68.5986 1.75125 -4.944 0
M  V30 713 H 70.0726 3.36443 -4.37619 0
M  V30 714 H 70.5496 3.47672 -2.68367 0
M  V30 715 H 71.1556 2.13323 -3.67931 0
M  V30 716 N 69.4707 1.49531 0.497807 0
M  V30 717 C 70.7177 1.59179 1.25173 0
M  V30 718 C 71.0457 0.279932 1.92475 0
M  V30 719 O 70.3007 -0.732383 1.81479 0
M  V30 720 C 70.5997 2.70252 2.33878 0
M  V30 721 C 70.2657 4.11644 1.84012 0
M  V30 722 C 68.9277 4.50121 1.70132 0
M  V30 723 C 71.2797 5.00121 1.46725 0
M  V30 724 C 68.6077 5.74845 1.17348 0
M  V30 725 C 70.9597 6.25366 0.95392 0
M  V30 726 C 69.6237 6.6267 0.801538 0
M  V30 727 H 68.8937 0.582478 0.45804 0
M  V30 728 H 71.5407 1.83373 0.551948 0
M  V30 729 H 69.8457 2.40041 3.09657 0
M  V30 730 H 71.5427 2.74925 2.9192 0
M  V30 731 H 68.1327 3.81274 1.95775 0
M  V30 732 H 72.3167 4.71048 1.56294 0
M  V30 733 H 67.5727 6.02444 1.04264 0
M  V30 734 H 71.7467 6.93301 0.656225 0
M  V30 735 H 69.3737 7.59197 0.390351 0
M  V30 736 N 70.9488 -0.749086 1.3866 0
M  V30 737 C 72.1948 -1.51056 1.35314 0
M  V30 738 C 72.5278 -1.94121 -0.0553751 0
M  V30 739 O 71.8028 -1.65763 -1.01749 0
M  V30 740 C 72.0858 -2.76003 2.31288 0
M  V30 741 C 71.9388 -2.39047 3.8102 0
M  V30 742 C 73.2578 -3.78046 2.2532 0
M  V30 743 H 70.3768 -0.547972 0.492844 0
M  V30 744 H 73.0188 -0.857628 1.69543 0
M  V30 745 H 71.1688 -3.31716 2.02229 0
M  V30 746 H 72.8408 -1.89074 4.20771 0
M  V30 747 H 71.0838 -1.71449 3.98482 0
M  V30 748 H 71.7548 -3.28462 4.4364 0
M  V30 749 H 74.2308 -3.31884 2.50983 0
M  V30 750 H 73.1068 -4.63159 2.94576 0
M  V30 751 H 73.3678 -4.23957 1.25352 0
M  V30 752 N 72.4269 -1.23603 -0.977757 0
M  V30 753 C 73.3569 -1.04401 -2.0886 0
M  V30 754 C 74.3379 0.0399052 -1.70053 0
M  V30 755 O 75.5229 -0.125246 -1.93796 0
M  V30 756 C 72.6529 -0.637269 -3.41403 0
M  V30 757 C 71.6069 -1.66883 -3.94124 0
M  V30 758 C 70.9329 -1.11745 -5.22893 0
M  V30 759 C 72.2329 -3.06247 -4.23096 0
M  V30 760 H 73.9269 -1.97316 -2.25182 0
M  V30 761 H 71.4729 -0.950096 -1.08209 0
M  V30 762 H 73.4259 -0.48998 -4.18542 0
M  V30 763 H 72.1499 0.327557 -3.24953 0
M  V30 764 H 70.8089 -1.80416 -3.19133 0
M  V30 765 H 70.4569 -0.143527 -5.02795 0
M  V30 766 H 70.1569 -1.80672 -5.59134 0
M  V30 767 H 71.6809 -0.982067 -6.02651 0
M  V30 768 H 73.0949 -2.96001 -4.90975 0
M  V30 769 H 71.4919 -3.72436 -4.70544 0
M  V30 770 H 72.5619 -3.55041 -3.30263 0
M  V30 771 N 73.905 1.17692 -1.04816 0
M  V30 772 C 74.852 2.21581 -0.645797 0
M  V30 773 C 75.822 1.62367 0.350159 0
M  V30 774 O 77.007 1.89254 0.242433 0
M  V30 775 C 74.147 3.45092 -0.0227568 0
M  V30 776 C 73.26 4.18613 -1.06709 0
M  V30 777 C 72.395 5.29602 -0.411767 0
M  V30 778 C 71.434 5.94904 -1.44067 0
M  V30 779 N 70.571 6.97414 -0.809781 0
M  V30 780 H 75.411 2.55353 -1.5362 0
M  V30 781 H 72.948 1.25438 -0.768364 0
M  V30 782 H 74.906 4.15679 0.35588 0
M  V30 783 H 73.536 3.11917 0.831122 0
M  V30 784 H 72.588 3.46779 -1.5636 0
M  V30 785 H 73.9 4.63293 -1.84827 0
M  V30 786 H 73.054 6.06696 0.0206623 0
M  V30 787 H 71.793 4.86045 0.401438 0
M  V30 788 H 70.798 5.16544 -1.88316 0
M  V30 789 H 72.023 6.40542 -2.25571 0
M  V30 790 H 69.969 6.55998 -0.0170186 0
M  V30 791 H 69.886 7.40386 -1.52856 0
M  V30 792 H 71.154 7.78463 -0.401999 0
M  V30 793 N 75.3831 0.828654 1.34056 0
M  V30 794 C 76.7941 0.477534 1.8049 0
M  V30 795 C 77.1451 -1.00258 1.6865 0
M  V30 796 O 76.2701 -1.78057 1.22982 0
M  V30 797 C 76.8651 0.860018 3.27703 0
M  V30 798 C 75.4241 0.561185 3.72193 0
M  V30 799 C 74.5711 1.07385 2.55663 0
M  V30 800 H 77.5221 1.0183 1.21722 0
M  V30 801 H 77.5431 0.166038 3.80138 0
M  V30 802 H 77.0551 1.93731 3.36288 0
M  V30 803 H 75.1561 -0.506465 3.69142 0
M  V30 804 H 75.2691 1.10926 4.66082 0
M  V30 805 H 73.6331 0.495149 2.49841 0
M  V30 806 H 74.4161 2.15771 2.67016 0
M  V30 807 N 76.8612 -1.46375 0.584142 0
M  V30 808 C 78.2772 -1.57694 0.245929 0
M  V30 809 C 78.4772 -1.57903 -1.25175 0
M  V30 810 O 77.5332 -1.49676 -2.03355 0
M  V30 811 C 78.8462 -2.87028 0.896402 0
M  V30 812 C 80.3942 -3.00662 0.870127 0
M  V30 813 C 80.8692 -4.32734 1.50017 0
M  V30 814 N 82.3602 -4.39436 1.46458 0
M  V30 815 C 83.0952 -5.40248 1.92144 0
M  V30 816 N 82.5912 -6.47726 2.4581 0
M  V30 817 N 84.3842 -5.31459 1.83052 0
M  V30 818 H 76.5352 -1.44483 1.55687 0
M  V30 819 H 78.7982 -0.689291 0.650831 0
M  V30 820 H 78.5042 -2.9269 1.95002 0
M  V30 821 H 78.3782 -3.75014 0.405486 0
M  V30 822 H 80.7652 -2.94581 -0.174871 0
M  V30 823 H 80.8462 -2.14148 1.39908 0
M  V30 824 H 80.4902 -4.39573 2.54437 0
M  V30 825 H 80.4202 -5.18025 0.946432 0
M  V30 826 H 82.9112 -3.62367 1.07231 0
M  V30 827 H 83.2242 -7.20863 2.78525 0
M  V30 828 H 81.5692 -6.48542 2.49836 0
M  V30 829 H 84.7602 -4.46396 1.40883 0
M  V30 830 H 84.9332 -6.09881 2.18973 0
M  V30 831 N 78.3393 -0.321999 -1.54275 0
M  V30 832 C 79.2873 0.560206 -2.25753 0
M  V30 833 C 80.2813 1.11984 -1.27106 0
M  V30 834 O 81.4873 1.06806 -1.44888 0
M  V30 835 H 77.8623 0.199304 -0.725108 0
M  V30 836 H 79.8333 -0.0649365 -2.98329 0
M  V30 837 C 78.5823 1.71023 -3.02731 0
M  V30 838 H 77.9053 1.28885 -3.78456 0
M  V30 839 H 79.3453 2.30314 -3.55993 0
M  V30 840 C 77.8043 2.62692 -2.10938 0
M  V30 841 O 78.3343 3.64364 -1.6912 0
M  V30 842 N 76.5403 2.30891 -1.76459 0
M  V30 843 H 76.0873 1.48253 -2.10663 0
M  V30 844 H 76.0453 2.92487 -1.1532 0
M  V30 845 N 79.8174 1.5752 -0.0501392 0
M  V30 846 C 81.0654 1.9227 0.622642 0
M  V30 847 C 81.3864 0.929083 1.71444 0
M  V30 848 O 80.6564 -0.0262186 1.95882 0
M  V30 849 H 79.2364 0.709739 0.232981 0
M  V30 850 H 81.8984 1.94628 -0.102898 0
M  V30 851 H 80.9944 2.93479 1.06191 0
M  V30 852 N 81.2955 -0.223234 1.56011 0
M  V30 853 C 82.5435 -0.946003 1.78592 0
M  V30 854 C 82.8645 -1.84936 0.618349 0
M  V30 855 O 82.1345 -1.92473 -0.364833 0
M  V30 856 H 80.7145 -0.352298 0.658707 0
M  V30 857 H 83.3765 -0.235494 1.93472 0
M  V30 858 H 82.4725 -1.55381 2.70672 0
M  V30 859 N 82.7736 -1.49793 -0.48987 0
M  V30 860 C 84.0506 -1.50348 -1.25119 0
M  V30 861 C 84.4306 -0.237466 -2.0976 0
M  V30 862 O 83.7786 0.77981 -2.14782 0
M  V30 863 C 83.9886 -2.78872 -2.09837 0
M  V30 864 C 85.3366 -3.288 -2.68655 0
M  V30 865 O 86.3606 -2.80065 -2.20096 0
M  V30 866 O 85.2196 -4.13707 -3.57083 0
M  V30 867 H 82.3136 -0.602242 -0.566775 0
M  V30 868 H 84.8596 -1.62067 -0.503229 0
M  V30 869 H 83.6316 -3.62499 -1.47343 0
M  V30 870 H 83.2546 -2.70066 -2.91805 0
M  V30 871 N 84.2517 0.741722 -1.39055 0
M  V30 872 C 85.2147 1.83733 -1.37021 0
M  V30 873 C 86.2147 1.58542 -0.268534 0
M  V30 874 O 87.4047 1.66067 -0.526076 0
M  V30 875 C 84.5367 3.2141 -1.13617 0
M  V30 876 H 85.7297 1.86941 -2.34506 0
M  V30 877 H 83.2827 0.944676 -1.24521 0
M  V30 878 H 84.0177 3.23865 -0.167863 0
M  V30 879 H 83.8027 3.4109 -1.93391 0
M  V30 880 H 85.2927 4.01477 -1.14918 0
M  V30 881 N 85.7298 1.2412 0.971189 0
M  V30 882 C 86.6598 1.05508 2.08304 0
M  V30 883 C 87.6408 -0.0308864 1.70072 0
M  V30 884 O 88.8258 0.135521 1.93727 0
M  V30 885 C 85.9558 0.655365 3.4106 0
M  V30 886 C 84.9098 1.68971 3.93234 0
M  V30 887 C 84.2358 1.14516 5.22293 0
M  V30 888 C 85.5358 3.08487 4.21465 0
M  V30 889 H 87.2298 1.98507 2.24132 0
M  V30 890 H 84.7758 0.955821 1.07704 0
M  V30 891 H 86.7288 0.51217 4.18276 0
M  V30 892 H 85.4528 -0.31032 3.25122 0
M  V30 893 H 84.1118 1.82106 3.18171 0
M  V30 894 H 83.7598 0.170189 5.02712 0
M  V30 895 H 83.4598 1.83635 5.58168 0
M  V30 896 H 84.9838 1.01401 6.02121 0
M  V30 897 H 86.3978 2.98601 4.89398 0
M  V30 898 H 84.7948 3.74926 4.68562 0
M  V30 899 H 85.8648 3.56787 3.28376 0
M  V30 900 N 87.2079 -1.17134 1.05439 0
M  V30 901 C 88.4569 -1.86791 0.761049 0
M  V30 902 C 88.7699 -1.82072 -0.714795 0
M  V30 903 O 89.9759 -2.47223 -1.12218 0
M  V30 904 C 88.4319 -3.35166 1.31117 0
M  V30 905 C 88.0399 -3.48381 2.81664 0
M  V30 906 C 89.7839 -4.10134 1.09499 0
M  V30 907 C 87.6909 -4.90793 3.29964 0
M  V30 908 H 86.6209 -0.699681 0.281002 0
M  V30 909 H 89.2719 -1.3226 1.27199 0
M  V30 910 H 87.6539 -3.8925 0.72803 0
M  V30 911 H 88.8279 -3.04502 3.45855 0
M  V30 912 H 87.1429 -2.86836 3.01851 0
M  V30 913 H 89.7399 -5.152 1.43084 0
M  V30 914 H 90.0829 -4.16287 0.0328772 0
M  V30 915 H 90.6159 -3.62264 1.64346 0
M  V30 916 H 87.3549 -4.89816 4.35616 0
M  V30 917 H 86.8749 -5.35333 2.70516 0
M  V30 918 H 88.5539 -5.59573 3.24787 0
M  V30 919 N 88.686 -0.835752 -1.33615 0
M  V30 920 C 90.102 -0.523139 -1.50783 0
M  V30 921 C 90.302 0.950171 -1.77691 0
M  V30 922 O 89.358 1.73411 -1.83534 0
M  V30 923 C 90.671 -1.39378 -2.66448 0
M  V30 924 C 92.219 -1.39223 -2.80332 0
M  V30 925 C 92.694 -2.24765 -3.99055 0
M  V30 926 N 94.185 -2.22458 -4.06284 0
M  V30 927 C 94.92 -2.85386 -4.97336 0
M  V30 928 N 94.416 -3.57354 -5.93523 0
M  V30 929 N 96.209 -2.74872 -4.90308 0
M  V30 930 H 88.36 -1.78952 -1.14411 0
M  V30 931 H 90.623 -0.763297 -0.562212 0
M  V30 932 H 90.329 -2.44061 -2.53234 0
M  V30 933 H 90.203 -1.0676 -3.61776 0
M  V30 934 H 92.59 -0.353136 -2.92979 0
M  V30 935 H 92.671 -1.75846 -1.85773 0
M  V30 936 H 92.315 -3.28732 -3.87167 0
M  V30 937 H 92.245 -1.85485 -4.92852 0
M  V30 938 H 94.736 -1.70119 -3.37443 0
M  V30 939 H 95.049 -4.02584 -6.59656 0
M  V30 940 H 93.394 -3.61461 -5.93608 0
M  V30 941 H 96.585 -2.18213 -4.14126 0
M  V30 942 H 96.758 -3.24199 -5.61069 0
M  V30 943 N 90.1641 1.46063 -0.591896 0
M  V30 944 C 91.4131 2.01547 -0.0786637 0
M  V30 945 C 91.7261 1.46796 1.29268 0
M  V30 946 O 92.9321 1.94157 1.89777 0
M  V30 947 C 91.3881 3.59787 -0.0900024 0
M  V30 948 C 90.9961 4.23534 -1.46023 0
M  V30 949 C 92.7401 4.22895 0.368806 0
M  V30 950 C 90.6471 5.73881 -1.4288 0
M  V30 951 H 89.5771 0.753564 -0.0256388 0
M  V30 952 H 92.2281 1.677 -0.744905 0
M  V30 953 H 90.6101 3.90752 0.642586 0
M  V30 954 H 91.7841 4.04167 -2.21328 0
M  V30 955 H 90.0991 3.72558 -1.85982 0
M  V30 956 H 92.6961 5.33116 0.411258 0
M  V30 957 H 93.0391 3.9247 1.38827 0
M  V30 958 H 93.5721 3.9659 -0.31001 0
M  V30 959 H 90.3111 6.0898 -2.42536 0
M  V30 960 H 89.8311 5.95486 -0.718095 0
M  V30 961 H 91.5101 6.36776 -1.14565 0
M  V30 962 N 91.6422 0.330177 1.54103 0
M  V30 963 C 92.8892 -0.270405 2.00686 0
M  V30 964 C 93.2172 -1.51621 1.21825 0
M  V30 965 O 92.4722 -1.93536 0.29025 0
M  V30 966 C 92.7712 -0.643134 3.51566 0
M  V30 967 C 92.4372 0.504251 4.48072 0
M  V30 968 C 91.0992 0.819163 4.74176 0
M  V30 969 C 93.4512 1.27465 5.05373 0
M  V30 970 C 90.7792 1.90708 5.5484 0
M  V30 971 C 93.1312 2.35271 5.87223 0
M  V30 972 C 91.7952 2.67336 6.11627 0
M  V30 973 H 91.0652 -0.0989482 0.734364 0
M  V30 974 H 93.7122 0.455324 1.86008 0
M  V30 975 H 92.0172 -1.44938 3.64006 0
M  V30 976 H 93.7142 -1.11949 3.85056 0
M  V30 977 H 90.3042 0.248733 4.27878 0
M  V30 978 H 94.4882 1.04462 4.85182 0
M  V30 979 H 89.7442 2.15991 5.71977 0
M  V30 980 H 93.9182 2.95405 6.30641 0
M  V30 981 H 91.5452 3.51763 6.73919 0
M  V30 982 N 93.1203 -1.57491 0.0584922 0
M  V30 983 C 94.3483 -1.97296 -0.623037 0
M  V30 984 C 94.7633 -0.936338 -1.63946 0
M  V30 985 O 94.1203 0.0785981 -1.82331 0
M  V30 986 C 94.1713 -3.37183 -1.30345 0
M  V30 987 O 93.8923 -4.36872 -0.32773 0
M  V30 988 C 95.3933 -3.91788 -2.07406 0
M  V30 989 H 92.6133 -0.649153 -0.169826 0
M  V30 990 H 95.1573 -2.04106 0.12696 0
M  V30 991 H 93.3123 -3.31502 -2.00463 0
M  V30 992 H 93.7263 -5.18141 -0.814269 0
M  V30 993 H 95.2003 -4.91926 -2.50425 0
M  V30 994 H 95.6773 -3.27609 -2.92521 0
M  V30 995 H 96.2833 -4.00829 -1.42184 0
M  V30 996 N 94.5984 0.214957 -1.56127 0
M  V30 997 C 96.0094 0.781386 -1.69562 0
M  V30 998 C 96.3604 1.84707 -0.66165 0
M  V30 999 O 95.4854 2.156 0.185927 0
M  V30 1000 C 96.0804 1.42411 -3.07416 0
M  V30 1001 C 94.6394 1.93786 -3.22683 0
M  V30 1002 C 93.7864 0.800438 -2.65496 0
M  V30 1003 H 96.7374 -0.00980633 -1.58697 0
M  V30 1004 H 96.7584 2.29309 -3.0364 0
M  V30 1005 H 96.2704 0.64826 -3.82648 0
M  V30 1006 H 94.3714 2.74152 -2.52332 0
M  V30 1007 H 94.4844 2.1133 -4.29973 0
M  V30 1008 H 92.8484 1.2095 -2.2415 0
M  V30 1009 H 93.6314 0.0371471 -3.4328 0
M  V30 1010 N 96.0765 1.50051 0.48192 0
M  V30 1011 C 97.3225 1.60736 1.2366 0
M  V30 1012 C 97.6555 0.301786 1.91841 0
M  V30 1013 O 96.9305 -0.696025 1.8162 0
M  V30 1014 C 97.2135 2.78009 2.28874 0
M  V30 1015 C 97.0665 4.18416 1.65069 0
M  V30 1016 C 98.3855 2.90867 3.30279 0
M  V30 1017 H 95.5045 0.585031 0.448228 0
M  V30 1018 H 98.1465 1.82402 0.531946 0
M  V30 1019 H 96.2965 2.59667 2.88973 0
M  V30 1020 H 97.9685 4.48322 1.0865 0
M  V30 1021 H 96.2115 4.23177 0.954148 0
M  V30 1022 H 96.8825 4.96381 2.41474 0
M  V30 1023 H 99.3585 3.07623 2.80191 0
M  V30 1024 H 98.2345 3.74566 4.01238 0
M  V30 1025 H 98.4955 2.01021 3.93755 0
M  V30 1026 N 97.5546 -0.734337 1.39446 0
M  V30 1027 C 98.5026 -1.86971 1.38364 0
M  V30 1028 C 99.4966 -1.67288 0.266687 0
M  V30 1029 O 100.703 -1.74621 0.436755 0
M  V30 1030 H 97.0776 -0.615474 0.432082 0
M  V30 1031 H 99.0486 -1.85 2.34132 0
M  V30 1032 C 97.7976 -3.2466 1.24465 0
M  V30 1033 H 97.1206 -3.40402 2.09682 0
M  V30 1034 H 98.5606 -4.04292 1.27764 0
M  V30 1035 C 97.0196 -3.36867 -0.0468674 0
M  V30 1036 O 97.5496 -3.88618 -1.01681 0
M  V30 1037 N 95.7556 -2.90391 -0.110145 0
M  V30 1038 H 95.3026 -2.48466 0.679868 0
M  V30 1039 H 95.2606 -2.98939 -0.973799 0
M  V30 1040 N 99.0327 -1.24633 -0.964593 0
M  V30 1041 C 99.9427 -1.05859 -2.09359 0
M  V30 1042 C 100.959 0.00148855 -1.74 0
M  V30 1043 O 102.135 -0.197346 -2.00431 0
M  V30 1044 C 99.1997 -0.668879 -3.40187 0
M  V30 1045 C 98.2607 -1.80578 -3.89474 0
M  V30 1046 C 97.4937 -1.43457 -5.14058 0
M  V30 1047 O 97.7167 -0.325775 -5.69469 0
M  V30 1048 O 96.6507 -2.2613 -5.57807 0
M  V30 1049 H 100.477 -2.00516 -2.28094 0
M  V30 1050 H 98.0617 -1.03481 -1.0776 0
M  V30 1051 H 99.9437 -0.463211 -4.18846 0
M  V30 1052 H 98.6187 0.248536 -3.22744 0
M  V30 1053 H 97.5257 -2.06623 -3.11862 0
M  V30 1054 H 98.8587 -2.70208 -4.11398 0
M  V30 1055 N 100.511 1.16574 -1.06058 0
M  V30 1056 C 101.441 2.23057 -0.690488 0
M  V30 1057 C 102.422 1.67141 0.315901 0
M  V30 1058 O 103.607 1.93253 0.191556 0
M  V30 1059 C 100.737 3.47222 -0.073625 0
M  V30 1060 C 99.6908 4.16016 -1.00573 0
M  V30 1061 C 99.0168 5.34104 -0.252289 0
M  V30 1062 C 100.317 4.67264 -2.33371 0
M  V30 1063 H 102.011 2.54271 -1.58072 0
M  V30 1064 H 99.5568 1.22218 -0.76149 0
M  V30 1065 H 101.51 4.20939 0.19714 0
M  V30 1066 H 100.234 3.15302 0.85161 0
M  V30 1067 H 98.8928 3.44223 -1.2612 0
M  V30 1068 H 98.5408 4.98437 0.675988 0
M  V30 1069 H 98.2408 5.81072 -0.873455 0
M  V30 1070 H 99.7648 6.10599 0.0109857 0
M  V30 1071 H 101.179 5.32573 -2.12223 0
M  V30 1072 H 99.5758 5.24843 -2.90963 0
M  V30 1073 H 100.646 3.83602 -2.96611 0
M  V30 1074 N 101.989 0.842826 1.3317 0
M  V30 1075 C 103.4 0.496651 1.79973 0
M  V30 1076 C 103.751 -0.984641 1.69703 0
M  V30 1077 O 102.876 -1.76743 1.24863 0
M  V30 1078 C 103.471 0.894727 3.26772 0
M  V30 1079 C 102.03 0.600629 3.71577 0
M  V30 1080 C 101.177 1.10091 2.5451 0
M  V30 1081 H 104.128 1.03116 1.20635 0
M  V30 1082 H 104.149 0.206347 3.7994 0
M  V30 1083 H 103.661 1.97287 3.34215 0
M  V30 1084 H 101.762 -0.467284 3.69658 0
M  V30 1085 H 101.875 1.15863 4.64879 0
M  V30 1086 H 100.239 0.52162 2.49301 0
M  V30 1087 H 101.022 2.18591 2.64713 0
M  V30 1088 N 103.467 -1.45747 0.599634 0
M  V30 1089 C 104.714 -2.02292 0.0917284 0
M  V30 1090 C 105.042 -1.46906 -1.27472 0
M  V30 1091 O 104.297 -0.630652 -1.8526 0
M  V30 1092 C 104.596 -3.57399 -0.00602758 0
M  V30 1093 C 104.262 -4.31902 1.29503 0
M  V30 1094 C 102.924 -4.51974 1.65144 0
M  V30 1095 C 105.276 -4.74551 2.15525 0
M  V30 1096 C 102.604 -5.11949 2.86574 0
M  V30 1097 C 104.956 -5.35868 3.36196 0
M  V30 1098 C 103.62 -5.54165 3.72099 0
M  V30 1099 H 102.89 -0.740239 0.0335658 0
M  V30 1100 H 105.537 -1.7491 0.779661 0
M  V30 1101 H 103.842 -3.84014 -0.777183 0
M  V30 1102 H 105.539 -3.98846 -0.415038 0
M  V30 1103 H 102.129 -4.16588 1.00761 0
M  V30 1104 H 106.313 -4.58784 1.8929 0
M  V30 1105 H 101.569 -5.24305 3.14507 0
M  V30 1106 H 105.743 -5.6787 4.03109 0
M  V30 1107 H 103.37 -6.00406 4.6628 0
M  V30 1108 N 104.945 -0.338344 -1.53925 0
M  V30 1109 C 105.908 0.508299 -2.23493 0
M  V30 1110 C 106.908 1.03175 -1.23335 0
M  V30 1111 O 108.098 0.921826 -1.47811 0
M  V30 1112 C 105.23 1.70754 -2.95052 0
M  V30 1113 H 106.423 -0.100058 -2.99733 0
M  V30 1114 H 103.976 -0.0896198 -1.56043 0
M  V30 1115 H 104.711 2.35474 -2.22986 0
M  V30 1116 H 104.496 1.33946 -3.68512 0
M  V30 1117 H 105.986 2.30818 -3.48013 0
M  V30 1118 N 106.423 1.57458 -0.0668435 0
M  V30 1119 C 107.671 1.92919 0.602214 0
M  V30 1120 C 107.992 0.947215 1.70449 0
M  V30 1121 O 107.262 -0.00544117 1.95899 0
M  V30 1122 H 105.842 0.71217 0.22544 0
M  V30 1123 H 108.504 1.94508 -0.123535 0
M  V30 1124 H 107.6 2.94589 1.03073 0
M  V30 1125 N 107.901 -0.206675 1.56239 0
M  V30 1126 C 108.851 -1.26 1.90021 0
M  V30 1127 C 109.835 -1.41566 0.764721 0
M  V30 1128 O 111.027 -1.44131 1.02739 0
M  V30 1129 C 108.156 -2.6073 2.23326 0
M  V30 1130 C 107.242 -2.49005 3.43304 0
M  V30 1131 N 107.633 -2.06946 4.61527 0
M  V30 1132 C 105.931 -2.79927 3.47213 0
M  V30 1133 C 106.632 -2.06832 5.43687 0
M  V30 1134 N 105.608 -2.47892 4.83788 0
M  V30 1135 H 109.41 -0.925955 2.78932 0
M  V30 1136 H 106.924 -0.415172 1.57003 0
M  V30 1137 H 108.921 -3.36798 2.45708 0
M  V30 1138 H 107.581 -2.94968 1.35735 0
M  V30 1139 H 108.592 -1.77839 4.86409 0
M  V30 1140 H 105.269 -3.18438 2.70006 0
M  V30 1141 H 106.659 -1.76312 6.48354 0
M  V30 1142 N 109.379 -1.50304 -0.473955 0
M  V30 1143 C 110.79 -1.54042 -1.0549 0
M  V30 1144 C 111.141 -0.342248 -1.93192 0
M  V30 1145 O 110.266 0.545157 -2.09421 0
M  V30 1146 C 110.861 -2.79152 -1.91989 0
M  V30 1147 C 109.42 -2.8558 -2.45196 0
M  V30 1148 C 108.567 -2.48295 -1.2347 0
M  V30 1149 H 111.518 -1.5661 -0.256693 0
M  V30 1150 H 111.539 -2.60845 -2.7702 0
M  V30 1151 H 111.051 -3.66339 -1.28131 0
M  V30 1152 H 109.152 -2.02738 -3.12615 0
M  V30 1153 H 109.265 -3.88403 -2.80499 0
M  V30 1154 H 107.629 -2.00669 -1.56856 0
M  V30 1155 H 108.412 -3.37787 -0.612789 0
M  V30 1156 N 110.857 0.726932 -1.39834 0
M  V30 1157 C 111.787 1.85405 -1.41941 0
M  V30 1158 C 112.768 1.67751 -0.281728 0
M  V30 1159 O 113.953 1.8795 -0.488717 0
M  V30 1160 C 111.083 3.23243 -1.2701 0
M  V30 1161 C 110.037 3.55549 -2.38262 0
M  V30 1162 C 109.363 4.9241 -2.08415 0
M  V30 1163 C 110.663 3.577 -3.80589 0
M  V30 1164 H 112.357 1.83899 -2.36266 0
M  V30 1165 H 109.903 0.883349 -1.13723 0
M  V30 1166 H 111.856 4.01775 -1.27103 0
M  V30 1167 H 110.58 3.25296 -0.291564 0
M  V30 1168 H 109.239 2.79351 -2.37399 0
M  V30 1169 H 108.887 4.91052 -1.0898 0
M  V30 1170 H 108.587 5.14992 -2.82943 0
M  V30 1171 H 110.111 5.73289 -2.10171 0
M  V30 1172 H 111.525 4.26293 -3.83337 0
M  V30 1173 H 109.922 3.91804 -4.54543 0
M  V30 1174 H 110.992 2.57328 -4.10987 0
M  V30 1175 N 112.336 1.25143 0.95797 0
M  V30 1176 C 113.266 1.07711 2.07173 0
M  V30 1177 C 114.247 -0.0128462 1.70095 0
M  V30 1178 O 115.432 0.156061 1.93572 0
M  V30 1179 C 112.562 0.691503 3.40346 0
M  V30 1180 C 111.516 1.73132 3.9142 0
M  V30 1181 C 110.842 1.20049 5.21049 0
M  V30 1182 C 112.142 3.1294 4.1817 0
M  V30 1183 H 113.836 2.00873 2.22014 0
M  V30 1184 H 111.382 0.967191 1.06684 0
M  V30 1185 H 113.335 0.556505 4.17709 0
M  V30 1186 H 112.059 -0.275819 3.25433 0
M  V30 1187 H 110.718 1.8547 3.16222 0
M  V30 1188 H 110.366 0.223499 5.02503 0
M  V30 1189 H 110.066 1.89545 5.56189 0
M  V30 1190 H 111.59 1.07782 6.01012 0
M  V30 1191 H 113.004 3.03775 4.86203 0
M  V30 1192 H 111.401 3.79875 4.64559 0
M  V30 1193 H 112.471 3.6025 3.24573 0
M  V30 1194 N 113.814 -1.1601 1.06675 0
M  V30 1195 C 115.062 -1.86264 0.784229 0
M  V30 1196 C 115.383 -1.82328 -0.691488 0
M  V30 1197 O 114.653 -1.25947 -1.50047 0
M  V30 1198 H 113.233 -0.689621 0.28711 0
M  V30 1199 H 115.895 -1.40664 1.34906 0
M  V30 1200 H 114.991 -2.91595 1.11259 0
M  V30 1201 N 115.292 -0.849877 -1.32721 0
M  V30 1202 C 116.52 -0.464754 -2.01613 0
M  V30 1203 C 116.935 0.937191 -1.63897 0
M  V30 1204 O 116.292 1.61081 -0.857856 0
M  V30 1205 C 116.343 -0.588638 -3.56675 0
M  V30 1206 O 116.064 -1.93535 -3.93034 0
M  V30 1207 C 117.565 -0.2019 -4.4284 0
M  V30 1208 H 114.785 -0.183215 -0.645502 0
M  V30 1209 H 117.329 -1.1455 -1.69407 0
M  V30 1210 H 115.484 0.0443159 -3.87375 0
M  V30 1211 H 115.898 -1.92871 -4.87751 0
M  V30 1212 H 117.372 -0.339599 -5.50954 0
M  V30 1213 H 117.849 0.857224 -4.30753 0
M  V30 1214 H 118.455 -0.809733 -4.17521 0
M  V30 1215 N 116.77 1.45427 -0.607355 0
M  V30 1216 C 117.733 2.28974 0.101693 0
M  V30 1217 C 118.733 1.39754 0.795329 0
M  V30 1218 O 119.923 1.61878 0.643527 0
M  V30 1219 C 117.055 3.20768 1.15414 0
M  V30 1220 H 118.248 2.93147 -0.632844 0
M  V30 1221 H 115.801 1.51945 -0.366391 0
M  V30 1222 H 116.536 2.61395 1.91945 0
M  V30 1223 H 116.321 3.86489 0.66098 0
M  V30 1224 H 117.811 3.83589 1.65073 0
M  V30 1225 N 118.248 0.346503 1.53744 0
M  V30 1226 C 119.497 -0.250122 2.00143 0
M  V30 1227 C 119.81 -1.51418 1.23822 0
M  V30 1228 O 121.016 -2.18823 1.60713 0
M  V30 1229 C 119.472 -0.496252 3.56462 0
M  V30 1230 C 119.08 0.752077 4.41642 0
M  V30 1231 C 120.824 -1.05157 4.11269 0
M  V30 1232 C 118.731 0.476583 5.89477 0
M  V30 1233 H 117.661 -0.0972409 0.747703 0
M  V30 1234 H 120.312 0.46229 1.77581 0
M  V30 1235 H 118.694 -1.26944 3.75102 0
M  V30 1236 H 119.868 1.5266 4.34778 0
M  V30 1237 H 118.183 1.22925 3.97842 0
M  V30 1238 H 120.78 -1.27269 5.19333 0
M  V30 1239 H 121.123 -2.00799 3.64672 0
M  V30 1240 H 121.656 -0.339019 3.96353 0
M  V30 1241 H 118.395 1.4028 6.40314 0
M  V30 1242 H 117.915 -0.259794 5.99237 0
M  V30 1243 H 119.594 0.0949315 6.4693 0
M  V30 1244 N 119.726 -1.57421 0.075193 0
M  V30 1245 C 120.689 -2.11791 -0.876203 0
M  V30 1246 C 121.689 -1.04268 -1.22412 0
M  V30 1247 O 122.879 -1.30242 -1.15684 0
M  V30 1248 C 120.011 -2.62207 -2.17854 0
M  V30 1249 H 121.204 -2.9716 -0.40444 0
M  V30 1250 H 118.757 -1.55333 -0.173557 0
M  V30 1251 H 119.492 -1.803 -2.6956 0
M  V30 1252 H 119.277 -3.40802 -1.93897 0
M  V30 1253 H 120.767 -3.04335 -2.85955 0
M  V30 1254 N 121.204 0.198386 -1.56346 0
M  V30 1255 C 122.134 1.24865 -1.9731 0
M  V30 1256 C 123.115 1.47651 -0.844576 0
M  V30 1257 O 124.3 1.59444 -1.10866 0
M  V30 1258 C 121.43 2.59358 -2.30977 0
M  V30 1259 C 120.384 2.5119 -3.46537 0
M  V30 1260 C 119.71 3.89926 -3.65871 0
M  V30 1261 C 121.01 2.03977 -4.80823 0
M  V30 1262 H 122.704 0.908252 -2.85291 0
M  V30 1263 H 120.25 0.435462 -1.37258 0
M  V30 1264 H 122.203 3.33011 -2.58228 0
M  V30 1265 H 120.927 2.95132 -1.39874 0
M  V30 1266 H 119.586 1.79993 -3.19371 0
M  V30 1267 H 119.234 4.23046 -2.72105 0
M  V30 1268 H 118.934 3.85336 -4.4361 0
M  V30 1269 H 120.458 4.65205 -3.95495 0
M  V30 1270 H 121.872 2.67386 -5.07127 0
M  V30 1271 H 120.269 2.10397 -5.62008 0
M  V30 1272 H 121.339 0.992861 -4.74626 0
M  V30 1273 N 122.682 1.50554 0.465978 0
M  V30 1274 C 123.93 1.61479 1.21528 0
M  V30 1275 C 124.251 0.319596 1.92363 0
M  V30 1276 O 123.521 -0.663194 1.84333 0
M  V30 1277 H 122.101 0.595055 0.451573 0
M  V30 1278 H 124.763 1.87355 0.53704 0
M  V30 1279 H 123.859 2.42846 1.96042 0
M  V30 1280 N 124.16 -0.719506 1.40217 0
M  V30 1281 C 125.123 -1.8153 1.39927 0
M  V30 1282 C 126.123 -1.58095 0.293723 0
M  V30 1283 O 127.313 -1.65209 0.552429 0
M  V30 1284 C 124.445 -3.19561 1.18716 0
M  V30 1285 H 125.638 -1.83186 2.37451 0
M  V30 1286 H 123.191 -0.924746 1.26008 0
M  V30 1287 H 123.926 -3.23557 0.219366 0
M  V30 1288 H 123.711 -3.3797 1.98793 0
M  V30 1289 H 125.201 -3.99598 1.21291 0
M  V30 1290 N 125.638 -1.25649 -0.95132 0
M  V30 1291 C 126.588 -1.03004 -2.03406 0
M  V30 1292 C 127.572 0.034187 -1.60864 0
M  V30 1293 O 128.764 -0.181549 -1.76066 0
M  V30 1294 C 125.893 -0.654255 -3.37008 0
M  V30 1295 C 124.979 -1.75542 -3.86065 0
M  V30 1296 N 125.37 -2.99113 -4.07879 0
M  V30 1297 C 123.668 -1.63669 -4.14884 0
M  V30 1298 C 124.369 -3.70611 -4.48356 0
M  V30 1299 N 123.345 -2.98247 -4.54477 0
M  V30 1300 H 127.147 -1.96813 -2.1827 0
M  V30 1301 H 124.661 -1.16017 -1.13639 0
M  V30 1302 H 126.658 -0.473206 -4.14206 0
M  V30 1303 H 125.318 0.276468 -3.23521 0
M  V30 1304 H 126.329 -3.35124 -3.94857 0
M  V30 1305 H 123.006 -0.775161 -4.10241 0
M  V30 1306 H 124.396 -4.76695 -4.73509 0
M  V30 1307 N 127.117 1.15442 -1.07289 0
M  V30 1308 C 128.345 1.90096 -0.81676 0
M  V30 1309 C 128.76 1.7798 0.629966 0
M  V30 1310 O 128.117 1.1313 1.43206 0
M  V30 1311 C 128.168 3.40466 -1.21512 0
M  V30 1312 O 127.889 3.52232 -2.60508 0
M  V30 1313 C 129.39 4.32145 -0.988198 0
M  V30 1314 H 126.61 0.602495 -0.295366 0
M  V30 1315 H 129.154 1.4627 -1.42918 0
M  V30 1316 H 127.309 3.81958 -0.647039 0
M  V30 1317 H 127.723 4.45549 -2.76742 0
M  V30 1318 H 129.197 5.36072 -1.31645 0
M  V30 1319 H 129.674 4.39135 0.0755063 0
M  V30 1320 H 130.28 3.96395 -1.54115 0
M  V30 1321 N 128.595 0.856903 1.32268 0
M  V30 1322 C 129.872 0.382583 1.91822 0
M  V30 1323 C 130.252 -1.13407 1.78051 0
M  V30 1324 O 129.6 -1.95673 1.18001 0
M  V30 1325 C 129.81 0.849446 3.38505 0
M  V30 1326 C 131.158 0.867936 4.15634 0
M  V30 1327 O 132.182 0.794232 3.47232 0
M  V30 1328 O 131.041 0.972286 5.37781 0
M  V30 1329 H 128.135 0.112014 0.819379 0
M  V30 1330 H 130.681 0.943952 1.41024 0
M  V30 1331 H 129.453 1.89267 3.42482 0
M  V30 1332 H 129.076 0.265652 3.96712 0
M  V30 1333 N 130.073 -1.45103 0.615059 0
M  V30 1334 C 131.021 -2.32331 -0.111791 0
M  V30 1335 C 132.015 -1.46409 -0.852102 0
M  V30 1336 O 133.221 -1.62849 -0.766821 0
M  V30 1337 H 129.596 -0.749993 -0.0549072 0
M  V30 1338 H 131.567 -2.91407 0.642225 0
M  V30 1339 C 130.316 -3.3015 -1.09071 0
M  V30 1340 H 129.639 -3.96265 -0.530485 0
M  V30 1341 H 131.079 -3.93898 -1.56908 0
M  V30 1342 C 129.538 -2.57875 -2.168 0
M  V30 1343 O 130.068 -2.36567 -3.24652 0
M  V30 1344 N 128.274 -2.17884 -1.92289 0
M  V30 1345 H 127.821 -2.35413 -1.04587 0
M  V30 1346 H 127.779 -1.6985 -2.64572 0
M  V30 1347 N 131.551 -0.354651 -1.53558 0
M  V30 1348 C 132.501 0.513179 -2.2215 0
M  V30 1349 C 133.485 1.05734 -1.21281 0
M  V30 1350 O 134.677 0.989202 -1.46778 0
M  V30 1351 C 131.806 1.65798 -3.00609 0
M  V30 1352 C 130.892 1.12722 -4.08845 0
M  V30 1353 N 131.283 0.318563 -5.04796 0
M  V30 1354 C 129.581 1.40307 -4.23356 0
M  V30 1355 C 130.282 0.0292224 -5.81693 0
M  V30 1356 N 129.258 0.623891 -5.40008 0
M  V30 1357 H 133.06 -0.111586 -2.93688 0
M  V30 1358 H 130.574 -0.162091 -1.61589 0
M  V30 1359 H 132.571 2.29176 -3.48258 0
M  V30 1360 H 131.231 2.28591 -2.306 0
M  V30 1361 H 132.242 -0.0413091 -5.17884 0
M  V30 1362 H 128.919 2.03458 -3.6457 0
M  V30 1363 H 130.309 -0.623808 -6.68998 0
M  V30 1364 N 133.029 1.57378 -0.0835403 0
M  V30 1365 C 134.445 1.57246 0.273109 0
M  V30 1366 C 134.645 1.09385 1.69225 0
M  V30 1367 O 133.701 0.765051 2.40631 0
M  V30 1368 C 135.014 3.00614 0.0720628 0
M  V30 1369 C 136.562 3.12684 0.1407 0
M  V30 1370 C 137.037 4.57989 -0.0322094 0
M  V30 1371 N 138.528 4.63194 0.0230085 0
M  V30 1372 C 139.263 5.73335 -0.0861941 0
M  V30 1373 N 138.759 6.9235 -0.24958 0
M  V30 1374 N 140.552 5.62093 -0.0282886 0
M  V30 1375 H 132.703 1.86801 -1.0109 0
M  V30 1376 H 134.966 0.861687 -0.395222 0
M  V30 1377 H 134.672 3.39786 -0.907662 0
M  V30 1378 H 134.546 3.68193 0.81936 0
M  V30 1379 H 136.933 2.73391 1.11092 0
M  V30 1380 H 137.014 2.47719 -0.637896 0
M  V30 1381 H 136.658 4.97973 -0.999247 0
M  V30 1382 H 136.588 5.21 0.765937 0
M  V30 1383 H 139.079 3.77613 0.14722 0
M  V30 1384 H 139.392 7.72117 -0.324733 0
M  V30 1385 H 137.737 6.94415 -0.285097 0
M  V30 1386 H 140.928 4.67997 0.0981408 0
M  V30 1387 H 141.101 6.47895 -0.116845 0
M  V30 1388 N 134.507 -0.190092 1.56449 0
M  V30 1389 C 135.437 -1.23816 1.97969 0
M  V30 1390 C 136.418 -1.47201 0.852395 0
M  V30 1391 O 137.603 -1.58854 1.1171 0
M  V30 1392 C 134.733 -2.5813 2.3235 0
M  V30 1393 C 133.687 -2.49348 3.47864 0
M  V30 1394 C 133.013 -3.8798 3.67934 0
M  V30 1395 C 134.313 -2.01424 4.81898 0
M  V30 1396 H 136.007 -0.89311 2.85769 0
M  V30 1397 H 133.553 -0.428177 1.37487 0
M  V30 1398 H 135.506 -3.31637 2.59991 0
M  V30 1399 H 134.23 -2.94386 1.41438 0
M  V30 1400 H 132.889 -1.78297 3.20321 0
M  V30 1401 H 132.537 -4.21597 2.74344 0
M  V30 1402 H 132.237 -3.82978 4.45648 0
M  V30 1403 H 133.761 -4.63101 3.97957 0
M  V30 1404 H 135.175 -2.64693 5.08538 0
M  V30 1405 H 133.572 -2.07413 5.63116 0
M  V30 1406 H 134.642 -0.967677 4.75146 0
M  V30 1407 N 135.985 -1.50799 -0.457987 0
M  V30 1408 C 137.215 -1.65977 -1.23025 0
M  V30 1409 C 137.623 -0.347918 -1.85974 0
M  V30 1410 O 136.966 0.68148 -1.70592 0
M  V30 1411 C 137.028 -2.70309 -2.3701 0
M  V30 1412 C 136.692 -4.135 -1.94594 0
M  V30 1413 C 137.689 -4.98949 -1.46101 0
M  V30 1414 C 135.374 -4.5949 -2.02915 0
M  V30 1415 C 137.368 -6.28442 -1.06489 0
M  V30 1416 C 135.055 -5.88984 -1.62914 0
M  V30 1417 C 136.053 -6.73286 -1.1478 0
M  V30 1418 O 135.741 -8.00362 -0.75339 0
M  V30 1419 H 135.473 -0.56064 -0.377702 0
M  V30 1420 H 138.027 -1.97857 -0.551537 0
M  V30 1421 H 136.257 -2.337 -3.08093 0
M  V30 1422 H 137.946 -2.74574 -2.98938 0
M  V30 1423 H 138.712 -4.6463 -1.39084 0
M  V30 1424 H 134.591 -3.94009 -2.39328 0
M  V30 1425 H 138.135 -6.94194 -0.688488 0
M  V30 1426 H 134.032 -6.22822 -1.69595 0
M  V30 1427 H 134.8 -8.13744 -0.88108 0
M  V30 1428 N 137.463 0.71206 -1.40597 0
M  V30 1429 C 138.393 1.83889 -1.43899 0
M  V30 1430 C 139.374 1.67442 -0.299504 0
M  V30 1431 O 140.559 1.87421 -0.508624 0
M  V30 1432 C 137.689 3.21877 -1.30431 0
M  V30 1433 C 136.643 3.53002 -2.42019 0
M  V30 1434 C 135.969 4.90172 -2.13626 0
M  V30 1435 C 137.269 3.53643 -3.84362 0
M  V30 1436 H 138.963 1.81383 -2.38203 0
M  V30 1437 H 136.509 0.871237 -1.14654 0
M  V30 1438 H 138.462 4.00404 -1.31357 0
M  V30 1439 H 137.186 3.24968 -0.326049 0
M  V30 1440 H 135.845 2.76818 -2.40349 0
M  V30 1441 H 135.493 4.89869 -1.14182 0
M  V30 1442 H 135.193 5.11962 -2.88389 0
M  V30 1443 H 136.717 5.71028 -2.1624 0
M  V30 1444 H 138.131 4.22203 -3.87837 0
M  V30 1445 H 136.528 3.86961 -4.58673 0
M  V30 1446 H 137.598 2.52954 -4.13693 0
M  V30 1447 N 138.941 1.26152 0.944643 0
M  V30 1448 C 139.851 1.09176 2.07648 0
M  V30 1449 C 140.867 0.0261935 1.7398 0
M  V30 1450 O 142.043 0.229208 2.00091 0
M  V30 1451 C 139.108 0.722915 3.39079 0
M  V30 1452 C 138.169 1.86752 3.86552 0
M  V30 1453 C 137.402 1.51617 5.11711 0
M  V30 1454 O 137.625 0.416331 5.68879 0
M  V30 1455 O 136.559 2.34975 5.54139 0
M  V30 1456 H 140.385 2.0412 2.24875 0
M  V30 1457 H 137.97 1.05182 1.061 0
M  V30 1458 H 139.852 0.529787 4.18056 0
M  V30 1459 H 138.527 -0.197159 3.23099 0
M  V30 1460 H 137.434 2.11558 3.08535 0
M  V30 1461 H 138.767 2.76719 4.07047 0
M  V30 1462 N 140.419 -1.14872 1.07899 0
M  V30 1463 C 141.647 -1.89661 0.82683 0
M  V30 1464 C 142.062 -1.78312 -0.620519 0
M  V30 1465 O 141.419 -1.13888 -1.42604 0
M  V30 1466 C 141.47 -3.39817 1.23316 0
M  V30 1467 O 141.191 -3.50845 2.62372 0
M  V30 1468 C 142.692 -4.31615 1.0111 0
M  V30 1469 H 139.912 -0.60092 0.298557 0
M  V30 1470 H 142.456 -1.4551 1.43691 0
M  V30 1471 H 140.611 -3.8161 0.667286 0
M  V30 1472 H 141.025 -4.44076 2.79101 0
M  V30 1473 H 142.499 -5.35367 1.34486 0
M  V30 1474 H 142.976 -4.39169 -0.0522168 0
M  V30 1475 H 143.582 -3.95572 1.56215 0
M  V30 1476 N 141.898 -0.863906 -1.31812 0
M  V30 1477 C 142.83 -0.272485 -2.27575 0
M  V30 1478 C 143.843 0.56104 -1.52827 0
M  V30 1479 O 145.032 0.384021 -1.7432 0
M  V30 1480 C 142.132 0.63283 -3.32939 0
M  V30 1481 C 141.305 -0.166902 -4.37081 0
M  V30 1482 C 140.364 0.665608 -5.21973 0
M  V30 1483 O 139.39 0.0958091 -5.69119 0
M  V30 1484 N 140.592 1.9787 -5.45736 0
M  V30 1485 H 143.357 -1.0954 -2.78964 0
M  V30 1486 H 140.918 -0.724791 -1.4477 0
M  V30 1487 H 142.91 1.19532 -3.86645 0
M  V30 1488 H 141.48 1.35642 -2.81638 0
M  V30 1489 H 140.7 -0.910838 -3.83533 0
M  V30 1490 H 141.988 -0.715874 -5.03739 0
M  V30 1491 H 141.386 2.46484 -5.09178 0
M  V30 1492 H 139.943 2.48911 -6.024 0
M  V30 1493 N 143.376 1.44774 -0.622745 0
M  V30 1494 C 144.309 2.27792 0.136329 0
M  V30 1495 C 145.287 1.38041 0.859264 0
M  V30 1496 O 146.471 1.67478 0.86506 0
M  V30 1497 C 143.598 3.16776 1.19878 0
M  V30 1498 C 142.644 4.22575 0.57731 0
M  V30 1499 S 143.477 5.31825 -0.626294 0
M  V30 1500 C 144.633 6.24377 0.436378 0
M  V30 1501 H 144.866 2.91824 -0.567967 0
M  V30 1502 H 142.399 1.48838 -0.410677 0
M  V30 1503 H 144.357 3.68596 1.80686 0
M  V30 1504 H 143.018 2.5198 1.87523 0
M  V30 1505 H 142.211 4.84818 1.37721 0
M  V30 1506 H 141.813 3.73974 0.0440439 0
M  V30 1507 H 144.105 6.64689 1.31128 0
M  V30 1508 H 145.048 7.07941 -0.150271 0
M  V30 1509 H 145.456 5.59381 0.758513 0
M  V30 1510 N 144.854 0.36279 1.53368 0
M  V30 1511 C 146.102 -0.227326 2.00817 0
M  V30 1512 C 146.423 -1.49511 1.25186 0
M  V30 1513 O 145.693 -1.92482 0.364348 0
M  V30 1514 H 144.273 -0.0869923 0.741917 0
M  V30 1515 H 146.935 0.488381 1.88682 0
M  V30 1516 H 146.031 -0.456273 3.08747 0
M  V30 1517 N 146.332 -1.57332 0.0918853 0
M  V30 1518 C 147.56 -1.98574 -0.581048 0
M  V30 1519 C 147.975 -0.970903 -1.61923 0
M  V30 1520 O 147.332 0.0399054 -1.82456 0
M  V30 1521 C 147.383 -3.39872 -1.23164 0
M  V30 1522 O 147.104 -4.37469 -0.234989 0
M  V30 1523 C 148.605 -3.96099 -1.99049 0
M  V30 1524 H 145.825 -0.65261 -0.156018 0
M  V30 1525 H 148.369 -2.0379 0.170225 0
M  V30 1526 H 146.524 -3.35679 -1.93386 0
M  V30 1527 H 146.938 -5.19751 -0.70418 0
M  V30 1528 H 148.412 -4.97127 -2.39934 0
M  V30 1529 H 148.889 -3.3374 -2.85507 0
M  V30 1530 H 149.495 -4.03755 -1.3365 0
M  V30 1531 N 147.81 0.181792 -1.56548 0
M  V30 1532 C 149.059 0.898348 -1.8059 0
M  V30 1533 C 149.372 1.83862 -0.667379 0
M  V30 1534 O 150.578 2.59678 -0.792446 0
M  V30 1535 C 149.034 1.64791 -3.19956 0
M  V30 1536 C 148.642 0.751789 -4.41647 0
M  V30 1537 C 150.386 2.35331 -3.53298 0
M  V30 1538 C 148.293 1.50098 -5.72035 0
M  V30 1539 H 147.223 0.339194 -0.673397 0
M  V30 1540 H 149.874 0.151413 -1.82874 0
M  V30 1541 H 148.256 2.43921 -3.11959 0
M  V30 1542 H 149.43 -0.0018076 -4.608 0
M  V30 1543 H 147.745 0.156562 -4.16106 0
M  V30 1544 H 150.342 2.91958 -4.47956 0
M  V30 1545 H 150.685 3.10164 -2.77676 0
M  V30 1546 H 151.218 1.63154 -3.62803 0
M  V30 1547 H 147.957 0.795175 -6.50659 0
M  V30 1548 H 147.477 2.22817 -5.56878 0
M  V30 1549 H 149.156 2.05125 -6.13622 0
M  V30 1550 N 149.288 1.51039 0.449983 0
M  V30 1551 C 150.251 1.70863 1.5277 0
M  V30 1552 C 151.251 0.578846 1.5002 0
M  V30 1553 O 152.441 0.846213 1.52266 0
M  V30 1554 C 149.573 1.75341 2.9235 0
M  V30 1555 H 150.766 2.67034 1.36502 0
M  V30 1556 H 148.319 1.40838 0.677812 0
M  V30 1557 H 149.054 0.809383 3.14037 0
M  V30 1558 H 148.839 2.57436 2.95752 0
M  V30 1559 H 150.329 1.92559 3.70555 0
M  V30 1560 N 150.766 -0.704594 1.40972 0
M  V30 1561 C 152.013 -1.46458 1.39844 0
M  V30 1562 C 152.341 -1.94499 0.00447594 0
M  V30 1563 O 151.596 -1.69275 -0.982057 0
M  V30 1564 C 151.895 -2.698 2.34399 0
M  V30 1565 C 151.561 -2.40464 3.81429 0
M  V30 1566 C 150.223 -2.32174 4.21484 0
M  V30 1567 C 152.575 -2.16086 4.74296 0
M  V30 1568 C 149.903 -1.97589 5.52427 0
M  V30 1569 C 152.255 -1.83011 6.05549 0
M  V30 1570 C 150.919 -1.7321 6.44635 0
M  V30 1571 H 150.189 -0.535927 0.511725 0
M  V30 1572 H 152.836 -0.806124 1.73706 0
M  V30 1573 H 151.141 -3.40536 1.93759 0
M  V30 1574 H 152.838 -3.27919 2.30804 0
M  V30 1575 H 149.428 -2.47808 3.49699 0
M  V30 1576 H 153.612 -2.2144 4.4416 0
M  V30 1577 H 148.868 -1.88547 5.81601 0
M  V30 1578 H 153.042 -1.63164 6.77016 0
M  V30 1579 H 150.669 -1.46179 7.46013 0
M  V30 1580 N 152.244 -1.26651 -0.937939 0
M  V30 1581 C 153.154 -1.10276 -2.07066 0
M  V30 1582 C 154.17 -0.0354197 -1.73964 0
M  V30 1583 O 155.346 -0.239816 -1.99967 0
M  V30 1584 C 152.411 -0.740887 -3.38691 0
M  V30 1585 C 151.472 -1.88799 -3.85556 0
M  V30 1586 C 150.705 -1.54329 -5.10899 0
M  V30 1587 O 150.928 -0.446494 -5.6865 0
M  V30 1588 O 149.862 -2.37911 -5.52885 0
M  V30 1589 H 153.688 -2.05309 -2.23789 0
M  V30 1590 H 151.273 -1.05743 -1.0554 0
M  V30 1591 H 153.155 -0.55195 -4.1777 0
M  V30 1592 H 151.83 0.180022 -3.23199 0
M  V30 1593 H 150.737 -2.13191 -3.07409 0
M  V30 1594 H 152.07 -2.78874 -4.05574 0
M  V30 1595 N 153.722 1.14298 -1.08507 0
M  V30 1596 C 154.652 2.21542 -0.737646 0
M  V30 1597 C 155.633 1.67773 0.280377 0
M  V30 1598 O 156.818 1.93616 0.150521 0
M  V30 1599 C 153.948 3.46988 -0.147259 0
M  V30 1600 C 152.902 4.13789 -1.09374 0
M  V30 1601 C 152.228 5.33449 -0.365524 0
M  V30 1602 C 153.528 4.62208 -2.4323 0
M  V30 1603 H 155.222 2.5086 -1.6343 0
M  V30 1604 H 152.768 1.20576 -0.787243 0
M  V30 1605 H 154.721 4.21262 0.107808 0
M  V30 1606 H 153.445 3.17037 0.784538 0
M  V30 1607 H 152.104 3.4147 -1.33393 0
M  V30 1608 H 151.752 4.99759 0.57011 0
M  V30 1609 H 151.452 5.79088 -0.996512 0
M  V30 1610 H 152.976 6.10485 -0.118534 0
M  V30 1611 H 154.39 5.27952 -2.23472 0
M  V30 1612 H 152.787 5.18553 -3.02031 0
M  V30 1613 H 153.857 3.77224 -3.04681 0
M  V30 1614 N 155.201 0.870884 1.31352 0
M  V30 1615 C 156.111 0.330783 2.32256 0
M  V30 1616 C 157.127 -0.559767 1.6475 0
M  V30 1617 O 158.303 -0.456263 1.96164 0
M  V30 1618 C 155.368 -0.458137 3.4366 0
M  V30 1619 C 154.429 0.460482 4.26823 0
M  V30 1620 C 153.662 -0.290881 5.32907 0
M  V30 1621 O 153.885 -1.51885 5.49806 0
M  V30 1622 O 152.819 0.351732 6.00871 0
M  V30 1623 H 156.645 1.16718 2.80376 0
M  V30 1624 H 154.23 0.634285 1.35267 0
M  V30 1625 H 156.112 -0.905343 4.1156 0
M  V30 1626 H 154.787 -1.27106 2.97701 0
M  V30 1627 H 153.694 0.956207 3.61673 0
M  V30 1628 H 155.027 1.23903 4.7635 0
M  V30 1629 N 156.679 -1.44442 0.630414 0
M  V30 1630 C 158.095 -1.56832 0.295973 0
M  V30 1631 C 158.295 -1.61806 -1.20088 0
M  V30 1632 O 157.351 -1.5607 -1.9849 0
M  V30 1633 C 158.664 -2.84031 0.987264 0
M  V30 1634 C 160.212 -2.97742 0.96534 0
M  V30 1635 C 160.687 -4.27743 1.63708 0
M  V30 1636 N 162.178 -4.34555 1.60364 0
M  V30 1637 C 162.913 -5.33862 2.09234 0
M  V30 1638 N 162.409 -6.39578 2.66292 0
M  V30 1639 N 164.202 -5.25366 1.99867 0
M  V30 1640 H 156.353 -1.39457 1.60205 0
M  V30 1641 H 158.616 -0.668237 0.672431 0
M  V30 1642 H 158.322 -2.86338 2.04215 0
M  V30 1643 H 158.196 -3.73534 0.524588 0
M  V30 1644 H 160.583 -2.94989 -0.0810639 0
M  V30 1645 H 160.664 -2.09589 1.4665 0
M  V30 1646 H 160.308 -4.31255 2.68293 0
M  V30 1647 H 160.238 -5.14752 1.11076 0
M  V30 1648 H 162.729 -3.58772 1.18705 0
M  V30 1649 H 163.042 -7.11637 3.01317 0
M  V30 1650 H 161.387 -6.40265 2.70343 0
M  V30 1651 H 164.578 -4.41688 1.55013 0
M  V30 1652 H 164.751 -6.02606 2.38265 0
M  V30 1653 N 158.157 -0.370918 -1.53173 0
M  V30 1654 C 159.089 0.507823 -2.23503 0
M  V30 1655 C 160.102 1.04182 -1.251 0
M  V30 1656 O 161.291 0.947286 -1.5129 0
M  V30 1657 C 158.391 1.71447 -2.92334 0
M  V30 1658 C 157.564 1.31105 -4.17289 0
M  V30 1659 C 156.623 2.38035 -4.69282 0
M  V30 1660 O 155.649 2.00204 -5.32829 0
M  V30 1661 N 156.851 3.69697 -4.47554 0
M  V30 1662 H 159.616 -0.0946382 -2.99551 0
M  V30 1663 H 157.177 -0.196358 -1.60705 0
M  V30 1664 H 159.169 2.42469 -3.24023 0
M  V30 1665 H 157.739 2.22368 -2.19707 0
M  V30 1666 H 156.959 0.430462 -3.91843 0
M  V30 1667 H 158.247 1.0179 -4.98514 0
M  V30 1668 H 157.645 4.03205 -3.9679 0
M  V30 1669 H 156.202 4.36807 -4.8378 0
M  V30 1670 N 159.635 1.57281 -0.100228 0
M  V30 1671 C 160.583 2.15542 0.874328 0
M  V30 1672 C 161.577 1.09962 1.28859 0
M  V30 1673 O 162.783 1.28298 1.26252 0
M  V30 1674 H 159.158 0.689567 0.300003 0
M  V30 1675 H 161.129 2.96241 0.35829 0
M  V30 1676 C 159.878 2.75454 2.1218 0
M  V30 1677 H 159.201 3.56384 1.81193 0
M  V30 1678 H 160.641 3.19781 2.78417 0
M  V30 1679 C 159.1 1.71602 2.89921 0
M  V30 1680 O 159.63 1.15804 3.84646 0
M  V30 1681 N 157.836 1.41975 2.53558 0
M  V30 1682 H 157.383 1.87539 1.76598 0
M  V30 1683 H 157.341 0.727274 3.05873 0
M  V30 1684 N 161.113 -0.173488 1.56642 0
M  V30 1685 C 162.361 -0.888706 1.81512 0
M  V30 1686 C 162.682 -1.82875 0.676872 0
M  V30 1687 O 161.952 -1.93536 -0.303414 0
M  V30 1688 H 160.532 -0.331164 0.669582 0
M  V30 1689 H 163.194 -0.173823 1.94123 0
M  V30 1690 H 162.29 -1.46691 2.75478 0
M  V30 1691 N 162.591 -1.51276 -0.441967 0
M  V30 1692 C 163.816 -1.67799 -1.21895 0
M  V30 1693 C 164.241 -0.372864 -1.84367 0
M  V30 1694 O 163.599 0.666501 -1.68604 0
M  V30 1695 C 163.647 -2.79199 -2.28211 0
M  V30 1696 O 162.751 -2.42479 -3.33583 0
M  V30 1697 H 162.092 -0.559649 -0.357336 0
M  V30 1698 H 164.622 -1.97815 -0.522522 0
M  V30 1699 H 164.632 -3.03146 -2.73069 0
M  V30 1700 H 163.307 -3.73906 -1.82118 0
M  V30 1701 H 161.884 -2.29087 -2.94234 0
M  V30 1702 N 164.069 0.697108 -1.41344 0
M  V30 1703 C 165.315 1.4593 -1.40827 0
M  V30 1704 C 165.648 1.94193 -0.0167098 0
M  V30 1705 O 164.923 1.69425 0.955263 0
M  V30 1706 C 165.206 2.67229 -2.41373 0
M  V30 1707 C 165.059 2.24741 -3.8963 0
M  V30 1708 C 166.378 3.69423 -2.39196 0
M  V30 1709 H 163.497 0.529303 -0.512842 0
M  V30 1710 H 166.139 0.794112 -1.72609 0
M  V30 1711 H 164.289 3.23982 -2.14401 0
M  V30 1712 H 165.961 1.73327 -4.27499 0
M  V30 1713 H 164.204 1.56542 -4.0457 0
M  V30 1714 H 164.875 3.1177 -4.55525 0
M  V30 1715 H 167.351 3.2234 -2.63128 0
M  V30 1716 H 166.227 4.51907 -3.11563 0
M  V30 1717 H 166.488 4.19012 -1.41001 0
M  V30 1718 N 165.547 1.27147 0.931209 0
M  V30 1719 C 166.796 1.12664 1.67302 0
M  V30 1720 C 167.109 -0.327718 1.92835 0
M  V30 1721 O 168.315 -0.593392 2.64936 0
M  V30 1722 C 166.771 1.9683 3.01307 0
M  V30 1723 C 166.379 3.46901 2.83485 0
M  V30 1724 C 168.123 1.90985 3.79111 0
M  V30 1725 C 166.03 4.23279 4.13024 0
M  V30 1726 H 164.96 0.41803 0.627509 0
M  V30 1727 H 167.611 1.51539 1.03481 0
M  V30 1728 H 165.993 1.50797 3.66164 0
M  V30 1729 H 167.167 4.00773 2.27415 0
M  V30 1730 H 165.482 3.54088 2.19113 0
M  V30 1731 H 168.079 2.45328 4.75098 0
M  V30 1732 H 168.422 0.882718 4.06834 0
M  V30 1733 H 168.955 2.34895 3.21044 0
M  V30 1734 H 165.694 5.26503 3.90481 0
M  V30 1735 H 165.214 3.74186 4.6877 0
M  V30 1736 H 166.893 4.32265 4.81411 0
M  V30 1737 N 167.025 -1.13721 1.09112 0
M  V30 1738 C 167.988 -2.17222 0.731241 0
M  V30 1739 C 168.988 -1.59035 -0.237566 0
M  V30 1740 O 170.178 -1.74192 -0.0161704 0
M  V30 1741 C 167.31 -3.40804 0.0808443 0
M  V30 1742 H 168.503 -2.50573 1.64783 0
M  V30 1743 H 166.056 -1.28493 0.889897 0
M  V30 1744 H 166.791 -3.1304 -0.847127 0
M  V30 1745 H 166.576 -3.84306 0.777896 0
M  V30 1746 H 168.066 -4.1731 -0.155657 0
M  V30 1747 N 168.503 -0.877838 -1.30888 0
M  V30 1748 C 169.466 -0.344265 -2.266 0
M  V30 1749 C 170.466 0.50922 -1.52524 0
M  V30 1750 O 171.656 0.317398 -1.71284 0
M  V30 1751 C 168.788 0.510198 -3.37061 0
M  V30 1752 H 169.981 -1.1893 -2.7531 0
M  V30 1753 H 167.534 -0.654088 -1.41956 0
M  V30 1754 H 168.269 1.37612 -2.93655 0
M  V30 1755 H 168.054 -0.101047 -3.9197 0
M  V30 1756 H 169.544 0.875537 -4.08319 0
M  V30 1757 N 169.982 1.44106 -0.638065 0
M  V30 1758 C 171.207 2.0685 -0.150916 0
M  V30 1759 C 171.632 1.47417 1.16833 0
M  V30 1760 O 170.99 0.578264 1.71831 0
M  V30 1761 C 171.038 3.60555 -0.05708 0
M  V30 1762 O 170.142 4.00465 0.984972 0
M  V30 1763 H 169.483 0.658151 -0.0879399 0
M  V30 1764 H 172.013 1.84865 -0.876707 0
M  V30 1765 H 172.023 4.07789 0.131232 0
M  V30 1766 H 170.698 4.03193 -1.02021 0
M  V30 1767 H 169.275 3.64849 0.770672 0
M  V30 1768 N 171.46 0.379036 1.52974 0
M  V30 1769 C 172.393 -0.504932 2.22544 0
M  V30 1770 C 173.371 -1.0723 1.22231 0
M  V30 1771 O 174.555 -1.12589 1.51182 0
M  V30 1772 C 171.682 -1.69794 2.93066 0
M  V30 1773 C 170.728 -1.25678 4.07563 0
M  V30 1774 S 171.561 -0.246852 5.34931 0
M  V30 1775 C 172.717 -1.44588 6.08971 0
M  V30 1776 H 172.95 0.0858666 2.97176 0
M  V30 1777 H 170.483 0.163183 1.53535 0
M  V30 1778 H 172.441 -2.38219 3.34308 0
M  V30 1779 H 171.102 -2.26002 2.18133 0
M  V30 1780 H 170.295 -2.14725 4.5597 0
M  V30 1781 H 169.897 -0.651584 3.6828 0
M  V30 1782 H 172.189 -2.37469 6.34519 0
M  V30 1783 H 173.132 -1.00292 7.00962 0
M  V30 1784 H 173.54 -1.65804 5.39601 0
M  V30 1785 N 172.938 -1.57226 0.108567 0
M  V30 1786 C 174.215 -1.86333 -0.594939 0
M  V30 1787 C 174.595 -1.00788 -1.85486 0
M  V30 1788 O 173.943 -0.0839293 -2.28346 0
M  V30 1789 C 174.153 -3.37265 -0.897405 0
M  V30 1790 C 175.501 -4.05629 -1.25501 0
M  V30 1791 O 176.525 -3.42224 -0.987998 0
M  V30 1792 O 175.384 -5.17531 -1.75567 0
M  V30 1793 H 172.478 -0.771018 -0.2991 0
M  V30 1794 H 175.024 -1.69102 0.142283 0
M  V30 1795 H 173.796 -3.913 -0.00413806 0
M  V30 1796 H 173.419 -3.59889 -1.69014 0
M  V30 1797 N 174.416 0.165178 -1.56732 0
M  V30 1798 C 175.348 1.22911 -1.93457 0
M  V30 1799 C 176.361 1.40152 -0.828333 0
M  V30 1800 O 177.55 1.40046 -1.10677 0
M  V30 1801 C 174.65 2.59686 -2.17753 0
M  V30 1802 C 173.823 2.63663 -3.48999 0
M  V30 1803 C 172.882 3.81845 -3.62051 0
M  V30 1804 O 171.908 3.67559 -4.34613 0
M  V30 1805 N 173.11 4.98557 -2.97357 0
M  V30 1806 H 175.875 0.917118 -2.85323 0
M  V30 1807 H 173.436 0.354895 -1.57962 0
M  V30 1808 H 175.428 3.37225 -2.23743 0
M  V30 1809 H 173.998 2.83251 -1.32242 0
M  V30 1810 H 173.218 1.72173 -3.54612 0
M  V30 1811 H 174.506 2.63336 -4.35352 0
M  V30 1812 H 173.904 5.13065 -2.38287 0
M  V30 1813 H 172.461 5.73936 -3.08934 0
M  V30 1814 N 175.894 1.51508 0.433938 0
M  V30 1815 C 177.305 1.56784 1.01369 0
M  V30 1816 C 177.656 0.393349 1.92217 0
M  V30 1817 O 176.781 -0.489441 2.10792 0
M  V30 1818 C 177.376 2.84144 1.8452 0
M  V30 1819 C 175.935 2.9198 2.37539 0
M  V30 1820 C 175.082 2.51482 1.16843 0
M  V30 1821 H 178.033 1.57236 0.215081 0
M  V30 1822 H 178.054 2.68098 2.70007 0
M  V30 1823 H 177.566 3.69607 1.18373 0
M  V30 1824 H 175.667 2.10955 3.0713 0
M  V30 1825 H 175.78 3.95704 2.70103 0
M  V30 1826 H 174.144 2.04758 1.51481 0
M  V30 1827 H 174.927 3.39293 0.523015 0
M  V30 1828 N 177.372 -0.689602 1.41712 0
M  V30 1829 C 178.621 -1.44534 1.40686 0
M  V30 1830 C 178.934 -1.95588 0.0213352 0
M  V30 1831 O 180.14 -2.71271 -0.111534 0
M  V30 1832 C 178.596 -2.61387 2.47396 0
M  V30 1833 C 178.204 -2.17094 3.91885 0
M  V30 1834 C 179.948 -3.38986 2.55517 0
M  V30 1835 C 177.855 -3.3094 4.90135 0
M  V30 1836 H 176.785 -0.542925 0.52321 0
M  V30 1837 H 179.436 -0.748054 1.6756 0
M  V30 1838 H 177.818 -3.33412 2.13664 0
M  V30 1839 H 178.992 -1.52318 4.34897 0
M  V30 1840 H 177.307 -1.52473 3.8748 0
M  V30 1841 H 179.904 -4.23747 3.26102 0
M  V30 1842 H 180.247 -3.84578 1.59391 0
M  V30 1843 H 180.78 -2.74021 2.8837 0
M  V30 1844 H 177.519 -2.90355 5.87685 0
M  V30 1845 H 177.039 -3.94546 4.51767 0
M  V30 1846 H 178.718 -3.9663 5.11169 0
M  V30 1847 N 178.85 -1.27639 -0.924453 0
M  V30 1848 C 180.261 -1.12834 -1.48746 0
M  V30 1849 C 180.612 0.285505 -1.94112 0
M  V30 1850 O 179.737 1.17874 -1.81479 0
M  V30 1851 C 180.332 -2.04217 -2.70334 0
M  V30 1852 C 178.891 -1.93509 -3.22848 0
M  V30 1853 C 178.038 -1.96583 -1.95577 0
M  V30 1854 H 180.989 -1.40484 -0.738233 0
M  V30 1855 H 181.01 -1.59989 -3.4523 0
M  V30 1856 H 180.522 -3.07111 -2.37285 0
M  V30 1857 H 178.623 -0.936131 -3.60649 0
M  V30 1858 H 178.736 -2.79917 -3.88823 0
M  V30 1859 H 177.1 -1.4085 -2.12211 0
M  V30 1860 H 177.883 -3.01137 -1.64837 0
M  V30 1861 N 180.328 1.1314 -1.09713 0
M  V30 1862 C 181.556 1.88321 -0.856898 0
M  V30 1863 C 181.971 1.79276 0.592073 0
M  V30 1864 O 181.328 1.16142 1.40774 0
M  V30 1865 C 181.379 3.37812 -1.28706 0
M  V30 1866 O 181.1 3.46627 -2.67921 0
M  V30 1867 C 182.601 4.29952 -1.07964 0
M  V30 1868 H 179.821 0.596094 -0.308079 0
M  V30 1869 H 182.365 1.43205 -1.45988 0
M  V30 1870 H 180.52 3.805 -0.727912 0
M  V30 1871 H 180.934 4.39579 -2.8613 0
M  V30 1872 H 182.408 5.33159 -1.42986 0
M  V30 1873 H 182.885 4.39196 -0.0176577 0
M  V30 1874 H 183.491 3.93036 -1.62489 0
M  V30 1875 N 181.806 0.884767 1.30421 0
M  V30 1876 C 183.052 0.513218 1.96819 0
M  V30 1877 C 183.407 -0.927347 1.68577 0
M  V30 1878 O 182.7 -1.64644 0.979941 0
M  V30 1879 C 182.894 0.724318 3.49983 0
M  V30 1880 C 182.723 2.18385 3.93113 0
M  V30 1881 C 181.493 2.82839 4.18725 0
M  V30 1882 C 183.691 3.15763 4.05953 0
M  V30 1883 N 181.673 4.1939 4.48314 0
M  V30 1884 C 183.044 4.37387 4.39423 0
M  V30 1885 C 185.099 3.11555 3.88379 0
M  V30 1886 C 183.802 5.55343 4.5715 0
M  V30 1887 C 185.828 4.28782 4.07308 0
M  V30 1888 C 185.19 5.49172 4.41123 0
M  V30 1889 H 181.289 0.237123 0.745182 0
M  V30 1890 H 183.873 1.14246 1.57658 0
M  V30 1891 H 182.044 0.124565 3.882 0
M  V30 1892 H 183.776 0.31969 4.03435 0
M  V30 1893 H 180.531 2.33708 4.11919 0
M  V30 1894 H 180.955 4.89911 4.67243 0
M  V30 1895 H 185.597 2.19576 3.61312 0
M  V30 1896 H 183.315 6.47826 4.8306 0
M  V30 1897 H 186.901 4.26995 3.95179 0
M  V30 1898 H 185.781 6.38371 4.55469 0
M  V30 1899 N 183.284 -1.43765 0.645699 0
M  V30 1900 C 184.512 -2.06253 0.163556 0
M  V30 1901 C 184.927 -1.48352 -1.16778 0
M  V30 1902 O 184.284 -0.611932 -1.71935 0
M  V30 1903 C 184.335 -3.61453 0.0583186 0
M  V30 1904 O 184.056 -4.172 1.33702 0
M  V30 1905 C 185.557 -4.41002 -0.450795 0
M  V30 1906 H 182.777 -0.665413 0.0864077 0
M  V30 1907 H 185.321 -1.84396 0.884222 0
M  V30 1908 H 183.476 -3.82522 -0.612865 0
M  V30 1909 H 183.89 -5.10791 1.19131 0
M  V30 1910 H 185.364 -5.49966 -0.473403 0
M  V30 1911 H 185.841 -4.13488 -1.48068 0
M  V30 1912 H 186.447 -4.24886 0.187637 0
M  V30 1913 N 184.763 -0.387143 -1.52771 0
M  V30 1914 C 185.726 0.436939 -2.24997 0
M  V30 1915 C 186.726 0.991991 -1.26555 0
M  V30 1916 O 187.916 0.874335 -1.50669 0
M  V30 1917 C 185.048 1.61281 -3.00335 0
M  V30 1918 H 186.241 -0.195365 -2.99263 0
M  V30 1919 H 183.794 -0.139218 -1.55679 0
M  V30 1920 H 184.529 2.2826 -2.30364 0
M  V30 1921 H 184.314 1.22154 -3.72587 0
M  V30 1922 H 185.804 2.19629 -3.5518 0
M  V30 1923 N 186.241 1.57166 -0.116904 0
M  V30 1924 C 187.171 2.18222 0.830759 0
M  V30 1925 C 188.152 1.12167 1.27877 0
M  V30 1926 O 189.337 1.40394 1.34176 0
M  V30 1927 C 186.467 2.77996 2.08172 0
M  V30 1928 C 185.421 3.89614 1.77157 0
M  V30 1929 C 184.747 4.36187 3.09265 0
M  V30 1930 C 186.047 5.1181 1.04151 0
M  V30 1931 H 187.741 2.97664 0.321992 0
M  V30 1932 H 185.287 1.4318 0.153434 0
M  V30 1933 H 187.24 3.19366 2.74924 0
M  V30 1934 H 185.964 1.9584 2.6137 0
M  V30 1935 H 184.623 3.48816 1.12796 0
M  V30 1936 H 184.271 3.50893 3.60393 0
M  V30 1937 H 183.971 5.11455 2.89288 0
M  V30 1938 H 185.495 4.80207 3.77139 0
M  V30 1939 H 186.909 5.50214 1.61052 0
M  V30 1940 H 185.306 5.92648 0.942762 0
M  V30 1941 H 186.376 4.84892 0.0279022 0
M  V30 1942 N 187.719 -0.156864 1.56817 0
M  V30 1943 C 188.967 -0.869404 1.82444 0
M  V30 1944 C 189.288 -1.82147 0.69623 0
M  V30 1945 O 188.558 -1.93847 -0.28287 0
M  V30 1946 H 187.138 -0.324043 0.673056 0
M  V30 1947 H 189.8 -0.153224 1.94297 0
M  V30 1948 H 188.896 -1.43761 2.77019 0
M  V30 1949 N 189.197 -1.51736 -0.425897 0
M  V30 1950 C 190.613 -1.40166 -0.76326 0
M  V30 1951 C 190.813 -0.492962 -1.95377 0
M  V30 1952 O 189.869 0.0475815 -2.52455 0
M  V30 1953 C 191.182 -2.82403 -1.03291 0
M  V30 1954 C 192.73 -2.91632 -1.13665 0
M  V30 1955 C 193.205 -4.34801 -1.43916 0
M  V30 1956 N 194.696 -4.3796 -1.50816 0
M  V30 1957 C 195.431 -5.4578 -1.75817 0
M  V30 1958 N 194.927 -6.63744 -1.98534 0
M  V30 1959 N 196.72 -5.33274 -1.77694 0
M  V30 1960 H 188.871 -2.09361 0.358 0
M  V30 1961 H 191.134 -0.942941 0.0978094 0
M  V30 1962 H 190.84 -3.50943 -0.230696 0
M  V30 1963 H 190.714 -3.22428 -1.95754 0
M  V30 1964 H 193.101 -2.23284 -1.92947 0
M  V30 1965 H 193.182 -2.55088 -0.190756 0
M  V30 1966 H 192.826 -5.03703 -0.65157 0
M  V30 1967 H 192.756 -4.68868 -2.39729 0
M  V30 1968 H 195.247 -3.52919 -1.35118 0
M  V30 1969 H 195.56 -7.41704 -2.17013 0
M  V30 1970 H 193.905 -6.66839 -1.95832 0
M  V30 1971 H 197.096 -4.40098 -1.59473 0
M  V30 1972 H 197.269 -6.1738 -1.9684 0
M  V30 1973 N 190.675 0.682077 -1.42076 0
M  V30 1974 C 191.952 1.43755 -1.32642 0
M  V30 1975 C 192.332 2.11063 0.0396611 0
M  V30 1976 O 191.68 2.02701 1.05474 0
M  V30 1977 C 191.89 2.44596 -2.48946 0
M  V30 1978 C 193.238 3.09454 -2.9073 0
M  V30 1979 O 194.262 2.54922 -2.48783 0
M  V30 1980 O 193.121 4.08253 -3.63307 0
M  V30 1981 H 190.215 0.640857 -0.522715 0
M  V30 1982 H 192.761 0.711415 -1.54068 0
M  V30 1983 H 191.533 1.93609 -3.40046 0
M  V30 1984 H 191.156 3.24701 -2.29467 0
M  V30 1985 N 192.153 1.28127 0.917671 0
M  V30 1986 C 193.116 1.11744 2.00115 0
M  V30 1987 C 194.116 0.0583052 1.60694 0
M  V30 1988 O 195.306 0.303755 1.71531 0
M  V30 1989 C 192.438 0.704862 3.33533 0
M  V30 1990 H 193.631 2.07966 2.16079 0
M  V30 1991 H 191.184 1.11058 1.09981 0
M  V30 1992 H 191.919 -0.258299 3.2327 0
M  V30 1993 H 191.704 1.4699 3.63505 0
M  V30 1994 H 193.194 0.612768 4.1308 0
M  V30 1995 N 193.631 -1.12557 1.10312 0
M  V30 1996 C 194.541 -2.21841 0.763142 0
M  V30 1997 C 195.557 -1.72354 -0.238801 0
M  V30 1998 O 196.733 -2.01249 -0.0778746 0
M  V30 1999 C 193.798 -3.46131 0.198632 0
M  V30 2000 C 192.859 -4.10464 1.25769 0
M  V30 2001 C 192.092 -5.28821 0.72002 0
M  V30 2002 O 192.315 -5.6859 -0.453993 0
M  V30 2003 O 191.249 -5.83437 1.47935 0
M  V30 2004 H 195.075 -2.53312 1.67532 0
M  V30 2005 H 192.66 -1.20867 0.878157 0
M  V30 2006 H 194.542 -4.2125 -0.112401 0
M  V30 2007 H 193.217 -3.16338 -0.686419 0
M  V30 2008 H 192.124 -3.3713 1.62156 0
M  V30 2009 H 193.457 -4.44408 2.11571 0
M  V30 2010 N 195.109 -0.891671 -1.2995 0
M  V30 2011 C 196.039 -0.379797 -2.30391 0
M  V30 2012 C 197.02 0.540919 -1.6127 0
M  V30 2013 O 198.205 0.453352 -1.88834 0
M  V30 2014 C 195.335 0.400654 -3.44981 0
M  V30 2015 C 194.289 -0.428905 -4.25846 0
M  V30 2016 C 193.615 0.478557 -5.32554 0
M  V30 2017 C 194.915 -1.67458 -4.94727 0
M  V30 2018 H 196.609 -1.21914 -2.73454 0
M  V30 2019 H 194.155 -0.587675 -1.31462 0
M  V30 2020 H 196.108 0.769434 -4.14316 0
M  V30 2021 H 194.832 1.27371 -3.0074 0
M  V30 2022 H 193.491 -0.779911 -3.58208 0
M  V30 2023 H 193.139 1.34951 -4.84559 0
M  V30 2024 H 192.839 -0.0727433 -5.87555 0
M  V30 2025 H 194.363 0.843705 -6.04743 0
M  V30 2026 H 195.777 -1.376 -5.56542 0
M  V30 2027 H 194.174 -2.16659 -5.59624 0
M  V30 2028 H 195.244 -2.41518 -4.20473 0
M  V30 2029 N 196.587 1.43421 -0.653314 0
M  V30 2030 C 197.517 2.33487 0.0246656 0
M  V30 2031 C 198.498 1.49475 0.811863 0
M  V30 2032 O 199.683 1.78139 0.773322 0
M  V30 2033 C 196.813 3.32841 0.99166 0
M  V30 2034 C 195.767 4.26842 0.314568 0
M  V30 2035 C 195.093 5.16236 1.39302 0
M  V30 2036 C 196.393 5.16243 -0.793095 0
M  V30 2037 H 198.087 2.90427 -0.727481 0
M  V30 2038 H 195.633 1.39649 -0.351287 0
M  V30 2039 H 197.586 3.94747 1.47487 0
M  V30 2040 H 196.31 2.74158 1.77497 0
M  V30 2041 H 194.969 3.663 -0.148199 0
M  V30 2042 H 194.617 4.53891 2.16776 0
M  V30 2043 H 194.317 5.79948 0.945223 0
M  V30 2044 H 195.841 5.81015 1.87759 0
M  V30 2045 H 197.255 5.71958 -0.392039 0
M  V30 2046 H 195.652 5.88676 -1.16536 0
M  V30 2047 H 196.722 4.55927 -1.65103 0
M  V30 2048 N 198.065 0.39524 1.52563 0
M  V30 2049 C 199.012 -0.437036 2.26624 0
M  V30 2050 C 199.982 -1.05281 1.28472 0
M  V30 2051 O 201.167 -1.07971 1.57311 0
M  V30 2052 C 198.307 -1.55524 3.08069 0
M  V30 2053 C 197.42 -0.961745 4.21158 0
M  V30 2054 C 196.555 -2.05149 4.89987 0
M  V30 2055 C 195.594 -1.4342 5.95061 0
M  V30 2056 N 194.731 -2.46351 6.57462 0
M  V30 2057 H 199.571 0.200976 2.97322 0
M  V30 2058 H 197.108 0.110944 1.46681 0
M  V30 2059 H 199.066 -2.21437 3.53584 0
M  V30 2060 H 197.696 -2.16348 2.3957 0
M  V30 2061 H 196.748 -0.192048 3.79915 0
M  V30 2062 H 198.06 -0.470701 4.96574 0
M  V30 2063 H 197.214 -2.78819 5.38837 0
M  V30 2064 H 195.953 -2.57615 4.14109 0
M  V30 2065 H 194.958 -0.682774 5.45544 0
M  V30 2066 H 196.183 -0.917416 6.72875 0
M  V30 2067 H 194.129 -2.97975 5.8442 0
M  V30 2068 H 194.046 -2.02019 7.28508 0
M  V30 2069 H 195.314 -3.19633 7.10954 0
M  V30 2070 N 199.544 -1.57102 0.125237 0
M  V30 2071 C 200.507 -2.14471 -0.80838 0
M  V30 2072 C 201.507 -1.0811 -1.19033 0
M  V30 2073 O 202.697 -1.33856 -1.11482 0
M  V30 2074 C 199.829 -2.69005 -2.09402 0
M  V30 2075 H 201.022 -2.98297 -0.309696 0
M  V30 2076 H 198.575 -1.55807 -0.124051 0
M  V30 2077 H 199.31 -1.88785 -2.63687 0
M  V30 2078 H 199.095 -3.46799 -1.82957 0
M  V30 2079 H 200.585 -3.13278 -2.76128 0
M  V30 2080 N 201.022 0.148545 -1.56898 0
M  V30 2081 C 201.952 1.18524 -2.01182 0
M  V30 2082 C 202.933 1.4489 -0.891123 0
M  V30 2083 O 204.118 1.55836 -1.15882 0
M  V30 2084 C 201.248 2.51879 -2.39112 0
M  V30 2085 C 200.202 2.40038 -3.54353 0
M  V30 2086 C 199.528 3.78089 -3.78091 0
M  V30 2087 C 200.828 1.88577 -4.87069 0
M  V30 2088 H 202.522 0.817029 -2.88036 0
M  V30 2089 H 200.068 0.391575 -1.38574 0
M  V30 2090 H 202.021 3.24627 -2.68692 0
M  V30 2091 H 200.745 2.90532 -1.49193 0
M  V30 2092 H 199.404 1.69742 -3.24936 0
M  V30 2093 H 199.052 4.14175 -2.85426 0
M  V30 2094 H 198.752 3.71028 -4.55645 0
M  V30 2095 H 200.276 4.52387 -4.10095 0
M  V30 2096 H 201.69 2.51117 -5.15377 0
M  V30 2097 H 200.087 1.9241 -5.68417 0
M  V30 2098 H 201.157 0.84136 -4.77545 0
M  V30 2099 N 202.5 1.5196 0.417844 0
M  V30 2100 C 203.748 1.65263 1.16329 0
M  V30 2101 C 204.069 0.380634 1.91249 0
M  V30 2102 O 203.339 -0.604214 1.86349 0
M  V30 2103 H 201.919 0.60912 0.432414 0
M  V30 2104 H 204.581 1.88969 0.477162 0
M  V30 2105 H 203.677 2.4896 1.88217 0
M  V30 2106 N 203.978 -0.674533 1.42435 0
M  V30 2107 C 205.227 -1.43034 1.42212 0
M  V30 2108 C 205.54 -1.95555 0.0420788 0
M  V30 2109 O 206.746 -2.71374 -0.0827558 0
M  V30 2110 C 205.202 -2.58748 2.50155 0
M  V30 2111 C 204.81 -2.12925 3.94166 0
M  V30 2112 C 206.554 -3.36257 2.59098 0
M  V30 2113 C 204.461 -3.25723 4.93618 0
M  V30 2114 H 203.391 -0.537345 0.528939 0
M  V30 2115 H 206.042 -0.73024 1.68344 0
M  V30 2116 H 204.424 -3.31128 2.17188 0
M  V30 2117 H 205.598 -1.47697 4.36488 0
M  V30 2118 H 203.913 -1.48354 3.89076 0
M  V30 2119 H 206.51 -4.20264 3.30578 0
M  V30 2120 H 206.853 -3.82866 1.63461 0
M  V30 2121 H 207.386 -2.70947 2.9126 0
M  V30 2122 H 204.125 -2.84105 5.90732 0
M  V30 2123 H 203.645 -3.89732 4.55926 0
M  V30 2124 H 205.324 -3.91186 5.15347 0
M  V30 2125 N 205.456 -1.28612 -0.910864 0
M  V30 2126 C 206.681 -1.1891 -1.69927 0
M  V30 2127 C 207.106 0.248372 -1.86453 0
M  V30 2128 O 206.464 1.17961 -1.37676 0
M  V30 2129 C 206.512 -1.89578 -3.06745 0
M  V30 2130 O 205.616 -1.20521 -3.94396 0
M  V30 2131 H 204.957 -0.412632 -0.520222 0
M  V30 2132 H 207.487 -1.69985 -1.1387 0
M  V30 2133 H 207.497 -1.97597 -3.56958 0
M  V30 2134 H 206.172 -2.94136 -2.94035 0
M  V30 2135 H 204.749 -1.20684 -3.52831 0
M  V30 2136 N 206.934 1.1197 -1.10907 0
M  V30 2137 C 208.211 1.79959 -0.766432 0
M  V30 2138 C 208.591 1.97466 0.746363 0
M  V30 2139 O 207.939 1.55491 1.67436 0
M  V30 2140 C 208.149 3.14009 -1.52314 0
M  V30 2141 C 209.497 3.89134 -1.69883 0
M  V30 2142 O 210.521 3.2368 -1.48692 0
M  V30 2143 O 209.38 5.06572 -2.05054 0
M  V30 2144 H 206.474 0.779208 -0.277062 0
M  V30 2145 H 209.02 1.18762 -1.21217 0
M  V30 2146 H 207.792 2.96587 -2.55249 0
M  V30 2147 H 207.415 3.82915 -1.07059 0
M  V30 2148 N 208.412 0.89855 1.29475 0
M  V30 2149 C 209.637 0.538561 2.00285 0
M  V30 2150 C 210.062 -0.869135 1.66816 0
M  V30 2151 O 209.42 -1.57831 0.892145 0
M  V30 2152 C 209.468 0.736475 3.52999 0
M  V30 2153 O 208.572 -0.211537 4.11857 0
M  V30 2154 H 207.913 0.210563 0.62973 0
M  V30 2155 H 210.443 1.20982 1.64998 0
M  V30 2156 H 210.453 0.640685 4.02938 0
M  V30 2157 H 209.128 1.76276 3.76696 0
M  V30 2158 H 207.705 -0.0682991 3.72837 0
M  V30 2159 N 209.89 -1.43072 0.660911 0
M  V30 2160 C 211.118 -2.06067 0.185422 0
M  V30 2161 C 211.533 -1.49582 -1.15198 0
M  V30 2162 O 210.89 -0.630134 -1.71276 0
M  V30 2163 C 210.941 -3.61371 0.0966523 0
M  V30 2164 O 210.662 -4.15758 1.38119 0
M  V30 2165 C 212.163 -4.41455 -0.403996 0
M  V30 2166 H 209.383 -0.664459 0.0934604 0
M  V30 2167 H 211.927 -1.83447 0.90373 0
M  V30 2168 H 210.082 -3.8315 -0.572259 0
M  V30 2169 H 210.496 -5.09499 1.24542 0
M  V30 2170 H 211.97 -5.50437 -0.415045 0
M  V30 2171 H 212.447 -4.15036 -1.43674 0
M  V30 2172 H 213.053 -4.24663 0.232691 0
M  V30 2173 N 211.368 -0.403325 -1.52352 0
M  V30 2174 C 212.615 0.174347 -2.01748 0
M  V30 2175 C 212.943 1.45636 -1.2892 0
M  V30 2176 O 212.198 1.9193 -0.382258 0
M  V30 2177 C 212.497 0.474665 -3.54234 0
M  V30 2178 C 212.163 -0.717458 -4.45155 0
M  V30 2179 C 210.825 -1.04447 -4.69728 0
M  V30 2180 C 213.177 -1.51432 -4.98716 0
M  V30 2181 C 210.505 -2.16963 -5.45109 0
M  V30 2182 C 212.857 -2.6302 -5.75329 0
M  V30 2183 C 211.521 -2.96213 -5.98175 0
M  V30 2184 H 210.791 0.0637981 -0.738248 0
M  V30 2185 H 213.438 -0.543553 -1.83624 0
M  V30 2186 H 211.743 1.27406 -3.70506 0
M  V30 2187 H 213.44 0.934496 -3.89959 0
M  V30 2188 H 210.03 -0.452596 -4.26204 0
M  V30 2189 H 214.214 -1.27491 -4.79645 0
M  V30 2190 H 209.47 -2.43034 -5.61021 0
M  V30 2191 H 213.644 -3.25158 -6.15829 0
M  V30 2192 H 211.271 -3.83516 -6.56368 0
M  V30 2193 N 212.846 1.57033 -0.133567 0
M  V30 2194 C 214.257 1.82593 0.389464 0
M  V30 2195 C 214.608 1.05156 1.6564 0
M  V30 2196 O 213.733 0.292644 2.14412 0
M  V30 2197 C 214.328 3.31204 0.713377 0
M  V30 2198 C 212.887 3.57393 1.18098 0
M  V30 2199 C 212.034 2.76598 0.197126 0
M  V30 2200 H 214.985 1.54598 -0.358481 0
M  V30 2201 H 215.006 3.46627 1.56939 0
M  V30 2202 H 214.518 3.87537 -0.2089 0
M  V30 2203 H 212.619 3.06433 2.11966 0
M  V30 2204 H 212.732 4.65915 1.11624 0
M  V30 2205 H 211.096 2.45257 0.687088 0
M  V30 2206 H 211.879 3.35697 -0.718504 0
M  V30 2207 N 214.325 -0.140222 1.56975 0
M  V30 2208 C 215.574 -0.850152 1.82908 0
M  V30 2209 C 215.887 -1.82028 0.715892 0
M  V30 2210 O 217.093 -2.57485 0.861016 0
M  V30 2211 C 215.549 -1.5625 3.24213 0
M  V30 2212 C 215.157 -0.63443 4.43485 0
M  V30 2213 C 216.901 -2.25881 3.59413 0
M  V30 2214 C 214.808 -1.34879 5.75814 0
M  V30 2215 H 213.738 -0.321221 0.682153 0
M  V30 2216 H 216.389 -0.102874 1.83211 0
M  V30 2217 H 214.771 -2.35565 3.18316 0
M  V30 2218 H 215.945 0.12398 4.60633 0
M  V30 2219 H 214.26 -0.0461836 4.16374 0
M  V30 2220 H 216.857 -2.79978 4.5554 0
M  V30 2221 H 217.2 -3.02693 2.85802 0
M  V30 2222 H 217.733 -1.53477 3.67001 0
M  V30 2223 H 214.472 -0.622385 6.52539 0
M  V30 2224 H 213.992 -2.07974 5.6259 0
M  V30 2225 H 215.671 -1.88784 6.18845 0
M  V30 2226 N 215.803 -1.52179 -0.40978 0
M  V30 2227 C 216.713 -1.78364 -1.52392 0
M  V30 2228 C 217.729 -0.669183 -1.60617 0
M  V30 2229 O 218.905 -0.954518 -1.77344 0
M  V30 2230 C 215.97 -1.92822 -2.88133 0
M  V30 2231 C 215.031 -3.16725 -2.898 0
M  V30 2232 C 214.264 -3.30483 -4.19067 0
M  V30 2233 O 214.487 -2.49522 -5.12928 0
M  V30 2234 O 213.421 -4.2363 -4.27576 0
M  V30 2235 H 217.247 -2.72931 -1.33201 0
M  V30 2236 H 214.832 -1.37016 -0.59557 0
M  V30 2237 H 216.714 -2.04157 -3.68643 0
M  V30 2238 H 215.389 -1.01444 -3.07393 0
M  V30 2239 H 214.296 -3.10848 -2.08146 0
M  V30 2240 H 215.629 -4.07881 -2.75489 0
M  V30 2241 N 217.281 0.66697 -1.42791 0
M  V30 2242 C 218.53 1.42278 -1.42968 0
M  V30 2243 C 218.843 1.9553 -0.0524489 0
M  V30 2244 O 220.049 2.71414 0.068363 0
M  V30 2245 C 218.505 2.57418 -2.51524 0
M  V30 2246 C 218.113 2.10832 -3.9529 0
M  V30 2247 C 219.857 3.34878 -2.60877 0
M  V30 2248 C 217.764 3.23101 -4.95338 0
M  V30 2249 H 216.694 0.534533 -0.531781 0
M  V30 2250 H 219.345 0.721302 -1.68729 0
M  V30 2251 H 217.727 3.29971 -2.18941 0
M  V30 2252 H 218.901 1.4538 -4.37266 0
M  V30 2253 H 217.216 1.46289 -3.89857 0
M  V30 2254 H 219.813 4.18505 -3.32802 0
M  V30 2255 H 220.156 3.81993 -1.6549 0
M  V30 2256 H 220.689 2.69398 -2.92693 0
M  V30 2257 H 217.428 2.80969 -5.9223 0
M  V30 2258 H 216.948 3.87309 -4.57987 0
M  V30 2259 H 218.627 3.88447 -5.17415 0
M  V30 2260 N 218.759 1.29093 0.90403 0
M  V30 2261 C 219.989 1.19516 1.68522 0
M  V30 2262 C 220.397 -0.24738 1.87576 0
M  V30 2263 O 219.74 -1.17798 1.40959 0
M  V30 2264 C 219.802 1.83249 3.0929 0
M  V30 2265 C 219.466 3.32531 3.13484 0
M  V30 2266 C 220.463 4.28821 2.93953 0
M  V30 2267 C 218.148 3.73656 3.35688 0
M  V30 2268 C 220.142 5.64212 2.96553 0
M  V30 2269 C 217.829 5.0917 3.37919 0
M  V30 2270 C 218.827 6.04258 3.18373 0
M  V30 2271 O 218.515 7.37298 3.20385 0
M  V30 2272 H 218.247 0.415467 0.533257 0
M  V30 2273 H 220.801 1.70912 1.13922 0
M  V30 2274 H 219.031 1.26358 3.65473 0
M  V30 2275 H 220.72 1.68054 3.69476 0
M  V30 2276 H 221.486 3.98382 2.76616 0
M  V30 2277 H 217.365 3.00101 3.49943 0
M  V30 2278 H 220.909 6.38407 2.81216 0
M  V30 2279 H 216.806 5.39256 3.54787 0
M  V30 2280 H 217.574 7.46048 3.36681 0
M  V30 2281 N 220.237 -1.11381 1.11499 0
M  V30 2282 C 221.187 -2.15555 0.74298 0
M  V30 2283 C 222.171 -1.58894 -0.253276 0
M  V30 2284 O 223.363 -1.76897 -0.0602918 0
M  V30 2285 C 220.492 -3.42782 0.188481 0
M  V30 2286 C 219.578 -4.064 1.21244 0
M  V30 2287 N 219.969 -4.44864 2.40685 0
M  V30 2288 C 218.267 -4.3333 1.05552 0
M  V30 2289 C 218.968 -4.94715 3.05994 0
M  V30 2290 N 217.944 -4.90909 2.33472 0
M  V30 2291 H 221.746 -2.43074 1.65203 0
M  V30 2292 H 219.26 -1.28401 0.994329 0
M  V30 2293 H 221.257 -4.16789 -0.0961693 0
M  V30 2294 H 219.917 -3.16727 -0.715149 0
M  V30 2295 H 220.928 -4.36876 2.78136 0
M  V30 2296 H 217.605 -4.1698 0.208372 0
M  V30 2297 H 218.995 -5.34103 4.07656 0
M  V30 2298 N 221.715 -0.905404 -1.28997 0
M  V30 2299 C 222.663 -0.377431 -2.29517 0
M  V30 2300 C 223.657 0.526461 -1.61012 0
M  V30 2301 O 224.863 0.40863 -1.753 0
M  V30 2302 H 221.238 -0.103437 -0.744852 0
M  V30 2303 H 223.209 -1.23848 -2.71485 0
M  V30 2304 C 221.958 0.374833 -3.45674 0
M  V30 2305 H 221.281 -0.311474 -3.98585 0
M  V30 2306 H 222.721 0.70903 -4.1803 0
M  V30 2307 C 221.18 1.57963 -2.97572 0
M  V30 2308 O 221.71 2.67886 -2.99333 0
M  V30 2309 N 219.916 1.42375 -2.53333 0
M  V30 2310 H 219.463 0.529466 -2.521 0
M  V30 2311 H 219.421 2.23117 -2.21509 0
M  V30 2312 N 223.193 1.4272 -0.668489 0
M  V30 2313 C 224.441 2.01226 -0.187769 0
M  V30 2314 C 224.762 1.53092 1.2078 0
M  V30 2315 O 224.032 0.74993 1.80977 0
M  V30 2316 H 222.612 0.744041 -0.0664272 0
M  V30 2317 H 225.274 1.74723 -0.863583 0
M  V30 2318 H 224.37 3.11556 -0.184166 0
M  V30 2319 N 224.671 0.411399 1.52136 0
M  V30 2320 C 226.082 -0.0576826 1.86611 0
M  V30 2321 C 226.433 -1.44238 1.33003 0
M  V30 2322 O 225.558 -2.05759 0.670228 0
M  V30 2323 C 226.153 -0.111448 3.38617 0
M  V30 2324 C 224.712 -0.52487 3.72723 0
M  V30 2325 C 223.859 0.299176 2.75681 0
M  V30 2326 H 226.81 0.628368 1.4573 0
M  V30 2327 H 226.831 -0.926252 3.69054 0
M  V30 2328 H 226.343 0.896488 3.77604 0
M  V30 2329 H 224.444 -1.53936 3.39315 0
M  V30 2330 H 224.557 -0.267681 4.78352 0
M  V30 2331 H 222.921 -0.238814 2.53578 0
M  V30 2332 H 223.704 1.3055 3.17508 0
M  V30 2333 N 226.149 -1.5696 0.141893 0
M  V30 2334 C 227.565 -1.58151 -0.21456 0
M  V30 2335 C 227.765 -1.1559 -1.65049 0
M  V30 2336 O 226.821 -0.853832 -2.37626 0
M  V30 2337 C 228.134 -3.00674 0.0395576 0
M  V30 2338 C 229.682 -3.1299 -0.0245529 0
M  V30 2339 C 230.157 -4.57554 0.202167 0
M  V30 2340 N 231.648 -4.62961 0.148919 0
M  V30 2341 C 232.383 -5.7262 0.298924 0
M  V30 2342 N 231.879 -6.90947 0.50637 0
M  V30 2343 N 233.672 -5.61601 0.236886 0
M  V30 2344 H 225.823 -1.8292 1.07953 0
M  V30 2345 H 228.086 -0.846425 0.42693 0
M  V30 2346 H 227.792 -3.36183 1.03315 0
M  V30 2347 H 227.666 -3.70981 -0.682143 0
M  V30 2348 H 230.053 -2.77326 -1.00869 0
M  V30 2349 H 230.134 -2.4518 0.729396 0
M  V30 2350 H 229.778 -4.93922 1.18338 0
M  V30 2351 H 229.708 -5.23484 -0.572044 0
M  V30 2352 H 232.199 -3.77899 -0.00697015 0
M  V30 2353 H 232.512 -7.7038 0.611076 0
M  V30 2354 H 230.857 -6.92878 0.542628 0
M  V30 2355 H 234.048 -4.68039 0.0756209 0
M  V30 2356 H 234.221 -6.47015 0.357227 0
M  V30 2357 N 227.627 0.131896 -1.57047 0
M  V30 2358 C 228.577 1.1679 -1.95816 0
M  V30 2359 C 229.561 1.37756 -0.831393 0
M  V30 2360 O 230.753 1.39065 -1.09499 0
M  V30 2361 C 227.882 2.49778 -2.35512 0
M  V30 2362 C 226.968 2.32342 -3.54793 0
M  V30 2363 N 227.359 1.8469 -4.70875 0
M  V30 2364 C 225.657 2.63043 -3.60173 0
M  V30 2365 C 226.358 1.80656 -5.52936 0
M  V30 2366 N 225.334 2.24528 -4.95064 0
M  V30 2367 H 229.136 0.791818 -2.83033 0
M  V30 2368 H 226.65 0.339791 -1.58805 0
M  V30 2369 H 228.647 3.24692 -2.61498 0
M  V30 2370 H 227.307 2.88156 -1.49654 0
M  V30 2371 H 228.318 1.54429 -4.9434 0
M  V30 2372 H 224.995 3.05193 -2.84892 0
M  V30 2373 H 226.385 1.45178 -6.56028 0
M  V30 2374 N 229.106 1.52395 0.401703 0
M  V30 2375 C 230.352 1.67065 1.14966 0
M  V30 2376 C 230.685 0.403052 1.89971 0
M  V30 2377 O 229.96 -0.598774 1.85054 0
M  V30 2378 C 230.243 2.8975 2.13815 0
M  V30 2379 C 230.096 4.26578 1.42658 0
M  V30 2380 C 231.415 3.07965 3.14397 0
M  V30 2381 H 228.534 0.607968 0.416587 0
M  V30 2382 H 231.176 1.84965 0.434511 0
M  V30 2383 H 229.326 2.74619 2.74803 0
M  V30 2384 H 230.998 4.53451 0.847329 0
M  V30 2385 H 229.241 4.27639 0.72849 0
M  V30 2386 H 229.912 5.08483 2.14823 0
M  V30 2387 H 232.388 3.22043 2.63491 0
M  V30 2388 H 231.264 3.95308 3.80819 0
M  V30 2389 H 231.525 2.21611 3.82545 0
M  V30 2390 N 230.584 -0.659388 1.43143 0
M  V30 2391 C 231.831 -1.41935 1.44433 0
M  V30 2392 C 232.159 -1.94387 0.0663522 0
M  V30 2393 O 231.414 -1.72314 -0.927706 0
M  V30 2394 C 231.713 -2.62206 2.42864 0
M  V30 2395 C 231.379 -2.28208 3.88886 0
M  V30 2396 C 230.041 -2.18647 4.28657 0
M  V30 2397 C 232.393 -2.00887 4.8093 0
M  V30 2398 C 229.721 -1.79914 5.58433 0
M  V30 2399 C 232.073 -1.63653 6.11065 0
M  V30 2400 C 230.737 -1.52614 6.49819 0
M  V30 2401 H 230.007 -0.519376 0.528517 0
M  V30 2402 H 232.654 -0.750453 1.76183 0
M  V30 2403 H 230.959 -3.34199 2.04495 0
M  V30 2404 H 232.656 -3.2041 2.41119 0
M  V30 2405 H 229.246 -2.36557 3.57406 0
M  V30 2406 H 233.43 -2.07198 4.5098 0
M  V30 2407 H 228.686 -1.69948 5.87305 0
M  V30 2408 H 232.86 -1.41543 6.81864 0
M  V30 2409 H 230.487 -1.22371 7.50286 0
M  V30 2410 N 232.062 -1.29571 -0.897171 0
M  V30 2411 C 233.308 -1.17863 -1.65034 0
M  V30 2412 C 233.641 0.268729 -1.92332 0
M  V30 2413 O 232.916 1.19378 -1.53555 0
M  V30 2414 C 233.199 -1.995 -2.99786 0
M  V30 2415 C 233.052 -3.5239 -2.79538 0
M  V30 2416 C 234.371 -1.82335 -4.00552 0
M  V30 2417 H 231.49 -0.429528 -0.598895 0
M  V30 2418 H 234.132 -1.59072 -1.03905 0
M  V30 2419 H 232.282 -1.64485 -3.51962 0
M  V30 2420 H 233.954 -3.97401 -2.34244 0
M  V30 2421 H 232.197 -3.77187 -2.14273 0
M  V30 2422 H 232.868 -4.04787 -3.75302 0
M  V30 2423 H 235.344 -2.12924 -3.57495 0
M  V30 2424 H 234.22 -2.41801 -4.92771 0
M  V30 2425 H 234.481 -0.779209 -4.35179 0
M  V30 2426 N 233.54 1.10788 -1.12088 0
M  V30 2427 C 234.788 1.8231 -0.872205 0
M  V30 2428 C 235.109 1.85419 0.603709 0
M  V30 2429 O 234.379 1.32963 1.43867 0
M  V30 2430 H 232.959 0.675137 -0.319686 0
M  V30 2431 H 235.621 1.34068 -1.41463 0
M  V30 2432 H 234.717 2.85955 -1.25045 0
M  V30 2433 N 235.018 0.912232 1.28515 0
M  V30 2434 C 235.948 0.416403 2.29757 0
M  V30 2435 C 236.929 -0.515194 1.6211 0
M  V30 2436 O 238.114 -0.423253 1.89532 0
M  V30 2437 C 235.244 -0.34572 3.45575 0
M  V30 2438 C 234.198 0.496599 4.25109 0
M  V30 2439 C 233.524 -0.393771 5.33248 0
M  V30 2440 C 234.824 1.75307 4.92001 0
M  V30 2441 H 236.518 1.26249 2.7148 0
M  V30 2442 H 234.064 0.608515 1.30511 0
M  V30 2443 H 236.017 -0.703422 4.15488 0
M  V30 2444 H 234.741 -1.2257 3.02728 0
M  V30 2445 H 233.4 0.8368 3.56922 0
M  V30 2446 H 233.048 -1.27225 4.86644 0
M  V30 2447 H 232.748 0.166209 5.87365 0
M  V30 2448 H 234.272 -0.747389 6.06009 0
M  V30 2449 H 235.686 1.46437 5.54283 0
M  V30 2450 H 234.083 2.25534 5.56106 0
M  V30 2451 H 235.153 2.48176 4.16577 0
M  V30 2452 N 236.496 -1.42363 0.676048 0
M  V30 2453 C 237.907 -1.84649 0.275948 0
M  V30 2454 C 238.258 -1.56588 -1.18214 0
M  V30 2455 O 237.383 -1.02634 -1.90513 0
M  V30 2456 C 237.978 -3.35178 0.494053 0
M  V30 2457 C 236.537 -3.76109 0.148061 0
M  V30 2458 C 235.684 -2.65931 0.785891 0
M  V30 2459 H 238.635 -1.32192 0.878121 0
M  V30 2460 H 238.656 -3.79655 -0.25343 0
M  V30 2461 H 238.168 -3.55571 1.55535 0
M  V30 2462 H 236.269 -3.61323 -0.909742 0
M  V30 2463 H 236.382 -4.7546 0.589454 0
M  V30 2464 H 234.746 -2.53773 0.217113 0
M  V30 2465 H 235.529 -2.89146 1.85067 0
M  V30 2466 N 237.974 -0.419461 -1.51915 0
M  V30 2467 C 239.199 0.154572 -2.06823 0
M  V30 2468 C 239.624 1.3722 -1.28656 0
M  V30 2469 O 238.982 1.78461 -0.319583 0
M  V30 2470 C 239.03 0.473172 -3.57482 0
M  V30 2471 O 238.134 1.56255 -3.81652 0
M  V30 2472 H 237.475 0.0096924 -0.663929 0
M  V30 2473 H 240.005 -0.595642 -1.95738 0
M  V30 2474 H 240.015 0.728825 -4.01438 0
M  V30 2475 H 238.69 -0.416873 -4.13805 0
M  V30 2476 H 237.267 1.29825 -3.49571 0
M  V30 2477 N 239.452 1.56882 -0.150215 0
M  V30 2478 C 240.701 1.95403 0.500071 0
M  V30 2479 C 241.014 1.03777 1.658 0
M  V30 2480 O 242.22 1.31889 2.37313 0
M  V30 2481 C 240.676 3.4738 0.941018 0
M  V30 2482 C 240.284 4.47596 -0.190158 0
M  V30 2483 C 242.028 3.9476 1.56091 0
M  V30 2484 C 239.935 5.90787 0.269237 0
M  V30 2485 H 238.865 0.729515 0.190588 0
M  V30 2486 H 241.516 1.81988 -0.235074 0
M  V30 2487 H 239.898 3.56138 1.73152 0
M  V30 2488 H 241.072 4.50536 -0.967157 0
M  V30 2489 H 239.387 4.10151 -0.718666 0
M  V30 2490 H 241.984 4.99181 1.9163 0
M  V30 2491 H 242.327 3.36494 2.45107 0
M  V30 2492 H 242.86 3.88932 0.835249 0
M  V30 2493 H 239.599 6.52879 -0.585621 0
M  V30 2494 H 239.119 5.912 1.01204 0
M  V30 2495 H 240.798 6.42979 0.720176 0
M  V30 2496 N 240.93 -0.123565 1.57115 0
M  V30 2497 C 242.207 -0.862196 1.75572 0
M  V30 2498 C 242.587 -1.98279 0.724475 0
M  V30 2499 O 241.935 -2.27102 -0.252407 0
M  V30 2500 C 242.145 -1.38309 3.20424 0
M  V30 2501 C 243.493 -1.83724 3.82793 0
M  V30 2502 O 244.517 -1.47999 3.23998 0
M  V30 2503 O 243.376 -2.49685 4.86127 0
M  V30 2504 H 240.47 -0.409113 0.718718 0
M  V30 2505 H 243.016 -0.107661 1.69358 0
M  V30 2506 H 241.788 -0.578889 3.86994 0
M  V30 2507 H 241.411 -2.20046 3.31158 0
M  V30 2508 N 242.408 -1.52605 -0.393616 0
M  V30 2509 C 243.371 -1.76415 -1.46323 0
M  V30 2510 C 244.371 -0.634126 -1.47768 0
M  V30 2511 O 245.561 -0.902142 -1.4902 0
M  V30 2512 C 242.693 -1.8607 -2.85641 0
M  V30 2513 H 243.886 -2.71916 -1.26498 0
M  V30 2514 H 241.439 -1.43257 -0.625073 0
M  V30 2515 H 242.174 -0.925378 -3.10817 0
M  V30 2516 H 241.959 -2.68235 -2.85993 0
M  V30 2517 H 243.449 -2.06179 -3.63153 0
M  V30 2518 N 243.887 0.651787 -1.4349 0
M  V30 2519 C 244.817 1.77621 -1.51569 0
M  V30 2520 C 245.798 1.66022 -0.370253 0
M  V30 2521 O 246.983 1.85095 -0.587658 0
M  V30 2522 C 244.113 3.16056 -1.43966 0
M  V30 2523 C 243.067 3.4242 -2.56774 0
M  V30 2524 C 242.393 4.8067 -2.34223 0
M  V30 2525 C 243.693 3.37023 -3.99015 0
M  V30 2526 H 245.387 1.71117 -2.45681 0
M  V30 2527 H 242.933 0.821825 -1.18246 0
M  V30 2528 H 244.886 3.94472 -1.48221 0
M  V30 2529 H 243.61 3.23293 -0.463586 0
M  V30 2530 H 242.269 2.66375 -2.51873 0
M  V30 2531 H 241.917 4.84585 -1.34856 0
M  V30 2532 H 241.617 4.9927 -3.09844 0
M  V30 2533 H 243.141 5.61342 -2.40265 0
M  V30 2534 H 244.555 4.05374 -4.05395 0
M  V30 2535 H 242.952 3.67159 -4.74673 0
M  V30 2536 H 244.022 2.3518 -4.2405 0
M  V30 2537 N 245.365 1.30045 0.890287 0
M  V30 2538 C 246.59 1.21598 1.68014 0
M  V30 2539 C 247.015 -0.218678 1.86825 0
M  V30 2540 O 246.373 -1.15756 1.39536 0
M  V30 2541 C 246.421 1.94434 3.03691 0
M  V30 2542 O 245.525 1.2678 3.92429 0
M  V30 2543 H 244.866 0.420856 0.513592 0
M  V30 2544 H 247.396 1.71775 1.11151 0
M  V30 2545 H 247.406 2.03251 3.5377 0
M  V30 2546 H 246.081 2.98777 2.89318 0
M  V30 2547 H 244.658 1.26282 3.50866 0
M  V30 2548 N 246.843 -1.10192 1.12674 0
M  V30 2549 C 247.806 -2.14786 0.799979 0
M  V30 2550 C 248.806 -1.59711 -0.18685 0
M  V30 2551 O 249.996 -1.74156 0.0392558 0
M  V30 2552 C 247.128 -3.40374 0.189228 0
M  V30 2553 H 248.321 -2.45203 1.72671 0
M  V30 2554 H 245.874 -1.25597 0.930326 0
M  V30 2555 H 246.609 -3.15577 -0.747107 0
M  V30 2556 H 246.394 -3.81637 0.899766 0
M  V30 2557 H 247.884 -4.17594 -0.0228143 0
M  V30 2558 N 248.321 -0.919034 -1.28029 0
M  V30 2559 C 249.251 -0.428581 -2.29533 0
M  V30 2560 C 250.232 0.50659 -1.62381 0
M  V30 2561 O 251.417 0.413195 -1.89753 0
M  V30 2562 C 248.547 0.327388 -3.45753 0
M  V30 2563 C 247.501 -0.519137 -4.2484 0
M  V30 2564 C 246.827 0.365486 -5.33449 0
M  V30 2565 C 248.127 -1.77914 -4.91064 0
M  V30 2566 H 249.821 -1.27687 -2.70807 0
M  V30 2567 H 247.367 -0.615428 -1.30186 0
M  V30 2568 H 249.32 0.681378 -4.15855 0
M  V30 2569 H 248.044 1.20963 -3.03374 0
M  V30 2570 H 246.703 -0.855717 -3.56473 0
M  V30 2571 H 246.351 1.24642 -4.87312 0
M  V30 2572 H 246.051 -0.197356 -5.87268 0
M  V30 2573 H 247.575 0.715241 -6.06396 0
M  V30 2574 H 248.989 -1.49374 -5.53498 0
M  V30 2575 H 247.386 -2.2848 -5.54903 0
M  V30 2576 H 248.456 -2.50382 -4.15255 0
M  V30 2577 N 249.799 1.42003 -0.683588 0
M  V30 2578 C 250.749 2.27997 0.0121992 0
M  V30 2579 C 251.733 1.4156 0.764822 0
M  V30 2580 O 252.925 1.64935 0.642287 0
M  V30 2581 C 250.054 3.29706 0.956482 0
M  V30 2582 C 249.14 4.23625 0.200739 0
M  V30 2583 N 249.531 4.99448 -0.799087 0
M  V30 2584 C 247.829 4.43845 0.437937 0
M  V30 2585 C 248.53 5.68102 -1.25041 0
M  V30 2586 N 247.506 5.40511 -0.578648 0
M  V30 2587 H 251.308 2.84048 -0.754564 0
M  V30 2588 H 248.822 1.54071 -0.513398 0
M  V30 2589 H 250.819 3.90124 1.47 0
M  V30 2590 H 249.479 2.75216 1.72297 0
M  V30 2591 H 250.49 5.04303 -1.17893 0
M  V30 2592 H 247.167 4.00382 1.18325 0
M  V30 2593 H 248.557 6.38913 -2.07942 0
M  V30 2594 N 251.277 0.427512 1.51691 0
M  V30 2595 C 252.688 -0.0378867 1.86662 0
M  V30 2596 C 253.039 -1.42819 1.34525 0
M  V30 2597 O 252.164 -2.05037 0.692014 0
M  V30 2598 C 252.759 -0.0755266 3.38716 0
M  V30 2599 C 251.318 -0.485309 3.73258 0
M  V30 2600 C 250.465 0.328399 2.75349 0
M  V30 2601 H 253.416 0.64379 1.45055 0
M  V30 2602 H 253.437 -0.887056 3.70016 0
M  V30 2603 H 252.949 0.936487 3.76632 0
M  V30 2604 H 251.05 -1.50329 3.40928 0
M  V30 2605 H 251.163 -0.21693 4.78609 0
M  V30 2606 H 249.527 -0.211905 2.53817 0
M  V30 2607 H 250.31 1.3391 3.16106 0
M  V30 2608 N 252.755 -1.56801 0.158532 0
M  V30 2609 C 254.032 -1.88131 -0.535357 0
M  V30 2610 C 254.412 -1.06638 -1.82186 0
M  V30 2611 O 253.76 -0.156533 -2.27963 0
M  V30 2612 C 253.97 -3.39949 -0.789653 0
M  V30 2613 C 255.318 -4.09416 -1.12533 0
M  V30 2614 O 256.342 -3.45194 -0.878622 0
M  V30 2615 O 255.201 -5.22855 -1.59014 0
M  V30 2616 H 252.295 -0.780143 -0.27442 0
M  V30 2617 H 254.841 -1.68564 0.19601 0
M  V30 2618 H 253.613 -3.91115 0.120353 0
M  V30 2619 H 253.236 -3.65084 -1.57479 0
M  V30 2620 N 254.233 0.115231 -1.57178 0
M  V30 2621 C 255.183 1.14707 -1.97044 0
M  V30 2622 C 256.167 1.36866 -0.845957 0
M  V30 2623 O 257.359 1.37895 -1.10968 0
M  V30 2624 C 254.488 2.47266 -2.38148 0
M  V30 2625 C 253.574 2.28566 -3.57237 0
M  V30 2626 N 253.965 1.79685 -4.72807 0
M  V30 2627 C 252.263 2.59208 -3.62943 0
M  V30 2628 C 252.964 1.74781 -5.54821 0
M  V30 2629 N 251.94 2.19264 -4.97417 0
M  V30 2630 H 255.742 0.761754 -2.83857 0
M  V30 2631 H 253.256 0.322928 -1.59157 0
M  V30 2632 H 255.253 3.219 -2.64927 0
M  V30 2633 H 253.913 2.86552 -1.52702 0
M  V30 2634 H 254.924 1.49177 -4.9595 0
M  V30 2635 H 251.601 3.02154 -2.88113 0
M  V30 2636 H 252.991 1.38212 -6.57531 0
M  V30 2637 N 255.711 1.52812 0.385517 0
M  V30 2638 C 257.127 1.4214 0.725829 0
M  V30 2639 C 257.327 0.544589 1.94001 0
M  V30 2640 O 256.383 0.0193693 2.52493 0
M  V30 2641 C 257.696 2.85042 0.957668 0
M  V30 2642 C 259.244 2.94543 1.05892 0
M  V30 2643 C 259.719 4.38464 1.32337 0
M  V30 2644 N 261.21 4.41804 1.39151 0
M  V30 2645 C 261.945 5.5025 1.61285 0
M  V30 2646 N 261.441 6.68775 1.80866 0
M  V30 2647 N 263.234 5.37798 1.63492 0
M  V30 2648 H 255.385 2.08338 -0.413383 0
M  V30 2649 H 257.648 0.940016 -0.122775 0
M  V30 2650 H 257.354 3.51431 0.137568 0
M  V30 2651 H 257.228 3.27505 1.87137 0
M  V30 2652 H 259.615 2.28321 1.86959 0
M  V30 2653 H 259.696 2.55504 0.123057 0
M  V30 2654 H 259.34 5.05254 0.517793 0
M  V30 2655 H 259.27 4.75059 2.27214 0
M  V30 2656 H 261.761 3.56377 1.25713 0
M  V30 2657 H 262.074 7.47197 1.97271 0
M  V30 2658 H 260.419 6.71797 1.78083 0
M  V30 2659 H 263.61 4.44171 1.47749 0
M  V30 2660 H 263.783 6.22382 1.80402 0
M  V30 2661 N 257.189 -0.644168 1.43834 0
M  V30 2662 C 258.152 -1.73857 1.49353 0
M  V30 2663 C 259.152 -1.56315 0.377112 0
M  V30 2664 O 260.342 -1.62048 0.639226 0
M  V30 2665 C 257.474 -3.12819 1.35488 0
M  V30 2666 H 258.667 -1.70342 2.46827 0
M  V30 2667 H 256.22 -0.856652 1.30733 0
M  V30 2668 H 256.955 -3.2194 0.390569 0
M  V30 2669 H 256.74 -3.26958 2.16428 0
M  V30 2670 H 258.23 -3.92606 1.42302 0
M  V30 2671 N 258.668 -1.30515 -0.883378 0
M  V30 2672 C 259.598 -1.19607 -2.00541 0
M  V30 2673 C 260.579 -0.086346 -1.69881 0
M  V30 2674 O 261.764 -0.268654 -1.92333 0
M  V30 2675 C 258.894 -0.888758 -3.35736 0
M  V30 2676 C 257.848 -1.95659 -3.8066 0
M  V30 2677 C 257.174 -1.50224 -5.13164 0
M  V30 2678 C 258.474 -3.36788 -3.99213 0
M  V30 2679 H 260.168 -2.13476 -2.09925 0
M  V30 2680 H 257.714 -1.02775 -1.00863 0
M  V30 2681 H 259.667 -0.799094 -4.13754 0
M  V30 2682 H 258.391 0.0856125 -3.26488 0
M  V30 2683 H 257.05 -2.03591 -3.04871 0
M  V30 2684 H 256.698 -0.516092 -5.00345 0
M  V30 2685 H 256.398 -2.2165 -5.44192 0
M  V30 2686 H 257.922 -1.42639 -5.93706 0
M  V30 2687 H 259.336 -3.31605 -4.67665 0
M  V30 2688 H 257.733 -4.06314 -4.41621 0
M  V30 2689 H 258.803 -3.78561 -3.03017 0
M  V30 2690 N 260.146 1.09593 -1.13257 0
M  V30 2691 C 261.371 1.8604 -0.916732 0
M  V30 2692 C 261.796 1.80504 0.529146 0
M  V30 2693 O 261.154 1.18127 1.37534 0
M  V30 2694 C 261.202 3.32017 -1.40703 0
M  V30 2695 O 260.306 4.08141 -0.591153 0
M  V30 2696 H 259.647 0.576943 -0.328683 0
M  V30 2697 H 262.177 1.38405 -1.50682 0
M  V30 2698 H 262.187 3.82865 -1.4099 0
M  V30 2699 H 260.862 3.35361 -2.45979 0
M  V30 2700 H 259.439 3.67084 -0.656005 0
M  V30 2701 N 261.624 0.925811 1.2754 0
M  V30 2702 C 262.572 0.413897 2.28888 0
M  V30 2703 C 263.566 -0.500779 1.61829 0
M  V30 2704 O 264.772 -0.38069 1.75928 0
M  V30 2705 H 261.147 0.115274 0.743112 0
M  V30 2706 H 263.118 1.28151 2.69481 0
M  V30 2707 C 261.867 -0.319792 3.46226 0
M  V30 2708 H 261.19 0.374846 3.98039 0
M  V30 2709 H 262.63 -0.642435 4.19105 0
M  V30 2710 C 261.089 -1.53209 3.00048 0
M  V30 2711 O 261.619 -2.6309 3.03557 0
M  V30 2712 N 259.825 -1.38326 2.55566 0
M  V30 2713 H 259.372 -0.489292 2.5291 0
M  V30 2714 H 259.33 -2.19564 2.25031 0
M  V30 2715 N 263.102 -1.41638 0.69111 0
M  V30 2716 C 264.349 -2.01299 0.220193 0
M  V30 2717 C 264.677 -1.54715 -1.17871 0
M  V30 2718 O 263.932 -0.747193 -1.80874 0
M  V30 2719 C 264.231 -3.56714 0.221277 0
M  V30 2720 C 263.897 -4.22792 1.56709 0
M  V30 2721 C 262.559 -4.40557 1.93554 0
M  V30 2722 C 264.911 -4.59883 2.45268 0
M  V30 2723 C 262.239 -4.92688 3.18552 0
M  V30 2724 C 264.591 -5.13403 3.69595 0
M  V30 2725 C 263.255 -5.29379 4.06589 0
M  V30 2726 H 262.525 -0.736606 0.0805743 0
M  V30 2727 H 265.172 -1.69598 0.889319 0
M  V30 2728 H 263.477 -3.8818 -0.531391 0
M  V30 2729 H 265.174 -4.00678 -0.160547 0
M  V30 2730 H 261.764 -4.09336 1.2705 0
M  V30 2731 H 265.948 -4.45817 2.18084 0
M  V30 2732 H 261.204 -5.03242 3.47214 0
M  V30 2733 H 265.378 -5.41084 4.38407 0
M  V30 2734 H 263.005 -5.69537 5.03519 0
M  V30 2735 N 264.58 -0.43555 -1.51462 0
M  V30 2736 C 265.53 0.394701 -2.24558 0
M  V30 2737 C 266.514 0.99157 -1.26715 0
M  V30 2738 O 267.706 0.910007 -1.51815 0
M  V30 2739 C 264.835 1.4963 -3.08975 0
M  V30 2740 C 263.921 0.908912 -4.14246 0
M  V30 2741 N 264.312 0.0505335 -5.05775 0
M  V30 2742 C 262.61 1.17668 -4.30198 0
M  V30 2743 C 263.311 -0.279161 -5.8103 0
M  V30 2744 N 262.287 0.336767 -5.42556 0
M  V30 2745 H 266.089 -0.267106 -2.92684 0
M  V30 2746 H 263.603 -0.247518 -1.60503 0
M  V30 2747 H 265.6 2.10394 -3.59917 0
M  V30 2748 H 264.26 2.16046 -2.42393 0
M  V30 2749 H 265.271 -0.31577 -5.16936 0
M  V30 2750 H 261.948 1.83847 -3.74842 0
M  V30 2751 H 263.338 -0.977553 -6.64751 0
M  V30 2752 N 266.058 1.56714 -0.166846 0
M  V30 2753 C 267.335 1.88412 0.525373 0
M  V30 2754 C 267.715 1.07602 1.81618 0
M  V30 2755 O 267.063 0.168621 2.27877 0
M  V30 2756 C 267.273 3.40363 0.771613 0
M  V30 2757 C 268.621 4.10007 1.1036 0
M  V30 2758 O 269.645 3.45655 0.860304 0
M  V30 2759 O 268.504 5.2369 1.56239 0
M  V30 2760 H 265.598 0.781587 0.270278 0
M  V30 2761 H 268.144 1.68458 -0.204946 0
M  V30 2762 H 266.916 3.91046 -0.141093 0
M  V30 2763 H 266.539 3.65914 1.55541 0
M  V30 2764 N 267.536 -0.106894 1.57237 0
M  V30 2765 C 268.469 -1.16125 1.96444 0
M  V30 2766 C 269.447 -1.3947 0.835871 0
M  V30 2767 O 270.631 -1.53425 1.09513 0
M  V30 2768 C 267.758 -2.51277 2.27107 0
M  V30 2769 C 266.804 -2.44285 3.4961 0
M  V30 2770 S 267.637 -1.87077 5.01759 0
M  V30 2771 C 268.793 -3.23877 5.35588 0
M  V30 2772 H 269.026 -0.826971 2.85567 0
M  V30 2773 H 266.559 -0.314124 1.51171 0
M  V30 2774 H 268.517 -3.29035 2.45451 0
M  V30 2775 H 267.178 -2.81879 1.38576 0
M  V30 2776 H 266.371 -3.4387 3.68469 0
M  V30 2777 H 265.973 -1.74652 3.30715 0
M  V30 2778 H 268.265 -4.20122 5.31511 0
M  V30 2779 H 269.208 -3.09833 6.36717 0
M  V30 2780 H 269.616 -3.22864 4.63054 0
M  V30 2781 N 269.014 -1.53014 -0.377408 0
M  V30 2782 C 269.977 -1.77957 -1.44444 0
M  V30 2783 C 270.977 -0.649763 -1.47087 0
M  V30 2784 O 272.167 -0.917897 -1.48055 0
M  V30 2785 C 269.299 -1.89089 -2.83651 0
M  V30 2786 H 270.492 -2.73243 -1.23606 0
M  V30 2787 H 268.045 -1.43912 -0.609844 0
M  V30 2788 H 268.78 -0.958293 -3.09818 0
M  V30 2789 H 268.565 -2.71254 -2.83132 0
M  V30 2790 H 270.055 -2.1002 -3.60945 0
M  V30 2791 N 270.492 0.636531 -1.44174 0
M  V30 2792 C 271.741 1.39213 -1.45954 0
M  V30 2793 C 272.054 1.95374 -0.0939119 0
M  V30 2794 O 273.26 2.71498 0.0107767 0
M  V30 2795 C 271.716 2.52025 -2.56927 0
M  V30 2796 C 271.324 2.024 -3.99673 0
M  V30 2797 C 273.068 3.29269 -2.67922 0
M  V30 2798 C 270.975 3.12521 -5.0208 0
M  V30 2799 H 269.905 0.523132 -0.542999 0
M  V30 2800 H 272.556 0.685349 -1.70221 0
M  V30 2801 H 270.938 3.25253 -2.25891 0
M  V30 2802 H 272.112 1.36073 -4.40251 0
M  V30 2803 H 270.427 1.37987 -3.92872 0
M  V30 2804 H 273.024 4.11352 -3.41605 0
M  V30 2805 H 273.367 3.78397 -1.73555 0
M  V30 2806 H 273.9 2.63129 -2.98342 0
M  V30 2807 H 270.639 2.68343 -5.98057 0
M  V30 2808 H 270.159 3.77507 -4.66099 0
M  V30 2809 H 271.838 3.77385 -5.25538 0
M  V30 2810 N 271.97 1.30982 0.876444 0
M  V30 2811 C 272.918 1.18006 2.00443 0
M  V30 2812 C 273.912 0.0898871 1.69161 0
M  V30 2813 O 275.118 0.251333 1.78237 0
M  V30 2814 H 271.493 0.365196 0.65737 0
M  V30 2815 H 273.464 2.13453 2.0852 0
M  V30 2816 C 272.213 0.897521 3.35916 0
M  V30 2817 H 271.536 1.7285 3.60504 0
M  V30 2818 H 272.976 0.846874 4.15456 0
M  V30 2819 C 271.435 -0.399674 3.34521 0
M  V30 2820 O 271.965 -1.41852 3.7582 0
M  V30 2821 N 270.171 -0.413893 2.87637 0
M  V30 2822 H 269.718 0.41571 2.54224 0
M  V30 2823 H 269.676 -1.28175 2.87086 0
M  V30 2824 N 273.449 -1.08991 1.13837 0
M  V30 2825 C 274.689 -1.82867 0.913183 0
M  V30 2826 C 275.053 -1.83936 -0.550604 0
M  V30 2827 O 276.254 -2.53515 -0.893515 0
M  V30 2828 C 274.525 -3.24843 1.49036 0
M  V30 2829 S 276.084 -4.15669 1.40588 0
M  V30 2830 H 272.902 -0.630278 0.329046 0
M  V30 2831 H 275.504 -1.31049 1.45073 0
M  V30 2832 H 274.208 -3.21644 2.54899 0
M  V30 2833 H 273.739 -3.81734 0.950947 0
M  V30 2834 H 275.754 -4.94686 0.387353 0
M  V30 2835 N 274.927 -0.932562 -1.27047 0
M  V30 2836 C 276.174 -0.575559 -1.94148 0
M  V30 2837 C 276.502 0.883984 -1.73251 0
M  V30 2838 O 275.757 1.64655 -1.0577 0
M  V30 2839 C 276.056 -0.853713 -3.47054 0
M  V30 2840 C 275.722 -2.29577 -3.88079 0
M  V30 2841 C 274.384 -2.68999 -3.9899 0
M  V30 2842 C 276.736 -3.23331 -4.08787 0
M  V30 2843 C 274.064 -4.01289 -4.28 0
M  V30 2844 C 276.416 -4.55207 -4.39282 0
M  V30 2845 C 275.08 -4.94457 -4.48407 0
M  V30 2846 H 274.35 -0.210612 -0.710439 0
M  V30 2847 H 276.997 -1.17744 -1.51025 0
M  V30 2848 H 275.302 -0.169204 -3.91434 0
M  V30 2849 H 276.999 -0.55639 -3.97121 0
M  V30 2850 H 273.589 -1.97994 -3.80127 0
M  V30 2851 H 277.773 -2.94074 -3.99793 0
M  V30 2852 H 273.029 -4.31374 -4.33275 0
M  V30 2853 H 277.203 -5.27852 -4.54252 0
M  V30 2854 H 274.83 -5.96994 -4.7064 0
M  V30 2855 N 276.405 1.4127 -0.698611 0
M  V30 2856 C 277.368 2.29158 -0.044132 0
M  V30 2857 C 278.368 1.44529 0.704841 0
M  V30 2858 O 279.558 1.65643 0.539276 0
M  V30 2859 C 276.69 3.27459 0.947809 0
M  V30 2860 H 277.883 2.88529 -0.817994 0
M  V30 2861 H 275.436 1.49307 -0.46228 0
M  V30 2862 H 276.171 2.73073 1.74933 0
M  V30 2863 H 275.956 3.8991 0.41385 0
M  V30 2864 H 277.446 3.93311 1.40344 0
M  V30 2865 N 277.883 0.443576 1.51229 0
M  V30 2866 C 279.131 -0.120557 2.0174 0
M  V30 2867 C 279.452 -1.42665 1.32935 0
M  V30 2868 O 278.722 -1.9028 0.465866 0
M  V30 2869 H 277.302 -0.0475426 0.745486 0
M  V30 2870 H 279.964 0.587711 1.85828 0
M  V30 2871 H 279.06 -0.291972 3.10731 0
M  V30 2872 N 279.361 -1.56624 0.175154 0
M  V30 2873 C 280.324 -2.16934 -0.739738 0
M  V30 2874 C 281.324 -1.11842 -1.15533 0
M  V30 2875 O 282.514 -1.37335 -1.07167 0
M  V30 2876 C 279.646 -2.75531 -2.00738 0
M  V30 2877 H 280.839 -2.99131 -0.214639 0
M  V30 2878 H 278.392 -1.56123 -0.0744197 0
M  V30 2879 H 279.127 -1.97078 -2.57548 0
M  V30 2880 H 278.912 -3.52444 -1.71831 0
M  V30 2881 H 280.402 -3.21904 -2.66021 0
M  V30 2882 N 280.839 0.0985539 -1.57292 0
M  V30 2883 C 282.087 0.801092 -1.85545 0
M  V30 2884 C 282.408 1.79438 -0.763353 0
M  V30 2885 O 281.678 1.94763 0.21073 0
M  V30 2886 H 280.258 0.29884 -0.684619 0
M  V30 2887 H 282.92 0.0810064 -1.94732 0
M  V30 2888 H 282.016 1.3338 -2.82163 0
M  V30 2889 N 282.317 1.53212 0.369288 0
M  V30 2890 C 283.733 1.42902 0.710712 0
M  V30 2891 C 283.933 0.565135 1.93413 0
M  V30 2892 O 282.989 0.0461484 2.52458 0
M  V30 2893 C 284.302 2.86042 0.927382 0
M  V30 2894 C 285.85 2.9565 1.02762 0
M  V30 2895 C 286.325 4.39843 1.27679 0
M  V30 2896 N 287.816 4.43256 1.34457 0
M  V30 2897 C 288.551 5.51929 1.55439 0
M  V30 2898 N 288.047 6.70655 1.73762 0
M  V30 2899 N 289.84 5.39502 1.57779 0
M  V30 2900 H 281.991 2.07888 -0.435457 0
M  V30 2901 H 284.254 0.938661 -0.132739 0
M  V30 2902 H 283.96 3.51557 0.100287 0
M  V30 2903 H 283.834 3.29472 1.83653 0
M  V30 2904 H 286.221 2.30291 1.84527 0
M  V30 2905 H 286.302 2.5562 0.0959504 0
M  V30 2906 H 285.946 5.05774 0.464175 0
M  V30 2907 H 285.876 4.77443 2.22162 0
M  V30 2908 H 288.367 3.5769 1.21926 0
M  V30 2909 H 288.68 7.49248 1.89335 0
M  V30 2910 H 287.025 6.73648 1.70948 0
M  V30 2911 H 290.216 4.45713 1.43029 0
M  V30 2912 H 290.389 6.2426 1.7379 0
M  V30 2913 N 283.795 -0.628877 1.44509 0
M  V30 2914 C 285.211 -0.947305 1.28446 0
M  V30 2915 C 285.411 -2.00275 0.221872 0
M  V30 2916 O 284.467 -2.49447 -0.391471 0
M  V30 2917 C 285.78 -1.40843 2.65676 0
M  V30 2918 C 287.328 -1.52379 2.73404 0
M  V30 2919 C 287.803 -2.01875 4.11109 0
M  V30 2920 N 289.294 -2.09142 4.13296 0
M  V30 2921 C 290.029 -2.48615 5.16699 0
M  V30 2922 N 289.525 -2.87209 6.30462 0
M  V30 2923 N 291.318 -2.48768 5.04054 0
M  V30 2924 H 283.469 0.0690977 2.12288 0
M  V30 2925 H 285.732 -0.0317164 0.947469 0
M  V30 2926 H 285.438 -0.707206 3.44516 0
M  V30 2927 H 285.312 -2.37902 2.92716 0
M  V30 2928 H 287.699 -2.21598 1.9488 0
M  V30 2929 H 287.78 -0.536898 2.50102 0
M  V30 2930 H 287.424 -1.3325 4.90109 0
M  V30 2931 H 287.354 -3.0144 4.31789 0
M  V30 2932 H 289.845 -1.81991 3.31191 0
M  V30 2933 H 290.158 -3.16149 7.05174 0
M  V30 2934 H 288.503 -2.84955 6.33897 0
M  V30 2935 H 291.694 -2.18009 4.14234 0
M  V30 2936 H 291.867 -2.79207 5.84763 0
M  V30 2937 N 285.273 -1.31445 -0.869486 0
M  V30 2938 C 286.519 -1.22347 -1.62489 0
M  V30 2939 C 286.874 0.216204 -1.91181 0
M  V30 2940 O 286.167 1.14977 -1.53268 0
M  V30 2941 C 286.361 -2.00145 -2.96102 0
M  V30 2942 C 286.19 -3.51531 -2.80456 0
M  V30 2943 C 284.96 -4.20882 -2.79618 0
M  V30 2944 C 287.158 -4.46471 -2.5528 0
M  V30 2945 N 285.14 -5.58421 -2.55027 0
M  V30 2946 C 286.511 -5.71682 -2.39957 0
M  V30 2947 C 288.566 -4.35892 -2.40629 0
M  V30 2948 C 287.269 -6.87511 -2.11472 0
M  V30 2949 C 289.295 -5.51505 -2.13532 0
M  V30 2950 C 288.657 -6.75707 -1.98998 0
M  V30 2951 H 284.756 -0.502815 -0.598917 0
M  V30 2952 H 287.34 -1.65639 -1.02332 0
M  V30 2953 H 285.511 -1.59221 -3.54264 0
M  V30 2954 H 287.243 -1.83063 -3.60929 0
M  V30 2955 H 283.998 -3.72857 -2.92018 0
M  V30 2956 H 284.422 -6.30841 -2.45701 0
M  V30 2957 H 289.064 -3.40533 -2.50593 0
M  V30 2958 H 286.782 -7.82897 -2.00245 0
M  V30 2959 H 290.368 -5.45238 -2.02995 0
M  V30 2960 H 289.248 -7.63655 -1.78326 0
M  V30 2961 N 286.751 1.08385 -1.14413 0
M  V30 2962 C 288.167 1.32844 -0.884563 0
M  V30 2963 C 288.367 1.95841 0.474181 0
M  V30 2964 O 287.423 2.21158 1.21842 0
M  V30 2965 C 288.736 2.22978 -2.01745 0
M  V30 2966 C 290.284 2.36458 -2.05077 0
M  V30 2967 C 290.759 3.29934 -3.1766 0
M  V30 2968 N 292.25 3.37511 -3.17239 0
M  V30 2969 C 292.985 4.09871 -4.0099 0
M  V30 2970 N 292.481 4.84936 -4.94781 0
M  V30 2971 N 294.274 4.05704 -3.89051 0
M  V30 2972 H 286.425 0.658756 -2.01926 0
M  V30 2973 H 288.688 0.352821 -0.879899 0
M  V30 2974 H 288.394 1.83934 -2.99769 0
M  V30 2975 H 288.268 3.23441 -1.94077 0
M  V30 2976 H 290.655 2.7476 -1.0766 0
M  V30 2977 H 290.736 1.35736 -2.16816 0
M  V30 2978 H 290.38 2.92352 -4.15322 0
M  V30 2979 H 290.31 4.30584 -3.03158 0
M  V30 2980 H 292.801 2.83996 -2.49308 0
M  V30 2981 H 293.114 5.37612 -5.55151 0
M  V30 2982 H 291.459 4.83988 -4.98779 0
M  V30 2983 H 294.65 3.46167 -3.15097 0
M  V30 2984 H 294.823 4.61834 -4.54547 0
M  V30 2985 N 288.23 0.939286 1.26551 0
M  V30 2986 C 289.455 0.602008 1.98471 0
M  V30 2987 C 289.88 -0.815624 1.69497 0
M  V30 2988 O 289.238 -1.54912 0.941905 0
M  V30 2989 C 289.286 0.848407 3.50477 0
M  V30 2990 O 288.39 -0.0804009 4.12322 0
M  V30 2991 H 287.731 0.23049 0.622712 0
M  V30 2992 H 290.261 1.2617 1.61066 0
M  V30 2993 H 290.271 0.768553 4.00696 0
M  V30 2994 H 288.946 1.88171 3.70897 0
M  V30 2995 H 287.523 0.0503508 3.72866 0
M  V30 2996 N 289.708 -1.40897 0.706093 0
M  V30 2997 C 291.124 -1.55042 0.37869 0
M  V30 2998 C 291.324 -1.67944 -1.11342 0
M  V30 2999 O 290.38 -1.66372 -1.89938 0
M  V30 3000 C 291.693 -2.78398 1.13643 0
M  V30 3001 C 293.241 -2.92206 1.12181 0
M  V30 3002 C 293.716 -4.18463 1.86152 0
M  V30 3003 N 295.207 -4.25443 1.83173 0
M  V30 3004 C 295.942 -5.2202 2.37239 0
M  V30 3005 N 295.438 -6.24563 2.99821 0
M  V30 3006 N 297.231 -5.14033 2.27435 0
M  V30 3007 H 289.382 -1.30769 1.67372 0
M  V30 3008 H 291.645 -0.631653 0.706907 0
M  V30 3009 H 291.351 -2.7511 2.19106 0
M  V30 3010 H 291.225 -3.70228 0.721853 0
M  V30 3011 H 293.612 -2.95004 0.0754171 0
M  V30 3012 H 293.693 -2.01521 1.57554 0
M  V30 3013 H 293.337 -4.16427 2.90776 0
M  V30 3014 H 293.267 -5.08141 1.38206 0
M  V30 3015 H 295.758 -3.51976 1.37556 0
M  V30 3016 H 296.071 -6.94665 3.38616 0
M  V30 3017 H 294.416 -6.25035 3.03902 0
M  V30 3018 H 297.607 -4.3285 1.78208 0
M  V30 3019 H 297.78 -5.89129 2.69873 0
M  V30 3020 N 291.186 -0.45159 -1.50991 0
M  V30 3021 C 292.119 0.398179 -2.24699 0
M  V30 3022 C 293.097 1.01276 -1.27208 0
M  V30 3023 O 294.281 1.05247 -1.56382 0
M  V30 3024 C 291.408 1.55618 -3.00833 0
M  V30 3025 C 290.454 1.0609 -4.13095 0
M  V30 3026 S 291.287 -0.00865136 -5.35499 0
M  V30 3027 C 292.443 1.15369 -6.15175 0
M  V30 3028 H 292.676 -0.227555 -2.96428 0
M  V30 3029 H 290.209 -0.236251 -1.52582 0
M  V30 3030 H 292.167 2.21997 -3.45293 0
M  V30 3031 H 290.828 2.15337 -2.28667 0
M  V30 3032 H 290.021 1.92726 -4.65696 0
M  V30 3033 H 289.623 0.47513 -3.7097 0
M  V30 3034 H 291.915 2.06925 -6.45126 0
M  V30 3035 H 292.858 0.667344 -7.04948 0
M  V30 3036 H 293.266 1.3987 -5.46897 0
M  V30 3037 N 292.664 1.56529 -0.183458 0
M  V30 3038 C 293.911 1.97244 0.458357 0
M  V30 3039 C 294.239 1.06992 1.62428 0
M  V30 3040 O 293.494 0.106542 1.9541 0
M  V30 3041 C 293.793 3.43939 0.971637 0
M  V30 3042 C 293.459 4.5083 -0.0796784 0
M  V30 3043 C 292.121 4.79786 -0.368584 0
M  V30 3044 C 294.473 5.15138 -0.792638 0
M  V30 3045 C 291.801 5.70345 -1.37563 0
M  V30 3046 C 294.153 6.06784 -1.78875 0
M  V30 3047 C 292.817 6.34102 -2.08497 0
M  V30 3048 H 292.087 0.721768 0.167725 0
M  V30 3049 H 294.734 1.89472 -0.277976 0
M  V30 3050 H 293.039 3.48724 1.78602 0
M  V30 3051 H 294.736 3.72791 1.47744 0
M  V30 3052 H 291.326 4.28317 0.155668 0
M  V30 3053 H 295.51 4.92868 -0.582659 0
M  V30 3054 H 290.766 5.89789 -1.61118 0
M  V30 3055 H 294.94 6.55677 -2.3465 0
M  V30 3056 H 292.567 7.04074 -2.86678 0
M  V30 3057 N 294.142 -0.090211 1.57342 0
M  V30 3058 C 295.367 -0.810082 1.90925 0
M  V30 3059 C 295.792 -1.71248 0.778187 0
M  V30 3060 O 295.15 -1.79278 -0.269991 0
M  V30 3061 C 295.198 -1.59529 3.23393 0
M  V30 3062 O 294.302 -2.70461 3.11327 0
M  V30 3063 H 293.643 -0.222231 0.625707 0
M  V30 3064 H 296.173 -0.0639716 2.045 0
M  V30 3065 H 296.183 -1.97847 3.5682 0
M  V30 3066 H 294.858 -0.933055 4.05299 0
M  V30 3067 H 293.435 -2.35135 2.89423 0
M  V30 3068 N 295.62 -1.53406 -0.361157 0
M  V30 3069 C 297.031 -1.61442 -0.937728 0
M  V30 3070 C 297.382 -0.48461 -1.90121 0
M  V30 3071 O 296.507 0.388312 -2.12888 0
M  V30 3072 C 297.102 -2.92624 -1.70753 0
M  V30 3073 C 295.661 -3.02981 -2.23337 0
M  V30 3074 C 294.808 -2.5677 -1.04712 0
M  V30 3075 H 297.759 -1.58083 -0.139816 0
M  V30 3076 H 297.78 -2.80675 -2.56908 0
M  V30 3077 H 297.292 -3.74834 -1.00604 0
M  V30 3078 H 295.393 -2.25368 -2.96715 0
M  V30 3079 H 295.506 -4.0814 -2.50916 0
M  V30 3080 H 293.87 -2.11752 -1.41539 0
M  V30 3081 H 294.653 -3.41402 -0.360539 0
M  V30 3082 N 297.098 0.621204 -1.44841 0
M  V30 3083 C 298.061 1.71459 -1.521 0
M  V30 3084 C 299.061 1.55696 -0.401933 0
M  V30 3085 O 300.251 1.61011 -0.664925 0
M  V30 3086 C 297.383 3.10624 -1.40447 0
M  V30 3087 H 298.576 1.66394 -2.49506 0
M  V30 3088 H 296.129 0.835745 -1.3208 0
M  V30 3089 H 296.864 3.21277 -0.441737 0
M  V30 3090 H 296.649 3.23473 -2.21602 0
M  V30 3091 H 298.139 3.90293 -1.4853 0
M  V30 3092 N 298.576 1.31904 0.862503 0
M  V30 3093 C 299.806 1.24817 1.64634 0
M  V30 3094 C 300.214 -0.187579 1.88268 0
M  V30 3095 O 299.557 -1.13253 1.44635 0
M  V30 3096 C 299.619 1.92996 3.03303 0
M  V30 3097 C 299.283 3.42336 3.02746 0
M  V30 3098 C 300.28 4.37956 2.80162 0
M  V30 3099 C 297.965 3.84147 3.2363 0
M  V30 3100 C 299.959 5.73361 2.78453 0
M  V30 3101 C 297.646 5.19663 3.21549 0
M  V30 3102 C 298.644 6.14081 2.98988 0
M  V30 3103 O 298.332 7.47118 2.96766 0
M  V30 3104 H 298.064 0.432222 0.519769 0
M  V30 3105 H 300.618 1.7445 1.08427 0
M  V30 3106 H 298.848 1.37922 3.61268 0
M  V30 3107 H 300.537 1.79723 3.63943 0
M  V30 3108 H 301.303 4.06981 2.63802 0
M  V30 3109 H 297.182 3.11083 3.40218 0
M  V30 3110 H 300.726 6.4703 2.60763 0
M  V30 3111 H 296.623 5.5027 3.37451 0
M  V30 3112 H 297.391 7.56382 3.12775 0
M  V30 3113 N 300.054 -1.07777 1.14986 0
M  V30 3114 C 301.302 -1.79934 0.920235 0
M  V30 3115 C 301.623 -1.86955 -0.554336 0
M  V30 3116 O 300.893 -1.36731 -1.40291 0
M  V30 3117 H 299.473 -0.666424 0.337473 0
M  V30 3118 H 302.135 -1.3027 1.44968 0
M  V30 3119 H 301.231 -2.82539 1.32583 0
M  V30 3120 N 301.532 -0.945985 -1.26051 0
M  V30 3121 C 302.778 -0.597002 -1.93814 0
M  V30 3122 C 303.111 0.862484 -1.73997 0
M  V30 3123 O 302.386 1.61769 -1.07986 0
M  V30 3124 C 302.669 -0.945937 -3.47454 0
M  V30 3125 C 302.522 -2.46052 -3.76535 0
M  V30 3126 C 303.841 -0.464785 -4.37639 0
M  V30 3127 H 300.96 -0.218366 -0.703907 0
M  V30 3128 H 303.602 -1.18107 -1.48831 0
M  V30 3129 H 301.752 -0.448902 -3.85898 0
M  V30 3130 H 303.424 -3.03065 -3.47778 0
M  V30 3131 H 301.667 -2.90194 -3.22444 0
M  V30 3132 H 302.338 -2.65517 -4.83947 0
M  V30 3133 H 304.814 -0.891016 -4.06448 0
M  V30 3134 H 303.69 -0.737712 -5.4392 0
M  V30 3135 H 303.951 0.635274 -4.37512 0
M  V30 3136 N 303.011 1.40521 -0.713556 0
M  V30 3137 C 304.257 2.01221 -0.252564 0
M  V30 3138 C 304.59 1.56444 1.1506 0
M  V30 3139 O 303.865 0.783597 1.78017 0
M  V30 3140 C 304.148 3.58582 -0.330332 0
M  V30 3141 C 304.001 4.13437 -1.77173 0
M  V30 3142 C 305.32 4.39079 0.299641 0
M  V30 3143 H 302.439 0.731077 -0.0932471 0
M  V30 3144 H 305.081 1.67026 -0.905673 0
M  V30 3145 H 303.231 3.87844 0.225737 0
M  V30 3146 H 304.903 3.9498 -2.38303 0
M  V30 3147 H 303.146 3.67801 -2.3001 0
M  V30 3148 H 303.817 5.22597 -1.77755 0
M  V30 3149 H 306.293 4.15735 -0.174139 0
M  V30 3150 H 305.169 5.4848 0.214771 0
M  V30 3151 H 305.43 4.19915 1.38288 0
M  V30 3152 N 304.489 0.459591 1.5075 0
M  V30 3153 C 305.399 -0.34613 2.32033 0
M  V30 3154 C 306.415 -1.00686 1.41909 0
M  V30 3155 O 307.591 -0.997361 1.7497 0
M  V30 3156 C 304.656 -1.42029 3.16273 0
M  V30 3157 C 303.717 -0.777362 4.22203 0
M  V30 3158 C 302.95 -1.80034 5.02418 0
M  V30 3159 O 303.173 -3.02544 4.83553 0
M  V30 3160 O 302.107 -1.37853 5.85901 0
M  V30 3161 H 305.933 0.318054 3.0203 0
M  V30 3162 H 303.518 0.221663 1.47746 0
M  V30 3163 H 305.4 -2.04275 3.68578 0
M  V30 3164 H 304.075 -2.06815 2.49016 0
M  V30 3165 H 302.982 -0.116256 3.73919 0
M  V30 3166 H 304.315 -0.172634 4.91897 0
M  V30 3167 N 305.967 -1.56429 0.191757 0
M  V30 3168 C 307.244 -1.89224 -0.495332 0
M  V30 3169 C 307.624 -1.10478 -1.79883 0
M  V30 3170 O 306.972 -0.204852 -2.2758 0
M  V30 3171 C 307.182 -3.41548 -0.717367 0
M  V30 3172 C 308.53 -4.11711 -1.03823 0
M  V30 3173 O 309.554 -3.4698 -0.805204 0
M  V30 3174 O 308.413 -5.2611 -1.47887 0
M  V30 3175 H 305.507 -0.785788 -0.25781 0
M  V30 3176 H 308.053 -1.68111 0.231721 0
M  V30 3177 H 306.825 -3.90772 0.203287 0
M  V30 3178 H 306.448 -3.68342 -1.497 0
M  V30 3179 N 307.445 0.0818655 -1.57387 0
M  V30 3180 C 308.408 1.08265 -2.02018 0
M  V30 3181 C 309.408 1.32183 -0.915664 0
M  V30 3182 O 310.598 1.28073 -1.18081 0
M  V30 3183 C 307.73 2.42871 -2.39221 0
M  V30 3184 H 308.923 0.698204 -2.91659 0
M  V30 3185 H 306.476 0.327303 -1.52835 0
M  V30 3186 H 307.211 2.86167 -1.52575 0
M  V30 3187 H 306.996 2.26855 -3.19811 0
M  V30 3188 H 308.486 3.14826 -2.74362 0
M  V30 3189 N 308.923 1.53595 0.353017 0
M  V30 3190 C 309.886 1.80232 1.41594 0
M  V30 3191 C 310.886 0.673081 1.46035 0
M  V30 3192 O 312.076 0.941335 1.46576 0
M  V30 3193 C 309.208 1.93578 2.80607 0
M  V30 3194 H 310.401 2.75174 1.19244 0
M  V30 3195 H 307.954 1.44864 0.586872 0
M  V30 3196 H 308.689 1.00746 3.08254 0
M  V30 3197 H 308.474 2.75724 2.78781 0
M  V30 3198 H 309.964 2.15735 3.57558 0
M  V30 3199 N 310.401 -0.613514 1.45168 0
M  V30 3200 C 311.629 -1.39946 1.5239 0
M  V30 3201 C 312.044 -1.88167 0.154531 0
M  V30 3202 O 311.401 -1.61872 -0.842843 0
M  V30 3203 C 311.452 -2.60795 2.50337 0
M  V30 3204 O 311.173 -2.1458 3.81952 0
M  V30 3205 C 312.674 -3.53723 2.67198 0
M  V30 3206 H 309.894 -0.428593 0.516284 0
M  V30 3207 H 312.438 -0.748753 1.903 0
M  V30 3208 H 310.593 -3.21919 2.15515 0
M  V30 3209 H 311.007 -2.93055 4.34993 0
M  V30 3210 H 312.481 -4.35079 3.39721 0
M  V30 3211 H 312.958 -4.0368 1.73029 0
M  V30 3212 H 313.564 -2.98456 3.02992 0
M  V30 3213 N 311.879 -1.3236 -0.855495 0
M  V30 3214 C 313.127 -1.22629 -1.60644 0
M  V30 3215 C 313.448 0.212136 -1.93843 0
M  V30 3216 O 312.718 1.13666 -1.59552 0
M  V30 3217 H 311.298 -0.450882 -0.595579 0
M  V30 3218 H 313.96 -1.65871 -1.02337 0
M  V30 3219 H 313.056 -1.80832 -2.54374 0
M  V30 3220 N 313.357 1.07166 -1.15556 0
M  V30 3221 C 314.582 1.84053 -0.955988 0
M  V30 3222 C 315.007 1.81586 0.490739 0
M  V30 3223 O 314.365 1.21018 1.34997 0
M  V30 3224 C 314.413 3.28957 -1.47714 0
M  V30 3225 O 313.517 4.06795 -0.677593 0
M  V30 3226 H 312.858 0.569842 -0.340847 0
M  V30 3227 H 315.388 1.35178 -1.53584 0
M  V30 3228 H 315.398 3.79788 -1.4908 0
M  V30 3229 H 314.073 3.30068 -2.53037 0
M  V30 3230 H 312.65 3.6561 -0.733721 0
M  V30 3231 N 314.835 0.952656 1.25548 0
M  V30 3232 C 315.798 0.475794 2.24207 0
M  V30 3233 C 316.798 -0.419428 1.55234 0
M  V30 3234 O 317.988 -0.216994 1.72843 0
M  V30 3235 C 315.12 -0.312814 3.39462 0
M  V30 3236 H 316.313 1.34779 2.67908 0
M  V30 3237 H 313.866 0.735739 1.37901 0
M  V30 3238 H 314.601 -1.20257 3.01179 0
M  V30 3239 H 314.386 0.329404 3.90714 0
M  V30 3240 H 315.876 -0.635986 4.12729 0
M  V30 3241 N 316.313 -1.40141 0.720998 0
M  V30 3242 C 317.276 -2.29058 0.0805834 0
M  V30 3243 C 318.276 -1.45632 -0.681758 0
M  V30 3244 O 319.466 -1.6648 -0.512856 0
M  V30 3245 C 316.598 -3.28925 -0.895593 0
M  V30 3246 H 317.791 -2.87191 0.863793 0
M  V30 3247 H 315.344 -1.48553 0.485975 0
M  V30 3248 H 316.079 -2.75822 -1.70566 0
M  V30 3249 H 315.864 -3.90519 -0.351766 0
M  V30 3250 H 317.354 -3.95494 -1.34069 0
M  V30 3251 N 317.792 -0.46758 -1.50504 0
M  V30 3252 C 319.04 0.0884469 -2.01906 0
M  V30 3253 C 319.361 1.40532 -1.35188 0
M  V30 3254 O 318.631 1.89515 -0.496079 0
M  V30 3255 H 317.211 0.0356765 -0.746148 0
M  V30 3256 H 319.873 -0.6172 -1.84869 0
M  V30 3257 H 318.969 0.2425 -3.11156 0
M  V30 3258 N 319.27 1.56325 -0.20005 0
M  V30 3259 C 320.681 1.8408 0.31167 0
M  V30 3260 C 321.032 1.12087 1.61031 0
M  V30 3261 O 320.157 0.38332 2.12978 0
M  V30 3262 C 320.752 3.33932 0.57226 0
M  V30 3263 C 319.311 3.6208 1.02834 0
M  V30 3264 C 318.458 2.77186 0.079634 0
M  V30 3265 H 321.409 1.52939 -0.423729 0
M  V30 3266 H 321.43 3.52971 1.42096 0
M  V30 3267 H 320.942 3.86303 -0.37308 0
M  V30 3268 H 319.043 3.15147 1.98778 0
M  V30 3269 H 319.156 4.7023 0.917624 0
M  V30 3270 H 317.52 2.47951 0.582448 0
M  V30 3271 H 318.303 3.32347 -0.860238 0
M  V30 3272 N 320.748 -0.0735177 1.57428 0
M  V30 3273 C 321.678 -1.0879 2.06608 0
M  V30 3274 C 322.659 -1.40473 0.959237 0
M  V30 3275 O 323.844 -1.5013 1.23185 0
M  V30 3276 C 320.974 -2.40183 2.50857 0
M  V30 3277 C 319.928 -2.22858 3.65402 0
M  V30 3278 C 319.254 -3.59619 3.957 0
M  V30 3279 C 320.554 -1.65123 4.95511 0
M  V30 3280 H 322.248 -0.678673 2.91607 0
M  V30 3281 H 319.794 -0.325013 1.40284 0
M  V30 3282 H 321.747 -3.11437 2.83874 0
M  V30 3283 H 320.471 -2.83083 1.62885 0
M  V30 3284 H 319.13 -1.54045 3.32664 0
M  V30 3285 H 318.778 -4.00086 3.04861 0
M  V30 3286 H 318.478 -3.48866 4.72828 0
M  V30 3287 H 320.002 -4.32306 4.31212 0
M  V30 3288 H 321.416 -2.26241 5.26771 0
M  V30 3289 H 319.813 -1.65071 5.7695 0
M  V30 3290 H 320.883 -0.612559 4.81015 0
M  V30 3291 N 322.226 -1.5378 -0.344866 0
M  V30 3292 C 323.189 -1.80981 -1.40637 0
M  V30 3293 C 324.189 -0.680816 -1.45676 0
M  V30 3294 O 325.379 -0.949095 -1.46075 0
M  V30 3295 C 322.511 -1.95063 -2.79577 0
M  V30 3296 H 323.704 -2.75803 -1.17783 0
M  V30 3297 H 321.257 -1.45173 -0.579181 0
M  V30 3298 H 321.992 -1.02379 -3.07716 0
M  V30 3299 H 321.777 -2.77198 -2.77315 0
M  V30 3300 H 323.267 -2.17629 -3.56409 0
M  V30 3301 N 323.704 0.605807 -1.45491 0
M  V30 3302 C 324.953 1.36086 -1.48874 0
M  V30 3303 C 325.266 1.95131 -0.135333 0
M  V30 3304 O 326.472 2.7146 -0.0468144 0
M  V30 3305 C 324.928 2.46518 -2.62215 0
M  V30 3306 C 324.536 1.93877 -4.03876 0
M  V30 3307 C 326.28 3.23512 -2.74846 0
M  V30 3308 C 324.187 3.01801 -5.08596 0
M  V30 3309 H 323.117 0.511497 -0.553974 0
M  V30 3310 H 325.768 0.649089 -1.71636 0
M  V30 3311 H 324.15 3.20388 -2.32739 0
M  V30 3312 H 325.324 1.26704 -4.43038 0
M  V30 3313 H 323.639 1.29622 -3.95711 0
M  V30 3314 H 326.236 4.04013 -3.50253 0
M  V30 3315 H 326.579 3.74631 -1.81542 0
M  V30 3316 H 327.112 2.56742 -3.03856 0
M  V30 3317 H 323.851 2.55597 -6.03614 0
M  V30 3318 H 323.371 3.67535 -4.74002 0
M  V30 3319 H 325.05 3.66152 -5.33424 0
M  V30 3320 N 325.182 1.32811 0.848464 0
M  V30 3321 C 326.132 1.18842 1.94578 0
M  V30 3322 C 327.116 0.0937517 1.60627 0
M  V30 3323 O 328.308 0.320887 1.74067 0
M  V30 3324 C 325.437 0.91999 3.30743 0
M  V30 3325 C 324.523 2.05665 3.70894 0
M  V30 3326 N 324.914 3.30579 3.8282 0
M  V30 3327 C 323.212 1.9612 4.00566 0
M  V30 3328 C 323.913 4.05067 4.17487 0
M  V30 3329 N 322.889 3.33419 4.2934 0
M  V30 3330 H 326.691 2.13536 2.0194 0
M  V30 3331 H 324.205 1.2468 1.0406 0
M  V30 3332 H 326.202 0.800859 4.09136 0
M  V30 3333 H 324.862 -0.0185076 3.24695 0
M  V30 3334 H 325.873 3.65441 3.66978 0
M  V30 3335 H 322.55 1.09871 4.02784 0
M  V30 3336 H 323.94 5.12815 4.34131 0
M  V30 3337 N 326.66 -1.06551 1.16123 0
M  V30 3338 C 327.59 -2.15935 0.88851 0
M  V30 3339 C 328.571 -1.69306 -0.164135 0
M  V30 3340 O 329.756 -1.94193 -0.0167857 0
M  V30 3341 C 326.886 -3.45149 0.385942 0
M  V30 3342 C 325.84 -4.05271 1.3762 0
M  V30 3343 C 325.166 -5.29664 0.732137 0
M  V30 3344 C 326.466 -4.44355 2.74493 0
M  V30 3345 H 328.16 -2.39006 1.80323 0
M  V30 3346 H 325.706 -1.14866 0.868435 0
M  V30 3347 H 327.659 -4.21004 0.182647 0
M  V30 3348 H 326.383 -3.21689 -0.564274 0
M  V30 3349 H 325.042 -3.3147 1.56599 0
M  V30 3350 H 324.69 -5.02499 -0.224483 0
M  V30 3351 H 324.39 -5.70848 1.39307 0
M  V30 3352 H 325.914 -6.08218 0.538802 0
M  V30 3353 H 327.328 -5.11303 2.59311 0
M  V30 3354 H 325.725 -4.96515 3.37035 0
M  V30 3355 H 326.795 -3.55339 3.29943 0
M  V30 3356 N 328.138 -0.959301 -1.25041 0
M  V30 3357 C 329.101 -0.487677 -2.23952 0
M  V30 3358 C 330.101 0.41119 -1.55454 0
M  V30 3359 O 331.291 0.207825 -1.72956 0
M  V30 3360 C 328.423 0.294807 -3.39623 0
M  V30 3361 H 329.616 -1.36198 -2.67189 0
M  V30 3362 H 327.169 -0.743042 -1.37508 0
M  V30 3363 H 327.904 1.18658 -3.01813 0
M  V30 3364 H 327.689 -0.35012 -3.90534 0
M  V30 3365 H 329.179 0.614089 -4.1306 0
M  V30 3366 N 329.616 1.39756 -0.72842 0
M  V30 3367 C 331.032 1.5442 -0.403308 0
M  V30 3368 C 331.232 1.69694 1.08656 0
M  V30 3369 O 330.288 1.69373 1.87267 0
M  V30 3370 C 331.601 2.76555 -1.18058 0
M  V30 3371 C 333.149 2.90384 -1.16815 0
M  V30 3372 C 333.624 4.15449 -1.92785 0
M  V30 3373 N 335.115 4.22475 -1.89918 0
M  V30 3374 C 335.85 5.1818 -2.45514 0
M  V30 3375 N 335.346 6.19714 -3.09719 0
M  V30 3376 N 337.139 5.1035 -2.35584 0
M  V30 3377 H 329.29 1.28089 -1.69431 0
M  V30 3378 H 331.553 0.620327 -0.716867 0
M  V30 3379 H 331.259 2.7159 -2.23455 0
M  V30 3380 H 331.133 3.69033 -0.780662 0
M  V30 3381 H 333.52 2.94846 -0.12234 0
M  V30 3382 H 333.601 1.98988 -1.6074 0
M  V30 3383 H 333.245 4.11749 -2.97364 0
M  V30 3384 H 333.175 5.05877 -1.46272 0
M  V30 3385 H 335.666 3.49743 -1.43138 0
M  V30 3386 H 335.979 6.8919 -3.49625 0
M  V30 3387 H 334.324 6.20121 -3.13807 0
M  V30 3388 H 337.515 4.2996 -1.85072 0
M  V30 3389 H 337.688 5.84761 -2.79211 0
M  V30 3390 N 331.094 0.475555 1.50254 0
M  V30 3391 C 332.044 -0.335025 2.25525 0
M  V30 3392 C 333.028 -0.957625 1.29299 0
M  V30 3393 O 334.22 -0.869436 1.54175 0
M  V30 3394 C 331.349 -1.41385 3.12834 0
M  V30 3395 C 330.435 -0.798762 4.1651 0
M  V30 3396 N 330.826 0.0835815 5.05731 0
M  V30 3397 C 329.124 -1.06221 4.33166 0
M  V30 3398 C 329.825 0.433113 5.80085 0
M  V30 3399 N 328.801 -0.1928 5.43258 0
M  V30 3400 H 332.603 0.344612 2.91873 0
M  V30 3401 H 330.117 0.289986 1.5979 0
M  V30 3402 H 332.114 -2.00777 3.65368 0
M  V30 3403 H 330.774 -2.09543 2.48036 0
M  V30 3404 H 331.785 0.452715 5.15918 0
M  V30 3405 H 328.462 -1.73844 3.79585 0
M  V30 3406 H 329.852 1.15346 6.61925 0
M  V30 3407 N 332.573 -1.56217 0.208337 0
M  V30 3408 C 333.821 -1.97558 -0.426076 0
M  V30 3409 C 334.142 -1.09683 -1.61229 0
M  V30 3410 O 333.412 -0.170956 -1.95153 0
M  V30 3411 H 331.992 -0.729575 -0.160405 0
M  V30 3412 H 334.654 -1.92606 0.298155 0
M  V30 3413 H 333.75 -3.02672 -0.761312 0
M  V30 3414 N 334.051 0.0651679 -1.57465 0
M  V30 3415 C 334.983 1.10359 -2.00882 0
M  V30 3416 C 335.996 1.346 -0.915788 0
M  V30 3417 O 337.185 1.32723 -1.1936 0
M  V30 3418 C 334.285 2.45312 -2.33828 0
M  V30 3419 C 333.458 2.40934 -3.65061 0
M  V30 3420 C 332.517 3.58047 -3.85602 0
M  V30 3421 O 331.543 3.39175 -4.57109 0
M  V30 3422 N 332.745 4.78637 -3.28462 0
M  V30 3423 H 335.51 0.733807 -2.90578 0
M  V30 3424 H 333.071 0.253719 -1.599 0
M  V30 3425 H 335.063 3.22314 -2.44737 0
M  V30 3426 H 333.633 2.74267 -1.49988 0
M  V30 3427 H 332.853 1.49273 -3.64844 0
M  V30 3428 H 334.141 2.35117 -4.51218 0
M  V30 3429 H 333.539 4.96872 -2.70433 0
M  V30 3430 H 332.096 5.53127 -3.44809 0
M  V30 3431 N 335.529 1.53961 0.336706 0
M  V30 3432 C 336.778 1.70751 1.07363 0
M  V30 3433 C 337.091 0.481061 1.89592 0
M  V30 3434 O 338.297 0.530046 2.66276 0
M  V30 3435 C 336.753 3.01965 1.95818 0
M  V30 3436 C 336.361 4.31971 1.18764 0
M  V30 3437 C 338.105 3.28121 2.69327 0
M  V30 3438 C 336.012 5.54255 2.06289 0
M  V30 3439 H 334.942 0.636292 0.404535 0
M  V30 3440 H 337.593 1.80459 0.332681 0
M  V30 3441 H 335.975 2.86132 2.7376 0
M  V30 3442 H 337.149 4.5853 0.456849 0
M  V30 3443 H 335.464 4.12481 0.569946 0
M  V30 3444 H 338.061 4.16673 3.35094 0
M  V30 3445 H 338.404 2.45426 3.36261 0
M  V30 3446 H 338.937 3.44762 1.98454 0
M  V30 3447 H 335.676 6.39513 1.43885 0
M  V30 3448 H 335.196 5.31935 2.77138 0
M  V30 3449 H 336.875 5.90159 2.65182 0
M  V30 3450 N 337.007 -0.598083 1.45811 0
M  V30 3451 C 337.917 -1.73632 1.57763 0
M  V30 3452 C 338.933 -1.67763 0.461676 0
M  V30 3453 O 340.109 -1.87949 0.723685 0
M  V30 3454 C 337.174 -3.10114 1.55018 0
M  V30 3455 C 336.235 -3.27364 2.77726 0
M  V30 3456 C 335.468 -4.57334 2.75102 0
M  V30 3457 O 335.691 -5.40258 1.8297 0
M  V30 3458 O 334.625 -4.77502 3.66437 0
M  V30 3459 H 338.451 -1.66498 2.53992 0
M  V30 3460 H 336.036 -0.763308 1.28429 0
M  V30 3461 H 337.918 -3.9141 1.56129 0
M  V30 3462 H 336.593 -3.17718 0.619431 0
M  V30 3463 H 335.5 -2.45619 2.82174 0
M  V30 3464 H 336.833 -3.24641 3.69958 0
M  V30 3465 N 338.485 -1.33259 -0.841409 0
M  V30 3466 C 339.732 -1.24572 -1.5965 0
M  V30 3467 C 340.06 0.189137 -1.93578 0
M  V30 3468 O 339.315 1.14566 -1.5866 0
M  V30 3469 C 339.614 -2.06381 -2.9179 0
M  V30 3470 C 339.28 -3.556 -2.77235 0
M  V30 3471 C 337.942 -3.96282 -2.72973 0
M  V30 3472 C 340.294 -4.50433 -2.62221 0
M  V30 3473 C 337.622 -5.30017 -2.51592 0
M  V30 3474 C 339.974 -5.84327 -2.42374 0
M  V30 3475 C 338.638 -6.24194 -2.36512 0
M  V30 3476 H 337.908 -0.455842 -0.5842 0
M  V30 3477 H 340.555 -1.6482 -0.975016 0
M  V30 3478 H 338.86 -1.58903 -3.5813 0
M  V30 3479 H 340.557 -1.97019 -3.49263 0
M  V30 3480 H 337.147 -3.23298 -2.81384 0
M  V30 3481 H 341.331 -4.19914 -2.64549 0
M  V30 3482 H 336.587 -5.59947 -2.45499 0
M  V30 3483 H 340.761 -6.57414 -2.29739 0
M  V30 3484 H 338.388 -7.27759 -2.19706 0
M  V30 3485 N 339.963 1.05934 -1.16686 0
M  V30 3486 C 341.211 1.78447 -0.948744 0
M  V30 3487 C 341.532 1.87813 0.524523 0
M  V30 3488 O 340.802 1.38945 1.38098 0
M  V30 3489 H 339.382 0.660971 -0.348033 0
M  V30 3490 H 342.044 1.27947 -1.47022 0
M  V30 3491 H 341.14 2.80394 -1.37061 0
M  V30 3492 N 341.441 0.965919 1.2453 0
M  V30 3493 C 342.373 0.452465 2.2469 0
M  V30 3494 C 343.386 -0.437821 1.56802 0
M  V30 3495 O 344.575 -0.244283 1.76821 0
M  V30 3496 C 341.675 -0.366258 3.36915 0
M  V30 3497 C 340.848 0.513701 4.34373 0
M  V30 3498 C 339.907 -0.248716 5.25612 0
M  V30 3499 O 338.933 0.356745 5.68081 0
M  V30 3500 N 340.135 -1.53877 5.59734 0
M  V30 3501 H 342.9 1.31361 2.69378 0
M  V30 3502 H 340.461 0.837541 1.38553 0
M  V30 3503 H 342.453 -0.884297 3.94921 0
M  V30 3504 H 341.023 -1.12832 2.91526 0
M  V30 3505 H 340.243 1.21273 3.75082 0
M  V30 3506 H 341.531 1.11391 4.96457 0
M  V30 3507 H 340.929 -2.05243 5.27154 0
M  V30 3508 H 339.486 -2.00254 6.20275 0
M  V30 3509 N 342.919 -1.39368 0.735821 0
M  V30 3510 C 344.33 -1.83313 0.354015 0
M  V30 3511 C 344.681 -1.61461 -1.11466 0
M  V30 3512 O 343.806 -1.10621 -1.85989 0
M  V30 3513 C 344.401 -3.32781 0.635769 0
M  V30 3514 C 342.96 -3.75142 0.307448 0
M  V30 3515 C 342.107 -2.62358 0.897974 0
M  V30 3516 H 345.058 -1.28349 0.933398 0
M  V30 3517 H 345.079 -3.80388 -0.0921773 0
M  V30 3518 H 344.591 -3.48654 1.70476 0
M  V30 3519 H 342.692 -3.64857 -0.755674 0
M  V30 3520 H 342.805 -4.72532 0.790583 0
M  V30 3521 H 341.169 -2.52624 0.324551 0
M  V30 3522 H 341.952 -2.81036 1.97164 0
M  V30 3523 N 344.397 -0.483516 -1.5 0
M  V30 3524 C 345.643 0.0672592 -2.02688 0
M  V30 3525 C 345.976 1.38247 -1.36387 0
M  V30 3526 O 345.251 1.88131 -0.493675 0
M  V30 3527 C 345.534 0.238109 -3.59312 0
M  V30 3528 C 345.387 -1.099 -4.36168 0
M  V30 3529 C 346.706 0.986916 -4.28892 0
M  V30 3530 H 343.825 0.0229696 -0.736642 0
M  V30 3531 H 346.467 -0.631527 -1.79197 0
M  V30 3532 H 344.617 0.8333 -3.79458 0
M  V30 3533 H 346.289 -1.73172 -4.27562 0
M  V30 3534 H 344.532 -1.69261 -3.99416 0
M  V30 3535 H 345.203 -0.932954 -5.44059 0
M  V30 3536 H 347.679 0.482302 -4.13295 0
M  V30 3537 H 346.555 1.07527 -5.38265 0
M  V30 3538 H 346.816 2.0265 -3.92919 0
M  V30 3539 N 345.875 1.56104 -0.216619 0
M  V30 3540 C 346.785 2.23694 0.706982 0
M  V30 3541 C 347.801 1.24295 1.21765 0
M  V30 3542 O 348.977 1.57094 1.2603 0
M  V30 3543 C 346.042 2.8998 1.90033 0
M  V30 3544 C 345.103 4.04708 1.43213 0
M  V30 3545 C 344.336 4.67824 2.56859 0
M  V30 3546 O 344.559 4.29913 3.74874 0
M  V30 3547 O 343.493 5.56905 2.28343 0
M  V30 3548 H 347.319 3.03272 0.161235 0
M  V30 3549 H 344.904 1.49394 0.0136177 0
M  V30 3550 H 346.786 3.31837 2.59735 0
M  V30 3551 H 345.461 2.13365 2.43428 0
M  V30 3552 H 344.368 3.6743 0.70327 0
M  V30 3553 H 345.701 4.83051 0.944615 0
M  V30 3554 N 347.353 -0.0568162 1.57498 0
M  V30 3555 C 348.602 -0.752001 1.87157 0
M  V30 3556 C 348.915 -1.77978 0.811375 0
M  V30 3557 O 350.121 -2.52559 0.996293 0
M  V30 3558 C 348.577 -1.38844 3.3204 0
M  V30 3559 C 348.185 -0.398456 4.46225 0
M  V30 3560 C 349.929 -2.06512 3.70882 0
M  V30 3561 C 347.836 -1.04166 5.82154 0
M  V30 3562 H 346.766 -0.28461 0.698222 0
M  V30 3563 H 349.417 -0.00561272 1.83499 0
M  V30 3564 H 347.799 -2.1836 3.30356 0
M  V30 3565 H 348.973 0.367977 4.59328 0
M  V30 3566 H 347.288 0.174592 4.16034 0
M  V30 3567 H 349.885 -2.55437 4.6974 0
M  V30 3568 H 350.228 -2.87117 3.01445 0
M  V30 3569 H 350.761 -1.33808 3.7462 0
M  V30 3570 H 347.5 -0.275614 6.5492 0
M  V30 3571 H 347.02 -1.7786 5.72823 0
M  V30 3572 H 348.699 -1.55715 6.27982 0
M  V30 3573 N 348.832 -1.54138 -0.328536 0
M  V30 3574 C 349.762 -1.86167 -1.40939 0
M  V30 3575 C 350.743 -0.718044 -1.54202 0
M  V30 3576 O 351.928 -0.971328 -1.68163 0
M  V30 3577 C 349.058 -2.08461 -2.77779 0
M  V30 3578 C 348.012 -3.24299 -2.7931 0
M  V30 3579 C 347.338 -3.31955 -4.19178 0
M  V30 3580 C 348.638 -4.62065 -2.43502 0
M  V30 3581 H 350.332 -2.76689 -1.14383 0
M  V30 3582 H 347.878 -1.33132 -0.548806 0
M  V30 3583 H 349.831 -2.29453 -3.53454 0
M  V30 3584 H 348.555 -1.14684 -3.05802 0
M  V30 3585 H 347.214 -3.03187 -2.0609 0
M  V30 3586 H 346.862 -2.35745 -4.44335 0
M  V30 3587 H 346.562 -4.09805 -4.2111 0
M  V30 3588 H 348.086 -3.55175 -4.96672 0
M  V30 3589 H 349.5 -4.8297 -3.08889 0
M  V30 3590 H 347.897 -5.42429 -2.56693 0
M  V30 3591 H 348.967 -4.64652 -1.38659 0
M  V30 3592 N 350.31 0.590341 -1.46126 0
M  V30 3593 C 351.242 1.71427 -1.52136 0
M  V30 3594 C 352.255 1.57542 -0.41042 0
M  V30 3595 O 353.444 1.65106 -0.678389 0
M  V30 3596 C 350.544 3.09605 -1.37834 0
M  V30 3597 C 349.717 3.49566 -2.62912 0
M  V30 3598 C 348.776 4.66773 -2.42918 0
M  V30 3599 O 347.802 4.73019 -3.1661 0
M  V30 3600 N 349.004 5.61161 -1.4859 0
M  V30 3601 H 351.769 1.66728 -2.49042 0
M  V30 3602 H 349.33 0.776113 -1.42085 0
M  V30 3603 H 351.322 3.85796 -1.22243 0
M  V30 3604 H 349.892 3.08714 -0.491393 0
M  V30 3605 H 349.112 2.63158 -2.93499 0
M  V30 3606 H 350.4 3.73028 -3.46017 0
M  V30 3607 H 349.798 5.58844 -0.87808 0
M  V30 3608 H 348.355 6.36814 -1.38965 0
M  V30 3609 N 351.788 1.33704 0.83433 0
M  V30 3610 C 353.036 1.25169 1.58673 0
M  V30 3611 C 353.357 -0.18127 1.94156 0
M  V30 3612 O 352.627 -1.11113 1.6134 0
M  V30 3613 H 351.207 0.4603 0.58833 0
M  V30 3614 H 353.869 1.67478 0.996847 0
M  V30 3615 H 352.965 1.84856 2.51465 0
M  V30 3616 N 353.266 -1.05314 1.17247 0
M  V30 3617 C 354.512 -1.78557 0.961513 0
M  V30 3618 C 354.845 -1.87419 -0.508697 0
M  V30 3619 O 354.12 -1.37307 -1.37757 0
M  V30 3620 C 354.403 -3.22514 1.60176 0
M  V30 3621 C 354.256 -3.21673 3.14399 0
M  V30 3622 C 355.575 -4.20318 1.30463 0
M  V30 3623 H 352.694 -0.6482 0.350723 0
M  V30 3624 H 355.336 -1.23102 1.44727 0
M  V30 3625 H 353.486 -3.69867 1.18871 0
M  V30 3626 H 355.158 -2.82405 3.64753 0
M  V30 3627 H 353.401 -2.60048 3.47214 0
M  V30 3628 H 354.072 -4.23271 3.54324 0
M  V30 3629 H 356.548 -3.81454 1.66229 0
M  V30 3630 H 355.424 -5.19289 1.77848 0
M  V30 3631 H 355.685 -4.41526 0.22521 0
M  V30 3632 N 354.744 -0.972509 -1.24016 0
M  V30 3633 C 355.654 -0.5143 -2.28893 0
M  V30 3634 C 356.67 0.427078 -1.68677 0
M  V30 3635 O 357.846 0.298939 -1.99169 0
M  V30 3636 C 354.911 0.183598 -3.46214 0
M  V30 3637 C 353.972 -0.798202 -4.21814 0
M  V30 3638 C 353.205 -0.133514 -5.33533 0
M  V30 3639 O 353.428 1.07714 -5.60137 0
M  V30 3640 O 352.362 -0.828103 -5.96176 0
M  V30 3641 H 356.188 -1.38629 -2.70214 0
M  V30 3642 H 353.773 -0.739769 -1.29799 0
M  V30 3643 H 355.655 0.575433 -4.17453 0
M  V30 3644 H 354.33 1.03048 -3.0686 0
M  V30 3645 H 353.237 -1.24059 -3.52931 0
M  V30 3646 H 354.57 -1.61364 -4.64997 0
M  V30 3647 N 356.222 1.38976 -0.743202 0
M  V30 3648 C 357.471 1.99581 -0.291592 0
M  V30 3649 C 357.784 1.59656 1.13001 0
M  V30 3650 O 358.99 2.13157 1.68156 0
M  V30 3651 C 357.446 3.56813 -0.470391 0
M  V30 3652 C 357.054 4.05695 -1.90041 0
M  V30 3653 C 358.798 4.24423 -0.0809709 0
M  V30 3654 C 356.705 5.5553 -2.02832 0
M  V30 3655 H 355.635 0.746615 -0.105272 0
M  V30 3656 H 358.286 1.58872 -0.918258 0
M  V30 3657 H 356.668 3.95359 0.225299 0
M  V30 3658 H 357.842 3.78464 -2.62872 0
M  V30 3659 H 356.157 3.50775 -2.24379 0
M  V30 3660 H 358.754 5.34474 -0.155445 0
M  V30 3661 H 359.097 4.04962 0.96497 0
M  V30 3662 H 359.63 3.9108 -0.728124 0
M  V30 3663 H 356.369 5.79881 -3.05643 0
M  V30 3664 H 355.889 5.84537 -1.34448 0
M  V30 3665 H 357.568 6.21069 -1.81335 0
M  V30 3666 N 357.7 0.491464 1.49741 0
M  V30 3667 C 358.948 -0.0563141 2.02022 0
M  V30 3668 C 359.269 -1.38363 1.37407 0
M  V30 3669 O 358.539 -1.88702 0.526166 0
M  V30 3670 H 357.119 -0.0238014 0.746621 0
M  V30 3671 H 359.781 0.646533 1.83864 0
M  V30 3672 H 358.877 -0.192967 3.11503 0
M  V30 3673 N 359.178 -1.55987 0.224894 0
M  V30 3674 C 360.594 -1.59066 -0.130426 0
M  V30 3675 C 360.794 -1.24176 -1.5869 0
M  V30 3676 O 359.85 -0.978592 -2.32766 0
M  V30 3677 C 361.163 -3.00042 0.198883 0
M  V30 3678 C 362.711 -3.1268 0.141391 0
M  V30 3679 C 363.186 -4.55839 0.444422 0
M  V30 3680 N 364.677 -4.6152 0.394115 0
M  V30 3681 C 365.412 -5.70231 0.602038 0
M  V30 3682 N 364.908 -6.87291 0.871914 0
M  V30 3683 N 366.701 -5.59555 0.534245 0
M  V30 3684 H 358.852 -1.76941 1.17497 0
M  V30 3685 H 361.115 -0.822604 0.471197 0
M  V30 3686 H 360.821 -3.30234 1.2099 0
M  V30 3687 H 360.695 -3.74075 -0.484535 0
M  V30 3688 H 363.082 -2.82283 -0.860265 0
M  V30 3689 H 363.163 -2.40969 0.858335 0
M  V30 3690 H 362.807 -4.86954 1.44353 0
M  V30 3691 H 362.737 -5.2578 -0.293752 0
M  V30 3692 H 365.228 -3.77405 0.193356 0
M  V30 3693 H 365.541 -7.66058 1.01858 0
M  V30 3694 H 363.886 -6.89028 0.909145 0
M  V30 3695 H 367.077 -4.6698 0.323612 0
M  V30 3696 H 367.25 -6.44211 0.699693 0
M  V30 3697 N 360.656 0.0484629 -1.57525 0
M  V30 3698 C 362.067 0.597486 -1.76881 0
M  V30 3699 C 362.418 1.76664 -0.853475 0
M  V30 3700 O 361.543 2.16357 -0.0433656 0
M  V30 3701 C 362.138 1.09066 -3.20765 0
M  V30 3702 C 360.697 1.58535 -3.41385 0
M  V30 3703 C 359.844 0.514868 -2.72478 0
M  V30 3704 H 362.795 -0.177758 -1.57701 0
M  V30 3705 H 362.816 1.95875 -3.2621 0
M  V30 3706 H 362.328 0.239521 -3.8736 0
M  V30 3707 H 360.429 2.45898 -2.79937 0
M  V30 3708 H 360.542 1.64622 -4.49929 0
M  V30 3709 H 358.906 0.965407 -2.35695 0
M  V30 3710 H 359.689 -0.32648 -3.41744 0
M  V30 3711 N 362.134 1.5431 0.320358 0
M  V30 3712 C 363.359 1.76954 1.08175 0
M  V30 3713 C 363.784 0.518193 1.80821 0
M  V30 3714 O 363.142 -0.530411 1.73368 0
M  V30 3715 C 363.19 2.96451 2.05303 0
M  V30 3716 O 362.294 2.68221 3.13259 0
M  V30 3717 H 361.635 0.586275 0.311733 0
M  V30 3718 H 364.165 2.01342 0.363676 0
M  V30 3719 H 364.175 3.23887 2.48116 0
M  V30 3720 H 362.85 3.87196 1.51829 0
M  V30 3721 H 361.427 2.51744 2.75099 0
M  V30 3722 N 363.613 -0.582584 1.46437 0
M  V30 3723 C 364.543 -1.70187 1.59871 0
M  V30 3724 C 365.524 -1.64066 0.449042 0
M  V30 3725 O 366.709 -1.82081 0.6753 0
M  V30 3726 C 363.839 -3.08827 1.58881 0
M  V30 3727 C 362.793 -3.29779 2.72819 0
M  V30 3728 C 362.119 -4.68947 2.5689 0
M  V30 3729 C 363.419 -3.17601 4.1464 0
M  V30 3730 H 365.113 -1.592 2.53566 0
M  V30 3731 H 362.659 -0.764472 1.22032 0
M  V30 3732 H 364.612 -3.86951 1.66873 0
M  V30 3733 H 363.336 -3.20713 0.617306 0
M  V30 3734 H 361.995 -2.54054 2.64296 0
M  V30 3735 H 361.643 -4.77599 1.57823 0
M  V30 3736 H 361.343 -4.83919 3.33312 0
M  V30 3737 H 362.867 -5.4924 2.66773 0
M  V30 3738 H 364.281 -3.8557 4.24274 0
M  V30 3739 H 362.678 -3.44094 4.9165 0
M  V30 3740 H 363.748 -2.14681 4.34788 0
M  V30 3741 N 365.091 -1.34144 -0.827227 0
M  V30 3742 C 366.024 -1.19707 -1.94282 0
M  V30 3743 C 367.002 -0.0897256 -1.62352 0
M  V30 3744 O 368.186 -0.254095 -1.8678 0
M  V30 3745 C 365.313 -0.838646 -3.28153 0
M  V30 3746 C 364.359 -1.95514 -3.79047 0
M  V30 3747 S 365.192 -3.56793 -3.99323 0
M  V30 3748 C 366.348 -3.22983 -5.36127 0
M  V30 3749 H 366.581 -2.1414 -2.06231 0
M  V30 3750 H 364.114 -1.19121 -0.982321 0
M  V30 3751 H 366.072 -0.638637 -4.05502 0
M  V30 3752 H 364.733 0.0872776 -3.13979 0
M  V30 3753 H 363.926 -1.658 -4.75948 0
M  V30 3754 H 363.528 -2.11241 -3.08631 0
M  V30 3755 H 365.82 -2.74531 -6.19386 0
M  V30 3756 H 366.763 -4.19008 -5.70822 0
M  V30 3757 H 367.171 -2.59276 -5.01434 0
M  V30 3758 N 366.569 1.04691 -1.17803 0
M  V30 3759 C 367.816 1.77782 -0.969532 0
M  V30 3760 C 368.144 1.87926 0.501401 0
M  V30 3761 O 367.399 1.37918 1.38842 0
M  V30 3762 C 367.698 3.21467 -1.56186 0
M  V30 3763 C 367.364 3.3137 -3.05786 0
M  V30 3764 C 366.026 3.3378 -3.46619 0
M  V30 3765 C 368.378 3.31976 -4.01797 0
M  V30 3766 C 365.706 3.34431 -4.82051 0
M  V30 3767 C 368.058 3.34167 -5.37136 0
M  V30 3768 C 366.722 3.34866 -5.77426 0
M  V30 3769 H 365.992 0.650549 -0.354777 0
M  V30 3770 H 368.639 1.23006 -1.46772 0
M  V30 3771 H 366.944 3.79203 -0.985515 0
M  V30 3772 H 368.641 3.76652 -1.37602 0
M  V30 3773 H 365.231 3.3021 -2.73238 0
M  V30 3774 H 369.415 3.29311 -3.71306 0
M  V30 3775 H 364.671 3.33285 -5.12573 0
M  V30 3776 H 368.845 3.33585 -6.11305 0
M  V30 3777 H 366.472 3.35124 -6.82346 0
M  V30 3778 N 368.047 0.979072 1.23499 0
M  V30 3779 C 369.01 0.523244 2.23147 0
M  V30 3780 C 370.01 -0.386406 1.56088 0
M  V30 3781 O 371.2 -0.180283 1.73265 0
M  V30 3782 C 368.332 -0.240739 3.40049 0
M  V30 3783 H 369.525 1.40432 2.64989 0
M  V30 3784 H 367.078 0.764824 1.36309 0
M  V30 3785 H 367.813 -1.13841 3.03662 0
M  V30 3786 H 367.598 0.412207 3.89927 0
M  V30 3787 H 369.088 -0.548297 4.13985 0
M  V30 3788 N 369.525 -1.3858 0.750561 0
M  V30 3789 C 370.472 -2.30483 0.120835 0
M  V30 3790 C 371.442 -1.50022 -0.712923 0
M  V30 3791 O 372.627 -1.78662 -0.669676 0
M  V30 3792 C 369.767 -3.36431 -0.768666 0
M  V30 3793 C 368.88 -4.31927 0.0793922 0
M  V30 3794 C 368.015 -5.24944 -0.81283 0
M  V30 3795 C 367.054 -6.12088 0.0390447 0
M  V30 3796 N 366.191 -6.97412 -0.809969 0
M  V30 3797 H 371.031 -2.83761 0.91015 0
M  V30 3798 H 368.568 -1.39707 0.460463 0
M  V30 3799 H 370.526 -3.96462 -1.29898 0
M  V30 3800 H 369.156 -2.8457 -1.5238 0
M  V30 3801 H 368.208 -3.73382 0.727303 0
M  V30 3802 H 369.52 -4.93319 0.737401 0
M  V30 3803 H 368.674 -5.90078 -1.41042 0
M  V30 3804 H 367.413 -4.63911 -1.50458 0
M  V30 3805 H 366.418 -5.45952 0.649328 0
M  V30 3806 H 367.643 -6.75189 0.727809 0
M  V30 3807 H 365.589 -6.38931 -1.48672 0
M  V30 3808 H 365.506 -7.55712 -0.208789 0
M  V30 3809 H 366.774 -7.66959 -1.39263 0
M  V30 3810 N 371.003 -0.499398 -1.49478 0
M  V30 3811 C 371.966 0.268838 -2.27618 0
M  V30 3812 C 372.966 0.895383 -1.33565 0
M  V30 3813 O 374.156 0.760164 -1.56739 0
M  V30 3814 C 371.288 1.38559 -3.11471 0
M  V30 3815 H 372.481 -0.416812 -2.96989 0
M  V30 3816 H 370.034 -0.254313 -1.54217 0
M  V30 3817 H 370.769 2.10544 -2.46661 0
M  V30 3818 H 370.554 0.941797 -3.80621 0
M  V30 3819 H 372.044 1.92678 -3.70493 0
M  V30 3820 N 372.481 1.55866 -0.233164 0
M  V30 3821 C 373.391 2.24431 0.683217 0
M  V30 3822 C 374.407 1.2558 1.2044 0
M  V30 3823 O 375.583 1.58422 1.24356 0
M  V30 3824 C 372.648 2.91979 1.86947 0
M  V30 3825 C 371.709 4.06204 1.38912 0
M  V30 3826 C 370.942 4.70522 2.51883 0
M  V30 3827 O 371.165 4.33865 3.70293 0
M  V30 3828 O 370.099 5.59296 2.22423 0
M  V30 3829 H 373.925 3.03426 0.129059 0
M  V30 3830 H 371.51 1.494 -0.0022283 0
M  V30 3831 H 373.392 3.34573 2.56201 0
M  V30 3832 H 372.067 2.15935 2.41151 0
M  V30 3833 H 370.974 3.68155 0.664259 0
M  V30 3834 H 372.307 4.84025 0.893328 0
M  V30 3835 N 373.959 -0.0401083 1.57549 0
M  V30 3836 C 375.207 -0.731677 1.8839 0
M  V30 3837 C 375.528 -1.76481 0.829425 0
M  V30 3838 O 374.798 -1.95411 -0.1383 0
M  V30 3839 H 373.378 -0.273225 0.695239 0
M  V30 3840 H 376.04 -0.00867725 1.94898 0
M  V30 3841 H 375.136 -1.22816 2.86919 0
M  V30 3842 N 375.437 -1.54477 -0.31217 0
M  V30 3843 C 376.853 -1.45442 -0.657185 0
M  V30 3844 C 377.053 -0.63653 -1.91182 0
M  V30 3845 O 376.109 -0.139815 -2.52113 0
M  V30 3846 C 377.422 -2.89287 -0.82058 0
M  V30 3847 C 378.97 -2.9926 -0.917188 0
M  V30 3848 C 379.445 -4.44279 -1.11267 0
M  V30 3849 N 380.936 -4.4794 -1.17914 0
M  V30 3850 C 381.671 -5.57318 -1.34848 0
M  V30 3851 N 381.167 -6.76642 -1.48752 0
M  V30 3852 N 382.96 -5.44986 -1.37647 0
M  V30 3853 H 375.111 -2.06129 0.512313 0
M  V30 3854 H 377.374 -0.933088 0.167485 0
M  V30 3855 H 377.08 -3.51687 0.0302604 0
M  V30 3856 H 376.954 -3.36061 -1.71298 0
M  V30 3857 H 379.341 -2.36981 -1.75852 0
M  V30 3858 H 379.422 -2.558 -0.00101257 0
M  V30 3859 H 379.066 -5.07149 -0.27614 0
M  V30 3860 H 378.996 -4.85359 -2.04289 0
M  V30 3861 H 381.487 -3.61969 -1.08567 0
M  V30 3862 H 381.8 -7.55758 -1.61397 0
M  V30 3863 H 380.145 -6.79529 -1.45828 0
M  V30 3864 H 383.336 -4.50715 -1.26388 0
M  V30 3865 H 383.509 -6.3028 -1.50501 0
M  V30 3866 N 376.915 0.57481 -1.46744 0
M  V30 3867 C 377.878 1.66533 -1.57478 0
M  V30 3868 C 378.878 1.54338 -0.451263 0
M  V30 3869 O 380.068 1.58814 -0.715813 0
M  V30 3870 C 377.2 3.05999 -1.50259 0
M  V30 3871 H 378.393 1.58372 -2.54673 0
M  V30 3872 H 375.946 0.793301 -1.34672 0
M  V30 3873 H 376.681 3.19709 -0.543725 0
M  V30 3874 H 376.466 3.16259 -2.31781 0
M  V30 3875 H 377.956 3.8537 -1.60872 0
M  V30 3876 N 378.394 1.34581 0.820102 0
M  V30 3877 C 379.304 1.28471 1.96297 0
M  V30 3878 C 380.32 0.191902 1.72939 0
M  V30 3879 O 381.496 0.418879 1.96996 0
M  V30 3880 C 378.561 1.04281 3.30645 0
M  V30 3881 C 377.622 2.22745 3.66992 0
M  V30 3882 C 376.855 1.997 4.9493 0
M  V30 3883 O 377.078 0.956656 5.6232 0
M  V30 3884 O 376.012 2.86723 5.2922 0
M  V30 3885 H 379.838 2.24624 2.04396 0
M  V30 3886 H 377.423 1.14816 0.955913 0
M  V30 3887 H 379.305 0.925841 4.11104 0
M  V30 3888 H 377.98 0.111697 3.23507 0
M  V30 3889 H 376.887 2.40003 2.86966 0
M  V30 3890 H 378.22 3.14257 3.78819 0
M  V30 3891 N 379.872 -1.04064 1.18357 0
M  V30 3892 C 380.804 -2.12114 0.868358 0
M  V30 3893 C 381.817 -1.62247 -0.134045 0
M  V30 3894 O 383.006 -1.78253 0.0937933 0
M  V30 3895 C 380.106 -3.37773 0.276132 0
M  V30 3896 C 379.279 -4.16874 1.3242 0
M  V30 3897 C 378.338 -5.20861 0.747662 0
M  V30 3898 O 377.364 -5.51141 1.42239 0
M  V30 3899 N 378.566 -5.78715 -0.454823 0
M  V30 3900 H 381.331 -2.39748 1.79836 0
M  V30 3901 H 378.892 -1.20258 1.08396 0
M  V30 3902 H 380.884 -4.04513 -0.123133 0
M  V30 3903 H 379.454 -3.07581 -0.557895 0
M  V30 3904 H 378.674 -3.45456 1.89878 0
M  V30 3905 H 379.962 -4.66516 2.03078 0
M  V30 3906 H 379.36 -5.56415 -1.02073 0
M  V30 3907 H 377.917 -6.46921 -0.79601 0
M  V30 3908 N 381.35 -0.985608 -1.22978 0
M  V30 3909 C 382.28 -0.549649 -2.26939 0
M  V30 3910 C 383.261 0.419803 -1.64838 0
M  V30 3911 O 384.446 0.31203 -1.91677 0
M  V30 3912 C 381.576 0.143652 -3.47003 0
M  V30 3913 C 380.53 -0.743606 -4.21491 0
M  V30 3914 C 379.856 0.0822027 -5.34637 0
M  V30 3915 C 381.156 -2.03694 -4.80943 0
M  V30 3916 H 382.85 -1.41862 -2.63658 0
M  V30 3917 H 380.396 -0.683571 -1.26741 0
M  V30 3918 H 382.349 0.459985 -4.18882 0
M  V30 3919 H 381.073 1.04711 -3.09359 0
M  V30 3920 H 379.732 -1.04347 -3.51436 0
M  V30 3921 H 379.38 0.986359 -4.93234 0
M  V30 3922 H 379.08 -0.508377 -5.85397 0
M  V30 3923 H 380.604 0.392797 -6.09335 0
M  V30 3924 H 382.018 -1.78504 -5.44802 0
M  V30 3925 H 380.415 -2.57573 -5.42011 0
M  V30 3926 H 381.485 -2.72042 -4.01399 0
M  V30 3927 N 382.828 1.3818 -0.7579 0
M  V30 3928 C 384.056 2.04301 -0.326937 0
M  V30 3929 C 384.471 1.57163 1.0462 0
M  V30 3930 O 383.828 0.746626 1.66529 0
M  V30 3931 C 383.879 3.59846 -0.345363 0
M  V30 3932 O 383.6 4.05256 -1.66432 0
M  V30 3933 C 385.101 4.4319 0.098927 0
M  V30 3934 H 382.321 0.656443 -0.139012 0
M  V30 3935 H 384.865 1.76786 -1.02796 0
M  V30 3936 H 383.02 3.86182 0.306955 0
M  V30 3937 H 383.434 4.99709 -1.59345 0
M  V30 3938 H 384.908 5.51989 0.0348745 0
M  V30 3939 H 385.385 4.23947 1.14741 0
M  V30 3940 H 385.991 4.22051 -0.52468 0
M  V30 3941 N 384.306 0.507319 1.49211 0
M  V30 3942 C 385.722 0.163682 1.58758 0
M  V30 3943 C 385.922 -1.33208 1.51188 0
M  V30 3944 O 384.978 -2.10855 1.38911 0
M  V30 3945 C 386.291 0.746095 2.91297 0
M  V30 3946 C 387.839 0.712773 3.04776 0
M  V30 3947 C 388.314 1.27336 4.39943 0
M  V30 3948 N 389.805 1.23433 4.46451 0
M  V30 3949 C 390.54 1.63821 5.495 0
M  V30 3950 N 390.036 2.11832 6.5962 0
M  V30 3951 N 391.829 1.55198 5.4025 0
M  V30 3952 H 383.98 1.47972 1.52375 0
M  V30 3953 H 386.243 0.614147 0.722168 0
M  V30 3954 H 385.949 1.79534 3.02424 0
M  V30 3955 H 385.823 0.210137 3.76614 0
M  V30 3956 H 388.21 -0.327656 2.93275 0
M  V30 3957 H 388.291 1.28595 2.21127 0
M  V30 3958 H 387.935 2.3126 4.52196 0
M  V30 3959 H 387.865 0.676066 5.22242 0
M  V30 3960 H 390.356 0.882627 3.67448 0
M  V30 3961 H 390.669 2.40703 7.34358 0
M  V30 3962 H 389.014 2.1581 6.60644 0
M  V30 3963 H 392.205 1.17505 4.53112 0
M  V30 3964 H 392.378 1.86997 6.20432 0
M  V30 3965 N 385.784 -1.5574 0.241426 0
M  V30 3966 C 387.03 -1.99104 -0.385406 0
M  V30 3967 C 387.363 -1.1293 -1.57988 0
M  V30 3968 O 386.638 -0.191449 -1.93555 0
M  V30 3969 C 386.921 -3.51087 -0.800616 0
M  V30 3970 C 386.774 -4.48028 0.398874 0
M  V30 3971 C 388.093 -4.08015 -1.64959 0
M  V30 3972 H 385.212 -0.723848 -0.138614 0
M  V30 3973 H 387.854 -1.86903 0.341642 0
M  V30 3974 H 386.004 -3.61615 -1.4201 0
M  V30 3975 H 387.676 -4.49487 1.03726 0
M  V30 3976 H 385.919 -4.21077 1.04293 0
M  V30 3977 H 386.59 -5.51962 0.0651056 0
M  V30 3978 H 389.066 -4.00555 -1.12672 0
M  V30 3979 H 387.942 -5.14635 -1.90898 0
M  V30 3980 H 388.203 -3.56131 -2.61961 0
M  V30 3981 N 387.262 0.0317525 -1.57568 0
M  V30 3982 C 388.172 1.05021 -2.0978 0
M  V30 3983 C 389.188 1.39809 -1.03583 0
M  V30 3984 O 390.364 1.49182 -1.35302 0
M  V30 3985 C 387.429 2.33301 -2.56459 0
M  V30 3986 C 386.49 2.0512 -3.77127 0
M  V30 3987 C 385.723 3.27283 -4.2157 0
M  V30 3988 O 385.946 4.37861 -3.65559 0
M  V30 3989 O 384.88 3.13141 -5.14029 0
M  V30 3990 H 388.706 0.636505 -2.96955 0
M  V30 3991 H 386.291 0.248559 -1.47318 0
M  V30 3992 H 388.173 3.08722 -2.86825 0
M  V30 3993 H 386.848 2.73973 -1.72397 0
M  V30 3994 H 385.755 1.27276 -3.51784 0
M  V30 3995 H 387.088 1.69305 -4.62165 0
M  V30 3996 N 388.74 1.54641 0.303973 0
M  V30 3997 C 389.986 1.74038 1.04109 0
M  V30 3998 C 390.319 0.523051 1.87024 0
M  V30 3999 O 389.594 -0.479874 1.88487 0
M  V30 4000 C 389.877 3.02761 1.94955 0
M  V30 4001 C 389.73 4.34787 1.1524 0
M  V30 4002 C 391.049 3.27336 2.94175 0
M  V30 4003 H 388.168 0.63323 0.377079 0
M  V30 4004 H 390.81 1.87354 0.316001 0
M  V30 4005 H 388.96 2.9154 2.56782 0
M  V30 4006 H 390.632 4.57922 0.557236 0
M  V30 4007 H 388.875 4.31407 0.455053 0
M  V30 4008 H 389.546 5.21116 1.8205 0
M  V30 4009 H 392.022 3.38148 2.42477 0
M  V30 4010 H 390.898 4.18726 3.54908 0
M  V30 4011 H 391.159 2.45491 3.67677 0
M  V30 4012 N 390.218 -0.567019 1.47046 0
M  V30 4013 C 391.443 -1.3551 1.57009 0
M  V30 4014 C 391.868 -1.86841 0.217259 0
M  V30 4015 O 391.226 -1.62435 -0.805268 0
M  V30 4016 C 391.274 -2.50777 2.5912 0
M  V30 4017 O 390.378 -3.52706 2.13711 0
M  V30 4018 H 389.719 -0.402919 0.52778 0
M  V30 4019 H 392.249 -0.686241 1.92748 0
M  V30 4020 H 392.259 -2.97481 2.79229 0
M  V30 4021 H 390.934 -2.12771 3.57353 0
M  V30 4022 H 389.511 -3.12374 2.03659 0
M  V30 4023 N 391.696 -1.35014 -0.812953 0
M  V30 4024 C 392.944 -1.27678 -1.56661 0
M  V30 4025 C 393.265 0.150359 -1.94419 0
M  V30 4026 O 392.535 1.08532 -1.63088 0
M  V30 4027 H 391.115 -0.469602 -0.580933 0
M  V30 4028 H 393.777 -1.69043 -0.970076 0
M  V30 4029 H 392.873 -1.88833 -2.48492 0
M  V30 4030 N 393.175 1.03435 -1.18907 0
M  V30 4031 C 394.123 2.13703 -0.918353 0
M  V30 4032 C 395.117 1.68947 0.123767 0
M  V30 4033 O 396.323 1.79983 -0.0249701 0
M  V30 4034 H 392.698 0.698112 -0.279542 0
M  V30 4035 H 394.669 2.33731 -1.85506 0
M  V30 4036 C 393.418 3.44542 -0.467532 0
M  V30 4037 H 392.741 3.79394 -1.26095 0
M  V30 4038 H 394.181 4.22812 -0.317164 0
M  V30 4039 C 392.64 3.26829 0.817588 0
M  V30 4040 O 393.17 3.54975 1.88031 0
M  V30 4041 N 391.376 2.80139 0.772677 0
M  V30 4042 H 390.923 2.57434 -0.0923883 0
M  V30 4043 H 390.881 2.68668 1.63294 0
M  V30 4044 N 394.653 0.992116 1.22453 0
M  V30 4045 C 395.901 0.666215 1.90804 0
M  V30 4046 C 396.222 -0.804152 1.77647 0
M  V30 4047 O 395.492 -1.57629 1.16318 0
M  V30 4048 H 394.072 0.243423 0.706225 0
M  V30 4049 H 396.734 1.25845 1.48825 0
M  V30 4050 H 395.83 0.928069 2.97982 0
M  V30 4051 N 396.131 -1.37776 0.765217 0
M  V30 4052 C 397.377 -2.00145 0.327072 0
M  V30 4053 C 397.71 -1.60607 -1.09175 0
M  V30 4054 O 396.985 -0.849127 -1.74986 0
M  V30 4055 C 397.268 -3.57109 0.46319 0
M  V30 4056 C 397.121 -4.06576 1.92395 0
M  V30 4057 C 398.44 -4.39888 -0.136473 0
M  V30 4058 H 395.559 -0.727113 0.120316 0
M  V30 4059 H 398.201 -1.63549 0.967039 0
M  V30 4060 H 396.351 -3.88414 -0.0816358 0
M  V30 4061 H 398.023 -3.85864 2.52798 0
M  V30 4062 H 396.266 -3.59011 2.43503 0
M  V30 4063 H 396.937 -5.15639 1.97028 0
M  V30 4064 H 399.413 -4.14803 0.328317 0
M  V30 4065 H 398.289 -5.48899 -0.0110582 0
M  V30 4066 H 398.55 -4.24758 -1.22608 0
M  V30 4067 N 397.609 -0.515225 -1.4894 0
M  V30 4068 C 398.837 0.0206034 -2.0689 0
M  V30 4069 C 399.252 1.29514 -1.37374 0
M  V30 4070 O 398.609 1.76698 -0.456529 0
M  V30 4071 C 398.66 0.26351 -3.60538 0
M  V30 4072 O 398.381 -0.960517 -4.27441 0
M  V30 4073 C 399.882 0.841383 -4.35242 0
M  V30 4074 H 397.102 -0.0268608 -0.670462 0
M  V30 4075 H 399.646 -0.716651 -1.91532 0
M  V30 4076 H 397.801 0.950777 -3.75552 0
M  V30 4077 H 398.215 -0.73212 -5.19365 0
M  V30 4078 H 399.689 0.96085 -5.43573 0
M  V30 4079 H 400.166 1.8427 -3.98674 0
M  V30 4080 H 400.772 0.191143 -4.2487 0
M  V30 4081 N 399.087 1.5561 -0.249682 0
M  V30 4082 C 400.334 1.99011 0.374287 0
M  V30 4083 C 400.662 1.13785 1.57744 0
M  V30 4084 O 399.917 0.189326 1.94782 0
M  V30 4085 C 400.216 3.4775 0.824887 0
M  V30 4086 C 399.882 4.50086 -0.270819 0
M  V30 4087 C 398.544 4.77791 -0.571746 0
M  V30 4088 C 400.896 5.11312 -1.01041 0
M  V30 4089 C 398.224 5.63997 -1.61629 0
M  V30 4090 C 400.576 5.98651 -2.0445 0
M  V30 4091 C 399.24 6.24688 -2.35204 0
M  V30 4092 H 398.51 0.728233 0.136961 0
M  V30 4093 H 401.157 1.88122 -0.358087 0
M  V30 4094 H 399.462 3.55985 1.63651 0
M  V30 4095 H 401.159 3.78721 1.31799 0
M  V30 4096 H 397.749 4.28592 -0.026136 0
M  V30 4097 H 401.933 4.89953 -0.791177 0
M  V30 4098 H 397.189 5.82425 -1.85988 0
M  V30 4099 H 401.363 6.45135 -2.62248 0
M  V30 4100 H 398.99 6.91281 -3.16282 0
M  V30 4101 N 400.565 -0.0233959 1.57583 0
M  V30 4102 C 401.813 -0.711654 1.89156 0
M  V30 4103 C 402.134 -1.75591 0.848096 0
M  V30 4104 O 401.404 -1.95547 -0.117566 0
M  V30 4105 H 399.984 -0.265835 0.698098 0
M  V30 4106 H 402.646 0.0119948 1.94896 0
M  V30 4107 H 401.742 -1.19766 2.88206 0
M  V30 4108 N 402.043 -1.548 -0.295768 0
M  V30 4109 C 403.459 -1.4613 -0.641722 0
M  V30 4110 C 403.659 -0.656771 -1.90496 0
M  V30 4111 O 402.715 -0.166547 -2.5195 0
M  V30 4112 C 404.028 -2.90141 -0.789852 0
M  V30 4113 C 405.576 -3.00216 -0.885396 0
M  V30 4114 C 406.051 -4.45434 -1.06548 0
M  V30 4115 N 407.542 -4.49166 -1.13156 0
M  V30 4116 C 408.277 -5.58717 -1.28929 0
M  V30 4117 N 407.773 -6.78182 -1.41567 0
M  V30 4118 N 409.566 -5.46415 -1.31859 0
M  V30 4119 H 401.717 -2.05574 0.534147 0
M  V30 4120 H 403.98 -0.931259 0.177372 0
M  V30 4121 H 403.686 -3.51635 0.0675598 0
M  V30 4122 H 403.56 -3.37859 -1.67724 0
M  V30 4123 H 405.947 -2.38833 -1.73329 0
M  V30 4124 H 406.028 -2.55787 0.0261185 0
M  V30 4125 H 405.672 -5.07413 -0.222335 0
M  V30 4126 H 405.602 -4.87499 -1.9913 0
M  V30 4127 H 408.093 -3.631 -1.04721 0
M  V30 4128 H 408.406 -7.57428 -1.53372 0
M  V30 4129 H 406.751 -6.81037 -1.38613 0
M  V30 4130 H 409.942 -4.5203 -1.21601 0
M  V30 4131 H 410.115 -6.31841 -1.43808 0
M  V30 4132 N 403.521 0.559213 -1.47345 0
M  V30 4133 C 404.769 1.31388 -1.53563 0
M  V30 4134 C 405.09 1.93985 -0.198678 0
M  V30 4135 O 404.36 1.79825 0.777167 0
M  V30 4136 H 402.94 0.487901 -0.565652 0
M  V30 4137 H 405.602 0.65315 -1.8363 0
M  V30 4138 H 404.698 2.10844 -2.30111 0
M  V30 4139 N 404.999 1.35443 0.805782 0
M  V30 4140 C 406.227 1.31878 1.59423 0
M  V30 4141 C 406.642 -0.103562 1.88516 0
M  V30 4142 O 405.999 -1.05575 1.48863 0
M  V30 4143 C 406.05 2.12426 2.92502 0
M  V30 4144 O 405.771 3.49115 2.6467 0
M  V30 4145 C 407.272 2.16455 3.86862 0
M  V30 4146 H 404.492 0.453002 0.495005 0
M  V30 4147 H 407.036 1.78309 1.00131 0
M  V30 4148 H 405.191 1.69593 3.48306 0
M  V30 4149 H 405.605 3.90957 3.49647 0
M  V30 4150 H 407.079 2.77204 4.77349 0
M  V30 4151 H 407.556 1.16352 4.23508 0
M  V30 4152 H 408.162 2.59453 3.36993 0
M  V30 4153 N 406.477 -1.02803 1.19454 0
M  V30 4154 C 407.726 -1.7562 0.991996 0
M  V30 4155 C 408.039 -1.89672 -0.477901 0
M  V30 4156 O 409.245 -2.59468 -0.799287 0
M  V30 4157 C 407.701 -3.15812 1.72601 0
M  V30 4158 C 407.309 -3.0981 3.23607 0
M  V30 4159 C 409.053 -3.92918 1.60674 0
M  V30 4160 C 406.96 -4.44939 3.89594 0
M  V30 4161 H 405.89 -0.658352 0.367543 0
M  V30 4162 H 408.541 -1.15044 1.42959 0
M  V30 4163 H 406.923 -3.7686 1.21624 0
M  V30 4164 H 408.097 -2.58138 3.81709 0
M  V30 4165 H 406.412 -2.46201 3.35819 0
M  V30 4166 H 409.009 -4.9287 2.07323 0
M  V30 4167 H 409.352 -4.12502 0.561025 0
M  V30 4168 H 409.885 -3.38472 2.09001 0
M  V30 4169 H 406.624 -4.30559 4.94267 0
M  V30 4170 H 406.144 -4.96664 3.36281 0
M  V30 4171 H 407.823 -5.1382 3.93189 0
M  V30 4172 N 407.956 -0.998596 -1.21925 0
M  V30 4173 C 409.202 -0.678667 -1.91107 0
M  V30 4174 C 409.535 0.78791 -1.77498 0
M  V30 4175 O 408.81 1.57043 -1.1475 0
M  V30 4176 C 409.093 -1.09245 -3.43129 0
M  V30 4177 C 408.946 -2.61801 -3.6576 0
M  V30 4178 C 410.265 -0.649984 -4.35274 0
M  V30 4179 H 407.384 -0.248025 -0.694012 0
M  V30 4180 H 410.026 -1.24314 -1.43688 0
M  V30 4181 H 408.176 -0.612171 -3.83647 0
M  V30 4182 H 409.848 -3.17543 -3.34611 0
M  V30 4183 H 408.091 -3.03609 -3.09845 0
M  V30 4184 H 408.762 -2.85804 -4.7225 0
M  V30 4185 H 411.238 -1.0626 -4.02303 0
M  V30 4186 H 410.114 -0.967743 -5.40302 0
M  V30 4187 H 410.375 0.449139 -4.39813 0
M  V30 4188 N 409.434 1.37368 -0.772513 0
M  V30 4189 C 410.364 2.32856 -0.173304 0
M  V30 4190 C 411.345 1.55818 0.682262 0
M  V30 4191 O 412.53 1.84052 0.619566 0
M  V30 4192 C 409.66 3.40048 0.706007 0
M  V30 4193 C 408.614 4.27973 -0.0483144 0
M  V30 4194 C 407.94 5.26184 0.950491 0
M  V30 4195 C 409.24 5.07665 -1.22776 0
M  V30 4196 H 410.934 2.83217 -0.971002 0
M  V30 4197 H 408.48 1.3617 -0.468377 0
M  V30 4198 H 410.433 4.05827 1.13501 0
M  V30 4199 H 409.157 2.88214 1.53623 0
M  V30 4200 H 407.816 3.63726 -0.458107 0
M  V30 4201 H 407.464 4.7063 1.77529 0
M  V30 4202 H 407.164 5.85872 0.450314 0
M  V30 4203 H 408.688 5.94838 1.37842 0
M  V30 4204 H 410.102 5.66578 -0.875366 0
M  V30 4205 H 408.499 5.76681 -1.66007 0
M  V30 4206 H 409.569 4.40294 -2.03149 0
M  V30 4207 O 410.951 0.664551 1.47194 0
M  V30 4208 H 411.642 0.193541 1.92731 0
M  V30 END ATOM
M  V30 BEGIN BOND
M  V30 END BOND
M  V30 END CTAB
M  END
$$$$
