drugbank_target|P44725 Ribose-5-phosphate isomerase A (DB04272)
 OpenBabel12092120293D

  0  0  0     0  0            999 V3000
M  V30 BEGIN CTAB
M  V30 COUNTS 3295 3311 0 0 0
M  V30 BEGIN ATOM
M  V30 1 H -0.908 1.98254 -0.117106 0
M  V30 2 N 0 1.576 0 0
M  V30 3 C 0.933 2.03868 1.02534 0
M  V30 4 C 1.911 0.928543 1.3348 0
M  V30 5 O 3.095 1.19667 1.45644 0
M  V30 6 C 0.222 2.43627 2.35294 0
M  V30 7 C -0.732 3.65373 2.2001 0
M  V30 8 S 0.101 5.13292 1.52614 0
M  V30 9 C 1.257 5.56322 2.86805 0
M  V30 10 H 1.49 2.90518 0.631377 0
M  V30 11 H -0.977 1.52953 0.210867 0
M  V30 12 H 0.981 2.67203 3.11629 0
M  V30 13 H -0.358 1.57376 2.7183 0
M  V30 14 H -1.165 3.90944 3.18086 0
M  V30 15 H -1.563 3.418 1.51819 0
M  V30 16 H 0.729 5.58782 3.83104 0
M  V30 17 H 1.672 6.56266 2.65933 0
M  V30 18 H 2.08 4.83886 2.90714 0
M  V30 19 N 1.4781 -0.272755 1.55222 0
M  V30 20 C 2.4261 -1.35705 1.88909 0
M  V30 21 C 3.4201 -1.5112 0.765456 0
M  V30 22 O 4.6261 -1.52901 0.949802 0
M  V30 23 H 1.0011 -0.453868 0.59959 0
M  V30 24 H 2.9721 -1.04544 2.79487 0
M  V30 25 C 1.7211 -2.71049 2.17779 0
M  V30 26 H 1.0441 -2.59979 3.03728 0
M  V30 27 H 2.4841 -3.45858 2.45272 0
M  V30 28 C 0.9431 -3.22165 0.985473 0
M  V30 29 O 1.4731 -4.01096 0.220233 0
M  V30 30 N -0.3209 -2.7985 0.783108 0
M  V30 31 H -0.7739 -2.15775 1.40708 0
M  V30 32 H -0.8159 -3.14397 -0.0130392 0
M  V30 33 N 2.9562 -1.48159 -0.537278 0
M  V30 34 C 3.8882 -1.58218 -1.65831 0
M  V30 35 C 4.9012 -0.466948 -1.5596 0
M  V30 36 O 6.0902 -0.73747 -1.62553 0
M  V30 37 C 3.1902 -1.48906 -3.04434 0
M  V30 38 C 2.3632 -2.75343 -3.3986 0
M  V30 39 C 1.4222 -2.59588 -4.57712 0
M  V30 40 O 0.4482 -3.33457 -4.61297 0
M  V30 41 N 1.6502 -1.68724 -5.55439 0
M  V30 42 H 4.4152 -2.54891 -1.57641 0
M  V30 43 H 1.9762 -1.4479 -0.724386 0
M  V30 44 H 3.9682 -1.36072 -3.81139 0
M  V30 45 H 2.5382 -0.602368 -3.06741 0
M  V30 46 H 1.7582 -3.02795 -2.52406 0
M  V30 47 H 3.0462 -3.5924 -3.60311 0
M  V30 48 H 2.4442 -1.07898 -5.55315 0
M  V30 49 H 1.0012 -1.61832 -6.3139 0
M  V30 50 N 4.4343 0.785586 -1.36625 0
M  V30 51 C 5.3643 1.91259 -1.33949 0
M  V30 52 C 6.3453 1.68795 -0.210325 0
M  V30 53 O 7.5303 1.89854 -0.408561 0
M  V30 54 C 4.6603 3.28339 -1.13186 0
M  V30 55 C 3.6143 3.65335 -2.22967 0
M  V30 56 C 2.9403 5.00806 -1.87342 0
M  V30 57 C 4.2403 3.7352 -3.65075 0
M  V30 58 H 5.9343 1.93755 -2.28253 0
M  V30 59 H 3.4803 0.930788 -1.09874 0
M  V30 60 H 5.4333 4.06804 -1.09948 0
M  V30 61 H 4.1573 3.2624 -0.153332 0
M  V30 62 H 2.8163 2.89169 -2.25337 0
M  V30 63 H 2.4643 4.95233 -0.880545 0
M  V30 64 H 2.1643 5.26529 -2.60846 0
M  V30 65 H 3.6883 5.81687 -1.85667 0
M  V30 66 H 5.1023 4.42168 -3.64911 0
M  V30 67 H 3.4993 4.10731 -4.37516 0
M  V30 68 H 4.5693 2.74527 -3.99703 0
M  V30 69 N 5.9124 1.20967 1.01018 0
M  V30 70 C 6.8224 0.980157 2.13143 0
M  V30 71 C 7.8384 -0.0660665 1.73875 0
M  V30 72 O 9.0144 0.122821 2.01025 0
M  V30 73 C 6.0794 0.54216 3.42435 0
M  V30 74 C 5.1404 1.65999 3.95908 0
M  V30 75 C 4.3734 1.2428 5.19028 0
M  V30 76 O 4.5964 0.114196 5.70286 0
M  V30 77 O 3.5304 2.05271 5.65816 0
M  V30 78 H 7.3564 1.91913 2.35379 0
M  V30 79 H 4.9414 0.994099 1.11526 0
M  V30 80 H 6.8234 0.30744 4.20277 0
M  V30 81 H 5.4984 -0.36815 3.216 0
M  V30 82 H 4.4054 1.94906 3.19316 0
M  V30 83 H 5.7384 2.54753 4.21143 0
M  V30 84 N 7.3905 -1.2043 1.01659 0
M  V30 85 C 8.3235 -2.21924 0.531521 0
M  V30 86 C 9.3015 -1.57054 -0.421032 0
M  V30 87 O 10.4855 -1.85389 -0.341035 0
M  V30 88 C 7.6125 -3.37942 -0.226496 0
M  V30 89 C 6.6585 -4.21115 0.67561 0
M  V30 90 S 7.4915 -4.90674 2.14475 0
M  V30 91 C 8.6475 -6.10113 1.3969 0
M  V30 92 H 8.8805 -2.62725 1.3915 0
M  V30 93 H 6.4135 -1.30481 0.825479 0
M  V30 94 H 8.3715 -4.05196 -0.657738 0
M  V30 95 H 7.0325 -2.956 -1.06205 0
M  V30 96 H 6.2255 -5.03918 0.091108 0
M  V30 97 H 5.8275 -3.59115 1.04463 0
M  V30 98 H 8.1195 -6.7411 0.676897 0
M  V30 99 H 9.0625 -6.73022 2.20107 0
M  V30 100 H 9.4705 -5.57283 0.899786 0
M  V30 101 N 8.8686 -0.792821 -1.36206 0
M  V30 102 C 9.8156 -0.191653 -2.30003 0
M  V30 103 C 10.7856 0.666453 -1.52143 0
M  V30 104 O 11.9706 0.61442 -1.80636 0
M  V30 105 C 9.1106 0.664848 -3.38635 0
M  V30 106 C 8.2236 -0.212175 -4.31479 0
M  V30 107 C 7.3586 0.651022 -5.27196 0
M  V30 108 C 6.3976 -0.227247 -6.11678 0
M  V30 109 N 5.5346 0.595127 -6.99573 0
M  V30 110 H 10.3746 -0.996978 -2.80828 0
M  V30 111 H 7.9116 -0.503206 -1.38225 0
M  V30 112 H 9.8696 1.17645 -4.00269 0
M  V30 113 H 8.4996 1.43557 -2.89122 0
M  V30 114 H 7.5516 -0.841777 -3.70969 0
M  V30 115 H 8.8636 -0.888751 -4.90818 0
M  V30 116 H 8.0176 1.2283 -5.94136 0
M  V30 117 H 6.7566 1.36121 -4.68319 0
M  V30 118 H 5.7616 -0.816904 -5.43697 0
M  V30 119 H 6.9866 -0.93509 -6.72631 0
M  V30 120 H 4.9326 1.28955 -6.432 0
M  V30 121 H 4.8496 -0.0236952 -7.55996 0
M  V30 122 H 6.1176 1.15613 -7.70879 0
M  V30 123 N 10.3467 1.47872 -0.545128 0
M  V30 124 C 11.2937 2.29849 0.2093 0
M  V30 125 C 12.2637 1.38313 0.919707 0
M  V30 126 O 13.4487 1.67277 0.917772 0
M  V30 127 C 10.5887 3.22019 1.24088 0
M  V30 128 C 9.7017 4.2864 0.537778 0
M  V30 129 C 8.8367 5.07973 1.5536 0
M  V30 130 C 7.8757 6.06381 0.8348 0
M  V30 131 N 7.0127 6.78717 1.79688 0
M  V30 132 H 11.8527 2.93845 -0.49591 0
M  V30 133 H 9.3897 1.44848 -0.256389 0
M  V30 134 H 11.3477 3.73868 1.85144 0
M  V30 135 H 9.9777 2.59914 1.91428 0
M  V30 136 H 9.0297 3.7994 -0.187046 0
M  V30 137 H 10.3417 4.98793 -0.0258907 0
M  V30 138 H 9.4957 5.63912 2.23803 0
M  V30 139 H 8.2347 4.37693 2.15118 0
M  V30 140 H 7.2397 5.49631 0.136388 0
M  V30 141 H 8.4647 6.78665 0.24313 0
M  V30 142 H 6.4107 6.11177 2.38326 0
M  V30 143 H 6.3277 7.44998 1.28505 0
M  V30 144 H 7.5957 7.39237 2.47282 0
M  V30 145 N 11.8248 0.280983 1.55075 0
M  V30 146 C 12.7548 -0.597469 2.25727 0
M  V30 147 C 13.7358 -1.15417 1.24952 0
M  V30 148 O 14.9208 -1.18722 1.53684 0
M  V30 149 C 12.0508 -1.7789 2.98283 0
M  V30 150 C 11.0048 -1.35347 4.06036 0
M  V30 151 C 10.3308 -2.61846 4.66198 0
M  V30 152 C 11.6308 -0.499354 5.19907 0
M  V30 153 H 13.3248 -0.00824265 2.99399 0
M  V30 154 H 10.8708 -0.0025244 1.44 0
M  V30 155 H 12.8238 -2.39937 3.46422 0
M  V30 156 H 11.5478 -2.39405 2.22155 0
M  V30 157 H 10.2068 -0.756156 3.58717 0
M  V30 158 H 9.8548 -3.21632 3.86732 0
M  V30 159 H 9.5548 -2.3409 5.38958 0
M  V30 160 H 11.0788 -3.24732 5.1709 0
M  V30 161 H 12.4928 -1.02498 5.64063 0
M  V30 162 H 10.8898 -0.316424 5.99265 0
M  V30 163 H 11.9598 0.480459 4.82514 0
M  V30 164 N 13.3029 -1.57598 0.00835791 0
M  V30 165 C 14.2659 -2.07884 -0.965242 0
M  V30 166 C 15.2659 -0.989825 -1.26725 0
M  V30 167 O 16.4559 -1.25218 -1.21104 0
M  V30 168 C 13.5879 -2.52731 -2.28779 0
M  V30 169 H 14.7809 -2.95178 -0.530112 0
M  V30 170 H 12.3339 -1.54458 -0.239283 0
M  V30 171 H 13.0689 -1.68705 -2.76964 0
M  V30 172 H 12.8539 -3.32272 -2.08177 0
M  V30 173 H 14.3439 -2.91933 -2.98605 0
M  V30 174 N 14.781 0.264519 -1.55364 0
M  V30 175 C 15.744 1.31046 -1.88042 0
M  V30 176 C 16.744 1.41943 -0.755569 0
M  V30 177 O 17.934 1.40947 -1.02369 0
M  V30 178 C 15.066 2.69067 -2.09323 0
M  V30 179 H 16.259 1.03297 -2.81549 0
M  V30 180 H 13.812 0.502989 -1.47986 0
M  V30 181 H 14.547 3.01982 -1.18226 0
M  V30 182 H 14.332 2.62542 -2.91229 0
M  V30 183 H 15.822 3.44623 -2.35848 0
M  V30 184 N 16.2591 1.48442 0.529413 0
M  V30 185 C 17.1911 1.59095 1.64989 0
M  V30 186 C 18.2041 0.475212 1.5571 0
M  V30 187 O 19.3931 0.746081 1.6216 0
M  V30 188 C 16.4931 1.50518 3.0364 0
M  V30 189 C 15.6661 2.77142 3.38395 0
M  V30 190 C 14.7251 2.62012 4.56329 0
M  V30 191 O 13.7511 3.35898 4.59522 0
M  V30 192 N 14.9531 1.71667 5.54536 0
M  V30 193 H 17.7181 2.55723 1.56287 0
M  V30 194 H 15.2791 1.45173 0.716697 0
M  V30 195 H 17.2711 1.38091 3.80412 0
M  V30 196 H 15.8411 0.618627 3.06418 0
M  V30 197 H 15.0611 3.0413 2.50796 0
M  V30 198 H 16.3491 3.61146 3.58401 0
M  V30 199 H 15.7471 1.10841 5.54735 0
M  V30 200 H 14.3041 1.65178 6.30523 0
M  V30 201 N 17.7372 -0.778329 1.37039 0
M  V30 202 C 18.7002 -1.87301 1.32102 0
M  V30 203 C 19.7002 -1.59198 0.226405 0
M  V30 204 O 20.8902 -1.67403 0.481861 0
M  V30 205 C 18.0222 -3.24309 1.05055 0
M  V30 206 H 19.2152 -1.93093 2.29467 0
M  V30 207 H 16.7682 -0.977358 1.21973 0
M  V30 208 H 17.5032 -3.24196 0.0819373 0
M  V30 209 H 17.2882 -3.46098 1.84279 0
M  V30 210 H 18.7782 -4.04382 1.04234 0
M  V30 211 N 19.2153 -1.21501 -1.00376 0
M  V30 212 C 20.1783 -0.976927 -2.07337 0
M  V30 213 C 21.1783 0.0525322 -1.60714 0
M  V30 214 O 22.3683 -0.184869 -1.73216 0
M  V30 215 C 19.5003 -0.473423 -3.37597 0
M  V30 216 H 20.6933 -1.92587 -2.29892 0
M  V30 217 H 18.2463 -1.03217 -1.17371 0
M  V30 218 H 18.9813 0.480379 -3.20722 0
M  V30 219 H 18.7663 -1.216 -3.72768 0
M  V30 220 H 20.2563 -0.32675 -4.1632 0
M  V30 221 N 20.6934 1.19889 -1.02296 0
M  V30 222 C 21.6234 2.25141 -0.619174 0
M  V30 223 C 22.6044 1.66051 0.368915 0
M  V30 224 O 23.7894 1.92546 0.252941 0
M  V30 225 C 20.9194 3.4728 0.0368783 0
M  V30 226 C 19.8734 4.19005 -0.872865 0
M  V30 227 C 19.1994 5.34637 -0.0822402 0
M  V30 228 C 20.4994 4.74452 -2.18387 0
M  V30 229 H 22.1934 2.59171 -1.49903 0
M  V30 230 H 19.7394 1.24579 -0.722222 0
M  V30 231 H 21.6924 4.20098 0.330958 0
M  V30 232 H 20.4164 3.12433 0.95149 0
M  V30 233 H 19.0754 3.48061 -1.15105 0
M  V30 234 H 18.7234 4.96034 0.83422 0
M  V30 235 H 18.4234 5.83557 -0.688149 0
M  V30 236 H 19.9474 6.10255 0.205238 0
M  V30 237 H 21.3614 5.39055 -1.95172 0
M  V30 238 H 19.7584 5.33834 -2.74119 0
M  V30 239 H 20.8284 3.92844 -2.84257 0
M  V30 240 N 22.1715 0.800033 1.35784 0
M  V30 241 C 23.1035 0.163596 2.28615 0
M  V30 242 C 24.1165 -0.633317 1.49976 0
M  V30 243 O 25.3055 -0.466754 1.72289 0
M  V30 244 C 22.4055 -0.790958 3.29541 0
M  V30 245 C 21.5785 -0.0418255 4.3738 0
M  V30 246 C 20.6375 -0.91389 5.18203 0
M  V30 247 O 19.6635 -0.367234 5.68014 0
M  V30 248 N 20.8655 -2.23682 5.35674 0
M  V30 249 H 23.6305 0.96105 2.83873 0
M  V30 250 H 21.1915 0.654894 1.48063 0
M  V30 251 H 23.1835 -1.37844 3.80501 0
M  V30 252 H 21.7535 -1.48925 2.74846 0
M  V30 253 H 20.9735 0.726813 3.87442 0
M  V30 254 H 22.2615 0.474719 5.06581 0
M  V30 255 H 21.6595 -2.70497 4.96838 0
M  V30 256 H 20.2165 -2.77369 5.89839 0
M  V30 257 N 23.6496 -1.47581 0.552962 0
M  V30 258 C 24.8796 -2.06575 0.0320091 0
M  V30 259 C 25.2876 -1.4067 -1.26525 0
M  V30 260 O 24.6306 -0.495808 -1.76883 0
M  V30 261 C 24.6926 -3.58705 -0.238913 0
M  V30 262 C 24.3566 -4.46625 0.968272 0
M  V30 263 C 25.3536 -4.85 1.87274 0
M  V30 264 C 23.0386 -4.88201 1.18175 0
M  V30 265 C 25.0326 -5.63745 2.9744 0
M  V30 266 C 22.7196 -5.66712 2.28651 0
M  V30 267 C 23.7176 -6.04394 3.18114 0
M  V30 268 O 23.4056 -6.81324 4.26676 0
M  V30 269 H 23.1376 -0.674763 0.0408689 0
M  V30 270 H 25.6916 -1.90634 0.764719 0
M  V30 271 H 23.9216 -3.72844 -1.02588 0
M  V30 272 H 25.6106 -3.99735 -0.704731 0
M  V30 273 H 26.3766 -4.53482 1.71984 0
M  V30 274 H 22.2556 -4.58339 0.494593 0
M  V30 275 H 25.7996 -5.93077 3.67296 0
M  V30 276 H 21.6966 -5.97642 2.43915 0
M  V30 277 H 22.4646 -6.99712 4.24671 0
M  V30 278 N 25.1277 -0.289203 -1.54924 0
M  V30 279 C 26.3737 0.323998 -2.00195 0
M  V30 280 C 26.7067 1.54441 -1.17735 0
M  V30 281 O 25.9817 1.92875 -0.250878 0
M  V30 282 C 26.2647 0.692276 -3.53383 0
M  V30 283 C 26.1177 -0.536457 -4.46589 0
M  V30 284 C 27.4367 1.52335 -4.12895 0
M  V30 285 H 24.5557 0.116289 -0.727768 0
M  V30 286 H 27.1977 -0.398954 -1.85764 0
M  V30 287 H 25.3477 1.30822 -3.65811 0
M  V30 288 H 27.0197 -1.17499 -4.46085 0
M  V30 289 H 25.2627 -1.17192 -4.1767 0
M  V30 290 H 25.9337 -0.234806 -5.515 0
M  V30 291 H 28.4097 1.00302 -4.0383 0
M  V30 292 H 27.2857 1.74982 -5.20262 0
M  V30 293 H 27.5467 2.50886 -3.64018 0
M  V30 294 N 26.6058 1.57591 -0.0167156 0
M  V30 295 C 27.5528 2.09462 0.969251 0
M  V30 296 C 28.5228 0.99381 1.33089 0
M  V30 297 O 29.7078 1.26726 1.42636 0
M  V30 298 C 26.8478 2.61622 2.25051 0
M  V30 299 C 25.9608 3.85666 1.94642 0
M  V30 300 C 25.0958 4.26266 3.16972 0
M  V30 301 C 24.1348 5.43101 2.82326 0
M  V30 302 N 23.2718 5.78915 3.97243 0
M  V30 303 H 28.1118 2.93428 0.519997 0
M  V30 304 H 25.6488 1.45044 0.245087 0
M  V30 305 H 27.6068 2.89949 2.99976 0
M  V30 306 H 26.2368 1.80505 2.67615 0
M  V30 307 H 25.2888 3.64145 1.10013 0
M  V30 308 H 26.6008 4.70678 1.65117 0
M  V30 309 H 25.7548 4.55963 4.00228 0
M  V30 310 H 24.4938 3.39996 3.49648 0
M  V30 311 H 23.4988 5.1311 1.97479 0
M  V30 312 H 24.7238 6.3106 2.50879 0
M  V30 313 H 22.6698 4.95602 4.29785 0
M  V30 314 H 22.5868 6.58539 3.71299 0
M  V30 315 H 23.8548 6.13212 4.81239 0
M  V30 316 N 28.0839 -0.256276 1.55502 0
M  V30 317 C 29.0469 -1.30047 1.88734 0
M  V30 318 C 30.0469 -1.4154 0.763086 0
M  V30 319 O 31.2369 -1.40403 1.03115 0
M  V30 320 C 28.3689 -2.67953 2.10747 0
M  V30 321 H 29.5619 -1.01802 2.82093 0
M  V30 322 H 27.1149 -0.495134 1.4825 0
M  V30 323 H 27.8499 -3.01351 1.19825 0
M  V30 324 H 27.6349 -2.60993 2.92617 0
M  V30 325 H 29.1249 -3.43368 2.37673 0
M  V30 326 N 29.562 -1.4872 -0.521534 0
M  V30 327 C 30.839 -1.4766 -1.2828 0
M  V30 328 C 31.219 -0.19292 -2.10217 0
M  V30 329 O 30.567 0.825193 -2.13079 0
M  V30 330 C 30.777 -2.74358 -2.15705 0
M  V30 331 C 32.125 -3.23028 -2.75569 0
M  V30 332 O 33.149 -2.75333 -2.25987 0
M  V30 333 O 32.008 -4.0604 -3.65778 0
M  V30 334 H 29.102 -0.590085 -0.579421 0
M  V30 335 H 31.648 -1.60963 -0.537492 0
M  V30 336 H 30.42 -3.59292 -1.54999 0
M  V30 337 H 30.043 -2.63816 -2.97467 0
M  V30 338 N 31.0401 0.771051 -1.3745 0
M  V30 339 C 32.2681 1.56015 -1.35893 0
M  V30 340 C 32.6831 1.88718 0.0555523 0
M  V30 341 O 32.0401 1.51502 1.01752 0
M  V30 342 C 32.0911 2.87001 -2.19801 0
M  V30 343 O 31.8121 2.557 -3.55738 0
M  V30 344 C 33.3131 3.81228 -2.26231 0
M  V30 345 H 30.5331 0.483317 -0.465453 0
M  V30 346 H 33.0771 0.955611 -1.80799 0
M  V30 347 H 31.2321 3.43877 -1.78402 0
M  V30 348 H 31.6461 3.39584 -3.99729 0
M  V30 349 H 33.1201 4.70139 -2.89263 0
M  V30 350 H 33.5971 4.20409 -1.27093 0
M  V30 351 H 34.2031 3.30281 -2.67945 0
M  V30 352 N 32.5182 1.22032 0.997298 0
M  V30 353 C 33.7672 1.03637 1.73038 0
M  V30 354 C 34.0802 -0.429475 1.90827 0
M  V30 355 O 35.2862 -0.732995 2.61418 0
M  V30 356 C 33.7422 1.80582 3.11317 0
M  V30 357 C 33.3502 3.31387 3.01474 0
M  V30 358 C 35.0942 1.70621 3.88701 0
M  V30 359 C 33.0012 4.00791 4.3488 0
M  V30 360 H 31.9312 0.384179 0.648785 0
M  V30 361 H 34.5822 1.4584 1.11368 0
M  V30 362 H 32.9642 1.31175 3.73643 0
M  V30 363 H 34.1382 3.88155 2.4834 0
M  V30 364 H 32.4532 3.41976 2.37575 0
M  V30 365 H 35.0502 2.19799 4.87434 0
M  V30 366 H 35.3932 0.665823 4.10941 0
M  V30 367 H 35.9262 2.17547 3.33044 0
M  V30 368 H 32.6652 5.05064 4.1784 0
M  V30 369 H 32.1852 3.48811 4.87945 0
M  V30 370 H 33.8642 4.06139 5.03647 0
M  V30 371 N 33.9963 -1.19345 1.0293 0
M  V30 372 C 35.2423 -1.89318 0.727083 0
M  V30 373 C 35.5753 -1.79446 -0.742483 0
M  V30 374 O 34.8503 -1.1871 -1.54072 0
M  V30 375 C 35.1333 -3.40238 1.17942 0
M  V30 376 C 34.9863 -3.58979 2.71024 0
M  V30 377 C 36.3053 -4.33479 0.760548 0
M  V30 378 H 33.4243 -0.687475 0.265606 0
M  V30 379 H 36.0663 -1.40477 1.2793 0
M  V30 380 H 34.2163 -3.81964 0.709608 0
M  V30 381 H 35.8883 -3.26421 3.25955 0
M  V30 382 H 34.1313 -3.02018 3.11396 0
M  V30 383 H 34.8023 -4.64823 2.9773 0
M  V30 384 H 37.2783 -3.99469 1.16464 0
M  V30 385 H 36.1543 -5.37664 1.10493 0
M  V30 386 H 36.4153 -4.40813 -0.337063 0
M  V30 387 N 35.4744 -0.807222 -1.35358 0
M  V30 388 C 36.7224 -0.387122 -1.98358 0
M  V30 389 C 37.0434 1.04942 -1.64354 0
M  V30 390 O 36.3134 1.72615 -0.926339 0
M  V30 391 H 34.8934 -0.140154 -0.733734 0
M  V30 392 H 37.5554 -1.0332 -1.6526 0
M  V30 393 H 36.6514 -0.493352 -3.08176 0
M  V30 394 N 36.9525 1.47285 -0.560781 0
M  V30 395 C 38.1985 2.02764 -0.0381184 0
M  V30 396 C 38.5315 1.43384 1.30976 0
M  V30 397 O 37.8065 0.590733 1.85312 0
M  V30 398 C 38.0895 3.60064 0.0511427 0
M  V30 399 C 37.9425 4.2987 -1.32408 0
M  V30 400 C 39.2615 4.33439 0.762795 0
M  V30 401 H 36.3805 0.736841 -0.0153264 0
M  V30 402 H 39.0225 1.75675 -0.723759 0
M  V30 403 H 37.1725 3.83274 0.635065 0
M  V30 404 H 38.8445 4.17989 -1.95148 0
M  V30 405 H 37.0875 3.90085 -1.8978 0
M  V30 406 H 37.7585 5.38478 -1.21431 0
M  V30 407 H 40.2345 4.15243 0.266965 0
M  V30 408 H 39.1105 5.43124 0.794221 0
M  V30 409 H 39.3715 4.02915 1.81966 0
M  V30 410 N 38.4306 0.297415 1.54768 0
M  V30 411 C 39.6786 -0.312295 1.99673 0
M  V30 412 C 39.9996 -1.54686 1.18732 0
M  V30 413 O 39.2696 -1.93854 0.282382 0
M  V30 414 H 37.8496 -0.118381 0.73756 0
M  V30 415 H 40.5116 0.407915 1.90583 0
M  V30 416 H 39.6076 -0.586813 3.06534 0
M  V30 417 N 39.9087 -1.5758 0.0250728 0
M  V30 418 C 41.1337 -1.96337 -0.668317 0
M  V30 419 C 41.5587 -0.901314 -1.651 0
M  V30 420 O 40.9167 0.138187 -1.80773 0
M  V30 421 C 40.9647 -3.34191 -1.35457 0
M  V30 422 O 40.0687 -3.30269 -2.46974 0
M  V30 423 H 39.4097 -0.640281 -0.175887 0
M  V30 424 H 41.9397 -2.0442 0.0857224 0
M  V30 425 H 41.9497 -3.70331 -1.71228 0
M  V30 426 H 40.6247 -4.11036 -0.634218 0
M  V30 427 H 39.2017 -3.05841 -2.13344 0
M  V30 428 N 41.3868 0.248026 -1.55636 0
M  V30 429 C 42.6348 0.974295 -1.77065 0
M  V30 430 C 42.9558 1.85897 -0.588849 0
M  V30 431 O 42.2258 1.91868 0.395407 0
M  V30 432 H 40.8058 0.362733 -0.653019 0
M  V30 433 H 43.4678 0.266244 -1.93073 0
M  V30 434 H 42.5638 1.59667 -2.68166 0
M  V30 435 N 42.8649 1.48995 0.513639 0
M  V30 436 C 44.0899 1.61792 1.29762 0
M  V30 437 C 44.5149 0.284475 1.85936 0
M  V30 438 O 43.8729 -0.746185 1.65232 0
M  V30 439 C 43.9209 2.67993 2.41272 0
M  V30 440 O 43.0249 2.26287 3.44772 0
M  V30 441 H 42.3659 0.541963 0.38363 0
M  V30 442 H 44.8959 1.95097 0.616307 0
M  V30 443 H 44.9059 2.89772 2.87221 0
M  V30 444 H 43.5809 3.64791 1.9975 0
M  V30 445 H 42.1579 2.14788 3.04829 0
M  V30 446 N 44.343 -0.763751 1.37857 0
M  V30 447 C 45.571 -1.55293 1.36718 0
M  V30 448 C 45.986 -1.88745 -0.0455434 0
M  V30 449 O 45.343 -1.52039 -1.00947 0
M  V30 450 C 45.394 -2.85831 2.2132 0
M  V30 451 O 45.115 -2.5381 3.57089 0
M  V30 452 C 46.616 -3.80023 2.28249 0
M  V30 453 H 43.836 -0.480841 0.468009 0
M  V30 454 H 46.38 -0.946009 1.81303 0
M  V30 455 H 44.535 -3.42926 1.80223 0
M  V30 456 H 44.949 -3.37459 4.01524 0
M  V30 457 H 46.423 -4.68599 2.91752 0
M  V30 458 H 46.9 -4.1973 1.2932 0
M  V30 459 H 47.506 -3.28855 2.69693 0
M  V30 460 N 45.8211 -1.22559 -0.990812 0
M  V30 461 C 47.0671 -1.05297 -1.73322 0
M  V30 462 C 47.4001 0.410655 -1.89808 0
M  V30 463 O 46.6751 1.30439 -1.44277 0
M  V30 464 C 46.9581 -1.76713 -3.13759 0
M  V30 465 C 46.8111 -3.30684 -3.04907 0
M  V30 466 C 48.1301 -1.52121 -4.12974 0
M  V30 467 H 45.2491 -0.38392 -0.629106 0
M  V30 468 H 47.8911 -1.50926 -1.15418 0
M  V30 469 H 46.0411 -1.37924 -3.63193 0
M  V30 470 H 47.7131 -3.7893 -2.63077 0
M  V30 471 H 45.9561 -3.60253 -2.41661 0
M  V30 472 H 46.6271 -3.75833 -4.04294 0
M  V30 473 H 49.1031 -1.85819 -3.72304 0
M  V30 474 H 47.9791 -2.04582 -5.0935 0
M  V30 475 H 48.2401 -0.454257 -4.3976 0
M  V30 476 N 47.2992 1.18797 -1.03562 0
M  V30 477 C 48.2472 2.24297 -0.615905 0
M  V30 478 C 49.2412 1.65643 0.354808 0
M  V30 479 O 50.4472 1.78618 0.22265 0
M  V30 480 H 46.8222 0.729909 -0.180934 0
M  V30 481 H 48.7932 2.5701 -1.5162 0
M  V30 482 C 47.5422 3.47698 0.0104735 0
M  V30 483 H 46.8652 3.93125 -0.727509 0
M  V30 484 H 48.3052 4.23159 0.266995 0
M  V30 485 C 46.7642 3.12489 1.25905 0
M  V30 486 O 47.2942 3.25761 2.35038 0
M  V30 487 N 45.5002 2.6686 1.15039 0
M  V30 488 H 45.0472 2.56261 0.262328 0
M  V30 489 H 45.0052 2.43674 1.98672 0
M  V30 490 N 48.7773 0.814389 1.34928 0
M  V30 491 C 50.0173 0.404165 2.00364 0
M  V30 492 C 50.3813 -1.01166 1.63185 0
M  V30 493 O 51.5823 -1.52431 2.21401 0
M  V30 494 C 49.8533 0.590718 3.52484 0
M  V30 495 S 51.4123 0.272075 4.37956 0
M  V30 496 H 48.2303 0.15311 0.694319 0
M  V30 497 H 50.8323 1.05834 1.64376 0
M  V30 498 H 49.5363 1.62099 3.77031 0
M  V30 499 H 49.0673 -0.0785013 3.93322 0
M  V30 500 H 51.0823 -0.917405 4.87645 0
M  V30 501 N 50.2554 -1.46986 0.568584 0
M  V30 502 C 51.5024 -2.02441 0.0487986 0
M  V30 503 C 51.8304 -1.44169 -1.30559 0
M  V30 504 O 51.0854 -0.591213 -1.86556 0
M  V30 505 C 51.3844 -3.57306 -0.081836 0
M  V30 506 C 51.0504 -4.34552 1.20313 0
M  V30 507 C 49.7124 -4.55376 1.5552 0
M  V30 508 C 52.0644 -4.79016 2.05411 0
M  V30 509 C 49.3924 -5.17913 2.7565 0
M  V30 510 C 51.7444 -5.42879 3.24754 0
M  V30 511 C 50.4084 -5.61933 3.60261 0
M  V30 512 H 49.6784 -0.740785 0.0178567 0
M  V30 513 H 52.3254 -1.76525 0.742384 0
M  V30 514 H 50.6304 -3.8228 -0.858463 0
M  V30 515 H 52.3274 -3.97876 -0.499546 0
M  V30 516 H 48.9174 -4.18631 0.919014 0
M  V30 517 H 53.1014 -4.62696 1.79516 0
M  V30 518 H 48.3574 -5.30858 3.03315 0
M  V30 519 H 52.5314 -5.76293 3.90973 0
M  V30 520 H 50.1584 -6.10161 4.53439 0
M  V30 521 N 51.7335 -0.305618 -1.54608 0
M  V30 522 C 52.9825 0.303098 -1.9941 0
M  V30 523 C 53.2955 1.54648 -1.19764 0
M  V30 524 O 54.5015 2.23007 -1.54855 0
M  V30 525 C 52.9575 0.590588 -3.55021 0
M  V30 526 C 52.5655 -0.634719 -4.43481 0
M  V30 527 C 54.3095 1.16025 -4.08336 0
M  V30 528 C 52.2165 -0.320126 -5.90533 0
M  V30 529 H 51.1465 0.117031 -0.744862 0
M  V30 530 H 53.7975 -0.415045 -1.78745 0
M  V30 531 H 52.1795 1.36845 -3.71604 0
M  V30 532 H 53.3535 -1.41079 -4.38672 0
M  V30 533 H 51.6685 -1.12333 -4.00962 0
M  V30 534 H 54.2655 1.40994 -5.15776 0
M  V30 535 H 54.6085 2.10397 -3.5922 0
M  V30 536 H 55.1415 0.443985 -3.95315 0
M  V30 537 H 51.8805 -1.23254 -6.43808 0
M  V30 538 H 51.4005 0.418579 -5.98338 0
M  V30 539 H 53.0795 0.0766241 -6.46955 0
M  V30 540 N 53.2116 1.57565 -0.0334293 0
M  V30 541 C 54.1216 2.13943 0.962572 0
M  V30 542 C 55.1376 1.09276 1.35406 0
M  V30 543 O 56.3136 1.41355 1.4346 0
M  V30 544 C 53.3786 2.65887 2.22497 0
M  V30 545 C 52.4396 3.85286 1.8935 0
M  V30 546 C 51.6726 4.34743 3.09571 0
M  V30 547 O 51.8956 3.83352 4.22371 0
M  V30 548 O 50.8296 5.26538 2.91618 0
M  V30 549 H 54.6556 2.99333 0.513169 0
M  V30 550 H 52.2406 1.4822 0.18743 0
M  V30 551 H 54.1226 2.99346 2.96598 0
M  V30 552 H 52.7976 1.83578 2.6661 0
M  V30 553 H 51.7046 3.56746 1.1262 0
M  V30 554 H 53.0376 4.68771 1.5005 0
M  V30 555 N 54.6897 -0.239769 1.55765 0
M  V30 556 C 55.6527 -1.28038 1.90103 0
M  V30 557 C 56.6527 -1.40723 0.778055 0
M  V30 558 O 57.8427 -1.39301 1.04599 0
M  V30 559 C 54.9747 -2.65702 2.13577 0
M  V30 560 H 56.1677 -0.988048 2.83157 0
M  V30 561 H 53.7207 -0.479382 1.48767 0
M  V30 562 H 54.4557 -3.00063 1.23015 0
M  V30 563 H 54.2407 -2.57875 2.95369 0
M  V30 564 H 55.7307 -3.40828 2.41301 0
M  V30 565 N 56.1678 -1.49265 -0.50573 0
M  V30 566 C 57.0978 -1.68495 -1.61653 0
M  V30 567 C 58.0788 -0.53366 -1.61512 0
M  V30 568 O 59.2638 -0.76897 -1.78327 0
M  V30 569 C 56.3938 -1.74709 -3.00157 0
M  V30 570 C 55.3478 -2.89581 -3.15162 0
M  V30 571 C 54.6738 -2.80903 -4.5497 0
M  V30 572 C 55.9738 -4.30578 -2.95634 0
M  V30 573 H 57.6678 -2.61493 -1.45814 0
M  V30 574 H 55.2138 -1.25838 -0.70005 0
M  V30 575 H 57.1668 -1.86748 -3.77761 0
M  V30 576 H 55.8908 -0.783067 -3.17074 0
M  V30 577 H 54.5498 -2.77136 -2.39982 0
M  V30 578 H 54.1978 -1.82419 -4.68756 0
M  V30 579 H 53.8978 -3.57999 -4.65951 0
M  V30 580 H 55.4218 -2.94944 -5.34641 0
M  V30 581 H 56.8358 -4.4373 -3.63011 0
M  V30 582 H 55.2328 -5.0886 -3.18091 0
M  V30 583 H 56.3028 -4.45352 -1.91806 0
M  V30 584 N 57.6459 0.756429 -1.3826 0
M  V30 585 C 58.8939 1.51248 -1.34047 0
M  V30 586 C 59.2149 1.94875 0.0698372 0
M  V30 587 O 58.4849 1.67436 1.01696 0
M  V30 588 H 57.0649 0.561018 -0.493222 0
M  V30 589 H 59.7269 0.899347 -1.7291 0
M  V30 590 H 58.8229 2.40472 -1.98947 0
M  V30 591 N 59.124 1.23083 0.984299 0
M  V30 592 C 60.352 1.08714 1.76037 0
M  V30 593 C 60.767 -0.361691 1.85303 0
M  V30 594 O 60.124 -1.25034 1.32939 0
M  V30 595 C 60.175 1.70206 3.18923 0
M  V30 596 O 59.896 3.09423 3.10144 0
M  V30 597 C 61.397 1.61227 4.12941 0
M  V30 598 H 58.617 0.380664 0.552572 0
M  V30 599 H 61.161 1.62853 1.23689 0
M  V30 600 H 59.316 1.20109 3.6831 0
M  V30 601 H 59.73 3.39188 4.00065 0
M  V30 602 H 61.204 2.08962 5.10919 0
M  V30 603 H 61.681 0.570375 4.35481 0
M  V30 604 H 62.287 2.10671 3.69456 0
M  V30 605 N 60.6021 -1.18246 1.0419 0
M  V30 606 C 61.8511 -1.87588 0.741194 0
M  V30 607 C 62.1641 -1.81303 -0.734066 0
M  V30 608 O 63.3701 -2.46019 -1.14834 0
M  V30 609 C 61.8261 -3.36538 1.27555 0
M  V30 610 C 61.4341 -3.51349 2.77953 0
M  V30 611 C 63.1781 -4.11273 1.05143 0
M  V30 612 C 61.0851 -4.94265 3.2474 0
M  V30 613 H 60.0151 -0.702622 0.273565 0
M  V30 614 H 62.6661 -1.33601 1.25789 0
M  V30 615 H 61.0481 -3.9 0.686703 0
M  V30 616 H 62.2221 -3.08153 3.42605 0
M  V30 617 H 60.5371 -2.90022 2.98791 0
M  V30 618 H 63.1341 -5.16689 1.37611 0
M  V30 619 H 63.4771 -4.16298 -0.0112774 0
M  V30 620 H 64.0101 -3.63987 1.60495 0
M  V30 621 H 60.7491 -4.94408 4.30396 0
M  V30 622 H 60.2691 -5.38172 2.64823 0
M  V30 623 H 61.9481 -5.62987 3.18834 0
M  V30 624 N 62.0802 -0.821533 -1.34494 0
M  V30 625 C 63.0272 -0.240397 -2.29545 0
M  V30 626 C 63.9972 0.634031 -1.53523 0
M  V30 627 O 65.1822 0.575966 -1.81899 0
M  V30 628 C 62.3222 0.592869 -3.39969 0
M  V30 629 C 61.4352 -0.30365 -4.30932 0
M  V30 630 C 60.5702 0.539049 -5.28458 0
M  V30 631 C 59.6092 -0.356942 -6.11058 0
M  V30 632 N 58.7462 0.446603 -7.00678 0
M  V30 633 H 63.5862 -1.05632 -2.7865 0
M  V30 634 H 61.1232 -0.532413 -1.37127 0
M  V30 635 H 63.0812 1.09129 -4.02675 0
M  V30 636 H 61.7112 1.37392 -2.92102 0
M  V30 637 H 60.7632 -0.920276 -3.691 0
M  V30 638 H 62.0752 -0.992661 -4.88823 0
M  V30 639 H 61.2292 1.102 -5.96608 0
M  V30 640 H 59.9682 1.26157 -4.71101 0
M  V30 641 H 58.9732 -0.932047 -5.41842 0
M  V30 642 H 60.1982 -1.07755 -6.70497 0
M  V30 643 H 58.1442 1.15282 -6.45791 0
M  V30 644 H 58.0612 -0.184048 -7.55776 0
M  V30 645 H 59.3292 0.992352 -7.73158 0
M  V30 646 N 63.5583 1.46682 -0.576371 0
M  V30 647 C 64.8353 1.95599 0.00703437 0
M  V30 648 C 65.2153 1.51904 1.46589 0
M  V30 649 O 64.5633 0.766755 2.15251 0
M  V30 650 C 64.7733 3.4864 -0.158404 0
M  V30 651 C 66.1213 4.24594 -0.0229439 0
M  V30 652 O 67.1453 3.56094 -0.0869173 0
M  V30 653 O 66.0043 5.46373 0.118015 0
M  V30 654 H 63.0983 0.825275 0.053384 0
M  V30 655 H 65.6443 1.56996 -0.644244 0
M  V30 656 H 64.4163 3.7331 -1.17282 0
M  V30 657 H 64.0393 3.94057 0.5296 0
M  V30 658 N 65.0364 0.313813 1.54444 0
M  V30 659 C 65.9834 -0.55655 2.23989 0
M  V30 660 C 66.9534 -1.11943 1.22711 0
M  V30 661 O 68.1384 -1.16158 1.51367 0
M  V30 662 C 65.2784 -1.71635 2.99392 0
M  V30 663 C 64.3914 -1.18364 4.15468 0
M  V30 664 C 63.5264 -2.30834 4.78424 0
M  V30 665 C 62.5654 -1.74762 5.86622 0
M  V30 666 N 61.7024 -2.80855 6.43479 0
M  V30 667 H 66.5424 0.0430893 2.97969 0
M  V30 668 H 64.0794 0.0330359 1.47063 0
M  V30 669 H 66.0374 -2.39868 3.41349 0
M  V30 670 H 64.6674 -2.28742 2.27765 0
M  V30 671 H 63.7194 -0.393163 3.78363 0
M  V30 672 H 65.0314 -0.733262 4.93381 0
M  V30 673 H 64.1854 -3.0699 5.23299 0
M  V30 674 H 62.9244 -2.79204 3.99871 0
M  V30 675 H 61.9294 -0.970995 5.41158 0
M  V30 676 H 63.1544 -1.2728 6.67066 0
M  V30 677 H 61.1004 -3.28535 5.67804 0
M  V30 678 H 61.0174 -2.40351 7.16776 0
M  V30 679 H 62.2854 -3.5687 6.93011 0
M  V30 680 N 66.5145 -1.57545 0.0417849 0
M  V30 681 C 67.7635 -1.91494 -0.633492 0
M  V30 682 C 68.0765 -0.921084 -1.72556 0
M  V30 683 O 69.2825 -1.15228 -2.45835 0
M  V30 684 C 67.7385 -3.40072 -1.17808 0
M  V30 685 C 67.3465 -4.47843 -0.118633 0
M  V30 686 C 69.0905 -3.8307 -1.82915 0
M  V30 687 C 66.9975 -5.87529 -0.675578 0
M  V30 688 H 65.9275 -0.714653 -0.24039 0
M  V30 689 H 68.5785 -1.83175 0.109148 0
M  V30 690 H 66.9605 -3.43364 -1.97274 0
M  V30 691 H 68.1345 -4.56128 0.654494 0
M  V30 692 H 66.4495 -4.14128 0.434414 0
M  V30 693 H 69.0465 -4.84794 -2.25563 0
M  V30 694 H 69.3895 -3.1881 -2.67705 0
M  V30 695 H 69.9225 -3.82255 -1.10119 0
M  V30 696 H 66.6615 -6.55362 0.134475 0
M  V30 697 H 66.1815 -5.82824 -1.4169 0
M  V30 698 H 67.8605 -6.36491 -1.1614 0
M  V30 699 N 67.9926 0.231505 -1.5589 0
M  V30 700 C 68.9246 1.31006 -1.8807 0
M  V30 701 C 69.9376 1.43539 -0.768145 0
M  V30 702 O 71.1266 1.44614 -1.04638 0
M  V30 703 C 68.2266 2.68688 -2.06543 0
M  V30 704 C 67.3996 2.78228 -3.37502 0
M  V30 705 C 66.4586 3.96857 -3.4553 0
M  V30 706 O 65.4846 3.85662 -4.18633 0
M  V30 707 N 66.6866 5.1072 -2.75944 0
M  V30 708 H 69.4516 1.03731 -2.81176 0
M  V30 709 H 67.0126 0.421573 -1.56315 0
M  V30 710 H 69.0046 3.46412 -2.09239 0
M  V30 711 H 67.5746 2.88605 -1.20109 0
M  V30 712 H 66.7946 1.87059 -3.46991 0
M  V30 713 H 68.0826 2.81564 -4.23791 0
M  V30 714 H 67.4806 5.2271 -2.16311 0
M  V30 715 H 66.0376 5.86523 -2.84314 0
M  V30 716 N 69.4707 1.49531 0.497807 0
M  V30 717 C 70.7187 1.58865 1.24926 0
M  V30 718 C 71.0397 0.278721 1.92998 0
M  V30 719 O 70.3097 -0.702144 1.82885 0
M  V30 720 H 68.8897 0.585343 0.464094 0
M  V30 721 H 71.5517 1.86174 0.57666 0
M  V30 722 H 70.6477 2.38633 2.01149 0
M  V30 723 N 70.9488 -0.749086 1.3866 0
M  V30 724 C 71.9118 -1.84457 1.36045 0
M  V30 725 C 72.9118 -1.58682 0.260122 0
M  V30 726 O 74.1018 -1.66343 0.517261 0
M  V30 727 C 71.2338 -3.22008 1.11911 0
M  V30 728 H 72.4268 -1.88182 2.33512 0
M  V30 729 H 69.9798 -0.951266 1.24019 0
M  V30 730 H 70.7148 -3.2395 0.150686 0
M  V30 731 H 70.4998 -3.42111 1.91579 0
M  V30 732 H 71.9898 -4.0208 1.12788 0
M  V30 733 N 72.4269 -1.23603 -0.977757 0
M  V30 734 C 73.6729 -1.07129 -1.72195 0
M  V30 735 C 74.0059 0.390501 -1.90233 0
M  V30 736 O 73.2809 1.28902 -1.45653 0
M  V30 737 C 73.5639 -1.80031 -3.11867 0
M  V30 738 C 73.4169 -3.33899 -3.01383 0
M  V30 739 C 74.7359 -1.56492 -4.11337 0
M  V30 740 H 71.8549 -0.390571 -0.624999 0
M  V30 741 H 74.4969 -1.52142 -1.13811 0
M  V30 742 H 72.6469 -1.41768 -3.6171 0
M  V30 743 H 74.3189 -3.81699 -2.59043 0
M  V30 744 H 72.5619 -3.62796 -2.37827 0
M  V30 745 H 73.2329 -3.801 -4.00285 0
M  V30 746 H 75.7089 -1.89757 -3.70313 0
M  V30 747 H 74.5849 -2.09973 -5.07151 0
M  V30 748 H 74.8459 -0.500874 -4.39254 0
M  V30 749 N 73.905 1.17692 -1.04816 0
M  V30 750 C 74.868 2.19787 -0.650117 0
M  V30 751 C 75.868 1.58044 0.296427 0
M  V30 752 O 77.058 1.74012 0.0808097 0
M  V30 753 C 74.19 3.40869 0.0456987 0
M  V30 754 H 75.383 2.56516 -1.5537 0
M  V30 755 H 72.936 1.31708 -0.841594 0
M  V30 756 H 73.671 3.09681 0.962726 0
M  V30 757 H 73.456 3.86928 -0.634727 0
M  V30 758 H 74.946 4.16445 0.310432 0
M  V30 759 N 75.3831 0.828654 1.34056 0
M  V30 760 C 76.3461 0.259927 2.27721 0
M  V30 761 C 77.3461 -0.565478 1.50529 0
M  V30 762 O 78.5361 -0.38075 1.69988 0
M  V30 763 C 75.6681 -0.634944 3.34935 0
M  V30 764 H 76.8611 1.0863 2.79534 0
M  V30 765 H 74.4141 0.600951 1.44285 0
M  V30 766 H 75.1491 -1.48416 2.88346 0
M  V30 767 H 74.9341 -0.0444999 3.92075 0
M  V30 768 H 76.4241 -1.02648 4.04788 0
M  V30 769 N 76.8612 -1.46375 0.584142 0
M  V30 770 C 78.0862 -2.07268 0.0740405 0
M  V30 771 C 78.5112 -1.42979 -1.22223 0
M  V30 772 O 77.8692 -0.514092 -1.73859 0
M  V30 773 C 77.9172 -3.60518 -0.0767769 0
M  V30 774 O 77.0212 -3.96533 -1.13292 0
M  V30 775 H 76.3622 -0.660961 0.0634524 0
M  V30 776 H 78.8922 -1.87991 0.807492 0
M  V30 777 H 78.9022 -4.07021 -0.282489 0
M  V30 778 H 77.5772 -4.06702 0.86986 0
M  V30 779 H 76.1542 -3.61738 -0.905553 0
M  V30 780 N 78.3393 -0.321999 -1.54275 0
M  V30 781 C 79.2863 0.544664 -2.24281 0
M  V30 782 C 80.2563 1.1129 -1.23303 0
M  V30 783 O 81.4413 1.15354 -1.51981 0
M  V30 784 C 78.5813 1.70045 -3.00298 0
M  V30 785 C 77.6943 1.16159 -4.1609 0
M  V30 786 C 76.8293 2.28293 -4.79641 0
M  V30 787 C 75.8683 1.71648 -5.8754 0
M  V30 788 N 75.0053 2.77438 -6.44959 0
M  V30 789 H 79.8453 -0.0588907 -2.97942 0
M  V30 790 H 77.3823 -0.0408345 -1.47043 0
M  V30 791 H 79.3403 2.38054 -3.42616 0
M  V30 792 H 77.9703 2.27531 -2.28975 0
M  V30 793 H 77.0223 0.373092 -3.78566 0
M  V30 794 H 78.3343 0.707087 -4.93763 0
M  V30 795 H 77.4883 3.0421 -5.2492 0
M  V30 796 H 76.2273 2.77079 -4.01346 0
M  V30 797 H 75.2323 0.942282 -5.41665 0
M  V30 798 H 76.4573 1.23741 -6.67731 0
M  V30 799 H 74.4033 3.25519 -5.69538 0
M  V30 800 H 74.3203 2.36547 -7.1804 0
M  V30 801 H 75.5883 3.53189 -6.94894 0
M  V30 802 N 79.8174 1.5752 -0.0501392 0
M  V30 803 C 80.7274 2.14952 0.939827 0
M  V30 804 C 81.7434 1.10706 1.34239 0
M  V30 805 O 82.9194 1.42869 1.41952 0
M  V30 806 C 79.9844 2.68232 2.19665 0
M  V30 807 C 79.0454 3.87272 1.85253 0
M  V30 808 C 78.2784 4.38002 3.04943 0
M  V30 809 O 78.5014 3.87811 4.18281 0
M  V30 810 O 77.4354 5.29602 2.86017 0
M  V30 811 H 81.2614 2.9986 0.481392 0
M  V30 812 H 78.8464 1.4841 0.171699 0
M  V30 813 H 80.7284 3.02475 2.93406 0
M  V30 814 H 79.4034 1.86395 2.64648 0
M  V30 815 H 78.3104 3.5792 1.0883 0
M  V30 816 H 79.6434 4.70336 1.4507 0
M  V30 817 N 81.2955 -0.223234 1.56011 0
M  V30 818 C 82.5205 -0.968978 1.83373 0
M  V30 819 C 82.9455 -1.77227 0.630254 0
M  V30 820 O 82.3035 -1.76345 -0.420959 0
M  V30 821 C 82.3515 -1.86363 3.08709 0
M  V30 822 O 81.4555 -2.95873 2.87285 0
M  V30 823 H 80.7965 -0.274461 0.604622 0
M  V30 824 H 83.3265 -0.237056 2.03222 0
M  V30 825 H 83.3365 -2.27376 3.38768 0
M  V30 826 H 82.0115 -1.27319 3.95933 0
M  V30 827 H 80.5885 -2.58818 2.68454 0
M  V30 828 N 82.7736 -1.49793 -0.48987 0
M  V30 829 C 83.6836 -1.70036 -1.61632 0
M  V30 830 C 84.6996 -0.583102 -1.63939 0
M  V30 831 O 85.8756 -0.859169 -1.82154 0
M  V30 832 C 82.9406 -1.77277 -2.97949 0
M  V30 833 C 82.0016 -3.00918 -3.06181 0
M  V30 834 C 81.2346 -3.07804 -4.35996 0
M  V30 835 O 81.4576 -2.21982 -5.25433 0
M  V30 836 O 80.3916 -4.00369 -4.49431 0
M  V30 837 H 84.2176 -2.65486 -1.47482 0
M  V30 838 H 81.8026 -1.33666 -0.667362 0
M  V30 839 H 83.6846 -1.84329 -3.78947 0
M  V30 840 H 82.3596 -0.850076 -3.12339 0
M  V30 841 H 81.2666 -2.99377 -2.2433 0
M  V30 842 H 82.5996 -3.92704 -2.96723 0
M  V30 843 N 84.2517 0.741722 -1.39055 0
M  V30 844 C 85.1617 1.88621 -1.39496 0
M  V30 845 C 86.1777 1.71557 -0.290578 0
M  V30 846 O 87.3537 1.94275 -0.530954 0
M  V30 847 C 84.4187 3.24134 -1.23037 0
M  V30 848 C 83.4797 3.5364 -2.43387 0
M  V30 849 C 82.7127 4.82687 -2.27703 0
M  V30 850 O 82.9357 5.55922 -1.27696 0
M  V30 851 O 81.8697 5.1194 -3.16545 0
M  V30 852 H 85.6957 1.91203 -2.35956 0
M  V30 853 H 83.2807 0.888625 -1.20099 0
M  V30 854 H 85.1627 4.0513 -1.15964 0
M  V30 855 H 83.8377 3.22337 -0.296691 0
M  V30 856 H 82.7447 2.72758 -2.56035 0
M  V30 857 H 84.0777 3.60209 -3.35425 0
M  V30 858 N 85.7298 1.2412 0.971189 0
M  V30 859 C 86.6598 1.05508 2.08304 0
M  V30 860 C 87.6408 -0.0308864 1.70072 0
M  V30 861 O 88.8258 0.135521 1.93727 0
M  V30 862 C 85.9558 0.655365 3.4106 0
M  V30 863 C 84.9098 1.68971 3.93234 0
M  V30 864 C 84.2358 1.14516 5.22293 0
M  V30 865 C 85.5358 3.08487 4.21465 0
M  V30 866 H 87.2298 1.98507 2.24132 0
M  V30 867 H 84.7758 0.955821 1.07704 0
M  V30 868 H 86.7288 0.51217 4.18276 0
M  V30 869 H 85.4528 -0.31032 3.25122 0
M  V30 870 H 84.1118 1.82106 3.18171 0
M  V30 871 H 83.7598 0.170189 5.02712 0
M  V30 872 H 83.4598 1.83635 5.58168 0
M  V30 873 H 84.9838 1.01401 6.02121 0
M  V30 874 H 86.3978 2.98601 4.89398 0
M  V30 875 H 84.7948 3.74926 4.68562 0
M  V30 876 H 85.8648 3.56787 3.28376 0
M  V30 877 N 87.2079 -1.17134 1.05439 0
M  V30 878 C 88.1379 -2.2342 0.678649 0
M  V30 879 C 89.1189 -1.66971 -0.32476 0
M  V30 880 O 90.3039 -1.93149 -0.201802 0
M  V30 881 C 87.4339 -3.47256 0.0552099 0
M  V30 882 C 86.3879 -4.16543 0.98365 0
M  V30 883 C 85.7139 -5.34231 0.223961 0
M  V30 884 C 87.0139 -4.68495 2.3089 0
M  V30 885 H 88.7079 -2.55105 1.56722 0
M  V30 886 H 86.2539 -1.2262 0.754998 0
M  V30 887 H 88.2069 -4.20828 -0.21946 0
M  V30 888 H 86.9309 -3.14846 -0.868319 0
M  V30 889 H 85.5899 -3.44887 1.24293 0
M  V30 890 H 85.2379 -4.98071 -0.702412 0
M  V30 891 H 84.9379 -5.81527 0.842627 0
M  V30 892 H 86.4619 -6.10585 -0.0433671 0
M  V30 893 H 87.8759 -5.33691 2.09396 0
M  V30 894 H 86.2729 -5.26379 2.88176 0
M  V30 895 H 87.3429 -3.85169 2.94572 0
M  V30 896 N 88.686 -0.835752 -1.33615 0
M  V30 897 C 90.102 -0.523139 -1.50783 0
M  V30 898 C 90.302 0.950171 -1.77691 0
M  V30 899 O 89.358 1.73411 -1.83534 0
M  V30 900 C 90.671 -1.39378 -2.66448 0
M  V30 901 C 92.219 -1.39223 -2.80332 0
M  V30 902 C 92.694 -2.24765 -3.99055 0
M  V30 903 N 94.185 -2.22458 -4.06284 0
M  V30 904 C 94.92 -2.85386 -4.97336 0
M  V30 905 N 94.416 -3.57354 -5.93523 0
M  V30 906 N 96.209 -2.74872 -4.90308 0
M  V30 907 H 88.36 -1.78952 -1.14411 0
M  V30 908 H 90.623 -0.763297 -0.562212 0
M  V30 909 H 90.329 -2.44061 -2.53234 0
M  V30 910 H 90.203 -1.0676 -3.61776 0
M  V30 911 H 92.59 -0.353136 -2.92979 0
M  V30 912 H 92.671 -1.75846 -1.85773 0
M  V30 913 H 92.315 -3.28732 -3.87167 0
M  V30 914 H 92.245 -1.85485 -4.92852 0
M  V30 915 H 94.736 -1.70119 -3.37443 0
M  V30 916 H 95.049 -4.02584 -6.59656 0
M  V30 917 H 93.394 -3.61461 -5.93608 0
M  V30 918 H 96.585 -2.18213 -4.14126 0
M  V30 919 H 96.758 -3.24199 -5.61069 0
M  V30 920 N 90.1641 1.46063 -0.591896 0
M  V30 921 C 91.1111 2.30399 0.136069 0
M  V30 922 C 92.0811 1.41169 0.875238 0
M  V30 923 O 93.2661 1.70112 0.86409 0
M  V30 924 C 90.4061 3.25804 1.13781 0
M  V30 925 C 89.5191 4.30134 0.401137 0
M  V30 926 C 88.6541 5.12659 1.39121 0
M  V30 927 C 87.6931 6.0873 0.641462 0
M  V30 928 N 86.8301 6.8409 1.58004 0
M  V30 929 H 91.6701 2.92118 -0.589144 0
M  V30 930 H 89.2071 1.43959 -0.302342 0
M  V30 931 H 91.1651 3.79569 1.73156 0
M  V30 932 H 89.7951 2.65872 1.83062 0
M  V30 933 H 88.8471 3.79152 -0.307826 0
M  V30 934 H 90.1591 4.98458 -0.184565 0
M  V30 935 H 89.3131 5.70747 2.05749 0
M  V30 936 H 88.0521 4.44316 2.01084 0
M  V30 937 H 87.0571 5.49786 -0.0385419 0
M  V30 938 H 88.2821 6.79095 0.0270945 0
M  V30 939 H 86.2281 6.18449 2.18761 0
M  V30 940 H 86.1451 7.48709 1.04738 0
M  V30 941 H 87.4131 7.4673 2.23639 0
M  V30 942 N 91.6422 0.330177 1.54103 0
M  V30 943 C 92.5742 -0.566902 2.22079 0
M  V30 944 C 93.5872 -1.07462 1.22294 0
M  V30 945 O 94.7762 -0.987065 1.48726 0
M  V30 946 C 91.8762 -1.79138 2.87685 0
M  V30 947 C 91.0492 -1.42123 4.13666 0
M  V30 948 C 90.1082 -2.50394 4.62806 0
M  V30 949 O 89.1342 -2.14261 5.27334 0
M  V30 950 N 90.3362 -3.81433 4.37595 0
M  V30 951 H 93.1012 0.0151844 2.99696 0
M  V30 952 H 90.6622 0.153681 1.61169 0
M  V30 953 H 92.6542 -2.50975 3.1748 0
M  V30 954 H 91.2242 -2.28115 2.13734 0
M  V30 955 H 90.4442 -0.534201 3.90564 0
M  V30 956 H 91.7322 -1.14971 4.9564 0
M  V30 957 H 91.1302 -4.13584 3.8596 0
M  V30 958 H 89.6872 -4.4948 4.72029 0
M  V30 959 N 93.1203 -1.57491 0.0584922 0
M  V30 960 C 94.3683 -1.92597 -0.612436 0
M  V30 961 C 94.6893 -0.938162 -1.70949 0
M  V30 962 O 93.9593 0.0158301 -1.95894 0
M  V30 963 H 92.5393 -0.710964 -0.229214 0
M  V30 964 H 95.2013 -1.94571 0.113218 0
M  V30 965 H 94.2973 -2.94038 -1.04633 0
M  V30 966 N 94.5984 0.214957 -1.56127 0
M  V30 967 C 95.8474 0.936451 -1.78643 0
M  V30 968 C 96.1604 1.85237 -0.628229 0
M  V30 969 O 97.3664 2.613 -0.737186 0
M  V30 970 C 95.8224 1.7154 -3.16389 0
M  V30 971 C 95.4304 0.845299 -4.39953 0
M  V30 972 C 97.1744 2.42772 -3.48227 0
M  V30 973 C 95.0814 1.62198 -5.68723 0
M  V30 974 H 94.0114 0.353401 -0.666051 0
M  V30 975 H 96.6624 0.190169 -1.82512 0
M  V30 976 H 95.0444 2.50484 -3.06715 0
M  V30 977 H 96.2184 0.0959353 -4.607 0
M  V30 978 H 94.5334 0.244789 -4.1568 0
M  V30 979 H 97.1304 3.01394 -4.41663 0
M  V30 980 H 97.4734 3.15984 -2.71035 0
M  V30 981 H 98.0064 1.70813 -3.5926 0
M  V30 982 H 94.7454 0.933011 -6.48826 0
M  V30 983 H 94.2654 2.34579 -5.52026 0
M  V30 984 H 95.9444 2.18095 -6.09133 0
M  V30 985 N 96.0765 1.50051 0.48192 0
M  V30 986 C 96.9865 1.7089 1.60728 0
M  V30 987 C 98.0025 0.591788 1.63627 0
M  V30 988 O 99.1785 0.868817 1.81696 0
M  V30 989 C 96.2435 1.78855 2.97005 0
M  V30 990 C 95.3045 3.02537 3.04581 0
M  V30 991 C 94.5375 3.10112 4.34357 0
M  V30 992 O 94.7605 2.24765 5.24249 0
M  V30 993 O 93.6945 4.02747 4.47301 0
M  V30 994 H 97.5205 2.66264 1.46072 0
M  V30 995 H 95.1055 1.34018 0.660264 0
M  V30 996 H 96.9875 1.86336 3.77964 0
M  V30 997 H 95.6625 0.866628 3.11883 0
M  V30 998 H 94.5695 3.00563 2.22739 0
M  V30 999 H 95.9025 3.94272 2.94636 0
M  V30 1000 N 97.5546 -0.734337 1.39446 0
M  V30 1001 C 98.8006 -1.49613 1.36908 0
M  V30 1002 C 99.1336 -1.94169 -0.0347829 0
M  V30 1003 O 98.4086 -1.66833 -0.999847 0
M  V30 1004 C 98.6916 -2.73534 2.34203 0
M  V30 1005 C 98.5446 -2.34993 3.83534 0
M  V30 1006 C 99.8636 -3.75635 2.29317 0
M  V30 1007 H 96.9826 -0.542714 0.498629 0
M  V30 1008 H 99.6246 -0.839597 1.70443 0
M  V30 1009 H 97.7746 -3.29553 2.05736 0
M  V30 1010 H 99.4466 -1.84601 4.22753 0
M  V30 1011 H 97.6896 -1.67213 4.00278 0
M  V30 1012 H 98.3606 -3.23738 4.47099 0
M  V30 1013 H 100.837 -3.29203 2.54489 0
M  V30 1014 H 99.7126 -4.60008 2.99472 0
M  V30 1015 H 99.9736 -4.22603 1.29842 0
M  V30 1016 N 99.0327 -1.24633 -0.964593 0
M  V30 1017 C 100.28 -1.08788 -1.70796 0
M  V30 1018 C 100.608 0.372783 -1.90894 0
M  V30 1019 O 99.8627 1.29167 -1.47018 0
M  V30 1020 C 100.162 -1.7763 -3.10133 0
M  V30 1021 C 99.8277 -3.27557 -3.09866 0
M  V30 1022 C 98.4897 -3.6846 -3.09501 0
M  V30 1023 C 100.842 -4.23389 -3.03959 0
M  V30 1024 C 98.1697 -5.03624 -3.00965 0
M  V30 1025 C 100.522 -5.58565 -2.96965 0
M  V30 1026 C 99.1857 -5.98809 -2.9493 0
M  V30 1027 H 98.4557 -0.398084 -0.624988 0
M  V30 1028 H 101.103 -1.54777 -1.12767 0
M  V30 1029 H 99.4077 -1.24044 -3.71645 0
M  V30 1030 H 101.105 -1.62832 -3.66451 0
M  V30 1031 H 97.6947 -2.95006 -3.10917 0
M  V30 1032 H 101.879 -3.92787 -3.03368 0
M  V30 1033 H 97.1347 -5.33998 -2.97752 0
M  V30 1034 H 101.309 -6.32523 -2.91354 0
M  V30 1035 H 98.9357 -7.03505 -2.88071 0
M  V30 1036 N 100.511 1.16574 -1.06058 0
M  V30 1037 C 101.459 2.22941 -0.663343 0
M  V30 1038 C 102.453 1.66358 0.319593 0
M  V30 1039 O 103.659 1.7905 0.184713 0
M  V30 1040 H 100.034 0.725907 -0.196376 0
M  V30 1041 H 102.005 2.53736 -1.57037 0
M  V30 1042 C 100.754 3.47642 -0.0632808 0
M  V30 1043 H 100.077 3.91493 -0.810733 0
M  V30 1044 H 101.517 4.2363 0.177177 0
M  V30 1045 C 99.9758 3.1509 1.19248 0
M  V30 1046 O 100.506 3.30673 2.28075 0
M  V30 1047 N 98.7118 2.6924 1.09353 0
M  V30 1048 H 98.2588 2.5676 0.207912 0
M  V30 1049 H 98.2168 2.47833 1.93458 0
M  V30 1050 N 101.989 0.842826 1.3317 0
M  V30 1051 C 102.952 0.284065 2.27433 0
M  V30 1052 C 103.952 -0.54948 1.5112 0
M  V30 1053 O 105.142 -0.362699 1.70382 0
M  V30 1054 C 102.274 -0.599384 3.35589 0
M  V30 1055 H 103.467 1.11589 2.78366 0
M  V30 1056 H 101.02 0.616221 1.4364 0
M  V30 1057 H 101.755 -1.45349 2.89904 0
M  V30 1058 H 101.54 -0.00291266 3.921 0
M  V30 1059 H 103.03 -0.983488 4.05854 0
M  V30 1060 N 103.467 -1.45747 0.599634 0
M  V30 1061 C 104.415 -2.322 -0.136426 0
M  V30 1062 C 105.409 -1.45497 -0.867583 0
M  V30 1063 O 106.615 -1.62027 -0.78405 0
M  V30 1064 H 102.99 -0.749368 -0.0628588 0
M  V30 1065 H 104.961 -2.92072 0.611281 0
M  V30 1066 C 103.71 -3.28974 -1.12567 0
M  V30 1067 H 103.033 -3.9568 -0.572484 0
M  V30 1068 H 104.473 -3.92212 -1.61077 0
M  V30 1069 C 102.932 -2.55561 -2.19523 0
M  V30 1070 O 103.462 -2.33111 -3.27143 0
M  V30 1071 N 101.668 -2.15832 -1.94589 0
M  V30 1072 H 101.215 -2.3429 -1.07078 0
M  V30 1073 H 101.173 -1.67034 -2.66359 0
M  V30 1074 N 104.945 -0.338344 -1.53925 0
M  V30 1075 C 106.222 0.314774 -1.93051 0
M  V30 1076 C 106.602 1.68669 -1.26941 0
M  V30 1077 O 105.95 2.24636 -0.418445 0
M  V30 1078 C 106.16 0.392249 -3.46789 0
M  V30 1079 C 107.508 0.645554 -4.19664 0
M  V30 1080 O 108.532 0.474575 -3.53024 0
M  V30 1081 O 107.391 0.976408 -5.37707 0
M  V30 1082 H 104.485 0.182598 -0.80659 0
M  V30 1083 H 107.031 -0.389141 -1.65178 0
M  V30 1084 H 105.803 -0.570702 -3.87116 0
M  V30 1085 H 105.426 1.14316 -3.80812 0
M  V30 1086 N 106.423 1.57458 -0.0668435 0
M  V30 1087 C 107.669 1.93587 0.6043 0
M  V30 1088 C 108.002 0.946722 1.69561 0
M  V30 1089 O 107.277 -0.0248516 1.94484 0
M  V30 1090 C 107.56 3.40014 1.18585 0
M  V30 1091 C 107.413 4.49685 0.101529 0
M  V30 1092 C 108.732 3.87154 2.09284 0
M  V30 1093 H 105.851 0.703958 0.218202 0
M  V30 1094 H 108.493 1.89542 -0.131804 0
M  V30 1095 H 106.643 3.43592 1.81319 0
M  V30 1096 H 108.315 4.5823 -0.531279 0
M  V30 1097 H 106.558 4.30059 -0.568487 0
M  V30 1098 H 107.229 5.49266 0.54874 0
M  V30 1099 H 109.705 3.85551 1.56491 0
M  V30 1100 H 108.581 4.90231 2.46911 0
M  V30 1101 H 108.842 3.2481 2.99918 0
M  V30 1102 N 107.901 -0.206675 1.56239 0
M  V30 1103 C 109.126 -0.949474 1.8439 0
M  V30 1104 C 109.551 -1.76549 0.649016 0
M  V30 1105 O 108.909 -1.76782 -0.402231 0
M  V30 1106 C 108.957 -1.83078 3.10668 0
M  V30 1107 O 108.061 -2.9281 2.90407 0
M  V30 1108 H 107.402 -0.268033 0.607499 0
M  V30 1109 H 109.932 -0.215488 2.03462 0
M  V30 1110 H 109.942 -2.2377 3.41161 0
M  V30 1111 H 108.617 -1.23112 3.97261 0
M  V30 1112 H 107.194 -2.55956 2.71184 0
M  V30 1113 N 109.379 -1.50304 -0.473955 0
M  V30 1114 C 110.604 -1.65175 -1.25427 0
M  V30 1115 C 111.029 -0.333673 -1.85117 0
M  V30 1116 O 110.387 0.702114 -1.67153 0
M  V30 1117 C 110.435 -2.74295 -2.34082 0
M  V30 1118 O 109.539 -2.35349 -3.38651 0
M  V30 1119 H 108.88 -0.551944 -0.369126 0
M  V30 1120 H 111.41 -1.96662 -0.564364 0
M  V30 1121 H 111.42 -2.97285 -2.79438 0
M  V30 1122 H 110.095 -3.69959 -1.90008 0
M  V30 1123 H 108.672 -2.22794 -2.99027 0
M  V30 1124 N 110.857 0.726932 -1.39834 0
M  V30 1125 C 111.787 1.85405 -1.41941 0
M  V30 1126 C 112.768 1.67751 -0.281728 0
M  V30 1127 O 113.953 1.8795 -0.488717 0
M  V30 1128 C 111.083 3.23243 -1.2701 0
M  V30 1129 C 110.037 3.55549 -2.38262 0
M  V30 1130 C 109.363 4.9241 -2.08415 0
M  V30 1131 C 110.663 3.577 -3.80589 0
M  V30 1132 H 112.357 1.83899 -2.36266 0
M  V30 1133 H 109.903 0.883349 -1.13723 0
M  V30 1134 H 111.856 4.01775 -1.27103 0
M  V30 1135 H 110.58 3.25296 -0.291564 0
M  V30 1136 H 109.239 2.79351 -2.37399 0
M  V30 1137 H 108.887 4.91052 -1.0898 0
M  V30 1138 H 108.587 5.14992 -2.82943 0
M  V30 1139 H 110.111 5.73289 -2.10171 0
M  V30 1140 H 111.525 4.26293 -3.83337 0
M  V30 1141 H 109.922 3.91804 -4.54543 0
M  V30 1142 H 110.992 2.57328 -4.10987 0
M  V30 1143 N 112.336 1.25143 0.95797 0
M  V30 1144 C 113.613 1.00472 1.67823 0
M  V30 1145 C 113.993 -0.470056 2.058 0
M  V30 1146 O 113.341 -1.44663 1.76875 0
M  V30 1147 C 113.551 1.9372 2.90299 0
M  V30 1148 C 114.899 2.21371 3.62326 0
M  V30 1149 O 115.923 1.91451 3.00375 0
M  V30 1150 O 114.782 2.72231 4.7387 0
M  V30 1151 H 111.876 0.380752 0.734137 0
M  V30 1152 H 114.422 1.36283 1.01119 0
M  V30 1153 H 113.194 2.93316 2.59001 0
M  V30 1154 H 112.817 1.58286 3.64735 0
M  V30 1155 N 113.814 -1.1601 1.06675 0
M  V30 1156 C 115.063 -1.85973 0.780818 0
M  V30 1157 C 115.376 -1.82819 -0.695444 0
M  V30 1158 O 116.582 -2.484 -1.09589 0
M  V30 1159 C 115.038 -3.33757 1.34665 0
M  V30 1160 C 114.646 -3.45374 2.85343 0
M  V30 1161 C 116.39 -4.0895 1.13843 0
M  V30 1162 C 114.297 -4.87266 3.35151 0
M  V30 1163 H 113.227 -0.696661 0.288407 0
M  V30 1164 H 115.878 -1.30903 1.28595 0
M  V30 1165 H 114.26 -3.88456 0.769274 0
M  V30 1166 H 115.434 -3.00816 3.49065 0
M  V30 1167 H 113.749 -2.83619 3.04876 0
M  V30 1168 H 116.346 -5.13654 1.4854 0
M  V30 1169 H 116.689 -4.16229 0.0770282 0
M  V30 1170 H 117.222 -3.605 1.68179 0
M  V30 1171 H 113.961 -4.85168 4.40786 0
M  V30 1172 H 113.481 -5.32433 2.76179 0
M  V30 1173 H 115.16 -5.56097 3.30704 0
M  V30 1174 N 115.292 -0.849877 -1.32721 0
M  V30 1175 C 116.522 -0.46408 -2.0132 0
M  V30 1176 C 116.93 0.94246 -1.64056 0
M  V30 1177 O 116.273 1.6257 -0.855379 0
M  V30 1178 C 116.335 -0.517887 -3.5575 0
M  V30 1179 C 115.999 -1.88248 -4.16427 0
M  V30 1180 C 116.996 -2.84726 -4.35002 0
M  V30 1181 C 114.681 -2.17832 -4.52609 0
M  V30 1182 C 116.675 -4.08945 -4.8892 0
M  V30 1183 C 114.362 -3.42304 -5.06232 0
M  V30 1184 C 115.36 -4.37677 -5.24335 0
M  V30 1185 O 115.048 -5.59946 -5.76815 0
M  V30 1186 H 114.78 -0.181327 -0.651227 0
M  V30 1187 H 117.334 -1.14713 -1.70382 0
M  V30 1188 H 115.564 0.221997 -3.86062 0
M  V30 1189 H 117.253 -0.148366 -4.05629 0
M  V30 1190 H 118.019 -2.63174 -4.07388 0
M  V30 1191 H 113.898 -1.44385 -4.37806 0
M  V30 1192 H 117.442 -4.83396 -5.02966 0
M  V30 1193 H 113.339 -3.63709 -5.33278 0
M  V30 1194 H 114.107 -5.61838 -5.95214 0
M  V30 1195 N 116.77 1.45427 -0.607355 0
M  V30 1196 C 118.016 2.0254 -0.102607 0
M  V30 1197 C 118.349 1.47478 1.26348 0
M  V30 1198 O 117.624 0.64939 1.83339 0
M  V30 1199 C 117.907 3.60044 -0.0634347 0
M  V30 1200 C 117.76 4.2544 -1.46017 0
M  V30 1201 C 119.079 4.35646 0.624514 0
M  V30 1202 H 116.198 0.73598 -0.0387607 0
M  V30 1203 H 118.84 1.73284 -0.779282 0
M  V30 1204 H 116.99 3.85101 0.512808 0
M  V30 1205 H 118.662 4.11569 -2.08347 0
M  V30 1206 H 116.905 3.83849 -2.02094 0
M  V30 1207 H 117.576 5.34342 -1.385 0
M  V30 1208 H 120.052 4.15882 0.134723 0
M  V30 1209 H 118.928 5.45376 0.621028 0
M  V30 1210 H 119.189 4.08501 1.69055 0
M  V30 1211 N 118.248 0.346503 1.53744 0
M  V30 1212 C 119.525 -0.304532 1.93215 0
M  V30 1213 C 119.905 -1.67993 1.27834 0
M  V30 1214 O 119.253 -2.24411 0.430352 0
M  V30 1215 C 119.463 -0.373852 3.46992 0
M  V30 1216 C 120.811 -0.62329 4.2 0
M  V30 1217 O 121.835 -0.455847 3.53271 0
M  V30 1218 O 120.694 -0.947879 5.38217 0
M  V30 1219 H 117.788 -0.178318 0.807547 0
M  V30 1220 H 120.334 0.397895 1.64969 0
M  V30 1221 H 119.106 0.591224 3.86808 0
M  V30 1222 H 118.729 -1.12294 3.81413 0
M  V30 1223 N 119.726 -1.57421 0.075193 0
M  V30 1224 C 120.974 -1.93236 -0.591974 0
M  V30 1225 C 121.295 -0.956241 -1.69944 0
M  V30 1226 O 120.565 -0.00494792 -1.95899 0
M  V30 1227 H 119.145 -0.713355 -0.22166 0
M  V30 1228 H 121.807 -1.9444 0.133848 0
M  V30 1229 H 120.903 -2.95131 -1.01509 0
M  V30 1230 N 121.204 0.198386 -1.56346 0
M  V30 1231 C 122.167 1.22952 -1.93431 0
M  V30 1232 C 123.167 1.38611 -0.815092 0
M  V30 1233 O 124.357 1.36479 -1.08255 0
M  V30 1234 C 121.489 2.59946 -2.20546 0
M  V30 1235 H 122.682 0.912626 -2.85677 0
M  V30 1236 H 120.235 0.43977 -1.49986 0
M  V30 1237 H 120.97 2.96696 -1.30927 0
M  V30 1238 H 120.755 2.49953 -3.02102 0
M  V30 1239 H 122.245 3.3431 -2.50253 0
M  V30 1240 N 122.682 1.50554 0.465978 0
M  V30 1241 C 123.959 1.5232 1.22712 0
M  V30 1242 C 124.339 0.270807 2.09356 0
M  V30 1243 O 123.687 -0.745541 2.15995 0
M  V30 1244 C 123.897 2.82175 2.05374 0
M  V30 1245 C 125.245 3.33033 2.6339 0
M  V30 1246 O 126.269 2.83531 2.15612 0
M  V30 1247 O 125.128 4.19336 3.50456 0
M  V30 1248 H 122.222 0.611183 0.557122 0
M  V30 1249 H 124.768 1.62847 0.477381 0
M  V30 1250 H 123.54 3.64797 1.41558 0
M  V30 1251 H 123.163 2.74675 2.87471 0
M  V30 1252 N 124.16 -0.719506 1.40217 0
M  V30 1253 C 125.07 -1.86378 1.42479 0
M  V30 1254 C 126.086 -1.71073 0.317834 0
M  V30 1255 O 127.262 -1.93406 0.561794 0
M  V30 1256 C 124.327 -3.22136 1.28178 0
M  V30 1257 C 123.388 -3.49723 2.48982 0
M  V30 1258 C 122.621 -4.79004 2.35353 0
M  V30 1259 O 122.844 -5.53821 1.36524 0
M  V30 1260 O 121.778 -5.06839 3.2465 0
M  V30 1261 H 125.604 -1.87425 2.38968 0
M  V30 1262 H 123.189 -0.869405 1.21498 0
M  V30 1263 H 125.071 -4.03234 1.22395 0
M  V30 1264 H 123.746 -3.21825 0.347934 0
M  V30 1265 H 122.653 -2.6865 2.60342 0
M  V30 1266 H 123.986 -3.54828 3.41113 0
M  V30 1267 N 125.638 -1.25649 -0.95132 0
M  V30 1268 C 126.887 -1.09988 -1.69073 0
M  V30 1269 C 127.2 0.358355 -1.92289 0
M  V30 1270 O 128.406 0.635466 -2.63958 0
M  V30 1271 C 126.862 -1.92012 -3.044 0
M  V30 1272 C 126.47 -3.42347 -2.88968 0
M  V30 1273 C 128.214 -1.8493 -3.82101 0
M  V30 1274 C 126.121 -4.16655 -4.19705 0
M  V30 1275 H 125.051 -0.407993 -0.63408 0
M  V30 1276 H 127.702 -1.49873 -1.05879 0
M  V30 1277 H 126.084 -1.44952 -3.68517 0
M  V30 1278 H 127.258 -3.97104 -2.33762 0
M  V30 1279 H 125.573 -3.50557 -2.24719 0
M  V30 1280 H 128.17 -2.37739 -4.78941 0
M  V30 1281 H 128.513 -0.817883 -4.08187 0
M  V30 1282 H 129.046 -2.29758 -3.2474 0
M  V30 1283 H 125.785 -5.20224 -3.98807 0
M  V30 1284 H 125.305 -3.66681 -4.74663 0
M  V30 1285 H 126.984 -4.24551 -4.88227 0
M  V30 1286 N 127.117 1.15442 -1.07289 0
M  V30 1287 C 128.065 2.22225 -0.686952 0
M  V30 1288 C 129.059 1.66688 0.30193 0
M  V30 1289 O 130.265 1.79236 0.165712 0
M  V30 1290 H 126.64 0.723783 -0.204064 0
M  V30 1291 H 128.611 2.52056 -1.5972 0
M  V30 1292 C 127.36 3.47556 -0.100149 0
M  V30 1293 H 126.683 3.90612 -0.852211 0
M  V30 1294 H 128.123 4.23794 0.132235 0
M  V30 1295 C 126.582 3.16337 1.159 0
M  V30 1296 O 127.112 3.33074 2.24555 0
M  V30 1297 N 125.318 2.70385 1.06491 0
M  V30 1298 H 124.865 2.56966 0.180668 0
M  V30 1299 H 124.823 2.49871 1.90819 0
M  V30 1300 N 128.595 0.856903 1.32268 0
M  V30 1301 C 130.006 0.515711 1.79436 0
M  V30 1302 C 130.357 -0.966586 1.70738 0
M  V30 1303 O 129.482 -1.75409 1.26731 0
M  V30 1304 C 130.077 0.929335 3.25805 0
M  V30 1305 C 128.636 0.640006 3.70919 0
M  V30 1306 C 127.783 1.12784 2.53328 0
M  V30 1307 H 130.734 1.04389 1.19535 0
M  V30 1308 H 130.755 0.246633 3.797 0
M  V30 1309 H 130.267 2.00821 3.32103 0
M  V30 1310 H 128.368 -0.428051 3.70133 0
M  V30 1311 H 128.481 1.20788 4.63624 0
M  V30 1312 H 126.845 0.548033 2.48734 0
M  V30 1313 H 127.628 2.21387 2.62379 0
M  V30 1314 N 130.073 -1.45103 0.615059 0
M  V30 1315 C 131.005 -2.28786 -0.13762 0
M  V30 1316 C 132.018 -1.40376 -0.824525 0
M  V30 1317 O 133.207 -1.64681 -0.688662 0
M  V30 1318 C 130.307 -3.16322 -1.21628 0
M  V30 1319 C 129.48 -4.33054 -0.615039 0
M  V30 1320 C 128.539 -5.01743 -1.58556 0
M  V30 1321 O 127.565 -5.58293 -1.10895 0
M  V30 1322 N 128.767 -5.01714 -2.91998 0
M  V30 1323 H 131.532 -2.94025 0.580483 0
M  V30 1324 H 129.093 -1.55373 0.45507 0
M  V30 1325 H 131.085 -3.59139 -1.86552 0
M  V30 1326 H 129.655 -2.52943 -1.83681 0
M  V30 1327 H 128.875 -3.93627 0.21245 0
M  V30 1328 H 130.163 -5.08431 -0.193704 0
M  V30 1329 H 129.561 -4.57075 -3.33316 0
M  V30 1330 H 128.118 -5.48371 -3.52325 0
M  V30 1331 N 131.551 -0.354651 -1.53558 0
M  V30 1332 C 132.498 0.496968 -2.25386 0
M  V30 1333 C 133.468 1.0865 -1.25636 0
M  V30 1334 O 134.653 1.12104 -1.54394 0
M  V30 1335 C 131.793 1.63637 -3.03837 0
M  V30 1336 C 130.906 1.07307 -4.18461 0
M  V30 1337 C 130.041 2.18068 -4.84376 0
M  V30 1338 C 129.08 1.59147 -5.91049 0
M  V30 1339 N 128.217 2.63695 -6.50699 0
M  V30 1340 H 133.057 -0.122075 -2.9775 0
M  V30 1341 H 130.594 -0.0720154 -1.46924 0
M  V30 1342 H 132.552 2.30734 -3.47589 0
M  V30 1343 H 131.182 2.22623 -2.33749 0
M  V30 1344 H 130.234 0.292708 -3.79272 0
M  V30 1345 H 131.546 0.602193 -4.95152 0
M  V30 1346 H 130.7 2.93007 -5.31255 0
M  V30 1347 H 129.439 2.68504 -4.07133 0
M  V30 1348 H 128.444 0.827175 -5.43542 0
M  V30 1349 H 129.669 1.09549 -6.70206 0
M  V30 1350 H 127.615 3.13365 -5.76315 0
M  V30 1351 H 127.532 2.21263 -7.22896 0
M  V30 1352 H 128.8 3.3837 -7.02229 0
M  V30 1353 N 133.029 1.57378 -0.0835403 0
M  V30 1354 C 133.962 2.09016 0.915833 0
M  V30 1355 C 134.94 0.997993 1.2837 0
M  V30 1356 O 136.124 1.27219 1.39096 0
M  V30 1357 C 133.251 2.55757 2.22049 0
M  V30 1358 C 132.297 3.76522 2.00333 0
M  V30 1359 S 133.13 5.20661 1.25191 0
M  V30 1360 C 134.286 5.70743 2.56912 0
M  V30 1361 H 134.519 2.93457 0.476492 0
M  V30 1362 H 132.052 1.53856 0.129493 0
M  V30 1363 H 134.01 2.83346 2.97027 0
M  V30 1364 H 132.671 1.71564 2.63106 0
M  V30 1365 H 131.864 4.07256 2.96916 0
M  V30 1366 H 131.466 3.49367 1.33488 0
M  V30 1367 H 133.758 5.78304 3.52946 0
M  V30 1368 H 134.701 6.6944 2.30772 0
M  V30 1369 H 135.109 4.98616 2.64655 0
M  V30 1370 N 134.507 -0.190092 1.56449 0
M  V30 1371 C 135.44 -1.26375 1.90012 0
M  V30 1372 C 136.418 -1.43705 0.760765 0
M  V30 1373 O 137.602 -1.59014 1.01226 0
M  V30 1374 C 134.729 -2.62962 2.13468 0
M  V30 1375 C 133.775 -2.62474 3.36169 0
M  V30 1376 S 134.608 -2.13412 4.91137 0
M  V30 1377 C 135.764 -3.51812 5.17667 0
M  V30 1378 H 135.997 -0.977181 2.80782 0
M  V30 1379 H 133.53 -0.393814 1.49293 0
M  V30 1380 H 135.488 -3.41583 2.27664 0
M  V30 1381 H 134.149 -2.88828 1.23439 0
M  V30 1382 H 133.342 -3.62918 3.49723 0
M  V30 1383 H 132.944 -1.91937 3.20992 0
M  V30 1384 H 135.236 -4.47706 5.08494 0
M  V30 1385 H 136.179 -3.43148 6.19399 0
M  V30 1386 H 136.587 -3.46956 4.45288 0
M  V30 1387 N 135.985 -1.50799 -0.457987 0
M  V30 1388 C 137.234 -1.6168 -1.20593 0
M  V30 1389 C 137.547 -0.32888 -1.92815 0
M  V30 1390 O 138.753 -0.316773 -2.69646 0
M  V30 1391 C 137.209 -2.8545 -2.19195 0
M  V30 1392 C 136.817 -4.21168 -1.52715 0
M  V30 1393 C 138.561 -3.05681 -2.94549 0
M  V30 1394 C 136.468 -5.3611 -2.4968 0
M  V30 1395 H 135.398 -0.602134 -0.453818 0
M  V30 1396 H 138.049 -1.77245 -0.475031 0
M  V30 1397 H 136.431 -2.63472 -2.95632 0
M  V30 1398 H 137.605 -4.53449 -0.819775 0
M  V30 1399 H 135.92 -4.06648 -0.895922 0
M  V30 1400 H 138.517 -3.88727 -3.67145 0
M  V30 1401 H 138.86 -2.17929 -3.54701 0
M  V30 1402 H 139.393 -3.27901 -2.25223 0
M  V30 1403 H 136.132 -6.26057 -1.94249 0
M  V30 1404 H 135.652 -5.0823 -3.18532 0
M  V30 1405 H 137.331 -5.6722 -3.11241 0
M  V30 1406 N 137.463 0.71206 -1.40597 0
M  V30 1407 C 138.41 1.82613 -1.41142 0
M  V30 1408 C 139.38 1.63925 -0.267903 0
M  V30 1409 O 140.565 1.85009 -0.466495 0
M  V30 1410 C 137.705 3.20354 -1.28324 0
M  V30 1411 C 136.818 3.50589 -2.52411 0
M  V30 1412 C 135.953 4.77855 -2.32009 0
M  V30 1413 C 134.992 5.01005 -3.51654 0
M  V30 1414 N 134.129 6.19487 -3.30425 0
M  V30 1415 H 138.969 1.81482 -2.36365 0
M  V30 1416 H 136.506 0.886475 -1.17388 0
M  V30 1417 H 138.464 3.99899 -1.18899 0
M  V30 1418 H 137.094 3.20705 -0.367189 0
M  V30 1419 H 136.146 2.65573 -2.72351 0
M  V30 1420 H 137.458 3.63604 -3.41458 0
M  V30 1421 H 136.612 5.65424 -2.19956 0
M  V30 1422 H 135.351 4.67056 -1.40392 0
M  V30 1423 H 134.356 4.1189 -3.64179 0
M  V30 1424 H 135.581 5.13674 -4.44202 0
M  V30 1425 H 133.527 6.09932 -2.41494 0
M  V30 1426 H 133.444 6.33194 -4.13039 0
M  V30 1427 H 134.712 7.09834 -3.22113 0
M  V30 1428 N 138.941 1.26152 0.944643 0
M  V30 1429 C 140.189 1.11271 1.6871 0
M  V30 1430 C 140.51 -0.345166 1.91921 0
M  V30 1431 O 139.78 -1.24387 1.51343 0
M  V30 1432 H 138.36 0.408783 0.625224 0
M  V30 1433 H 141.022 1.58427 1.1352 0
M  V30 1434 H 140.118 1.62879 2.66227 0
M  V30 1435 N 140.419 -1.14872 1.07899 0
M  V30 1436 C 141.667 -1.85422 0.803941 0
M  V30 1437 C 141.988 -1.83051 -0.67211 0
M  V30 1438 O 141.258 -1.27532 -1.48703 0
M  V30 1439 H 139.838 -0.686537 0.294408 0
M  V30 1440 H 142.5 -1.39226 1.3639 0
M  V30 1441 H 141.596 -2.90399 1.14346 0
M  V30 1442 N 141.898 -0.863906 -1.31812 0
M  V30 1443 C 143.146 -0.470904 -1.96537 0
M  V30 1444 C 143.467 0.978771 -1.68657 0
M  V30 1445 O 142.737 1.6853 -0.998717 0
M  V30 1446 H 141.317 -0.171148 -0.72713 0
M  V30 1447 H 143.979 -1.10236 -1.60729 0
M  V30 1448 H 143.075 -0.623616 -3.05806 0
M  V30 1449 N 143.376 1.44774 -0.622745 0
M  V30 1450 C 144.339 2.29069 0.0774015 0
M  V30 1451 C 145.339 1.4059 0.780461 0
M  V30 1452 O 146.529 1.62551 0.626322 0
M  V30 1453 C 143.661 3.21974 1.12006 0
M  V30 1454 H 144.854 2.92459 -0.663901 0
M  V30 1455 H 142.407 1.51548 -0.382486 0
M  V30 1456 H 143.142 2.63417 1.89162 0
M  V30 1457 H 142.927 3.87168 0.619951 0
M  V30 1458 H 144.417 3.85318 1.60995 0
M  V30 1459 N 144.854 0.36279 1.53368 0
M  V30 1460 C 145.817 -0.472679 2.24273 0
M  V30 1461 C 146.817 -1.012 1.24961 0
M  V30 1462 O 148.007 -0.898194 1.49259 0
M  V30 1463 C 145.139 -1.66039 2.97731 0
M  V30 1464 H 146.332 0.14773 2.99536 0
M  V30 1465 H 143.885 0.114434 1.55881 0
M  V30 1466 H 144.62 -2.31896 2.26704 0
M  V30 1467 H 144.405 -1.28066 3.70596 0
M  V30 1468 H 145.895 -2.25252 3.51641 0
M  V30 1469 N 146.332 -1.57332 0.0918853 0
M  V30 1470 C 147.262 -2.16872 -0.865371 0
M  V30 1471 C 148.243 -1.10118 -1.29646 0
M  V30 1472 O 149.428 -1.38242 -1.36392 0
M  V30 1473 C 146.558 -2.74649 -2.12569 0
M  V30 1474 C 145.512 -3.86747 -1.83333 0
M  V30 1475 C 144.838 -4.31212 -3.16166 0
M  V30 1476 C 146.138 -5.10089 -1.1228 0
M  V30 1477 H 147.832 -2.97114 -0.369307 0
M  V30 1478 H 145.378 -1.42918 -0.176194 0
M  V30 1479 H 147.331 -3.14952 -2.7997 0
M  V30 1480 H 146.055 -1.91657 -2.64452 0
M  V30 1481 H 144.714 -3.46978 -1.18331 0
M  V30 1482 H 144.362 -3.45115 -3.6593 0
M  V30 1483 H 144.062 -5.06788 -2.97388 0
M  V30 1484 H 145.586 -4.74146 -3.84731 0
M  V30 1485 H 147 -5.47582 -1.69785 0
M  V30 1486 H 145.397 -5.91073 -1.03693 0
M  V30 1487 H 146.467 -4.84786 -0.105041 0
M  V30 1488 N 147.81 0.181792 -1.56548 0
M  V30 1489 C 149.038 0.915947 -1.85521 0
M  V30 1490 C 149.453 1.76282 -0.676016 0
M  V30 1491 O 148.81 1.79012 0.355077 0
M  V30 1492 C 148.861 1.80126 -3.13427 0
M  V30 1493 O 148.582 0.988562 -4.26801 0
M  V30 1494 C 150.083 2.64597 -3.55673 0
M  V30 1495 H 147.303 0.26661 -0.61576 0
M  V30 1496 H 149.847 0.185039 -2.03661 0
M  V30 1497 H 148.002 2.48563 -2.97145 0
M  V30 1498 H 148.416 1.59308 -4.99721 0
M  V30 1499 H 149.89 3.2235 -4.48101 0
M  V30 1500 H 150.367 3.38958 -2.79292 0
M  V30 1501 H 150.973 2.0151 -3.74532 0
M  V30 1502 N 149.288 1.51039 0.449983 0
M  V30 1503 C 150.704 1.38934 0.785462 0
M  V30 1504 C 150.904 0.461817 1.96136 0
M  V30 1505 O 149.96 -0.0877389 2.52348 0
M  V30 1506 C 151.273 2.80724 1.0777 0
M  V30 1507 C 152.821 2.89787 1.1829 0
M  V30 1508 C 153.296 4.32457 1.50815 0
M  V30 1509 N 154.787 4.35505 1.57764 0
M  V30 1510 C 155.522 5.42914 1.84477 0
M  V30 1511 N 155.018 6.60502 2.09068 0
M  V30 1512 N 156.811 5.3038 1.86155 0
M  V30 1513 H 148.962 2.09904 -0.324647 0
M  V30 1514 H 151.225 0.944378 -0.0827957 0
M  V30 1515 H 150.931 3.50531 0.286498 0
M  V30 1516 H 150.805 3.19273 2.00859 0
M  V30 1517 H 153.192 2.20186 1.96474 0
M  V30 1518 H 153.273 2.54752 0.231314 0
M  V30 1519 H 152.917 5.02603 0.731622 0
M  V30 1520 H 152.847 4.64995 2.47158 0
M  V30 1521 H 155.338 3.50724 1.40715 0
M  V30 1522 H 155.651 7.38158 2.28785 0
M  V30 1523 H 153.996 6.63639 2.06416 0
M  V30 1524 H 157.187 4.37505 1.66454 0
M  V30 1525 H 157.36 6.1417 2.06637 0
M  V30 1526 N 150.766 -0.704594 1.40972 0
M  V30 1527 C 151.676 -1.84856 1.44448 0
M  V30 1528 C 152.692 -1.70726 0.335961 0
M  V30 1529 O 153.868 -1.92799 0.582276 0
M  V30 1530 C 150.933 -3.20758 1.31587 0
M  V30 1531 C 149.994 -3.47063 2.52677 0
M  V30 1532 C 149.227 -4.76481 2.4042 0
M  V30 1533 O 149.45 -5.52341 1.42391 0
M  V30 1534 O 148.384 -5.03367 3.30007 0
M  V30 1535 H 152.21 -1.8488 2.40942 0
M  V30 1536 H 149.795 -0.85647 1.22413 0
M  V30 1537 H 151.677 -4.01913 1.26665 0
M  V30 1538 H 150.352 -3.21438 0.382049 0
M  V30 1539 H 149.259 -2.65873 2.63177 0
M  V30 1540 H 150.592 -3.5119 3.44858 0
M  V30 1541 N 152.244 -1.26651 -0.937939 0
M  V30 1542 C 153.191 -1.0849 -2.03712 0
M  V30 1543 C 154.161 0.011033 -1.66096 0
M  V30 1544 O 155.346 -0.149353 -1.90215 0
M  V30 1545 C 152.486 -0.72735 -3.37348 0
M  V30 1546 C 151.599 -1.89986 -3.87981 0
M  V30 1547 C 150.734 -1.48513 -5.10017 0
M  V30 1548 C 149.773 -2.62575 -5.5292 0
M  V30 1549 N 148.91 -2.21762 -6.66158 0
M  V30 1550 H 153.75 -2.02551 -2.18579 0
M  V30 1551 H 151.287 -1.00844 -1.07093 0
M  V30 1552 H 153.245 -0.50092 -4.14182 0
M  V30 1553 H 151.875 0.176298 -3.22318 0
M  V30 1554 H 150.927 -2.23913 -3.07518 0
M  V30 1555 H 152.239 -2.75586 -4.15757 0
M  V30 1556 H 151.393 -1.21934 -5.94321 0
M  V30 1557 H 150.132 -0.60009 -4.83994 0
M  V30 1558 H 149.137 -2.8988 -4.67172 0
M  V30 1559 H 150.362 -3.51685 -5.80943 0
M  V30 1560 H 148.308 -1.35696 -6.41812 0
M  V30 1561 H 148.225 -3.00903 -6.93537 0
M  V30 1562 H 149.493 -1.98403 -7.53828 0
M  V30 1563 N 153.722 1.14298 -1.08507 0
M  V30 1564 C 154.971 1.84708 -0.810305 0
M  V30 1565 C 155.284 1.83903 0.666271 0
M  V30 1566 O 156.49 2.50112 1.05624 0
M  V30 1567 C 154.946 3.31572 -1.39957 0
M  V30 1568 C 154.554 3.40791 -2.90801 0
M  V30 1569 C 156.298 4.07087 -1.20334 0
M  V30 1570 C 154.205 4.81872 -3.4286 0
M  V30 1571 H 153.135 0.691985 -0.299454 0
M  V30 1572 H 155.786 1.28841 -1.30661 0
M  V30 1573 H 154.168 3.87183 -0.830976 0
M  V30 1574 H 155.342 2.95225 -3.53806 0
M  V30 1575 H 153.657 2.78732 -3.0935 0
M  V30 1576 H 156.254 5.11225 -1.56693 0
M  V30 1577 H 156.597 4.16054 -0.143237 0
M  V30 1578 H 157.13 3.57779 -1.73893 0
M  V30 1579 H 153.869 4.78094 -4.48449 0
M  V30 1580 H 153.389 5.27972 -2.84615 0
M  V30 1581 H 155.068 5.50765 -3.39509 0
M  V30 1582 N 155.201 0.870884 1.31352 0
M  V30 1583 C 156.447 0.482987 1.96965 0
M  V30 1584 C 156.78 -0.962462 1.68672 0
M  V30 1585 O 156.055 -1.6779 0.98371 0
M  V30 1586 C 156.338 0.741752 3.52378 0
M  V30 1587 C 156.191 2.2368 3.9024 0
M  V30 1588 C 157.51 0.208838 4.39604 0
M  V30 1589 H 154.629 0.176955 0.715441 0
M  V30 1590 H 157.271 1.09229 1.55464 0
M  V30 1591 H 155.421 0.223149 3.87859 0
M  V30 1592 H 157.093 2.82273 3.64856 0
M  V30 1593 H 155.336 2.70901 3.38814 0
M  V30 1594 H 156.007 2.3685 4.98604 0
M  V30 1595 H 158.483 0.652529 4.10952 0
M  V30 1596 H 157.359 0.419336 5.47296 0
M  V30 1597 H 157.62 -0.889275 4.33064 0
M  V30 1598 N 156.679 -1.44442 0.630414 0
M  V30 1599 C 157.642 -2.29107 -0.0652523 0
M  V30 1600 C 158.642 -1.41002 -0.772995 0
M  V30 1601 O 159.832 -1.62881 -0.617692 0
M  V30 1602 C 156.964 -3.22564 -1.10296 0
M  V30 1603 H 158.157 -2.92103 0.679401 0
M  V30 1604 H 155.71 -1.51343 0.390517 0
M  V30 1605 H 156.445 -2.64416 -1.87762 0
M  V30 1606 H 156.23 -3.87491 -0.59941 0
M  V30 1607 H 157.72 -3.86167 -1.5895 0
M  V30 1608 N 158.157 -0.370918 -1.53173 0
M  V30 1609 C 159.12 0.460778 -2.24521 0
M  V30 1610 C 160.12 1.00536 -1.25496 0
M  V30 1611 O 161.31 0.890266 -1.49733 0
M  V30 1612 C 158.442 1.64457 -2.98608 0
M  V30 1613 H 159.635 -0.163613 -2.99453 0
M  V30 1614 H 157.188 -0.122699 -1.55818 0
M  V30 1615 H 157.923 2.30691 -2.2793 0
M  V30 1616 H 157.708 1.26099 -3.7127 0
M  V30 1617 H 159.198 2.23384 -3.5283 0
M  V30 1618 N 159.635 1.57281 -0.100228 0
M  V30 1619 C 160.565 2.17328 0.853857 0
M  V30 1620 C 161.546 1.10804 1.2906 0
M  V30 1621 O 162.731 1.38963 1.35657 0
M  V30 1622 C 159.861 2.75772 2.11109 0
M  V30 1623 C 158.815 3.87713 1.81279 0
M  V30 1624 C 158.141 4.32882 3.13874 0
M  V30 1625 C 159.441 5.10677 1.09574 0
M  V30 1626 H 161.135 2.97305 0.353545 0
M  V30 1627 H 158.681 1.43009 0.168612 0
M  V30 1628 H 160.634 3.16433 2.78296 0
M  V30 1629 H 159.358 1.93057 2.63432 0
M  V30 1630 H 158.017 3.476 1.16489 0
M  V30 1631 H 157.665 3.47051 3.64095 0
M  V30 1632 H 157.365 5.08358 2.94696 0
M  V30 1633 H 158.889 4.7618 3.82211 0
M  V30 1634 H 160.303 5.48474 1.66879 0
M  V30 1635 H 158.7 5.91615 1.00557 0
M  V30 1636 H 159.77 4.84835 0.0793299 0
M  V30 1637 N 161.113 -0.173488 1.56642 0
M  V30 1638 C 162.076 -1.19859 1.95362 0
M  V30 1639 C 163.076 -1.37296 0.83704 0
M  V30 1640 O 164.266 -1.34739 1.10413 0
M  V30 1641 C 161.398 -2.56405 2.24654 0
M  V30 1642 H 162.591 -0.867062 2.87092 0
M  V30 1643 H 160.144 -0.415853 1.50666 0
M  V30 1644 H 160.879 -2.94576 1.35631 0
M  V30 1645 H 160.664 -2.45115 3.06041 0
M  V30 1646 H 162.154 -3.30287 2.5554 0
M  V30 1647 N 162.591 -1.51276 -0.441967 0
M  V30 1648 C 163.538 -1.72256 -1.53612 0
M  V30 1649 C 164.508 -0.564164 -1.56225 0
M  V30 1650 O 165.693 -0.798074 -1.73307 0
M  V30 1651 C 162.833 -1.84932 -2.91366 0
M  V30 1652 C 161.946 -3.12459 -2.98317 0
M  V30 1653 C 161.081 -3.15758 -4.27166 0
M  V30 1654 C 160.12 -4.37619 -4.27967 0
M  V30 1655 N 159.257 -4.38493 -5.48333 0
M  V30 1656 H 164.097 -2.65654 -1.35026 0
M  V30 1657 H 161.634 -1.31662 -0.656009 0
M  V30 1658 H 163.592 -1.90263 -3.7129 0
M  V30 1659 H 162.222 -0.949461 -3.08521 0
M  V30 1660 H 161.274 -3.1646 -2.11086 0
M  V30 1661 H 162.586 -4.02382 -2.94771 0
M  V30 1662 H 161.74 -3.19979 -5.15459 0
M  V30 1663 H 160.479 -2.23715 -4.33362 0
M  V30 1664 H 159.484 -4.33579 -3.38067 0
M  V30 1665 H 160.709 -5.30921 -4.23438 0
M  V30 1666 H 158.655 -3.49318 -5.55259 0
M  V30 1667 H 158.572 -5.22219 -5.46647 0
M  V30 1668 H 159.84 -4.469 -6.38671 0
M  V30 1669 N 164.069 0.697108 -1.41344 0
M  V30 1670 C 165.016 1.81106 -1.43071 0
M  V30 1671 C 165.986 1.63632 -0.285275 0
M  V30 1672 O 167.171 1.84504 -0.486091 0
M  V30 1673 C 164.311 3.18975 -1.31715 0
M  V30 1674 C 163.424 3.47892 -2.56115 0
M  V30 1675 C 162.559 4.75367 -2.37064 0
M  V30 1676 C 161.598 4.97247 -3.56948 0
M  V30 1677 N 160.735 6.15947 -3.36977 0
M  V30 1678 H 165.575 1.78965 -2.38276 0
M  V30 1679 H 163.112 0.873975 -1.18322 0
M  V30 1680 H 165.07 3.98615 -1.23133 0
M  V30 1681 H 163.7 3.20297 -0.401183 0
M  V30 1682 H 162.752 2.62669 -2.75153 0
M  V30 1683 H 164.064 3.59962 -3.45295 0
M  V30 1684 H 163.218 5.63059 -2.25941 0
M  V30 1685 H 161.957 4.65541 -1.45338 0
M  V30 1686 H 160.962 4.08004 -3.68527 0
M  V30 1687 H 162.187 5.08934 -4.49626 0
M  V30 1688 H 160.133 6.07336 -2.47949 0
M  V30 1689 H 160.05 6.28777 -4.19732 0
M  V30 1690 H 161.318 7.06377 -3.29623 0
M  V30 1691 N 165.547 1.27147 0.931209 0
M  V30 1692 C 166.794 1.13278 1.67852 0
M  V30 1693 C 167.122 -0.32204 1.91815 0
M  V30 1694 O 166.377 -1.25224 1.50391 0
M  V30 1695 C 166.676 1.8579 3.05314 0
M  V30 1696 C 166.342 3.35657 3.01073 0
M  V30 1697 C 165.004 3.76536 2.99623 0
M  V30 1698 C 167.356 4.31299 2.92627 0
M  V30 1699 C 164.684 5.11426 2.87506 0
M  V30 1700 C 167.036 5.66242 2.82051 0
M  V30 1701 C 165.7 6.06418 2.7895 0
M  V30 1702 H 164.97 0.414515 0.614214 0
M  V30 1703 H 167.617 1.57712 1.08624 0
M  V30 1704 H 165.922 1.33854 3.68226 0
M  V30 1705 H 167.619 1.72491 3.62005 0
M  V30 1706 H 164.209 3.03146 3.02986 0
M  V30 1707 H 168.393 4.00692 2.92848 0
M  V30 1708 H 163.649 5.41705 2.83489 0
M  V30 1709 H 167.823 6.40026 2.74481 0
M  V30 1710 H 165.45 7.10895 2.69318 0
M  V30 1711 N 167.025 -1.13721 1.09112 0
M  V30 1712 C 168.274 -1.84275 0.82009 0
M  V30 1713 C 168.587 -1.84253 -0.656509 0
M  V30 1714 O 169.793 -2.50668 -1.04296 0
M  V30 1715 C 168.249 -3.30825 1.41714 0
M  V30 1716 C 167.857 -3.39244 2.92605 0
M  V30 1717 C 169.601 -4.06443 1.22492 0
M  V30 1718 C 167.508 -4.80047 3.45411 0
M  V30 1719 H 166.438 -0.690387 0.30312 0
M  V30 1720 H 169.089 -1.28146 1.31343 0
M  V30 1721 H 167.471 -3.86737 0.851498 0
M  V30 1722 H 168.645 -2.93344 3.55367 0
M  V30 1723 H 166.96 -2.77088 3.10823 0
M  V30 1724 H 169.557 -5.10387 1.59402 0
M  V30 1725 H 169.9 -4.15972 0.165299 0
M  V30 1726 H 170.433 -3.56852 1.75788 0
M  V30 1727 H 167.172 -4.75709 4.50978 0
M  V30 1728 H 166.692 -5.26455 2.87411 0
M  V30 1729 H 168.371 -5.48957 3.42425 0
M  V30 1730 N 168.503 -0.877838 -1.30888 0
M  V30 1731 C 169.743 -0.499301 -1.98208 0
M  V30 1732 C 170.107 0.932649 -1.67826 0
M  V30 1733 O 171.308 1.41694 -2.28421 0
M  V30 1734 C 169.579 -0.758221 -3.49265 0
M  V30 1735 S 171.138 -0.480719 -4.36159 0
M  V30 1736 H 167.956 -0.186062 -0.686223 0
M  V30 1737 H 170.558 -1.13556 -1.59139 0
M  V30 1738 H 169.262 -1.79903 -3.68867 0
M  V30 1739 H 168.793 -0.109247 -3.93248 0
M  V30 1740 H 170.808 0.683698 -4.91467 0
M  V30 1741 N 169.982 1.44106 -0.638065 0
M  V30 1742 C 171.231 2.01194 -0.142744 0
M  V30 1743 C 171.544 1.50835 1.24532 0
M  V30 1744 O 172.75 2.00096 1.83504 0
M  V30 1745 C 171.206 3.59319 -0.20442 0
M  V30 1746 C 170.814 4.18674 -1.59423 0
M  V30 1747 C 172.558 4.23854 0.234079 0
M  V30 1748 C 170.465 5.69045 -1.61065 0
M  V30 1749 H 169.395 0.752367 -0.0495998 0
M  V30 1750 H 172.046 1.65246 -0.797881 0
M  V30 1751 H 170.428 3.92598 0.517946 0
M  V30 1752 H 171.602 3.96921 -2.34074 0
M  V30 1753 H 169.917 3.66453 -1.97741 0
M  V30 1754 H 172.514 5.34155 0.241443 0
M  V30 1755 H 172.857 3.96688 1.2627 0
M  V30 1756 H 173.39 3.95403 -0.436025 0
M  V30 1757 H 170.129 6.00956 -2.61787 0
M  V30 1758 H 169.649 5.929 -0.90718 0
M  V30 1759 H 171.328 6.32809 -1.34766 0
M  V30 1760 N 171.46 0.379036 1.52974 0
M  V30 1761 C 172.706 -0.206727 2.01744 0
M  V30 1762 C 173.039 -1.47314 1.26539 0
M  V30 1763 O 172.314 -1.91084 0.362903 0
M  V30 1764 C 172.597 -0.485066 3.56818 0
M  V30 1765 C 172.45 0.795919 4.42702 0
M  V30 1766 C 173.769 -1.28003 4.21074 0
M  V30 1767 H 170.888 -0.0736607 0.73331 0
M  V30 1768 H 173.53 0.506581 1.83122 0
M  V30 1769 H 171.68 -1.09272 3.72816 0
M  V30 1770 H 173.352 1.43307 4.38476 0
M  V30 1771 H 171.595 1.41344 4.10127 0
M  V30 1772 H 172.266 0.555947 5.49193 0
M  V30 1773 H 174.742 -0.765867 4.08991 0
M  V30 1774 H 173.618 -1.44352 5.29579 0
M  V30 1775 H 173.879 -2.29236 3.78026 0
M  V30 1776 N 172.938 -1.57226 0.108567 0
M  V30 1777 C 174.215 -1.86333 -0.594939 0
M  V30 1778 C 174.595 -1.00788 -1.85486 0
M  V30 1779 O 173.943 -0.0839293 -2.28346 0
M  V30 1780 C 174.153 -3.37265 -0.897405 0
M  V30 1781 C 175.501 -4.05629 -1.25501 0
M  V30 1782 O 176.525 -3.42224 -0.987998 0
M  V30 1783 O 175.384 -5.17531 -1.75567 0
M  V30 1784 H 172.478 -0.771018 -0.2991 0
M  V30 1785 H 175.024 -1.69102 0.142283 0
M  V30 1786 H 173.796 -3.913 -0.00413806 0
M  V30 1787 H 173.419 -3.59889 -1.69014 0
M  V30 1788 N 174.416 0.165178 -1.56732 0
M  V30 1789 C 175.641 0.900253 -1.86843 0
M  V30 1790 C 176.066 1.74766 -0.695596 0
M  V30 1791 O 175.424 1.77786 0.35522 0
M  V30 1792 C 175.472 1.74777 -3.15413 0
M  V30 1793 O 174.576 2.85007 -2.98068 0
M  V30 1794 H 173.917 0.251832 -0.614391 0
M  V30 1795 H 176.447 0.161468 -2.03962 0
M  V30 1796 H 176.457 2.14646 -3.46974 0
M  V30 1797 H 175.132 1.12537 -4.00385 0
M  V30 1798 H 173.709 2.48676 -2.77875 0
M  V30 1799 N 175.894 1.51508 0.433938 0
M  V30 1800 C 177.119 1.68443 1.21003 0
M  V30 1801 C 177.544 0.382636 1.84167 0
M  V30 1802 O 176.902 -0.65755 1.68956 0
M  V30 1803 C 176.95 2.80405 2.26727 0
M  V30 1804 O 176.054 2.44245 3.32292 0
M  V30 1805 H 175.395 0.561536 0.354363 0
M  V30 1806 H 177.925 1.9809 0.512024 0
M  V30 1807 H 177.935 3.0459 2.71457 0
M  V30 1808 H 176.61 3.74867 1.80132 0
M  V30 1809 H 175.187 2.30644 2.93015 0
M  V30 1810 N 177.372 -0.689602 1.41712 0
M  V30 1811 C 178.319 -1.80345 1.44029 0
M  V30 1812 C 179.289 -1.63478 0.293948 0
M  V30 1813 O 180.474 -1.84244 0.495869 0
M  V30 1814 C 177.614 -3.18272 1.33405 0
M  V30 1815 C 176.727 -3.46529 2.57956 0
M  V30 1816 C 175.862 -4.74103 2.39582 0
M  V30 1817 C 174.901 -4.95347 3.5958 0
M  V30 1818 N 174.038 -6.14151 3.40239 0
M  V30 1819 H 178.878 -1.77698 2.39222 0
M  V30 1820 H 176.415 -0.867688 1.18784 0
M  V30 1821 H 178.373 -3.97956 1.25246 0
M  V30 1822 H 177.003 -3.2008 0.418164 0
M  V30 1823 H 176.055 -2.61207 2.76542 0
M  V30 1824 H 177.367 -3.58126 3.47199 0
M  V30 1825 H 176.521 -5.61853 2.28924 0
M  V30 1826 H 175.26 -4.64763 1.47805 0
M  V30 1827 H 174.265 -4.06044 3.70686 0
M  V30 1828 H 175.49 -5.06542 4.52318 0
M  V30 1829 H 173.436 -6.06013 2.51167 0
M  V30 1830 H 173.353 -6.26543 4.23061 0
M  V30 1831 H 174.621 -7.04619 3.33365 0
M  V30 1832 N 178.85 -1.27639 -0.924453 0
M  V30 1833 C 179.782 -1.06442 -2.02985 0
M  V30 1834 C 180.795 -0.0194771 -1.62788 0
M  V30 1835 O 181.984 -0.261388 -1.76576 0
M  V30 1836 C 179.084 -0.59327 -3.33667 0
M  V30 1837 C 178.257 -1.71123 -4.02537 0
M  V30 1838 C 177.316 -1.23527 -5.11495 0
M  V30 1839 O 176.342 -1.93553 -5.35281 0
M  V30 1840 N 177.544 -0.0926678 -5.80426 0
M  V30 1841 H 180.309 -2.01633 -2.2173 0
M  V30 1842 H 177.87 -1.19248 -1.09505 0
M  V30 1843 H 179.862 -0.258686 -4.03872 0
M  V30 1844 H 178.432 0.265502 -3.1147 0
M  V30 1845 H 177.652 -2.21593 -3.26022 0
M  V30 1846 H 178.94 -2.46145 -4.45298 0
M  V30 1847 H 178.338 0.491741 -5.63559 0
M  V30 1848 H 176.895 0.182714 -6.51544 0
M  V30 1849 N 180.328 1.1314 -1.09713 0
M  V30 1850 C 181.574 1.84757 -0.836224 0
M  V30 1851 C 181.907 1.8347 0.636598 0
M  V30 1852 O 181.182 1.27491 1.46889 0
M  V30 1853 C 181.465 3.32782 -1.37578 0
M  V30 1854 C 181.318 3.42567 -2.91493 0
M  V30 1855 C 182.637 4.28307 -1.01198 0
M  V30 1856 H 179.756 0.67082 -0.305236 0
M  V30 1857 H 182.398 1.3278 -1.35903 0
M  V30 1858 H 180.548 3.77177 -0.931097 0
M  V30 1859 H 182.22 3.06862 -3.44432 0
M  V30 1860 H 180.463 2.83349 -3.28475 0
M  V30 1861 H 181.134 4.46674 -3.24324 0
M  V30 1862 H 183.61 3.91999 -1.39556 0
M  V30 1863 H 182.486 5.30307 -1.41653 0
M  V30 1864 H 182.747 4.42029 0.0794833 0
M  V30 1865 N 181.806 0.884767 1.30421 0
M  V30 1866 C 183.083 0.423185 1.90967 0
M  V30 1867 C 183.463 -1.09605 1.80416 0
M  V30 1868 O 182.811 -1.93126 1.22125 0
M  V30 1869 C 183.021 0.921056 3.36627 0
M  V30 1870 C 184.369 0.955903 4.137 0
M  V30 1871 O 185.393 0.867706 3.4547 0
M  V30 1872 O 184.252 1.08614 5.35598 0
M  V30 1873 H 181.346 0.129369 0.816819 0
M  V30 1874 H 183.892 0.973653 1.3899 0
M  V30 1875 H 182.664 1.96489 3.3839 0
M  V30 1876 H 182.287 0.349741 3.96059 0
M  V30 1877 N 183.284 -1.43765 0.645699 0
M  V30 1878 C 184.53 -2.02197 0.156271 0
M  V30 1879 C 184.863 -1.50776 -1.22393 0
M  V30 1880 O 184.138 -0.697771 -1.81553 0
M  V30 1881 C 184.421 -3.59749 0.158872 0
M  V30 1882 C 184.274 -4.21419 1.57245 0
M  V30 1883 C 185.593 -4.37149 -0.50879 0
M  V30 1884 H 182.712 -0.734694 0.0582602 0
M  V30 1885 H 185.354 -1.71157 0.824951 0
M  V30 1886 H 183.504 -3.86325 -0.410525 0
M  V30 1887 H 185.176 -4.059 2.19186 0
M  V30 1888 H 183.419 -3.78356 2.122 0
M  V30 1889 H 184.09 -5.30482 1.52619 0
M  V30 1890 H 186.566 -4.16093 -0.024412 0
M  V30 1891 H 185.442 -5.4683 -0.476213 0
M  V30 1892 H 185.703 -4.12839 -1.58165 0
M  V30 1893 N 184.763 -0.387143 -1.52771 0
M  V30 1894 C 185.693 0.440551 -2.29306 0
M  V30 1895 C 186.674 1.06535 -1.32606 0
M  V30 1896 O 187.859 1.07853 -1.61497 0
M  V30 1897 C 184.989 1.56919 -3.09829 0
M  V30 1898 C 183.943 1.07054 -4.14395 0
M  V30 1899 C 183.269 2.29109 -4.83129 0
M  V30 1900 C 184.569 0.140015 -5.22112 0
M  V30 1901 H 186.263 -0.198026 -2.98744 0
M  V30 1902 H 183.809 -0.09668 -1.43675 0
M  V30 1903 H 185.762 2.15503 -3.62128 0
M  V30 1904 H 184.486 2.23532 -2.3812 0
M  V30 1905 H 183.145 0.507247 -3.63074 0
M  V30 1906 H 182.793 2.94227 -4.0797 0
M  V30 1907 H 182.493 1.96406 -5.53804 0
M  V30 1908 H 184.017 2.88339 -5.38231 0
M  V30 1909 H 185.431 0.633978 -5.69784 0
M  V30 1910 H 183.828 -0.0971485 -6.00021 0
M  V30 1911 H 184.898 -0.811711 -4.78058 0
M  V30 1912 N 186.241 1.57166 -0.116904 0
M  V30 1913 C 187.489 1.94737 0.540533 0
M  V30 1914 C 187.81 1.00096 1.67349 0
M  V30 1915 O 187.08 0.0568854 1.95817 0
M  V30 1916 H 185.66 0.718981 0.202669 0
M  V30 1917 H 188.322 1.94017 -0.185353 0
M  V30 1918 H 187.418 2.97719 0.936483 0
M  V30 1919 N 187.719 -0.156864 1.56817 0
M  V30 1920 C 188.944 -0.890331 1.87318 0
M  V30 1921 C 189.369 -1.74394 0.704855 0
M  V30 1922 O 188.727 -1.77972 -0.345786 0
M  V30 1923 C 188.775 -1.73102 3.16336 0
M  V30 1924 O 187.879 -2.83422 2.99576 0
M  V30 1925 H 187.22 -0.24857 0.615718 0
M  V30 1926 H 189.75 -0.150649 2.04045 0
M  V30 1927 H 189.76 -2.12803 3.48107 0
M  V30 1928 H 188.435 -1.10412 4.00976 0
M  V30 1929 H 187.012 -2.47199 2.7919 0
M  V30 1930 N 189.197 -1.51736 -0.425897 0
M  V30 1931 C 190.425 -1.68794 -1.1965 0
M  V30 1932 C 190.84 -0.390164 -1.84725 0
M  V30 1933 O 190.197 0.632376 -1.71194 0
M  V30 1934 C 190.248 -2.81174 -2.27208 0
M  V30 1935 O 189.969 -4.05925 -1.64793 0
M  V30 1936 C 191.47 -3.09599 -3.17275 0
M  V30 1937 H 188.69 -0.566128 -0.360194 0
M  V30 1938 H 191.234 -1.98211 -0.503249 0
M  V30 1939 H 189.389 -2.54324 -2.9223 0
M  V30 1940 H 189.803 -4.68423 -2.35967 0
M  V30 1941 H 191.277 -3.91786 -3.88854 0
M  V30 1942 H 191.754 -2.22468 -3.78688 0
M  V30 1943 H 192.36 -3.38151 -2.57941 0
M  V30 1944 N 190.675 0.682077 -1.42076 0
M  V30 1945 C 191.922 1.44215 -1.42156 0
M  V30 1946 C 192.25 1.94468 -0.0354186 0
M  V30 1947 O 191.505 1.70816 0.955002 0
M  V30 1948 C 191.804 2.66036 -2.38662 0
M  V30 1949 C 191.47 2.34366 -3.85206 0
M  V30 1950 C 190.132 2.25439 -4.25124 0
M  V30 1951 C 192.484 2.08513 -4.77673 0
M  V30 1952 C 189.812 1.88775 -5.55501 0
M  V30 1953 C 192.164 1.73354 -6.08384 0
M  V30 1954 C 190.828 1.62933 -6.47309 0
M  V30 1955 H 190.098 0.527718 -0.520187 0
M  V30 1956 H 192.745 0.778387 -1.74967 0
M  V30 1957 H 191.05 3.3741 -1.99152 0
M  V30 1958 H 192.747 3.24205 -2.35991 0
M  V30 1959 H 189.337 2.42213 -3.53597 0
M  V30 1960 H 193.521 2.14346 -4.47626 0
M  V30 1961 H 188.777 1.7927 -5.84527 0
M  V30 1962 H 192.951 1.52373 -6.79526 0
M  V30 1963 H 190.578 1.34292 -7.48244 0
M  V30 1964 N 192.153 1.28127 0.917671 0
M  V30 1965 C 193.564 1.13622 1.48145 0
M  V30 1966 C 193.915 -0.275207 1.9426 0
M  V30 1967 O 193.04 -1.1691 1.82102 0
M  V30 1968 C 193.635 2.05648 2.69248 0
M  V30 1969 C 192.194 1.95219 3.21818 0
M  V30 1970 C 191.341 1.97618 1.94532 0
M  V30 1971 H 194.292 1.40874 0.730772 0
M  V30 1972 H 194.313 1.61818 3.44377 0
M  V30 1973 H 193.825 3.08365 2.35653 0
M  V30 1974 H 191.926 0.955244 3.60147 0
M  V30 1975 H 192.039 2.81976 3.87333 0
M  V30 1976 H 190.403 1.41973 2.11461 0
M  V30 1977 H 191.186 3.02007 1.63238 0
M  V30 1978 N 193.631 -1.12557 1.10312 0
M  V30 1979 C 194.561 -2.20341 0.772798 0
M  V30 1980 C 195.542 -1.68198 -0.25365 0
M  V30 1981 O 196.727 -1.93831 -0.119699 0
M  V30 1982 C 193.857 -3.46709 0.202443 0
M  V30 1983 C 192.811 -4.11996 1.15943 0
M  V30 1984 C 192.137 -5.328 0.450345 0
M  V30 1985 C 193.437 -4.5828 2.50552 0
M  V30 1986 H 195.131 -2.48229 1.674 0
M  V30 1987 H 192.677 -1.19308 0.806326 0
M  V30 1988 H 194.63 -4.2138 -0.0407752 0
M  V30 1989 H 193.354 -3.18245 -0.734001 0
M  V30 1990 H 192.013 -3.39305 1.38808 0
M  V30 1991 H 191.661 -5.00602 -0.490531 0
M  V30 1992 H 191.361 -5.7743 1.08851 0
M  V30 1993 H 192.885 -6.10219 0.215642 0
M  V30 1994 H 194.299 -5.2433 2.31843 0
M  V30 1995 H 192.696 -5.13683 3.10242 0
M  V30 1996 H 193.766 -3.72329 3.10643 0
M  V30 1997 N 195.109 -0.891671 -1.2995 0
M  V30 1998 C 196.52 -0.563104 -1.78006 0
M  V30 1999 C 196.871 0.920978 -1.73241 0
M  V30 2000 O 195.996 1.71987 -1.31337 0
M  V30 2001 C 196.591 -1.01539 -3.23226 0
M  V30 2002 C 195.15 -0.738124 -3.69092 0
M  V30 2003 C 194.297 -1.19461 -2.50249 0
M  V30 2004 H 197.248 -1.07522 -1.16725 0
M  V30 2005 H 197.269 -0.347217 -3.78912 0
M  V30 2006 H 196.781 -2.09555 -3.26662 0
M  V30 2007 H 194.882 0.329766 -3.71138 0
M  V30 2008 H 194.995 -1.33037 -4.60259 0
M  V30 2009 H 193.359 -0.613787 -2.47194 0
M  V30 2010 H 194.142 -2.28265 -2.56417 0
M  V30 2011 N 196.587 1.43421 -0.653314 0
M  V30 2012 C 197.833 2.02111 -0.166992 0
M  V30 2013 C 198.166 1.51423 1.21592 0
M  V30 2014 O 197.441 0.707389 1.8118 0
M  V30 2015 C 197.724 3.5966 -0.177948 0
M  V30 2016 C 197.577 4.20579 -1.59478 0
M  V30 2017 C 198.896 4.37413 0.4856 0
M  V30 2018 H 196.015 0.734374 -0.0621557 0
M  V30 2019 H 198.657 1.70717 -0.834016 0
M  V30 2020 H 196.807 3.86537 0.390032 0
M  V30 2021 H 198.479 4.04732 -2.21336 0
M  V30 2022 H 196.722 3.77226 -2.14204 0
M  V30 2023 H 197.393 5.29665 -1.5543 0
M  V30 2024 H 199.869 4.161 0.00234528 0
M  V30 2025 H 198.745 5.47075 0.447207 0
M  V30 2026 H 199.006 4.13672 1.55974 0
M  V30 2027 N 198.065 0.39524 1.52563 0
M  V30 2028 C 198.975 -0.444232 2.30356 0
M  V30 2029 C 199.991 -1.06615 1.37511 0
M  V30 2030 O 201.167 -1.07067 1.70583 0
M  V30 2031 C 198.232 -1.55315 3.09964 0
M  V30 2032 C 197.293 -0.955734 4.18526 0
M  V30 2033 C 196.526 -2.01181 4.9433 0
M  V30 2034 O 196.749 -3.22781 4.70285 0
M  V30 2035 O 195.683 -1.62579 5.79527 0
M  V30 2036 H 199.509 0.189667 3.03107 0
M  V30 2037 H 197.094 0.1588 1.48554 0
M  V30 2038 H 198.976 -2.19724 3.59582 0
M  V30 2039 H 197.651 -2.17191 2.4002 0
M  V30 2040 H 196.558 -0.274743 3.7309 0
M  V30 2041 H 197.891 -0.381109 4.90722 0
M  V30 2042 N 199.544 -1.57102 0.125237 0
M  V30 2043 C 200.79 -1.95697 -0.532035 0
M  V30 2044 C 201.123 -1.009 -1.6593 0
M  V30 2045 O 200.398 -0.047347 -1.94442 0
M  V30 2046 C 200.681 -3.44181 -1.05884 0
M  V30 2047 C 200.534 -4.49752 0.0654392 0
M  V30 2048 C 201.853 -3.94655 -1.9477 0
M  V30 2049 H 198.972 -0.711571 -0.191925 0
M  V30 2050 H 201.614 -1.88923 0.20206 0
M  V30 2051 H 199.764 -3.50085 -1.68442 0
M  V30 2052 H 201.436 -4.55943 0.700982 0
M  V30 2053 H 199.679 -4.27653 0.727709 0
M  V30 2054 H 200.35 -5.50924 -0.344505 0
M  V30 2055 H 202.826 -3.91094 -1.42074 0
M  V30 2056 H 201.702 -4.99057 -2.28546 0
M  V30 2057 H 201.963 -3.35718 -2.87656 0
M  V30 2058 N 201.022 0.148545 -1.56898 0
M  V30 2059 C 202.271 0.85984 -1.82454 0
M  V30 2060 C 202.584 1.82406 -0.706229 0
M  V30 2061 O 203.79 2.57938 -0.847349 0
M  V30 2062 C 202.246 1.57967 -3.2338 0
M  V30 2063 C 201.854 0.65794 -4.43142 0
M  V30 2064 C 203.598 2.27784 -3.58211 0
M  V30 2065 C 201.505 1.3793 -5.75091 0
M  V30 2066 H 200.435 0.324834 -0.68044 0
M  V30 2067 H 203.086 0.112588 -1.83154 0
M  V30 2068 H 201.468 2.37249 -3.17063 0
M  V30 2069 H 202.642 -0.0995497 -4.60692 0
M  V30 2070 H 200.957 0.0682643 -4.16344 0
M  V30 2071 H 203.554 2.8239 -4.54048 0
M  V30 2072 H 203.897 3.04204 -2.84193 0
M  V30 2073 H 204.43 1.55421 -3.66182 0
M  V30 2074 H 201.169 0.656982 -6.52199 0
M  V30 2075 H 200.689 2.10954 -5.61479 0
M  V30 2076 H 202.368 1.92063 -6.17835 0
M  V30 2077 N 202.5 1.5196 0.417844 0
M  V30 2078 C 203.911 1.57851 0.997 0
M  V30 2079 C 204.262 0.413714 1.91789 0
M  V30 2080 O 203.387 -0.467057 2.113 0
M  V30 2081 C 203.982 2.86085 1.81496 0
M  V30 2082 C 202.541 2.94483 2.34428 0
M  V30 2083 C 201.688 2.52707 1.14169 0
M  V30 2084 H 204.639 1.57455 0.198392 0
M  V30 2085 H 204.66 2.70947 2.67148 0
M  V30 2086 H 204.172 3.70842 1.14446 0
M  V30 2087 H 202.273 2.142 3.04875 0
M  V30 2088 H 202.386 3.98546 2.65891 0
M  V30 2089 H 200.75 2.06353 1.49301 0
M  V30 2090 H 201.533 3.39828 0.486999 0
M  V30 2091 N 203.978 -0.674533 1.42435 0
M  V30 2092 C 204.911 -1.79924 1.40366 0
M  V30 2093 C 205.889 -1.60378 0.267899 0
M  V30 2094 O 207.073 -1.82847 0.458159 0
M  V30 2095 C 204.2 -3.16927 1.19478 0
M  V30 2096 C 203.246 -3.55221 2.36051 0
M  V30 2097 S 204.079 -3.5762 3.98583 0
M  V30 2098 C 205.235 -4.97315 3.80038 0
M  V30 2099 H 205.468 -1.81405 2.35541 0
M  V30 2100 H 203.001 -0.845221 1.29211 0
M  V30 2101 H 204.959 -3.96007 1.08114 0
M  V30 2102 H 203.62 -3.13031 0.258883 0
M  V30 2103 H 202.813 -4.54804 2.17185 0
M  V30 2104 H 202.415 -2.83502 2.43932 0
M  V30 2105 H 204.707 -5.85401 3.41045 0
M  V30 2106 H 205.65 -5.21228 4.79298 0
M  V30 2107 H 206.058 -4.69845 3.12899 0
M  V30 2108 N 205.456 -1.28612 -0.910864 0
M  V30 2109 C 206.419 -1.12803 -1.9952 0
M  V30 2110 C 207.419 -0.0668264 -1.60661 0
M  V30 2111 O 208.609 -0.312847 -1.71368 0
M  V30 2112 C 205.741 -0.72254 -3.33155 0
M  V30 2113 H 206.934 -2.09109 -2.14973 0
M  V30 2114 H 204.487 -1.11639 -1.09391 0
M  V30 2115 H 205.222 0.241152 -3.23402 0
M  V30 2116 H 205.007 -1.48916 -3.62721 0
M  V30 2117 H 206.497 -0.634666 -4.12749 0
M  V30 2118 N 206.934 1.1197 -1.10907 0
M  V30 2119 C 208.35 1.35591 -0.841852 0
M  V30 2120 C 208.55 1.94233 0.536246 0
M  V30 2121 O 207.606 2.1717 1.28816 0
M  V30 2122 C 208.919 2.29284 -1.94549 0
M  V30 2123 C 210.467 2.42862 -1.97451 0
M  V30 2124 C 210.942 3.39873 -3.07002 0
M  V30 2125 N 212.433 3.47433 -3.06341 0
M  V30 2126 C 213.168 4.22421 -3.87748 0
M  V30 2127 N 212.664 5.00432 -4.79103 0
M  V30 2128 N 214.457 4.17876 -3.75946 0
M  V30 2129 H 206.608 0.722664 -1.99728 0
M  V30 2130 H 208.871 0.380635 -0.868229 0
M  V30 2131 H 208.577 1.93378 -2.93765 0
M  V30 2132 H 208.451 3.29452 -1.83688 0
M  V30 2133 H 210.838 2.78046 -0.988645 0
M  V30 2134 H 210.919 1.42566 -2.12388 0
M  V30 2135 H 210.563 3.05417 -4.05811 0
M  V30 2136 H 210.493 4.40011 -2.89306 0
M  V30 2137 H 212.984 2.91784 -2.40147 0
M  V30 2138 H 213.297 5.55002 -5.37766 0
M  V30 2139 H 211.642 4.99612 -4.83128 0
M  V30 2140 H 214.833 3.56016 -3.03924 0
M  V30 2141 H 215.006 4.76061 -4.39624 0
M  V30 2142 N 208.412 0.89855 1.29475 0
M  V30 2143 C 209.637 0.538561 2.00285 0
M  V30 2144 C 210.062 -0.869135 1.66816 0
M  V30 2145 O 209.42 -1.57831 0.892145 0
M  V30 2146 C 209.468 0.736475 3.52999 0
M  V30 2147 O 208.572 -0.211537 4.11857 0
M  V30 2148 H 207.913 0.210563 0.62973 0
M  V30 2149 H 210.443 1.20982 1.64998 0
M  V30 2150 H 210.453 0.640685 4.02938 0
M  V30 2151 H 209.128 1.76276 3.76696 0
M  V30 2152 H 207.705 -0.0682991 3.72837 0
M  V30 2153 N 209.89 -1.43072 0.660911 0
M  V30 2154 C 210.822 -2.29108 -0.0647641 0
M  V30 2155 C 211.835 -1.42928 -0.779448 0
M  V30 2156 O 213.024 -1.66788 -0.635921 0
M  V30 2157 C 210.124 -3.20032 -1.11503 0
M  V30 2158 C 209.297 -4.34792 -0.476955 0
M  V30 2159 C 208.356 -5.06534 -1.42513 0
M  V30 2160 O 207.382 -5.61538 -0.930771 0
M  V30 2161 N 208.584 -5.1075 -2.75889 0
M  V30 2162 H 211.349 -2.92029 0.673731 0
M  V30 2163 H 208.91 -1.53846 0.50427 0
M  V30 2164 H 210.902 -3.64892 -1.75032 0
M  V30 2165 H 209.472 -2.58658 -1.75541 0
M  V30 2166 H 208.692 -3.92752 0.337572 0
M  V30 2167 H 209.98 -5.0879 -0.0318525 0
M  V30 2168 H 209.378 -4.67447 -3.18606 0
M  V30 2169 H 207.935 -5.59302 -3.347 0
M  V30 2170 N 211.368 -0.403325 -1.52352 0
M  V30 2171 C 212.614 0.174605 -2.02047 0
M  V30 2172 C 212.947 1.45282 -1.28867 0
M  V30 2173 O 212.222 1.90483 -0.393257 0
M  V30 2174 C 212.505 0.428238 -3.57545 0
M  V30 2175 C 212.358 -0.866248 -4.4138 0
M  V30 2176 C 213.677 1.21287 -4.23057 0
M  V30 2177 H 210.796 0.0619851 -0.734389 0
M  V30 2178 H 213.438 -0.53565 -1.82293 0
M  V30 2179 H 211.588 1.03327 -3.74507 0
M  V30 2180 H 213.26 -1.50265 -4.3614 0
M  V30 2181 H 211.503 -1.47851 -4.07827 0
M  V30 2182 H 212.174 -0.643249 -5.48239 0
M  V30 2183 H 214.65 0.700703 -4.10158 0
M  V30 2184 H 213.526 1.35909 -5.31808 0
M  V30 2185 H 213.787 2.23193 -3.81625 0
M  V30 2186 N 212.846 1.57033 -0.133567 0
M  V30 2187 C 214.094 1.953 0.519848 0
M  V30 2188 C 214.415 1.01866 1.66278 0
M  V30 2189 O 213.685 0.0776513 1.95746 0
M  V30 2190 H 212.265 0.721091 0.195032 0
M  V30 2191 H 214.927 1.93809 -0.205921 0
M  V30 2192 H 214.023 2.98695 0.904854 0
M  V30 2193 N 214.325 -0.140222 1.56975 0
M  V30 2194 C 215.741 -0.493088 1.51792 0
M  V30 2195 C 215.941 -1.83013 0.843116 0
M  V30 2196 O 214.997 -2.49041 0.416493 0
M  V30 2197 C 216.31 -0.497144 2.96562 0
M  V30 2198 C 217.858 -0.582186 3.07538 0
M  V30 2199 C 218.333 -0.616838 4.53827 0
M  V30 2200 N 219.824 -0.678873 4.58198 0
M  V30 2201 C 220.559 -0.726782 5.68775 0
M  V30 2202 N 220.055 -0.733623 6.88905 0
M  V30 2203 N 221.848 -0.768179 5.56826 0
M  V30 2204 H 213.999 0.736108 1.99237 0
M  V30 2205 H 216.262 0.269182 0.90898 0
M  V30 2206 H 215.968 0.417217 3.49217 0
M  V30 2207 H 215.842 -1.33263 3.52875 0
M  V30 2208 H 218.229 -1.48697 2.54899 0
M  V30 2209 H 218.31 0.280581 2.54257 0
M  V30 2210 H 217.954 0.283812 5.07106 0
M  V30 2211 H 217.884 -1.49619 5.04898 0
M  V30 2212 H 220.375 -0.68061 3.7172 0
M  V30 2213 H 220.688 -0.772215 7.68932 0
M  V30 2214 H 219.033 -0.701389 6.91452 0
M  V30 2215 H 222.224 -0.760051 4.61888 0
M  V30 2216 H 222.397 -0.80205 6.43017 0
M  V30 2217 N 215.803 -1.52179 -0.40978 0
M  V30 2218 C 216.75 -1.75475 -1.49924 0
M  V30 2219 C 217.72 -0.597175 -1.54994 0
M  V30 2220 O 218.905 -0.834655 -1.71575 0
M  V30 2221 C 216.045 -1.9107 -2.87378 0
M  V30 2222 C 215.158 -3.18717 -2.91622 0
M  V30 2223 C 214.293 -3.24747 -4.20372 0
M  V30 2224 C 213.332 -4.46598 -4.18588 0
M  V30 2225 N 212.469 -4.50025 -5.38908 0
M  V30 2226 H 217.309 -2.68458 -1.29361 0
M  V30 2227 H 214.846 -1.33024 -0.627934 0
M  V30 2228 H 216.804 -1.98096 -3.6717 0
M  V30 2229 H 215.434 -1.01469 -3.06437 0
M  V30 2230 H 214.486 -3.20866 -2.04326 0
M  V30 2231 H 215.798 -4.08544 -2.86169 0
M  V30 2232 H 214.952 -3.30841 -5.08556 0
M  V30 2233 H 213.691 -2.32857 -4.28519 0
M  V30 2234 H 212.696 -4.40652 -3.28794 0
M  V30 2235 H 213.921 -5.39783 -4.12081 0
M  V30 2236 H 211.867 -3.61017 -5.47725 0
M  V30 2237 H 211.784 -5.33697 -5.35447 0
M  V30 2238 H 213.052 -4.60347 -6.29048 0
M  V30 2239 N 217.281 0.66697 -1.42791 0
M  V30 2240 C 218.211 1.79218 -1.49677 0
M  V30 2241 C 219.192 1.66405 -0.352623 0
M  V30 2242 O 220.377 1.85708 -0.567993 0
M  V30 2243 C 217.507 3.17565 -1.40605 0
M  V30 2244 C 216.461 3.45124 -2.53127 0
M  V30 2245 C 215.787 4.83127 -2.29112 0
M  V30 2246 C 217.087 3.41236 -3.95418 0
M  V30 2247 H 218.781 1.73713 -2.43853 0
M  V30 2248 H 216.327 0.83432 -1.17367 0
M  V30 2249 H 218.28 3.96022 -1.44029 0
M  V30 2250 H 217.004 3.23767 -0.429271 0
M  V30 2251 H 215.663 2.69031 -2.49034 0
M  V30 2252 H 215.311 4.85988 -1.29709 0
M  V30 2253 H 215.011 5.02528 -3.04531 0
M  V30 2254 H 216.535 5.63859 -2.34297 0
M  V30 2255 H 217.949 4.09651 -4.01073 0
M  V30 2256 H 216.346 3.72173 -4.70752 0
M  V30 2257 H 217.416 2.39665 -4.21532 0
M  V30 2258 N 218.759 1.29093 0.90403 0
M  V30 2259 C 219.722 1.1386 1.98919 0
M  V30 2260 C 220.722 0.0753457 1.60623 0
M  V30 2261 O 221.912 0.321931 1.71199 0
M  V30 2262 C 219.044 0.740198 3.32767 0
M  V30 2263 H 220.237 2.10246 2.13861 0
M  V30 2264 H 217.79 1.12218 1.08797 0
M  V30 2265 H 218.525 -0.223997 3.23525 0
M  V30 2266 H 218.31 1.50838 3.61926 0
M  V30 2267 H 219.8 0.656546 4.12407 0
M  V30 2268 N 220.237 -1.11381 1.11499 0
M  V30 2269 C 221.2 -2.15622 0.777153 0
M  V30 2270 C 222.2 -1.59504 -0.203779 0
M  V30 2271 O 223.39 -1.74188 0.020782 0
M  V30 2272 C 220.522 -3.40556 0.153116 0
M  V30 2273 H 221.715 -2.47021 1.70061 0
M  V30 2274 H 219.268 -1.26577 0.916952 0
M  V30 2275 H 220.003 -3.14767 -0.780536 0
M  V30 2276 H 219.788 -3.8257 0.859238 0
M  V30 2277 H 221.278 -4.17546 -0.0671044 0
M  V30 2278 N 221.715 -0.905404 -1.28997 0
M  V30 2279 C 222.645 -0.404212 -2.29975 0
M  V30 2280 C 223.626 0.523784 -1.61835 0
M  V30 2281 O 224.811 0.433298 -1.89304 0
M  V30 2282 C 221.941 0.364042 -3.45387 0
M  V30 2283 C 220.895 -0.474048 -4.25367 0
M  V30 2284 C 220.221 0.422045 -5.33032 0
M  V30 2285 C 221.521 -1.72696 -4.92923 0
M  V30 2286 H 223.215 -1.24807 -2.72146 0
M  V30 2287 H 220.761 -0.601585 -1.30832 0
M  V30 2288 H 222.714 0.725447 -4.15109 0
M  V30 2289 H 221.438 1.24174 -3.02074 0
M  V30 2290 H 220.097 -0.81786 -3.57361 0
M  V30 2291 H 219.745 1.29804 -4.85963 0
M  V30 2292 H 219.445 -0.135057 -5.87445 0
M  V30 2293 H 220.969 0.779517 -6.05604 0
M  V30 2294 H 222.383 -1.43495 -5.55051 0
M  V30 2295 H 220.78 -2.22582 -5.57295 0
M  V30 2296 H 221.85 -2.45964 -4.17887 0
M  V30 2297 N 223.193 1.4272 -0.668489 0
M  V30 2298 C 224.441 2.01226 -0.187769 0
M  V30 2299 C 224.762 1.53092 1.2078 0
M  V30 2300 O 224.032 0.74993 1.80977 0
M  V30 2301 H 222.612 0.744041 -0.0664272 0
M  V30 2302 H 225.274 1.74723 -0.863583 0
M  V30 2303 H 224.37 3.11556 -0.184166 0
M  V30 2304 N 224.671 0.411399 1.52136 0
M  V30 2305 C 225.919 -0.163322 2.01439 0
M  V30 2306 C 226.24 -1.45453 1.29879 0
M  V30 2307 O 225.51 -1.91225 0.4254 0
M  V30 2308 H 224.09 -0.0633447 0.744309 0
M  V30 2309 H 226.752 0.548161 1.87033 0
M  V30 2310 H 225.848 -0.357817 3.10042 0
M  V30 2311 N 226.149 -1.5696 0.141893 0
M  V30 2312 C 227.374 -2.00754 -0.520838 0
M  V30 2313 C 227.799 -1.0213 -1.57959 0
M  V30 2314 O 227.157 0.00371324 -1.813 0
M  V30 2315 C 227.205 -3.43318 -1.10294 0
M  V30 2316 O 226.309 -3.47679 -2.21795 0
M  V30 2317 H 225.65 -0.651564 -0.127908 0
M  V30 2318 H 228.18 -2.03221 0.23712 0
M  V30 2319 H 228.19 -3.82012 -1.43287 0
M  V30 2320 H 226.865 -4.14608 -0.327574 0
M  V30 2321 H 225.442 -3.20824 -1.9007 0
M  V30 2322 N 227.627 0.131896 -1.57047 0
M  V30 2323 C 229.038 0.690407 -1.73465 0
M  V30 2324 C 229.389 1.8094 -0.758629 0
M  V30 2325 O 228.514 2.16282 0.0713813 0
M  V30 2326 C 229.109 1.25916 -3.14532 0
M  V30 2327 C 227.668 1.76409 -3.32501 0
M  V30 2328 C 226.815 0.658579 -2.69366 0
M  V30 2329 H 229.766 -0.0939144 -1.58422 0
M  V30 2330 H 229.787 2.12892 -3.15369 0
M  V30 2331 H 229.299 0.444515 -3.85546 0
M  V30 2332 H 227.4 2.60391 -2.66509 0
M  V30 2333 H 227.513 1.88241 -4.4057 0
M  V30 2334 H 225.877 1.08899 -2.30246 0
M  V30 2335 H 226.66 -0.14487 -3.42994 0
M  V30 2336 N 229.106 1.52395 0.401703 0
M  V30 2337 C 230.016 1.7917 1.51444 0
M  V30 2338 C 231.032 0.677691 1.6026 0
M  V30 2339 O 232.208 0.963909 1.76835 0
M  V30 2340 C 229.273 1.94347 2.87107 0
M  V30 2341 C 228.334 3.18257 2.88116 0
M  V30 2342 C 227.567 3.32701 4.17308 0
M  V30 2343 O 227.79 2.52238 5.11598 0
M  V30 2344 O 226.724 4.25891 4.25324 0
M  V30 2345 H 230.55 2.73633 1.31752 0
M  V30 2346 H 228.135 1.3733 0.588296 0
M  V30 2347 H 230.017 2.06109 3.67555 0
M  V30 2348 H 228.692 1.03073 3.06851 0
M  V30 2349 H 227.599 3.11947 2.06494 0
M  V30 2350 H 228.932 4.09336 2.73322 0
M  V30 2351 N 230.584 -0.659388 1.43143 0
M  V30 2352 C 231.814 -1.44513 1.47646 0
M  V30 2353 C 232.222 -1.88981 0.0910095 0
M  V30 2354 O 231.565 -1.59702 -0.907789 0
M  V30 2355 C 231.627 -2.71663 2.35456 0
M  V30 2356 C 231.291 -2.49175 3.83094 0
M  V30 2357 C 232.288 -2.1279 4.74359 0
M  V30 2358 C 229.973 -2.63691 4.27519 0
M  V30 2359 C 231.967 -1.9121 6.08044 0
M  V30 2360 C 229.654 -2.41726 5.61259 0
M  V30 2361 C 230.652 -2.0554 6.51339 0
M  V30 2362 O 230.34 -1.838 7.82606 0
M  V30 2363 H 230.072 -0.45064 0.503884 0
M  V30 2364 H 232.626 -0.816248 1.88485 0
M  V30 2365 H 230.856 -3.37089 1.89493 0
M  V30 2366 H 232.545 -3.33595 2.31235 0
M  V30 2367 H 233.311 -2.01157 4.41317 0
M  V30 2368 H 229.19 -2.90832 3.57684 0
M  V30 2369 H 232.734 -1.62889 6.78316 0
M  V30 2370 H 228.631 -2.52959 5.9387 0
M  V30 2371 H 229.399 -1.98275 7.94122 0
M  V30 2372 N 232.062 -1.29571 -0.897171 0
M  V30 2373 C 233.478 -1.07637 -1.17841 0
M  V30 2374 C 233.678 0.170713 -2.00776 0
M  V30 2375 O 232.734 0.867768 -2.3712 0
M  V30 2376 C 234.047 -2.3332 -1.8969 0
M  V30 2377 C 235.595 -2.38664 -2.02505 0
M  V30 2378 C 236.07 -3.64157 -2.77765 0
M  V30 2379 N 237.561 -3.64894 -2.85318 0
M  V30 2380 C 238.296 -4.58679 -3.44094 0
M  V30 2381 N 237.792 -5.62799 -4.04017 0
M  V30 2382 N 239.585 -4.46245 -3.41793 0
M  V30 2383 H 231.736 -2.09598 -0.343883 0
M  V30 2384 H 233.999 -0.923333 -0.214848 0
M  V30 2385 H 233.705 -3.24262 -1.36187 0
M  V30 2386 H 233.579 -2.41025 -2.9015 0
M  V30 2387 H 235.966 -1.48208 -2.55183 0
M  V30 2388 H 236.047 -2.34943 -1.01171 0
M  V30 2389 H 235.691 -4.54965 -2.25763 0
M  V30 2390 H 235.621 -3.65137 -3.7945 0
M  V30 2391 H 238.112 -2.89613 -2.42761 0
M  V30 2392 H 238.425 -6.3048 -4.46895 0
M  V30 2393 H 236.77 -5.66605 -4.02472 0
M  V30 2394 H 239.961 -3.64094 -2.94199 0
M  V30 2395 H 240.134 -5.19518 -3.87304 0
M  V30 2396 N 233.54 1.10788 -1.12088 0
M  V30 2397 C 234.45 2.20599 -0.798338 0
M  V30 2398 C 235.466 1.72712 0.21135 0
M  V30 2399 O 236.642 2.01348 0.0458477 0
M  V30 2400 C 233.707 3.45771 -0.253674 0
M  V30 2401 C 232.768 4.08411 -1.32283 0
M  V30 2402 C 232.001 5.27608 -0.80406 0
M  V30 2403 O 232.224 5.69241 0.363478 0
M  V30 2404 O 231.158 5.8101 -1.57198 0
M  V30 2405 H 234.984 2.50614 -1.7154 0
M  V30 2406 H 232.569 1.19454 -0.897275 0
M  V30 2407 H 234.451 4.21376 0.0453691 0
M  V30 2408 H 233.126 3.1739 0.636005 0
M  V30 2409 H 232.033 3.34507 -1.67499 0
M  V30 2410 H 233.366 4.40986 -2.18614 0
M  V30 2411 N 235.018 0.912232 1.28515 0
M  V30 2412 C 236.266 0.543523 1.94654 0
M  V30 2413 C 236.587 -0.9155 1.72173 0
M  V30 2414 O 235.857 -1.64708 1.06058 0
M  V30 2415 H 234.437 0.198017 0.720277 0
M  V30 2416 H 237.099 1.16126 1.56527 0
M  V30 2417 H 236.195 0.736684 3.03281 0
M  V30 2418 N 236.496 -1.42363 0.676048 0
M  V30 2419 C 237.742 -2.0182 0.199125 0
M  V30 2420 C 238.075 -1.53339 -1.19168 0
M  V30 2421 O 237.35 -0.736124 -1.80032 0
M  V30 2422 C 237.633 -3.59331 0.235144 0
M  V30 2423 C 237.486 -4.17989 1.66149 0
M  V30 2424 C 238.805 -4.3813 -0.41595 0
M  V30 2425 H 235.924 -0.733293 0.0738311 0
M  V30 2426 H 238.566 -1.69368 0.86107 0
M  V30 2427 H 236.716 -3.87109 -0.328487 0
M  V30 2428 H 238.388 -4.0116 2.27747 0
M  V30 2429 H 236.631 -3.7377 2.20178 0
M  V30 2430 H 237.302 -5.27126 1.63837 0
M  V30 2431 H 239.778 -4.16051 0.0638529 0
M  V30 2432 H 238.654 -5.47717 -0.360115 0
M  V30 2433 H 238.915 -4.16101 -1.49373 0
M  V30 2434 N 237.974 -0.419461 -1.51915 0
M  V30 2435 C 239.22 0.153166 -2.02221 0
M  V30 2436 C 239.553 1.43907 -1.30401 0
M  V30 2437 O 238.828 1.90055 -0.413438 0
M  V30 2438 C 239.111 0.390291 -3.57979 0
M  V30 2439 C 238.964 -0.913014 -4.40436 0
M  V30 2440 C 240.283 1.16794 -4.2432 0
M  V30 2441 H 237.402 0.0541924 -0.735005 0
M  V30 2442 H 240.044 -0.554955 -1.81715 0
M  V30 2443 H 238.194 0.993491 -3.75582 0
M  V30 2444 H 239.866 -1.54882 -4.34522 0
M  V30 2445 H 238.109 -1.52168 -4.06236 0
M  V30 2446 H 238.78 -0.701361 -5.47526 0
M  V30 2447 H 241.256 0.657161 -4.10878 0
M  V30 2448 H 240.132 1.3026 -5.3322 0
M  V30 2449 H 240.393 2.19132 -3.83971 0
M  V30 2450 N 239.452 1.56882 -0.150215 0
M  V30 2451 C 240.68 2.00593 0.506948 0
M  V30 2452 C 241.095 1.03033 1.58208 0
M  V30 2453 O 240.452 0.0278396 1.82479 0
M  V30 2454 C 240.503 3.44209 1.10465 0
M  V30 2455 O 240.224 4.3804 0.0724636 0
M  V30 2456 C 241.725 4.03214 1.84211 0
M  V30 2457 H 238.945 0.65795 0.13169 0
M  V30 2458 H 241.489 2.03018 -0.245743 0
M  V30 2459 H 239.644 3.42625 1.80795 0
M  V30 2460 H 240.058 5.22007 0.510793 0
M  V30 2461 H 241.532 5.0569 2.21318 0
M  V30 2462 H 242.009 3.44107 2.72923 0
M  V30 2463 H 242.615 4.08437 1.18572 0
M  V30 2464 N 240.93 -0.123565 1.57115 0
M  V30 2465 C 242.207 -0.862196 1.75572 0
M  V30 2466 C 242.587 -1.98279 0.724475 0
M  V30 2467 O 241.935 -2.27102 -0.252407 0
M  V30 2468 C 242.145 -1.38309 3.20424 0
M  V30 2469 C 243.493 -1.83724 3.82793 0
M  V30 2470 O 244.517 -1.47999 3.23998 0
M  V30 2471 O 243.376 -2.49685 4.86127 0
M  V30 2472 H 240.47 -0.409113 0.718718 0
M  V30 2473 H 243.016 -0.107661 1.69358 0
M  V30 2474 H 241.788 -0.578889 3.86994 0
M  V30 2475 H 241.411 -2.20046 3.31158 0
M  V30 2476 N 242.408 -1.52605 -0.393616 0
M  V30 2477 C 243.356 -1.77688 -1.50099 0
M  V30 2478 C 244.35 -0.644615 -1.56656 0
M  V30 2479 O 245.556 -0.826997 -1.59877 0
M  V30 2480 H 241.931 -0.562159 -0.499481 0
M  V30 2481 H 243.902 -2.7043 -1.26135 0
M  V30 2482 C 242.651 -1.95858 -2.87289 0
M  V30 2483 H 241.974 -2.8241 -2.82992 0
M  V30 2484 H 243.414 -2.174 -3.64024 0
M  V30 2485 C 241.873 -0.729848 -3.28899 0
M  V30 2486 O 242.403 0.0949217 -4.01588 0
M  V30 2487 N 240.609 -0.561283 -2.85128 0
M  V30 2488 H 240.156 -1.23357 -2.26143 0
M  V30 2489 H 240.114 0.2595 -3.13327 0
M  V30 2490 N 243.887 0.651787 -1.4349 0
M  V30 2491 C 245.135 1.40888 -1.44897 0
M  V30 2492 C 245.456 1.94856 -0.0749086 0
M  V30 2493 O 244.726 1.74518 0.889956 0
M  V30 2494 H 243.306 0.522887 -0.533478 0
M  V30 2495 H 245.968 0.768609 -1.79104 0
M  V30 2496 H 245.064 2.25052 -2.16236 0
M  V30 2497 N 245.365 1.30045 0.890287 0
M  V30 2498 C 246.313 1.15873 2.01683 0
M  V30 2499 C 247.307 0.0719403 1.69247 0
M  V30 2500 O 248.513 0.232414 1.78493 0
M  V30 2501 H 244.888 0.358203 0.661207 0
M  V30 2502 H 246.859 2.11229 2.10772 0
M  V30 2503 C 245.608 0.861842 3.36849 0
M  V30 2504 H 244.931 1.69016 3.62317 0
M  V30 2505 H 246.371 0.802762 4.16331 0
M  V30 2506 C 244.83 -0.435132 3.34078 0
M  V30 2507 O 245.36 -1.4583 3.74295 0
M  V30 2508 N 243.566 -0.444377 2.87182 0
M  V30 2509 H 243.113 0.388723 2.5465 0
M  V30 2510 H 243.071 -1.31213 2.85711 0
M  V30 2511 N 246.843 -1.10192 1.12674 0
M  V30 2512 C 248.089 -1.82475 0.884915 0
M  V30 2513 C 248.422 -1.85093 -0.58773 0
M  V30 2514 O 247.697 -1.3134 -1.43457 0
M  V30 2515 C 247.98 -3.29018 1.46353 0
M  V30 2516 C 247.833 -3.34718 3.00473 0
M  V30 2517 C 249.152 -4.25473 1.12519 0
M  V30 2518 H 246.271 -0.662492 0.322915 0
M  V30 2519 H 248.913 -1.2913 1.39375 0
M  V30 2520 H 247.063 -3.74576 1.03077 0
M  V30 2521 H 248.735 -2.97622 3.52447 0
M  V30 2522 H 246.978 -2.74541 3.35872 0
M  V30 2523 H 247.649 -4.37918 3.36053 0
M  V30 2524 H 250.125 -3.88161 1.499 0
M  V30 2525 H 249.001 -5.26365 1.55663 0
M  V30 2526 H 249.262 -4.42084 0.0377407 0
M  V30 2527 N 248.321 -0.919034 -1.28029 0
M  V30 2528 C 249.57 -0.550802 -1.94034 0
M  V30 2529 C 249.883 0.910877 -1.73096 0
M  V30 2530 O 251.089 1.3875 -2.33368 0
M  V30 2531 C 249.545 -0.934249 -3.47563 0
M  V30 2532 C 249.153 -2.41602 -3.7727 0
M  V30 2533 C 250.897 -0.636854 -4.19696 0
M  V30 2534 C 248.804 -2.73932 -5.24133 0
M  V30 2535 H 247.734 -0.202273 -0.726362 0
M  V30 2536 H 250.385 -1.11867 -1.45458 0
M  V30 2537 H 248.767 -0.295115 -3.94899 0
M  V30 2538 H 249.941 -3.10233 -3.40723 0
M  V30 2539 H 248.256 -2.68441 -3.18321 0
M  V30 2540 H 250.853 -0.855005 -5.2782 0
M  V30 2541 H 251.196 0.425575 -4.14119 0
M  V30 2542 H 251.729 -1.23469 -3.78154 0
M  V30 2543 H 248.468 -3.79049 -5.34792 0
M  V30 2544 H 247.988 -2.09942 -5.61858 0
M  V30 2545 H 249.667 -2.61215 -5.91925 0
M  V30 2546 N 249.799 1.42003 -0.683588 0
M  V30 2547 C 250.729 2.33487 -0.024866 0
M  V30 2548 C 251.71 1.51163 0.779975 0
M  V30 2549 O 252.895 1.79739 0.735362 0
M  V30 2550 C 250.025 3.3487 0.920836 0
M  V30 2551 C 248.979 4.27414 0.223958 0
M  V30 2552 C 248.305 5.19074 1.2832 0
M  V30 2553 C 249.605 5.14445 -0.90242 0
M  V30 2554 H 251.299 2.88819 -0.788921 0
M  V30 2555 H 248.845 1.38873 -0.38083 0
M  V30 2556 H 250.798 3.97787 1.39081 0
M  V30 2557 H 249.522 2.77861 1.71642 0
M  V30 2558 H 248.181 3.65904 -0.225864 0
M  V30 2559 H 247.829 4.58387 2.071 0
M  V30 2560 H 247.529 5.81822 0.821995 0
M  V30 2561 H 249.053 5.84867 1.75392 0
M  V30 2562 H 250.467 5.70998 -0.513272 0
M  V30 2563 H 248.864 5.86072 -1.28997 0
M  V30 2564 H 249.934 4.52322 -1.74737 0
M  V30 2565 N 251.277 0.427512 1.51691 0
M  V30 2566 C 252.554 -0.201684 1.94557 0
M  V30 2567 C 252.934 -1.60981 1.36559 0
M  V30 2568 O 252.282 -2.21814 0.548702 0
M  V30 2569 C 252.492 -0.189394 3.48486 0
M  V30 2570 C 253.84 -0.39978 4.22714 0
M  V30 2571 O 254.864 -0.267945 3.55191 0
M  V30 2572 O 253.723 -0.661249 5.42485 0
M  V30 2573 H 250.817 -0.135261 0.815864 0
M  V30 2574 H 253.363 0.484782 1.62628 0
M  V30 2575 H 252.135 0.795431 3.8313 0
M  V30 2576 H 251.758 -0.919187 3.86829 0
M  V30 2577 N 252.755 -1.56801 0.158532 0
M  V30 2578 C 254.001 -1.96781 -0.490405 0
M  V30 2579 C 254.334 -1.04397 -1.63753 0
M  V30 2580 O 253.609 -0.0885805 -1.94298 0
M  V30 2581 C 253.892 -3.4635 -0.985594 0
M  V30 2582 C 253.745 -4.49512 0.160824 0
M  V30 2583 C 255.064 -3.98697 -1.86355 0
M  V30 2584 H 252.183 -0.715482 -0.176788 0
M  V30 2585 H 254.825 -1.88451 0.242088 0
M  V30 2586 H 252.975 -3.53579 -1.60978 0
M  V30 2587 H 254.647 -4.54353 0.797537 0
M  V30 2588 H 252.89 -4.26013 0.818256 0
M  V30 2589 H 253.561 -5.51531 -0.227569 0
M  V30 2590 H 256.037 -3.94019 -1.33746 0
M  V30 2591 H 254.913 -5.03792 -2.17909 0
M  V30 2592 H 255.174 -3.41744 -2.8047 0
M  V30 2593 N 254.233 0.115231 -1.57178 0
M  V30 2594 C 255.183 1.14707 -1.97044 0
M  V30 2595 C 256.167 1.36866 -0.845957 0
M  V30 2596 O 257.359 1.37895 -1.10968 0
M  V30 2597 C 254.488 2.47266 -2.38148 0
M  V30 2598 C 253.574 2.28566 -3.57237 0
M  V30 2599 N 253.965 1.79685 -4.72807 0
M  V30 2600 C 252.263 2.59208 -3.62943 0
M  V30 2601 C 252.964 1.74781 -5.54821 0
M  V30 2602 N 251.94 2.19264 -4.97417 0
M  V30 2603 H 255.742 0.761754 -2.83857 0
M  V30 2604 H 253.256 0.322928 -1.59157 0
M  V30 2605 H 255.253 3.219 -2.64927 0
M  V30 2606 H 253.913 2.86552 -1.52702 0
M  V30 2607 H 254.924 1.49177 -4.9595 0
M  V30 2608 H 251.601 3.02154 -2.88113 0
M  V30 2609 H 252.991 1.38212 -6.57531 0
M  V30 2610 N 255.711 1.52812 0.385517 0
M  V30 2611 C 256.659 1.78482 1.49155 0
M  V30 2612 C 257.653 0.652914 1.56312 0
M  V30 2613 O 258.859 0.835464 1.59436 0
M  V30 2614 H 255.234 0.5648 0.496493 0
M  V30 2615 H 257.205 2.71095 1.24699 0
M  V30 2616 C 255.954 1.97378 2.86247 0
M  V30 2617 H 255.277 2.83907 2.81491 0
M  V30 2618 H 256.717 2.19327 3.62866 0
M  V30 2619 C 255.176 0.74728 3.28508 0
M  V30 2620 O 255.706 -0.0736232 4.01633 0
M  V30 2621 N 253.912 0.576396 2.84826 0
M  V30 2622 H 253.459 1.24555 2.25486 0
M  V30 2623 H 253.417 -0.24288 3.1346 0
M  V30 2624 N 257.189 -0.644168 1.43834 0
M  V30 2625 C 258.436 -1.40395 1.4593 0
M  V30 2626 C 258.764 -1.94305 0.0869658 0
M  V30 2627 O 258.019 -1.73288 -0.909378 0
M  V30 2628 C 258.318 -2.59615 2.45631 0
M  V30 2629 C 257.984 -2.2407 3.91284 0
M  V30 2630 C 256.646 -2.14089 4.30952 0
M  V30 2631 C 258.998 -1.95775 4.83034 0
M  V30 2632 C 256.326 -1.73981 5.6031 0
M  V30 2633 C 258.678 -1.57163 6.12766 0
M  V30 2634 C 257.342 -1.45713 6.51402 0
M  V30 2635 H 256.612 -0.513741 0.533995 0
M  V30 2636 H 259.259 -0.731724 1.76969 0
M  V30 2637 H 257.564 -3.32011 2.08028 0
M  V30 2638 H 259.261 -3.17834 2.44504 0
M  V30 2639 H 255.851 -2.32753 3.59895 0
M  V30 2640 H 260.035 -2.02403 4.53152 0
M  V30 2641 H 255.291 -1.63709 5.89075 0
M  V30 2642 H 259.465 -1.34303 6.83327 0
M  V30 2643 H 257.092 -1.14406 7.51542 0
M  V30 2644 N 258.668 -1.30515 -0.883378 0
M  V30 2645 C 259.893 -1.22487 -1.67367 0
M  V30 2646 C 260.318 0.208767 -1.86938 0
M  V30 2647 O 259.676 1.15015 -1.40148 0
M  V30 2648 C 259.724 -1.96041 -3.02655 0
M  V30 2649 O 258.828 -1.28859 -3.91751 0
M  V30 2650 H 258.169 -0.423573 -0.511353 0
M  V30 2651 H 260.699 -1.72362 -1.10239 0
M  V30 2652 H 260.709 -2.05124 -3.52687 0
M  V30 2653 H 259.384 -3.00307 -2.8773 0
M  V30 2654 H 257.961 -1.28141 -3.50192 0
M  V30 2655 N 260.146 1.09593 -1.13257 0
M  V30 2656 C 261.395 1.81105 -0.887917 0
M  V30 2657 C 261.708 1.86563 0.587672 0
M  V30 2658 O 262.914 2.54367 0.949204 0
M  V30 2659 C 261.37 3.25338 -1.53895 0
M  V30 2660 C 260.978 3.28151 -3.04994 0
M  V30 2661 C 262.722 4.01617 -1.37492 0
M  V30 2662 C 260.629 4.66897 -3.6299 0
M  V30 2663 H 259.559 0.678661 -0.328534 0
M  V30 2664 H 262.21 1.23183 -1.36008 0
M  V30 2665 H 260.592 3.8331 -0.994446 0
M  V30 2666 H 261.766 2.79953 -3.66009 0
M  V30 2667 H 260.081 2.65361 -3.20893 0
M  V30 2668 H 262.678 5.04119 -1.78235 0
M  V30 2669 H 263.021 4.15072 -0.31957 0
M  V30 2670 H 263.554 3.50082 -1.88912 0
M  V30 2671 H 260.293 4.58643 -4.68323 0
M  V30 2672 H 259.813 5.15426 -3.06752 0
M  V30 2673 H 261.492 5.3587 -3.62563 0
M  V30 2674 N 261.624 0.925811 1.2754 0
M  V30 2675 C 262.554 0.440748 2.29303 0
M  V30 2676 C 263.535 -0.497971 1.62648 0
M  V30 2677 O 264.72 -0.403126 1.8997 0
M  V30 2678 C 261.85 -0.309048 3.45922 0
M  V30 2679 C 260.804 0.54166 4.24559 0
M  V30 2680 C 260.13 -0.337191 5.33636 0
M  V30 2681 C 261.43 1.80516 4.90114 0
M  V30 2682 H 263.124 1.29121 2.70126 0
M  V30 2683 H 260.67 0.622323 1.29858 0
M  V30 2684 H 262.623 -0.659315 4.1621 0
M  V30 2685 H 261.347 -1.19352 3.04011 0
M  V30 2686 H 260.006 0.874609 3.56014 0
M  V30 2687 H 259.654 -1.22056 4.87966 0
M  V30 2688 H 259.354 0.228497 5.87156 0
M  V30 2689 H 260.878 -0.683072 6.06767 0
M  V30 2690 H 262.292 1.52307 5.52698 0
M  V30 2691 H 260.689 2.3142 5.53683 0
M  V30 2692 H 261.759 2.52581 4.13921 0
M  V30 2693 N 263.102 -1.41638 0.69111 0
M  V30 2694 C 264.05 -2.32597 0.0115199 0
M  V30 2695 C 265.044 -1.5072 -0.773296 0
M  V30 2696 O 266.25 -1.66685 -0.67942 0
M  V30 2697 H 262.625 -0.751849 -0.0150746 0
M  V30 2698 H 264.596 -2.87593 0.795791 0
M  V30 2699 C 263.345 -3.35467 -0.914172 0
M  V30 2700 H 262.668 -3.9852 -0.319687 0
M  V30 2701 H 264.108 -4.01662 -1.35808 0
M  V30 2702 C 262.567 -2.69004 -2.02826 0
M  V30 2703 O 263.097 -2.53444 -3.11655 0
M  V30 2704 N 261.303 -2.2777 -1.80469 0
M  V30 2705 H 260.85 -2.40626 -0.919615 0
M  V30 2706 H 260.808 -1.83635 -2.55197 0
M  V30 2707 N 264.58 -0.43555 -1.51462 0
M  V30 2708 C 265.991 0.0279871 -1.86679 0
M  V30 2709 C 266.342 1.42104 -1.35281 0
M  V30 2710 O 265.467 2.04667 -0.702878 0
M  V30 2711 C 266.062 0.0575626 -3.38751 0
M  V30 2712 C 264.621 0.465507 -3.7351 0
M  V30 2713 C 263.768 -0.342996 -2.75171 0
M  V30 2714 H 266.719 -0.651473 -1.44712 0
M  V30 2715 H 266.74 0.867421 -3.70481 0
M  V30 2716 H 266.252 -0.956448 -3.7613 0
M  V30 2717 H 264.353 1.48519 -3.41721 0
M  V30 2718 H 264.466 0.191546 -4.78717 0
M  V30 2719 H 262.83 0.198442 -2.53926 0
M  V30 2720 H 263.613 -1.35585 -3.15391 0
M  V30 2721 N 266.058 1.56714 -0.166846 0
M  V30 2722 C 267.304 1.97039 0.479962 0
M  V30 2723 C 267.637 1.05264 1.63197 0
M  V30 2724 O 266.912 0.0988833 1.94248 0
M  V30 2725 C 267.195 3.46867 0.967212 0
M  V30 2726 C 267.048 4.49421 -0.18466 0
M  V30 2727 C 268.367 3.9968 1.84238 0
M  V30 2728 H 265.486 0.71641 0.172992 0
M  V30 2729 H 268.128 1.8832 -0.252079 0
M  V30 2730 H 266.278 3.54428 1.59101 0
M  V30 2731 H 267.95 4.53924 -0.821621 0
M  V30 2732 H 266.193 4.25573 -0.840837 0
M  V30 2733 H 266.864 5.51644 0.198317 0
M  V30 2734 H 269.34 3.94723 1.31655 0
M  V30 2735 H 268.216 5.04941 2.15234 0
M  V30 2736 H 268.477 3.43226 2.78654 0
M  V30 2737 N 267.536 -0.106894 1.57237 0
M  V30 2738 C 268.446 -1.14911 2.0453 0
M  V30 2739 C 269.462 -1.44592 0.96795 0
M  V30 2740 O 270.638 -1.55468 1.2803 0
M  V30 2741 C 267.703 -2.45272 2.45036 0
M  V30 2742 C 266.764 -2.22879 3.66911 0
M  V30 2743 C 265.997 -3.47024 4.05475 0
M  V30 2744 O 266.22 -4.54804 3.44252 0
M  V30 2745 O 265.154 -3.3731 4.98504 0
M  V30 2746 H 268.98 -0.777461 2.9358 0
M  V30 2747 H 266.565 -0.318563 1.45964 0
M  V30 2748 H 268.447 -3.22055 2.71769 0
M  V30 2749 H 267.122 -2.81886 1.59129 0
M  V30 2750 H 266.029 -1.43915 3.45311 0
M  V30 2751 H 267.362 -1.91163 4.53561 0
M  V30 2752 N 269.014 -1.53014 -0.377408 0
M  V30 2753 C 270.263 -1.67845 -1.11853 0
M  V30 2754 C 270.576 -0.430625 -1.90801 0
M  V30 2755 O 271.782 -0.459261 -2.67587 0
M  V30 2756 C 270.238 -2.96668 -2.03756 0
M  V30 2757 C 269.846 -4.28671 -1.30175 0
M  V30 2758 C 271.59 -3.20865 -2.77932 0
M  V30 2759 C 269.497 -5.48591 -2.20911 0
M  V30 2760 H 268.427 -0.625343 -0.421263 0
M  V30 2761 H 271.078 -1.79514 -0.380409 0
M  V30 2762 H 269.46 -2.78773 -2.8125 0
M  V30 2763 H 270.634 -4.57157 -0.578259 0
M  V30 2764 H 268.949 -4.10825 -0.679108 0
M  V30 2765 H 271.546 -4.07642 -3.46024 0
M  V30 2766 H 271.889 -2.36424 -3.4265 0
M  V30 2767 H 272.422 -3.39379 -2.07525 0
M  V30 2768 H 269.161 -6.35474 -1.6079 0
M  V30 2769 H 268.681 -5.244 -2.91144 0
M  V30 2770 H 270.36 -5.8292 -2.80736 0
M  V30 2771 N 270.492 0.636531 -1.44174 0
M  V30 2772 C 271.402 1.77754 -1.53103 0
M  V30 2773 C 272.418 1.68928 -0.417034 0
M  V30 2774 O 273.594 1.89801 -0.6736 0
M  V30 2775 C 270.659 3.14115 -1.46741 0
M  V30 2776 C 269.72 3.34612 -2.68948 0
M  V30 2777 C 268.953 4.64467 -2.6288 0
M  V30 2778 O 269.176 5.44919 -1.68581 0
M  V30 2779 O 268.11 4.87049 -3.53648 0
M  V30 2780 H 271.936 1.73174 -2.49489 0
M  V30 2781 H 269.521 0.79709 -1.2636 0
M  V30 2782 H 271.403 3.95412 -1.45696 0
M  V30 2783 H 270.078 3.19249 -0.534975 0
M  V30 2784 H 268.985 2.53014 -2.75562 0
M  V30 2785 H 270.318 3.34336 -3.61221 0
M  V30 2786 N 271.97 1.30982 0.876444 0
M  V30 2787 C 272.917 1.18085 1.98304 0
M  V30 2788 C 273.887 0.0682263 1.6596 0
M  V30 2789 O 275.072 0.239937 1.89285 0
M  V30 2790 C 272.212 0.887475 3.33493 0
M  V30 2791 C 271.325 2.08281 3.78475 0
M  V30 2792 C 270.46 1.72678 5.0235 0
M  V30 2793 C 269.499 2.88657 5.39762 0
M  V30 2794 N 268.636 2.53292 6.54819 0
M  V30 2795 H 273.476 2.1275 2.08666 0
M  V30 2796 H 271.013 1.05839 1.02159 0
M  V30 2797 H 272.971 0.697961 4.1132 0
M  V30 2798 H 271.601 -0.022315 3.22792 0
M  V30 2799 H 270.653 2.3833 2.96484 0
M  V30 2800 H 271.965 2.95108 4.02135 0
M  V30 2801 H 271.119 1.50151 5.87826 0
M  V30 2802 H 269.858 0.830327 4.8058 0
M  V30 2803 H 268.863 3.1184 4.52809 0
M  V30 2804 H 270.088 3.79002 5.63502 0
M  V30 2805 H 268.034 1.66163 6.34607 0
M  V30 2806 H 267.951 3.3365 6.7839 0
M  V30 2807 H 269.219 2.34143 7.43503 0
M  V30 2808 N 273.449 -1.08991 1.13837 0
M  V30 2809 C 274.359 -2.19301 0.833333 0
M  V30 2810 C 275.375 -1.73026 -0.183847 0
M  V30 2811 O 276.551 -2.01395 -0.0138092 0
M  V30 2812 C 273.616 -3.45323 0.308651 0
M  V30 2813 C 272.677 -4.06255 1.38764 0
M  V30 2814 C 271.91 -5.26262 0.887896 0
M  V30 2815 O 272.133 -5.69747 -0.27287 0
M  V30 2816 O 271.067 -5.78435 1.66421 0
M  V30 2817 H 274.893 -2.47854 1.75506 0
M  V30 2818 H 272.478 -1.18012 0.916166 0
M  V30 2819 H 274.36 -4.21394 0.0216739 0
M  V30 2820 H 273.035 -3.18362 -0.585431 0
M  V30 2821 H 271.942 -3.318 1.72799 0
M  V30 2822 H 273.275 -4.37452 2.25602 0
M  V30 2823 N 274.927 -0.932562 -1.27047 0
M  V30 2824 C 275.857 -0.452902 -2.29066 0
M  V30 2825 C 276.838 0.489338 -1.62909 0
M  V30 2826 O 278.023 0.393046 -1.90181 0
M  V30 2827 C 275.153 0.290698 -3.46081 0
M  V30 2828 C 274.107 -0.564168 -4.24265 0
M  V30 2829 C 273.433 0.308886 -5.33807 0
M  V30 2830 C 274.733 -1.83112 -4.89149 0
M  V30 2831 H 276.427 -1.30552 -2.69437 0
M  V30 2832 H 273.973 -0.629201 -1.29526 0
M  V30 2833 H 275.926 0.637233 -4.16554 0
M  V30 2834 H 274.65 1.17738 -3.0464 0
M  V30 2835 H 273.309 -0.893477 -3.55545 0
M  V30 2836 H 272.957 1.19467 -4.88607 0
M  V30 2837 H 272.657 -0.259633 -5.87026 0
M  V30 2838 H 274.181 0.650884 -6.07121 0
M  V30 2839 H 275.595 -1.55236 -5.51883 0
M  V30 2840 H 273.992 -2.34353 -5.52448 0
M  V30 2841 H 275.062 -2.54772 -4.12576 0
M  V30 2842 N 276.405 1.4127 -0.698611 0
M  V30 2843 C 277.353 2.32588 -0.023855 0
M  V30 2844 C 278.347 1.51128 0.765292 0
M  V30 2845 O 279.553 1.67043 0.670571 0
M  V30 2846 H 275.928 0.751918 0.0110871 0
M  V30 2847 H 277.899 2.87167 -0.811031 0
M  V30 2848 C 276.648 3.35947 0.896369 0
M  V30 2849 H 275.971 3.98684 0.298548 0
M  V30 2850 H 277.411 4.02376 1.33676 0
M  V30 2851 C 275.87 2.70076 2.01396 0
M  V30 2852 O 276.4 2.55093 3.10307 0
M  V30 2853 N 274.606 2.28724 1.79259 0
M  V30 2854 H 274.153 2.4111 0.906841 0
M  V30 2855 H 274.111 1.84986 2.54219 0
M  V30 2856 N 277.883 0.443576 1.51229 0
M  V30 2857 C 278.831 -0.37904 2.29491 0
M  V30 2858 C 279.825 -1.0153 1.35603 0
M  V30 2859 O 281.031 -0.94955 1.52917 0
M  V30 2860 H 277.406 -0.141053 0.738653 0
M  V30 2861 H 279.377 0.301799 2.9687 0
M  V30 2862 C 278.126 -1.46426 3.15364 0
M  V30 2863 H 277.449 -0.984037 3.87501 0
M  V30 2864 H 278.889 -2.01297 3.7317 0
M  V30 2865 C 277.348 -2.45099 2.31146 0
M  V30 2866 O 277.878 -3.49773 1.9754 0
M  V30 2867 N 276.084 -2.16139 1.94249 0
M  V30 2868 H 275.631 -1.31044 2.21777 0
M  V30 2869 H 275.589 -2.82398 1.38198 0
M  V30 2870 N 279.361 -1.56624 0.175154 0
M  V30 2871 C 280.607 -1.9729 -0.469506 0
M  V30 2872 C 280.94 -1.06128 -1.62636 0
M  V30 2873 O 280.215 -0.109183 -1.94193 0
M  V30 2874 C 280.498 -3.47375 -0.948804 0
M  V30 2875 C 280.351 -4.49317 0.208491 0
M  V30 2876 C 281.67 -4.00652 -1.82116 0
M  V30 2877 H 278.789 -0.717317 -0.16919 0
M  V30 2878 H 281.431 -1.88184 0.262062 0
M  V30 2879 H 279.581 -3.55267 -1.57219 0
M  V30 2880 H 281.253 -4.53482 0.845682 0
M  V30 2881 H 279.496 -4.25121 0.863395 0
M  V30 2882 H 280.167 -5.51741 -0.169059 0
M  V30 2883 H 282.643 -3.95416 -1.2956 0
M  V30 2884 H 281.519 -5.06075 -2.12554 0
M  V30 2885 H 281.78 -3.44699 -2.7683 0
M  V30 2886 N 280.839 0.0985539 -1.57292 0
M  V30 2887 C 281.802 1.10402 -2.00858 0
M  V30 2888 C 282.802 1.33146 -0.901593 0
M  V30 2889 O 283.992 1.29318 -1.16716 0
M  V30 2890 C 281.124 2.45394 -2.36632 0
M  V30 2891 H 282.317 0.729099 -2.90902 0
M  V30 2892 H 279.87 0.343495 -1.52479 0
M  V30 2893 H 280.605 2.87769 -1.49531 0
M  V30 2894 H 280.39 2.30235 -3.17387 0
M  V30 2895 H 281.88 3.17718 -2.71007 0
M  V30 2896 N 282.317 1.53212 0.369288 0
M  V30 2897 C 283.565 1.68881 1.11012 0
M  V30 2898 C 283.886 0.441285 1.89941 0
M  V30 2899 O 283.156 -0.544623 1.88177 0
M  V30 2900 H 281.736 0.622569 0.412816 0
M  V30 2901 H 284.398 1.90391 0.416802 0
M  V30 2902 H 283.494 2.54822 1.80201 0
M  V30 2903 N 283.795 -0.628877 1.44509 0
M  V30 2904 C 285.041 -1.39045 1.47629 0
M  V30 2905 C 285.374 -1.93892 0.109343 0
M  V30 2906 O 284.649 -1.7379 -0.87334 0
M  V30 2907 C 284.932 -2.55408 2.53848 0
M  V30 2908 C 284.785 -2.05896 3.99909 0
M  V30 2909 C 286.104 -3.5759 2.56549 0
M  V30 2910 H 283.223 -0.504232 0.537512 0
M  V30 2911 H 285.865 -0.710854 1.76201 0
M  V30 2912 H 284.015 -3.13384 2.29615 0
M  V30 2913 H 285.687 -1.52734 4.35282 0
M  V30 2914 H 283.93 -1.37061 4.11578 0
M  V30 2915 H 284.601 -2.89681 4.69882 0
M  V30 2916 H 287.077 -3.09419 2.78207 0
M  V30 2917 H 285.953 -4.36527 3.32769 0
M  V30 2918 H 286.214 -4.11808 1.60832 0
M  V30 2919 N 285.273 -1.31445 -0.869486 0
M  V30 2920 C 286.519 -1.21337 -1.62496 0
M  V30 2921 C 286.852 0.227872 -1.92858 0
M  V30 2922 O 286.127 1.16094 -1.56053 0
M  V30 2923 C 286.41 -2.05814 -2.95487 0
M  V30 2924 C 286.263 -3.5824 -2.72 0
M  V30 2925 C 287.582 -1.9079 -3.96594 0
M  V30 2926 H 284.701 -0.442135 -0.589649 0
M  V30 2927 H 287.343 -1.6124 -1.00507 0
M  V30 2928 H 285.493 -1.71913 -3.48394 0
M  V30 2929 H 287.165 -4.0228 -2.25762 0
M  V30 2930 H 285.408 -3.81647 -2.06224 0
M  V30 2931 H 286.079 -4.12657 -3.66631 0
M  V30 2932 H 288.555 -2.20459 -3.52898 0
M  V30 2933 H 287.431 -2.52199 -4.87531 0
M  V30 2934 H 287.692 -0.871341 -4.33428 0
M  V30 2935 N 286.751 1.08385 -1.14413 0
M  V30 2936 C 287.979 1.84517 -0.936001 0
M  V30 2937 C 288.394 1.81626 0.515503 0
M  V30 2938 O 287.751 1.22008 1.35721 0
M  V30 2939 C 287.802 3.32049 -1.42918 0
M  V30 2940 O 287.523 3.34951 -2.82381 0
M  V30 2941 C 289.024 4.24986 -1.26103 0
M  V30 2942 H 286.244 0.582491 -0.333084 0
M  V30 2943 H 288.788 1.36885 -1.5193 0
M  V30 2944 H 286.943 3.7707 -0.888641 0
M  V30 2945 H 287.357 4.27048 -3.04517 0
M  V30 2946 H 288.831 5.26615 -1.6547 0
M  V30 2947 H 289.308 4.38726 -0.20392 0
M  V30 2948 H 289.914 3.85791 -1.79012 0
M  V30 2949 N 288.23 0.939286 1.26551 0
M  V30 2950 C 289.178 0.43815 2.28436 0
M  V30 2951 C 290.172 -0.483587 1.62351 0
M  V30 2952 O 291.378 -0.362009 1.76322 0
M  V30 2953 H 287.753 0.123149 0.741848 0
M  V30 2954 H 289.724 1.31002 2.68106 0
M  V30 2955 C 288.473 -0.283052 3.46546 0
M  V30 2956 H 287.796 0.417043 3.97619 0
M  V30 2957 H 289.236 -0.597948 4.19763 0
M  V30 2958 C 287.695 -1.50018 3.01656 0
M  V30 2959 O 288.225 -2.59855 3.0633 0
M  V30 2960 N 286.431 -1.35608 2.57019 0
M  V30 2961 H 285.978 -0.46244 2.53415 0
M  V30 2962 H 285.936 -2.17165 2.27347 0
M  V30 2963 N 289.708 -1.40897 0.706093 0
M  V30 2964 C 290.956 -2.00657 0.241054 0
M  V30 2965 C 291.277 -1.56241 -1.16678 0
M  V30 2966 O 290.547 -0.79765 -1.78926 0
M  V30 2967 H 289.127 -0.742018 0.0861308 0
M  V30 2968 H 291.789 -1.72372 0.909604 0
M  V30 2969 H 290.885 -3.10958 0.266705 0
M  V30 2970 N 291.186 -0.45159 -1.50991 0
M  V30 2971 C 292.435 0.111653 -2.01391 0
M  V30 2972 C 292.748 1.42529 -1.33959 0
M  V30 2973 O 293.954 2.07232 -1.75405 0
M  V30 2974 C 292.41 0.249514 -3.59034 0
M  V30 2975 C 292.018 -1.05453 -4.35412 0
M  V30 2976 C 293.762 0.765762 -4.17536 0
M  V30 2977 C 291.669 -0.881529 -5.84793 0
M  V30 2978 H 290.599 0.0455022 -0.752626 0
M  V30 2979 H 293.25 -0.583524 -1.73975 0
M  V30 2980 H 291.632 1.00803 -3.82955 0
M  V30 2981 H 292.806 -1.82248 -4.23229 0
M  V30 2982 H 291.121 -1.50039 -3.88429 0
M  V30 2983 H 293.718 0.911913 -5.26866 0
M  V30 2984 H 294.061 1.75201 -3.77638 0
M  V30 2985 H 294.594 0.0651744 -3.97747 0
M  V30 2986 H 291.333 -1.84057 -6.29129 0
M  V30 2987 H 290.853 -0.153625 -5.99603 0
M  V30 2988 H 292.532 -0.540363 -6.4474 0
M  V30 2989 N 292.664 1.56529 -0.183458 0
M  V30 2990 C 293.911 1.97244 0.458357 0
M  V30 2991 C 294.239 1.06992 1.62428 0
M  V30 2992 O 293.494 0.106542 1.9541 0
M  V30 2993 C 293.793 3.43939 0.971637 0
M  V30 2994 C 293.459 4.5083 -0.0796784 0
M  V30 2995 C 292.121 4.79786 -0.368584 0
M  V30 2996 C 294.473 5.15138 -0.792638 0
M  V30 2997 C 291.801 5.70345 -1.37563 0
M  V30 2998 C 294.153 6.06784 -1.78875 0
M  V30 2999 C 292.817 6.34102 -2.08497 0
M  V30 3000 H 292.087 0.721768 0.167725 0
M  V30 3001 H 294.734 1.89472 -0.277976 0
M  V30 3002 H 293.039 3.48724 1.78602 0
M  V30 3003 H 294.736 3.72791 1.47744 0
M  V30 3004 H 291.326 4.28317 0.155668 0
M  V30 3005 H 295.51 4.92868 -0.582659 0
M  V30 3006 H 290.766 5.89789 -1.61118 0
M  V30 3007 H 294.94 6.55677 -2.3465 0
M  V30 3008 H 292.567 7.04074 -2.86678 0
M  V30 3009 N 294.142 -0.090211 1.57342 0
M  V30 3010 C 295.105 -1.09335 2.01441 0
M  V30 3011 C 296.105 -1.32666 0.908641 0
M  V30 3012 O 297.295 -1.28697 1.174 0
M  V30 3013 C 294.427 -2.44136 2.3793 0
M  V30 3014 H 295.62 -0.713662 2.91285 0
M  V30 3015 H 293.173 -0.335404 1.52659 0
M  V30 3016 H 293.908 -2.86972 1.51055 0
M  V30 3017 H 293.693 -2.28548 3.18603 0
M  V30 3018 H 295.183 -3.16277 2.72688 0
M  V30 3019 N 295.62 -1.53406 -0.361157 0
M  V30 3020 C 296.55 -1.83136 -1.44857 0
M  V30 3021 C 297.531 -0.685174 -1.5569 0
M  V30 3022 O 298.716 -0.93544 -1.70186 0
M  V30 3023 C 295.846 -2.02522 -2.82138 0
M  V30 3024 C 294.8 -3.18302 -2.86126 0
M  V30 3025 C 294.126 -3.22989 -4.26125 0
M  V30 3026 C 295.426 -4.56796 -2.53248 0
M  V30 3027 H 297.12 -2.74201 -1.20226 0
M  V30 3028 H 294.666 -1.31938 -0.576922 0
M  V30 3029 H 296.619 -2.21904 -3.58241 0
M  V30 3030 H 295.343 -1.08172 -3.08166 0
M  V30 3031 H 294.002 -2.98747 -2.12475 0
M  V30 3032 H 293.65 -2.26267 -4.49235 0
M  V30 3033 H 293.35 -4.00781 -4.29708 0
M  V30 3034 H 294.874 -3.44559 -5.04094 0
M  V30 3035 H 296.288 -4.7631 -3.19064 0
M  V30 3036 H 294.685 -5.36862 -2.68141 0
M  V30 3037 H 295.755 -4.61606 -1.48484 0
M  V30 3038 N 297.098 0.621204 -1.44841 0
M  V30 3039 C 298.514 0.94048 -1.28946 0
M  V30 3040 C 298.714 2.00154 -0.23249 0
M  V30 3041 O 297.77 2.49651 0.378237 0
M  V30 3042 C 299.083 1.39433 -2.66419 0
M  V30 3043 C 300.631 1.50927 -2.74208 0
M  V30 3044 C 301.106 1.99692 -4.12174 0
M  V30 3045 N 302.597 2.06947 -4.144 0
M  V30 3046 C 303.332 2.45871 -5.1801 0
M  V30 3047 N 302.828 2.83862 -6.31977 0
M  V30 3048 N 304.621 2.46092 -5.05366 0
M  V30 3049 H 296.772 -0.0803548 -2.12248 0
M  V30 3050 H 299.035 0.0266913 -0.947624 0
M  V30 3051 H 298.741 0.688925 -3.44887 0
M  V30 3052 H 298.615 2.36347 -2.93973 0
M  V30 3053 H 301.002 2.20561 -1.96053 0
M  V30 3054 H 301.083 0.523627 -2.50383 0
M  V30 3055 H 300.727 1.30649 -4.90809 0
M  V30 3056 H 300.657 2.99146 -4.33381 0
M  V30 3057 H 303.148 1.80232 -3.32152 0
M  V30 3058 H 303.461 3.12405 -7.0684 0
M  V30 3059 H 301.806 2.8159 -6.35399 0
M  V30 3060 H 304.997 2.1581 -4.15384 0
M  V30 3061 H 305.17 2.76102 -5.86235 0
M  V30 3062 N 298.576 1.31904 0.862503 0
M  V30 3063 C 299.824 1.21776 1.61292 0
M  V30 3064 C 300.145 -0.222413 1.93727 0
M  V30 3065 O 299.415 -1.1451 1.58947 0
M  V30 3066 H 297.995 0.447717 0.597962 0
M  V30 3067 H 300.657 1.65326 1.03215 0
M  V30 3068 H 299.753 1.7948 2.5533 0
M  V30 3069 N 300.054 -1.07777 1.14986 0
M  V30 3070 C 301.017 -2.13041 0.845358 0
M  V30 3071 C 302.017 -1.60071 -0.152931 0
M  V30 3072 O 303.207 -1.74033 0.0761879 0
M  V30 3073 C 300.339 -3.39896 0.261383 0
M  V30 3074 H 301.532 -2.41485 1.77834 0
M  V30 3075 H 299.085 -1.23595 0.956757 0
M  V30 3076 H 299.82 -3.17091 -0.68 0
M  V30 3077 H 299.605 -3.79642 0.980514 0
M  V30 3078 H 301.095 -4.17548 0.0657687 0
M  V30 3079 N 301.532 -0.945985 -1.26051 0
M  V30 3080 C 302.809 -0.513816 -1.88731 0
M  V30 3081 C 303.189 1.00872 -1.8544 0
M  V30 3082 O 302.537 1.8708 -1.312 0
M  V30 3083 C 302.747 -1.08062 -3.31849 0
M  V30 3084 C 304.095 -1.1522 -4.08668 0
M  V30 3085 O 305.119 -1.03155 -3.40936 0
M  V30 3086 O 303.978 -1.34044 -5.29806 0
M  V30 3087 H 301.072 -0.168193 -0.809716 0
M  V30 3088 H 303.618 -1.03886 -1.34186 0
M  V30 3089 H 302.39 -2.1241 -3.2863 0
M  V30 3090 H 302.013 -0.538307 -3.93939 0
M  V30 3091 N 303.011 1.40521 -0.713556 0
M  V30 3092 C 304.257 2.01221 -0.252564 0
M  V30 3093 C 304.59 1.56444 1.1506 0
M  V30 3094 O 303.865 0.783597 1.78017 0
M  V30 3095 C 304.148 3.58582 -0.330332 0
M  V30 3096 C 304.001 4.13437 -1.77173 0
M  V30 3097 C 305.32 4.39079 0.299641 0
M  V30 3098 H 302.439 0.731077 -0.0932471 0
M  V30 3099 H 305.081 1.67026 -0.905673 0
M  V30 3100 H 303.231 3.87844 0.225737 0
M  V30 3101 H 304.903 3.9498 -2.38303 0
M  V30 3102 H 303.146 3.67801 -2.3001 0
M  V30 3103 H 303.817 5.22597 -1.77755 0
M  V30 3104 H 306.293 4.15735 -0.174139 0
M  V30 3105 H 305.169 5.4848 0.214771 0
M  V30 3106 H 305.43 4.19915 1.38288 0
M  V30 3107 N 304.489 0.459591 1.5075 0
M  V30 3108 C 305.735 -0.0994966 2.02556 0
M  V30 3109 C 306.068 -1.40399 1.3417 0
M  V30 3110 O 305.343 -1.88892 0.463683 0
M  V30 3111 C 305.626 -0.295242 3.58888 0
M  V30 3112 C 305.479 1.02947 4.37861 0
M  V30 3113 C 306.798 -1.05502 4.27267 0
M  V30 3114 H 303.917 -0.034686 0.736183 0
M  V30 3115 H 306.559 0.602938 1.8018 0
M  V30 3116 H 304.709 -0.893563 3.78084 0
M  V30 3117 H 306.381 1.66348 4.30263 0
M  V30 3118 H 304.624 1.62885 4.02058 0
M  V30 3119 H 305.295 0.846281 5.45474 0
M  V30 3120 H 307.771 -0.547993 4.12476 0
M  V30 3121 H 306.647 -1.16077 5.36486 0
M  V30 3122 H 306.908 -2.08875 3.89645 0
M  V30 3123 N 305.967 -1.56429 0.191757 0
M  V30 3124 C 307.216 -1.9666 -0.448088 0
M  V30 3125 C 307.529 -1.08136 -1.62991 0
M  V30 3126 O 308.735 -1.38135 -2.33733 0
M  V30 3127 C 307.191 -3.49753 -0.848585 0
M  V30 3128 C 306.799 -4.46935 0.308764 0
M  V30 3129 C 308.543 -3.9876 -1.4557 0
M  V30 3130 C 306.45 -5.91293 -0.112506 0
M  V30 3131 H 305.38 -0.734312 -0.171179 0
M  V30 3132 H 308.031 -1.81301 0.283242 0
M  V30 3133 H 306.413 -3.60604 -1.63649 0
M  V30 3134 H 307.587 -4.47813 1.08627 0
M  V30 3135 H 305.902 -4.08102 0.827158 0
M  V30 3136 H 308.499 -5.04086 -1.78328 0
M  V30 3137 H 308.842 -3.42875 -2.36099 0
M  V30 3138 H 309.375 -3.9101 -0.731836 0
M  V30 3139 H 306.114 -6.51097 0.758514 0
M  V30 3140 H 305.634 -5.93676 -0.854941 0
M  V30 3141 H 307.313 -6.44663 -0.549448 0
M  V30 3142 N 307.445 0.0818655 -1.57387 0
M  V30 3143 C 308.691 0.784074 -1.8703 0
M  V30 3144 C 309.024 1.77729 -0.782689 0
M  V30 3145 O 308.299 1.93384 0.208051 0
M  V30 3146 C 308.582 1.50105 -3.27323 0
M  V30 3147 C 308.435 0.524925 -4.46727 0
M  V30 3148 C 309.754 2.44843 -3.65705 0
M  V30 3149 H 306.873 0.283582 -0.680257 0
M  V30 3150 H 309.515 0.0474352 -1.89941 0
M  V30 3151 H 307.665 2.12897 -3.24972 0
M  V30 3152 H 309.337 -0.0970111 -4.61198 0
M  V30 3153 H 307.58 -0.160606 -4.33503 0
M  V30 3154 H 308.251 1.064 -5.41648 0
M  V30 3155 H 310.727 1.92135 -3.69085 0
M  V30 3156 H 309.603 2.92018 -4.64776 0
M  V30 3157 H 309.864 3.29197 -2.95096 0
M  V30 3158 N 308.923 1.53595 0.353017 0
M  V30 3159 C 310.171 1.70049 1.09215 0
M  V30 3160 C 310.492 0.461406 1.89463 0
M  V30 3161 O 309.762 -0.524633 1.88744 0
M  V30 3162 H 308.342 0.626912 0.40619 0
M  V30 3163 H 311.004 1.90822 0.396585 0
M  V30 3164 H 310.1 2.56718 1.77488 0
M  V30 3165 N 310.401 -0.613514 1.45168 0
M  V30 3166 C 311.629 -1.39946 1.5239 0
M  V30 3167 C 312.044 -1.88167 0.154531 0
M  V30 3168 O 311.401 -1.61872 -0.842843 0
M  V30 3169 C 311.452 -2.60795 2.50337 0
M  V30 3170 O 311.173 -2.1458 3.81952 0
M  V30 3171 C 312.674 -3.53723 2.67198 0
M  V30 3172 H 309.894 -0.428593 0.516284 0
M  V30 3173 H 312.438 -0.748753 1.903 0
M  V30 3174 H 310.593 -3.21919 2.15515 0
M  V30 3175 H 311.007 -2.93055 4.34993 0
M  V30 3176 H 312.481 -4.35079 3.39721 0
M  V30 3177 H 312.958 -4.0368 1.73029 0
M  V30 3178 H 313.564 -2.98456 3.02992 0
M  V30 3179 N 311.879 -1.3236 -0.855495 0
M  V30 3180 C 313.29 -1.2056 -1.42556 0
M  V30 3181 C 313.641 0.182209 -1.95352 0
M  V30 3182 O 312.766 1.08088 -1.87472 0
M  V30 3183 C 313.361 -2.1826 -2.59129 0
M  V30 3184 C 311.92 -2.10351 -3.12137 0
M  V30 3185 C 311.067 -2.06674 -1.84882 0
M  V30 3186 H 314.018 -1.442 -0.662727 0
M  V30 3187 H 314.039 -1.78064 -3.36264 0
M  V30 3188 H 313.551 -3.19257 -2.20673 0
M  V30 3189 H 311.652 -1.12599 -3.55179 0
M  V30 3190 H 311.765 -3.00135 -3.73438 0
M  V30 3191 H 310.129 -1.51901 -2.04446 0
M  V30 3192 H 310.912 -3.09451 -1.48643 0
M  V30 3193 N 313.357 1.07166 -1.15556 0
M  V30 3194 C 314.267 2.17947 -0.868116 0
M  V30 3195 C 315.283 1.73297 0.156297 0
M  V30 3196 O 316.459 2.01392 -0.0182327 0
M  V30 3197 C 313.524 3.44789 -0.36355 0
M  V30 3198 C 312.585 4.03996 -1.45209 0
M  V30 3199 C 311.818 5.24783 -0.971508 0
M  V30 3200 O 312.041 5.70109 0.182194 0
M  V30 3201 O 310.975 5.75715 -1.75603 0
M  V30 3202 H 314.801 2.4503 -1.79427 0
M  V30 3203 H 312.386 1.16539 -0.934824 0
M  V30 3204 H 314.268 4.21307 -0.0887113 0
M  V30 3205 H 312.943 3.19253 0.534708 0
M  V30 3206 H 311.85 3.29009 -1.78056 0
M  V30 3207 H 313.183 4.33808 -2.32533 0
M  V30 3208 N 314.835 0.952656 1.25548 0
M  V30 3209 C 316.083 0.605176 1.92826 0
M  V30 3210 C 316.404 -0.860261 1.74999 0
M  V30 3211 O 315.674 -1.6125 1.11244 0
M  V30 3212 H 314.254 0.220832 0.713612 0
M  V30 3213 H 316.916 1.21047 1.52754 0
M  V30 3214 H 316.012 0.832798 3.00784 0
M  V30 3215 N 316.313 -1.40141 0.720998 0
M  V30 3216 C 317.276 -2.29058 0.0805834 0
M  V30 3217 C 318.276 -1.45632 -0.681758 0
M  V30 3218 O 319.466 -1.6648 -0.512856 0
M  V30 3219 C 316.598 -3.28925 -0.895593 0
M  V30 3220 H 317.791 -2.87191 0.863793 0
M  V30 3221 H 315.344 -1.48553 0.485975 0
M  V30 3222 H 316.079 -2.75822 -1.70566 0
M  V30 3223 H 315.864 -3.90519 -0.351766 0
M  V30 3224 H 317.354 -3.95494 -1.34069 0
M  V30 3225 N 317.792 -0.46758 -1.50504 0
M  V30 3226 C 318.739 0.328413 -2.28452 0
M  V30 3227 C 319.709 0.990313 -1.33349 0
M  V30 3228 O 320.894 1.00343 -1.62284 0
M  V30 3229 C 318.034 1.40648 -3.15138 0
M  V30 3230 C 317.147 0.759709 -4.25267 0
M  V30 3231 C 316.282 1.81537 -4.99217 0
M  V30 3232 C 315.321 1.14866 -6.01226 0
M  V30 3233 N 314.458 2.14702 -6.68467 0
M  V30 3234 H 319.298 -0.342603 -2.96024 0
M  V30 3235 H 316.835 -0.180801 -1.45985 0
M  V30 3236 H 318.793 2.04315 -3.63746 0
M  V30 3237 H 317.423 2.04671 -2.49619 0
M  V30 3238 H 316.475 0.0105671 -3.80399 0
M  V30 3239 H 317.787 0.233243 -4.98254 0
M  V30 3240 H 316.941 2.52793 -5.51526 0
M  V30 3241 H 315.68 2.37564 -4.25928 0
M  V30 3242 H 314.685 0.42171 -5.4818 0
M  V30 3243 H 315.91 0.595334 -6.76485 0
M  V30 3244 H 313.856 2.69752 -5.97972 0
M  V30 3245 H 313.773 1.6703 -7.37317 0
M  V30 3246 H 315.041 2.85348 -7.25394 0
M  V30 3247 N 319.27 1.56325 -0.20005 0
M  V30 3248 C 320.516 1.98012 0.438059 0
M  V30 3249 C 320.849 1.08702 1.60927 0
M  V30 3250 O 320.124 0.140064 1.93995 0
M  V30 3251 C 320.407 3.48841 0.893419 0
M  V30 3252 C 320.26 4.48928 -0.279947 0
M  V30 3253 C 321.579 4.03498 1.75719 0
M  V30 3254 H 318.698 0.719918 0.157757 0
M  V30 3255 H 321.34 1.87743 -0.291968 0
M  V30 3256 H 319.49 3.57723 1.51547 0
M  V30 3257 H 321.162 4.52079 -0.91772 0
M  V30 3258 H 319.405 4.23694 -0.930919 0
M  V30 3259 H 320.076 5.5194 0.0812601 0
M  V30 3260 H 322.552 3.97427 1.23253 0
M  V30 3261 H 321.428 5.09393 2.04476 0
M  V30 3262 H 321.689 3.4906 2.71311 0
M  V30 3263 N 320.748 -0.0735177 1.57428 0
M  V30 3264 C 321.997 -0.771809 1.86349 0
M  V30 3265 C 322.31 -1.78828 0.792452 0
M  V30 3266 O 323.516 -2.53602 0.96945 0
M  V30 3267 C 321.972 -1.42358 3.30548 0
M  V30 3268 C 321.58 -0.445761 4.45777 0
M  V30 3269 C 323.324 -2.10434 3.6867 0
M  V30 3270 C 321.231 -1.10335 5.81016 0
M  V30 3271 H 320.161 -0.291999 0.695164 0
M  V30 3272 H 322.812 -0.0250749 1.83483 0
M  V30 3273 H 321.194 -2.21852 3.28021 0
M  V30 3274 H 322.368 0.319239 4.59693 0
M  V30 3275 H 320.683 0.130457 4.16196 0
M  V30 3276 H 323.28 -2.60405 4.67004 0
M  V30 3277 H 323.623 -2.90298 2.98383 0
M  V30 3278 H 324.156 -1.37773 3.7318 0
M  V30 3279 H 320.895 -0.345061 6.54591 0
M  V30 3280 H 320.415 -1.83925 5.70904 0
M  V30 3281 H 322.094 -1.62367 6.26295 0
M  V30 3282 N 322.226 -1.5378 -0.344866 0
M  V30 3283 C 323.503 -1.61589 -1.10219 0
M  V30 3284 C 323.883 -0.436316 -2.06542 0
M  V30 3285 O 323.231 0.571543 -2.21237 0
M  V30 3286 C 323.441 -2.97602 -1.82301 0
M  V30 3287 C 324.789 -3.5291 -2.36093 0
M  V30 3288 O 325.813 -2.99768 -1.924 0
M  V30 3289 O 324.672 -4.45859 -3.16026 0
M  V30 3290 H 321.766 -0.653522 -0.506792 0
M  V30 3291 H 324.312 -1.66126 -0.346465 0
M  V30 3292 H 323.084 -3.74893 -1.12121 0
M  V30 3293 H 322.707 -2.9665 -2.64735 0
M  V30 3294 O 323.743 0.490843 -1.5386 0
M  V30 3295 H 324.434 1.14557 -1.56193 0
M  V30 END ATOM
M  V30 BEGIN BOND
M  V30 END BOND
M  V30 END CTAB
M  END
$$$$
