drugbank_target|Q9NR82 Potassium voltage-gated channel subfamily KQT member 5 (DB00996; DB04953; DB06089)
 OpenBabel12092120143D

  0  0  0     0  0            999 V3000
M  V30 BEGIN CTAB
M  V30 COUNTS 14477 14616 0 0 0
M  V30 BEGIN ATOM
M  V30 1 H -0.908 1.98254 -0.117106 0
M  V30 2 N 0 1.576 0 0
M  V30 3 C 0.933 2.03868 1.02534 0
M  V30 4 C 1.911 0.928543 1.3348 0
M  V30 5 O 3.095 1.19667 1.45644 0
M  V30 6 C 0.222 2.43627 2.35294 0
M  V30 7 C -0.732 3.65373 2.2001 0
M  V30 8 S 0.101 5.13292 1.52614 0
M  V30 9 C 1.257 5.56322 2.86805 0
M  V30 10 H 1.49 2.90518 0.631377 0
M  V30 11 H -0.977 1.52953 0.210867 0
M  V30 12 H 0.981 2.67203 3.11629 0
M  V30 13 H -0.358 1.57376 2.7183 0
M  V30 14 H -1.165 3.90944 3.18086 0
M  V30 15 H -1.563 3.418 1.51819 0
M  V30 16 H 0.729 5.58782 3.83104 0
M  V30 17 H 1.672 6.56266 2.65933 0
M  V30 18 H 2.08 4.83886 2.90714 0
M  V30 19 N 1.4781 -0.272755 1.55222 0
M  V30 20 C 2.8891 -0.84378 1.66545 0
M  V30 21 C 3.2401 -1.87035 0.592641 0
M  V30 22 O 2.3651 -2.14761 -0.265818 0
M  V30 23 C 2.9601 -1.53723 3.01918 0
M  V30 24 C 1.5191 -2.05628 3.15268 0
M  V30 25 C 0.6661 -0.898424 2.62343 0
M  V30 26 H 3.6171 -0.0490998 1.58624 0
M  V30 27 H 3.6381 -2.40421 2.94921 0
M  V30 28 H 3.1501 -0.78983 3.79978 0
M  V30 29 H 1.2511 -2.83329 2.41983 0
M  V30 30 H 1.3641 -2.27142 4.21833 0
M  V30 31 H -0.2719 -1.29186 2.19506 0
M  V30 32 H 0.5111 -0.164528 3.42906 0
M  V30 33 N 2.9562 -1.48159 -0.537278 0
M  V30 34 C 4.3722 -1.34118 -0.865129 0
M  V30 35 C 4.5722 -0.346678 -1.98495 0
M  V30 36 O 3.6282 0.234715 -2.51407 0
M  V30 37 C 4.9412 -2.73963 -1.23954 0
M  V30 38 C 6.4892 -2.82397 -1.34984 0
M  V30 39 C 6.9642 -4.22928 -1.75772 0
M  V30 40 N 8.4552 -4.25566 -1.82887 0
M  V30 41 C 9.1902 -5.31235 -2.15817 0
M  V30 42 N 8.6862 -6.47189 -2.47222 0
M  V30 43 N 10.4792 -5.18624 -2.16761 0
M  V30 44 H 2.6302 -2.1144 0.201715 0
M  V30 45 H 4.8932 -0.947598 0.0275949 0
M  V30 46 H 4.5992 -3.48264 -0.490381 0
M  V30 47 H 4.4732 -3.0702 -2.19132 0
M  V30 48 H 6.8602 -2.08356 -2.08978 0
M  V30 49 H 6.9412 -2.5297 -0.379448 0
M  V30 50 H 6.5852 -4.97482 -1.02341 0
M  V30 51 H 6.5152 -4.49794 -2.73848 0
M  V30 52 H 9.0062 -3.41924 -1.60924 0
M  V30 53 H 9.3192 -7.23564 -2.71433 0
M  V30 54 H 7.6642 -6.50476 -2.44757 0
M  V30 55 H 10.8552 -4.27056 -1.91679 0
M  V30 56 H 11.0282 -6.01078 -2.42093 0
M  V30 57 N 4.4343 0.785586 -1.36625 0
M  V30 58 C 5.3843 1.88822 -1.27789 0
M  V30 59 C 6.3683 1.60014 -0.168579 0
M  V30 60 O 7.5603 1.72381 -0.401737 0
M  V30 61 C 4.6893 3.26092 -1.07327 0
M  V30 62 C 3.7753 3.60897 -2.22743 0
M  V30 63 N 4.1663 3.66982 -3.48077 0
M  V30 64 C 2.4643 3.90981 -2.14593 0
M  V30 65 C 3.1653 3.98137 -4.24101 0
M  V30 66 N 2.1413 4.13319 -3.53084 0
M  V30 67 H 5.9433 1.91759 -2.22723 0
M  V30 68 H 3.4573 0.981311 -1.29399 0
M  V30 69 H 5.4543 4.04954 -0.990842 0
M  V30 70 H 4.1143 3.24428 -0.132977 0
M  V30 71 H 5.1253 3.49531 -3.82163 0
M  V30 72 H 1.8023 3.9722 -1.2854 0
M  V30 73 H 3.1923 4.09737 -5.32509 0
M  V30 74 N 5.9124 1.20967 1.01018 0
M  V30 75 C 6.8624 0.93182 2.08089 0
M  V30 76 C 7.8464 -0.110898 1.60517 0
M  V30 77 O 9.0384 0.0973392 1.76732 0
M  V30 78 C 6.1674 0.492719 3.39746 0
M  V30 79 C 5.2534 1.56922 3.94 0
M  V30 80 N 5.6444 2.79312 4.21686 0
M  V30 81 C 3.9424 1.43688 4.2222 0
M  V30 82 C 4.6434 3.48797 4.65527 0
M  V30 83 N 3.6194 2.76224 4.68189 0
M  V30 84 H 7.4214 1.86175 2.27412 0
M  V30 85 H 4.9354 1.10463 1.19045 0
M  V30 86 H 6.9324 0.275044 4.15992 0
M  V30 87 H 5.5924 -0.430509 3.21833 0
M  V30 88 H 6.6034 3.15903 4.10397 0
M  V30 89 H 3.2804 0.578548 4.13472 0
M  V30 90 H 4.6704 4.53561 4.95714 0
M  V30 91 N 7.3905 -1.2043 1.01659 0
M  V30 92 C 8.3535 -2.21433 0.591616 0
M  V30 93 C 9.3535 -1.57203 -0.338226 0
M  V30 94 O 10.5435 -1.73737 -0.126918 0
M  V30 95 C 7.6755 -3.40628 -0.136058 0
M  V30 96 H 8.8685 -2.60545 1.48514 0
M  V30 97 H 6.4215 -1.33893 0.806379 0
M  V30 98 H 7.1565 -3.07019 -1.04449 0
M  V30 99 H 6.9415 -3.88475 0.531917 0
M  V30 100 H 8.4315 -4.15475 -0.420735 0
M  V30 101 N 8.8686 -0.792821 -1.36206 0
M  V30 102 C 10.1166 -0.366062 -1.98757 0
M  V30 103 C 10.4376 1.0668 -1.63231 0
M  V30 104 O 9.7076 1.73587 -0.907978 0
M  V30 105 H 8.2876 -0.132364 -0.735179 0
M  V30 106 H 10.9496 -1.01562 -1.66347 0
M  V30 107 H 10.0456 -0.460638 -3.08682 0
M  V30 108 N 10.3467 1.47872 -0.545128 0
M  V30 109 C 11.5947 2.02093 -0.016553 0
M  V30 110 C 11.9157 1.42305 1.3332 0
M  V30 111 O 11.1857 0.593853 1.86682 0
M  V30 112 H 9.7657 0.746993 -0.00313038 0
M  V30 113 H 12.4277 1.81414 -0.712397 0
M  V30 114 H 11.5237 3.11996 0.0805422 0
M  V30 115 N 11.8248 0.280983 1.55075 0
M  V30 116 C 12.7348 -0.61388 2.26426 0
M  V30 117 C 13.7508 -1.16521 1.29224 0
M  V30 118 O 14.9268 -1.19426 1.62171 0
M  V30 119 C 11.9918 -1.7788 2.9759 0
M  V30 120 C 11.0528 -1.26355 4.10284 0
M  V30 121 C 10.2858 -2.37295 4.78045 0
M  V30 122 O 10.5088 -3.56777 4.45047 0
M  V30 123 O 9.4428 -2.05119 5.65871 0
M  V30 124 H 13.2688 -0.0356932 3.03679 0
M  V30 125 H 10.8538 0.0481686 1.49322 0
M  V30 126 H 12.7358 -2.45791 3.42293 0
M  V30 127 H 11.4108 -2.34397 2.23249 0
M  V30 128 H 10.3178 -0.550735 3.70024 0
M  V30 129 H 11.6508 -0.744065 4.86543 0
M  V30 130 N 13.3029 -1.57598 0.00835791 0
M  V30 131 C 14.2129 -2.12385 -0.996487 0
M  V30 132 C 15.2289 -1.07108 -1.37127 0
M  V30 133 O 16.4049 -1.39055 -1.4569 0
M  V30 134 C 13.4699 -2.62314 -2.26699 0
M  V30 135 C 12.5309 -3.82225 -1.95456 0
M  V30 136 C 11.7639 -4.29763 -3.16449 0
M  V30 137 O 11.9869 -3.76584 -4.28416 0
M  V30 138 O 10.9209 -5.21832 -2.99958 0
M  V30 139 H 14.7469 -2.98479 -0.560725 0
M  V30 140 H 12.3319 -1.47903 -0.210987 0
M  V30 141 H 14.2139 -2.94589 -3.01322 0
M  V30 142 H 12.8889 -1.79313 -2.69497 0
M  V30 143 H 11.7959 -3.54909 -1.18282 0
M  V30 144 H 13.1289 -4.66324 -1.57489 0
M  V30 145 N 14.781 0.264519 -1.55364 0
M  V30 146 C 16.029 0.993021 -1.76021 0
M  V30 147 C 16.35 1.86511 -0.569099 0
M  V30 148 O 15.62 1.91438 0.415735 0
M  V30 149 H 14.2 0.369639 -0.649135 0
M  V30 150 H 16.862 0.286707 -1.9278 0
M  V30 151 H 15.958 1.62502 -2.66457 0
M  V30 152 N 16.2591 1.48442 0.529413 0
M  V30 153 C 17.5071 1.56179 1.28267 0
M  V30 154 C 17.8281 0.237721 1.93546 0
M  V30 155 O 17.0981 -0.740779 1.81354 0
M  V30 156 H 15.6781 0.575367 0.476405 0
M  V30 157 H 18.3401 1.84909 0.61602 0
M  V30 158 H 17.4361 2.34312 2.06165 0
M  V30 159 N 17.7372 -0.778329 1.37039 0
M  V30 160 C 18.7002 -1.87301 1.32102 0
M  V30 161 C 19.7002 -1.59198 0.226405 0
M  V30 162 O 20.8902 -1.67403 0.481861 0
M  V30 163 C 18.0222 -3.24309 1.05055 0
M  V30 164 H 19.2152 -1.93093 2.29467 0
M  V30 165 H 16.7682 -0.977358 1.21973 0
M  V30 166 H 17.5032 -3.24196 0.0819373 0
M  V30 167 H 17.2882 -3.46098 1.84279 0
M  V30 168 H 18.7782 -4.04382 1.04234 0
M  V30 169 N 19.2153 -1.21501 -1.00376 0
M  V30 170 C 20.1783 -0.976927 -2.07337 0
M  V30 171 C 21.1783 0.0525322 -1.60714 0
M  V30 172 O 22.3683 -0.184869 -1.73216 0
M  V30 173 C 19.5003 -0.473423 -3.37597 0
M  V30 174 H 20.6933 -1.92587 -2.29892 0
M  V30 175 H 18.2463 -1.03217 -1.17371 0
M  V30 176 H 18.9813 0.480379 -3.20722 0
M  V30 177 H 18.7663 -1.216 -3.72768 0
M  V30 178 H 20.2563 -0.32675 -4.1632 0
M  V30 179 N 20.6934 1.19889 -1.02296 0
M  V30 180 C 21.9414 1.89046 -0.714558 0
M  V30 181 C 22.2624 1.79636 0.758681 0
M  V30 182 O 21.5324 1.20292 1.54618 0
M  V30 183 H 20.1124 0.699802 -0.261317 0
M  V30 184 H 22.7744 1.45574 -1.29592 0
M  V30 185 H 21.8704 2.95524 -1.0036 0
M  V30 186 N 22.1715 0.800033 1.35784 0
M  V30 187 C 23.1015 0.220184 2.3246 0
M  V30 188 C 24.0825 -0.65073 1.57161 0
M  V30 189 O 25.2675 -0.582359 1.85263 0
M  V30 190 C 22.3975 -0.637353 3.41402 0
M  V30 191 C 21.3515 0.134531 4.27789 0
M  V30 192 C 20.6775 -0.844285 5.27992 0
M  V30 193 C 21.9775 1.32979 5.05088 0
M  V30 194 H 23.6715 1.02787 2.81203 0
M  V30 195 H 21.2175 0.495717 1.35199 0
M  V30 196 H 23.1705 -1.05302 4.08031 0
M  V30 197 H 21.8945 -1.47785 2.91251 0
M  V30 198 H 20.5535 0.531296 3.6273 0
M  V30 199 H 20.2015 -1.68011 4.74111 0
M  V30 200 H 19.9015 -0.332184 5.8666 0
M  V30 201 H 21.4255 -1.2583 5.97494 0
M  V30 202 H 22.8395 0.98934 5.64699 0
M  V30 203 H 21.2365 1.77593 5.7322 0
M  V30 204 H 22.3065 2.11978 4.36111 0
M  V30 205 N 23.6496 -1.47581 0.552962 0
M  V30 206 C 24.8956 -2.03369 0.0355807 0
M  V30 207 C 25.2506 -1.42016 -1.29805 0
M  V30 208 O 24.5436 -0.564917 -1.83083 0
M  V30 209 C 24.7376 -3.57199 -0.119728 0
M  V30 210 C 24.5666 -4.33468 1.1973 0
M  V30 211 C 23.3366 -4.7353 1.76345 0
M  V30 212 C 25.5346 -4.68866 2.11351 0
M  V30 213 N 23.5166 -5.34426 3.02097 0
M  V30 214 C 24.8876 -5.3002 3.21681 0
M  V30 215 C 26.9426 -4.50795 2.11397 0
M  V30 216 C 25.6456 -5.75011 4.32151 0
M  V30 217 C 27.6716 -4.96782 3.20876 0
M  V30 218 C 27.0336 -5.57981 4.29926 0
M  V30 219 H 23.1326 -0.780058 0.0550806 0
M  V30 220 H 25.7166 -1.80117 0.739315 0
M  V30 221 H 23.8876 -3.80227 -0.792579 0
M  V30 222 H 25.6196 -3.99627 -0.638792 0
M  V30 223 H 22.3746 -4.55352 1.30196 0
M  V30 224 H 22.7986 -5.69421 3.66182 0
M  V30 225 H 27.4406 -4.0284 1.28372 0
M  V30 226 H 25.1586 -6.21959 5.15938 0
M  V30 227 H 28.7446 -4.84573 3.21994 0
M  V30 228 H 27.6246 -5.92918 5.13243 0
M  V30 229 N 25.1277 -0.289203 -1.54924 0
M  V30 230 C 26.3737 0.323998 -2.00195 0
M  V30 231 C 26.7067 1.54441 -1.17735 0
M  V30 232 O 25.9817 1.92875 -0.250878 0
M  V30 233 C 26.2647 0.692276 -3.53383 0
M  V30 234 C 26.1177 -0.536457 -4.46589 0
M  V30 235 C 27.4367 1.52335 -4.12895 0
M  V30 236 H 24.5557 0.116289 -0.727768 0
M  V30 237 H 27.1977 -0.398954 -1.85764 0
M  V30 238 H 25.3477 1.30822 -3.65811 0
M  V30 239 H 27.0197 -1.17499 -4.46085 0
M  V30 240 H 25.2627 -1.17192 -4.1767 0
M  V30 241 H 25.9337 -0.234806 -5.515 0
M  V30 242 H 28.4097 1.00302 -4.0383 0
M  V30 243 H 27.2857 1.74982 -5.20262 0
M  V30 244 H 27.5467 2.50886 -3.64018 0
M  V30 245 N 26.6058 1.57591 -0.0167156 0
M  V30 246 C 27.5528 2.09462 0.969251 0
M  V30 247 C 28.5228 0.99381 1.33089 0
M  V30 248 O 29.7078 1.26726 1.42636 0
M  V30 249 C 26.8478 2.61622 2.25051 0
M  V30 250 C 25.9608 3.85666 1.94642 0
M  V30 251 C 25.0958 4.26266 3.16972 0
M  V30 252 C 24.1348 5.43101 2.82326 0
M  V30 253 N 23.2718 5.78915 3.97243 0
M  V30 254 H 28.1118 2.93428 0.519997 0
M  V30 255 H 25.6488 1.45044 0.245087 0
M  V30 256 H 27.6068 2.89949 2.99976 0
M  V30 257 H 26.2368 1.80505 2.67615 0
M  V30 258 H 25.2888 3.64145 1.10013 0
M  V30 259 H 26.6008 4.70678 1.65117 0
M  V30 260 H 25.7548 4.55963 4.00228 0
M  V30 261 H 24.4938 3.39996 3.49648 0
M  V30 262 H 23.4988 5.1311 1.97479 0
M  V30 263 H 24.7238 6.3106 2.50879 0
M  V30 264 H 22.6698 4.95602 4.29785 0
M  V30 265 H 22.5868 6.58539 3.71299 0
M  V30 266 H 23.8548 6.13212 4.81239 0
M  V30 267 N 28.0839 -0.256276 1.55502 0
M  V30 268 C 29.3089 -1.00766 1.81276 0
M  V30 269 C 29.7339 -1.78524 0.59252 0
M  V30 270 O 29.0919 -1.75413 -0.45827 0
M  V30 271 C 29.1399 -1.92869 3.04687 0
M  V30 272 O 28.2439 -3.019 2.80945 0
M  V30 273 H 27.5849 -0.287224 0.598664 0
M  V30 274 H 30.1149 -0.280109 2.02674 0
M  V30 275 H 30.1249 -2.34511 3.33869 0
M  V30 276 H 28.7999 -1.35689 3.93143 0
M  V30 277 H 27.3769 -2.64454 2.62904 0
M  V30 278 N 29.562 -1.4872 -0.521534 0
M  V30 279 C 30.81 -1.56857 -1.27437 0
M  V30 280 C 31.131 -0.247982 -1.93417 0
M  V30 281 O 30.401 0.731151 -1.81744 0
M  V30 282 H 28.981 -0.577885 -0.473347 0
M  V30 283 H 31.643 -1.85233 -0.606205 0
M  V30 284 H 30.739 -2.35402 -2.0492 0
M  V30 285 N 31.0401 0.771051 -1.3745 0
M  V30 286 C 32.0031 1.86598 -1.33093 0
M  V30 287 C 33.0031 1.59076 -0.234845 0
M  V30 288 O 34.1931 1.67145 -0.490732 0
M  V30 289 C 31.3251 3.23747 -1.06773 0
M  V30 290 H 32.5181 1.91873 -2.30488 0
M  V30 291 H 30.0711 0.970876 -1.2249 0
M  V30 292 H 30.8061 3.24148 -0.099129 0
M  V30 293 H 30.5911 3.45115 -1.86112 0
M  V30 294 H 32.0811 4.03824 -1.06377 0
M  V30 295 N 32.5182 1.22032 0.997298 0
M  V30 296 C 33.4812 0.987909 2.06816 0
M  V30 297 C 34.4812 -0.0440084 1.6074 0
M  V30 298 O 35.6712 0.194053 1.73116 0
M  V30 299 C 32.8032 0.49132 3.37341 0
M  V30 300 H 33.9962 1.93803 2.28868 0
M  V30 301 H 31.5492 1.03838 1.16822 0
M  V30 302 H 32.2842 -0.463364 3.20973 0
M  V30 303 H 32.0692 1.23575 3.72118 0
M  V30 304 H 33.5592 0.348824 4.16141 0
M  V30 305 N 33.9963 -1.19345 1.0293 0
M  V30 306 C 34.9593 -2.20793 0.615069 0
M  V30 307 C 35.9593 -1.57553 -0.321533 0
M  V30 308 O 37.1493 -1.73862 -0.108483 0
M  V30 309 C 34.2813 -3.40754 -0.0999222 0
M  V30 310 H 35.4743 -2.58955 1.51269 0
M  V30 311 H 33.0273 -1.3303 0.820534 0
M  V30 312 H 33.7623 -3.0811 -1.01187 0
M  V30 313 H 33.5473 -3.87889 0.57309 0
M  V30 314 H 35.0373 -4.15898 -0.376645 0
M  V30 315 N 35.4744 -0.807222 -1.35358 0
M  V30 316 C 36.4374 -0.223665 -2.28106 0
M  V30 317 C 37.4374 0.589354 -1.4961 0
M  V30 318 O 38.6274 0.407745 -1.69361 0
M  V30 319 C 35.7594 0.688149 -3.33882 0
M  V30 320 H 36.9524 -1.04169 -2.81227 0
M  V30 321 H 34.5054 -0.577921 -1.45223 0
M  V30 322 H 35.2404 1.52984 -2.85948 0
M  V30 323 H 35.0254 0.10687 -3.91954 0
M  V30 324 H 36.5154 1.09075 -4.03104 0
M  V30 325 N 36.9525 1.47285 -0.560781 0
M  V30 326 C 37.9155 2.28535 0.174488 0
M  V30 327 C 38.9155 1.37153 0.839388 0
M  V30 328 O 40.1055 1.59748 0.694702 0
M  V30 329 C 37.2375 3.16934 1.25561 0
M  V30 330 H 38.4305 2.95012 -0.539262 0
M  V30 331 H 35.9835 1.53034 -0.317865 0
M  V30 332 H 36.7185 2.55157 2.00164 0
M  V30 333 H 36.5035 3.8419 0.783604 0
M  V30 334 H 37.9935 3.78143 1.77193 0
M  V30 335 N 38.4306 0.297415 1.54768 0
M  V30 336 C 39.3936 -0.567375 2.22066 0
M  V30 337 C 40.3936 -1.06409 1.20556 0
M  V30 338 O 41.5836 -0.960691 1.45315 0
M  V30 339 C 38.7156 -1.78517 2.90421 0
M  V30 340 H 39.9086 0.0205534 2.99893 0
M  V30 341 H 37.4616 0.0482163 1.56226 0
M  V30 342 H 38.1966 -2.41303 2.16664 0
M  V30 343 H 37.9816 -1.43669 3.64831 0
M  V30 344 H 39.4716 -2.39964 3.41771 0
M  V30 345 N 39.9087 -1.5758 0.0250728 0
M  V30 346 C 41.1567 -1.91255 -0.653151 0
M  V30 347 C 41.4777 -0.901691 -1.729 0
M  V30 348 O 40.7477 0.0573785 -1.95816 0
M  V30 349 H 39.3277 -0.705942 -0.244243 0
M  V30 350 H 41.9897 -1.94767 0.0719209 0
M  V30 351 H 41.0857 -2.91752 -1.10847 0
M  V30 352 N 41.3868 0.248026 -1.55636 0
M  V30 353 C 42.6348 0.974295 -1.77065 0
M  V30 354 C 42.9558 1.85897 -0.588849 0
M  V30 355 O 42.2258 1.91868 0.395407 0
M  V30 356 H 40.8058 0.362733 -0.653019 0
M  V30 357 H 43.4678 0.266244 -1.93073 0
M  V30 358 H 42.5638 1.59667 -2.68166 0
M  V30 359 N 42.8649 1.48995 0.513639 0
M  V30 360 C 44.1129 1.57531 1.26604 0
M  V30 361 C 44.4339 0.258236 1.93283 0
M  V30 362 O 43.7039 -0.721502 1.8213 0
M  V30 363 H 42.2839 0.580387 0.470276 0
M  V30 364 H 44.9459 1.85552 0.596373 0
M  V30 365 H 44.0419 2.36486 2.03669 0
M  V30 366 N 44.343 -0.763751 1.37857 0
M  V30 367 C 45.759 -1.06542 1.18832 0
M  V30 368 C 45.959 -2.01478 0.0299722 0
M  V30 369 O 45.015 -2.4458 -0.627447 0
M  V30 370 C 46.328 -1.65525 2.51042 0
M  V30 371 C 47.876 -1.77745 2.57635 0
M  V30 372 C 48.351 -2.4014 3.89996 0
M  V30 373 N 49.842 -2.47582 3.91481 0
M  V30 374 C 50.577 -2.96732 4.9065 0
M  V30 375 N 50.073 -3.45993 6.00217 0
M  V30 376 N 51.866 -2.95679 4.78048 0
M  V30 377 H 44.017 -0.133556 2.1198 0
M  V30 378 H 46.28 -0.121879 0.940133 0
M  V30 379 H 45.986 -1.03236 3.36207 0
M  V30 380 H 45.86 -2.64719 2.68707 0
M  V30 381 H 48.247 -2.39164 1.72872 0
M  V30 382 H 48.328 -0.772836 2.43846 0
M  V30 383 H 47.972 -1.79358 4.75177 0
M  V30 384 H 47.902 -3.41223 4.01092 0
M  V30 385 H 50.393 -2.1273 3.12337 0
M  V30 386 H 50.706 -3.81922 6.7183 0
M  V30 387 H 49.051 -3.44077 6.03851 0
M  V30 388 H 52.242 -2.56499 3.91568 0
M  V30 389 H 52.415 -3.33672 5.55488 0
M  V30 390 N 45.8211 -1.22559 -0.990812 0
M  V30 391 C 46.7511 -1.0218 -2.09956 0
M  V30 392 C 47.7321 0.0579394 -1.70001 0
M  V30 393 O 48.9171 -0.104684 -1.93918 0
M  V30 394 C 46.0471 -0.601023 -3.4206 0
M  V30 395 C 45.0011 -1.62694 -3.95872 0
M  V30 396 C 44.3271 -1.06193 -5.24049 0
M  V30 397 C 45.6271 -3.01743 -4.2632 0
M  V30 398 H 47.3211 -1.94916 -2.27262 0
M  V30 399 H 44.8671 -0.938566 -1.09211 0
M  V30 400 H 46.8201 -0.445561 -4.19038 0
M  V30 401 H 45.5441 0.362005 -3.24588 0
M  V30 402 H 44.2031 -1.77021 -3.21028 0
M  V30 403 H 43.8511 -0.0901903 -5.02919 0
M  V30 404 H 43.5511 -1.74732 -5.61019 0
M  V30 405 H 45.0751 -0.918092 -6.03658 0
M  V30 406 H 46.4891 -2.90777 -4.94087 0
M  V30 407 H 44.8861 -3.67425 -4.74467 0
M  V30 408 H 45.9561 -3.51518 -3.34011 0
M  V30 409 N 47.2992 1.18797 -1.03562 0
M  V30 410 C 48.5472 1.88278 -0.734569 0
M  V30 411 C 48.8682 1.8043 0.739586 0
M  V30 412 O 48.1382 1.21925 1.53333 0
M  V30 413 H 46.7182 0.696991 -0.268725 0
M  V30 414 H 49.3802 1.44192 -1.31129 0
M  V30 415 H 48.4762 2.94443 -1.03489 0
M  V30 416 N 48.7773 0.814389 1.34928 0
M  V30 417 C 50.0023 0.410097 2.03305 0
M  V30 418 C 50.4273 -0.973464 1.60951 0
M  V30 419 O 49.7853 -1.63185 0.789964 0
M  V30 420 C 49.8333 0.51049 3.56968 0
M  V30 421 O 48.9373 -0.473035 4.09678 0
M  V30 422 H 48.2783 0.170088 0.641846 0
M  V30 423 H 50.8083 1.10244 1.72358 0
M  V30 424 H 50.8183 0.383135 4.06197 0
M  V30 425 H 49.4933 1.51963 3.87144 0
M  V30 426 H 48.0703 -0.305272 3.71648 0
M  V30 427 N 50.2554 -1.46986 0.568584 0
M  V30 428 C 51.5034 -2.02041 0.0487022 0
M  V30 429 C 51.8244 -1.44408 -1.31039 0
M  V30 430 O 51.0944 -0.623477 -1.85714 0
M  V30 431 H 49.6744 -0.746849 0.015014 0
M  V30 432 H 52.3364 -1.80257 0.741168 0
M  V30 433 H 51.4324 -3.12085 -0.0308961 0
M  V30 434 N 51.7335 -0.305618 -1.54608 0
M  V30 435 C 52.6665 0.610536 -2.19881 0
M  V30 436 C 53.6445 1.1294 -1.16976 0
M  V30 437 O 54.8285 1.19673 -1.45638 0
M  V30 438 C 51.9555 1.83583 -2.84631 0
M  V30 439 C 51.0015 1.4498 -4.01102 0
M  V30 440 S 51.8345 0.501793 -5.33144 0
M  V30 441 C 52.9905 1.73478 -6.01379 0
M  V30 442 H 53.2235 0.0560177 -2.97247 0
M  V30 443 H 50.7565 -0.0897434 -1.54139 0
M  V30 444 H 52.7145 2.53898 -3.22562 0
M  V30 445 H 51.3755 2.36152 -2.07102 0
M  V30 446 H 50.5685 2.36236 -4.45206 0
M  V30 447 H 50.1705 0.826553 -3.64752 0
M  V30 448 H 52.4625 2.67473 -6.22467 0
M  V30 449 H 53.4055 1.33622 -6.95378 0
M  V30 450 H 53.8135 1.9136 -5.31076 0
M  V30 451 N 53.2116 1.57565 -0.0334293 0
M  V30 452 C 54.1586 2.10478 0.946981 0
M  V30 453 C 55.1286 1.00787 1.32027 0
M  V30 454 O 56.3136 1.28232 1.41284 0
M  V30 455 C 53.4536 2.63994 2.22263 0
M  V30 456 C 52.5666 3.87709 1.90541 0
M  V30 457 C 51.7016 4.29604 3.12433 0
M  V30 458 C 50.7406 5.46065 2.76549 0
M  V30 459 N 49.8776 5.83096 3.9108 0
M  V30 460 H 54.7176 2.93963 0.488846 0
M  V30 461 H 52.2546 1.45296 0.22969 0
M  V30 462 H 54.2126 2.93114 2.96884 0
M  V30 463 H 52.8426 1.83333 2.65685 0
M  V30 464 H 51.8946 3.65291 1.06144 0
M  V30 465 H 53.2066 4.72403 1.60116 0
M  V30 466 H 52.3606 4.60182 3.9537 0
M  V30 467 H 51.0996 3.43685 3.46023 0
M  V30 468 H 50.1046 5.15176 1.92026 0
M  V30 469 H 51.3296 6.33685 2.44171 0
M  V30 470 H 49.2756 5.00132 4.24504 0
M  V30 471 H 49.1926 6.6244 3.64293 0
M  V30 472 H 50.4606 6.18282 4.74708 0
M  V30 473 N 54.6897 -0.239769 1.55765 0
M  V30 474 C 55.9667 -0.990056 1.68693 0
M  V30 475 C 56.3467 -2.03107 0.5754 0
M  V30 476 O 55.6947 -2.24604 -0.42017 0
M  V30 477 C 55.9047 -1.61696 3.09282 0
M  V30 478 C 57.2527 -2.11613 3.6811 0
M  V30 479 O 58.2767 -1.71624 3.12127 0
M  V30 480 O 57.1357 -2.85057 4.66267 0
M  V30 481 H 54.2297 -0.461299 0.686391 0
M  V30 482 H 56.7757 -0.232991 1.68093 0
M  V30 483 H 55.5477 -0.864357 3.81634 0
M  V30 484 H 55.1707 -2.44005 3.13923 0
M  V30 485 N 56.1678 -1.49265 -0.50573 0
M  V30 486 C 57.4138 -1.58748 -1.26202 0
M  V30 487 C 57.7468 -0.271227 -1.92297 0
M  V30 488 O 57.0218 0.724831 -1.80489 0
M  V30 489 C 57.3048 -2.74332 -2.33268 0
M  V30 490 C 57.1578 -4.15737 -1.71705 0
M  V30 491 C 58.4768 -2.85576 -3.34865 0
M  V30 492 H 55.5958 -0.577826 -0.457478 0
M  V30 493 H 58.2378 -1.81532 -0.560897 0
M  V30 494 H 56.3878 -2.55036 -2.93068 0
M  V30 495 H 58.0598 -4.46537 -1.15769 0
M  V30 496 H 56.3028 -4.21605 -1.02135 0
M  V30 497 H 56.9738 -4.92477 -2.49341 0
M  V30 498 H 59.4498 -3.03127 -2.8505 0
M  V30 499 H 58.3258 -3.68135 -4.07146 0
M  V30 500 H 58.5868 -1.94732 -3.96903 0
M  V30 501 N 57.6459 0.756429 -1.3826 0
M  V30 502 C 58.5559 1.9009 -1.37488 0
M  V30 503 C 59.5719 1.71855 -0.272366 0
M  V30 504 O 60.7479 1.94827 -0.510318 0
M  V30 505 C 57.8129 3.25421 -1.19592 0
M  V30 506 C 56.8739 3.56202 -2.39622 0
M  V30 507 C 56.1069 4.85075 -2.2257 0
M  V30 508 O 56.3299 5.57246 -1.21793 0
M  V30 509 O 55.2639 5.15269 -3.11098 0
M  V30 510 H 59.0899 1.93695 -2.33914 0
M  V30 511 H 56.6749 0.901313 -1.1915 0
M  V30 512 H 58.5569 4.06337 -1.11661 0
M  V30 513 H 57.2319 3.22634 -0.262486 0
M  V30 514 H 56.1389 2.75458 -2.53128 0
M  V30 515 H 57.4719 3.63747 -3.31586 0
M  V30 516 N 59.124 1.23083 0.984299 0
M  V30 517 C 60.349 1.088 1.76571 0
M  V30 518 C 60.774 -0.356657 1.84688 0
M  V30 519 O 60.132 -1.25788 1.30565 0
M  V30 520 C 60.18 1.71371 3.17277 0
M  V30 521 O 59.284 0.973213 4.00752 0
M  V30 522 H 58.625 0.381599 0.543395 0
M  V30 523 H 61.155 1.63057 1.23587 0
M  V30 524 H 61.165 1.76449 3.67872 0
M  V30 525 H 59.84 2.76493 3.10684 0
M  V30 526 H 58.417 0.999078 3.59267 0
M  V30 527 N 60.6021 -1.18246 1.0419 0
M  V30 528 C 61.8501 -1.87886 0.744543 0
M  V30 529 C 62.1711 -1.8082 -0.730006 0
M  V30 530 O 61.4411 -1.22736 -1.52685 0
M  V30 531 H 60.0211 -0.695556 0.272417 0
M  V30 532 H 62.6831 -1.43494 1.31892 0
M  V30 533 H 61.7791 -2.9389 1.05049 0
M  V30 534 N 62.0802 -0.821533 -1.34494 0
M  V30 535 C 63.4962 -0.507117 -1.51329 0
M  V30 536 C 63.6962 0.968964 -1.76673 0
M  V30 537 O 62.7522 1.75348 -1.81685 0
M  V30 538 C 64.0652 -1.36544 -2.67911 0
M  V30 539 C 65.6132 -1.36242 -2.81793 0
M  V30 540 C 66.0882 -2.2052 -4.01416 0
M  V30 541 N 67.5792 -2.18136 -4.08621 0
M  V30 542 C 68.3142 -2.80095 -5.00334 0
M  V30 543 N 67.8102 -3.51039 -5.9728 0
M  V30 544 N 69.6032 -2.69656 -4.93196 0
M  V30 545 H 61.7542 -1.77729 -1.16302 0
M  V30 546 H 64.0172 -0.757291 -0.570276 0
M  V30 547 H 63.7232 -2.41361 -2.55808 0
M  V30 548 H 63.5972 -1.02917 -3.62888 0
M  V30 549 H 65.9842 -0.322041 -2.93338 0
M  V30 550 H 66.0652 -1.73866 -1.87628 0
M  V30 551 H 65.7092 -3.24607 -3.90631 0
M  V30 552 H 65.6392 -1.80247 -4.94791 0
M  V30 553 H 68.1302 -1.6653 -3.39229 0
M  V30 554 H 68.4432 -3.95565 -6.63889 0
M  V30 555 H 66.7882 -3.55145 -5.97409 0
M  V30 556 H 69.9792 -2.13808 -4.16418 0
M  V30 557 H 70.1522 -3.1823 -5.64476 0
M  V30 558 N 63.5583 1.46682 -0.576371 0
M  V30 559 C 64.8063 2.02013 -0.0594163 0
M  V30 560 C 65.1273 1.45101 1.30271 0
M  V30 561 O 64.3973 0.633317 1.8538 0
M  V30 562 H 62.9773 0.746759 -0.0189745 0
M  V30 563 H 65.6393 1.79862 -0.750717 0
M  V30 564 H 64.7353 3.12097 0.014345 0
M  V30 565 N 65.0364 0.313813 1.54444 0
M  V30 566 C 66.4524 -0.0391619 1.59552 0
M  V30 567 C 66.6524 -1.51322 1.33056 0
M  V30 568 O 65.7084 -2.26782 1.11022 0
M  V30 569 C 67.0214 0.370302 2.98411 0
M  V30 570 C 68.5694 0.320139 3.11358 0
M  V30 571 C 69.0444 0.704617 4.52547 0
M  V30 572 N 70.5354 0.657645 4.58508 0
M  V30 573 C 71.2704 0.927453 5.6585 0
M  V30 574 N 70.7664 1.26389 6.81174 0
M  V30 575 N 72.5594 0.853662 5.5558 0
M  V30 576 H 64.7104 1.27433 1.69925 0
M  V30 577 H 66.9734 0.517511 0.794284 0
M  V30 578 H 66.6794 1.39694 3.22767 0
M  V30 579 H 66.5534 -0.269619 3.76235 0
M  V30 580 H 68.9404 -0.697275 2.86744 0
M  V30 581 H 69.0214 0.99486 2.35661 0
M  V30 582 H 68.6654 1.7199 4.77893 0
M  V30 583 H 68.5954 0.00768843 5.26599 0
M  V30 584 H 71.0864 0.409067 3.75679 0
M  V30 585 H 71.3994 1.4554 7.58972 0
M  V30 586 H 69.7444 1.30206 6.82694 0
M  V30 587 H 72.9354 0.590383 4.64362 0
M  V30 588 H 73.1084 1.0673 6.3915 0
M  V30 589 N 66.5145 -1.57545 0.0417849 0
M  V30 590 C 67.7605 -1.92601 -0.635021 0
M  V30 591 C 68.0935 -0.919627 -1.71045 0
M  V30 592 O 67.3685 0.0557892 -1.9442 0
M  V30 593 C 67.6515 -3.38085 -1.23979 0
M  V30 594 C 67.5045 -4.49467 -0.173057 0
M  V30 595 C 68.8235 -3.83776 -2.15416 0
M  V30 596 H 65.9425 -0.700397 -0.229374 0
M  V30 597 H 68.5845 -1.89728 0.101633 0
M  V30 598 H 66.7345 -3.40664 -1.86762 0
M  V30 599 H 68.4065 -4.59018 0.458312 0
M  V30 600 H 66.6495 -4.30909 0.499996 0
M  V30 601 H 67.3205 -5.48323 -0.636054 0
M  V30 602 H 69.7965 -3.83013 -1.62605 0
M  V30 603 H 68.6725 -4.8624 -2.54679 0
M  V30 604 H 68.9335 -3.19998 -3.05047 0
M  V30 605 N 67.9926 0.231505 -1.5589 0
M  V30 606 C 68.9226 1.29022 -1.94617 0
M  V30 607 C 69.9036 1.4941 -0.813067 0
M  V30 608 O 71.0886 1.6176 -1.07459 0
M  V30 609 C 68.2186 2.64199 -2.25424 0
M  V30 610 C 67.1726 2.58484 -3.41131 0
M  V30 611 C 66.4986 3.97599 -3.57518 0
M  V30 612 C 67.7986 2.1413 -4.76388 0
M  V30 613 H 69.4926 0.968563 -2.83301 0
M  V30 614 H 67.0386 0.464479 -1.36303 0
M  V30 615 H 68.9916 3.38413 -2.51107 0
M  V30 616 H 67.7156 2.98032 -1.33583 0
M  V30 617 H 66.3746 1.86727 -3.15481 0
M  V30 618 H 66.0226 4.28723 -2.6307 0
M  V30 619 H 65.7226 3.94659 -4.35337 0
M  V30 620 H 67.2466 4.7349 -3.85538 0
M  V30 621 H 68.6606 2.78083 -5.01341 0
M  V30 622 H 67.0576 2.2227 -5.57419 0
M  V30 623 H 68.1276 1.09331 -4.72414 0
M  V30 624 N 69.4707 1.49531 0.497807 0
M  V30 625 C 70.4007 1.6935 1.60757 0
M  V30 626 C 71.3817 0.542218 1.61227 0
M  V30 627 O 72.5667 0.778417 1.77917 0
M  V30 628 C 69.6967 1.76298 2.99226 0
M  V30 629 C 68.6507 2.91248 3.13622 0
M  V30 630 C 67.9767 2.83312 4.53474 0
M  V30 631 C 69.2767 4.3214 2.93346 0
M  V30 632 H 70.9707 2.62263 1.44425 0
M  V30 633 H 68.5167 1.26208 0.693367 0
M  V30 634 H 70.4697 1.88749 3.76765 0
M  V30 635 H 69.1937 0.799871 3.16654 0
M  V30 636 H 67.8527 2.78404 2.38509 0
M  V30 637 H 67.5007 1.84902 4.67782 0
M  V30 638 H 67.2007 3.60465 4.64046 0
M  V30 639 H 68.7247 2.97775 5.33069 0
M  V30 640 H 70.1387 4.45649 3.60652 0
M  V30 641 H 68.5357 5.1054 3.15387 0
M  V30 642 H 69.6057 4.46363 1.89441 0
M  V30 643 N 70.9488 -0.749086 1.3866 0
M  V30 644 C 71.8968 -1.88428 1.36373 0
M  V30 645 C 72.8908 -1.67561 0.248929 0
M  V30 646 O 74.0968 -1.75074 0.41821 0
M  V30 647 H 70.4718 -0.620023 0.42553 0
M  V30 648 H 72.4428 -1.87473 2.32156 0
M  V30 649 C 71.1918 -3.25961 1.21014 0
M  V30 650 H 70.5148 -3.42607 2.06059 0
M  V30 651 H 71.9548 -4.05625 1.23469 0
M  V30 652 C 70.4138 -3.36799 -0.0825941 0
M  V30 653 O 70.9438 -3.87517 -1.05797 0
M  V30 654 N 69.1498 -2.90258 -0.140939 0
M  V30 655 H 68.6968 -2.49174 0.653477 0
M  V30 656 H 68.6548 -2.97889 -1.00545 0
M  V30 657 N 72.4269 -1.23603 -0.977757 0
M  V30 658 C 73.6519 -1.09735 -1.75991 0
M  V30 659 C 74.0769 0.346858 -1.84874 0
M  V30 660 O 73.4349 1.25093 -1.3123 0
M  V30 661 C 73.4829 -1.73051 -3.16363 0
M  V30 662 O 72.5869 -0.994452 -4.0023 0
M  V30 663 H 71.9279 -0.384476 -0.541364 0
M  V30 664 H 74.4579 -1.6371 -1.2272 0
M  V30 665 H 74.4679 -1.78398 -3.66931 0
M  V30 666 H 73.1429 -2.78137 -3.09213 0
M  V30 667 H 71.7199 -1.01812 -3.58732 0
M  V30 668 N 73.905 1.17692 -1.04816 0
M  V30 669 C 74.868 2.19787 -0.650117 0
M  V30 670 C 75.868 1.58044 0.296427 0
M  V30 671 O 77.058 1.74012 0.0808097 0
M  V30 672 C 74.19 3.40869 0.0456987 0
M  V30 673 H 75.383 2.56516 -1.5537 0
M  V30 674 H 72.936 1.31708 -0.841594 0
M  V30 675 H 73.671 3.09681 0.962726 0
M  V30 676 H 73.456 3.86928 -0.634727 0
M  V30 677 H 74.946 4.16445 0.310432 0
M  V30 678 N 75.3831 0.828654 1.34056 0
M  V30 679 C 76.3461 0.259927 2.27721 0
M  V30 680 C 77.3461 -0.565478 1.50529 0
M  V30 681 O 78.5361 -0.38075 1.69988 0
M  V30 682 C 75.6681 -0.634944 3.34935 0
M  V30 683 H 76.8611 1.0863 2.79534 0
M  V30 684 H 74.4141 0.600951 1.44285 0
M  V30 685 H 75.1491 -1.48416 2.88346 0
M  V30 686 H 74.9341 -0.0444999 3.92075 0
M  V30 687 H 76.4241 -1.02648 4.04788 0
M  V30 688 N 76.8612 -1.46375 0.584142 0
M  V30 689 C 77.8242 -2.28784 -0.138108 0
M  V30 690 C 78.8242 -1.38471 -0.817462 0
M  V30 691 O 80.0142 -1.60833 -0.669199 0
M  V30 692 C 77.1462 -3.18892 -1.20503 0
M  V30 693 H 78.3392 -2.94117 0.586127 0
M  V30 694 H 75.8922 -1.52509 0.342171 0
M  V30 695 H 76.6272 -2.58309 -1.96079 0
M  V30 696 H 76.4122 -3.85388 -0.722384 0
M  V30 697 H 77.9022 -3.80914 -1.71155 0
M  V30 698 N 78.3393 -0.321999 -1.54275 0
M  V30 699 C 79.7553 0.0306999 -1.5957 0
M  V30 700 C 79.9553 1.50614 -1.33857 0
M  V30 701 O 79.0113 2.2619 -1.12223 0
M  V30 702 C 80.3243 -0.386122 -2.98211 0
M  V30 703 C 81.8723 -0.336647 -3.11184 0
M  V30 704 C 82.3473 -0.728607 -4.52167 0
M  V30 705 N 83.8383 -0.681952 -4.58152 0
M  V30 706 C 84.5733 -0.957449 -5.6535 0
M  V30 707 N 84.0693 -1.3 -6.80494 0
M  V30 708 N 85.8623 -0.883113 -5.55119 0
M  V30 709 H 78.0133 -1.28332 -1.69247 0
M  V30 710 H 80.2763 -0.521716 -0.791528 0
M  V30 711 H 79.9823 -1.41404 -3.22022 0
M  V30 712 H 79.8563 0.249662 -3.76373 0
M  V30 713 H 82.2433 0.682058 -2.8711 0
M  V30 714 H 82.3243 -1.00734 -2.3513 0
M  V30 715 H 81.9683 -1.74522 -4.76974 0
M  V30 716 H 81.8983 -0.0356152 -5.26588 0
M  V30 717 H 84.3893 -0.428985 -3.75457 0
M  V30 718 H 84.7023 -1.49563 -7.58189 0
M  V30 719 H 83.0473 -1.33824 -6.81994 0
M  V30 720 H 86.2383 -0.615001 -4.64042 0
M  V30 721 H 86.4113 -1.10118 -6.38575 0
M  V30 722 N 79.8174 1.5752 -0.0501392 0
M  V30 723 C 81.0654 1.9227 0.622642 0
M  V30 724 C 81.3864 0.929083 1.71444 0
M  V30 725 O 80.6564 -0.0262186 1.95882 0
M  V30 726 H 79.2364 0.709739 0.232981 0
M  V30 727 H 81.8984 1.94628 -0.102898 0
M  V30 728 H 80.9944 2.93479 1.06191 0
M  V30 729 N 81.2955 -0.223234 1.56011 0
M  V30 730 C 82.5725 -0.972108 1.69733 0
M  V30 731 C 82.9525 -2.02485 0.59691 0
M  V30 732 O 82.3005 -2.25037 -0.396324 0
M  V30 733 C 82.5105 -1.58407 3.10979 0
M  V30 734 C 83.8585 -2.07696 3.70334 0
M  V30 735 O 84.8825 -1.68304 3.1393 0
M  V30 736 O 83.7415 -2.80096 4.69264 0
M  V30 737 H 80.8355 -0.453993 0.691245 0
M  V30 738 H 83.3815 -0.215149 1.68331 0
M  V30 739 H 82.1535 -0.823831 3.82529 0
M  V30 740 H 81.7765 -2.40661 3.16493 0
M  V30 741 N 82.7736 -1.49793 -0.48987 0
M  V30 742 C 84.0216 -1.59525 -1.24081 0
M  V30 743 C 84.3426 -0.288953 -1.92847 0
M  V30 744 O 83.6126 0.692436 -1.83254 0
M  V30 745 H 82.1926 -0.587796 -0.460983 0
M  V30 746 H 84.8546 -1.86477 -0.566778 0
M  V30 747 H 83.9506 -2.39696 -1.99881 0
M  V30 748 N 84.2517 0.741722 -1.39055 0
M  V30 749 C 85.1817 1.869 -1.39966 0
M  V30 750 C 86.1627 1.6804 -0.26392 0
M  V30 751 O 87.3477 1.88458 -0.468755 0
M  V30 752 C 84.4777 3.24572 -1.23574 0
M  V30 753 C 83.4317 3.58056 -2.34477 0
M  V30 754 C 82.7577 4.94593 -2.0318 0
M  V30 755 C 84.0577 3.61716 -3.76774 0
M  V30 756 H 85.7517 1.86395 -2.34302 0
M  V30 757 H 83.2977 0.895361 -1.1278 0
M  V30 758 H 85.2507 4.031 -1.22834 0
M  V30 759 H 83.9747 3.25587 -0.257045 0
M  V30 760 H 82.6337 2.81854 -2.34423 0
M  V30 761 H 82.2817 4.92181 -1.03765 0
M  V30 762 H 81.9817 5.17964 -2.77465 0
M  V30 763 H 83.5057 5.75486 -2.04079 0
M  V30 764 H 84.9197 4.30335 -3.78794 0
M  V30 765 H 83.3167 3.96603 -4.50362 0
M  V30 766 H 84.3867 2.61672 -4.08235 0
M  V30 767 N 85.7298 1.2412 0.971189 0
M  V30 768 C 86.6598 1.05508 2.08304 0
M  V30 769 C 87.6408 -0.0308864 1.70072 0
M  V30 770 O 88.8258 0.135521 1.93727 0
M  V30 771 C 85.9558 0.655365 3.4106 0
M  V30 772 C 84.9098 1.68971 3.93234 0
M  V30 773 C 84.2358 1.14516 5.22293 0
M  V30 774 C 85.5358 3.08487 4.21465 0
M  V30 775 H 87.2298 1.98507 2.24132 0
M  V30 776 H 84.7758 0.955821 1.07704 0
M  V30 777 H 86.7288 0.51217 4.18276 0
M  V30 778 H 85.4528 -0.31032 3.25122 0
M  V30 779 H 84.1118 1.82106 3.18171 0
M  V30 780 H 83.7598 0.170189 5.02712 0
M  V30 781 H 83.4598 1.83635 5.58168 0
M  V30 782 H 84.9838 1.01401 6.02121 0
M  V30 783 H 86.3978 2.98601 4.89398 0
M  V30 784 H 84.7948 3.74926 4.68562 0
M  V30 785 H 85.8648 3.56787 3.28376 0
M  V30 786 N 87.2079 -1.17134 1.05439 0
M  V30 787 C 88.1379 -2.2342 0.678649 0
M  V30 788 C 89.1189 -1.66971 -0.32476 0
M  V30 789 O 90.3039 -1.93149 -0.201802 0
M  V30 790 C 87.4339 -3.47256 0.0552099 0
M  V30 791 C 86.3879 -4.16543 0.98365 0
M  V30 792 C 85.7139 -5.34231 0.223961 0
M  V30 793 C 87.0139 -4.68495 2.3089 0
M  V30 794 H 88.7079 -2.55105 1.56722 0
M  V30 795 H 86.2539 -1.2262 0.754998 0
M  V30 796 H 88.2069 -4.20828 -0.21946 0
M  V30 797 H 86.9309 -3.14846 -0.868319 0
M  V30 798 H 85.5899 -3.44887 1.24293 0
M  V30 799 H 85.2379 -4.98071 -0.702412 0
M  V30 800 H 84.9379 -5.81527 0.842627 0
M  V30 801 H 86.4619 -6.10585 -0.0433671 0
M  V30 802 H 87.8759 -5.33691 2.09396 0
M  V30 803 H 86.2729 -5.26379 2.88176 0
M  V30 804 H 87.3429 -3.85169 2.94572 0
M  V30 805 N 88.686 -0.835752 -1.33615 0
M  V30 806 C 89.616 -0.281739 -2.31794 0
M  V30 807 C 90.597 0.608833 -1.58831 0
M  V30 808 O 91.782 0.533035 -1.86741 0
M  V30 809 C 88.912 0.546612 -3.42971 0
M  V30 810 C 87.866 -0.247904 -4.27281 0
M  V30 811 C 87.192 0.704001 -5.30045 0
M  V30 812 C 88.492 -1.46324 -5.01385 0
M  V30 813 H 90.186 -1.10206 -2.78379 0
M  V30 814 H 87.732 -0.531388 -1.33837 0
M  V30 815 H 89.685 0.944467 -4.1068 0
M  V30 816 H 88.409 1.40011 -2.95067 0
M  V30 817 H 87.068 -0.627281 -3.61194 0
M  V30 818 H 86.716 1.55381 -4.78399 0
M  V30 819 H 86.416 0.176524 -5.87335 0
M  V30 820 H 87.94 1.09944 -6.0062 0
M  V30 821 H 89.354 -1.13871 -5.61877 0
M  V30 822 H 87.751 -1.92728 -5.6831 0
M  V30 823 H 88.821 -2.23467 -4.30338 0
M  V30 824 N 90.1641 1.46063 -0.591896 0
M  V30 825 C 91.4121 2.01938 -0.0808391 0
M  V30 826 C 91.7331 1.46475 1.28725 0
M  V30 827 O 91.0031 0.652944 1.84698 0
M  V30 828 H 89.5831 0.746516 -0.0268938 0
M  V30 829 H 92.2451 1.79055 -0.769752 0
M  V30 830 H 91.3411 3.12094 -0.0187578 0
M  V30 831 N 91.6422 0.330177 1.54103 0
M  V30 832 C 92.8702 -0.272179 2.05102 0
M  V30 833 C 93.2852 -1.45267 1.20595 0
M  V30 834 O 92.6422 -1.8094 0.238144 0
M  V30 835 C 92.6932 -0.70023 3.54653 0
M  V30 836 O 92.4142 0.433301 4.35952 0
M  V30 837 C 93.9152 -1.3647 4.21771 0
M  V30 838 H 91.1352 -0.0549159 0.668749 0
M  V30 839 H 93.6792 0.478285 1.98828 0
M  V30 840 H 91.8342 -1.40066 3.61193 0
M  V30 841 H 92.2482 0.0947539 5.24414 0
M  V30 842 H 93.7222 -1.61509 5.27843 0
M  V30 843 H 94.1992 -2.31409 3.73292 0
M  V30 844 H 94.8052 -0.706675 4.19388 0
M  V30 845 N 93.1203 -1.57491 0.0584922 0
M  V30 846 C 94.5363 -1.56792 -0.298091 0
M  V30 847 C 94.7363 -1.06679 -1.70944 0
M  V30 848 O 93.7923 -0.726672 -2.41818 0
M  V30 849 C 95.1053 -3.00461 -0.119879 0
M  V30 850 C 96.6533 -3.1242 -0.190428 0
M  V30 851 C 97.1283 -4.57982 -0.0406567 0
M  V30 852 N 98.6193 -4.63099 -0.0966958 0
M  V30 853 C 99.3543 -5.734 -0.00502943 0
M  V30 854 N 98.8503 -6.9266 0.139402 0
M  V30 855 N 100.643 -5.62067 -0.0611391 0
M  V30 856 H 92.7943 -1.88386 0.98105 0
M  V30 857 H 95.0573 -0.867865 0.381463 0
M  V30 858 H 94.7633 -3.41187 0.85349 0
M  V30 859 H 94.6373 -3.66843 -0.877833 0
M  V30 860 H 97.0243 -2.71589 -1.15427 0
M  V30 861 H 97.1053 -2.48702 0.598405 0
M  V30 862 H 96.7493 -4.995 0.919897 0
M  V30 863 H 96.6793 -5.19715 -0.848727 0
M  V30 864 H 99.1703 -3.77331 -0.207277 0
M  V30 865 H 99.4833 -7.72536 0.201855 0
M  V30 866 H 97.8283 -6.94781 0.174586 0
M  V30 867 H 101.019 -4.67782 -0.172583 0
M  V30 868 H 101.192 -6.47999 0.0137562 0
M  V30 869 N 94.5984 0.214957 -1.56127 0
M  V30 870 C 95.5614 1.24997 -1.92116 0
M  V30 871 C 96.5614 1.39467 -0.800344 0
M  V30 872 O 97.7514 1.37619 -1.06802 0
M  V30 873 C 94.8834 2.62271 -2.17777 0
M  V30 874 H 96.0764 0.942875 -2.84693 0
M  V30 875 H 93.6294 0.455654 -1.49511 0
M  V30 876 H 94.3644 2.98068 -1.27773 0
M  V30 877 H 94.1494 2.53143 -2.99434 0
M  V30 878 H 95.6394 3.36946 -2.46693 0
M  V30 879 N 96.0765 1.50051 0.48192 0
M  V30 880 C 97.0395 1.67584 1.5636 0
M  V30 881 C 98.0395 0.546894 1.51214 0
M  V30 882 O 99.2295 0.813725 1.54026 0
M  V30 883 C 96.3615 1.691 2.96003 0
M  V30 884 H 97.5545 2.64078 1.42136 0
M  V30 885 H 95.1075 1.39369 0.707533 0
M  V30 886 H 95.8425 0.742589 3.15684 0
M  V30 887 H 95.6275 2.51105 3.01146 0
M  V30 888 H 97.1175 1.84656 3.74556 0
M  V30 889 N 97.5546 -0.734337 1.39446 0
M  V30 890 C 98.7826 -1.52358 1.39981 0
M  V30 891 C 99.1976 -1.88799 -0.0054975 0
M  V30 892 O 98.5546 -1.54146 -0.976998 0
M  V30 893 C 98.6056 -2.81072 2.27333 0
M  V30 894 O 98.3266 -2.46178 3.62392 0
M  V30 895 C 99.8276 -3.75096 2.36259 0
M  V30 896 H 97.0476 -0.470806 0.478103 0
M  V30 897 H 99.5916 -0.907339 1.83269 0
M  V30 898 H 97.7466 -3.39026 1.87457 0
M  V30 899 H 98.1606 -3.28866 4.08592 0
M  V30 900 H 99.6346 -4.62305 3.01626 0
M  V30 901 H 100.112 -4.16892 1.38194 0
M  V30 902 H 100.718 -3.23061 2.76608 0
M  V30 903 N 99.0327 -1.24633 -0.964593 0
M  V30 904 C 99.9627 -1.06611 -2.07741 0
M  V30 905 C 100.944 0.0218666 -1.70086 0
M  V30 906 O 102.129 -0.145793 -1.93652 0
M  V30 907 C 99.2587 -0.673444 -3.40708 0
M  V30 908 C 98.2127 -1.71054 -3.92332 0
M  V30 909 C 97.5387 -1.17285 -5.21678 0
M  V30 910 C 98.8387 -3.10718 -4.19824 0
M  V30 911 H 100.533 -1.99693 -2.23076 0
M  V30 912 H 98.0787 -0.96152 -1.07195 0
M  V30 913 H 100.032 -0.534345 -4.17998 0
M  V30 914 H 98.7557 0.293073 -3.25282 0
M  V30 915 H 97.4147 -1.83791 -3.17201 0
M  V30 916 H 97.0627 -0.196847 -5.02615 0
M  V30 917 H 96.7627 -1.86592 -5.57187 0
M  V30 918 H 98.2867 -1.04593 -6.01575 0
M  V30 919 H 99.7007 -3.01192 -4.87808 0
M  V30 920 H 98.0977 -3.77406 -4.66567 0
M  V30 921 H 99.1677 -3.58524 -3.26479 0
M  V30 922 N 100.511 1.16574 -1.06058 0
M  V30 923 C 101.759 1.86677 -0.77434 0
M  V30 924 C 102.08 1.81959 0.701147 0
M  V30 925 O 101.35 1.2515 1.50713 0
M  V30 926 H 99.9298 0.691134 -0.283449 0
M  V30 927 H 102.592 1.41378 -1.34158 0
M  V30 928 H 101.688 2.92181 -1.09711 0
M  V30 929 N 101.989 0.842826 1.3317 0
M  V30 930 C 103.237 0.439577 1.97262 0
M  V30 931 C 103.558 -1.00548 1.67078 0
M  V30 932 O 102.828 -1.70098 0.971779 0
M  V30 933 H 101.408 0.159558 0.72976 0
M  V30 934 H 104.07 1.07665 1.62463 0
M  V30 935 H 103.166 0.574886 3.0676 0
M  V30 936 N 103.467 -1.45747 0.599634 0
M  V30 937 C 104.715 -2.01893 0.0915472 0
M  V30 938 C 105.036 -1.47155 -1.27946 0
M  V30 939 O 104.306 -0.66273 -1.84349 0
M  V30 940 H 102.886 -0.746363 0.0308524 0
M  V30 941 H 105.548 -1.78645 0.779237 0
M  V30 942 H 104.644 -3.1208 0.0353086 0
M  V30 943 N 104.945 -0.338344 -1.53925 0
M  V30 944 C 106.193 0.259245 -2.0043 0
M  V30 945 C 106.514 1.51484 -1.22791 0
M  V30 946 O 105.784 1.93037 -0.33368 0
M  V30 947 H 104.364 0.0987845 -0.740439 0
M  V30 948 H 107.026 -0.458302 -1.89435 0
M  V30 949 H 106.122 0.505334 -3.07982 0
M  V30 950 N 106.423 1.57458 -0.0668435 0
M  V30 951 C 107.671 1.92919 0.602214 0
M  V30 952 C 107.992 0.947215 1.70449 0
M  V30 953 O 107.262 -0.00544117 1.95899 0
M  V30 954 H 105.842 0.71217 0.22544 0
M  V30 955 H 108.504 1.94508 -0.123535 0
M  V30 956 H 107.6 2.94589 1.03073 0
M  V30 957 N 107.901 -0.206675 1.56239 0
M  V30 958 C 109.149 -0.927007 1.79586 0
M  V30 959 C 109.47 -1.8427 0.637929 0
M  V30 960 O 108.74 -1.92849 -0.344398 0
M  V30 961 H 107.32 -0.345292 0.662407 0
M  V30 962 H 109.982 -0.21496 1.93711 0
M  V30 963 H 109.078 -1.52501 2.72305 0
M  V30 964 N 109.379 -1.50304 -0.473955 0
M  V30 965 C 110.309 -1.71886 -1.58042 0
M  V30 966 C 111.29 -0.567799 -1.60344 0
M  V30 967 O 112.475 -0.806623 -1.76656 0
M  V30 968 C 109.605 -1.81036 -2.96384 0
M  V30 969 C 108.559 -2.962 -3.08949 0
M  V30 970 C 107.885 -2.9049 -4.48909 0
M  V30 971 C 109.185 -4.36752 -2.86434 0
M  V30 972 H 110.879 -2.64527 -1.40234 0
M  V30 973 H 108.425 -1.27295 -0.673201 0
M  V30 974 H 110.378 -1.94719 -3.73714 0
M  V30 975 H 109.102 -0.850147 -3.15341 0
M  V30 976 H 107.761 -2.82164 -2.3405 0
M  V30 977 H 107.409 -1.92321 -4.64781 0
M  V30 978 H 107.109 -3.67802 -4.58253 0
M  V30 979 H 108.633 -3.06218 -5.28264 0
M  V30 980 H 110.047 -4.5133 -3.53517 0
M  V30 981 H 108.444 -5.15493 -3.07225 0
M  V30 982 H 109.514 -4.49321 -1.82316 0
M  V30 983 N 110.857 0.726932 -1.39834 0
M  V30 984 C 112.273 1.03354 -1.21615 0
M  V30 985 C 112.473 2.01327 -0.08338 0
M  V30 986 O 111.529 2.46158 0.56238 0
M  V30 987 C 112.842 1.58811 -2.55342 0
M  V30 988 C 114.39 1.70851 -2.62257 0
M  V30 989 C 114.865 2.29716 -3.96225 0
M  V30 990 N 116.356 2.37116 -3.97907 0
M  V30 991 C 117.091 2.83619 -4.98345 0
M  V30 992 N 116.587 3.29958 -6.09179 0
M  V30 993 N 118.38 2.82901 -4.8572 0
M  V30 994 H 110.531 0.0773069 -2.12259 0
M  V30 995 H 112.794 0.0969102 -0.943034 0
M  V30 996 H 112.5 0.942855 -3.38826 0
M  V30 997 H 112.374 2.57502 -2.75632 0
M  V30 998 H 114.761 2.34497 -1.79152 0
M  V30 999 H 114.842 0.707913 -2.45809 0
M  V30 1000 H 114.486 1.66696 -4.79765 0
M  V30 1001 H 114.416 3.30469 -4.09997 0
M  V30 1002 H 116.907 2.04374 -3.17868 0
M  V30 1003 H 117.22 3.63976 -6.8172 0
M  V30 1004 H 115.565 3.27946 -6.12761 0
M  V30 1005 H 118.756 2.46027 -3.98231 0
M  V30 1006 H 118.929 3.18827 -5.6414 0
M  V30 1007 N 112.336 1.25143 0.95797 0
M  V30 1008 C 113.246 1.06968 2.08794 0
M  V30 1009 C 114.262 0.00773911 1.73998 0
M  V30 1010 O 115.438 0.207972 2.00323 0
M  V30 1011 C 112.503 0.68691 3.39827 0
M  V30 1012 C 111.564 1.82641 3.88511 0
M  V30 1013 C 110.797 1.46181 5.1329 0
M  V30 1014 O 111.02 0.355971 5.69288 0
M  V30 1015 O 109.954 2.29085 5.566 0
M  V30 1016 H 113.78 2.01723 2.27027 0
M  V30 1017 H 111.365 1.04051 1.07209 0
M  V30 1018 H 113.247 0.485417 4.18595 0
M  V30 1019 H 111.922 -0.231417 3.22872 0
M  V30 1020 H 110.829 2.08274 3.10762 0
M  V30 1021 H 112.162 2.72386 4.09959 0
M  V30 1022 N 113.814 -1.1601 1.06675 0
M  V30 1023 C 115.039 -1.91068 0.806706 0
M  V30 1024 C 115.464 -1.77112 -0.633485 0
M  V30 1025 O 114.822 -1.09908 -1.44187 0
M  V30 1026 C 114.87 -3.39655 1.21106 0
M  V30 1027 O 113.974 -4.10893 0.352189 0
M  V30 1028 H 113.315 -0.595125 0.294486 0
M  V30 1029 H 115.845 -1.46955 1.42356 0
M  V30 1030 H 115.855 -3.90434 1.18428 0
M  V30 1031 H 114.53 -3.49132 2.26008 0
M  V30 1032 H 113.107 -3.70285 0.440868 0
M  V30 1033 N 115.292 -0.849877 -1.32721 0
M  V30 1034 C 116.708 -0.539102 -1.50219 0
M  V30 1035 C 116.908 0.931271 -1.78689 0
M  V30 1036 O 115.964 1.71455 -1.85363 0
M  V30 1037 C 117.277 -1.42196 -2.64954 0
M  V30 1038 C 118.825 -1.42189 -2.78839 0
M  V30 1039 C 119.3 -2.28985 -3.96648 0
M  V30 1040 N 120.791 -2.26754 -4.03902 0
M  V30 1041 C 121.526 -2.90644 -4.94281 0
M  V30 1042 N 121.022 -3.63629 -5.897 0
M  V30 1043 N 122.815 -2.80057 -4.87365 0
M  V30 1044 H 114.966 -1.80156 -1.12506 0
M  V30 1045 H 117.229 -0.769217 -0.554085 0
M  V30 1046 H 116.935 -2.46733 -2.50631 0
M  V30 1047 H 116.809 -1.10591 -3.60624 0
M  V30 1048 H 119.196 -0.38419 -2.92588 0
M  V30 1049 H 119.277 -1.77807 -1.83898 0
M  V30 1050 H 118.921 -3.32819 -3.83658 0
M  V30 1051 H 118.851 -1.90702 -4.90857 0
M  V30 1052 H 121.342 -1.73688 -3.3562 0
M  V30 1053 H 121.655 -4.09558 -6.55349 0
M  V30 1054 H 120 -3.67737 -5.89741 0
M  V30 1055 H 123.191 -2.22593 -4.11789 0
M  V30 1056 H 123.364 -3.30132 -5.57599 0
M  V30 1057 N 116.77 1.45427 -0.607355 0
M  V30 1058 C 118.186 1.57283 -0.270985 0
M  V30 1059 C 118.386 1.59875 1.22647 0
M  V30 1060 O 117.442 1.52893 2.00948 0
M  V30 1061 C 118.755 2.85566 -0.941952 0
M  V30 1062 C 120.303 2.9924 -0.917849 0
M  V30 1063 C 120.778 4.30293 -1.56882 0
M  V30 1064 N 122.269 4.37051 -1.5343 0
M  V30 1065 C 123.004 5.37123 -2.00715 0
M  V30 1066 N 122.5 6.43734 -2.56084 0
M  V30 1067 N 124.293 5.28479 -1.91484 0
M  V30 1068 H 116.444 1.41988 -1.57966 0
M  V30 1069 H 118.707 0.67885 -0.661715 0
M  V30 1070 H 118.413 2.8955 -1.99633 0
M  V30 1071 H 118.287 3.74322 -0.465096 0
M  V30 1072 H 120.674 2.94822 0.127984 0
M  V30 1073 H 120.755 2.11895 -1.43297 0
M  V30 1074 H 120.399 4.35469 -2.61398 0
M  V30 1075 H 120.329 5.16454 -1.02873 0
M  V30 1076 H 122.82 3.60615 -1.12982 0
M  V30 1077 H 123.133 7.16341 -2.89958 0
M  V30 1078 H 121.478 6.44485 -2.60122 0
M  V30 1079 H 124.669 4.44098 -1.47967 0
M  V30 1080 H 124.842 6.0632 -2.28648 0
M  V30 1081 N 118.248 0.346503 1.53744 0
M  V30 1082 C 119.496 -0.248612 2.00565 0
M  V30 1083 C 119.817 -1.5083 1.23593 0
M  V30 1084 O 119.087 -1.92858 0.343912 0
M  V30 1085 H 117.667 -0.0948564 0.740953 0
M  V30 1086 H 120.329 0.468341 1.89189 0
M  V30 1087 H 119.425 -0.488994 3.08245 0
M  V30 1088 N 119.726 -1.57421 0.075193 0
M  V30 1089 C 120.673 -2.12915 -0.890843 0
M  V30 1090 C 121.643 -1.04252 -1.29309 0
M  V30 1091 O 122.828 -1.31933 -1.37834 0
M  V30 1092 C 119.968 -2.69795 -2.15186 0
M  V30 1093 C 119.081 -3.92624 -1.80194 0
M  V30 1094 C 118.216 -4.37736 -3.00933 0
M  V30 1095 C 117.255 -5.53205 -2.61974 0
M  V30 1096 N 116.392 -5.9326 -3.75483 0
M  V30 1097 H 121.232 -2.95156 -0.410735 0
M  V30 1098 H 118.769 -1.45854 -0.191086 0
M  V30 1099 H 120.727 -3.00883 -2.89008 0
M  V30 1100 H 119.357 -1.90313 -2.60731 0
M  V30 1101 H 118.409 -3.67977 -0.964218 0
M  V30 1102 H 119.721 -4.76482 -1.47534 0
M  V30 1103 H 118.875 -4.70503 -3.8303 0
M  V30 1104 H 117.614 -3.52739 -3.36789 0
M  V30 1105 H 116.619 -5.20086 -1.783 0
M  V30 1106 H 117.844 -6.39936 -2.27284 0
M  V30 1107 H 115.79 -5.11212 -4.11094 0
M  V30 1108 H 115.707 -6.71865 -3.46602 0
M  V30 1109 H 116.975 -6.30651 -4.58148 0
M  V30 1110 N 121.204 0.198386 -1.56346 0
M  V30 1111 C 122.136 1.26987 -1.90806 0
M  V30 1112 C 123.149 1.41877 -0.798419 0
M  V30 1113 O 124.338 1.42362 -1.07682 0
M  V30 1114 C 121.438 2.64246 -2.12196 0
M  V30 1115 C 120.611 2.71007 -3.43328 0
M  V30 1116 C 119.67 3.89439 -3.5387 0
M  V30 1117 O 118.696 3.76695 -4.26719 0
M  V30 1118 N 119.898 5.04752 -2.86715 0
M  V30 1119 H 122.663 0.977433 -2.83313 0
M  V30 1120 H 120.224 0.388322 -1.57174 0
M  V30 1121 H 122.216 3.41896 -2.1654 0
M  V30 1122 H 120.786 2.85992 -1.26204 0
M  V30 1123 H 120.006 1.79657 -3.50881 0
M  V30 1124 H 121.294 2.72512 -4.29668 0
M  V30 1125 H 120.692 5.18004 -2.2735 0
M  V30 1126 H 119.249 5.8036 -2.96691 0
M  V30 1127 N 122.682 1.50554 0.465978 0
M  V30 1128 C 123.93 1.61479 1.21528 0
M  V30 1129 C 124.251 0.319596 1.92363 0
M  V30 1130 O 123.521 -0.663194 1.84333 0
M  V30 1131 H 122.101 0.595055 0.451573 0
M  V30 1132 H 124.763 1.87355 0.53704 0
M  V30 1133 H 123.859 2.42846 1.96042 0
M  V30 1134 N 124.16 -0.719506 1.40217 0
M  V30 1135 C 125.123 -1.8153 1.39927 0
M  V30 1136 C 126.123 -1.58095 0.293723 0
M  V30 1137 O 127.313 -1.65209 0.552429 0
M  V30 1138 C 124.445 -3.19561 1.18716 0
M  V30 1139 H 125.638 -1.83186 2.37451 0
M  V30 1140 H 123.191 -0.924746 1.26008 0
M  V30 1141 H 123.926 -3.23557 0.219366 0
M  V30 1142 H 123.711 -3.3797 1.98793 0
M  V30 1143 H 125.201 -3.99598 1.21291 0
M  V30 1144 N 125.638 -1.25649 -0.95132 0
M  V30 1145 C 127.054 -1.02542 -1.223 0
M  V30 1146 C 127.254 0.255715 -1.99871 0
M  V30 1147 O 126.31 0.967558 -2.33226 0
M  V30 1148 C 127.623 -2.25065 -1.99415 0
M  V30 1149 C 129.171 -2.29861 -2.12446 0
M  V30 1150 C 129.646 -3.52048 -2.92961 0
M  V30 1151 N 131.137 -3.52465 -3.00538 0
M  V30 1152 C 131.872 -4.43672 -3.63239 0
M  V30 1153 N 131.368 -5.45157 -4.27523 0
M  V30 1154 N 133.161 -4.31346 -3.60412 0
M  V30 1155 H 125.312 -2.07951 -0.432471 0
M  V30 1156 H 127.575 -0.91339 -0.253816 0
M  V30 1157 H 127.281 -3.18194 -1.49817 0
M  V30 1158 H 127.155 -2.28502 -3.00111 0
M  V30 1159 H 129.542 -1.37252 -2.61239 0
M  V30 1160 H 129.623 -2.3044 -1.11044 0
M  V30 1161 H 129.267 -4.44981 -2.44856 0
M  V30 1162 H 129.197 -3.48715 -3.94596 0
M  V30 1163 H 131.688 -2.79056 -2.54826 0
M  V30 1164 H 132.001 -6.10958 -4.73234 0
M  V30 1165 H 130.346 -5.49025 -4.26141 0
M  V30 1166 H 133.537 -3.51288 -3.09377 0
M  V30 1167 H 133.71 -5.02624 -4.0899 0
M  V30 1168 N 127.117 1.15442 -1.07289 0
M  V30 1169 C 128.05 2.19135 -0.636798 0
M  V30 1170 C 129.028 1.58884 0.34562 0
M  V30 1171 O 130.212 1.86805 0.252195 0
M  V30 1172 C 127.339 3.38638 0.0650014 0
M  V30 1173 C 126.385 4.17412 -0.87576 0
M  V30 1174 S 127.218 4.79882 -2.37642 0
M  V30 1175 C 128.374 6.02753 -1.6864 0
M  V30 1176 H 128.607 2.55787 -1.51526 0
M  V30 1177 H 126.14 1.26394 -0.886793 0
M  V30 1178 H 128.098 4.07873 0.463664 0
M  V30 1179 H 126.759 3.00331 0.919801 0
M  V30 1180 H 125.952 5.02909 -0.33143 0
M  V30 1181 H 125.554 3.53722 -1.21478 0
M  V30 1182 H 127.846 6.70113 -0.997753 0
M  V30 1183 H 128.789 6.61754 -2.51967 0
M  V30 1184 H 129.197 5.52355 -1.16465 0
M  V30 1185 N 128.595 0.856903 1.32268 0
M  V30 1186 C 129.82 0.474569 2.01897 0
M  V30 1187 C 130.245 -0.921766 1.63967 0
M  V30 1188 O 129.603 -1.60589 0.84148 0
M  V30 1189 C 129.651 0.623799 3.55164 0
M  V30 1190 O 128.755 -0.342459 4.10976 0
M  V30 1191 H 128.096 0.190422 0.63611 0
M  V30 1192 H 130.626 1.15672 1.68764 0
M  V30 1193 H 130.636 0.512169 4.04773 0
M  V30 1194 H 129.311 1.64202 3.82113 0
M  V30 1195 H 127.888 -0.18688 3.72431 0
M  V30 1196 N 130.073 -1.45103 0.615059 0
M  V30 1197 C 131.003 -2.33339 -0.0865619 0
M  V30 1198 C 131.984 -1.4727 -0.851209 0
M  V30 1199 O 133.169 -1.76026 -0.820281 0
M  V30 1200 C 130.299 -3.30095 -1.07956 0
M  V30 1201 C 129.253 -4.25858 -0.427628 0
M  V30 1202 C 128.579 -5.12361 -1.5294 0
M  V30 1203 C 129.879 -5.18165 0.655944 0
M  V30 1204 H 131.573 -2.92254 0.650224 0
M  V30 1205 H 129.119 -1.40532 0.314138 0
M  V30 1206 H 131.072 -3.90698 -1.57901 0
M  V30 1207 H 129.796 -2.69355 -1.84703 0
M  V30 1208 H 128.455 -3.66564 0.0510292 0
M  V30 1209 H 128.103 -4.47984 -2.28734 0
M  V30 1210 H 127.803 -5.77238 -1.09865 0
M  V30 1211 H 129.327 -5.75833 -2.03098 0
M  V30 1212 H 130.741 -5.72796 0.240257 0
M  V30 1213 H 129.138 -5.91559 1.00888 0
M  V30 1214 H 130.208 -4.60144 1.52957 0
M  V30 1215 N 131.551 -0.354651 -1.53558 0
M  V30 1216 C 132.481 0.489091 -2.2832 0
M  V30 1217 C 133.462 1.09324 -1.30316 0
M  V30 1218 O 134.647 1.11255 -1.59173 0
M  V30 1219 C 131.777 1.63456 -3.0643 0
M  V30 1220 C 130.731 1.1582 -4.12031 0
M  V30 1221 C 130.057 2.39305 -4.7816 0
M  V30 1222 C 131.357 0.250731 -5.21698 0
M  V30 1223 H 133.051 -0.134614 -2.99097 0
M  V30 1224 H 130.597 -0.0661826 -1.43848 0
M  V30 1225 H 132.55 2.23136 -3.57475 0
M  V30 1226 H 131.274 2.28533 -2.33325 0
M  V30 1227 H 129.933 0.584146 -3.61916 0
M  V30 1228 H 129.581 3.02814 -4.01637 0
M  V30 1229 H 129.281 2.08109 -5.49513 0
M  V30 1230 H 130.805 2.99691 -5.31994 0
M  V30 1231 H 132.219 0.754695 -5.68311 0
M  V30 1232 H 130.616 0.0301468 -6.00092 0
M  V30 1233 H 131.686 -0.710125 -4.79672 0
M  V30 1234 N 133.029 1.57378 -0.0835403 0
M  V30 1235 C 134.277 1.93547 0.581718 0
M  V30 1236 C 134.598 0.96524 1.69435 0
M  V30 1237 O 133.868 0.0153369 1.95894 0
M  V30 1238 H 132.448 0.714521 0.217874 0
M  V30 1239 H 135.11 1.94366 -0.144158 0
M  V30 1240 H 134.206 2.95665 0.999423 0
M  V30 1241 N 134.507 -0.190092 1.56449 0
M  V30 1242 C 135.454 -1.23557 1.94942 0
M  V30 1243 C 136.424 -1.44972 0.810696 0
M  V30 1244 O 137.609 -1.58023 1.06927 0
M  V30 1245 C 134.749 -2.57416 2.2985 0
M  V30 1246 C 133.862 -2.43537 3.5681 0
M  V30 1247 C 132.997 -3.70134 3.81017 0
M  V30 1248 C 132.036 -3.51109 5.01387 0
M  V30 1249 N 131.173 -4.6973 5.21822 0
M  V30 1250 H 136.013 -0.900304 2.84075 0
M  V30 1251 H 133.55 -0.43318 1.40577 0
M  V30 1252 H 135.508 -3.35409 2.48106 0
M  V30 1253 H 134.138 -2.88975 1.43852 0
M  V30 1254 H 133.19 -1.56816 3.46573 0
M  V30 1255 H 134.502 -2.25415 4.4496 0
M  V30 1256 H 133.656 -4.56566 3.9954 0
M  V30 1257 H 132.395 -3.91215 2.91207 0
M  V30 1258 H 131.4 -2.63063 4.82782 0
M  V30 1259 H 132.625 -3.31468 5.9271 0
M  V30 1260 H 130.571 -4.91065 4.34961 0
M  V30 1261 H 130.488 -4.54452 6.0416 0
M  V30 1262 H 131.756 -5.57499 5.44808 0
M  V30 1263 N 135.985 -1.50799 -0.457987 0
M  V30 1264 C 137.396 -1.55152 -1.0385 0
M  V30 1265 C 137.747 -0.362719 -1.92818 0
M  V30 1266 O 136.872 0.522915 -2.09987 0
M  V30 1267 C 137.467 -2.81173 -1.89017 0
M  V30 1268 C 136.026 -2.88164 -2.42154 0
M  V30 1269 C 135.173 -2.49591 -1.20829 0
M  V30 1270 H 138.124 -1.56874 -0.240068 0
M  V30 1271 H 138.145 -2.63769 -2.74238 0
M  V30 1272 H 137.657 -3.67677 -1.24238 0
M  V30 1273 H 135.758 -2.06042 -3.10447 0
M  V30 1274 H 135.871 -3.91356 -2.76364 0
M  V30 1275 H 134.235 -2.02322 -1.54719 0
M  V30 1276 H 135.018 -3.38418 -0.576927 0
M  V30 1277 N 137.463 0.71206 -1.40597 0
M  V30 1278 C 138.393 1.83889 -1.43899 0
M  V30 1279 C 139.374 1.67442 -0.299504 0
M  V30 1280 O 140.559 1.87421 -0.508624 0
M  V30 1281 C 137.689 3.21877 -1.30431 0
M  V30 1282 C 136.643 3.53002 -2.42019 0
M  V30 1283 C 135.969 4.90172 -2.13626 0
M  V30 1284 C 137.269 3.53643 -3.84362 0
M  V30 1285 H 138.963 1.81383 -2.38203 0
M  V30 1286 H 136.509 0.871237 -1.14654 0
M  V30 1287 H 138.462 4.00404 -1.31357 0
M  V30 1288 H 137.186 3.24968 -0.326049 0
M  V30 1289 H 135.845 2.76818 -2.40349 0
M  V30 1290 H 135.493 4.89869 -1.14182 0
M  V30 1291 H 135.193 5.11962 -2.88389 0
M  V30 1292 H 136.717 5.71028 -2.1624 0
M  V30 1293 H 138.131 4.22203 -3.87837 0
M  V30 1294 H 136.528 3.86961 -4.58673 0
M  V30 1295 H 137.598 2.52954 -4.13693 0
M  V30 1296 N 138.941 1.26152 0.944643 0
M  V30 1297 C 140.166 1.14363 1.7302 0
M  V30 1298 C 140.591 -0.29772 1.85729 0
M  V30 1299 O 139.949 -1.2157 1.34501 0
M  V30 1300 C 139.997 1.81378 3.11664 0
M  V30 1301 O 139.101 1.10022 3.97453 0
M  V30 1302 H 138.442 0.398694 0.53098 0
M  V30 1303 H 140.972 1.66906 1.18337 0
M  V30 1304 H 140.982 1.88064 3.62072 0
M  V30 1305 H 139.657 2.86237 3.0173 0
M  V30 1306 H 138.234 1.11287 3.55907 0
M  V30 1307 N 140.419 -1.14872 1.07899 0
M  V30 1308 C 141.649 -1.89386 0.825631 0
M  V30 1309 C 142.057 -1.78565 -0.625406 0
M  V30 1310 O 141.4 -1.13918 -1.44113 0
M  V30 1311 C 141.462 -3.40206 1.16191 0
M  V30 1312 C 141.126 -3.74812 2.61467 0
M  V30 1313 C 142.123 -3.75367 3.59716 0
M  V30 1314 C 139.808 -4.0495 2.97189 0
M  V30 1315 C 141.802 -4.05574 4.9172 0
M  V30 1316 C 139.489 -4.34821 4.29388 0
M  V30 1317 C 140.487 -4.35116 5.26463 0
M  V30 1318 O 140.175 -4.64267 6.56286 0
M  V30 1319 H 139.907 -0.606894 0.297751 0
M  V30 1320 H 142.461 -1.46438 1.44031 0
M  V30 1321 H 140.691 -3.8358 0.490214 0
M  V30 1322 H 142.38 -3.96018 0.890193 0
M  V30 1323 H 143.146 -3.52176 3.33462 0
M  V30 1324 H 139.025 -4.03876 2.22273 0
M  V30 1325 H 142.569 -4.05719 5.67484 0
M  V30 1326 H 138.466 -4.5748 4.55392 0
M  V30 1327 H 139.234 -4.82007 6.61522 0
M  V30 1328 N 141.898 -0.863906 -1.31812 0
M  V30 1329 C 143.126 -0.486111 -2.01108 0
M  V30 1330 C 143.541 0.919755 -1.64882 0
M  V30 1331 O 142.898 1.60162 -0.874893 0
M  V30 1332 C 142.949 -0.626435 -3.56031 0
M  V30 1333 O 142.67 -1.97693 -3.90959 0
M  V30 1334 C 144.171 -0.248857 -4.42601 0
M  V30 1335 H 141.391 -0.190052 -0.643523 0
M  V30 1336 H 143.935 -1.1634 -1.68182 0
M  V30 1337 H 142.09 0.00322717 -3.874 0
M  V30 1338 H 142.504 -1.98034 -4.85678 0
M  V30 1339 H 143.978 -0.398016 -5.50563 0
M  V30 1340 H 144.455 0.811489 -4.31638 0
M  V30 1341 H 145.061 -0.853971 -4.16638 0
M  V30 1342 N 143.376 1.44774 -0.622745 0
M  V30 1343 C 144.601 2.06999 -0.128968 0
M  V30 1344 C 145.026 1.4617 1.1839 0
M  V30 1345 O 144.384 0.560007 1.72434 0
M  V30 1346 C 144.432 3.60595 -0.0188351 0
M  V30 1347 O 143.536 3.99398 1.02739 0
M  V30 1348 H 142.877 0.659047 -0.0809544 0
M  V30 1349 H 145.407 1.85784 -0.85705 0
M  V30 1350 H 145.417 4.07627 0.174476 0
M  V30 1351 H 144.092 4.04252 -0.977384 0
M  V30 1352 H 142.669 3.64011 0.809326 0
M  V30 1353 N 144.854 0.36279 1.53368 0
M  V30 1354 C 146.079 -0.231226 2.06107 0
M  V30 1355 C 146.504 -1.419 1.23474 0
M  V30 1356 O 145.862 -1.79524 0.253128 0
M  V30 1357 C 145.91 -0.605523 3.5548 0
M  V30 1358 O 145.014 -1.70312 3.7559 0
M  V30 1359 H 144.355 -0.034327 0.663112 0
M  V30 1360 H 146.885 0.522584 1.97814 0
M  V30 1361 H 146.895 -0.877314 3.98456 0
M  V30 1362 H 145.57 0.263004 4.15068 0
M  V30 1363 H 144.147 -1.4271 3.44512 0
M  V30 1364 N 146.332 -1.57332 0.0918853 0
M  V30 1365 C 147.264 -2.10869 -0.898168 0
M  V30 1366 C 148.277 -1.04521 -1.24817 0
M  V30 1367 O 149.466 -1.31977 -1.20184 0
M  V30 1368 C 146.566 -2.57083 -2.2082 0
M  V30 1369 C 145.739 -3.87229 -2.03402 0
M  V30 1370 C 144.798 -4.19324 -3.17889 0
M  V30 1371 O 143.824 -4.88598 -2.91994 0
M  V30 1372 N 145.026 -3.74471 -4.43567 0
M  V30 1373 H 147.791 -2.96439 -0.440943 0
M  V30 1374 H 145.352 -1.61631 -0.0933064 0
M  V30 1375 H 147.344 -2.75602 -2.96354 0
M  V30 1376 H 145.914 -1.76541 -2.57977 0
M  V30 1377 H 145.134 -3.7789 -1.12218 0
M  V30 1378 H 146.422 -4.72379 -1.89038 0
M  V30 1379 H 145.82 -3.18546 -4.67488 0
M  V30 1380 H 144.377 -3.98151 -5.16061 0
M  V30 1381 N 147.81 0.181792 -1.56548 0
M  V30 1382 C 149.035 0.920019 -1.85877 0
M  V30 1383 C 149.46 1.75494 -0.677021 0
M  V30 1384 O 148.818 1.77399 0.374056 0
M  V30 1385 C 148.866 1.78112 -3.13542 0
M  V30 1386 O 147.97 2.88152 -2.95029 0
M  V30 1387 H 147.311 0.258334 -0.611686 0
M  V30 1388 H 149.841 0.183092 -2.03779 0
M  V30 1389 H 149.851 2.18314 -3.44678 0
M  V30 1390 H 148.526 1.16777 -3.99169 0
M  V30 1391 H 147.103 2.51609 -2.75222 0
M  V30 1392 N 149.288 1.51039 0.449983 0
M  V30 1393 C 150.528 1.64732 1.21007 0
M  V30 1394 C 150.892 0.349865 1.88785 0
M  V30 1395 O 152.093 0.362431 2.66345 0
M  V30 1396 C 150.364 2.80902 2.20973 0
M  V30 1397 S 151.923 3.14851 3.05638 0
M  V30 1398 H 148.741 0.5805 0.410538 0
M  V30 1399 H 151.343 1.88901 0.503634 0
M  V30 1400 H 150.047 3.73627 1.69796 0
M  V30 1401 H 149.578 2.58882 2.96215 0
M  V30 1402 H 151.593 2.60306 4.22439 0
M  V30 1403 N 150.766 -0.704594 1.40972 0
M  V30 1404 C 152.182 -1.01406 1.23244 0
M  V30 1405 C 152.382 -2.01169 0.115399 0
M  V30 1406 O 151.438 -2.47021 -0.523147 0
M  V30 1407 C 152.751 -1.54728 2.57836 0
M  V30 1408 C 154.299 -1.66658 2.64942 0
M  V30 1409 C 154.774 -2.23383 3.9983 0
M  V30 1410 N 156.265 -2.30756 4.01629 0
M  V30 1411 C 157 -2.75655 5.02794 0
M  V30 1412 N 156.496 -3.20225 6.14352 0
M  V30 1413 N 158.289 -2.75138 4.90159 0
M  V30 1414 H 150.44 -0.0435285 2.12355 0
M  V30 1415 H 152.703 -0.0818951 0.944456 0
M  V30 1416 H 152.409 -0.888832 3.40283 0
M  V30 1417 H 152.283 -2.53084 2.79693 0
M  V30 1418 H 154.67 -2.31617 1.8286 0
M  V30 1419 H 154.751 -0.668717 2.46904 0
M  V30 1420 H 154.395 -1.59043 4.82357 0
M  V30 1421 H 154.325 -3.23904 4.15203 0
M  V30 1422 H 156.816 -1.99291 3.21079 0
M  V30 1423 H 157.129 -3.53084 6.87424 0
M  V30 1424 H 155.474 -3.18156 6.17901 0
M  V30 1425 H 158.665 -2.39661 4.02095 0
M  V30 1426 H 158.838 -3.09812 5.6914 0
M  V30 1427 N 152.244 -1.26651 -0.937939 0
M  V30 1428 C 153.66 -1.03834 -1.21205 0
M  V30 1429 C 153.86 0.234502 -2.00131 0
M  V30 1430 O 152.916 0.942767 -2.3424 0
M  V30 1431 C 154.229 -2.27167 -1.97017 0
M  V30 1432 C 155.777 -2.32101 -2.09996 0
M  V30 1433 C 156.252 -3.55136 -2.8921 0
M  V30 1434 N 157.743 -3.55632 -2.96783 0
M  V30 1435 C 158.478 -4.475 -3.58512 0
M  V30 1436 N 157.974 -5.4966 -4.21717 0
M  V30 1437 N 159.767 -4.35145 -3.55816 0
M  V30 1438 H 151.918 -2.08398 -0.410391 0
M  V30 1439 H 154.181 -0.916031 -0.244114 0
M  V30 1440 H 153.887 -3.19765 -1.46434 0
M  V30 1441 H 153.761 -2.31672 -2.97671 0
M  V30 1442 H 156.148 -1.40015 -2.59769 0
M  V30 1443 H 156.229 -2.31605 -1.08594 0
M  V30 1444 H 155.873 -4.47553 -2.40123 0
M  V30 1445 H 155.803 -3.5288 -3.90875 0
M  V30 1446 H 158.294 -2.81743 -2.51852 0
M  V30 1447 H 158.607 -6.15943 -4.66727 0
M  V30 1448 H 156.952 -5.53514 -4.20294 0
M  V30 1449 H 160.143 -3.5455 -3.05634 0
M  V30 1450 H 160.316 -5.06934 -4.03636 0
M  V30 1451 N 153.722 1.14298 -1.08507 0
M  V30 1452 C 154.67 2.21483 -0.710483 0
M  V30 1453 C 155.664 1.66998 0.284234 0
M  V30 1454 O 156.87 1.79401 0.146692 0
M  V30 1455 H 153.245 0.721578 -0.211729 0
M  V30 1456 H 155.216 2.50348 -1.62384 0
M  V30 1457 C 153.965 3.4743 -0.137007 0
M  V30 1458 H 153.288 3.89686 -0.893592 0
M  V30 1459 H 154.728 4.2391 0.0872789 0
M  V30 1460 C 153.187 3.17548 1.12538 0
M  V30 1461 O 153.717 3.35437 2.21009 0
M  V30 1462 N 151.923 2.71499 1.03617 0
M  V30 1463 H 151.47 2.57143 0.153403 0
M  V30 1464 H 151.428 2.51881 1.88158 0
M  V30 1465 N 155.201 0.870884 1.31352 0
M  V30 1466 C 156.447 0.482987 1.96965 0
M  V30 1467 C 156.78 -0.962462 1.68672 0
M  V30 1468 O 156.055 -1.6779 0.98371 0
M  V30 1469 C 156.338 0.741752 3.52378 0
M  V30 1470 C 156.191 2.2368 3.9024 0
M  V30 1471 C 157.51 0.208838 4.39604 0
M  V30 1472 H 154.629 0.176955 0.715441 0
M  V30 1473 H 157.271 1.09229 1.55464 0
M  V30 1474 H 155.421 0.223149 3.87859 0
M  V30 1475 H 157.093 2.82273 3.64856 0
M  V30 1476 H 155.336 2.70901 3.38814 0
M  V30 1477 H 156.007 2.3685 4.98604 0
M  V30 1478 H 158.483 0.652529 4.10952 0
M  V30 1479 H 157.359 0.419336 5.47296 0
M  V30 1480 H 157.62 -0.889275 4.33064 0
M  V30 1481 N 156.679 -1.44442 0.630414 0
M  V30 1482 C 157.626 -2.30678 -0.0749355 0
M  V30 1483 C 158.596 -1.4344 -0.837502 0
M  V30 1484 O 159.781 -1.72343 -0.818684 0
M  V30 1485 C 156.921 -3.28706 -1.05103 0
M  V30 1486 C 156.034 -4.31046 -0.286954 0
M  V30 1487 C 155.169 -5.16167 -1.2548 0
M  V30 1488 C 154.208 -6.10216 -0.479843 0
M  V30 1489 N 153.345 -6.88039 -1.39811 0
M  V30 1490 H 158.185 -2.90454 0.666386 0
M  V30 1491 H 155.722 -1.43107 0.340404 0
M  V30 1492 H 157.68 -3.84027 -1.63031 0
M  V30 1493 H 156.31 -2.70632 -1.75949 0
M  V30 1494 H 155.362 -3.78203 0.408243 0
M  V30 1495 H 156.674 -4.97794 0.316657 0
M  V30 1496 H 155.828 -5.76002 -1.90544 0
M  V30 1497 H 154.567 -4.49491 -1.89233 0
M  V30 1498 H 153.572 -5.49491 0.184295 0
M  V30 1499 H 154.797 -6.78928 0.152965 0
M  V30 1500 H 152.743 -6.24032 -2.02287 0
M  V30 1501 H 152.66 -7.51223 -0.848508 0
M  V30 1502 H 153.928 -7.52397 -2.03762 0
M  V30 1503 N 158.157 -0.370918 -1.53173 0
M  V30 1504 C 159.387 0.217389 -2.05453 0
M  V30 1505 C 159.795 1.42568 -1.24382 0
M  V30 1506 O 159.138 1.81571 -0.278839 0
M  V30 1507 C 159.2 0.669827 -3.53205 0
M  V30 1508 C 158.864 -0.4225 -4.55043 0
M  V30 1509 C 159.861 -1.27407 -5.04047 0
M  V30 1510 C 157.546 -0.58427 -4.9889 0
M  V30 1511 C 159.54 -2.27271 -5.95505 0
M  V30 1512 C 157.227 -1.58627 -5.90153 0
M  V30 1513 C 158.225 -2.42892 -6.38351 0
M  V30 1514 O 157.913 -3.41382 -7.27814 0
M  V30 1515 H 157.645 0.0408171 -0.674767 0
M  V30 1516 H 160.199 -0.5292 -1.98466 0
M  V30 1517 H 158.429 1.4681 -3.57748 0
M  V30 1518 H 160.118 1.18173 -3.88317 0
M  V30 1519 H 160.884 -1.16031 -4.70916 0
M  V30 1520 H 156.763 0.061851 -4.60959 0
M  V30 1521 H 160.307 -2.93079 -6.33049 0
M  V30 1522 H 156.204 -1.70048 -6.22699 0
M  V30 1523 H 156.972 -3.37173 -7.45826 0
M  V30 1524 N 159.635 1.57281 -0.100228 0
M  V30 1525 C 161.051 1.57527 0.256416 0
M  V30 1526 C 161.251 1.11173 1.68056 0
M  V30 1527 O 160.307 0.79053 2.39806 0
M  V30 1528 C 161.62 3.00673 0.0401747 0
M  V30 1529 C 163.168 3.12815 0.107528 0
M  V30 1530 C 163.643 4.57929 -0.0807834 0
M  V30 1531 N 165.134 4.63193 -0.0261207 0
M  V30 1532 C 165.869 5.73212 -0.146999 0
M  V30 1533 N 165.365 6.92047 -0.322999 0
M  V30 1534 N 167.158 5.62031 -0.0879044 0
M  V30 1535 H 159.309 1.85718 -1.03065 0
M  V30 1536 H 161.572 0.857446 -0.404339 0
M  V30 1537 H 161.278 3.38804 -0.943649 0
M  V30 1538 H 161.152 3.69042 0.780262 0
M  V30 1539 H 163.539 2.74554 1.08186 0
M  V30 1540 H 163.62 2.47028 -0.664134 0
M  V30 1541 H 163.264 4.96886 -1.05201 0
M  V30 1542 H 163.194 5.21783 0.710635 0
M  V30 1543 H 165.685 3.77748 0.107161 0
M  V30 1544 H 165.998 7.7173 -0.406608 0
M  V30 1545 H 164.343 6.94074 -0.358733 0
M  V30 1546 H 167.534 4.68075 0.048498 0
M  V30 1547 H 167.707 6.47734 -0.185557 0
M  V30 1548 N 161.113 -0.173488 1.56642 0
M  V30 1549 C 162.529 -0.525174 1.50712 0
M  V30 1550 C 162.729 -1.8476 0.804107 0
M  V30 1551 O 161.785 -2.49869 0.363574 0
M  V30 1552 C 163.098 -0.559937 2.95441 0
M  V30 1553 C 164.646 -0.647288 3.06234 0
M  V30 1554 C 165.121 -0.712963 4.52417 0
M  V30 1555 N 166.612 -0.775911 4.56655 0
M  V30 1556 C 167.347 -0.847264 5.67106 0
M  V30 1557 N 166.843 -0.879585 6.87194 0
M  V30 1558 N 168.636 -0.886117 5.55071 0
M  V30 1559 H 160.787 0.693681 2.00753 0
M  V30 1560 H 163.05 0.249841 0.914485 0
M  V30 1561 H 162.756 0.343049 3.50023 0
M  V30 1562 H 162.63 -1.40718 3.49969 0
M  V30 1563 H 165.017 -1.5407 2.51687 0
M  V30 1564 H 165.098 0.226586 2.54794 0
M  V30 1565 H 164.742 0.176183 5.07594 0
M  V30 1566 H 164.672 -1.60295 5.0161 0
M  V30 1567 H 167.163 -0.759304 3.70193 0
M  V30 1568 H 167.476 -0.935144 7.67121 0
M  V30 1569 H 165.821 -0.847898 6.89808 0
M  V30 1570 H 169.012 -0.857853 4.60172 0
M  V30 1571 H 169.185 -0.938263 6.41171 0
M  V30 1572 N 162.591 -1.51276 -0.441967 0
M  V30 1573 C 163.837 -1.63958 -1.19355 0
M  V30 1574 C 164.17 -0.352543 -1.90973 0
M  V30 1575 O 163.445 0.647627 -1.83401 0
M  V30 1576 C 163.728 -2.83979 -2.21422 0
M  V30 1577 C 163.581 -4.22646 -1.53918 0
M  V30 1578 C 164.9 -2.99521 -3.22451 0
M  V30 1579 H 162.019 -0.596709 -0.432559 0
M  V30 1580 H 164.661 -1.83748 -0.483398 0
M  V30 1581 H 162.811 -2.67237 -2.81987 0
M  V30 1582 H 164.483 -4.51045 -0.967256 0
M  V30 1583 H 162.726 -4.25558 -0.841615 0
M  V30 1584 H 163.397 -5.02609 -2.28229 0
M  V30 1585 H 165.873 -3.14944 -2.71937 0
M  V30 1586 H 164.749 -3.85072 -3.91166 0
M  V30 1587 H 165.01 -2.11391 -3.88287 0
M  V30 1588 N 164.069 0.697108 -1.41344 0
M  V30 1589 C 165.001 1.8224 -1.39001 0
M  V30 1590 C 166.014 1.60152 -0.292428 0
M  V30 1591 O 167.203 1.69684 -0.554048 0
M  V30 1592 C 164.303 3.18976 -1.14489 0
M  V30 1593 C 163.476 3.68105 -2.36258 0
M  V30 1594 C 162.535 4.83506 -2.07625 0
M  V30 1595 O 161.561 4.95201 -2.8065 0
M  V30 1596 N 162.763 5.70637 -1.06555 0
M  V30 1597 H 165.528 1.84742 -2.35988 0
M  V30 1598 H 163.089 0.87937 -1.35936 0
M  V30 1599 H 165.081 3.93801 -0.932885 0
M  V30 1600 H 163.651 3.11508 -0.261043 0
M  V30 1601 H 162.871 2.84204 -2.7317 0
M  V30 1602 H 164.159 3.97667 -3.17393 0
M  V30 1603 H 163.557 5.63817 -0.461125 0
M  V30 1604 H 162.114 6.45368 -0.913444 0
M  V30 1605 N 165.547 1.27147 0.931209 0
M  V30 1606 C 166.495 1.09398 2.05268 0
M  V30 1607 C 167.489 0.0180591 1.6939 0
M  V30 1608 O 168.695 0.17551 1.79142 0
M  V30 1609 H 165.07 0.336986 0.672268 0
M  V30 1610 H 167.041 2.04416 2.17386 0
M  V30 1611 C 165.79 0.75424 3.39421 0
M  V30 1612 H 165.113 1.57404 3.67511 0
M  V30 1613 H 166.553 0.669903 4.18674 0
M  V30 1614 C 165.012 -0.541197 3.32525 0
M  V30 1615 O 165.542 -1.57664 3.69466 0
M  V30 1616 N 163.748 -0.535517 2.85623 0
M  V30 1617 H 163.295 0.307511 2.55758 0
M  V30 1618 H 163.253 -1.40236 2.81392 0
M  V30 1619 N 167.025 -1.13721 1.09112 0
M  V30 1620 C 168.255 -1.88499 0.845671 0
M  V30 1621 C 168.663 -1.79218 -0.606432 0
M  V30 1622 O 168.006 -1.1544 -1.42896 0
M  V30 1623 C 168.068 -3.38954 1.19793 0
M  V30 1624 C 167.732 -3.72018 2.65428 0
M  V30 1625 C 168.729 -3.7153 3.63677 0
M  V30 1626 C 166.414 -4.01775 3.01467 0
M  V30 1627 C 168.408 -4.00336 4.95994 0
M  V30 1628 C 166.095 -4.30243 4.33975 0
M  V30 1629 C 167.093 -4.29508 5.31048 0
M  V30 1630 O 166.781 -4.5728 6.61173 0
M  V30 1631 H 166.513 -0.603702 0.304171 0
M  V30 1632 H 169.067 -1.44903 1.45576 0
M  V30 1633 H 167.297 -3.83039 0.530871 0
M  V30 1634 H 168.986 -3.95052 0.932146 0
M  V30 1635 H 169.752 -3.4862 3.37179 0
M  V30 1636 H 165.631 -4.01496 2.26544 0
M  V30 1637 H 169.175 -3.99678 5.71755 0
M  V30 1638 H 165.072 -4.52625 4.60219 0
M  V30 1639 H 165.84 -4.74964 6.66597 0
M  V30 1640 N 168.503 -0.877838 -1.30888 0
M  V30 1641 C 169.433 -0.35534 -2.3078 0
M  V30 1642 C 170.414 0.557994 -1.60687 0
M  V30 1643 O 171.599 0.473355 -1.88343 0
M  V30 1644 C 168.729 0.437221 -3.44537 0
M  V30 1645 C 167.683 -0.383715 -4.26276 0
M  V30 1646 C 167.009 0.535014 -5.32017 0
M  V30 1647 C 168.309 -1.62201 -4.96476 0
M  V30 1648 H 170.003 -1.19007 -2.74732 0
M  V30 1649 H 167.549 -0.573698 -1.32078 0
M  V30 1650 H 169.502 0.813334 -4.13477 0
M  V30 1651 H 168.226 1.30553 -2.99372 0
M  V30 1652 H 166.885 -0.741874 -3.59015 0
M  V30 1653 H 166.533 1.40083 -4.831 0
M  V30 1654 H 166.233 -0.0104211 -5.87599 0
M  V30 1655 H 167.757 0.907799 -6.03814 0
M  V30 1656 H 169.171 -1.31689 -5.5797 0
M  V30 1657 H 167.568 -2.10711 -5.61891 0
M  V30 1658 H 168.638 -2.37044 -4.23011 0
M  V30 1659 N 169.982 1.44106 -0.638065 0
M  V30 1660 C 171.212 2.06037 -0.152394 0
M  V30 1661 C 171.62 1.47808 1.18108 0
M  V30 1662 O 170.963 0.598092 1.73691 0
M  V30 1663 C 171.025 3.59488 0.0293714 0
M  V30 1664 C 170.689 4.4022 -1.22702 0
M  V30 1665 C 171.686 4.73256 -2.15232 0
M  V30 1666 C 169.371 4.8048 -1.46437 0
M  V30 1667 C 171.365 5.45444 -3.29802 0
M  V30 1668 C 169.052 5.52417 -2.61303 0
M  V30 1669 C 170.05 5.84819 -3.52811 0
M  V30 1670 O 169.738 6.55289 -4.65673 0
M  V30 1671 H 169.47 0.671233 -0.0801401 0
M  V30 1672 H 172.024 1.85851 -0.874563 0
M  V30 1673 H 170.254 3.78191 0.806758 0
M  V30 1674 H 171.943 4.03164 0.470475 0
M  V30 1675 H 172.709 4.42684 -1.98131 0
M  V30 1676 H 168.588 4.54676 -0.760977 0
M  V30 1677 H 172.132 5.70653 -4.01249 0
M  V30 1678 H 168.029 5.82404 -2.78344 0
M  V30 1679 H 168.797 6.73762 -4.64744 0
M  V30 1680 N 171.46 0.379036 1.52974 0
M  V30 1681 C 172.408 -0.476033 2.27677 0
M  V30 1682 C 173.402 -1.0719 1.31174 0
M  V30 1683 O 174.608 -1.01355 1.48752 0
M  V30 1684 H 170.983 -0.172255 0.732006 0
M  V30 1685 H 172.954 0.175615 2.97883 0
M  V30 1686 C 171.703 -1.5967 3.0887 0
M  V30 1687 H 171.026 -1.1475 3.82978 0
M  V30 1688 H 172.466 -2.16943 3.64296 0
M  V30 1689 C 170.925 -2.54682 2.20542 0
M  V30 1690 O 171.455 -3.57836 1.82527 0
M  V30 1691 N 169.661 -2.24183 1.84907 0
M  V30 1692 H 169.208 -1.40333 2.1602 0
M  V30 1693 H 169.166 -2.88006 1.26096 0
M  V30 1694 N 172.938 -1.57226 0.108567 0
M  V30 1695 C 174.184 -1.95121 -0.552761 0
M  V30 1696 C 174.517 -0.991345 -1.66991 0
M  V30 1697 O 173.792 -0.0267211 -1.94482 0
M  V30 1698 C 174.075 -3.43039 -1.09528 0
M  V30 1699 C 173.928 -4.49797 0.0177332 0
M  V30 1700 C 175.247 -3.92567 -1.98945 0
M  V30 1701 H 172.366 -0.709496 -0.199461 0
M  V30 1702 H 175.008 -1.89126 0.182011 0
M  V30 1703 H 173.158 -3.48279 -1.72146 0
M  V30 1704 H 174.83 -4.56661 0.652584 0
M  V30 1705 H 173.073 -4.284 0.682309 0
M  V30 1706 H 173.744 -5.50528 -0.402919 0
M  V30 1707 H 176.22 -3.89565 -1.46214 0
M  V30 1708 H 175.096 -4.96605 -2.33827 0
M  V30 1709 H 175.357 -3.32648 -2.91201 0
M  V30 1710 N 174.416 0.165178 -1.56732 0
M  V30 1711 C 175.346 1.20651 -1.99914 0
M  V30 1712 C 176.327 1.45827 -0.875705 0
M  V30 1713 O 177.512 1.57057 -1.14223 0
M  V30 1714 C 174.642 2.54401 -2.36427 0
M  V30 1715 C 173.596 2.43782 -3.51787 0
M  V30 1716 C 172.922 3.82078 -3.7406 0
M  V30 1717 C 174.222 1.93732 -4.85041 0
M  V30 1718 H 175.916 0.847534 -2.87154 0
M  V30 1719 H 173.462 0.40625 -1.38151 0
M  V30 1720 H 175.415 3.27458 -2.65234 0
M  V30 1721 H 174.139 2.92098 -1.46103 0
M  V30 1722 H 172.798 1.73178 -3.23117 0
M  V30 1723 H 172.446 4.17179 -2.81017 0
M  V30 1724 H 172.146 3.7584 -4.51684 0
M  V30 1725 H 173.67 4.56712 -4.05274 0
M  V30 1726 H 175.084 2.56569 -5.12684 0
M  V30 1727 H 173.481 1.98428 -5.66345 0
M  V30 1728 H 174.551 0.891962 -4.76626 0
M  V30 1729 N 175.894 1.51508 0.433938 0
M  V30 1730 C 176.804 1.75917 1.5521 0
M  V30 1731 C 177.82 0.643545 1.61662 0
M  V30 1732 O 178.996 0.926183 1.7884 0
M  V30 1733 C 176.061 1.88213 2.91164 0
M  V30 1734 C 175.122 3.12074 2.94802 0
M  V30 1735 C 174.355 3.23774 4.24271 0
M  V30 1736 O 174.578 2.4133 5.16833 0
M  V30 1737 O 173.512 4.16774 4.34262 0
M  V30 1738 H 177.338 2.70777 1.37527 0
M  V30 1739 H 174.923 1.36051 0.617293 0
M  V30 1740 H 176.805 1.98267 3.71845 0
M  V30 1741 H 175.48 0.965413 3.08968 0
M  V30 1742 H 174.387 3.07497 2.13065 0
M  V30 1743 H 175.72 4.03446 2.81943 0
M  V30 1744 N 177.372 -0.689602 1.41712 0
M  V30 1745 C 178.788 -1.00093 1.24312 0
M  V30 1746 C 178.988 -2.01036 0.136729 0
M  V30 1747 O 178.044 -2.47562 -0.496918 0
M  V30 1748 C 179.357 -1.51985 2.59463 0
M  V30 1749 C 180.905 -1.63838 2.66695 0
M  V30 1750 C 181.38 -2.1913 4.02177 0
M  V30 1751 N 182.871 -2.26483 4.04054 0
M  V30 1752 C 183.606 -2.70306 5.0569 0
M  V30 1753 N 183.102 -3.13691 6.17713 0
M  V30 1754 N 184.895 -2.69923 4.9305 0
M  V30 1755 H 177.046 -0.0210029 2.1239 0
M  V30 1756 H 179.309 -0.0718733 0.945272 0
M  V30 1757 H 179.015 -0.85269 3.41207 0
M  V30 1758 H 178.889 -2.50103 2.82362 0
M  V30 1759 H 181.276 -2.29664 1.85306 0
M  V30 1760 H 181.357 -0.642492 2.476 0
M  V30 1761 H 181.001 -1.53918 4.84016 0
M  V30 1762 H 180.931 -3.19482 4.18615 0
M  V30 1763 H 183.422 -1.95874 3.23174 0
M  V30 1764 H 183.735 -3.45773 6.9113 0
M  V30 1765 H 182.08 -3.11585 6.21241 0
M  V30 1766 H 185.271 -2.35382 4.04614 0
M  V30 1767 H 185.444 -3.03758 5.72394 0
M  V30 1768 N 178.85 -1.27639 -0.924453 0
M  V30 1769 C 180.261 -1.12834 -1.48746 0
M  V30 1770 C 180.612 0.285505 -1.94112 0
M  V30 1771 O 179.737 1.17874 -1.81479 0
M  V30 1772 C 180.332 -2.04217 -2.70334 0
M  V30 1773 C 178.891 -1.93509 -3.22848 0
M  V30 1774 C 178.038 -1.96583 -1.95577 0
M  V30 1775 H 180.989 -1.40484 -0.738233 0
M  V30 1776 H 181.01 -1.59989 -3.4523 0
M  V30 1777 H 180.522 -3.07111 -2.37285 0
M  V30 1778 H 178.623 -0.936131 -3.60649 0
M  V30 1779 H 178.736 -2.79917 -3.88823 0
M  V30 1780 H 177.1 -1.4085 -2.12211 0
M  V30 1781 H 177.883 -3.01137 -1.64837 0
M  V30 1782 N 180.328 1.1314 -1.09713 0
M  V30 1783 C 181.744 1.36477 -0.827423 0
M  V30 1784 C 181.944 1.93654 0.556817 0
M  V30 1785 O 181 2.15791 1.31112 0
M  V30 1786 C 182.313 2.31334 -1.92106 0
M  V30 1787 C 183.861 2.44943 -1.94864 0
M  V30 1788 C 184.336 3.4311 -3.0338 0
M  V30 1789 N 185.827 3.50662 -3.02639 0
M  V30 1790 C 186.562 4.2651 -3.83246 0
M  V30 1791 N 186.058 5.05485 -4.73768 0
M  V30 1792 N 187.851 4.2184 -3.71493 0
M  V30 1793 H 180.002 0.743807 -1.9895 0
M  V30 1794 H 182.265 0.389823 -0.864143 0
M  V30 1795 H 181.971 1.96483 -2.91698 0
M  V30 1796 H 181.845 3.31381 -1.80184 0
M  V30 1797 H 184.232 2.79079 -0.959099 0
M  V30 1798 H 184.313 1.4481 -2.10864 0
M  V30 1799 H 183.957 3.09704 -4.02549 0
M  V30 1800 H 183.887 4.43055 -2.84622 0
M  V30 1801 H 186.378 2.94315 -2.37039 0
M  V30 1802 H 186.691 5.60675 -5.3185 0
M  V30 1803 H 185.036 5.04708 -4.77802 0
M  V30 1804 H 188.227 3.5922 -3.00131 0
M  V30 1805 H 188.4 4.80697 -4.3455 0
M  V30 1806 N 181.806 0.884767 1.30421 0
M  V30 1807 C 183.054 0.502112 1.95763 0
M  V30 1808 C 183.375 -0.951815 1.70192 0
M  V30 1809 O 182.645 -1.6692 1.0254 0
M  V30 1810 H 181.225 0.182694 0.724315 0
M  V30 1811 H 183.887 1.1278 1.58955 0
M  V30 1812 H 182.983 0.672188 3.04775 0
M  V30 1813 N 183.284 -1.43765 0.645699 0
M  V30 1814 C 184.53 -2.02731 0.164844 0
M  V30 1815 C 184.885 -1.49983 -1.2051 0
M  V30 1816 O 184.178 -0.680208 -1.79119 0
M  V30 1817 C 184.372 -3.57238 0.107679 0
M  V30 1818 C 184.201 -4.24977 1.47054 0
M  V30 1819 C 182.971 -4.61356 2.06103 0
M  V30 1820 C 185.169 -4.54476 2.40741 0
M  V30 1821 N 183.151 -5.14132 3.35473 0
M  V30 1822 C 184.522 -5.08489 3.54737 0
M  V30 1823 C 186.577 -4.36438 2.39637 0
M  V30 1824 C 185.28 -5.46364 4.67845 0
M  V30 1825 C 187.306 -4.7537 3.5182 0
M  V30 1826 C 186.668 -5.2951 4.64541 0
M  V30 1827 H 182.767 -0.774976 0.104578 0
M  V30 1828 H 185.351 -1.75051 0.852367 0
M  V30 1829 H 183.522 -3.84498 -0.549165 0
M  V30 1830 H 185.254 -4.0288 -0.383351 0
M  V30 1831 H 182.009 -4.46151 1.58892 0
M  V30 1832 H 182.433 -5.4498 4.01654 0
M  V30 1833 H 187.075 -3.93861 1.53731 0
M  V30 1834 H 184.793 -5.87888 5.54448 0
M  V30 1835 H 188.379 -4.63115 3.52159 0
M  V30 1836 H 187.259 -5.59077 5.49911 0
M  V30 1837 N 184.763 -0.387143 -1.52771 0
M  V30 1838 C 185.726 0.436939 -2.24997 0
M  V30 1839 C 186.726 0.991991 -1.26555 0
M  V30 1840 O 187.916 0.874335 -1.50669 0
M  V30 1841 C 185.048 1.61281 -3.00335 0
M  V30 1842 H 186.241 -0.195365 -2.99263 0
M  V30 1843 H 183.794 -0.139218 -1.55679 0
M  V30 1844 H 184.529 2.2826 -2.30364 0
M  V30 1845 H 184.314 1.22154 -3.72587 0
M  V30 1846 H 185.804 2.19629 -3.5518 0
M  V30 1847 N 186.241 1.57166 -0.116904 0
M  V30 1848 C 187.488 1.95123 0.541603 0
M  V30 1849 C 187.816 1.00006 1.6682 0
M  V30 1850 O 187.071 0.0235658 1.95686 0
M  V30 1851 C 187.37 3.39508 1.11664 0
M  V30 1852 C 187.036 4.50762 0.111606 0
M  V30 1853 C 185.698 4.80918 -0.164758 0
M  V30 1854 C 188.05 5.18036 -0.573438 0
M  V30 1855 C 185.378 5.75666 -1.13249 0
M  V30 1856 C 187.73 6.13824 -1.52978 0
M  V30 1857 C 186.394 6.42374 -1.81415 0
M  V30 1858 H 185.664 0.714005 0.198187 0
M  V30 1859 H 188.311 1.9048 -0.197365 0
M  V30 1860 H 186.616 3.40835 1.93232 0
M  V30 1861 H 188.313 3.66189 1.63422 0
M  V30 1862 H 184.903 4.27272 0.337192 0
M  V30 1863 H 189.087 4.94896 -0.373092 0
M  V30 1864 H 184.343 5.96092 -1.35958 0
M  V30 1865 H 188.517 6.65039 -2.06629 0
M  V30 1866 H 186.144 7.15599 -2.56557 0
M  V30 1867 N 187.719 -0.156864 1.56817 0
M  V30 1868 C 188.968 -0.869504 1.81996 0
M  V30 1869 C 189.281 -1.82777 0.696545 0
M  V30 1870 O 190.487 -2.58384 0.833658 0
M  V30 1871 C 188.943 -1.59679 3.22538 0
M  V30 1872 C 188.551 -0.681431 4.42787 0
M  V30 1873 C 190.295 -2.2968 3.56997 0
M  V30 1874 C 188.202 -1.40978 5.74351 0
M  V30 1875 H 187.132 -0.328438 0.678708 0
M  V30 1876 H 189.783 -0.1223 1.83092 0
M  V30 1877 H 188.165 -2.38927 3.158 0
M  V30 1878 H 189.339 0.0751166 4.60739 0
M  V30 1879 H 187.654 -0.0903431 4.16302 0
M  V30 1880 H 190.251 -2.84794 4.52544 0
M  V30 1881 H 190.594 -3.05707 2.82576 0
M  V30 1882 H 191.127 -1.57361 3.65352 0
M  V30 1883 H 187.866 -0.691561 6.51842 0
M  V30 1884 H 187.386 -2.13929 5.60352 0
M  V30 1885 H 189.065 -1.95337 6.16808 0
M  V30 1886 N 189.197 -1.51736 -0.425897 0
M  V30 1887 C 190.427 -1.68549 -1.19476 0
M  V30 1888 C 190.835 -0.387288 -1.85194 0
M  V30 1889 O 190.178 0.645142 -1.71999 0
M  V30 1890 C 190.24 -2.75275 -2.31223 0
M  V30 1891 C 189.904 -4.17534 -1.8578 0
M  V30 1892 C 190.901 -5.01936 -1.35485 0
M  V30 1893 C 188.586 -4.6369 -1.93123 0
M  V30 1894 C 190.58 -6.30559 -0.931347 0
M  V30 1895 C 188.267 -5.92307 -1.50384 0
M  V30 1896 C 189.265 -6.75569 -1.00473 0
M  V30 1897 O 188.953 -8.0178 -0.583452 0
M  V30 1898 H 188.685 -0.568525 -0.365725 0
M  V30 1899 H 191.239 -1.98982 -0.509444 0
M  V30 1900 H 189.469 -2.40182 -3.03067 0
M  V30 1901 H 191.158 -2.80853 -2.93047 0
M  V30 1902 H 191.924 -4.67475 -1.29197 0
M  V30 1903 H 187.803 -3.98997 -2.30916 0
M  V30 1904 H 191.347 -6.95498 -0.541084 0
M  V30 1905 H 187.244 -6.2628 -1.56346 0
M  V30 1906 H 188.012 -8.1543 -0.708275 0
M  V30 1907 N 190.675 0.682077 -1.42076 0
M  V30 1908 C 191.625 1.78823 -1.41444 0
M  V30 1909 C 192.609 1.58323 -0.28681 0
M  V30 1910 O 193.801 1.68926 -0.528498 0
M  V30 1911 C 190.93 3.17232 -1.3122 0
M  V30 1912 C 190.016 3.4338 -2.489 0
M  V30 1913 N 190.407 3.40152 -3.7434 0
M  V30 1914 C 188.705 3.73986 -2.43003 0
M  V30 1915 C 189.406 3.65581 -4.52466 0
M  V30 1916 N 188.382 3.85989 -3.8277 0
M  V30 1917 H 192.184 1.7471 -2.36334 0
M  V30 1918 H 189.698 0.882622 -1.36321 0
M  V30 1919 H 191.695 3.96489 -1.2885 0
M  V30 1920 H 190.355 3.22547 -0.373263 0
M  V30 1921 H 191.366 3.20221 -4.07037 0
M  V30 1922 H 188.043 3.86591 -1.57651 0
M  V30 1923 H 189.433 3.69108 -5.61435 0
M  V30 1924 N 192.153 1.28127 0.917671 0
M  V30 1925 C 193.116 1.11744 2.00115 0
M  V30 1926 C 194.116 0.0583052 1.60694 0
M  V30 1927 O 195.306 0.303755 1.71531 0
M  V30 1928 C 192.438 0.704862 3.33533 0
M  V30 1929 H 193.631 2.07966 2.16079 0
M  V30 1930 H 191.184 1.11058 1.09981 0
M  V30 1931 H 191.919 -0.258299 3.2327 0
M  V30 1932 H 191.704 1.4699 3.63505 0
M  V30 1933 H 193.194 0.612768 4.1308 0
M  V30 1934 N 193.631 -1.12557 1.10312 0
M  V30 1935 C 194.878 -1.84038 0.844759 0
M  V30 1936 C 195.206 -1.84026 -0.629668 0
M  V30 1937 O 194.461 -1.28026 -1.48013 0
M  V30 1938 C 194.76 -3.31462 1.33669 0
M  V30 1939 C 194.426 -3.51647 2.82232 0
M  V30 1940 C 193.088 -3.56864 3.22802 0
M  V30 1941 C 195.44 -3.58867 3.77974 0
M  V30 1942 C 192.768 -3.66844 4.57867 0
M  V30 1943 C 195.12 -3.70375 5.1284 0
M  V30 1944 C 193.784 -3.73848 5.52986 0
M  V30 1945 H 193.054 -0.673444 0.309119 0
M  V30 1946 H 195.701 -1.32824 1.37949 0
M  V30 1947 H 194.006 -3.85091 0.721949 0
M  V30 1948 H 195.703 -3.85236 1.11329 0
M  V30 1949 H 192.293 -3.48249 2.49842 0
M  V30 1950 H 196.477 -3.54107 3.47738 0
M  V30 1951 H 191.733 -3.67804 4.88396 0
M  V30 1952 H 195.907 -3.74904 5.86873 0
M  V30 1953 H 193.534 -3.81333 6.57639 0
M  V30 1954 N 195.109 -0.891671 -1.2995 0
M  V30 1955 C 196.355 -0.514261 -1.96171 0
M  V30 1956 C 196.688 0.935506 -1.70182 0
M  V30 1957 O 195.963 1.66204 -1.01028 0
M  V30 1958 C 196.246 -0.797719 -3.51153 0
M  V30 1959 C 196.099 -2.2986 -3.86632 0
M  V30 1960 C 197.418 -0.278749 -4.39216 0
M  V30 1961 H 194.537 -0.188314 -0.712535 0
M  V30 1962 H 197.179 -1.11689 -1.53706 0
M  V30 1963 H 195.329 -0.284826 -3.87455 0
M  V30 1964 H 197.001 -2.88042 -3.60319 0
M  V30 1965 H 195.244 -2.76257 -3.34462 0
M  V30 1966 H 195.915 -2.44753 -4.94773 0
M  V30 1967 H 198.391 -0.717825 -4.09862 0
M  V30 1968 H 197.267 -0.506353 -5.46559 0
M  V30 1969 H 197.528 0.820266 -4.34424 0
M  V30 1970 N 196.587 1.43421 -0.653314 0
M  V30 1971 C 197.834 2.01812 -0.166745 0
M  V30 1972 C 198.162 1.51535 1.21931 0
M  V30 1973 O 197.417 0.698975 1.82792 0
M  V30 1974 C 197.716 3.57176 -0.126623 0
M  V30 1975 C 197.382 4.26798 -1.45444 0
M  V30 1976 C 196.044 4.45534 -1.81805 0
M  V30 1977 C 198.396 4.66225 -2.32989 0
M  V30 1978 C 195.724 5.00961 -3.05377 0
M  V30 1979 C 198.076 5.23021 -3.55853 0
M  V30 1980 C 196.74 5.39973 -3.9241 0
M  V30 1981 H 196.01 0.738484 -0.0610162 0
M  V30 1982 H 198.657 1.71896 -0.84404 0
M  V30 1983 H 196.962 3.86634 0.634123 0
M  V30 1984 H 198.659 4.00112 0.266723 0
M  V30 1985 H 195.249 4.12561 -1.16153 0
M  V30 1986 H 199.433 4.51443 -2.06187 0
M  V30 1987 H 194.689 5.12271 -3.3375 0
M  V30 1988 H 198.863 5.52518 -4.23907 0
M  V30 1989 H 196.49 5.82687 -4.88242 0
M  V30 1990 N 198.065 0.39524 1.52563 0
M  V30 1991 C 198.995 -0.428384 2.29537 0
M  V30 1992 C 199.976 -1.05831 1.33169 0
M  V30 1993 O 201.161 -1.06995 1.62067 0
M  V30 1994 C 198.291 -1.55274 3.10656 0
M  V30 1995 C 197.245 -1.04855 4.14957 0
M  V30 1996 C 196.571 -2.26543 4.84337 0
M  V30 1997 C 197.871 -0.112324 5.22179 0
M  V30 1998 H 199.565 0.213867 2.98635 0
M  V30 1999 H 197.111 0.104298 1.43622 0
M  V30 2000 H 199.064 -2.1358 3.63265 0
M  V30 2001 H 197.788 -2.22266 2.39302 0
M  V30 2002 H 196.447 -0.487985 3.63338 0
M  V30 2003 H 196.095 -2.92059 4.09525 0
M  V30 2004 H 195.795 -1.93466 5.54837 0
M  V30 2005 H 197.319 -2.85481 5.39753 0
M  V30 2006 H 198.733 -0.603752 5.70112 0
M  V30 2007 H 197.13 0.128968 5.99961 0
M  V30 2008 H 198.2 0.837052 4.77621 0
M  V30 2009 N 199.544 -1.57102 0.125237 0
M  V30 2010 C 200.474 -2.18659 -0.819174 0
M  V30 2011 C 201.455 -1.12843 -1.27281 0
M  V30 2012 O 202.64 -1.41104 -1.33429 0
M  V30 2013 C 199.77 -2.79096 -2.06695 0
M  V30 2014 C 198.724 -3.90548 -1.75088 0
M  V30 2015 C 198.05 -4.37821 -3.06948 0
M  V30 2016 C 199.35 -5.12356 -1.01435 0
M  V30 2017 H 201.044 -2.9783 -0.306202 0
M  V30 2018 H 198.59 -1.4326 -0.145839 0
M  V30 2019 H 200.543 -3.2082 -2.73226 0
M  V30 2020 H 199.267 -1.97223 -2.60328 0
M  V30 2021 H 197.926 -3.49409 -1.10944 0
M  V30 2022 H 197.574 -3.52799 -3.58527 0
M  V30 2023 H 197.274 -5.12982 -2.86571 0
M  V30 2024 H 198.798 -4.822 -3.74587 0
M  V30 2025 H 200.212 -5.5106 -1.58132 0
M  V30 2026 H 198.609 -5.9314 -0.911319 0
M  V30 2027 H 199.679 -4.849 -0.00218681 0
M  V30 2028 N 201.022 0.148545 -1.56898 0
M  V30 2029 C 202.268 0.862694 -1.83536 0
M  V30 2030 C 202.601 1.80889 -0.706604 0
M  V30 2031 O 201.876 1.92328 0.289885 0
M  V30 2032 C 202.159 1.63853 -3.20662 0
M  V30 2033 C 202.012 0.713925 -4.44098 0
M  V30 2034 C 203.331 2.60133 -3.54991 0
M  V30 2035 H 200.45 0.312179 -0.667618 0
M  V30 2036 H 203.092 0.127953 -1.89569 0
M  V30 2037 H 201.242 2.26489 -3.1565 0
M  V30 2038 H 202.914 0.098686 -4.61194 0
M  V30 2039 H 201.157 0.0234019 -4.33794 0
M  V30 2040 H 201.828 1.29278 -5.36648 0
M  V30 2041 H 204.304 2.07616 -3.60603 0
M  V30 2042 H 203.18 3.11468 -4.51972 0
M  V30 2043 H 203.441 3.41417 -2.80868 0
M  V30 2044 N 202.5 1.5196 0.417844 0
M  V30 2045 C 203.747 1.65591 1.16559 0
M  V30 2046 C 204.075 0.381565 1.90721 0
M  V30 2047 O 203.33 -0.635156 1.85106 0
M  V30 2048 C 203.629 2.82269 2.19223 0
M  V30 2049 C 203.295 4.20819 1.61933 0
M  V30 2050 C 201.957 4.58506 1.46033 0
M  V30 2051 C 204.309 5.07196 1.20008 0
M  V30 2052 C 201.637 5.80257 0.867113 0
M  V30 2053 C 203.989 6.29544 0.621086 0
M  V30 2054 C 202.653 6.65987 0.449144 0
M  V30 2055 H 201.923 0.605939 0.42652 0
M  V30 2056 H 204.57 1.86041 0.45397 0
M  V30 2057 H 202.875 2.56118 2.96498 0
M  V30 2058 H 204.572 2.90012 2.76936 0
M  V30 2059 H 201.162 3.91116 1.7529 0
M  V30 2060 H 205.346 4.7867 1.31105 0
M  V30 2061 H 200.602 6.07124 0.721833 0
M  V30 2062 H 204.776 6.95805 0.287798 0
M  V30 2063 H 202.403 7.60199 -0.012632 0
M  V30 2064 N 203.978 -0.674533 1.42435 0
M  V30 2065 C 205.226 -1.43175 1.42637 0
M  V30 2066 C 205.547 -1.94951 0.0438992 0
M  V30 2067 O 204.817 -1.7308 -0.917607 0
M  V30 2068 H 203.397 -0.531307 0.525092 0
M  V30 2069 H 206.059 -0.797006 1.77859 0
M  V30 2070 H 205.155 -2.28463 2.12629 0
M  V30 2071 N 205.456 -1.28612 -0.910864 0
M  V30 2072 C 206.696 -1.1719 -1.67469 0
M  V30 2073 C 207.06 0.274441 -1.90028 0
M  V30 2074 O 208.261 0.511425 -2.6389 0
M  V30 2075 C 206.532 -1.95137 -2.99427 0
M  V30 2076 S 208.091 -2.00122 -3.90508 0
M  V30 2077 H 204.909 -0.41806 -0.575106 0
M  V30 2078 H 207.511 -1.6275 -1.08317 0
M  V30 2079 H 206.215 -2.99381 -2.80712 0
M  V30 2080 H 205.746 -1.50137 -3.63624 0
M  V30 2081 H 207.761 -1.10981 -4.8363 0
M  V30 2082 N 206.934 1.1197 -1.10907 0
M  V30 2083 C 207.864 2.19928 -0.784473 0
M  V30 2084 C 208.845 1.6833 0.244726 0
M  V30 2085 O 210.03 1.93892 0.109418 0
M  V30 2086 C 207.16 3.46597 -0.220827 0
M  V30 2087 C 206.114 4.11376 -1.18127 0
M  V30 2088 C 205.44 5.32554 -0.478594 0
M  V30 2089 C 206.74 4.56945 -2.52979 0
M  V30 2090 H 208.434 2.47337 -1.68715 0
M  V30 2091 H 205.98 1.18879 -0.812642 0
M  V30 2092 H 207.933 4.21396 0.0184278 0
M  V30 2093 H 206.657 3.1863 0.717113 0
M  V30 2094 H 205.316 3.38564 -1.40606 0
M  V30 2095 H 204.964 5.00856 0.463976 0
M  V30 2096 H 204.664 5.76844 -1.11912 0
M  V30 2097 H 206.188 6.10096 -0.248 0
M  V30 2098 H 207.602 5.23093 -2.3462 0
M  V30 2099 H 205.999 5.1203 -3.12962 0
M  V30 2100 H 207.069 3.70676 -3.12614 0
M  V30 2101 N 208.412 0.89855 1.29475 0
M  V30 2102 C 209.661 0.519863 1.94885 0
M  V30 2103 C 209.974 -0.9383 1.71625 0
M  V30 2104 O 211.18 -1.42445 2.31131 0
M  V30 2105 C 209.636 0.878836 3.49005 0
M  V30 2106 C 209.244 2.35569 3.81066 0
M  V30 2107 C 210.988 0.570004 4.20656 0
M  V30 2108 C 208.895 2.65558 5.28425 0
M  V30 2109 H 207.825 0.190692 0.729488 0
M  V30 2110 H 210.476 1.09539 1.47219 0
M  V30 2111 H 208.858 0.232253 3.95318 0
M  V30 2112 H 210.032 3.04773 3.45616 0
M  V30 2113 H 208.347 2.63343 3.22552 0
M  V30 2114 H 210.944 0.770925 5.29113 0
M  V30 2115 H 211.287 -0.491404 4.1339 0
M  V30 2116 H 211.82 1.17438 3.8007 0
M  V30 2117 H 208.559 3.70493 5.40754 0
M  V30 2118 H 208.079 2.00977 5.65127 0
M  V30 2119 H 209.758 2.51765 5.96006 0
M  V30 2120 N 209.89 -1.43072 0.660911 0
M  V30 2121 C 210.82 -2.33497 -0.0122829 0
M  V30 2122 C 211.801 -1.49903 -0.803925 0
M  V30 2123 O 212.986 -1.78546 -0.763864 0
M  V30 2124 C 210.116 -3.33363 -0.973994 0
M  V30 2125 C 209.07 -4.27003 -0.291928 0
M  V30 2126 C 208.396 -5.16967 -1.36562 0
M  V30 2127 C 209.696 -5.15816 0.820462 0
M  V30 2128 H 211.39 -2.90038 0.742873 0
M  V30 2129 H 208.936 -1.39461 0.358688 0
M  V30 2130 H 210.889 -3.95524 -1.45392 0
M  V30 2131 H 209.613 -2.75095 -1.7604 0
M  V30 2132 H 208.272 -3.66217 0.167623 0
M  V30 2133 H 207.92 -4.55034 -2.14366 0
M  V30 2134 H 207.62 -5.80441 -0.914454 0
M  V30 2135 H 209.144 -5.82003 -1.84675 0
M  V30 2136 H 210.558 -5.71742 0.422366 0
M  V30 2137 H 208.955 -5.8805 1.19656 0
M  V30 2138 H 210.025 -4.55045 1.67518 0
M  V30 2139 N 211.368 -0.403325 -1.52352 0
M  V30 2140 C 212.593 0.176499 -2.06648 0
M  V30 2141 C 213.018 1.38577 -1.27193 0
M  V30 2142 O 212.376 1.7879 -0.300637 0
M  V30 2143 C 212.424 0.511061 -3.5696 0
M  V30 2144 O 211.528 1.60294 -3.79973 0
M  V30 2145 H 210.869 0.0167337 -0.663789 0
M  V30 2146 H 213.399 -0.574848 -1.96359 0
M  V30 2147 H 213.409 0.771362 -4.00642 0
M  V30 2148 H 212.084 -0.37296 -4.14224 0
M  V30 2149 H 210.661 1.33526 -3.48174 0
M  V30 2150 N 212.846 1.57033 -0.133567 0
M  V30 2151 C 214.092 1.95976 0.521649 0
M  V30 2152 C 214.425 1.01779 1.65393 0
M  V30 2153 O 213.7 0.0576581 1.94415 0
M  V30 2154 C 213.983 3.44738 1.04057 0
M  V30 2155 C 213.836 4.49711 -0.0892897 0
M  V30 2156 C 215.155 3.95682 1.92675 0
M  V30 2157 H 212.274 0.712579 0.188149 0
M  V30 2158 H 214.916 1.88813 -0.212076 0
M  V30 2159 H 213.066 3.50973 1.66583 0
M  V30 2160 H 214.738 4.55565 -0.725152 0
M  V30 2161 H 212.981 4.27261 -0.750378 0
M  V30 2162 H 213.652 5.51099 0.315284 0
M  V30 2163 H 216.128 3.91841 1.39998 0
M  V30 2164 H 215.004 5.00262 2.25897 0
M  V30 2165 H 215.265 3.37239 2.85872 0
M  V30 2166 N 214.325 -0.140222 1.56975 0
M  V30 2167 C 215.572 -0.851687 1.83719 0
M  V30 2168 C 215.9 -1.80862 0.715485 0
M  V30 2169 O 215.155 -1.93464 -0.294956 0
M  V30 2170 C 215.454 -1.65386 3.16832 0
M  V30 2171 C 215.12 -0.843112 4.42947 0
M  V30 2172 C 213.782 -0.619464 4.77196 0
M  V30 2173 C 216.134 -0.276582 5.20466 0
M  V30 2174 C 213.462 0.181312 5.8642 0
M  V30 2175 C 215.814 0.51127 6.30531 0
M  V30 2176 C 214.478 0.745432 6.63325 0
M  V30 2177 H 213.748 -0.311654 0.672274 0
M  V30 2178 H 216.395 -0.115006 1.91154 0
M  V30 2179 H 214.7 -2.46084 3.04877 0
M  V30 2180 H 216.397 -2.20793 3.34741 0
M  V30 2181 H 212.987 -1.0275 4.16101 0
M  V30 2182 H 217.171 -0.436632 4.94376 0
M  V30 2183 H 212.427 0.372165 6.10266 0
M  V30 2184 H 216.601 0.957354 6.89788 0
M  V30 2185 H 214.228 1.36778 7.47794 0
M  V30 2186 N 215.803 -1.52179 -0.40978 0
M  V30 2187 C 217.028 -1.70347 -1.18308 0
M  V30 2188 C 217.453 -0.411887 -1.83535 0
M  V30 2189 O 216.811 0.630587 -1.6998 0
M  V30 2190 C 216.859 -2.83977 -2.22238 0
M  V30 2191 O 215.963 -2.495 -3.28365 0
M  V30 2192 H 215.304 -0.567103 -0.345384 0
M  V30 2193 H 217.834 -1.98879 -0.480445 0
M  V30 2194 H 217.844 -3.0887 -2.66577 0
M  V30 2195 H 216.519 -3.77685 -1.74146 0
M  V30 2196 H 215.096 -2.35277 -2.89308 0
M  V30 2197 N 217.281 0.66697 -1.42791 0
M  V30 2198 C 218.509 1.45505 -1.47091 0
M  V30 2199 C 218.924 1.8861 -0.0845873 0
M  V30 2200 O 218.281 1.58632 0.90234 0
M  V30 2201 C 218.332 2.69906 -2.40485 0
M  V30 2202 O 218.053 2.28608 -3.73725 0
M  V30 2203 C 219.554 3.63396 -2.53886 0
M  V30 2204 H 216.774 0.447459 -0.500022 0
M  V30 2205 H 219.318 0.818866 -1.8739 0
M  V30 2206 H 217.473 3.29696 -2.03419 0
M  V30 2207 H 217.887 3.08997 -4.23817 0
M  V30 2208 H 219.361 4.47387 -3.2334 0
M  V30 2209 H 219.838 4.09824 -1.57927 0
M  V30 2210 H 220.444 3.09495 -2.91706 0
M  V30 2211 N 218.759 1.29093 0.90403 0
M  V30 2212 C 220.008 1.16187 1.64874 0
M  V30 2213 C 220.321 -0.286742 1.93487 0
M  V30 2214 O 221.527 -0.537062 2.66135 0
M  V30 2215 C 219.983 2.03177 2.97064 0
M  V30 2216 C 219.591 3.52836 2.76062 0
M  V30 2217 C 221.335 1.98984 3.74974 0
M  V30 2218 C 219.242 4.31945 4.03952 0
M  V30 2219 H 218.172 0.431246 0.618501 0
M  V30 2220 H 220.823 1.53699 1.00243 0
M  V30 2221 H 219.205 1.5853 3.62883 0
M  V30 2222 H 220.379 4.05507 2.18863 0
M  V30 2223 H 218.694 3.58656 2.11553 0
M  V30 2224 H 221.291 2.55351 4.69787 0
M  V30 2225 H 221.634 0.968815 4.0487 0
M  V30 2226 H 222.167 2.41652 3.15989 0
M  V30 2227 H 218.906 5.34667 3.79225 0
M  V30 2228 H 218.426 3.84045 4.60727 0
M  V30 2229 H 220.105 4.42379 4.72133 0
M  V30 2230 N 220.237 -1.11381 1.11499 0
M  V30 2231 C 221.648 -1.6465 0.880191 0
M  V30 2232 C 221.999 -1.87199 -0.587434 0
M  V30 2233 O 221.124 -1.60667 -1.44966 0
M  V30 2234 C 221.719 -2.99105 1.59128 0
M  V30 2235 C 220.278 -3.49279 1.40289 0
M  V30 2236 C 219.425 -2.24077 1.63354 0
M  V30 2237 H 222.376 -0.950123 1.27116 0
M  V30 2238 H 222.397 -3.66107 1.03664 0
M  V30 2239 H 221.909 -2.82661 2.65941 0
M  V30 2240 H 220.01 -3.70887 0.356888 0
M  V30 2241 H 220.123 -4.2803 2.15238 0
M  V30 2242 H 218.487 -2.31733 1.05698 0
M  V30 2243 H 219.27 -2.10175 2.71443 0
M  V30 2244 N 221.715 -0.905404 -1.28997 0
M  V30 2245 C 222.625 -0.392246 -2.31298 0
M  V30 2246 C 223.641 0.515889 -1.66176 0
M  V30 2247 O 224.817 0.404093 -1.97304 0
M  V30 2248 C 221.882 0.36686 -3.44754 0
M  V30 2249 C 220.943 -0.573485 -4.25452 0
M  V30 2250 C 220.176 0.149488 -5.33491 0
M  V30 2251 O 220.399 1.37255 -5.5364 0
M  V30 2252 O 219.333 -0.510919 -5.99728 0
M  V30 2253 H 223.159 -1.2411 -2.77183 0
M  V30 2254 H 220.744 -0.669926 -1.33538 0
M  V30 2255 H 222.626 0.795907 -4.13816 0
M  V30 2256 H 221.301 1.19169 -3.00966 0
M  V30 2257 H 220.208 -1.05176 -3.59011 0
M  V30 2258 H 221.541 -1.36489 -4.72897 0
M  V30 2259 N 223.193 1.4272 -0.668489 0
M  V30 2260 C 224.143 2.27971 0.0363806 0
M  V30 2261 C 225.127 1.40741 0.779794 0
M  V30 2262 O 226.319 1.64245 0.659745 0
M  V30 2263 C 223.448 3.28673 0.991398 0
M  V30 2264 C 222.534 4.23388 0.245658 0
M  V30 2265 N 222.925 5.00267 -0.746069 0
M  V30 2266 C 221.223 4.43355 0.484988 0
M  V30 2267 C 221.924 5.69396 -1.19009 0
M  V30 2268 N 220.9 5.41095 -0.521287 0
M  V30 2269 H 224.702 2.84833 -0.724394 0
M  V30 2270 H 222.216 1.54607 -0.497028 0
M  V30 2271 H 224.213 3.88543 1.51129 0
M  V30 2272 H 222.873 2.73373 1.75207 0
M  V30 2273 H 223.884 5.05525 -1.12537 0
M  V30 2274 H 220.561 3.99104 1.22565 0
M  V30 2275 H 221.951 6.41083 -2.01153 0
M  V30 2276 N 224.671 0.411399 1.52136 0
M  V30 2277 C 225.899 -0.163076 2.06256 0
M  V30 2278 C 226.314 -1.3867 1.28125 0
M  V30 2279 O 225.671 -1.79423 0.333721 0
M  V30 2280 C 225.722 -0.511252 3.57867 0
M  V30 2281 O 225.443 0.66378 4.33042 0
M  V30 2282 C 226.944 -1.13921 4.28412 0
M  V30 2283 H 224.164 -0.0193897 0.67072 0
M  V30 2284 H 226.708 0.583007 1.96013 0
M  V30 2285 H 224.863 -1.20723 3.6811 0
M  V30 2286 H 225.277 0.372601 5.23175 0
M  V30 2287 H 226.751 -1.33302 5.35663 0
M  V30 2288 H 227.228 -2.11296 3.85033 0
M  V30 2289 H 227.834 -0.483373 4.22544 0
M  V30 2290 N 226.149 -1.5696 0.141893 0
M  V30 2291 C 227.096 -2.16501 -0.799737 0
M  V30 2292 C 228.066 -1.09643 -1.24771 0
M  V30 2293 O 229.251 -1.3766 -1.32115 0
M  V30 2294 C 226.391 -2.78679 -2.03549 0
M  V30 2295 C 225.504 -3.99914 -1.6338 0
M  V30 2296 C 224.639 -4.50106 -2.82096 0
M  V30 2297 C 223.678 -5.63819 -2.38275 0
M  V30 2298 N 222.815 -6.08651 -3.49983 0
M  V30 2299 H 227.655 -2.96632 -0.285179 0
M  V30 2300 H 225.192 -1.46533 -0.129053 0
M  V30 2301 H 227.15 -3.1287 -2.75986 0
M  V30 2302 H 225.78 -2.012 -2.52425 0
M  V30 2303 H 224.832 -3.71735 -0.807279 0
M  V30 2304 H 226.144 -4.82311 -1.27192 0
M  V30 2305 H 225.298 -4.86325 -3.62729 0
M  V30 2306 H 224.037 -3.66706 -3.21525 0
M  V30 2307 H 223.042 -5.2718 -1.56081 0
M  V30 2308 H 224.267 -6.49 -1.99938 0
M  V30 2309 H 222.213 -5.28188 -3.89042 0
M  V30 2310 H 222.13 -6.85961 -3.17794 0
M  V30 2311 H 223.398 -6.49515 -4.30988 0
M  V30 2312 N 227.627 0.131896 -1.57047 0
M  V30 2313 C 228.557 1.16384 -2.02428 0
M  V30 2314 C 229.538 1.43936 -0.90644 0
M  V30 2315 O 230.723 1.54599 -1.17528 0
M  V30 2316 C 227.853 2.49328 -2.4177 0
M  V30 2317 C 226.807 2.36266 -3.56879 0
M  V30 2318 C 226.133 3.74057 -3.8208 0
M  V30 2319 C 227.433 1.834 -4.89042 0
M  V30 2320 H 229.127 0.786433 -2.88887 0
M  V30 2321 H 226.673 0.376855 -1.38981 0
M  V30 2322 H 228.626 3.21759 -2.7212 0
M  V30 2323 H 227.35 2.88934 -1.52266 0
M  V30 2324 H 226.009 1.66286 -3.26718 0
M  V30 2325 H 225.657 4.11125 -2.89803 0
M  V30 2326 H 225.357 3.66174 -4.59554 0
M  V30 2327 H 226.881 4.48012 -4.1487 0
M  V30 2328 H 228.295 2.45636 -5.18011 0
M  V30 2329 H 226.692 1.8637 -5.70426 0
M  V30 2330 H 227.762 0.790662 -4.7841 0
M  V30 2331 N 229.106 1.52395 0.401703 0
M  V30 2332 C 230.069 1.75636 1.47257 0
M  V30 2333 C 231.069 0.62628 1.48103 0
M  V30 2334 O 232.259 0.894227 1.49497 0
M  V30 2335 C 229.391 1.84553 2.86624 0
M  V30 2336 H 230.584 2.71241 1.27938 0
M  V30 2337 H 228.137 1.42923 0.632662 0
M  V30 2338 H 228.872 0.908882 3.11303 0
M  V30 2339 H 228.657 2.66715 2.87412 0
M  V30 2340 H 230.147 2.04251 3.64241 0
M  V30 2341 N 230.584 -0.659388 1.43143 0
M  V30 2342 C 231.809 -1.45221 1.48073 0
M  V30 2343 C 232.234 -1.87845 0.097995 0
M  V30 2344 O 231.592 -1.56985 -0.90694 0
M  V30 2345 C 231.64 -2.66748 2.42647 0
M  V30 2346 O 230.744 -3.65583 1.90848 0
M  V30 2347 H 230.085 -0.435669 0.501088 0
M  V30 2348 H 232.615 -0.807432 1.87994 0
M  V30 2349 H 232.625 -3.14637 2.59745 0
M  V30 2350 H 231.3 -2.35067 3.43098 0
M  V30 2351 H 229.877 -3.24693 1.83381 0
M  V30 2352 N 232.062 -1.29571 -0.897171 0
M  V30 2353 C 233.287 -1.20705 -1.68656 0
M  V30 2354 C 233.712 0.228582 -1.86706 0
M  V30 2355 O 233.07 1.16494 -1.3892 0
M  V30 2356 C 233.118 -1.9282 -3.04717 0
M  V30 2357 O 232.222 -1.24697 -3.93096 0
M  V30 2358 H 231.563 -0.418126 -0.515816 0
M  V30 2359 H 234.093 -1.71183 -1.12061 0
M  V30 2360 H 234.103 -2.01372 -3.54843 0
M  V30 2361 H 232.778 -2.97239 -2.90899 0
M  V30 2362 H 231.355 -1.2442 -3.51531 0
M  V30 2363 N 233.54 1.10788 -1.12088 0
M  V30 2364 C 234.78 1.84297 -0.883974 0
M  V30 2365 C 235.144 1.83036 0.579797 0
M  V30 2366 O 236.345 2.52061 0.933734 0
M  V30 2367 C 234.616 3.27173 -1.43849 0
M  V30 2368 S 236.175 4.17853 -1.33957 0
M  V30 2369 H 232.993 0.635433 -0.318977 0
M  V30 2370 H 235.595 1.33341 -1.4297 0
M  V30 2371 H 234.299 3.25658 -2.49749 0
M  V30 2372 H 233.83 3.83198 -0.890096 0
M  V30 2373 H 235.845 4.95239 -0.308603 0
M  V30 2374 N 235.018 0.912232 1.28515 0
M  V30 2375 C 235.948 0.416403 2.29757 0
M  V30 2376 C 236.929 -0.515194 1.6211 0
M  V30 2377 O 238.114 -0.423253 1.89532 0
M  V30 2378 C 235.244 -0.34572 3.45575 0
M  V30 2379 C 234.198 0.496599 4.25109 0
M  V30 2380 C 233.524 -0.393771 5.33248 0
M  V30 2381 C 234.824 1.75307 4.92001 0
M  V30 2382 H 236.518 1.26249 2.7148 0
M  V30 2383 H 234.064 0.608515 1.30511 0
M  V30 2384 H 236.017 -0.703422 4.15488 0
M  V30 2385 H 234.741 -1.2257 3.02728 0
M  V30 2386 H 233.4 0.8368 3.56922 0
M  V30 2387 H 233.048 -1.27225 4.86644 0
M  V30 2388 H 232.748 0.166209 5.87365 0
M  V30 2389 H 234.272 -0.747389 6.06009 0
M  V30 2390 H 235.686 1.46437 5.54283 0
M  V30 2391 H 234.083 2.25534 5.56106 0
M  V30 2392 H 235.153 2.48176 4.16577 0
M  V30 2393 N 236.496 -1.42363 0.676048 0
M  V30 2394 C 237.426 -2.33497 0.0124832 0
M  V30 2395 C 238.407 -1.50748 -0.787981 0
M  V30 2396 O 239.592 -1.79346 -0.744884 0
M  V30 2397 C 236.722 -3.34377 -0.938582 0
M  V30 2398 C 235.676 -4.27289 -0.246622 0
M  V30 2399 C 235.002 -5.18386 -1.31071 0
M  V30 2400 C 236.302 -5.14916 0.875125 0
M  V30 2401 H 237.996 -2.89233 0.773593 0
M  V30 2402 H 235.542 -1.39073 0.37346 0
M  V30 2403 H 237.495 -3.97044 -1.41188 0
M  V30 2404 H 236.219 -2.76947 -1.73113 0
M  V30 2405 H 234.878 -3.66018 0.206456 0
M  V30 2406 H 234.526 -4.57282 -2.09528 0
M  V30 2407 H 234.226 -5.81378 -0.852839 0
M  V30 2408 H 235.75 -5.83929 -1.78492 0
M  V30 2409 H 237.164 -5.71262 0.482983 0
M  V30 2410 H 235.561 -5.86747 1.25887 0
M  V30 2411 H 236.631 -4.53242 1.72335 0
M  V30 2412 N 237.974 -0.419461 -1.51915 0
M  V30 2413 C 239.223 0.154346 -2.01109 0
M  V30 2414 C 239.536 1.45338 -1.30905 0
M  V30 2415 O 240.742 2.10906 -1.7097 0
M  V30 2416 C 239.198 0.325615 -3.58424 0
M  V30 2417 C 238.806 -0.961934 -4.37551 0
M  V30 2418 C 240.55 0.854155 -4.15818 0
M  V30 2419 C 238.457 -0.757287 -5.86531 0
M  V30 2420 H 237.387 0.0614563 -0.751491 0
M  V30 2421 H 240.038 -0.54649 -1.75173 0
M  V30 2422 H 238.42 1.08903 -3.80731 0
M  V30 2423 H 239.594 -1.7323 -4.26999 0
M  V30 2424 H 237.909 -1.41766 -3.91524 0
M  V30 2425 H 240.506 1.02346 -5.24814 0
M  V30 2426 H 240.849 1.83172 -3.73837 0
M  V30 2427 H 241.382 0.149528 -3.97519 0
M  V30 2428 H 238.121 -1.70671 -6.32892 0
M  V30 2429 H 237.641 -0.0264061 -5.99794 0
M  V30 2430 H 239.32 -0.403482 -6.45741 0
M  V30 2431 N 239.452 1.56882 -0.150215 0
M  V30 2432 C 240.382 2.19935 0.784284 0
M  V30 2433 C 241.363 1.14854 1.25469 0
M  V30 2434 O 242.548 1.43209 1.31168 0
M  V30 2435 C 239.678 2.82349 2.02229 0
M  V30 2436 C 238.632 3.93285 1.68853 0
M  V30 2437 C 237.958 4.42649 2.99944 0
M  V30 2438 C 239.258 5.13904 0.932714 0
M  V30 2439 H 240.952 2.9828 0.258781 0
M  V30 2440 H 238.498 1.43473 0.123029 0
M  V30 2441 H 240.451 3.25126 2.68088 0
M  V30 2442 H 239.175 2.0134 2.57157 0
M  V30 2443 H 237.834 3.5113 1.05371 0
M  V30 2444 H 237.482 3.58458 3.52869 0
M  V30 2445 H 237.182 5.17476 2.78374 0
M  V30 2446 H 238.706 4.88099 3.66868 0
M  V30 2447 H 240.12 5.53506 1.49345 0
M  V30 2448 H 238.517 5.94515 0.81684 0
M  V30 2449 H 239.587 4.84842 -0.0749568 0
M  V30 2450 N 240.93 -0.123565 1.57115 0
M  V30 2451 C 241.84 -1.17074 2.033 0
M  V30 2452 C 242.856 -1.4561 0.952559 0
M  V30 2453 O 244.032 -1.56817 1.26374 0
M  V30 2454 C 241.097 -2.47857 2.42421 0
M  V30 2455 C 240.158 -2.26758 3.64526 0
M  V30 2456 C 239.391 -3.51305 4.01771 0
M  V30 2457 O 239.614 -4.5843 3.39409 0
M  V30 2458 O 238.548 -3.42578 4.94898 0
M  V30 2459 H 242.374 -0.808555 2.92739 0
M  V30 2460 H 239.959 -0.334027 1.45618 0
M  V30 2461 H 241.841 -3.2492 2.68338 0
M  V30 2462 H 240.516 -2.83558 1.5613 0
M  V30 2463 H 239.423 -1.47569 3.43765 0
M  V30 2464 H 240.756 -1.95963 4.51508 0
M  V30 2465 N 242.408 -1.52605 -0.393616 0
M  V30 2466 C 243.655 -1.67424 -1.1391 0
M  V30 2467 C 243.983 -0.411859 -1.90089 0
M  V30 2468 O 243.238 0.605626 -1.86093 0
M  V30 2469 C 243.537 -2.85721 -2.14705 0
M  V30 2470 C 243.203 -4.23342 -1.55218 0
M  V30 2471 C 241.865 -4.60771 -1.3872 0
M  V30 2472 C 244.217 -5.09041 -1.11924 0
M  V30 2473 C 241.545 -5.81563 -0.774689 0
M  V30 2474 C 243.897 -6.30452 -0.520853 0
M  V30 2475 C 242.561 -6.66617 -0.343134 0
M  V30 2476 H 241.831 -0.612648 -0.416826 0
M  V30 2477 H 244.478 -1.8674 -0.424315 0
M  V30 2478 H 242.783 -2.60803 -2.92385 0
M  V30 2479 H 244.48 -2.94382 -2.72288 0
M  V30 2480 H 241.07 -3.93855 -1.69045 0
M  V30 2481 H 245.254 -4.80695 -1.23473 0
M  V30 2482 H 240.51 -6.08196 -0.625154 0
M  V30 2483 H 244.684 -6.96175 -0.177065 0
M  V30 2484 H 242.311 -7.60083 0.133571 0
M  V30 2485 N 243.887 0.651787 -1.4349 0
M  V30 2486 C 245.133 1.41376 -1.45398 0
M  V30 2487 C 245.466 1.94041 -0.0784823 0
M  V30 2488 O 244.741 1.72379 0.900878 0
M  V30 2489 C 245.024 2.59414 -2.49752 0
M  V30 2490 C 244.877 2.12232 -3.96582 0
M  V30 2491 C 246.196 3.61626 -2.50827 0
M  V30 2492 H 243.315 0.512719 -0.529422 0
M  V30 2493 H 245.957 0.738796 -1.75048 0
M  V30 2494 H 244.107 3.16997 -2.246 0
M  V30 2495 H 245.779 1.59639 -4.32797 0
M  V30 2496 H 244.022 1.43592 -4.09346 0
M  V30 2497 H 244.693 2.9712 -4.65214 0
M  V30 2498 H 247.169 3.13805 -2.7325 0
M  V30 2499 H 246.045 4.41766 -3.25783 0
M  V30 2500 H 246.306 4.14314 -1.5426 0
M  V30 2501 N 245.365 1.30045 0.890287 0
M  V30 2502 C 246.298 1.10301 1.99772 0
M  V30 2503 C 247.276 0.0121631 1.62595 0
M  V30 2504 O 248.46 0.16469 1.87779 0
M  V30 2505 C 245.587 0.681125 3.31781 0
M  V30 2506 C 244.633 1.77206 3.87944 0
M  V30 2507 S 245.466 3.37335 4.15891 0
M  V30 2508 C 246.622 2.97036 5.50927 0
M  V30 2509 H 246.855 2.04057 2.16213 0
M  V30 2510 H 244.388 1.14299 1.03804 0
M  V30 2511 H 246.346 0.444439 4.08087 0
M  V30 2512 H 245.007 -0.236981 3.13205 0
M  V30 2513 H 244.2 1.42903 4.83316 0
M  V30 2514 H 243.802 1.96275 3.18358 0
M  V30 2515 H 246.094 2.44666 6.31779 0
M  V30 2516 H 247.037 3.91296 5.90164 0
M  V30 2517 H 247.445 2.35057 5.13233 0
M  V30 2518 N 246.843 -1.10192 1.12674 0
M  V30 2519 C 248.092 -1.81573 0.8783 0
M  V30 2520 C 248.405 -1.86249 -0.597557 0
M  V30 2521 O 249.611 -2.5386 -0.962681 0
M  V30 2522 C 248.067 -3.26149 1.52167 0
M  V30 2523 C 247.675 -3.29763 3.03249 0
M  V30 2524 C 249.419 -4.0234 1.3536 0
M  V30 2525 C 247.326 -4.68815 3.60508 0
M  V30 2526 H 246.256 -0.680394 0.324931 0
M  V30 2527 H 248.907 -1.23902 1.35353 0
M  V30 2528 H 247.289 -3.83832 0.974104 0
M  V30 2529 H 248.463 -2.8189 3.6452 0
M  V30 2530 H 246.778 -2.67059 3.19481 0
M  V30 2531 H 249.375 -5.05058 1.75559 0
M  V30 2532 H 249.718 -4.15235 0.297554 0
M  V30 2533 H 250.251 -3.51079 1.87052 0
M  V30 2534 H 246.99 -4.61121 4.65884 0
M  V30 2535 H 246.51 -5.17045 3.04014 0
M  V30 2536 H 248.189 -5.37785 3.59717 0
M  V30 2537 N 248.321 -0.919034 -1.28029 0
M  V30 2538 C 249.567 -0.555757 -1.95036 0
M  V30 2539 C 249.9 0.899198 -1.72128 0
M  V30 2540 O 249.175 1.64023 -1.04531 0
M  V30 2541 C 249.458 -0.872024 -3.49382 0
M  V30 2542 C 249.311 -2.3801 -3.81669 0
M  V30 2543 C 250.63 -0.37185 -4.38526 0
M  V30 2544 H 247.749 -0.203386 -0.708381 0
M  V30 2545 H 250.391 -1.14924 -1.51303 0
M  V30 2546 H 248.541 -0.366946 -3.86763 0
M  V30 2547 H 250.213 -2.9562 -3.54128 0
M  V30 2548 H 248.456 -2.83289 -3.28526 0
M  V30 2549 H 249.127 -2.55192 -4.8947 0
M  V30 2550 H 251.603 -0.804602 -4.08247 0
M  V30 2551 H 250.479 -0.622173 -5.45362 0
M  V30 2552 H 250.74 0.727934 -4.36066 0
M  V30 2553 N 249.799 1.42003 -0.683588 0
M  V30 2554 C 251.045 2.01712 -0.209825 0
M  V30 2555 C 251.378 1.53968 1.18353 0
M  V30 2556 O 250.653 0.745661 1.79639 0
M  V30 2557 C 250.936 3.59202 -0.254197 0
M  V30 2558 C 250.789 4.17102 -1.68363 0
M  V30 2559 C 252.108 4.38344 0.392709 0
M  V30 2560 H 249.227 0.732891 -0.0777189 0
M  V30 2561 H 251.869 1.68909 -0.87004 0
M  V30 2562 H 250.019 3.87278 0.307954 0
M  V30 2563 H 251.691 3.99946 -2.29871 0
M  V30 2564 H 249.934 3.72597 -2.22157 0
M  V30 2565 H 250.605 5.26249 -1.6663 0
M  V30 2566 H 253.081 4.16011 -0.0859162 0
M  V30 2567 H 251.957 5.47901 0.331063 0
M  V30 2568 H 252.218 4.16887 1.47164 0
M  V30 2569 N 251.277 0.427512 1.51691 0
M  V30 2570 C 252.524 -0.142229 2.02 0
M  V30 2571 C 252.852 -1.43566 1.31221 0
M  V30 2572 O 252.107 -1.91298 0.412744 0
M  V30 2573 C 252.406 -0.418249 3.54944 0
M  V30 2574 C 252.072 0.788187 4.43958 0
M  V30 2575 C 250.734 1.11906 4.68007 0
M  V30 2576 C 253.086 1.59347 4.96244 0
M  V30 2577 C 250.414 2.25608 5.41588 0
M  V30 2578 C 252.766 2.7214 5.71072 0
M  V30 2579 C 251.43 3.05692 5.93387 0
M  V30 2580 H 250.7 -0.0520451 0.73917 0
M  V30 2581 H 253.347 0.572697 1.82736 0
M  V30 2582 H 251.652 -1.21496 3.72486 0
M  V30 2583 H 253.349 -0.872339 3.91397 0
M  V30 2584 H 249.939 0.520344 4.2543 0
M  V30 2585 H 254.123 1.35106 4.77556 0
M  V30 2586 H 249.379 2.51929 5.57083 0
M  V30 2587 H 253.553 3.34914 6.10578 0
M  V30 2588 H 251.18 3.9391 6.50184 0
M  V30 2589 N 252.755 -1.56801 0.158532 0
M  V30 2590 C 254.003 -1.96102 -0.488712 0
M  V30 2591 C 254.324 -1.04498 -1.64636 0
M  V30 2592 O 253.594 -0.108783 -1.95598 0
M  V30 2593 H 252.174 -0.724102 -0.183535 0
M  V30 2594 H 254.836 -1.93457 0.236728 0
M  V30 2595 H 253.932 -3.00097 -0.857219 0
M  V30 2596 N 254.233 0.115231 -1.57178 0
M  V30 2597 C 255.163 1.1423 -2.03651 0
M  V30 2598 C 256.144 1.42967 -0.921655 0
M  V30 2599 O 257.329 1.53343 -1.19162 0
M  V30 2600 C 254.459 2.4675 -2.44401 0
M  V30 2601 C 253.413 2.32467 -3.59365 0
M  V30 2602 C 252.739 3.69984 -3.86026 0
M  V30 2603 C 254.039 1.78203 -4.90959 0
M  V30 2604 H 255.733 0.755749 -2.89705 0
M  V30 2605 H 253.279 0.362093 -1.39373 0
M  V30 2606 H 255.232 3.18854 -2.75517 0
M  V30 2607 H 253.956 2.87302 -1.55322 0
M  V30 2608 H 252.615 1.62811 -3.28463 0
M  V30 2609 H 252.263 4.08028 -2.94147 0
M  V30 2610 H 251.963 3.61279 -4.63412 0
M  V30 2611 H 253.487 4.43587 -4.19599 0
M  V30 2612 H 254.901 2.40128 -5.20587 0
M  V30 2613 H 253.298 1.8031 -5.72371 0
M  V30 2614 H 254.368 0.739876 -4.79222 0
M  V30 2615 N 255.711 1.52812 0.385517 0
M  V30 2616 C 256.621 1.80766 1.49535 0
M  V30 2617 C 257.637 0.694651 1.59532 0
M  V30 2618 O 258.813 0.982611 1.75803 0
M  V30 2619 C 255.878 1.97381 2.85029 0
M  V30 2620 C 254.939 3.21295 2.84724 0
M  V30 2621 C 254.172 3.37108 4.13756 0
M  V30 2622 O 254.395 2.5765 5.08893 0
M  V30 2623 O 253.329 4.30378 4.20783 0
M  V30 2624 H 257.155 2.75015 1.28842 0
M  V30 2625 H 254.74 1.37946 0.573697 0
M  V30 2626 H 256.622 2.09996 3.65349 0
M  V30 2627 H 255.297 1.06322 3.05741 0
M  V30 2628 H 254.204 3.1412 2.03174 0
M  V30 2629 H 255.537 4.12212 2.68965 0
M  V30 2630 N 257.189 -0.644168 1.43834 0
M  V30 2631 C 258.436 -1.40395 1.4593 0
M  V30 2632 C 258.764 -1.94305 0.0869658 0
M  V30 2633 O 258.019 -1.73288 -0.909378 0
M  V30 2634 C 258.318 -2.59615 2.45631 0
M  V30 2635 C 257.984 -2.2407 3.91284 0
M  V30 2636 C 256.646 -2.14089 4.30952 0
M  V30 2637 C 258.998 -1.95775 4.83034 0
M  V30 2638 C 256.326 -1.73981 5.6031 0
M  V30 2639 C 258.678 -1.57163 6.12766 0
M  V30 2640 C 257.342 -1.45713 6.51402 0
M  V30 2641 H 256.612 -0.513741 0.533995 0
M  V30 2642 H 259.259 -0.731724 1.76969 0
M  V30 2643 H 257.564 -3.32011 2.08028 0
M  V30 2644 H 259.261 -3.17834 2.44504 0
M  V30 2645 H 255.851 -2.32753 3.59895 0
M  V30 2646 H 260.035 -2.02403 4.53152 0
M  V30 2647 H 255.291 -1.63709 5.89075 0
M  V30 2648 H 259.465 -1.34303 6.83327 0
M  V30 2649 H 257.092 -1.14406 7.51542 0
M  V30 2650 N 258.668 -1.30515 -0.883378 0
M  V30 2651 C 259.917 -1.18795 -1.63005 0
M  V30 2652 C 260.23 0.255923 -1.93919 0
M  V30 2653 O 261.436 0.494654 -2.66956 0
M  V30 2654 C 259.892 -2.07878 -2.93794 0
M  V30 2655 C 259.5 -3.57184 -2.70414 0
M  V30 2656 C 261.244 -2.04924 -3.71761 0
M  V30 2657 C 259.151 -4.38317 -3.97029 0
M  V30 2658 H 258.081 -0.441031 -0.611562 0
M  V30 2659 H 260.732 -1.55275 -0.977854 0
M  V30 2660 H 259.114 -1.64283 -3.60315 0
M  V30 2661 H 260.288 -4.08937 -2.12384 0
M  V30 2662 H 258.603 -3.61976 -2.0582 0
M  V30 2663 H 261.2 -2.62792 -4.65665 0
M  V30 2664 H 261.543 -1.0331 -4.03277 0
M  V30 2665 H 262.076 -2.46649 -3.12104 0
M  V30 2666 H 258.815 -5.40632 -3.70671 0
M  V30 2667 H 258.335 -3.91326 -4.54559 0
M  V30 2668 H 260.014 -4.49834 -4.65036 0
M  V30 2669 N 260.146 1.09593 -1.13257 0
M  V30 2670 C 261.395 1.81105 -0.887917 0
M  V30 2671 C 261.708 1.86563 0.587672 0
M  V30 2672 O 262.914 2.54367 0.949204 0
M  V30 2673 C 261.37 3.25338 -1.53895 0
M  V30 2674 C 260.978 3.28151 -3.04994 0
M  V30 2675 C 262.722 4.01617 -1.37492 0
M  V30 2676 C 260.629 4.66897 -3.6299 0
M  V30 2677 H 259.559 0.678661 -0.328534 0
M  V30 2678 H 262.21 1.23183 -1.36008 0
M  V30 2679 H 260.592 3.8331 -0.994446 0
M  V30 2680 H 261.766 2.79953 -3.66009 0
M  V30 2681 H 260.081 2.65361 -3.20893 0
M  V30 2682 H 262.678 5.04119 -1.78235 0
M  V30 2683 H 263.021 4.15072 -0.31957 0
M  V30 2684 H 263.554 3.50082 -1.88912 0
M  V30 2685 H 260.293 4.58643 -4.68323 0
M  V30 2686 H 259.813 5.15426 -3.06752 0
M  V30 2687 H 261.492 5.3587 -3.62563 0
M  V30 2688 N 261.624 0.925811 1.2754 0
M  V30 2689 C 263.04 0.625767 1.46821 0
M  V30 2690 C 263.24 -0.825506 1.83814 0
M  V30 2691 O 262.296 -1.60356 1.95044 0
M  V30 2692 C 263.609 1.57402 2.56213 0
M  V30 2693 C 265.157 1.58204 2.70075 0
M  V30 2694 C 265.632 2.51721 3.82623 0
M  V30 2695 N 267.123 2.49917 3.89994 0
M  V30 2696 C 267.858 3.18968 4.76494 0
M  V30 2697 N 267.354 3.97391 5.67496 0
M  V30 2698 N 269.147 3.07996 4.70208 0
M  V30 2699 H 261.298 1.86409 1.01811 0
M  V30 2700 H 263.561 0.800213 0.508295 0
M  V30 2701 H 263.267 2.60925 2.35819 0
M  V30 2702 H 263.141 1.31428 3.53563 0
M  V30 2703 H 265.528 0.554124 2.89851 0
M  V30 2704 H 265.609 1.88226 1.73218 0
M  V30 2705 H 265.253 3.54622 3.63601 0
M  V30 2706 H 265.183 2.18996 4.78903 0
M  V30 2707 H 267.674 1.9296 3.24923 0
M  V30 2708 H 267.987 4.4707 6.30356 0
M  V30 2709 H 266.332 4.01495 5.67298 0
M  V30 2710 H 269.523 2.46223 3.9811 0
M  V30 2711 H 269.696 3.6208 5.37403 0
M  V30 2712 N 263.102 -1.41638 0.69111 0
M  V30 2713 C 264.351 -2.00526 0.217318 0
M  V30 2714 C 264.664 -1.55353 -1.18848 0
M  V30 2715 O 265.87 -2.06769 -1.75951 0
M  V30 2716 C 264.326 -3.58313 0.337639 0
M  V30 2717 C 263.934 -4.12469 1.74852 0
M  V30 2718 C 265.678 -4.24431 -0.0766066 0
M  V30 2719 C 263.585 -5.62675 1.82074 0
M  V30 2720 H 262.515 -0.750008 0.0774893 0
M  V30 2721 H 265.166 -1.6217 0.858661 0
M  V30 2722 H 263.548 -3.9425 -0.371879 0
M  V30 2723 H 264.722 -3.8796 2.48644 0
M  V30 2724 H 263.037 -3.58861 2.11205 0
M  V30 2725 H 265.634 -5.34683 -0.0430284 0
M  V30 2726 H 265.977 -4.01101 -1.1146 0
M  V30 2727 H 266.51 -3.93512 0.582476 0
M  V30 2728 H 263.249 -5.90826 2.83911 0
M  V30 2729 H 262.769 -5.89124 1.12661 0
M  V30 2730 H 264.448 -6.27371 1.58159 0
M  V30 2731 N 264.58 -0.43555 -1.51462 0
M  V30 2732 C 265.826 0.123979 -2.03022 0
M  V30 2733 C 266.181 1.4054 -1.31401 0
M  V30 2734 O 265.474 1.86948 -0.419634 0
M  V30 2735 C 265.668 0.39942 -3.55161 0
M  V30 2736 C 265.497 -0.853754 -4.41521 0
M  V30 2737 C 264.267 -1.38675 -4.85898 0
M  V30 2738 C 266.465 -1.73939 -4.83994 0
M  V30 2739 N 264.447 -2.59265 -5.56466 0
M  V30 2740 C 265.818 -2.79135 -5.5361 0
M  V30 2741 C 267.873 -1.75402 -4.65981 0
M  V30 2742 C 266.576 -3.85737 -6.07124 0
M  V30 2743 C 268.602 -2.80938 -5.20411 0
M  V30 2744 C 267.964 -3.84854 -5.89972 0
M  V30 2745 H 264.063 0.00624887 -0.781975 0
M  V30 2746 H 266.647 -0.59582 -1.85359 0
M  V30 2747 H 264.818 1.08825 -3.72843 0
M  V30 2748 H 266.55 0.95015 -3.93388 0
M  V30 2749 H 263.305 -0.94094 -4.64159 0
M  V30 2750 H 263.729 -3.2041 -5.96378 0
M  V30 2751 H 268.371 -0.963926 -4.11665 0
M  V30 2752 H 266.089 -4.65586 -6.60496 0
M  V30 2753 H 269.675 -2.8301 -5.08327 0
M  V30 2754 H 268.555 -4.65176 -6.31333 0
M  V30 2755 N 266.058 1.56714 -0.166846 0
M  V30 2756 C 267.283 2.01557 0.488833 0
M  V30 2757 C 267.708 1.0463 1.56314 0
M  V30 2758 O 267.066 0.0251304 1.81283 0
M  V30 2759 C 267.114 3.4503 1.04818 0
M  V30 2760 O 266.218 3.51163 2.16236 0
M  V30 2761 H 265.559 0.653516 0.117526 0
M  V30 2762 H 268.089 2.02818 -0.269421 0
M  V30 2763 H 268.099 3.84243 1.37191 0
M  V30 2764 H 266.774 4.15077 0.261572 0
M  V30 2765 H 265.351 3.23807 1.84942 0
M  V30 2766 N 267.536 -0.106894 1.57237 0
M  V30 2767 C 268.499 -1.11466 2.0027 0
M  V30 2768 C 269.499 -1.33623 0.894519 0
M  V30 2769 O 270.689 -1.29935 1.16028 0
M  V30 2770 C 267.821 -2.46646 2.35327 0
M  V30 2771 H 269.014 -0.744516 2.90512 0
M  V30 2772 H 266.567 -0.351576 1.52295 0
M  V30 2773 H 267.302 -2.88558 1.48003 0
M  V30 2774 H 267.087 -2.31915 3.16161 0
M  V30 2775 H 268.577 -3.19151 2.69318 0
M  V30 2776 N 269.014 -1.53014 -0.377408 0
M  V30 2777 C 270.262 -1.6829 -1.11906 0
M  V30 2778 C 270.583 -0.431206 -1.90173 0
M  V30 2779 O 269.853 0.554595 -1.87886 0
M  V30 2780 H 268.433 -0.620371 -0.416112 0
M  V30 2781 H 271.095 -1.90167 -0.426893 0
M  V30 2782 H 270.191 -2.53862 -1.8155 0
M  V30 2783 N 270.492 0.636531 -1.44174 0
M  V30 2784 C 271.732 1.40781 -1.48189 0
M  V30 2785 C 272.096 1.91688 -0.10944 0
M  V30 2786 O 273.297 2.68789 -0.0242741 0
M  V30 2787 C 271.568 2.54575 -2.50851 0
M  V30 2788 S 273.127 3.4284 -2.73873 0
M  V30 2789 H 269.945 0.480345 -0.524204 0
M  V30 2790 H 272.547 0.737416 -1.81059 0
M  V30 2791 H 271.251 2.15478 -3.49281 0
M  V30 2792 H 270.782 3.26447 -2.19536 0
M  V30 2793 H 272.797 4.51846 -2.05059 0
M  V30 2794 N 271.97 1.30982 0.876444 0
M  V30 2795 C 273.21 1.21589 1.64303 0
M  V30 2796 C 273.574 -0.223962 1.90689 0
M  V30 2797 O 274.775 -0.44128 2.65153 0
M  V30 2798 C 273.046 2.03007 2.94148 0
M  V30 2799 S 274.605 2.10405 3.85065 0
M  V30 2800 H 271.423 0.433161 0.563819 0
M  V30 2801 H 274.025 1.65565 1.03964 0
M  V30 2802 H 272.729 3.06719 2.72675 0
M  V30 2803 H 272.26 1.59725 3.59515 0
M  V30 2804 H 274.275 1.23765 4.80517 0
M  V30 2805 N 273.449 -1.08991 1.13837 0
M  V30 2806 C 274.689 -1.82867 0.913183 0
M  V30 2807 C 275.053 -1.83936 -0.550604 0
M  V30 2808 O 276.254 -2.53515 -0.893515 0
M  V30 2809 C 274.525 -3.24843 1.49036 0
M  V30 2810 S 276.084 -4.15669 1.40588 0
M  V30 2811 H 272.902 -0.630278 0.329046 0
M  V30 2812 H 275.504 -1.31049 1.45073 0
M  V30 2813 H 274.208 -3.21644 2.54899 0
M  V30 2814 H 273.739 -3.81734 0.950947 0
M  V30 2815 H 275.754 -4.94686 0.387353 0
M  V30 2816 N 274.927 -0.932562 -1.27047 0
M  V30 2817 C 276.343 -0.633544 -1.46487 0
M  V30 2818 C 276.543 0.815746 -1.84249 0
M  V30 2819 O 275.599 1.59319 -1.95892 0
M  V30 2820 C 276.912 -1.58758 -2.55375 0
M  V30 2821 C 278.46 -1.59634 -2.69232 0
M  V30 2822 C 278.935 -2.53747 -3.81283 0
M  V30 2823 N 280.426 -2.51982 -3.88664 0
M  V30 2824 C 281.161 -3.21491 -4.74796 0
M  V30 2825 N 280.657 -4.00395 -5.65381 0
M  V30 2826 N 282.45 -3.10485 -4.68568 0
M  V30 2827 H 274.601 -1.86946 -1.00821 0
M  V30 2828 H 276.864 -0.802897 -0.504044 0
M  V30 2829 H 276.57 -2.62172 -2.34432 0
M  V30 2830 H 276.444 -1.33301 -3.52861 0
M  V30 2831 H 278.831 -0.569488 -2.89553 0
M  V30 2832 H 278.912 -1.89142 -1.72218 0
M  V30 2833 H 278.556 -3.56545 -3.61715 0
M  V30 2834 H 278.486 -2.21532 -4.77735 0
M  V30 2835 H 280.977 -1.94681 -3.23895 0
M  V30 2836 H 281.29 -4.50406 -6.27976 0
M  V30 2837 H 279.635 -4.04498 -5.65161 0
M  V30 2838 H 282.826 -2.48331 -3.96799 0
M  V30 2839 H 282.999 -3.64925 -5.35475 0
M  V30 2840 N 276.405 1.4127 -0.698611 0
M  V30 2841 C 277.635 2.05205 -0.239644 0
M  V30 2842 C 278.043 1.52684 1.11733 0
M  V30 2843 O 277.386 0.671222 1.70998 0
M  V30 2844 C 277.448 3.59289 -0.123126 0
M  V30 2845 C 277.112 4.34619 -1.41263 0
M  V30 2846 C 278.109 4.63701 -2.35111 0
M  V30 2847 C 275.794 4.73837 -1.66684 0
M  V30 2848 C 277.788 5.30966 -3.52639 0
M  V30 2849 C 275.475 5.40837 -2.84498 0
M  V30 2850 C 276.473 5.69329 -3.77298 0
M  V30 2851 O 276.161 6.34949 -4.93047 0
M  V30 2852 H 275.893 0.66723 -0.108537 0
M  V30 2853 H 278.447 1.81974 -0.952602 0
M  V30 2854 H 276.677 3.81272 0.645628 0
M  V30 2855 H 278.366 4.04797 0.299056 0
M  V30 2856 H 279.132 4.33882 -2.16729 0
M  V30 2857 H 275.011 4.51039 -0.953135 0
M  V30 2858 H 278.555 5.53121 -4.25091 0
M  V30 2859 H 274.452 5.70075 -3.02795 0
M  V30 2860 H 275.22 6.53445 -4.92902 0
M  V30 2861 N 277.883 0.443576 1.51229 0
M  V30 2862 C 279.299 0.0962001 1.5931 0
M  V30 2863 C 279.499 -1.39501 1.45402 0
M  V30 2864 O 278.555 -2.16557 1.29843 0
M  V30 2865 C 279.868 0.621875 2.94199 0
M  V30 2866 C 281.416 0.582865 3.07525 0
M  V30 2867 C 281.891 1.08562 4.44948 0
M  V30 2868 N 283.382 1.04387 4.51284 0
M  V30 2869 C 284.117 1.40368 5.55954 0
M  V30 2870 N 283.613 1.83664 6.68011 0
M  V30 2871 N 285.406 1.32145 5.46346 0
M  V30 2872 H 277.557 1.41376 1.58514 0
M  V30 2873 H 279.82 0.582965 0.747567 0
M  V30 2874 H 279.526 1.66546 3.09767 0
M  V30 2875 H 279.4 0.0502125 3.77167 0
M  V30 2876 H 281.787 -0.451749 2.91622 0
M  V30 2877 H 281.868 1.191 2.26382 0
M  V30 2878 H 281.512 2.11873 4.61598 0
M  V30 2879 H 281.442 0.453956 5.2464 0
M  V30 2880 H 283.933 0.725986 3.70861 0
M  V30 2881 H 284.246 2.0934 7.43906 0
M  V30 2882 H 282.591 1.87596 6.69203 0
M  V30 2883 H 285.782 0.981808 4.57688 0
M  V30 2884 H 285.955 1.60514 6.27805 0
M  V30 2885 N 279.361 -1.56624 0.175154 0
M  V30 2886 C 280.609 -1.96609 -0.467885 0
M  V30 2887 C 280.93 -1.06238 -1.63519 0
M  V30 2888 O 280.2 -0.129523 -1.95471 0
M  V30 2889 H 278.78 -0.726008 -0.175845 0
M  V30 2890 H 281.442 -1.93195 0.257234 0
M  V30 2891 H 280.538 -3.00989 -0.825342 0
M  V30 2892 N 280.839 0.0985539 -1.57292 0
M  V30 2893 C 282.085 0.798769 -1.87059 0
M  V30 2894 C 282.44 1.76514 -0.76555 0
M  V30 2895 O 281.733 1.90181 0.232752 0
M  V30 2896 C 281.927 1.56927 -3.21105 0
M  V30 2897 C 281.756 0.679026 -4.44544 0
M  V30 2898 C 280.526 0.326071 -5.04247 0
M  V30 2899 C 282.724 -0.0124715 -5.14298 0
M  V30 2900 N 280.706 -0.572702 -6.11223 0
M  V30 2901 C 282.077 -0.769446 -6.15207 0
M  V30 2902 C 284.132 -0.0867545 -4.97824 0
M  V30 2903 C 282.835 -1.59376 -7.01421 0
M  V30 2904 C 284.861 -0.897955 -5.84543 0
M  V30 2905 C 284.223 -1.64306 -6.84969 0
M  V30 2906 H 280.322 0.268568 -0.734435 0
M  V30 2907 H 282.906 0.0614664 -1.94603 0
M  V30 2908 H 281.077 2.27748 -3.1462 0
M  V30 2909 H 282.809 2.21641 -3.38611 0
M  V30 2910 H 279.564 0.67295 -4.68795 0
M  V30 2911 H 279.988 -1.01454 -6.69355 0
M  V30 2912 H 284.63 0.474963 -4.20124 0
M  V30 2913 H 282.348 -2.16655 -7.78515 0
M  V30 2914 H 285.934 -0.958059 -5.73858 0
M  V30 2915 H 284.814 -2.26065 -7.50909 0
M  V30 2916 N 282.317 1.53212 0.369288 0
M  V30 2917 C 283.249 1.75668 1.47219 0
M  V30 2918 C 284.262 0.637387 1.49804 0
M  V30 2919 O 285.451 0.913561 1.5335 0
M  V30 2920 C 282.551 1.81818 2.85999 0
M  V30 2921 C 281.724 3.11409 3.07153 0
M  V30 2922 C 280.783 3.08849 4.26026 0
M  V30 2923 O 279.809 3.82659 4.2138 0
M  V30 2924 N 281.011 2.29409 5.33246 0
M  V30 2925 H 283.776 2.70832 1.28337 0
M  V30 2926 H 281.337 1.51944 0.55898 0
M  V30 2927 H 283.329 1.77588 3.63655 0
M  V30 2928 H 281.899 0.939544 2.98146 0
M  V30 2929 H 281.119 3.28971 2.1719 0
M  V30 2930 H 282.407 3.97059 3.18154 0
M  V30 2931 H 281.805 1.68946 5.39883 0
M  V30 2932 H 280.362 2.31001 6.09493 0
M  V30 2933 N 283.795 -0.628877 1.44509 0
M  V30 2934 C 285.043 -1.38565 1.4712 0
M  V30 2935 C 285.364 -1.94712 0.105899 0
M  V30 2936 O 284.634 -1.75912 -0.862079 0
M  V30 2937 H 283.214 -0.514333 0.541729 0
M  V30 2938 H 285.876 -0.740018 1.80305 0
M  V30 2939 H 284.972 -2.21583 2.19789 0
M  V30 2940 N 285.273 -1.31445 -0.869486 0
M  V30 2941 C 286.689 -1.10113 -1.15531 0
M  V30 2942 C 286.889 0.128087 -2.01092 0
M  V30 2943 O 285.945 0.817276 -2.38908 0
M  V30 2944 C 287.258 -2.37291 -1.84698 0
M  V30 2945 C 288.806 -2.42906 -1.97397 0
M  V30 2946 C 289.281 -3.69967 -2.69979 0
M  V30 2947 N 290.772 -3.70864 -2.77514 0
M  V30 2948 C 291.507 -4.65875 -3.34287 0
M  V30 2949 N 291.003 -5.71242 -3.91988 0
M  V30 2950 N 292.796 -4.53394 -3.3225 0
M  V30 2951 H 284.947 -2.1028 -0.299347 0
M  V30 2952 H 287.21 -0.927683 -0.195214 0
M  V30 2953 H 286.916 -3.27078 -1.29278 0
M  V30 2954 H 286.79 -2.47125 -2.84972 0
M  V30 2955 H 289.177 -1.53588 -2.51982 0
M  V30 2956 H 289.258 -2.37036 -0.961643 0
M  V30 2957 H 288.902 -4.59652 -2.16062 0
M  V30 2958 H 288.832 -3.73103 -3.7162 0
M  V30 2959 H 291.323 -2.94697 -2.36563 0
M  V30 2960 H 291.636 -6.39817 -4.33421 0
M  V30 2961 H 289.981 -5.75015 -3.90362 0
M  V30 2962 H 293.172 -3.70252 -2.8641 0
M  V30 2963 H 293.345 -5.27617 -3.76197 0
M  V30 2964 N 286.751 1.08385 -1.14413 0
M  V30 2965 C 287.681 2.17321 -0.854044 0
M  V30 2966 C 288.662 1.69024 0.191049 0
M  V30 2967 O 289.847 1.94141 0.0476779 0
M  V30 2968 C 286.977 3.45719 -0.330983 0
M  V30 2969 C 285.931 4.07409 -1.31155 0
M  V30 2970 C 285.257 5.30762 -0.64778 0
M  V30 2971 C 286.557 4.48665 -2.67388 0
M  V30 2972 H 288.251 2.41845 -1.76498 0
M  V30 2973 H 285.797 1.16233 -0.850051 0
M  V30 2974 H 287.75 4.21241 -0.115645 0
M  V30 2975 H 286.474 3.2075 0.615381 0
M  V30 2976 H 285.133 3.33919 -1.51306 0
M  V30 2977 H 284.781 5.02078 0.304398 0
M  V30 2978 H 284.481 5.72992 -1.30207 0
M  V30 2979 H 286.005 6.08998 -0.441972 0
M  V30 2980 H 287.419 5.15364 -2.51143 0
M  V30 2981 H 285.816 5.01814 -3.29093 0
M  V30 2982 H 286.886 3.60543 -3.24248 0
M  V30 2983 N 288.23 0.939286 1.26551 0
M  V30 2984 C 289.646 0.641304 1.46149 0
M  V30 2985 C 289.846 -0.805964 1.84679 0
M  V30 2986 O 288.902 -1.58278 1.96734 0
M  V30 2987 C 290.215 1.6011 2.54529 0
M  V30 2988 C 291.763 1.6106 2.68382 0
M  V30 2989 C 292.238 2.55765 3.79932 0
M  V30 2990 N 293.729 2.5404 3.87322 0
M  V30 2991 C 294.464 3.24004 4.73085 0
M  V30 2992 N 293.96 4.03388 5.63249 0
M  V30 2993 N 295.753 3.12965 4.66914 0
M  V30 2994 H 287.904 1.87478 0.998285 0
M  V30 2995 H 290.167 0.805559 0.499779 0
M  V30 2996 H 289.873 2.63412 2.33039 0
M  V30 2997 H 289.747 1.35171 3.52149 0
M  V30 2998 H 292.134 0.584835 2.89247 0
M  V30 2999 H 292.215 1.90053 1.71212 0
M  V30 3000 H 291.859 3.58458 3.5982 0
M  V30 3001 H 291.789 2.24063 4.76554 0
M  V30 3002 H 294.28 1.96396 3.22858 0
M  V30 3003 H 294.593 4.5373 6.25579 0
M  V30 3004 H 292.938 4.07489 5.63008 0
M  V30 3005 H 296.129 2.50432 3.95476 0
M  V30 3006 H 296.302 3.67759 5.33533 0
M  V30 3007 N 289.708 -1.40897 0.706093 0
M  V30 3008 C 290.955 -2.01054 0.241531 0
M  V30 3009 C 291.283 -1.55956 -1.16223 0
M  V30 3010 O 290.538 -0.766336 -1.80072 0
M  V30 3011 C 290.837 -3.5646 0.259099 0
M  V30 3012 C 290.503 -4.21106 1.61184 0
M  V30 3013 C 289.165 -4.38479 1.98216 0
M  V30 3014 C 291.517 -4.57256 2.50132 0
M  V30 3015 C 288.845 -4.89282 3.2376 0
M  V30 3016 C 291.197 -5.09454 3.7502 0
M  V30 3017 C 289.861 -5.25037 4.12181 0
M  V30 3018 H 289.131 -0.73571 0.0883825 0
M  V30 3019 H 291.778 -1.68645 0.907257 0
M  V30 3020 H 290.083 -3.88721 -0.490189 0
M  V30 3021 H 291.78 -4.00826 -0.11804 0
M  V30 3022 H 288.37 -4.07966 1.31384 0
M  V30 3023 H 292.554 -4.43479 2.228 0
M  V30 3024 H 287.81 -4.99531 3.52532 0
M  V30 3025 H 291.984 -5.36404 4.44121 0
M  V30 3026 H 289.611 -5.64164 5.09532 0
M  V30 3027 N 291.186 -0.45159 -1.50991 0
M  V30 3028 C 292.149 0.341117 -2.26647 0
M  V30 3029 C 293.149 0.937422 -1.30649 0
M  V30 3030 O 294.339 0.809644 -1.54241 0
M  V30 3031 C 291.471 1.48398 -3.06905 0
M  V30 3032 H 292.664 -0.322117 -2.98165 0
M  V30 3033 H 290.217 -0.205122 -1.54948 0
M  V30 3034 H 290.952 2.18284 -2.39838 0
M  V30 3035 H 290.737 1.06241 -3.77432 0
M  V30 3036 H 292.227 2.04367 -3.64176 0
M  V30 3037 N 292.664 1.56529 -0.183458 0
M  V30 3038 C 294.08 1.58664 0.172554 0
M  V30 3039 C 294.28 1.19925 1.61926 0
M  V30 3040 O 293.336 0.916534 2.35278 0
M  V30 3041 C 294.649 3.00463 -0.119262 0
M  V30 3042 C 296.197 3.12945 -0.0584396 0
M  V30 3043 C 296.672 4.56857 -0.323408 0
M  V30 3044 N 298.163 4.62403 -0.271612 0
M  V30 3045 C 298.898 5.71626 -0.450639 0
M  V30 3046 N 298.394 6.89362 -0.689384 0
M  V30 3047 N 300.187 5.60775 -0.385701 0
M  V30 3048 H 292.338 1.79994 -1.12765 0
M  V30 3049 H 294.601 0.834808 -0.449222 0
M  V30 3050 H 294.307 3.33326 -1.12192 0
M  V30 3051 H 294.181 3.72659 0.583544 0
M  V30 3052 H 296.568 2.79902 0.934805 0
M  V30 3053 H 296.649 2.4316 -0.794144 0
M  V30 3054 H 296.293 4.9061 -1.31392 0
M  V30 3055 H 296.223 5.24816 0.43305 0
M  V30 3056 H 298.714 3.77785 -0.0932256 0
M  V30 3057 H 299.027 7.68489 -0.815113 0
M  V30 3058 H 297.372 6.91196 -0.726142 0
M  V30 3059 H 300.563 4.67674 -0.199687 0
M  V30 3060 H 300.736 6.4584 -0.528646 0
M  V30 3061 N 294.142 -0.090211 1.57342 0
M  V30 3062 C 295.089 -1.10909 2.02405 0
M  V30 3063 C 296.059 -1.39523 0.901252 0
M  V30 3064 O 297.244 -1.50903 1.1676 0
M  V30 3065 C 294.384 -2.42277 2.45755 0
M  V30 3066 C 293.497 -2.20352 3.71576 0
M  V30 3067 C 292.632 -3.45154 4.03785 0
M  V30 3068 C 291.671 -3.18512 5.22701 0
M  V30 3069 N 290.808 -4.35593 5.50639 0
M  V30 3070 H 295.648 -0.71782 2.89225 0
M  V30 3071 H 293.185 -0.342901 1.43048 0
M  V30 3072 H 295.143 -3.18951 2.68935 0
M  V30 3073 H 293.773 -2.79242 1.61938 0
M  V30 3074 H 292.825 -1.34458 3.55844 0
M  V30 3075 H 294.137 -1.96661 4.58395 0
M  V30 3076 H 293.291 -4.30233 4.27767 0
M  V30 3077 H 292.03 -3.71904 3.15498 0
M  V30 3078 H 291.035 -2.31827 4.98534 0
M  V30 3079 H 292.26 -2.93103 6.12591 0
M  V30 3080 H 290.206 -4.6241 4.6531 0
M  V30 3081 H 290.123 -4.1511 6.31838 0
M  V30 3082 H 291.391 -5.21723 5.7916 0
M  V30 3083 N 295.62 -1.53406 -0.361157 0
M  V30 3084 C 297.031 -1.61442 -0.937728 0
M  V30 3085 C 297.382 -0.48461 -1.90121 0
M  V30 3086 O 296.507 0.388312 -2.12888 0
M  V30 3087 C 297.102 -2.92624 -1.70753 0
M  V30 3088 C 295.661 -3.02981 -2.23337 0
M  V30 3089 C 294.808 -2.5677 -1.04712 0
M  V30 3090 H 297.759 -1.58083 -0.139816 0
M  V30 3091 H 297.78 -2.80675 -2.56908 0
M  V30 3092 H 297.292 -3.74834 -1.00604 0
M  V30 3093 H 295.393 -2.25368 -2.96715 0
M  V30 3094 H 295.506 -4.0814 -2.50916 0
M  V30 3095 H 293.87 -2.11752 -1.41539 0
M  V30 3096 H 294.653 -3.41402 -0.360539 0
M  V30 3097 N 297.098 0.621204 -1.44841 0
M  V30 3098 C 298.345 1.38055 -1.48145 0
M  V30 3099 C 298.673 1.94143 -0.117867 0
M  V30 3100 O 297.928 1.74713 0.881694 0
M  V30 3101 C 298.227 2.55675 -2.4973 0
M  V30 3102 C 297.893 2.17817 -3.94799 0
M  V30 3103 C 296.555 2.07205 -4.34303 0
M  V30 3104 C 298.907 1.88065 -4.86087 0
M  V30 3105 C 296.235 1.65045 -5.63007 0
M  V30 3106 C 298.587 1.47394 -6.15189 0
M  V30 3107 C 297.251 1.35331 -6.53637 0
M  V30 3108 H 296.521 0.505181 -0.542101 0
M  V30 3109 H 299.168 0.703477 -1.78111 0
M  V30 3110 H 297.473 3.2866 -2.13284 0
M  V30 3111 H 299.17 3.13904 -2.4953 0
M  V30 3112 H 295.76 2.26998 -3.63552 0
M  V30 3113 H 299.944 1.95168 -4.56315 0
M  V30 3114 H 295.2 1.54317 -5.91605 0
M  V30 3115 H 299.374 1.23415 -6.85377 0
M  V30 3116 H 297.001 1.02435 -7.53267 0
M  V30 3117 N 298.576 1.31904 0.862503 0
M  V30 3118 C 299.816 1.23324 1.63004 0
M  V30 3119 C 300.18 -0.203724 1.90916 0
M  V30 3120 O 301.381 -0.413132 2.65606 0
M  V30 3121 C 299.652 2.06116 2.91978 0
M  V30 3122 S 301.211 2.14478 3.82812 0
M  V30 3123 H 298.029 0.439117 0.559193 0
M  V30 3124 H 300.631 1.66658 1.02202 0
M  V30 3125 H 299.335 3.09593 2.69407 0
M  V30 3126 H 298.866 1.6353 3.57801 0
M  V30 3127 H 300.881 1.28855 4.79177 0
M  V30 3128 N 300.054 -1.07777 1.14986 0
M  V30 3129 C 301.3 -1.80557 0.923422 0
M  V30 3130 C 301.633 -1.86298 -0.548337 0
M  V30 3131 O 300.908 -1.34354 -1.40639 0
M  V30 3132 C 301.191 -3.25839 1.53299 0
M  V30 3133 C 301.044 -3.28269 3.07505 0
M  V30 3134 C 302.363 -4.22991 1.21518 0
M  V30 3135 H 299.482 -0.655493 0.336894 0
M  V30 3136 H 302.124 -1.26144 1.42083 0
M  V30 3137 H 300.274 -3.72306 1.10999 0
M  V30 3138 H 301.946 -2.90079 3.58681 0
M  V30 3139 H 300.189 -2.67355 3.4162 0
M  V30 3140 H 300.86 -4.30691 3.45266 0
M  V30 3141 H 303.336 -3.84894 1.581 0
M  V30 3142 H 302.212 -5.22945 1.66793 0
M  V30 3143 H 302.473 -4.41904 0.131505 0
M  V30 3144 N 301.532 -0.945985 -1.26051 0
M  V30 3145 C 302.781 -0.591836 -1.92822 0
M  V30 3146 C 303.094 0.873956 -1.7499 0
M  V30 3147 O 304.3 1.33769 -2.36259 0
M  V30 3148 C 302.756 -1.00776 -3.45503 0
M  V30 3149 C 302.364 -2.4955 -3.7206 0
M  V30 3150 C 304.108 -0.725735 -4.1825 0
M  V30 3151 C 302.015 -2.84988 -5.18205 0
M  V30 3152 H 300.945 -0.217635 -0.721908 0
M  V30 3153 H 303.596 -1.14927 -1.43052 0
M  V30 3154 H 301.978 -0.378812 -3.94184 0
M  V30 3155 H 303.152 -3.1739 -3.34066 0
M  V30 3156 H 301.467 -2.75133 -3.12555 0
M  V30 3157 H 304.064 -0.966771 -5.25887 0
M  V30 3158 H 304.407 0.337639 -4.14929 0
M  V30 3159 H 304.94 -1.31463 -3.7545 0
M  V30 3160 H 301.679 -3.90307 -5.26631 0
M  V30 3161 H 301.199 -2.21813 -5.57278 0
M  V30 3162 H 302.878 -2.73712 -5.86252 0
M  V30 3163 N 303.011 1.40521 -0.713556 0
M  V30 3164 C 304.288 1.94775 -0.17943 0
M  V30 3165 C 304.668 1.65184 1.31444 0
M  V30 3166 O 304.016 0.968429 2.06963 0
M  V30 3167 C 304.226 3.45543 -0.489986 0
M  V30 3168 C 305.574 4.22442 -0.427536 0
M  V30 3169 O 306.598 3.53644 -0.425929 0
M  V30 3170 O 305.457 5.4501 -0.403292 0
M  V30 3171 H 302.551 0.826606 -0.0255192 0
M  V30 3172 H 305.097 1.5014 -0.790949 0
M  V30 3173 H 303.869 3.60432 -1.5233 0
M  V30 3174 H 303.492 3.97311 0.151598 0
M  V30 3175 N 304.489 0.459591 1.5075 0
M  V30 3176 C 305.717 -0.0973749 2.06671 0
M  V30 3177 C 306.132 -1.34524 1.32472 0
M  V30 3178 O 305.489 -1.7827 0.390634 0
M  V30 3179 C 305.54 -0.39714 3.59312 0
M  V30 3180 O 305.261 0.801214 4.30711 0
M  V30 3181 C 306.762 -1.00234 4.31819 0
M  V30 3182 H 303.982 0.00195854 0.670997 0
M  V30 3183 H 306.526 0.645072 1.94059 0
M  V30 3184 H 304.681 -1.08951 3.71764 0
M  V30 3185 H 305.095 0.538857 5.21725 0
M  V30 3186 H 306.569 -1.16193 5.39632 0
M  V30 3187 H 307.046 -1.98939 3.91561 0
M  V30 3188 H 307.652 -0.348699 4.23868 0
M  V30 3189 N 305.967 -1.56429 0.191757 0
M  V30 3190 C 307.216 -1.9666 -0.448088 0
M  V30 3191 C 307.529 -1.08136 -1.62991 0
M  V30 3192 O 308.735 -1.38135 -2.33733 0
M  V30 3193 C 307.191 -3.49753 -0.848585 0
M  V30 3194 C 306.799 -4.46935 0.308764 0
M  V30 3195 C 308.543 -3.9876 -1.4557 0
M  V30 3196 C 306.45 -5.91293 -0.112506 0
M  V30 3197 H 305.38 -0.734312 -0.171179 0
M  V30 3198 H 308.031 -1.81301 0.283242 0
M  V30 3199 H 306.413 -3.60604 -1.63649 0
M  V30 3200 H 307.587 -4.47813 1.08627 0
M  V30 3201 H 305.902 -4.08102 0.827158 0
M  V30 3202 H 308.499 -5.04086 -1.78328 0
M  V30 3203 H 308.842 -3.42875 -2.36099 0
M  V30 3204 H 309.375 -3.9101 -0.731836 0
M  V30 3205 H 306.114 -6.51097 0.758514 0
M  V30 3206 H 305.634 -5.93676 -0.854941 0
M  V30 3207 H 307.313 -6.44663 -0.549448 0
M  V30 3208 N 307.445 0.0818655 -1.57387 0
M  V30 3209 C 308.691 0.784074 -1.8703 0
M  V30 3210 C 309.024 1.77729 -0.782689 0
M  V30 3211 O 308.299 1.93384 0.208051 0
M  V30 3212 C 308.582 1.50105 -3.27323 0
M  V30 3213 C 308.435 0.524925 -4.46727 0
M  V30 3214 C 309.754 2.44843 -3.65705 0
M  V30 3215 H 306.873 0.283582 -0.680257 0
M  V30 3216 H 309.515 0.0474352 -1.89941 0
M  V30 3217 H 307.665 2.12897 -3.24972 0
M  V30 3218 H 309.337 -0.0970111 -4.61198 0
M  V30 3219 H 307.58 -0.160606 -4.33503 0
M  V30 3220 H 308.251 1.064 -5.41648 0
M  V30 3221 H 310.727 1.92135 -3.69085 0
M  V30 3222 H 309.603 2.92018 -4.64776 0
M  V30 3223 H 309.864 3.29197 -2.95096 0
M  V30 3224 N 308.923 1.53595 0.353017 0
M  V30 3225 C 309.853 1.83902 1.43883 0
M  V30 3226 C 310.834 0.693421 1.55324 0
M  V30 3227 O 312.019 0.944452 1.69687 0
M  V30 3228 C 309.149 2.04016 2.8106 0
M  V30 3229 C 308.103 3.19814 2.84434 0
M  V30 3230 C 307.429 3.25244 4.24406 0
M  V30 3231 C 308.729 4.58133 2.50822 0
M  V30 3232 H 310.423 2.74835 1.1877 0
M  V30 3233 H 307.969 1.32242 0.569917 0
M  V30 3234 H 309.922 2.238 3.57059 0
M  V30 3235 H 308.646 1.09804 3.07588 0
M  V30 3236 H 307.305 2.9987 2.10887 0
M  V30 3237 H 306.953 2.28646 4.48029 0
M  V30 3238 H 306.653 4.03054 4.27576 0
M  V30 3239 H 308.177 3.47228 5.0226 0
M  V30 3240 H 309.591 4.77995 3.16534 0
M  V30 3241 H 307.988 5.38276 2.6529 0
M  V30 3242 H 309.058 4.62387 1.46034 0
M  V30 3243 N 310.401 -0.613514 1.45168 0
M  V30 3244 C 311.65 -1.36874 1.4815 0
M  V30 3245 C 311.963 -1.952 0.124982 0
M  V30 3246 O 313.169 -2.71481 0.0324176 0
M  V30 3247 C 311.625 -2.47905 2.60904 0
M  V30 3248 C 311.233 -1.96016 4.02842 0
M  V30 3249 C 312.977 -3.24965 2.73126 0
M  V30 3250 C 310.884 -3.04494 5.06988 0
M  V30 3251 H 309.814 -0.514428 0.551253 0
M  V30 3252 H 312.465 -0.658182 1.7129 0
M  V30 3253 H 310.847 -3.21618 2.31037 0
M  V30 3254 H 312.021 -1.29051 4.4236 0
M  V30 3255 H 310.336 -1.31719 3.95018 0
M  V30 3256 H 312.933 -4.05865 3.48106 0
M  V30 3257 H 313.276 -3.75588 1.79553 0
M  V30 3258 H 313.809 -2.5835 3.0249 0
M  V30 3259 H 310.548 -2.58795 6.0225 0
M  V30 3260 H 310.068 -3.70044 4.72046 0
M  V30 3261 H 311.747 -3.68976 5.31475 0
M  V30 3262 N 311.879 -1.3236 -0.855495 0
M  V30 3263 C 312.842 -1.21164 -1.94556 0
M  V30 3264 C 313.842 -0.134908 -1.60233 0
M  V30 3265 O 315.032 -0.385249 -1.69887 0
M  V30 3266 C 312.164 -0.863192 -3.29791 0
M  V30 3267 H 313.357 -2.18038 -2.05911 0
M  V30 3268 H 310.91 -1.16179 -1.04557 0
M  V30 3269 H 311.645 0.103769 -3.24134 0
M  V30 3270 H 311.43 -1.64166 -3.56078 0
M  V30 3271 H 312.92 -0.809156 -4.09686 0
M  V30 3272 N 313.357 1.07166 -1.15556 0
M  V30 3273 C 314.582 1.84053 -0.955988 0
M  V30 3274 C 315.007 1.81586 0.490739 0
M  V30 3275 O 314.365 1.21018 1.34997 0
M  V30 3276 C 314.413 3.28957 -1.47714 0
M  V30 3277 O 313.517 4.06795 -0.677593 0
M  V30 3278 H 312.858 0.569842 -0.340847 0
M  V30 3279 H 315.388 1.35178 -1.53584 0
M  V30 3280 H 315.398 3.79788 -1.4908 0
M  V30 3281 H 314.073 3.30068 -2.53037 0
M  V30 3282 H 312.65 3.6561 -0.733721 0
M  V30 3283 N 314.835 0.952656 1.25548 0
M  V30 3284 C 316.084 0.602053 1.92505 0
M  V30 3285 C 316.397 -0.864663 1.75451 0
M  V30 3286 O 317.603 -1.32514 2.36965 0
M  V30 3287 C 316.059 1.02607 3.44963 0
M  V30 3288 C 315.667 2.51519 3.70732 0
M  V30 3289 C 317.411 0.747905 4.1786 0
M  V30 3290 C 315.318 2.87732 5.16686 0
M  V30 3291 H 314.248 0.22146 0.720744 0
M  V30 3292 H 316.899 1.15684 1.42441 0
M  V30 3293 H 315.281 0.399712 3.93978 0
M  V30 3294 H 316.455 3.19157 3.32378 0
M  V30 3295 H 314.77 2.76786 3.11092 0
M  V30 3296 H 317.367 0.994647 5.25367 0
M  V30 3297 H 317.71 -0.315629 4.15102 0
M  V30 3298 H 318.243 1.33452 3.74747 0
M  V30 3299 H 314.982 3.93095 5.24554 0
M  V30 3300 H 314.502 2.24765 5.56094 0
M  V30 3301 H 316.181 2.76817 5.84792 0
M  V30 3302 N 316.313 -1.40141 0.720998 0
M  V30 3303 C 317.276 -2.29058 0.0805834 0
M  V30 3304 C 318.276 -1.45632 -0.681758 0
M  V30 3305 O 319.466 -1.6648 -0.512856 0
M  V30 3306 C 316.598 -3.28925 -0.895593 0
M  V30 3307 H 317.791 -2.87191 0.863793 0
M  V30 3308 H 315.344 -1.48553 0.485975 0
M  V30 3309 H 316.079 -2.75822 -1.70566 0
M  V30 3310 H 315.864 -3.90519 -0.351766 0
M  V30 3311 H 317.354 -3.95494 -1.34069 0
M  V30 3312 N 317.792 -0.46758 -1.50504 0
M  V30 3313 C 319.038 0.0887532 -2.02606 0
M  V30 3314 C 319.371 1.39686 -1.34913 0
M  V30 3315 O 318.646 1.88644 -0.473694 0
M  V30 3316 C 318.929 0.276206 -3.59039 0
M  V30 3317 C 318.782 -1.05267 -4.37309 0
M  V30 3318 C 320.101 1.03235 -4.27821 0
M  V30 3319 H 317.22 0.0307814 -0.736357 0
M  V30 3320 H 319.862 -0.612485 -1.79857 0
M  V30 3321 H 318.012 0.8735 -3.78553 0
M  V30 3322 H 319.684 -1.68628 -4.29374 0
M  V30 3323 H 317.927 -1.65015 -4.01189 0
M  V30 3324 H 318.598 -0.875197 -5.45018 0
M  V30 3325 H 321.074 0.526111 -4.12761 0
M  V30 3326 H 319.95 1.1323 -5.37094 0
M  V30 3327 H 320.211 2.06806 -3.90748 0
M  V30 3328 N 319.27 1.56325 -0.20005 0
M  V30 3329 C 320.516 1.98012 0.438059 0
M  V30 3330 C 320.849 1.08702 1.60927 0
M  V30 3331 O 320.124 0.140064 1.93995 0
M  V30 3332 C 320.407 3.48841 0.893419 0
M  V30 3333 C 320.26 4.48928 -0.279947 0
M  V30 3334 C 321.579 4.03498 1.75719 0
M  V30 3335 H 318.698 0.719918 0.157757 0
M  V30 3336 H 321.34 1.87743 -0.291968 0
M  V30 3337 H 319.49 3.57723 1.51547 0
M  V30 3338 H 321.162 4.52079 -0.91772 0
M  V30 3339 H 319.405 4.23694 -0.930919 0
M  V30 3340 H 320.076 5.5194 0.0812601 0
M  V30 3341 H 322.552 3.97427 1.23253 0
M  V30 3342 H 321.428 5.09393 2.04476 0
M  V30 3343 H 321.689 3.4906 2.71311 0
M  V30 3344 N 320.748 -0.0735177 1.57428 0
M  V30 3345 C 321.973 -0.789787 1.91774 0
M  V30 3346 C 322.398 -1.70413 0.796306 0
M  V30 3347 O 321.756 -1.79555 -0.250961 0
M  V30 3348 C 321.804 -1.5609 3.25067 0
M  V30 3349 O 320.908 -2.67144 3.14178 0
M  V30 3350 H 320.249 -0.215582 0.628029 0
M  V30 3351 H 322.779 -0.0422781 2.04556 0
M  V30 3352 H 322.789 -1.94052 3.58898 0
M  V30 3353 H 321.464 -0.890015 4.06265 0
M  V30 3354 H 320.041 -2.32052 2.91901 0
M  V30 3355 N 322.226 -1.5378 -0.344866 0
M  V30 3356 C 323.189 -1.80981 -1.40637 0
M  V30 3357 C 324.189 -0.680816 -1.45676 0
M  V30 3358 O 325.379 -0.949095 -1.46075 0
M  V30 3359 C 322.511 -1.95063 -2.79577 0
M  V30 3360 H 323.704 -2.75803 -1.17783 0
M  V30 3361 H 321.257 -1.45173 -0.579181 0
M  V30 3362 H 321.992 -1.02379 -3.07716 0
M  V30 3363 H 321.777 -2.77198 -2.77315 0
M  V30 3364 H 323.267 -2.17629 -3.56409 0
M  V30 3365 N 323.704 0.605807 -1.45491 0
M  V30 3366 C 324.651 1.7164 -1.54299 0
M  V30 3367 C 325.621 1.61486 -0.388761 0
M  V30 3368 O 326.806 1.81039 -0.602445 0
M  V30 3369 C 323.946 3.09953 -1.51734 0
M  V30 3370 C 323.059 3.309 -2.77721 0
M  V30 3371 C 322.194 4.59329 -2.66816 0
M  V30 3372 C 321.233 4.7354 -3.87848 0
M  V30 3373 N 320.37 5.9327 -3.75467 0
M  V30 3374 H 325.21 1.63449 -2.49176 0
M  V30 3375 H 322.747 0.796957 -1.23641 0
M  V30 3376 H 324.705 3.89977 -1.48235 0
M  V30 3377 H 323.335 3.17098 -0.604068 0
M  V30 3378 H 322.387 2.44639 -2.913 0
M  V30 3379 H 323.699 3.37274 -3.67488 0
M  V30 3380 H 322.853 5.4755 -2.61292 0
M  V30 3381 H 321.592 4.55355 -1.74651 0
M  V30 3382 H 320.597 3.83741 -3.93729 0
M  V30 3383 H 321.822 4.79309 -4.81082 0
M  V30 3384 H 319.768 5.90338 -2.86072 0
M  V30 3385 H 319.685 6.00811 -4.5887 0
M  V30 3386 H 320.953 6.83984 -3.73879 0
M  V30 3387 N 325.182 1.32811 0.848464 0
M  V30 3388 C 326.41 1.26739 1.63538 0
M  V30 3389 C 326.825 -0.163484 1.88091 0
M  V30 3390 O 326.182 -1.10258 1.45429 0
M  V30 3391 C 326.233 2.03013 2.99112 0
M  V30 3392 O 325.954 3.40518 2.75643 0
M  V30 3393 C 327.455 2.04038 3.93552 0
M  V30 3394 H 324.675 0.437024 0.509167 0
M  V30 3395 H 327.219 1.75033 1.05753 0
M  V30 3396 H 325.374 1.58426 3.53525 0
M  V30 3397 H 325.788 3.79635 3.61908 0
M  V30 3398 H 327.262 2.61877 4.85926 0
M  V30 3399 H 327.739 1.0282 4.26995 0
M  V30 3400 H 328.345 2.486 3.45077 0
M  V30 3401 N 326.66 -1.06551 1.16123 0
M  V30 3402 C 327.592 -2.13908 0.823171 0
M  V30 3403 C 328.605 -1.61926 -0.16843 0
M  V30 3404 O 329.794 -1.78412 0.055962 0
M  V30 3405 C 326.894 -3.38283 0.204424 0
M  V30 3406 C 326.067 -4.19589 1.23548 0
M  V30 3407 C 325.126 -5.2233 0.637011 0
M  V30 3408 O 324.152 -5.54034 1.30516 0
M  V30 3409 N 325.354 -5.77621 -0.577474 0
M  V30 3410 H 328.119 -2.43508 1.74711 0
M  V30 3411 H 325.68 -1.2253 1.05821 0
M  V30 3412 H 327.672 -4.0416 -0.208909 0
M  V30 3413 H 326.242 -3.06329 -0.623012 0
M  V30 3414 H 325.462 -3.49406 1.82507 0
M  V30 3415 H 326.75 -4.70718 1.93137 0
M  V30 3416 H 326.148 -5.54125 -1.13853 0
M  V30 3417 H 324.705 -6.45087 -0.933053 0
M  V30 3418 N 328.138 -0.959301 -1.25041 0
M  V30 3419 C 329.386 -0.615393 -1.92503 0
M  V30 3420 C 329.707 0.850969 -1.75452 0
M  V30 3421 O 328.977 1.60658 -1.12098 0
M  V30 3422 H 327.557 -0.224613 -0.712431 0
M  V30 3423 H 330.219 -1.21855 -1.5211 0
M  V30 3424 H 329.315 -0.848738 -3.00338 0
M  V30 3425 N 329.616 1.39756 -0.72842 0
M  V30 3426 C 330.564 2.32485 -0.0731849 0
M  V30 3427 C 331.558 1.52717 0.733063 0
M  V30 3428 O 332.764 1.68428 0.634988 0
M  V30 3429 H 329.139 0.751984 -0.00486469 0
M  V30 3430 H 331.11 2.85382 -0.871761 0
M  V30 3431 C 329.859 3.37773 0.824908 0
M  V30 3432 H 329.182 3.99227 0.213915 0
M  V30 3433 H 330.622 4.05121 1.25111 0
M  V30 3434 C 329.081 2.74287 1.95622 0
M  V30 3435 O 329.611 2.61618 3.04826 0
M  V30 3436 N 327.817 2.32475 1.74367 0
M  V30 3437 H 327.364 2.4298 0.855494 0
M  V30 3438 H 327.322 1.90337 2.50238 0
M  V30 3439 N 331.094 0.475555 1.50254 0
M  V30 3440 C 332.343 -0.0795996 2.01543 0
M  V30 3441 C 332.656 -1.4038 1.36209 0
M  V30 3442 O 333.862 -2.04415 1.7868 0
M  V30 3443 C 332.318 -0.192363 3.59386 0
M  V30 3444 C 331.926 1.12367 4.33679 0
M  V30 3445 C 333.67 -0.699238 4.18701 0
M  V30 3446 C 331.577 0.974453 5.83317 0
M  V30 3447 H 330.507 -0.0335228 0.753254 0
M  V30 3448 H 333.158 0.611128 1.73025 0
M  V30 3449 H 331.54 -0.946974 3.84511 0
M  V30 3450 H 332.714 1.88958 4.20276 0
M  V30 3451 H 331.029 1.562 3.85993 0
M  V30 3452 H 333.626 -0.827978 5.28251 0
M  V30 3453 H 333.969 -1.69171 3.80377 0
M  V30 3454 H 334.502 -0.00188807 3.978 0
M  V30 3455 H 331.241 1.94042 6.26121 0
M  V30 3456 H 330.761 0.248998 5.99283 0
M  V30 3457 H 332.44 0.642867 6.43798 0
M  V30 3458 N 332.573 -1.56217 0.208337 0
M  V30 3459 C 333.82 -1.97949 -0.42692 0
M  V30 3460 C 334.148 -1.09562 -1.60706 0
M  V30 3461 O 333.403 -0.137616 -1.95216 0
M  V30 3462 C 333.702 -3.45441 -0.916797 0
M  V30 3463 C 333.368 -4.50646 0.151391 0
M  V30 3464 C 332.03 -4.79139 0.444867 0
M  V30 3465 C 334.382 -5.13811 0.874492 0
M  V30 3466 C 331.71 -5.68084 1.46619 0
M  V30 3467 C 334.062 -6.03861 1.88506 0
M  V30 3468 C 332.726 -6.30704 2.18559 0
M  V30 3469 H 331.996 -0.724345 -0.156221 0
M  V30 3470 H 334.643 -1.89006 0.308084 0
M  V30 3471 H 332.948 -3.51521 -1.73032 0
M  V30 3472 H 334.645 -3.75094 -1.41794 0
M  V30 3473 H 331.235 -4.28511 -0.0875068 0
M  V30 3474 H 335.419 -4.91879 0.660996 0
M  V30 3475 H 330.675 -5.87151 1.7048 0
M  V30 3476 H 334.849 -6.51861 2.45051 0
M  V30 3477 H 332.476 -6.99424 2.97843 0
M  V30 3478 N 334.051 0.0651679 -1.57465 0
M  V30 3479 C 335.014 1.06117 -2.03155 0
M  V30 3480 C 336.014 1.31204 -0.929632 0
M  V30 3481 O 337.204 1.26813 -1.19432 0
M  V30 3482 C 334.336 2.4032 -2.41783 0
M  V30 3483 H 335.529 0.667231 -2.92383 0
M  V30 3484 H 333.082 0.311075 -1.53173 0
M  V30 3485 H 333.817 2.84532 -1.55601 0
M  V30 3486 H 333.602 2.23451 -3.22199 0
M  V30 3487 H 335.092 3.11898 -2.77685 0
M  V30 3488 N 335.529 1.53961 0.336706 0
M  V30 3489 C 336.757 1.75483 1.09605 0
M  V30 3490 C 337.172 0.4972 1.82136 0
M  V30 3491 O 336.529 -0.53149 1.74589 0
M  V30 3492 C 336.58 2.93943 2.10428 0
M  V30 3493 O 336.301 4.14842 1.40846 0
M  V30 3494 C 337.802 3.27571 2.98684 0
M  V30 3495 H 335.022 0.586166 0.326574 0
M  V30 3496 H 337.566 2.00808 0.38683 0
M  V30 3497 H 335.721 2.70929 2.76905 0
M  V30 3498 H 336.135 4.81383 2.08255 0
M  V30 3499 H 337.609 4.13791 3.6535 0
M  V30 3500 H 338.086 2.44168 3.65074 0
M  V30 3501 H 338.692 3.52615 2.37787 0
M  V30 3502 N 337.007 -0.598083 1.45811 0
M  V30 3503 C 338.232 -1.3881 1.54099 0
M  V30 3504 C 338.657 -1.8726 0.177578 0
M  V30 3505 O 338.015 -1.6069 -0.839541 0
M  V30 3506 C 338.063 -2.56217 2.53743 0
M  V30 3507 O 337.167 -3.5716 2.06182 0
M  V30 3508 H 336.508 -0.414024 0.519115 0
M  V30 3509 H 339.038 -0.726971 1.91249 0
M  V30 3510 H 339.048 -3.03337 2.72856 0
M  V30 3511 H 337.723 -2.20303 3.5276 0
M  V30 3512 H 336.3 -3.16624 1.96987 0
M  V30 3513 N 338.485 -1.33259 -0.841409 0
M  V30 3514 C 339.448 -1.23221 -1.9326 0
M  V30 3515 C 340.448 -0.151895 -1.60081 0
M  V30 3516 O 341.638 -0.403246 -1.69468 0
M  V30 3517 C 338.77 -0.898123 -3.28856 0
M  V30 3518 H 339.963 -2.2021 -2.03587 0
M  V30 3519 H 337.516 -1.17281 -1.03319 0
M  V30 3520 H 338.251 0.0693841 -3.24226 0
M  V30 3521 H 338.036 -1.67934 -3.54317 0
M  V30 3522 H 339.526 -0.852563 -4.08805 0
M  V30 3523 N 339.963 1.05934 -1.16686 0
M  V30 3524 C 340.893 2.1546 -0.899949 0
M  V30 3525 C 341.874 1.69391 0.155154 0
M  V30 3526 O 343.059 1.94199 0.00648693 0
M  V30 3527 C 340.189 3.44939 -0.404241 0
M  V30 3528 C 339.143 4.04536 -1.39767 0
M  V30 3529 C 338.469 5.29268 -0.760216 0
M  V30 3530 C 339.769 4.42893 -2.76845 0
M  V30 3531 H 341.463 2.38046 -1.81588 0
M  V30 3532 H 339.009 1.14404 -0.874514 0
M  V30 3533 H 340.962 4.20901 -0.204971 0
M  V30 3534 H 339.686 3.21983 0.547206 0
M  V30 3535 H 338.345 3.30635 -1.58355 0
M  V30 3536 H 337.993 5.02611 0.197831 0
M  V30 3537 H 337.693 5.70101 -1.42332 0
M  V30 3538 H 339.217 6.07924 -0.57105 0
M  V30 3539 H 340.631 5.09921 -2.62019 0
M  V30 3540 H 339.028 4.94721 -3.39663 0
M  V30 3541 H 340.098 3.53584 -3.31823 0
M  V30 3542 N 341.441 0.965919 1.2453 0
M  V30 3543 C 342.857 0.67216 1.44756 0
M  V30 3544 C 343.057 -0.766609 1.86347 0
M  V30 3545 O 342.113 -1.5407 2.00047 0
M  V30 3546 C 343.426 1.65473 2.51076 0
M  V30 3547 C 344.974 1.66716 2.64905 0
M  V30 3548 C 345.449 2.63766 3.74421 0
M  V30 3549 N 346.94 2.62198 3.81846 0
M  V30 3550 C 347.675 3.33966 4.66106 0
M  V30 3551 N 347.171 4.15245 5.54566 0
M  V30 3552 N 348.964 3.22799 4.60171 0
M  V30 3553 H 341.115 1.89553 0.958293 0
M  V30 3554 H 343.378 0.815979 0.482579 0
M  V30 3555 H 343.084 2.68296 2.27399 0
M  V30 3556 H 342.958 1.4261 3.49202 0
M  V30 3557 H 345.345 0.646057 2.87941 0
M  V30 3558 H 345.426 1.93642 1.67142 0
M  V30 3559 H 345.07 3.6601 3.52135 0
M  V30 3560 H 345 2.34121 4.71694 0
M  V30 3561 H 347.491 2.032 3.18619 0
M  V30 3562 H 347.804 4.66898 6.15814 0
M  V30 3563 H 346.149 4.1934 5.54237 0
M  V30 3564 H 349.34 2.58764 3.90075 0
M  V30 3565 H 349.513 3.78994 5.25612 0
M  V30 3566 N 342.919 -1.39368 0.735821 0
M  V30 3567 C 344.144 -2.05319 0.293052 0
M  V30 3568 C 344.569 -1.55115 -1.064 0
M  V30 3569 O 343.927 -0.695261 -1.67439 0
M  V30 3570 C 343.975 -3.59305 0.305323 0
M  V30 3571 O 343.079 -4.06299 -0.706761 0
M  V30 3572 H 342.42 -0.650529 0.13307 0
M  V30 3573 H 344.95 -1.78386 1.00197 0
M  V30 3574 H 344.96 -4.07724 0.149997 0
M  V30 3575 H 343.635 -3.95207 1.29553 0
M  V30 3576 H 342.212 -3.69292 -0.517504 0
M  V30 3577 N 344.397 -0.483516 -1.5 0
M  V30 3578 C 345.327 0.293829 -2.31644 0
M  V30 3579 C 346.308 0.978864 -1.39112 0
M  V30 3580 O 347.493 0.973644 -1.68029 0
M  V30 3581 C 344.623 1.36897 -3.19181 0
M  V30 3582 C 343.577 0.804833 -4.20365 0
M  V30 3583 C 342.903 1.9792 -4.96721 0
M  V30 3584 C 344.203 -0.192313 -5.21946 0
M  V30 3585 H 345.897 -0.387616 -2.9688 0
M  V30 3586 H 343.443 -0.187856 -1.42769 0
M  V30 3587 H 345.396 1.92037 -3.751 0
M  V30 3588 H 344.12 2.07936 -2.51853 0
M  V30 3589 H 342.779 0.275319 -3.65565 0
M  V30 3590 H 342.427 2.67686 -4.25856 0
M  V30 3591 H 342.127 1.60789 -5.65173 0
M  V30 3592 H 343.651 2.53526 -5.55479 0
M  V30 3593 H 345.065 0.270333 -5.72662 0
M  V30 3594 H 343.462 -0.478543 -5.98189 0
M  V30 3595 H 344.532 -1.11409 -4.71928 0
M  V30 3596 N 345.875 1.56104 -0.216619 0
M  V30 3597 C 347.291 1.58995 0.13886 0
M  V30 3598 C 347.491 1.23333 1.59346 0
M  V30 3599 O 346.547 0.966234 2.33281 0
M  V30 3600 C 347.86 3.00143 -0.182968 0
M  V30 3601 C 349.408 3.12751 -0.124807 0
M  V30 3602 C 349.883 4.56068 -0.420241 0
M  V30 3603 N 351.374 4.61723 -0.369634 0
M  V30 3604 C 352.109 5.70542 -0.571789 0
M  V30 3605 N 351.605 6.87744 -0.835453 0
M  V30 3606 N 353.398 5.59831 -0.504563 0
M  V30 3607 H 345.549 1.77562 -1.16557 0
M  V30 3608 H 347.812 0.825091 -0.466828 0
M  V30 3609 H 347.518 3.30871 -1.19237 0
M  V30 3610 H 347.392 3.73813 0.504367 0
M  V30 3611 H 349.779 2.81822 0.875223 0
M  V30 3612 H 349.86 2.41421 -0.845544 0
M  V30 3613 H 349.504 4.87713 -1.41769 0
M  V30 3614 H 349.434 5.25617 0.321631 0
M  V30 3615 H 351.925 3.77502 -0.173338 0
M  V30 3616 H 352.238 7.66587 -0.977938 0
M  V30 3617 H 350.583 6.895 -0.872592 0
M  V30 3618 H 353.774 4.67145 -0.298842 0
M  V30 3619 H 353.947 6.44573 -0.665519 0
M  V30 3620 N 347.353 -0.0568162 1.57498 0
M  V30 3621 C 348.6 -0.753104 1.87975 0
M  V30 3622 C 348.928 -1.76815 0.81035 0
M  V30 3623 O 348.183 -1.94756 -0.19199 0
M  V30 3624 C 348.482 -1.48359 3.25153 0
M  V30 3625 C 348.148 -0.60713 4.46794 0
M  V30 3626 C 346.81 -0.365642 4.79809 0
M  V30 3627 C 349.162 -0.000305978 5.212 0
M  V30 3628 C 346.49 0.491905 5.84634 0
M  V30 3629 C 348.842 0.844781 6.26934 0
M  V30 3630 C 347.506 1.096 6.58441 0
M  V30 3631 H 346.776 -0.27558 0.687849 0
M  V30 3632 H 349.423 -0.0135173 1.91495 0
M  V30 3633 H 347.728 -2.29577 3.17492 0
M  V30 3634 H 349.425 -2.02739 3.45974 0
M  V30 3635 H 346.015 -0.805487 4.20963 0
M  V30 3636 H 350.199 -0.173961 4.95995 0
M  V30 3637 H 345.455 0.695131 6.07436 0
M  V30 3638 H 349.629 1.32165 6.83744 0
M  V30 3639 H 347.256 1.76224 7.39492 0
M  V30 3640 N 348.832 -1.54138 -0.328536 0
M  V30 3641 C 349.762 -1.86167 -1.40939 0
M  V30 3642 C 350.743 -0.718044 -1.54202 0
M  V30 3643 O 351.928 -0.971328 -1.68163 0
M  V30 3644 C 349.058 -2.08461 -2.77779 0
M  V30 3645 C 348.012 -3.24299 -2.7931 0
M  V30 3646 C 347.338 -3.31955 -4.19178 0
M  V30 3647 C 348.638 -4.62065 -2.43502 0
M  V30 3648 H 350.332 -2.76689 -1.14383 0
M  V30 3649 H 347.878 -1.33132 -0.548806 0
M  V30 3650 H 349.831 -2.29453 -3.53454 0
M  V30 3651 H 348.555 -1.14684 -3.05802 0
M  V30 3652 H 347.214 -3.03187 -2.0609 0
M  V30 3653 H 346.862 -2.35745 -4.44335 0
M  V30 3654 H 346.562 -4.09805 -4.2111 0
M  V30 3655 H 348.086 -3.55175 -4.96672 0
M  V30 3656 H 349.5 -4.8297 -3.08889 0
M  V30 3657 H 347.897 -5.42429 -2.56693 0
M  V30 3658 H 348.967 -4.64652 -1.38659 0
M  V30 3659 N 350.31 0.590341 -1.46126 0
M  V30 3660 C 351.242 1.71427 -1.52136 0
M  V30 3661 C 352.255 1.57542 -0.41042 0
M  V30 3662 O 353.444 1.65106 -0.678389 0
M  V30 3663 C 350.544 3.09605 -1.37834 0
M  V30 3664 C 349.717 3.49566 -2.62912 0
M  V30 3665 C 348.776 4.66773 -2.42918 0
M  V30 3666 O 347.802 4.73019 -3.1661 0
M  V30 3667 N 349.004 5.61161 -1.4859 0
M  V30 3668 H 351.769 1.66728 -2.49042 0
M  V30 3669 H 349.33 0.776113 -1.42085 0
M  V30 3670 H 351.322 3.85796 -1.22243 0
M  V30 3671 H 349.892 3.08714 -0.491393 0
M  V30 3672 H 349.112 2.63158 -2.93499 0
M  V30 3673 H 350.4 3.73028 -3.46017 0
M  V30 3674 H 349.798 5.58844 -0.87808 0
M  V30 3675 H 348.355 6.36814 -1.38965 0
M  V30 3676 N 351.788 1.33704 0.83433 0
M  V30 3677 C 353.037 1.24763 1.58484 0
M  V30 3678 C 353.35 -0.183775 1.94735 0
M  V30 3679 O 354.556 -0.395234 2.68608 0
M  V30 3680 C 353.012 2.18638 2.85876 0
M  V30 3681 C 352.62 3.66974 2.56971 0
M  V30 3682 C 354.364 2.18581 3.63899 0
M  V30 3683 C 352.271 4.5275 3.80488 0
M  V30 3684 H 351.201 0.463425 0.594772 0
M  V30 3685 H 353.852 1.58797 0.919551 0
M  V30 3686 H 352.234 1.77542 3.5397 0
M  V30 3687 H 353.408 4.16538 1.9706 0
M  V30 3688 H 351.723 3.69366 1.92244 0
M  V30 3689 H 354.32 2.79894 4.55591 0
M  V30 3690 H 354.663 1.18207 3.99165 0
M  V30 3691 H 355.196 2.58062 3.02735 0
M  V30 3692 H 351.935 5.54017 3.5035 0
M  V30 3693 H 351.455 4.07927 4.39722 0
M  V30 3694 H 353.134 4.66784 4.4802 0
M  V30 3695 N 353.266 -1.05314 1.17247 0
M  V30 3696 C 354.196 -2.1498 0.911362 0
M  V30 3697 C 355.177 -1.69471 -0.146169 0
M  V30 3698 O 356.362 -1.942 0.003812 0
M  V30 3699 C 353.492 -3.4472 0.422528 0
M  V30 3700 C 352.446 -4.03789 1.4191 0
M  V30 3701 C 351.772 -5.28858 0.788274 0
M  V30 3702 C 353.072 -4.41418 2.7919 0
M  V30 3703 H 354.766 -2.3708 1.82848 0
M  V30 3704 H 352.312 -1.13938 0.880569 0
M  V30 3705 H 354.265 -4.20787 0.227289 0
M  V30 3706 H 352.989 -3.22269 -0.530123 0
M  V30 3707 H 351.648 -3.2979 1.60106 0
M  V30 3708 H 351.296 -5.02709 -0.171173 0
M  V30 3709 H 350.996 -5.69338 1.45353 0
M  V30 3710 H 352.52 -6.07612 0.603282 0
M  V30 3711 H 353.934 -5.08524 2.64719 0
M  V30 3712 H 352.331 -4.92913 3.42282 0
M  V30 3713 H 353.401 -3.51819 3.33693 0
M  V30 3714 N 354.744 -0.972509 -1.24016 0
M  V30 3715 C 356.16 -0.679827 -1.44397 0
M  V30 3716 C 356.36 0.756716 -1.86751 0
M  V30 3717 O 355.416 1.53007 -2.00861 0
M  V30 3718 C 356.729 -1.66803 -2.50195 0
M  V30 3719 C 358.277 -1.68119 -2.64017 0
M  V30 3720 C 358.752 -2.65748 -3.73017 0
M  V30 3721 N 360.243 -2.64219 -3.8045 0
M  V30 3722 C 360.978 -3.36433 -4.64328 0
M  V30 3723 N 360.474 -4.1818 -5.52356 0
M  V30 3724 N 362.267 -3.25235 -4.58453 0
M  V30 3725 H 354.418 -1.90059 -0.948228 0
M  V30 3726 H 356.681 -0.818527 -0.478245 0
M  V30 3727 H 356.387 -2.69498 -2.25973 0
M  V30 3728 H 356.261 -1.4446 -3.48441 0
M  V30 3729 H 358.648 -0.661319 -2.87594 0
M  V30 3730 H 358.729 -1.94525 -1.66113 0
M  V30 3731 H 358.373 -3.67872 -3.50189 0
M  V30 3732 H 358.303 -2.36619 -4.70446 0
M  V30 3733 H 360.794 -2.04887 -3.17537 0
M  V30 3734 H 361.107 -4.70157 -6.13329 0
M  V30 3735 H 359.452 -4.22273 -5.52006 0
M  V30 3736 H 362.643 -2.60829 -3.88698 0
M  V30 3737 H 362.816 -3.81776 -5.23594 0
M  V30 3738 N 356.222 1.38976 -0.743202 0
M  V30 3739 C 357.155 2.28128 -0.0572165 0
M  V30 3740 C 358.133 1.44827 0.739182 0
M  V30 3741 O 359.317 1.74207 0.720009 0
M  V30 3742 C 356.444 3.25796 0.926001 0
M  V30 3743 C 355.49 4.25947 0.217099 0
M  V30 3744 S 356.323 5.24604 -1.07477 0
M  V30 3745 C 357.479 6.25829 -0.0943545 0
M  V30 3746 H 357.712 2.85961 -0.813246 0
M  V30 3747 H 355.245 1.44822 -0.535341 0
M  V30 3748 H 357.203 3.82583 1.48797 0
M  V30 3749 H 355.864 2.66966 1.65493 0
M  V30 3750 H 355.057 4.94746 0.961372 0
M  V30 3751 H 354.659 3.73002 -0.273059 0
M  V30 3752 H 356.951 6.73411 0.743239 0
M  V30 3753 H 357.894 7.0412 -0.749713 0
M  V30 3754 H 358.302 5.63797 0.281706 0
M  V30 3755 N 357.7 0.491464 1.49741 0
M  V30 3756 C 358.946 -0.0565092 2.02721 0
M  V30 3757 C 359.279 -1.37522 1.37118 0
M  V30 3758 O 358.554 -1.87866 0.503645 0
M  V30 3759 C 358.837 -0.219051 3.59433 0
M  V30 3760 C 358.69 1.12211 4.35579 0
M  V30 3761 C 360.009 -0.964157 4.29409 0
M  V30 3762 H 357.128 -0.0190627 0.736753 0
M  V30 3763 H 359.77 0.641021 1.7886 0
M  V30 3764 H 357.92 -0.813165 3.79895 0
M  V30 3765 H 359.592 1.75437 4.26637 0
M  V30 3766 H 357.835 1.71377 3.98513 0
M  V30 3767 H 358.506 0.961794 5.43556 0
M  V30 3768 H 360.982 -0.460378 4.13545 0
M  V30 3769 H 359.858 -1.04671 5.38828 0
M  V30 3770 H 360.119 -2.00563 3.93988 0
M  V30 3771 N 359.178 -1.55987 0.224894 0
M  V30 3772 C 360.594 -1.59066 -0.130426 0
M  V30 3773 C 360.794 -1.24176 -1.5869 0
M  V30 3774 O 359.85 -0.978592 -2.32766 0
M  V30 3775 C 361.163 -3.00042 0.198883 0
M  V30 3776 C 362.711 -3.1268 0.141391 0
M  V30 3777 C 363.186 -4.55839 0.444422 0
M  V30 3778 N 364.677 -4.6152 0.394115 0
M  V30 3779 C 365.412 -5.70231 0.602038 0
M  V30 3780 N 364.908 -6.87291 0.871914 0
M  V30 3781 N 366.701 -5.59555 0.534245 0
M  V30 3782 H 358.852 -1.76941 1.17497 0
M  V30 3783 H 361.115 -0.822604 0.471197 0
M  V30 3784 H 360.821 -3.30234 1.2099 0
M  V30 3785 H 360.695 -3.74075 -0.484535 0
M  V30 3786 H 363.082 -2.82283 -0.860265 0
M  V30 3787 H 363.163 -2.40969 0.858335 0
M  V30 3788 H 362.807 -4.86954 1.44353 0
M  V30 3789 H 362.737 -5.2578 -0.293752 0
M  V30 3790 H 365.228 -3.77405 0.193356 0
M  V30 3791 H 365.541 -7.66058 1.01858 0
M  V30 3792 H 363.886 -6.89028 0.909145 0
M  V30 3793 H 367.077 -4.6698 0.323612 0
M  V30 3794 H 367.25 -6.44211 0.699693 0
M  V30 3795 N 360.656 0.0484629 -1.57525 0
M  V30 3796 C 361.589 1.08755 -2.00618 0
M  V30 3797 C 362.567 1.36272 -0.887058 0
M  V30 3798 O 363.751 1.49255 -1.15131 0
M  V30 3799 C 360.878 2.42675 -2.36277 0
M  V30 3800 C 359.924 2.31142 -3.58435 0
M  V30 3801 S 360.757 1.68326 -5.08357 0
M  V30 3802 C 361.913 3.03776 -5.47239 0
M  V30 3803 H 362.146 0.720415 -2.88439 0
M  V30 3804 H 359.679 0.257801 -1.52233 0
M  V30 3805 H 361.637 3.19699 -2.57494 0
M  V30 3806 H 360.298 2.76541 -1.48942 0
M  V30 3807 H 359.491 3.29957 -3.80978 0
M  V30 3808 H 359.093 1.62258 -3.36969 0
M  V30 3809 H 361.385 4.00106 -5.46737 0
M  V30 3810 H 362.328 2.85988 -6.47778 0
M  V30 3811 H 362.736 3.05456 -4.74718 0
M  V30 3812 N 362.134 1.5431 0.320358 0
M  V30 3813 C 363.411 1.63322 1.07635 0
M  V30 3814 C 363.791 0.46912 2.05821 0
M  V30 3815 O 363.139 -0.536274 2.22118 0
M  V30 3816 C 363.349 3.00465 1.77544 0
M  V30 3817 C 364.697 3.56621 2.30449 0
M  V30 3818 O 365.721 3.02791 1.87606 0
M  V30 3819 O 364.58 4.5083 3.08892 0
M  V30 3820 H 361.674 0.661502 0.496331 0
M  V30 3821 H 364.22 1.66656 0.319992 0
M  V30 3822 H 362.992 3.76629 1.06143 0
M  V30 3823 H 362.615 3.00824 2.59982 0
M  V30 3824 N 363.613 -0.582584 1.46437 0
M  V30 3825 C 365.029 -0.905962 1.31394 0
M  V30 3826 C 365.229 -1.99468 0.285476 0
M  V30 3827 O 364.285 -2.50566 -0.311914 0
M  V30 3828 C 365.598 -1.3232 2.70022 0
M  V30 3829 C 367.146 -1.43604 2.78113 0
M  V30 3830 C 367.621 -1.88694 4.17323 0
M  V30 3831 N 369.112 -1.95887 4.19741 0
M  V30 3832 C 369.847 -2.32051 5.24347 0
M  V30 3833 N 369.343 -2.67006 6.39281 0
M  V30 3834 N 371.136 -2.32606 5.11713 0
M  V30 3835 H 363.287 0.1366 2.1196 0
M  V30 3836 H 365.55 -0.00155736 0.947999 0
M  V30 3837 H 365.256 -0.597242 3.46592 0
M  V30 3838 H 365.13 -2.28469 3.00136 0
M  V30 3839 H 367.517 -2.15286 2.01832 0
M  V30 3840 H 367.598 -0.457059 2.51684 0
M  V30 3841 H 367.242 -1.1759 4.941 0
M  V30 3842 H 367.172 -2.8755 4.4116 0
M  V30 3843 H 369.663 -1.71362 3.36814 0
M  V30 3844 H 369.976 -2.93554 7.14875 0
M  V30 3845 H 368.321 -2.64644 6.42642 0
M  V30 3846 H 371.512 -2.04721 4.2096 0
M  V30 3847 H 371.685 -2.60462 5.93349 0
M  V30 3848 N 365.091 -1.34144 -0.827227 0
M  V30 3849 C 366.507 -1.13732 -1.11969 0
M  V30 3850 C 366.707 0.0640463 -2.01398 0
M  V30 3851 O 365.763 0.740856 -2.41387 0
M  V30 3852 C 367.076 -2.43047 -1.77055 0
M  V30 3853 C 368.624 -2.49063 -1.89569 0
M  V30 3854 C 369.099 -3.78369 -2.58072 0
M  V30 3855 N 370.59 -3.79505 -2.65575 0
M  V30 3856 C 371.325 -4.76274 -3.19297 0
M  V30 3857 N 370.821 -5.83424 -3.73616 0
M  V30 3858 N 372.614 -4.63735 -3.17658 0
M  V30 3859 H 364.765 -2.11126 -0.232296 0
M  V30 3860 H 367.028 -0.933424 -0.165602 0
M  V30 3861 H 366.734 -3.31025 -1.18807 0
M  V30 3862 H 366.608 -2.56066 -2.76966 0
M  V30 3863 H 368.995 -1.61527 -2.46968 0
M  V30 3864 H 369.076 -2.39975 -0.885745 0
M  V30 3865 H 368.72 -4.66293 -2.01329 0
M  V30 3866 H 368.65 -3.84737 -3.59562 0
M  V30 3867 H 371.141 -3.02074 -2.27068 0
M  V30 3868 H 371.454 -6.53282 -4.12846 0
M  V30 3869 H 369.799 -5.87143 -3.71871 0
M  V30 3870 H 372.99 -3.79177 -2.74486 0
M  V30 3871 H 373.163 -5.39318 -3.59221 0
M  V30 3872 N 366.569 1.04691 -1.17803 0
M  V30 3873 C 367.817 1.7743 -0.967617 0
M  V30 3874 C 368.138 1.88359 0.504574 0
M  V30 3875 O 367.408 1.40402 1.36617 0
M  V30 3876 H 365.988 0.657242 -0.355024 0
M  V30 3877 H 368.65 1.2638 -1.48371 0
M  V30 3878 H 367.746 2.78924 -1.40027 0
M  V30 3879 N 368.047 0.979072 1.23499 0
M  V30 3880 C 369.295 0.645941 1.91499 0
M  V30 3881 C 369.616 -0.822948 1.76784 0
M  V30 3882 O 368.886 -1.58854 1.14639 0
M  V30 3883 H 367.466 0.235919 0.708767 0
M  V30 3884 H 370.128 1.2426 1.50152 0
M  V30 3885 H 369.224 0.896411 2.9895 0
M  V30 3886 N 369.525 -1.3858 0.750561 0
M  V30 3887 C 370.753 -2.04471 0.316098 0
M  V30 3888 C 371.168 -1.56606 -1.05452 0
M  V30 3889 O 370.525 -0.737784 -1.66922 0
M  V30 3890 C 370.576 -3.60025 0.326275 0
M  V30 3891 O 370.297 -4.06133 1.6428 0
M  V30 3892 C 371.798 -4.43131 -0.122429 0
M  V30 3893 H 369.018 -0.65717 0.135528 0
M  V30 3894 H 371.562 -1.77329 1.01857 0
M  V30 3895 H 369.717 -3.86014 -0.327431 0
M  V30 3896 H 370.131 -5.00547 1.56693 0
M  V30 3897 H 371.605 -5.51963 -0.0641473 0
M  V30 3898 H 372.082 -4.23333 -1.16988 0
M  V30 3899 H 372.688 -4.22323 0.50229 0
M  V30 3900 N 371.003 -0.499398 -1.49478 0
M  V30 3901 C 372.249 0.0377587 -2.03365 0
M  V30 3902 C 372.604 1.3484 -1.37244 0
M  V30 3903 O 371.897 1.85 -0.498547 0
M  V30 3904 C 372.091 0.248424 -3.56536 0
M  V30 3905 C 371.92 -1.04025 -4.37503 0
M  V30 3906 C 370.69 -1.59159 -4.79579 0
M  V30 3907 C 372.888 -1.9431 -4.76181 0
M  V30 3908 N 370.87 -2.82634 -5.44969 0
M  V30 3909 C 372.241 -3.02364 -5.41272 0
M  V30 3910 C 374.296 -1.95008 -4.58123 0
M  V30 3911 C 372.999 -4.1114 -5.90217 0
M  V30 3912 C 375.025 -3.02758 -5.08027 0
M  V30 3913 C 374.387 -4.09531 -5.73118 0
M  V30 3914 H 370.486 -0.026923 -0.781536 0
M  V30 3915 H 373.07 -0.673901 -1.82665 0
M  V30 3916 H 371.241 0.929139 -3.77123 0
M  V30 3917 H 372.973 0.782445 -3.97064 0
M  V30 3918 H 369.728 -1.13696 -4.5975 0
M  V30 3919 H 370.152 -3.45416 -5.82252 0
M  V30 3920 H 374.794 -1.13766 -4.07207 0
M  V30 3921 H 372.512 -4.93181 -6.40155 0
M  V30 3922 H 376.098 -3.04315 -4.95866 0
M  V30 3923 H 374.978 -4.91534 -6.11035 0
M  V30 3924 N 372.481 1.55866 -0.233164 0
M  V30 3925 C 373.428 2.20796 0.67215 0
M  V30 3926 C 374.398 1.16731 1.18166 0
M  V30 3927 O 375.583 1.45129 1.23864 0
M  V30 3928 C 372.723 2.90072 1.86955 0
M  V30 3929 C 371.836 4.08759 1.39786 0
M  V30 3930 C 370.971 4.65787 2.55374 0
M  V30 3931 C 370.01 5.76752 2.04998 0
M  V30 3932 N 369.147 6.28021 3.13901 0
M  V30 3933 H 373.987 2.9779 0.111749 0
M  V30 3934 H 371.524 1.47036 0.0434007 0
M  V30 3935 H 373.482 3.28428 2.57276 0
M  V30 3936 H 372.112 2.15575 2.40265 0
M  V30 3937 H 371.164 3.7581 0.589173 0
M  V30 3938 H 372.476 4.88906 0.98856 0
M  V30 3939 H 371.63 5.06646 3.33758 0
M  V30 3940 H 370.369 3.84828 2.99598 0
M  V30 3941 H 369.374 5.35383 1.25079 0
M  V30 3942 H 370.599 6.59553 1.61759 0
M  V30 3943 H 368.545 5.49971 3.57586 0
M  V30 3944 H 368.462 7.03323 2.7726 0
M  V30 3945 H 369.73 6.73538 3.92386 0
M  V30 3946 N 373.959 -0.0401083 1.57549 0
M  V30 3947 C 374.889 -1.04384 2.08869 0
M  V30 3948 C 375.87 -1.38407 0.988817 0
M  V30 3949 O 377.055 -1.47483 1.26342 0
M  V30 3950 C 374.185 -2.34808 2.55895 0
M  V30 3951 C 373.139 -2.15057 3.70047 0
M  V30 3952 C 372.465 -3.51145 4.03239 0
M  V30 3953 C 373.765 -1.54576 4.98902 0
M  V30 3954 H 375.459 -0.616666 2.92981 0
M  V30 3955 H 373.005 -0.295184 1.40942 0
M  V30 3956 H 374.958 -3.05346 2.90417 0
M  V30 3957 H 373.682 -2.79565 1.68853 0
M  V30 3958 H 372.341 -1.46954 3.35857 0
M  V30 3959 H 371.989 -3.93529 3.13279 0
M  V30 3960 H 371.689 -3.38758 4.80122 0
M  V30 3961 H 373.213 -4.23062 4.40285 0
M  V30 3962 H 374.627 -2.15017 5.31451 0
M  V30 3963 H 373.024 -1.52796 5.80322 0
M  V30 3964 H 374.094 -0.51039 4.82206 0
M  V30 3965 N 375.437 -1.54477 -0.31217 0
M  V30 3966 C 376.367 -1.87652 -1.38957 0
M  V30 3967 C 377.348 -0.734358 -1.53431 0
M  V30 3968 O 378.533 -0.98911 -1.67123 0
M  V30 3969 C 375.663 -2.11396 -2.75552 0
M  V30 3970 C 374.617 -3.27243 -2.75855 0
M  V30 3971 C 373.943 -3.36382 -4.15633 0
M  V30 3972 C 375.243 -4.64622 -2.38587 0
M  V30 3973 H 376.937 -2.77887 -1.11442 0
M  V30 3974 H 374.483 -1.33707 -0.534655 0
M  V30 3975 H 376.436 -2.33189 -3.51 0
M  V30 3976 H 375.16 -1.17921 -3.04569 0
M  V30 3977 H 373.819 -3.05356 -2.02863 0
M  V30 3978 H 373.467 -2.40445 -4.41809 0
M  V30 3979 H 373.167 -4.14249 -4.1674 0
M  V30 3980 H 374.691 -3.60422 -4.92877 0
M  V30 3981 H 376.105 -4.86219 -3.03749 0
M  V30 3982 H 374.502 -5.45121 -2.50925 0
M  V30 3983 H 375.572 -4.66097 -1.33723 0
M  V30 3984 N 376.915 0.57481 -1.46744 0
M  V30 3985 C 378.163 1.33009 -1.52161 0
M  V30 3986 C 378.484 1.94185 -0.178092 0
M  V30 3987 O 377.754 1.7899 0.796196 0
M  V30 3988 H 376.334 0.493873 -0.560445 0
M  V30 3989 H 378.996 0.672589 -1.82927 0
M  V30 3990 H 378.092 2.13273 -2.27862 0
M  V30 3991 N 378.394 1.34581 0.820102 0
M  V30 3992 C 379.619 1.30333 1.61332 0
M  V30 3993 C 380.044 -0.119339 1.87721 0
M  V30 3994 O 379.402 -1.08197 1.45475 0
M  V30 3995 C 379.45 2.10258 2.92957 0
M  V30 3996 O 378.554 1.47404 3.85157 0
M  V30 3997 H 377.895 0.447488 0.490561 0
M  V30 3998 H 380.425 1.77425 1.01889 0
M  V30 3999 H 380.435 2.21718 3.42498 0
M  V30 4000 H 379.11 3.13693 2.73074 0
M  V30 4001 H 377.687 1.44703 3.43679 0
M  V30 4002 N 379.872 -1.04064 1.18357 0
M  V30 4003 C 381.118 -1.77528 0.980397 0
M  V30 4004 C 381.451 -1.87948 -0.48879 0
M  V30 4005 O 380.726 -1.3876 -1.36293 0
M  V30 4006 C 381.009 -3.20797 1.63588 0
M  V30 4007 C 380.862 -3.1832 3.17793 0
M  V30 4008 C 382.181 -4.18911 1.34914 0
M  V30 4009 H 379.3 -0.644443 0.357578 0
M  V30 4010 H 381.942 -1.2156 1.46024 0
M  V30 4011 H 380.092 -3.68586 1.22788 0
M  V30 4012 H 381.764 -2.78521 3.67728 0
M  V30 4013 H 380.007 -2.56351 3.49952 0
M  V30 4014 H 380.678 -4.19489 3.58794 0
M  V30 4015 H 383.154 -3.7967 1.70265 0
M  V30 4016 H 382.03 -5.17374 1.83346 0
M  V30 4017 H 382.291 -4.41262 0.272027 0
M  V30 4018 N 381.35 -0.985608 -1.22978 0
M  V30 4019 C 382.596 -0.65836 -1.91816 0
M  V30 4020 C 382.929 0.806692 -1.76653 0
M  V30 4021 O 382.204 1.58252 -1.13078 0
M  V30 4022 C 382.487 -1.056 -3.44268 0
M  V30 4023 C 382.34 -2.57906 -3.68516 0
M  V30 4024 C 383.659 -0.603781 -4.35939 0
M  V30 4025 H 380.778 -0.24065 -0.696604 0
M  V30 4026 H 383.42 -1.22783 -1.44998 0
M  V30 4027 H 381.57 -0.571445 -3.84274 0
M  V30 4028 H 383.242 -3.13976 -3.3796 0
M  V30 4029 H 381.485 -3.00305 -3.13048 0
M  V30 4030 H 382.156 -2.80779 -4.75255 0
M  V30 4031 H 384.632 -1.01987 -4.03408 0
M  V30 4032 H 383.508 -0.910383 -5.41298 0
M  V30 4033 H 383.769 0.495761 -4.39312 0
M  V30 4034 N 382.828 1.3818 -0.7579 0
M  V30 4035 C 384.058 2.04004 -0.326463 0
M  V30 4036 C 384.466 1.57286 1.05156 0
M  V30 4037 O 383.809 0.743144 1.67997 0
M  V30 4038 C 383.871 3.58444 -0.275402 0
M  V30 4039 C 383.535 4.28237 -1.59569 0
M  V30 4040 C 384.532 4.53312 -2.54566 0
M  V30 4041 C 382.217 4.66341 -1.86631 0
M  V30 4042 C 384.211 5.15531 -3.74842 0
M  V30 4043 C 381.898 5.28283 -3.0718 0
M  V30 4044 C 382.896 5.52814 -4.01106 0
M  V30 4045 O 382.584 6.13465 -5.19534 0
M  V30 4046 H 382.316 0.662026 -0.136739 0
M  V30 4047 H 384.87 1.7777 -1.02893 0
M  V30 4048 H 383.1 3.83667 0.483337 0
M  V30 4049 H 384.789 4.05701 0.127099 0
M  V30 4050 H 385.555 4.24299 -2.34936 0
M  V30 4051 H 381.434 4.46591 -1.14358 0
M  V30 4052 H 384.978 5.34594 -4.48168 0
M  V30 4053 H 380.875 5.56719 -3.26702 0
M  V30 4054 H 381.643 6.31951 -5.20173 0
M  V30 4055 N 384.306 0.507319 1.49211 0
M  V30 4056 C 385.269 -0.256763 2.27757 0
M  V30 4057 C 386.269 -0.888287 1.34038 0
M  V30 4058 O 387.459 -0.751841 1.5714 0
M  V30 4059 C 384.591 -1.36905 3.12202 0
M  V30 4060 H 385.784 0.432557 2.96764 0
M  V30 4061 H 383.337 0.262488 1.5408 0
M  V30 4062 H 384.072 -2.09233 2.47775 0
M  V30 4063 H 383.857 -0.921599 3.81115 0
M  V30 4064 H 385.347 -1.9071 3.7151 0
M  V30 4065 N 385.784 -1.5574 0.241426 0
M  V30 4066 C 386.734 -2.17803 -0.674233 0
M  V30 4067 C 387.718 -1.13225 -1.14319 0
M  V30 4068 O 388.91 -1.39153 -1.09387 0
M  V30 4069 C 386.039 -2.87682 -1.87333 0
M  V30 4070 C 385.125 -3.99509 -1.42313 0
M  V30 4071 N 385.516 -5.01115 -0.686798 0
M  V30 4072 C 383.814 -4.11964 -1.70885 0
M  V30 4073 C 384.515 -5.79922 -0.454456 0
M  V30 4074 N 383.491 -5.34001 -1.01705 0
M  V30 4075 H 387.293 -2.93718 -0.103447 0
M  V30 4076 H 384.807 -1.62342 0.0435095 0
M  V30 4077 H 386.804 -3.3057 -2.54026 0
M  V30 4078 H 385.464 -2.13269 -2.4484 0
M  V30 4079 H 386.475 -5.16799 -0.337459 0
M  V30 4080 H 383.152 -3.48718 -2.2957 0
M  V30 4081 H 384.542 -6.71768 0.132992 0
M  V30 4082 N 387.262 0.0317525 -1.57568 0
M  V30 4083 C 388.487 0.738664 -1.938 0
M  V30 4084 C 388.912 1.68242 -0.841208 0
M  V30 4085 O 388.27 1.80157 0.203267 0
M  V30 4086 C 388.318 1.47417 -3.29091 0
M  V30 4087 O 387.422 2.5872 -3.2115 0
M  V30 4088 H 386.763 0.198856 -0.633524 0
M  V30 4089 H 389.293 -0.0119713 -2.04596 0
M  V30 4090 H 389.303 1.84468 -3.63917 0
M  V30 4091 H 387.978 0.781988 -4.08482 0
M  V30 4092 H 386.555 2.24231 -2.97951 0
M  V30 4093 N 388.74 1.54641 0.303973 0
M  V30 4094 C 389.687 1.85386 1.37479 0
M  V30 4095 C 390.657 0.702528 1.50512 0
M  V30 4096 O 391.842 0.950867 1.65418 0
M  V30 4097 C 388.982 2.10413 2.73533 0
M  V30 4098 C 388.095 3.38049 2.68974 0
M  V30 4099 C 387.23 3.52934 3.97002 0
M  V30 4100 C 386.269 4.74373 3.86829 0
M  V30 4101 N 385.406 4.8608 5.06627 0
M  V30 4102 H 390.246 2.76732 1.1056 0
M  V30 4103 H 387.783 1.37034 0.534805 0
M  V30 4104 H 389.741 2.22919 3.52652 0
M  V30 4105 H 388.371 1.22338 2.98719 0
M  V30 4106 H 387.423 3.3418 1.81736 0
M  V30 4107 H 388.735 4.27288 2.57346 0
M  V30 4108 H 387.889 3.65088 4.84557 0
M  V30 4109 H 386.628 2.61824 4.1146 0
M  V30 4110 H 385.633 4.62255 2.97658 0
M  V30 4111 H 386.858 5.66888 3.73918 0
M  V30 4112 H 384.804 3.97891 5.21554 0
M  V30 4113 H 384.721 5.69315 4.9741 0
M  V30 4114 H 385.989 5.02587 5.95841 0
M  V30 4115 N 390.218 -0.567019 1.47046 0
M  V30 4116 C 391.128 -1.70247 1.6141 0
M  V30 4117 C 392.144 -1.66746 0.497157 0
M  V30 4118 O 393.32 -1.86371 0.763389 0
M  V30 4119 C 390.385 -3.06756 1.61561 0
M  V30 4120 C 389.446 -3.21399 2.84607 0
M  V30 4121 C 388.679 -4.51396 2.84741 0
M  V30 4122 O 388.902 -5.36255 1.94388 0
M  V30 4123 O 387.836 -4.69621 3.76483 0
M  V30 4124 H 391.662 -1.61073 2.57467 0
M  V30 4125 H 389.247 -0.735894 1.30019 0
M  V30 4126 H 391.129 -3.8801 1.64396 0
M  V30 4127 H 389.804 -3.16333 0.686684 0
M  V30 4128 H 388.711 -2.39579 2.8732 0
M  V30 4129 H 390.044 -3.16721 3.76761 0
M  V30 4130 N 391.696 -1.35014 -0.812953 0
M  V30 4131 C 392.626 -1.30069 -1.93919 0
M  V30 4132 C 393.607 -0.176275 -1.69184 0
M  V30 4133 O 394.792 -0.370227 -1.90638 0
M  V30 4134 C 391.922 -1.06547 -3.30552 0
M  V30 4135 C 390.876 -2.15561 -3.69753 0
M  V30 4136 C 390.202 -1.77214 -5.04479 0
M  V30 4137 C 391.502 -3.57476 -3.808 0
M  V30 4138 H 393.196 -2.24303 -1.98314 0
M  V30 4139 H 390.742 -1.07977 -0.952736 0
M  V30 4140 H 392.695 -1.01729 -4.08937 0
M  V30 4141 H 391.419 -0.0875719 -3.26483 0
M  V30 4142 H 390.078 -2.19466 -2.9365 0
M  V30 4143 H 389.726 -0.780589 -4.96906 0
M  V30 4144 H 389.426 -2.50184 -5.31678 0
M  V30 4145 H 390.95 -1.7391 -5.8531 0
M  V30 4146 H 392.364 -3.55929 -4.4943 0
M  V30 4147 H 390.761 -4.29152 -4.19462 0
M  V30 4148 H 391.831 -3.94091 -2.82525 0
M  V30 4149 N 393.175 1.03435 -1.18907 0
M  V30 4150 C 394.424 1.76143 -0.982669 0
M  V30 4151 C 394.737 1.89416 0.487953 0
M  V30 4152 O 395.943 2.59041 0.813036 0
M  V30 4153 C 394.399 3.16722 -1.70924 0
M  V30 4154 C 394.007 3.11522 -3.21959 0
M  V30 4155 C 395.751 3.93764 -1.58588 0
M  V30 4156 C 393.658 4.46999 -3.87228 0
M  V30 4157 H 392.588 0.660292 -0.364047 0
M  V30 4158 H 395.239 1.158 -1.42347 0
M  V30 4159 H 393.621 3.775 -1.19623 0
M  V30 4160 H 394.795 2.60158 -3.80335 0
M  V30 4161 H 393.11 2.47978 -3.34508 0
M  V30 4162 H 395.707 4.93963 -2.04707 0
M  V30 4163 H 396.05 4.12794 -0.539142 0
M  V30 4164 H 396.583 3.39576 -2.07203 0
M  V30 4165 H 393.322 4.33174 -4.91976 0
M  V30 4166 H 392.842 4.98441 -3.33642 0
M  V30 4167 H 394.521 5.15898 -3.90459 0
M  V30 4168 N 394.653 0.992116 1.22453 0
M  V30 4169 C 395.881 0.685944 1.95198 0
M  V30 4170 C 396.296 -0.749233 1.73297 0
M  V30 4171 O 395.653 -1.50549 1.03156 0
M  V30 4172 C 395.704 0.981395 3.47924 0
M  V30 4173 O 395.425 2.36018 3.6909 0
M  V30 4174 C 396.926 0.692815 4.37853 0
M  V30 4175 H 394.146 0.253821 0.621141 0
M  V30 4176 H 396.69 1.32668 1.55626 0
M  V30 4177 H 394.845 0.386481 3.85467 0
M  V30 4178 H 395.259 2.45884 4.63294 0
M  V30 4179 H 396.733 0.949818 5.43767 0
M  V30 4180 H 397.21 -0.373181 4.37612 0
M  V30 4181 H 397.816 1.26874 4.05935 0
M  V30 4182 N 396.131 -1.37776 0.765217 0
M  V30 4183 C 397.094 -2.28686 0.153416 0
M  V30 4184 C 398.094 -1.47727 -0.635081 0
M  V30 4185 O 399.284 -1.68027 -0.459632 0
M  V30 4186 C 396.416 -3.31608 -0.790495 0
M  V30 4187 H 397.609 -2.84297 0.954723 0
M  V30 4188 H 395.162 -1.46932 0.53299 0
M  V30 4189 H 395.897 -2.81109 -1.61705 0
M  V30 4190 H 395.682 -3.9144 -0.227348 0
M  V30 4191 H 397.172 -3.99559 -1.21419 0
M  V30 4192 N 397.609 -0.515225 -1.4894 0
M  V30 4193 C 398.855 0.016187 -2.03394 0
M  V30 4194 C 399.21 1.33377 -1.38666 0
M  V30 4195 O 398.503 1.84461 -0.518141 0
M  V30 4196 C 398.697 0.210595 -3.56779 0
M  V30 4197 C 398.526 -1.08659 -4.36375 0
M  V30 4198 C 397.296 -1.64237 -4.77864 0
M  V30 4199 C 399.494 -1.9935 -4.74093 0
M  V30 4200 N 397.476 -2.88398 -5.41941 0
M  V30 4201 C 398.847 -3.08088 -5.38035 0
M  V30 4202 C 400.902 -1.99856 -4.56029 0
M  V30 4203 C 399.605 -4.17377 -5.85823 0
M  V30 4204 C 401.631 -3.08129 -5.04787 0
M  V30 4205 C 400.993 -4.15586 -5.68742 0
M  V30 4206 H 397.092 -0.0352107 -0.781207 0
M  V30 4207 H 399.676 -0.693237 -1.8194 0
M  V30 4208 H 397.847 0.889088 -3.78087 0
M  V30 4209 H 399.579 0.740287 -3.97872 0
M  V30 4210 H 396.334 -1.18566 -4.58518 0
M  V30 4211 H 396.758 -3.51572 -5.78555 0
M  V30 4212 H 401.4 -1.18079 -4.05977 0
M  V30 4213 H 399.118 -4.99943 -6.34888 0
M  V30 4214 H 402.704 -3.09557 -4.92611 0
M  V30 4215 H 401.584 -4.97987 -6.05787 0
M  V30 4216 N 399.087 1.5561 -0.249682 0
M  V30 4217 C 400.317 2.03116 0.377803 0
M  V30 4218 C 400.725 1.12822 1.51881 0
M  V30 4219 O 400.068 0.13562 1.83199 0
M  V30 4220 C 400.13 3.46866 0.944693 0
M  V30 4221 C 399.794 4.56955 -0.0644259 0
M  V30 4222 C 400.791 5.12485 -0.874957 0
M  V30 4223 C 398.476 5.01936 -0.19132 0
M  V30 4224 C 400.47 6.11491 -1.79881 0
M  V30 4225 C 398.157 6.00773 -1.11868 0
M  V30 4226 C 399.155 6.5543 -1.92095 0
M  V30 4227 O 398.843 7.5234 -2.83267 0
M  V30 4228 H 398.575 0.669489 0.0935961 0
M  V30 4229 H 401.129 2.02004 -0.371966 0
M  V30 4230 H 399.359 3.45136 1.74407 0
M  V30 4231 H 401.048 3.77856 1.48255 0
M  V30 4232 H 401.814 4.78564 -0.787523 0
M  V30 4233 H 397.693 4.59055 0.423072 0
M  V30 4234 H 401.237 6.54078 -2.42543 0
M  V30 4235 H 397.134 6.34114 -1.20703 0
M  V30 4236 H 397.902 7.69966 -2.7766 0
M  V30 4237 N 400.565 -0.0233959 1.57583 0
M  V30 4238 C 401.814 -0.712133 1.8871 0
M  V30 4239 C 402.127 -1.76217 0.848944 0
M  V30 4240 O 403.333 -2.50389 1.04964 0
M  V30 4241 C 401.789 -1.3177 3.3491 0
M  V30 4242 C 401.397 -0.303715 4.46969 0
M  V30 4243 C 403.141 -1.98598 3.75179 0
M  V30 4244 C 401.048 -0.917945 5.84233 0
M  V30 4245 H 399.978 -0.269735 0.704101 0
M  V30 4246 H 402.629 0.0333114 1.8347 0
M  V30 4247 H 401.011 -2.11304 3.34913 0
M  V30 4248 H 402.185 0.465325 4.58445 0
M  V30 4249 H 400.5 0.2628 4.1557 0
M  V30 4250 H 403.097 -2.45416 4.75053 0
M  V30 4251 H 403.44 -2.80659 3.07468 0
M  V30 4252 H 403.973 -1.25831 3.77374 0
M  V30 4253 H 400.712 -0.136633 6.55358 0
M  V30 4254 H 400.232 -1.65669 5.76467 0
M  V30 4255 H 401.911 -1.4236 6.31144 0
M  V30 4256 N 402.043 -1.548 -0.295768 0
M  V30 4257 C 403.291 -1.73985 -1.02828 0
M  V30 4258 C 403.612 -0.531406 -1.87619 0
M  V30 4259 O 402.882 0.454221 -1.90561 0
M  V30 4260 H 401.462 -0.641556 -0.382642 0
M  V30 4261 H 404.124 -1.92163 -0.325489 0
M  V30 4262 H 403.22 -2.63129 -1.67838 0
M  V30 4263 N 403.521 0.559213 -1.47345 0
M  V30 4264 C 404.768 1.31648 -1.53867 0
M  V30 4265 C 405.096 1.93468 -0.200104 0
M  V30 4266 O 404.351 1.78295 0.806799 0
M  V30 4267 C 404.65 2.44853 -2.6035 0
M  V30 4268 C 404.316 2.00876 -4.03683 0
M  V30 4269 C 402.978 1.88599 -4.42701 0
M  V30 4270 C 405.33 1.67279 -4.93626 0
M  V30 4271 C 402.658 1.41017 -5.69501 0
M  V30 4272 C 405.01 1.21169 -6.20887 0
M  V30 4273 C 403.674 1.07487 -6.58789 0
M  V30 4274 H 402.944 0.481734 -0.56304 0
M  V30 4275 H 405.591 0.627301 -1.80934 0
M  V30 4276 H 403.896 3.19318 -2.27032 0
M  V30 4277 H 405.593 3.03039 -2.62619 0
M  V30 4278 H 402.183 2.11374 -3.72853 0
M  V30 4279 H 406.367 1.75638 -4.64182 0
M  V30 4280 H 401.623 1.29086 -5.97618 0
M  V30 4281 H 405.797 0.942345 -6.89995 0
M  V30 4282 H 403.424 0.703946 -7.56934 0
M  V30 4283 N 404.999 1.35443 0.805782 0
M  V30 4284 C 405.929 1.31095 1.93226 0
M  V30 4285 C 406.91 0.185244 1.69088 0
M  V30 4286 O 408.095 0.380332 1.90439 0
M  V30 4287 C 405.225 1.08299 3.29983 0
M  V30 4288 C 404.179 2.17519 3.68605 0
M  V30 4289 C 403.505 1.79887 5.03532 0
M  V30 4290 C 404.805 3.5949 3.78898 0
M  V30 4291 H 406.499 2.25352 1.97122 0
M  V30 4292 H 404.045 1.0848 0.946996 0
M  V30 4293 H 405.998 1.03897 4.08391 0
M  V30 4294 H 404.722 0.104885 3.26432 0
M  V30 4295 H 403.381 2.2102 2.92482 0
M  V30 4296 H 403.029 0.80693 4.96485 0
M  V30 4297 H 402.729 2.53001 5.30344 0
M  V30 4298 H 404.253 1.77011 5.84379 0
M  V30 4299 H 405.667 3.58307 4.47536 0
M  V30 4300 H 404.064 4.31371 4.1718 0
M  V30 4301 H 405.134 3.95584 2.80431 0
M  V30 4302 N 406.477 -1.02803 1.19454 0
M  V30 4303 C 407.723 -1.76478 0.999171 0
M  V30 4304 C 408.056 -1.88456 -0.468828 0
M  V30 4305 O 407.331 -1.40198 -1.34814 0
M  V30 4306 C 407.614 -3.19044 1.66981 0
M  V30 4307 C 407.467 -3.14932 3.21151 0
M  V30 4308 C 408.786 -4.17456 1.39349 0
M  V30 4309 H 405.905 -0.640614 0.364393 0
M  V30 4310 H 408.547 -1.20005 1.47305 0
M  V30 4311 H 406.697 -3.67263 1.2669 0
M  V30 4312 H 408.369 -2.74605 3.70661 0
M  V30 4313 H 406.612 -2.52625 3.52652 0
M  V30 4314 H 407.283 -4.1566 3.63223 0
M  V30 4315 H 409.759 -3.77842 1.74283 0
M  V30 4316 H 408.635 -5.154 1.88823 0
M  V30 4317 H 408.896 -4.40949 0.318813 0
M  V30 4318 N 407.956 -0.998596 -1.21925 0
M  V30 4319 C 408.886 -0.573688 -2.26343 0
M  V30 4320 C 409.867 0.402296 -1.65274 0
M  V30 4321 O 411.052 0.291683 -1.91997 0
M  V30 4322 C 408.182 0.106839 -3.47136 0
M  V30 4323 C 407.136 -0.788269 -4.20678 0
M  V30 4324 C 406.462 0.0254927 -5.34694 0
M  V30 4325 C 407.762 -2.08784 -4.78755 0
M  V30 4326 H 409.456 -1.44651 -2.62138 0
M  V30 4327 H 407.002 -0.696975 -1.26009 0
M  V30 4328 H 408.955 0.415531 -4.19346 0
M  V30 4329 H 407.679 1.01424 -3.10452 0
M  V30 4330 H 406.338 -1.08069 -3.50309 0
M  V30 4331 H 405.986 0.933989 -4.94253 0
M  V30 4332 H 405.686 -0.570437 -5.84825 0
M  V30 4333 H 407.21 0.328147 -6.09718 0
M  V30 4334 H 408.624 -1.84272 -5.42878 0
M  V30 4335 H 407.021 -2.63307 -5.39249 0
M  V30 4336 H 408.091 -2.76284 -3.98491 0
M  V30 4337 N 409.434 1.37368 -0.772513 0
M  V30 4338 C 410.683 1.98918 -0.333861 0
M  V30 4339 C 410.996 1.62017 1.09589 0
M  V30 4340 O 412.202 2.16676 1.63596 0
M  V30 4341 C 410.658 3.55735 -0.545971 0
M  V30 4342 C 410.266 4.01573 -1.98603 0
M  V30 4343 C 412.01 4.24156 -0.170979 0
M  V30 4344 C 409.917 5.51102 -2.1457 0
M  V30 4345 H 408.847 0.744214 -0.121085 0
M  V30 4346 H 411.498 1.56888 -0.95175 0
M  V30 4347 H 409.88 3.95748 0.141387 0
M  V30 4348 H 411.054 3.72803 -2.7084 0
M  V30 4349 H 409.369 3.45937 -2.31769 0
M  V30 4350 H 411.966 5.34024 -0.26878 0
M  V30 4351 H 412.309 4.06917 0.878855 0
M  V30 4352 H 412.842 3.89447 -0.810914 0
M  V30 4353 H 409.581 5.73268 -3.17875 0
M  V30 4354 H 409.101 5.81554 -1.46817 0
M  V30 4355 H 410.78 6.17083 -1.94468 0
M  V30 4356 N 410.912 0.523116 1.48665 0
M  V30 4357 C 412.159 -0.0134763 2.02496 0
M  V30 4358 C 412.487 -1.3493 1.40086 0
M  V30 4359 O 411.742 -1.88286 0.533567 0
M  V30 4360 C 412.041 -0.191671 3.56886 0
M  V30 4361 C 411.707 1.06893 4.38046 0
M  V30 4362 C 410.369 1.41443 4.59943 0
M  V30 4363 C 412.721 1.90584 4.85106 0
M  V30 4364 C 410.049 2.59594 5.26144 0
M  V30 4365 C 412.401 3.07907 5.52609 0
M  V30 4366 C 411.065 3.42811 5.72745 0
M  V30 4367 H 410.335 -0.00493133 0.740984 0
M  V30 4368 H 412.982 0.687751 1.78724 0
M  V30 4369 H 411.287 -0.97561 3.79459 0
M  V30 4370 H 412.984 -0.621659 3.96152 0
M  V30 4371 H 409.574 0.789848 4.21259 0
M  V30 4372 H 413.758 1.65203 4.67997 0
M  V30 4373 H 409.014 2.86847 5.39934 0
M  V30 4374 H 413.188 3.73066 5.88043 0
M  V30 4375 H 410.815 4.34462 6.23816 0
M  V30 4376 N 412.39 -1.55475 0.257931 0
M  V30 4377 C 413.615 -2.04064 -0.370488 0
M  V30 4378 C 414.04 -1.13565 -1.49948 0
M  V30 4379 O 413.398 -0.130781 -1.80828 0
M  V30 4380 C 413.446 -3.50554 -0.845237 0
M  V30 4381 O 412.55 -3.63173 -1.95394 0
M  V30 4382 H 411.891 -0.659257 -0.0792243 0
M  V30 4383 H 414.421 -2.00903 0.387212 0
M  V30 4384 H 414.431 -3.91588 -1.14555 0
M  V30 4385 H 413.106 -4.15896 -0.0191259 0
M  V30 4386 H 411.683 -3.34039 -1.65748 0
M  V30 4387 N 413.868 0.0150385 -1.57593 0
M  V30 4388 C 415.093 0.718067 -1.94573 0
M  V30 4389 C 415.518 1.6734 -0.859005 0
M  V30 4390 O 414.876 1.80362 0.184147 0
M  V30 4391 C 414.924 1.43918 -3.30636 0
M  V30 4392 O 414.028 2.55299 -3.23876 0
M  V30 4393 H 413.369 0.192125 -0.635597 0
M  V30 4394 H 415.899 -0.0336708 -2.04572 0
M  V30 4395 H 415.909 1.80598 -3.65853 0
M  V30 4396 H 414.584 0.738619 -4.09289 0
M  V30 4397 H 413.161 2.21058 -3.00312 0
M  V30 4398 N 415.346 1.54954 0.287554 0
M  V30 4399 C 416.593 1.74873 1.02106 0
M  V30 4400 C 416.921 0.541829 1.86801 0
M  V30 4401 O 416.176 -0.475992 1.89823 0
M  V30 4402 C 416.475 2.99833 1.94512 0
M  V30 4403 C 416.141 4.33029 1.25686 0
M  V30 4404 C 414.803 4.69233 1.06649 0
M  V30 4405 C 417.155 5.15542 0.765913 0
M  V30 4406 C 414.483 5.85518 0.372222 0
M  V30 4407 C 416.835 6.32542 0.0853101 0
M  V30 4408 C 415.499 6.67398 -0.1169 0
M  V30 4409 H 414.769 0.639906 0.373632 0
M  V30 4410 H 417.416 1.89219 0.294665 0
M  V30 4411 H 415.721 2.80325 2.73725 0
M  V30 4412 H 417.418 3.1244 2.51361 0
M  V30 4413 H 414.008 4.04564 1.41512 0
M  V30 4414 H 418.192 4.88059 0.90066 0
M  V30 4415 H 413.448 6.11057 0.204695 0
M  V30 4416 H 417.622 6.95741 -0.302936 0
M  V30 4417 H 415.249 7.57357 -0.656859 0
M  V30 4418 N 416.824 -0.551391 1.4764 0
M  V30 4419 C 417.754 -1.66757 1.63445 0
M  V30 4420 C 418.735 -1.63077 0.483742 0
M  V30 4421 O 419.92 -1.80607 0.71377 0
M  V30 4422 C 417.05 -3.05387 1.65396 0
M  V30 4423 C 416.004 -3.23918 2.79752 0
M  V30 4424 C 415.33 -4.63393 2.66779 0
M  V30 4425 C 416.63 -3.08735 4.21284 0
M  V30 4426 H 418.324 -1.53786 2.56886 0
M  V30 4427 H 415.87 -0.738415 1.23626 0
M  V30 4428 H 417.823 -3.83325 1.75043 0
M  V30 4429 H 416.547 -3.19332 0.685195 0
M  V30 4430 H 415.206 -2.48391 2.69625 0
M  V30 4431 H 414.854 -4.74144 1.67918 0
M  V30 4432 H 414.554 -4.7674 3.43501 0
M  V30 4433 H 416.078 -5.43458 2.78364 0
M  V30 4434 H 417.492 -3.76484 4.32357 0
M  V30 4435 H 415.889 -3.33588 4.98838 0
M  V30 4436 H 416.959 -2.0541 4.39243 0
M  V30 4437 N 418.302 -1.35869 -0.798587 0
M  V30 4438 C 419.548 -1.2978 -1.55836 0
M  V30 4439 C 419.881 0.125322 -1.93795 0
M  V30 4440 O 419.156 1.07658 -1.61987 0
M  V30 4441 C 419.439 -2.21188 -2.84162 0
M  V30 4442 C 419.292 -3.72155 -2.52628 0
M  V30 4443 C 420.611 -2.11545 -3.85923 0
M  V30 4444 H 417.73 -0.472769 -0.565383 0
M  V30 4445 H 420.372 -1.66341 -0.918192 0
M  V30 4446 H 418.522 -1.90139 -3.38791 0
M  V30 4447 H 420.194 -4.13682 -2.04121 0
M  V30 4448 H 418.437 -3.92042 -1.85704 0
M  V30 4449 H 419.108 -4.31511 -3.44242 0
M  V30 4450 H 421.584 -2.38855 -3.40716 0
M  V30 4451 H 420.46 -2.77688 -4.73477 0
M  V30 4452 H 420.721 -1.09987 -4.282 0
M  V30 4453 N 419.78 1.02168 -1.19998 0
M  V30 4454 C 421.01 1.79036 -1.031 0
M  V30 4455 C 421.418 1.84409 0.423078 0
M  V30 4456 O 420.761 1.29228 1.30559 0
M  V30 4457 C 420.823 3.25185 -1.53281 0
M  V30 4458 C 420.487 3.43431 -3.01503 0
M  V30 4459 C 421.484 3.33063 -3.99206 0
M  V30 4460 C 419.169 3.69412 -3.40353 0
M  V30 4461 C 421.163 3.48413 -5.33748 0
M  V30 4462 C 418.85 3.84406 -4.75053 0
M  V30 4463 C 419.848 3.7391 -5.71559 0
M  V30 4464 O 419.536 3.88452 -7.03818 0
M  V30 4465 H 419.268 0.570043 -0.363355 0
M  V30 4466 H 421.822 1.29524 -1.59414 0
M  V30 4467 H 420.052 3.75756 -0.913483 0
M  V30 4468 H 421.741 3.83671 -1.32481 0
M  V30 4469 H 422.507 3.12934 -3.70537 0
M  V30 4470 H 418.386 3.76671 -2.65782 0
M  V30 4471 H 421.93 3.40137 -6.09059 0
M  V30 4472 H 417.827 4.04035 -5.03415 0
M  V30 4473 H 418.595 4.055 -7.10993 0
M  V30 4474 N 421.258 1.00505 1.21394 0
M  V30 4475 C 422.188 0.585684 2.26035 0
M  V30 4476 C 423.169 -0.393525 1.65485 0
M  V30 4477 O 424.354 -0.281497 1.92149 0
M  V30 4478 C 421.484 -0.0884283 3.47187 0
M  V30 4479 C 420.438 0.810567 4.20254 0
M  V30 4480 C 419.764 0.00286382 5.347 0
M  V30 4481 C 421.064 2.1132 4.77641 0
M  V30 4482 H 422.758 1.46039 2.61368 0
M  V30 4483 H 420.304 0.703648 1.25638 0
M  V30 4484 H 422.257 -0.393286 4.19561 0
M  V30 4485 H 420.981 -0.997766 3.10986 0
M  V30 4486 H 419.64 1.09925 3.49731 0
M  V30 4487 H 419.288 -0.907765 4.94741 0
M  V30 4488 H 418.988 0.601444 5.84514 0
M  V30 4489 H 420.512 -0.295808 6.09883 0
M  V30 4490 H 421.926 1.87148 5.41893 0
M  V30 4491 H 420.323 2.66164 5.37845 0
M  V30 4492 H 421.393 2.78393 3.9702 0
M  V30 4493 N 422.737 -1.36956 0.779787 0
M  V30 4494 C 423.983 -1.99787 0.348281 0
M  V30 4495 C 424.316 -1.61756 -1.07465 0
M  V30 4496 O 423.591 -0.867639 -1.74075 0
M  V30 4497 C 423.874 -3.56597 0.50104 0
M  V30 4498 C 423.727 -4.04513 1.96697 0
M  V30 4499 C 425.046 -4.40008 -0.0898097 0
M  V30 4500 H 422.165 -0.725796 0.128022 0
M  V30 4501 H 424.807 -1.62514 0.984331 0
M  V30 4502 H 422.957 -3.88479 -0.0404347 0
M  V30 4503 H 424.629 -3.83161 2.56876 0
M  V30 4504 H 422.872 -3.56408 2.47297 0
M  V30 4505 H 423.543 -5.1352 2.02486 0
M  V30 4506 H 426.019 -4.14431 0.372293 0
M  V30 4507 H 424.895 -5.4888 0.0471605 0
M  V30 4508 H 425.156 -4.26035 -1.18096 0
M  V30 4509 N 424.215 -0.530993 -1.48385 0
M  V30 4510 C 425.125 0.23503 -2.3342 0
M  V30 4511 C 426.141 0.93801 -1.46552 0
M  V30 4512 O 427.317 0.912745 -1.7953 0
M  V30 4513 C 424.382 1.26778 -3.22689 0
M  V30 4514 C 423.443 0.575038 -4.25431 0
M  V30 4515 C 422.676 1.55858 -5.10435 0
M  V30 4516 O 422.899 2.79129 -4.97437 0
M  V30 4517 O 421.833 1.09742 -5.91811 0
M  V30 4518 H 425.659 -0.461794 -3.00169 0
M  V30 4519 H 423.244 -0.291903 -1.46521 0
M  V30 4520 H 425.126 1.86457 -3.77904 0
M  V30 4521 H 423.801 1.94699 -2.586 0
M  V30 4522 H 422.708 -0.0622782 -3.74048 0
M  V30 4523 H 424.041 -0.062253 -4.92161 0
M  V30 4524 N 425.693 1.55336 -0.266172 0
M  V30 4525 C 426.64 2.22172 0.625165 0
M  V30 4526 C 427.61 1.19211 1.15663 0
M  V30 4527 O 428.795 1.47723 1.20758 0
M  V30 4528 C 425.935 2.93972 1.8076 0
M  V30 4529 C 425.048 4.11632 1.31084 0
M  V30 4530 C 424.183 4.71099 2.45436 0
M  V30 4531 C 423.222 5.8097 1.92718 0
M  V30 4532 N 422.359 6.34538 3.00509 0
M  V30 4533 H 427.199 2.9796 0.0485582 0
M  V30 4534 H 424.736 1.47095 0.0122024 0
M  V30 4535 H 426.694 3.33811 2.50251 0
M  V30 4536 H 425.324 2.20623 2.35638 0
M  V30 4537 H 424.376 3.76975 0.509326 0
M  V30 4538 H 425.688 4.90893 0.884633 0
M  V30 4539 H 424.842 5.13612 3.22936 0
M  V30 4540 H 423.581 3.91096 2.91368 0
M  V30 4541 H 422.586 5.37916 1.13695 0
M  V30 4542 H 423.811 6.62836 1.47733 0
M  V30 4543 H 421.757 5.57433 3.45839 0
M  V30 4544 H 421.674 7.09046 2.62279 0
M  V30 4545 H 422.942 6.81709 3.78011 0
M  V30 4546 N 427.171 -0.0066808 1.57599 0
M  V30 4547 C 428.448 -0.729586 1.81484 0
M  V30 4548 C 428.828 -1.92359 0.869558 0
M  V30 4549 O 428.176 -2.28348 -0.0832533 0
M  V30 4550 C 428.386 -1.1416 3.29801 0
M  V30 4551 C 429.734 -1.54823 3.95367 0
M  V30 4552 O 430.758 -1.23558 3.34084 0
M  V30 4553 O 429.617 -2.12937 5.03309 0
M  V30 4554 H 426.711 -0.354674 0.747085 0
M  V30 4555 H 429.257 0.0182609 1.6969 0
M  V30 4556 H 428.029 -0.290231 3.90222 0
M  V30 4557 H 427.652 -1.94876 3.46568 0
M  V30 4558 N 428.649 -1.55105 -0.279332 0
M  V30 4559 C 429.612 -1.86783 -1.32834 0
M  V30 4560 C 430.612 -0.74199 -1.42657 0
M  V30 4561 O 431.802 -1.0102 -1.41918 0
M  V30 4562 C 428.934 -2.06746 -2.71052 0
M  V30 4563 H 430.127 -2.8055 -1.05979 0
M  V30 4564 H 427.68 -1.47499 -0.517087 0
M  V30 4565 H 428.415 -1.15339 -3.03097 0
M  V30 4566 H 428.2 -2.88711 -2.65309 0
M  V30 4567 H 429.69 -2.32549 -3.46858 0
M  V30 4568 N 430.127 0.543554 -1.4793 0
M  V30 4569 C 431.075 1.67039 -1.61866 0
M  V30 4570 C 432.069 1.62294 -0.48549 0
M  V30 4571 O 433.275 1.67315 -0.66376 0
M  V30 4572 H 429.65 0.552954 -0.509652 0
M  V30 4573 H 431.621 1.52426 -2.56533 0
M  V30 4574 C 430.37 3.05357 -1.6629 0
M  V30 4575 H 429.693 3.09696 -2.5284 0
M  V30 4576 H 431.133 3.83855 -1.80088 0
M  V30 4577 C 429.592 3.34531 -0.398861 0
M  V30 4578 O 430.122 3.98649 0.494162 0
M  V30 4579 N 428.328 2.89299 -0.2747 0
M  V30 4580 H 427.875 2.37298 -1.00236 0
M  V30 4581 H 427.833 3.09188 0.570075 0
M  V30 4582 N 431.605 1.3629 0.791371 0
M  V30 4583 C 432.552 1.30458 1.90393 0
M  V30 4584 C 433.522 0.173632 1.6519 0
M  V30 4585 O 434.707 0.35983 1.87376 0
M  V30 4586 C 431.847 1.09777 3.27174 0
M  V30 4587 C 430.96 2.31929 3.64462 0
M  V30 4588 C 430.095 2.04276 4.90352 0
M  V30 4589 C 429.134 3.224 5.20312 0
M  V30 4590 N 428.271 2.94424 6.37385 0
M  V30 4591 H 433.111 2.25589 1.94714 0
M  V30 4592 H 430.648 1.12122 0.952216 0
M  V30 4593 H 432.606 0.958133 4.06049 0
M  V30 4594 H 431.236 0.183014 3.22281 0
M  V30 4595 H 430.288 2.56703 2.80727 0
M  V30 4596 H 431.6 3.20085 3.82553 0
M  V30 4597 H 430.754 1.87231 5.77087 0
M  V30 4598 H 429.493 1.13428 4.74326 0
M  V30 4599 H 428.498 3.40005 4.32061 0
M  V30 4600 H 429.723 4.14071 5.38258 0
M  V30 4601 H 427.669 2.06185 6.22755 0
M  V30 4602 H 427.586 3.76118 6.55798 0
M  V30 4603 H 428.854 2.80953 7.27108 0
M  V30 4604 N 433.083 -1.0153 1.20538 0
M  V30 4605 C 433.993 -2.13557 0.971113 0
M  V30 4606 C 435.009 -1.73845 -0.0734366 0
M  V30 4607 O 436.185 -2.01075 0.114299 0
M  V30 4608 C 433.25 -3.42661 0.527639 0
M  V30 4609 C 432.311 -3.96608 1.64319 0
M  V30 4610 C 431.544 -5.1955 1.22078 0
M  V30 4611 O 431.767 -5.70329 0.0900198 0
M  V30 4612 O 430.701 -5.66681 2.02871 0
M  V30 4613 H 434.527 -2.3619 1.90913 0
M  V30 4614 H 432.112 -1.11946 0.989362 0
M  V30 4615 H 433.994 -4.20404 0.289621 0
M  V30 4616 H 432.669 -3.21441 -0.381779 0
M  V30 4617 H 431.576 -3.20139 1.93551 0
M  V30 4618 H 432.909 -4.22219 2.52966 0
M  V30 4619 N 434.561 -1.01147 -1.20859 0
M  V30 4620 C 435.808 -0.697865 -1.90095 0
M  V30 4621 C 436.136 0.772014 -1.78522 0
M  V30 4622 O 435.391 1.57595 -1.16027 0
M  V30 4623 C 435.69 -1.0727 -3.40922 0
M  V30 4624 C 435.356 -2.53792 -3.72693 0
M  V30 4625 C 434.018 -2.93829 -3.81075 0
M  V30 4626 C 436.37 -3.48674 -3.87397 0
M  V30 4627 C 433.698 -4.27696 -4.01613 0
M  V30 4628 C 436.05 -4.82223 -4.09444 0
M  V30 4629 C 434.714 -5.21973 -4.16054 0
M  V30 4630 H 433.984 -0.255367 -0.695607 0
M  V30 4631 H 436.631 -1.27111 -1.43231 0
M  V30 4632 H 434.936 -0.417799 -3.89566 0
M  V30 4633 H 436.633 -0.807818 -3.92779 0
M  V30 4634 H 433.223 -2.21768 -3.66765 0
M  V30 4635 H 437.407 -3.18904 -3.80281 0
M  V30 4636 H 432.663 -4.58055 -4.04964 0
M  V30 4637 H 436.837 -5.55672 -4.19763 0
M  V30 4638 H 434.464 -6.25717 -4.31721 0
M  V30 4639 N 436.039 1.36541 -0.78704 0
M  V30 4640 C 437.264 2.0409 -0.369053 0
M  V30 4641 C 437.689 1.58957 1.00569 0
M  V30 4642 O 437.047 0.756926 1.64743 0
M  V30 4643 C 437.095 3.57924 -0.438466 0
M  V30 4644 O 436.199 4.08642 0.555479 0
M  V30 4645 H 435.54 0.645142 -0.157122 0
M  V30 4646 H 438.07 1.74545 -1.06749 0
M  V30 4647 H 438.08 4.06887 -0.301218 0
M  V30 4648 H 436.755 3.90127 -1.44132 0
M  V30 4649 H 435.332 3.70958 0.380088 0
M  V30 4650 N 437.518 0.538854 1.48102 0
M  V30 4651 C 438.746 0.0123136 2.06896 0
M  V30 4652 C 439.161 -1.27312 1.39417 0
M  V30 4653 O 438.518 -1.75949 0.484582 0
M  V30 4654 C 438.569 -0.206118 3.60912 0
M  V30 4655 O 438.29 1.0284 4.25859 0
M  V30 4656 C 439.791 -0.772033 4.36526 0
M  V30 4657 H 437.011 0.0375239 0.66995 0
M  V30 4658 H 439.555 0.747032 1.90367 0
M  V30 4659 H 437.71 -0.89091 3.77017 0
M  V30 4660 H 438.124 0.814654 5.18135 0
M  V30 4661 H 439.598 -0.874251 5.45033 0
M  V30 4662 H 440.075 -1.77904 4.01555 0
M  V30 4663 H 440.681 -0.123526 4.25121 0
M  V30 4664 N 438.996 -1.55193 0.274407 0
M  V30 4665 C 440.226 -2.03692 -0.345442 0
M  V30 4666 C 440.634 -1.15224 -1.50067 0
M  V30 4667 O 439.977 -0.164749 -1.8296 0
M  V30 4668 C 440.039 -3.48325 -0.88939 0
M  V30 4669 C 439.703 -4.56794 0.137115 0
M  V30 4670 C 440.7 -5.11028 0.956378 0
M  V30 4671 C 438.385 -5.01568 0.27115 0
M  V30 4672 C 440.379 -6.08552 1.89587 0
M  V30 4673 C 438.066 -5.98918 1.21412 0
M  V30 4674 C 439.064 -6.52291 2.02498 0
M  V30 4675 O 438.752 -7.47738 2.952 0
M  V30 4676 H 438.484 -0.670893 -0.0829332 0
M  V30 4677 H 441.038 -2.01387 0.404056 0
M  V30 4678 H 439.268 -3.47867 -1.68895 0
M  V30 4679 H 440.957 -3.80167 -1.42225 0
M  V30 4680 H 441.723 -4.7725 0.863559 0
M  V30 4681 H 437.602 -4.5967 -0.349987 0
M  V30 4682 H 441.146 -6.50137 2.52918 0
M  V30 4683 H 437.043 -6.32114 1.30776 0
M  V30 4684 H 437.811 -7.65451 2.89874 0
M  V30 4685 N 440.474 -0.00167713 -1.576 0
M  V30 4686 C 441.437 0.974046 -2.07473 0
M  V30 4687 C 442.437 1.27143 -0.984444 0
M  V30 4688 O 443.627 1.21633 -1.24703 0
M  V30 4689 C 440.759 2.29849 -2.51759 0
M  V30 4690 H 441.952 0.54262 -2.9495 0
M  V30 4691 H 439.505 0.245829 -1.54355 0
M  V30 4692 H 440.24 2.77677 -1.67529 0
M  V30 4693 H 440.025 2.09584 -3.31386 0
M  V30 4694 H 441.515 2.9984 -2.90664 0
M  V30 4695 N 441.952 1.55251 0.271103 0
M  V30 4696 C 443.229 1.66664 1.02384 0
M  V30 4697 C 443.609 0.534363 2.04225 0
M  V30 4698 O 442.957 -0.465337 2.23712 0
M  V30 4699 C 443.167 3.05961 1.67895 0
M  V30 4700 C 444.515 3.63772 2.18986 0
M  V30 4701 O 445.539 3.08606 1.77878 0
M  V30 4702 O 444.398 4.60429 2.94393 0
M  V30 4703 H 441.492 0.676957 0.475035 0
M  V30 4704 H 444.038 1.67589 0.26681 0
M  V30 4705 H 442.81 3.79815 0.941071 0
M  V30 4706 H 442.433 3.08943 2.5028 0
M  V30 4707 N 443.43 -0.535701 1.48216 0
M  V30 4708 C 444.393 -1.623 1.61838 0
M  V30 4709 C 445.393 -1.53087 0.492024 0
M  V30 4710 O 446.583 -1.5686 0.757668 0
M  V30 4711 C 443.715 -3.01907 1.58319 0
M  V30 4712 H 444.908 -1.51564 2.58783 0
M  V30 4713 H 442.461 -0.757317 1.36727 0
M  V30 4714 H 443.196 -3.18155 0.628299 0
M  V30 4715 H 442.981 -3.10003 2.40085 0
M  V30 4716 H 444.471 -3.80969 1.71033 0
M  V30 4717 N 444.908 -1.36708 -0.784132 0
M  V30 4718 C 445.838 -1.34153 -1.91116 0
M  V30 4719 C 446.819 -0.212121 -1.68772 0
M  V30 4720 O 448.004 -0.410581 -1.8981 0
M  V30 4721 C 445.134 -1.13535 -3.28218 0
M  V30 4722 C 444.088 -2.23356 -3.65097 0
M  V30 4723 C 443.414 -1.87875 -5.00607 0
M  V30 4724 C 444.714 -3.65473 -3.73131 0
M  V30 4725 H 446.408 -2.28459 -1.93512 0
M  V30 4726 H 443.954 -1.09973 -0.929618 0
M  V30 4727 H 445.907 -1.10381 -4.06687 0
M  V30 4728 H 444.631 -0.156804 -3.26223 0
M  V30 4729 H 443.29 -2.25645 -2.88929 0
M  V30 4730 H 442.938 -0.885814 -4.95139 0
M  V30 4731 H 442.638 -2.61406 -5.26252 0
M  V30 4732 H 444.162 -1.86286 -5.81489 0
M  V30 4733 H 445.576 -3.65382 -4.41779 0
M  V30 4734 H 443.973 -4.37953 -4.10265 0
M  V30 4735 H 445.043 -3.99995 -2.74102 0
M  V30 4736 N 446.386 1.0089 -1.21074 0
M  V30 4737 C 447.632 1.7497 -1.03717 0
M  V30 4738 C 447.987 1.8764 0.425344 0
M  V30 4739 O 447.28 1.39679 1.3115 0
M  V30 4740 C 447.474 3.16335 -1.66334 0
M  V30 4741 C 447.303 3.17449 -3.18522 0
M  V30 4742 C 446.073 3.2425 -3.87543 0
M  V30 4743 C 448.271 3.02877 -4.15656 0
M  V30 4744 N 446.253 3.14949 -5.26954 0
M  V30 4745 C 447.624 3.0143 -5.41793 0
M  V30 4746 C 449.679 2.8715 -4.06755 0
M  V30 4747 C 448.382 2.85869 -6.60054 0
M  V30 4748 C 450.408 2.72944 -5.24648 0
M  V30 4749 C 449.77 2.72171 -6.49694 0
M  V30 4750 H 445.869 0.650627 -0.43383 0
M  V30 4751 H 448.453 1.19944 -1.53367 0
M  V30 4752 H 446.624 3.69638 -1.19256 0
M  V30 4753 H 448.356 3.78888 -1.42219 0
M  V30 4754 H 445.111 3.31288 -3.38446 0
M  V30 4755 H 445.535 3.13651 -5.9996 0
M  V30 4756 H 450.177 2.86557 -3.10878 0
M  V30 4757 H 447.895 2.8521 -7.56096 0
M  V30 4758 H 451.481 2.61782 -5.19578 0
M  V30 4759 H 450.361 2.61307 -7.39384 0
M  V30 4760 N 447.864 1.01787 1.20321 0
M  V30 4761 C 449.11 0.718699 1.90279 0
M  V30 4762 C 449.465 -0.743669 1.77447 0
M  V30 4763 O 448.758 -1.53345 1.14874 0
M  V30 4764 C 448.952 1.09076 3.40349 0
M  V30 4765 C 448.781 2.58775 3.67784 0
M  V30 4766 C 447.551 3.25578 3.86428 0
M  V30 4767 C 449.749 3.56966 3.70243 0
M  V30 4768 N 447.731 4.64495 4.01395 0
M  V30 4769 C 449.102 4.8145 3.90649 0
M  V30 4770 C 451.157 3.5092 3.53213 0
M  V30 4771 C 449.86 6.00619 3.95789 0
M  V30 4772 C 451.886 4.69493 3.59625 0
M  V30 4773 C 451.248 5.92786 3.80505 0
M  V30 4774 H 447.347 0.31468 0.715891 0
M  V30 4775 H 449.931 1.30295 1.44677 0
M  V30 4776 H 448.102 0.534839 3.847 0
M  V30 4777 H 449.834 0.744997 3.97784 0
M  V30 4778 H 446.589 2.76003 3.84862 0
M  V30 4779 H 447.013 5.36624 4.12752 0
M  V30 4780 H 451.655 2.56593 3.36035 0
M  V30 4781 H 449.373 6.95326 4.11762 0
M  V30 4782 H 452.959 4.66432 3.47754 0
M  V30 4783 H 451.839 6.83003 3.85327 0
M  V30 4784 N 449.342 -1.36122 0.79427 0
M  V30 4785 C 450.59 -1.98718 0.368177 0
M  V30 4786 C 450.911 -1.63345 -1.06506 0
M  V30 4787 O 450.181 -0.909825 -1.73491 0
M  V30 4788 H 448.761 -0.735038 0.133146 0
M  V30 4789 H 451.423 -1.66239 1.01739 0
M  V30 4790 H 450.519 -3.08633 0.463923 0
M  V30 4791 N 450.82 -0.546701 -1.47814 0
M  V30 4792 C 452.048 -0.0232857 -2.06887 0
M  V30 4793 C 452.463 1.26571 -1.4009 0
M  V30 4794 O 451.82 1.7569 -0.493906 0
M  V30 4795 C 451.871 0.186975 -3.61016 0
M  V30 4796 O 451.592 -1.05097 -4.25307 0
M  V30 4797 C 453.093 0.748872 -4.36929 0
M  V30 4798 H 450.313 -0.0410763 -0.669742 0
M  V30 4799 H 452.857 -0.757117 -1.89968 0
M  V30 4800 H 451.012 0.870903 -3.77484 0
M  V30 4801 H 451.426 -0.842121 -5.17695 0
M  V30 4802 H 452.9 0.845334 -5.45489 0
M  V30 4803 H 453.377 1.75772 -4.02493 0
M  V30 4804 H 453.983 0.100979 -4.2518 0
M  V30 4805 N 452.299 1.55045 -0.282633 0
M  V30 4806 C 453.548 1.98938 0.332667 0
M  V30 4807 C 453.861 1.17455 1.56409 0
M  V30 4808 O 455.067 1.51527 2.25282 0
M  V30 4809 C 453.523 3.54105 0.643226 0
M  V30 4810 C 453.131 4.44374 -0.568814 0
M  V30 4811 C 454.875 4.06569 1.22074 0
M  V30 4812 C 452.782 5.90943 -0.232426 0
M  V30 4813 H 451.712 0.743043 0.128075 0
M  V30 4814 H 454.363 1.79341 -0.388464 0
M  V30 4815 H 452.745 3.69532 1.42346 0
M  V30 4816 H 453.919 4.40718 -1.34551 0
M  V30 4817 H 452.234 4.02585 -1.06369 0
M  V30 4818 H 454.831 5.13626 1.48635 0
M  V30 4819 H 455.174 3.56057 2.15707 0
M  V30 4820 H 455.707 3.94612 0.502621 0
M  V30 4821 H 452.446 6.45567 -1.13683 0
M  V30 4822 H 451.966 5.9765 0.507357 0
M  V30 4823 H 453.645 6.4677 0.172657 0
M  V30 4824 N 453.777 0.010035 1.57597 0
M  V30 4825 C 455.005 -0.683413 1.95287 0
M  V30 4826 C 455.42 -1.66747 0.885481 0
M  V30 4827 O 454.777 -1.82003 -0.134629 0
M  V30 4828 C 454.828 -1.40652 3.33015 0
M  V30 4829 O 454.549 -0.461916 4.35658 0
M  V30 4830 C 456.05 -2.19356 3.85225 0
M  V30 4831 H 453.27 -0.189708 0.643624 0
M  V30 4832 H 455.814 0.0641359 2.04399 0
M  V30 4833 H 453.969 -2.10562 3.2518 0
M  V30 4834 H 454.383 -0.973215 5.15392 0
M  V30 4835 H 455.857 -2.65433 4.83993 0
M  V30 4836 H 456.334 -3.02457 3.18459 0
M  V30 4837 H 456.94 -1.54442 3.96267 0
M  V30 4838 N 455.255 -1.55392 -0.262866 0
M  V30 4839 C 456.185 -1.91978 -1.32917 0
M  V30 4840 C 457.166 -0.7828 -1.51017 0
M  V30 4841 O 458.351 -1.04178 -1.63892 0
M  V30 4842 C 455.481 -2.20055 -2.68687 0
M  V30 4843 C 454.435 -3.35854 -2.65304 0
M  V30 4844 C 453.761 -3.49435 -4.04721 0
M  V30 4845 C 455.061 -4.71977 -2.23685 0
M  V30 4846 H 456.755 -2.81292 -1.02544 0
M  V30 4847 H 454.301 -1.3534 -0.491846 0
M  V30 4848 H 456.254 -2.44237 -3.43404 0
M  V30 4849 H 454.978 -1.27551 -3.00663 0
M  V30 4850 H 453.637 -3.11655 -1.93045 0
M  V30 4851 H 453.285 -2.54379 -4.33936 0
M  V30 4852 H 452.985 -4.27297 -4.0335 0
M  V30 4853 H 454.509 -3.7592 -4.81161 0
M  V30 4854 H 455.923 -4.95637 -2.88127 0
M  V30 4855 H 454.32 -5.52828 -2.33456 0
M  V30 4856 H 455.39 -4.70115 -1.18827 0
M  V30 4857 N 456.733 0.527833 -1.48498 0
M  V30 4858 C 457.961 1.30823 -1.6029 0
M  V30 4859 C 458.376 1.86945 -0.263974 0
M  V30 4860 O 457.733 1.6651 0.747034 0
M  V30 4861 C 457.784 2.45756 -2.65116 0
M  V30 4862 O 457.505 1.91946 -3.93813 0
M  V30 4863 C 459.006 3.37543 -2.87367 0
M  V30 4864 H 456.226 0.397763 -0.540394 0
M  V30 4865 H 458.77 0.636529 -1.94341 0
M  V30 4866 H 456.925 3.08806 -2.33917 0
M  V30 4867 H 457.339 2.67195 -4.51339 0
M  V30 4868 H 458.813 4.14532 -3.6451 0
M  V30 4869 H 459.29 3.92905 -1.9627 0
M  V30 4870 H 459.896 2.80283 -3.19878 0
M  V30 4871 N 458.211 1.37122 0.776871 0
M  V30 4872 C 459.439 1.3523 1.5659 0
M  V30 4873 C 459.854 -0.0635518 1.88693 0
M  V30 4874 O 459.211 -1.02394 1.51069 0
M  V30 4875 C 459.262 2.18583 2.8793 0
M  V30 4876 O 458.983 3.5465 2.57206 0
M  V30 4877 C 460.484 2.24612 3.82183 0
M  V30 4878 H 457.704 0.4634 0.485285 0
M  V30 4879 H 460.248 1.80392 0.963266 0
M  V30 4880 H 458.403 1.76943 3.4463 0
M  V30 4881 H 458.817 3.98286 3.41275 0
M  V30 4882 H 460.291 2.87267 4.71361 0
M  V30 4883 H 460.768 1.25309 4.20944 0
M  V30 4884 H 461.374 2.66543 3.31414 0
M  V30 4885 N 459.689 -1.00246 1.21608 0
M  V30 4886 C 460.938 -1.73476 1.02902 0
M  V30 4887 C 461.251 -1.90643 -0.437561 0
M  V30 4888 O 462.457 -2.61105 -0.74407 0
M  V30 4889 C 460.913 -3.12079 1.79261 0
M  V30 4890 C 460.521 -3.02877 3.30106 0
M  V30 4891 C 462.265 -3.89421 1.68972 0
M  V30 4892 C 460.172 -4.36575 3.98944 0
M  V30 4893 H 459.102 -0.650408 0.381425 0
M  V30 4894 H 461.753 -1.11985 1.45367 0
M  V30 4895 H 460.135 -3.74196 1.2959 0
M  V30 4896 H 461.309 -2.49983 3.87098 0
M  V30 4897 H 459.624 -2.39022 3.40965 0
M  V30 4898 H 462.221 -4.88362 2.17731 0
M  V30 4899 H 462.564 -4.1122 0.648397 0
M  V30 4900 H 463.097 -3.33963 2.16133 0
M  V30 4901 H 459.836 -4.19978 5.03288 0
M  V30 4902 H 459.356 -4.8942 3.4674 0
M  V30 4903 H 461.035 -5.05364 4.04 0
M  V30 4904 N 461.167 -1.02423 -1.1978 0
M  V30 4905 C 462.415 -0.716569 -1.8897 0
M  V30 4906 C 462.736 0.756769 -1.79716 0
M  V30 4907 O 462.006 1.5449 -1.20456 0
M  V30 4908 H 460.586 -0.262062 -0.699523 0
M  V30 4909 H 463.248 -1.29747 -1.45436 0
M  V30 4910 H 462.344 -1.00675 -2.95417 0
M  V30 4911 N 462.645 1.35699 -0.801477 0
M  V30 4912 C 463.875 2.02862 -0.3912 0
M  V30 4913 C 464.283 1.60552 1.00099 0
M  V30 4914 O 463.626 0.796215 1.65548 0
M  V30 4915 C 463.688 3.57386 -0.389299 0
M  V30 4916 C 463.352 4.22943 -1.73113 0
M  V30 4917 C 464.349 4.44984 -2.68859 0
M  V30 4918 C 462.034 4.60167 -2.01373 0
M  V30 4919 C 464.028 5.03345 -3.91053 0
M  V30 4920 C 461.715 5.18243 -3.23832 0
M  V30 4921 C 462.713 5.39773 -4.1849 0
M  V30 4922 O 462.401 5.96626 -5.38788 0
M  V30 4923 H 462.133 0.657341 -0.157732 0
M  V30 4924 H 464.687 1.74407 -1.08496 0
M  V30 4925 H 462.917 3.85011 0.361031 0
M  V30 4926 H 464.606 4.059 -0.0020365 0
M  V30 4927 H 465.372 4.1661 -2.48316 0
M  V30 4928 H 461.251 4.42726 -1.28508 0
M  V30 4929 H 464.795 5.20065 -4.64949 0
M  V30 4930 H 460.692 5.46044 -3.44248 0
M  V30 4931 H 461.46 6.15082 -5.40015 0
M  V30 4932 N 464.123 0.554532 1.47522 0
M  V30 4933 C 465.371 0.0294208 2.02079 0
M  V30 4934 C 465.692 -1.32411 1.43151 0
M  V30 4935 O 464.962 -1.863 0.605728 0
M  V30 4936 H 463.542 0.00788672 0.746958 0
M  V30 4937 H 466.204 0.723934 1.80956 0
M  V30 4938 H 465.3 -0.0606745 3.12041 0
M  V30 4939 N 465.601 -1.54893 0.290851 0
M  V30 4940 C 466.878 -1.91991 -0.373989 0
M  V30 4941 C 467.258 -1.21694 -1.72493 0
M  V30 4942 O 466.606 -0.34917 -2.25816 0
M  V30 4943 C 466.816 -3.45419 -0.498703 0
M  V30 4944 C 468.164 -4.1748 -0.774298 0
M  V30 4945 O 469.188 -3.51398 -0.582908 0
M  V30 4946 O 468.047 -5.3445 -1.14129 0
M  V30 4947 H 465.141 -0.800593 -0.207315 0
M  V30 4948 H 467.687 -1.66297 0.338164 0
M  V30 4949 H 466.459 -3.88688 0.451392 0
M  V30 4950 H 466.082 -3.77117 -1.25972 0
M  V30 4951 N 467.08 -0.0183926 -1.57589 0
M  V30 4952 C 468.027 0.967022 -2.09565 0
M  V30 4953 C 468.997 1.32983 -0.995225 0
M  V30 4954 O 470.182 1.42501 -1.26878 0
M  V30 4955 C 467.322 2.24772 -2.61861 0
M  V30 4956 C 466.435 1.94232 -3.85873 0
M  V30 4957 C 465.57 3.16518 -4.26603 0
M  V30 4958 C 464.609 2.81748 -5.43401 0
M  V30 4959 N 463.746 3.96626 -5.79338 0
M  V30 4960 H 468.586 0.516874 -2.93483 0
M  V30 4961 H 466.123 0.243544 -1.4507 0
M  V30 4962 H 468.081 2.99667 -2.90268 0
M  V30 4963 H 466.711 2.67423 -1.8079 0
M  V30 4964 H 465.763 1.09625 -3.64262 0
M  V30 4965 H 467.075 1.64616 -4.70853 0
M  V30 4966 H 466.229 3.99743 -4.56389 0
M  V30 4967 H 464.968 3.49286 -3.40368 0
M  V30 4968 H 463.973 1.96933 -5.1332 0
M  V30 4969 H 465.198 2.50207 -6.31327 0
M  V30 4970 H 463.144 4.29257 -4.96059 0
M  V30 4971 H 463.061 3.70598 -6.58933 0
M  V30 4972 H 464.329 4.80586 -6.13724 0
M  V30 4973 N 468.558 1.5553 0.254621 0
M  V30 4974 C 469.786 1.81046 1.00149 0
M  V30 4975 C 470.201 0.593047 1.79244 0
M  V30 4976 O 469.558 -0.438196 1.77161 0
M  V30 4977 C 469.609 3.04684 1.94551 0
M  V30 4978 O 469.33 4.21725 1.18658 0
M  V30 4979 C 470.831 3.42943 2.80901 0
M  V30 4980 H 468.051 0.602653 0.295044 0
M  V30 4981 H 470.595 2.02576 0.279842 0
M  V30 4982 H 468.75 2.85226 2.62154 0
M  V30 4983 H 469.164 4.91746 1.82445 0
M  V30 4984 H 470.638 4.32576 3.42902 0
M  V30 4985 H 471.115 2.63176 3.51617 0
M  V30 4986 H 471.721 3.64724 2.18762 0
M  V30 4987 N 470.036 -0.519951 1.48776 0
M  V30 4988 C 471.447 -1.10177 1.50725 0
M  V30 4989 C 471.798 -1.94153 0.282678 0
M  V30 4990 O 470.923 -2.07645 -0.609298 0
M  V30 4991 C 471.518 -2.00482 2.73116 0
M  V30 4992 C 470.077 -2.53862 2.77905 0
M  V30 4993 C 469.224 -1.31047 2.44381 0
M  V30 4994 H 472.175 -0.30473 1.55747 0
M  V30 4995 H 472.196 -2.8491 2.52203 0
M  V30 4996 H 471.708 -1.39335 3.62225 0
M  V30 4997 H 469.809 -3.18702 1.93029 0
M  V30 4998 H 469.922 -2.9231 3.79594 0
M  V30 4999 H 468.286 -1.62953 1.95751 0
M  V30 5000 H 469.069 -0.71637 3.35743 0
M  V30 5001 N 471.514 -1.37532 -0.769588 0
M  V30 5002 C 472.444 -1.36172 -1.89682 0
M  V30 5003 C 473.425 -0.23001 -1.68538 0
M  V30 5004 O 474.61 -0.43069 -1.89364 0
M  V30 5005 C 471.74 -1.1701 -3.26995 0
M  V30 5006 C 470.694 -2.27216 -3.62708 0
M  V30 5007 C 470.02 -1.93174 -4.98586 0
M  V30 5008 C 471.32 -3.6941 -3.69234 0
M  V30 5009 H 473.014 -2.30499 -1.91078 0
M  V30 5010 H 470.56 -1.10953 -0.917902 0
M  V30 5011 H 472.513 -1.14688 -4.05493 0
M  V30 5012 H 471.237 -0.191395 -3.26039 0
M  V30 5013 H 469.896 -2.28697 -2.86519 0
M  V30 5014 H 469.544 -0.938281 -4.94171 0
M  V30 5015 H 469.244 -2.66973 -5.23449 0
M  V30 5016 H 470.768 -1.92443 -5.79481 0
M  V30 5017 H 472.182 -3.70047 -4.37879 0
M  V30 5018 H 470.579 -4.4228 -4.05597 0
M  V30 5019 H 471.649 -4.0288 -2.69844 0
M  V30 5020 N 472.992 0.995999 -1.22138 0
M  V30 5021 C 474.22 1.77066 -1.07029 0
M  V30 5022 C 474.635 1.8495 0.379357 0
M  V30 5023 O 473.992 1.3174 1.26297 0
M  V30 5024 C 474.043 3.20533 -1.67155 0
M  V30 5025 O 473.764 3.13082 -3.06449 0
M  V30 5026 C 475.265 4.14461 -1.5728 0
M  V30 5027 H 472.485 0.556179 -0.375374 0
M  V30 5028 H 475.029 1.25238 -1.61666 0
M  V30 5029 H 473.184 3.6944 -1.16589 0
M  V30 5030 H 473.598 4.03283 -3.35355 0
M  V30 5031 H 475.072 5.1289 -2.04078 0
M  V30 5032 H 475.549 4.36005 -0.528795 0
M  V30 5033 H 476.155 3.71449 -2.07136 0
M  V30 5034 N 474.47 1.03057 1.19235 0
M  V30 5035 C 475.716 0.738841 1.89506 0
M  V30 5036 C 476.071 -0.724807 1.78225 0
M  V30 5037 O 475.364 -1.52118 1.16494 0
M  V30 5038 C 475.558 1.1268 3.39172 0
M  V30 5039 C 475.387 2.62662 3.65019 0
M  V30 5040 C 474.157 3.29658 3.82954 0
M  V30 5041 C 476.355 3.60873 3.66436 0
M  V30 5042 N 474.337 4.68726 3.96446 0
M  V30 5043 C 475.708 4.85566 3.8552 0
M  V30 5044 C 477.763 3.54647 3.49471 0
M  V30 5045 C 476.466 6.04783 3.89397 0
M  V30 5046 C 478.492 4.73281 3.54625 0
M  V30 5047 C 477.854 5.96789 3.74196 0
M  V30 5048 H 473.953 0.322256 0.712513 0
M  V30 5049 H 476.537 1.31822 1.43287 0
M  V30 5050 H 474.708 0.575612 3.84111 0
M  V30 5051 H 476.44 0.787145 3.96971 0
M  V30 5052 H 473.195 2.8007 3.81913 0
M  V30 5053 H 473.619 5.40971 4.07037 0
M  V30 5054 H 478.261 2.60143 3.33295 0
M  V30 5055 H 475.979 6.99654 4.04364 0
M  V30 5056 H 479.565 4.70094 3.42787 0
M  V30 5057 H 478.445 6.87051 3.78061 0
M  V30 5058 N 475.948 -1.35272 0.808662 0
M  V30 5059 C 476.878 -2.32315 0.234981 0
M  V30 5060 C 477.859 -1.57572 -0.64071 0
M  V30 5061 O 479.044 -1.8563 -0.570551 0
M  V30 5062 C 476.174 -3.41801 -0.615601 0
M  V30 5063 C 475.128 -4.27694 0.161767 0
M  V30 5064 C 474.454 -5.28519 -0.810649 0
M  V30 5065 C 475.754 -5.04231 1.36193 0
M  V30 5066 H 477.448 -2.80543 1.04575 0
M  V30 5067 H 474.994 -1.3488 0.504315 0
M  V30 5068 H 476.947 -4.08693 -1.02702 0
M  V30 5069 H 475.671 -2.92186 -1.45928 0
M  V30 5070 H 474.33 -3.62384 0.554382 0
M  V30 5071 H 473.978 -4.75171 -1.64988 0
M  V30 5072 H 473.678 -5.8686 -0.294822 0
M  V30 5073 H 475.202 -5.98283 -1.22023 0
M  V30 5074 H 476.616 -5.64058 1.02528 0
M  V30 5075 H 475.013 -5.72077 1.81239 0
M  V30 5076 H 476.083 -4.34753 2.14751 0
M  V30 5077 N 477.426 -0.562348 -1.47226 0
M  V30 5078 C 478.674 -0.0401371 -2.0206 0
M  V30 5079 C 478.995 1.3165 -1.43852 0
M  V30 5080 O 478.265 1.85976 -0.615599 0
M  V30 5081 H 476.845 -0.0118479 -0.746906 0
M  V30 5082 H 479.507 -0.73352 -1.8057 0
M  V30 5083 H 478.603 0.0441254 -3.12069 0
M  V30 5084 N 478.904 1.54736 -0.299062 0
M  V30 5085 C 480.32 1.59507 0.0543849 0
M  V30 5086 C 480.52 1.31606 1.52585 0
M  V30 5087 O 479.576 1.08853 2.27832 0
M  V30 5088 C 480.889 2.98751 -0.34181 0
M  V30 5089 C 482.437 3.1165 -0.290414 0
M  V30 5090 C 482.912 4.53199 -0.661402 0
M  V30 5091 N 484.403 4.59114 -0.613863 0
M  V30 5092 C 485.138 5.66709 -0.873417 0
M  V30 5093 N 484.634 6.82349 -1.19884 0
M  V30 5094 N 486.427 5.56369 -0.800608 0
M  V30 5095 H 478.578 1.71133 -1.25806 0
M  V30 5096 H 480.841 0.799186 -0.509908 0
M  V30 5097 H 480.547 3.24085 -1.36608 0
M  V30 5098 H 480.421 3.75961 0.305508 0
M  V30 5099 H 482.808 2.86066 0.724605 0
M  V30 5100 H 482.889 2.366 -0.972327 0
M  V30 5101 H 482.533 4.79513 -1.67422 0
M  V30 5102 H 482.463 5.26583 0.0425612 0
M  V30 5103 H 484.954 3.76053 -0.3732 0
M  V30 5104 H 485.267 7.60326 -1.38291 0
M  V30 5105 H 483.612 6.83906 -1.23685 0
M  V30 5106 H 486.803 4.64904 -0.546045 0
M  V30 5107 H 486.976 6.40139 -1.00626 0
M  V30 5108 N 480.382 0.0267497 1.57577 0
M  V30 5109 C 481.312 -0.954308 2.13108 0
M  V30 5110 C 482.293 -1.34088 1.04663 0
M  V30 5111 O 483.478 -1.41992 1.32484 0
M  V30 5112 C 480.608 -2.23744 2.65624 0
M  V30 5113 C 479.562 -1.99168 3.78835 0
M  V30 5114 C 478.888 -3.33726 4.17769 0
M  V30 5115 C 480.188 -1.33277 5.0501 0
M  V30 5116 H 481.882 -0.491848 2.95332 0
M  V30 5117 H 479.428 -0.23514 1.42067 0
M  V30 5118 H 481.381 -2.92754 3.03106 0
M  V30 5119 H 480.105 -2.72151 1.80558 0
M  V30 5120 H 478.764 -1.32577 3.41788 0
M  V30 5121 H 478.412 -3.79888 3.29688 0
M  V30 5122 H 478.112 -3.18089 4.94058 0
M  V30 5123 H 479.636 -4.04008 4.57832 0
M  V30 5124 H 481.05 -1.92283 5.40093 0
M  V30 5125 H 479.447 -1.28045 5.8628 0
M  V30 5126 H 480.517 -0.305411 4.83937 0
M  V30 5127 N 481.861 -1.55662 -0.24637 0
M  V30 5128 C 482.791 -1.93377 -1.30873 0
M  V30 5129 C 483.772 -0.798773 -1.50179 0
M  V30 5130 O 484.957 -1.0591 -1.62778 0
M  V30 5131 C 482.087 -2.22893 -2.66338 0
M  V30 5132 C 481.041 -3.38649 -2.61727 0
M  V30 5133 C 480.367 -3.53708 -4.00992 0
M  V30 5134 C 481.667 -4.74323 -2.18666 0
M  V30 5135 H 483.361 -2.82363 -0.995552 0
M  V30 5136 H 480.907 -1.35854 -0.477464 0
M  V30 5137 H 482.86 -2.47866 -3.40794 0
M  V30 5138 H 481.584 -1.30733 -2.99293 0
M  V30 5139 H 480.243 -3.13685 -1.89729 0
M  V30 5140 H 479.891 -2.58967 -4.31214 0
M  V30 5141 H 479.591 -4.31551 -3.98795 0
M  V30 5142 H 481.115 -3.81003 -4.77147 0
M  V30 5143 H 482.529 -4.98665 -2.82854 0
M  V30 5144 H 480.926 -5.55273 -2.27579 0
M  V30 5145 H 481.996 -4.71349 -1.13834 0
M  V30 5146 N 483.339 0.512053 -1.4905 0
M  V30 5147 C 484.564 1.2959 -1.6193 0
M  V30 5148 C 484.989 1.85906 -0.286454 0
M  V30 5149 O 484.347 1.65312 0.744426 0
M  V30 5150 C 484.395 2.40987 -2.68249 0
M  V30 5151 O 483.499 3.44531 -2.26654 0
M  V30 5152 H 482.84 0.383053 -0.542371 0
M  V30 5153 H 485.37 0.614231 -1.95162 0
M  V30 5154 H 485.38 2.86913 -2.90078 0
M  V30 5155 H 484.055 1.99361 -3.65004 0
M  V30 5156 H 482.632 3.046 -2.15112 0
M  V30 5157 N 484.817 1.37938 0.762283 0
M  V30 5158 C 485.78 1.34279 1.85747 0
M  V30 5159 C 486.78 0.244969 1.58923 0
M  V30 5160 O 487.97 0.501365 1.66829 0
M  V30 5161 C 485.102 1.08833 3.23061 0
M  V30 5162 H 486.295 2.31705 1.90401 0
M  V30 5163 H 483.848 1.23105 0.963057 0
M  V30 5164 H 484.583 0.119767 3.24079 0
M  V30 5165 H 484.368 1.88306 3.43923 0
M  V30 5166 H 485.858 1.08946 4.03138 0
M  V30 5167 N 486.295 -0.989507 1.22664 0
M  V30 5168 C 487.543 -1.72612 1.05117 0
M  V30 5169 C 487.864 -1.90552 -0.414131 0
M  V30 5170 O 487.134 -1.4676 -1.29762 0
M  V30 5171 H 485.714 -0.639555 0.385977 0
M  V30 5172 H 488.376 -1.19158 1.54232 0
M  V30 5173 H 487.472 -2.71926 1.53175 0
M  V30 5174 N 487.773 -1.03688 -1.18687 0
M  V30 5175 C 489.02 -0.73803 -1.88572 0
M  V30 5176 C 489.348 0.733973 -1.8012 0
M  V30 5177 O 488.603 1.55098 -1.19344 0
M  V30 5178 C 488.902 -1.14477 -3.3857 0
M  V30 5179 C 488.568 -2.61641 -3.67226 0
M  V30 5180 C 487.23 -3.01846 -3.74757 0
M  V30 5181 C 489.582 -3.56812 -3.79914 0
M  V30 5182 C 486.91 -4.36118 -3.92451 0
M  V30 5183 C 489.262 -4.90799 -3.99123 0
M  V30 5184 C 487.926 -5.3068 -4.04888 0
M  V30 5185 H 487.196 -0.270064 -0.690034 0
M  V30 5186 H 489.843 -1.3012 -1.40503 0
M  V30 5187 H 488.148 -0.500337 -3.88592 0
M  V30 5188 H 489.845 -0.89095 -3.90977 0
M  V30 5189 H 486.435 -2.29498 -3.61979 0
M  V30 5190 H 490.619 -3.26899 -3.73431 0
M  V30 5191 H 485.875 -4.66542 -3.95157 0
M  V30 5192 H 490.049 -5.64451 -4.07882 0
M  V30 5193 H 487.676 -6.34733 -4.18351 0
M  V30 5194 N 489.251 1.34841 -0.815825 0
M  V30 5195 C 490.214 2.27959 -0.238185 0
M  V30 5196 C 491.214 1.49983 0.579816 0
M  V30 5197 O 492.404 1.69617 0.396953 0
M  V30 5198 C 489.536 3.34314 0.666876 0
M  V30 5199 H 490.729 2.80558 -1.05958 0
M  V30 5200 H 488.282 1.44852 -0.587156 0
M  V30 5201 H 489.017 2.86916 1.5116 0
M  V30 5202 H 488.802 3.92014 0.0819106 0
M  V30 5203 H 490.292 4.0379 1.06506 0
M  V30 5204 N 490.729 0.570148 1.46925 0
M  V30 5205 C 491.659 -0.158274 2.32963 0
M  V30 5206 C 492.64 -0.896093 1.44583 0
M  V30 5207 O 493.825 -0.874022 1.7342 0
M  V30 5208 C 490.955 -1.18055 3.26619 0
M  V30 5209 C 489.909 -0.558379 4.24342 0
M  V30 5210 C 489.235 -1.68623 5.07415 0
M  V30 5211 C 490.535 0.496295 5.19937 0
M  V30 5212 H 492.229 0.560046 2.94115 0
M  V30 5213 H 489.775 0.270775 1.41431 0
M  V30 5214 H 491.728 -1.69841 3.85658 0
M  V30 5215 H 490.452 -1.92899 2.63548 0
M  V30 5216 H 489.111 -0.0617157 3.66548 0
M  V30 5217 H 488.759 -2.42402 4.40738 0
M  V30 5218 H 488.459 -1.27564 5.73586 0
M  V30 5219 H 489.983 -2.20709 5.69315 0
M  V30 5220 H 491.397 0.0640052 5.73264 0
M  V30 5221 H 489.794 0.82649 5.94381 0
M  V30 5222 H 490.864 1.38735 4.6463 0
M  V30 5223 N 492.207 -1.54576 0.307264 0
M  V30 5224 C 493.137 -2.26708 -0.55907 0
M  V30 5225 C 494.118 -1.26893 -1.1328 0
M  V30 5226 O 495.303 -1.55677 -1.16097 0
M  V30 5227 C 492.433 -3.01259 -1.72801 0
M  V30 5228 C 491.387 -4.08275 -1.28435 0
M  V30 5229 C 490.713 -4.70575 -2.53895 0
M  V30 5230 C 492.013 -5.2068 -0.411038 0
M  V30 5231 H 493.707 -2.9937 0.042576 0
M  V30 5232 H 491.253 -1.43983 0.0219173 0
M  V30 5233 H 493.206 -3.50444 -2.34023 0
M  V30 5234 H 491.93 -2.26187 -2.356 0
M  V30 5235 H 490.589 -3.59949 -0.695161 0
M  V30 5236 H 490.237 -3.92136 -3.15021 0
M  V30 5237 H 489.937 -5.42854 -2.24908 0
M  V30 5238 H 491.461 -5.22527 -3.15908 0
M  V30 5239 H 492.875 -5.65721 -0.929097 0
M  V30 5240 H 491.272 -5.99716 -0.214664 0
M  V30 5241 H 492.342 -4.81629 0.562287 0
M  V30 5242 N 493.685 -0.035106 -1.57561 0
M  V30 5243 C 494.933 0.64096 -1.91667 0
M  V30 5244 C 495.254 1.72323 -0.912681 0
M  V30 5245 O 494.524 1.95849 0.0449089 0
M  V30 5246 H 493.104 0.239743 -0.707483 0
M  V30 5247 H 495.766 -0.084321 -1.94718 0
M  V30 5248 H 494.862 1.08987 -2.92452 0
M  V30 5249 N 495.163 1.55791 0.238111 0
M  V30 5250 C 496.412 1.77234 0.962868 0
M  V30 5251 C 496.725 0.600661 1.86149 0
M  V30 5252 O 497.931 0.698315 2.62366 0
M  V30 5253 C 496.387 3.13808 1.76218 0
M  V30 5254 C 495.995 4.3865 0.910518 0
M  V30 5255 C 497.739 3.44585 2.47914 0
M  V30 5256 C 495.646 5.66252 1.70623 0
M  V30 5257 H 494.576 0.660731 0.36325 0
M  V30 5258 H 497.227 1.8221 0.217242 0
M  V30 5259 H 495.609 3.02963 2.55009 0
M  V30 5260 H 496.783 4.60507 0.164316 0
M  V30 5261 H 495.098 4.15271 0.30647 0
M  V30 5262 H 497.695 4.3714 3.07917 0
M  V30 5263 H 498.038 2.66314 3.19973 0
M  V30 5264 H 498.571 3.56685 1.76127 0
M  V30 5265 H 495.31 6.47369 1.02923 0
M  V30 5266 H 494.83 5.48483 2.42748 0
M  V30 5267 H 496.509 6.05829 2.27114 0
M  V30 5268 N 496.642 -0.504142 1.49319 0
M  V30 5269 C 497.867 -1.28729 1.62615 0
M  V30 5270 C 498.292 -1.85752 0.296309 0
M  V30 5271 O 497.65 -1.65704 -0.735649 0
M  V30 5272 C 497.698 -2.39561 2.69524 0
M  V30 5273 O 496.802 -3.43324 2.28478 0
M  V30 5274 H 496.143 -0.380172 0.544395 0
M  V30 5275 H 498.673 -0.603872 1.95485 0
M  V30 5276 H 498.683 -2.8537 2.91595 0
M  V30 5277 H 497.358 -1.97423 3.66056 0
M  V30 5278 H 495.935 -3.03455 2.16725 0
M  V30 5279 N 498.12 -1.38341 -0.754957 0
M  V30 5280 C 499.367 -1.34473 -1.51404 0
M  V30 5281 C 499.695 0.0656458 -1.94389 0
M  V30 5282 O 498.95 1.04244 -1.65625 0
M  V30 5283 C 499.249 -2.2452 -2.78075 0
M  V30 5284 C 498.915 -3.72512 -2.54059 0
M  V30 5285 C 497.577 -4.1284 -2.47218 0
M  V30 5286 C 499.929 -4.66197 -2.33044 0
M  V30 5287 C 497.257 -5.44945 -2.17376 0
M  V30 5288 C 499.609 -5.98558 -2.04723 0
M  V30 5289 C 498.273 -6.37972 -1.96337 0
M  V30 5290 H 497.543 -0.492072 -0.554027 0
M  V30 5291 H 500.19 -1.70687 -0.868223 0
M  V30 5292 H 498.495 -1.81357 -3.473 0
M  V30 5293 H 500.192 -2.18832 -3.36026 0
M  V30 5294 H 496.782 -3.40538 -2.60253 0
M  V30 5295 H 500.966 -4.35888 -2.37309 0
M  V30 5296 H 496.222 -5.74426 -2.09391 0
M  V30 5297 H 500.396 -6.70693 -1.87465 0
M  V30 5298 H 498.023 -7.40258 -1.72978 0
M  V30 5299 N 499.598 0.982988 -1.23187 0
M  V30 5300 C 500.845 1.72392 -1.06241 0
M  V30 5301 C 501.173 1.9032 0.40108 0
M  V30 5302 O 500.428 1.45084 1.31336 0
M  V30 5303 C 500.727 3.12736 -1.73006 0
M  V30 5304 C 500.393 3.14695 -3.22921 0
M  V30 5305 C 499.055 3.14937 -3.63824 0
M  V30 5306 C 501.407 3.10211 -4.1883 0
M  V30 5307 C 498.735 3.08408 -4.99101 0
M  V30 5308 C 501.087 3.05224 -5.54095 0
M  V30 5309 C 499.751 3.03787 -5.94365 0
M  V30 5310 H 499.021 0.630829 -0.388762 0
M  V30 5311 H 501.668 1.15053 -1.53085 0
M  V30 5312 H 499.973 3.73446 -1.18514 0
M  V30 5313 H 501.67 3.68828 -1.57374 0
M  V30 5314 H 498.26 3.15262 -2.90358 0
M  V30 5315 H 502.444 3.09166 -3.8824 0
M  V30 5316 H 497.7 3.05646 -5.29519 0
M  V30 5317 H 501.874 3.00712 -6.28128 0
M  V30 5318 H 499.501 2.98483 -6.99151 0
M  V30 5319 N 501.076 1.04316 1.18135 0
M  V30 5320 C 502.039 0.640794 2.2006 0
M  V30 5321 C 503.039 -0.303124 1.57917 0
M  V30 5322 O 504.229 -0.0881855 1.73977 0
M  V30 5323 C 501.361 -0.060148 3.40847 0
M  V30 5324 H 502.554 1.54281 2.57172 0
M  V30 5325 H 500.107 0.836004 1.32063 0
M  V30 5326 H 500.842 -0.975845 3.0927 0
M  V30 5327 H 500.627 0.618319 3.87194 0
M  V30 5328 H 502.117 -0.328082 4.16309 0
M  V30 5329 N 502.554 -1.34406 0.822964 0
M  V30 5330 C 503.484 -2.32052 0.259608 0
M  V30 5331 C 504.465 -1.58243 -0.623961 0
M  V30 5332 O 505.65 -1.86224 -0.55083 0
M  V30 5333 C 502.78 -3.42434 -0.579314 0
M  V30 5334 C 501.734 -4.27499 0.20712 0
M  V30 5335 C 501.06 -5.29349 -0.754547 0
M  V30 5336 C 502.36 -5.02758 1.41533 0
M  V30 5337 H 504.054 -2.79418 1.07545 0
M  V30 5338 H 501.6 -1.34338 0.518593 0
M  V30 5339 H 503.553 -4.0976 -0.983612 0
M  V30 5340 H 502.277 -2.93717 -1.4282 0
M  V30 5341 H 500.936 -3.61776 0.592787 0
M  V30 5342 H 500.584 -4.76895 -1.59939 0
M  V30 5343 H 500.284 -5.8714 -0.232561 0
M  V30 5344 H 501.808 -5.99544 -1.1567 0
M  V30 5345 H 503.222 -5.62938 1.08504 0
M  V30 5346 H 501.619 -5.70123 1.87296 0
M  V30 5347 H 502.689 -4.32451 2.1935 0
M  V30 5348 N 504.032 -0.577932 -1.46621 0
M  V30 5349 C 505.443 -0.150071 -1.86096 0
M  V30 5350 C 505.794 1.28563 -1.48209 0
M  V30 5351 O 504.919 1.97036 -0.894754 0
M  V30 5352 C 505.514 -0.265576 -3.37758 0
M  V30 5353 C 504.073 0.10738 -3.76247 0
M  V30 5354 C 503.22 -0.603711 -2.70649 0
M  V30 5355 H 506.171 -0.786438 -1.37844 0
M  V30 5356 H 506.192 0.510352 -3.77062 0
M  V30 5357 H 505.704 -1.3106 -3.65301 0
M  V30 5358 H 503.805 1.15272 -3.54321 0
M  V30 5359 H 503.918 -0.26561 -4.78363 0
M  V30 5360 H 502.282 -0.0444884 -2.54661 0
M  V30 5361 H 503.065 -1.65029 -3.01032 0
M  V30 5362 N 505.51 1.54411 -0.315457 0
M  V30 5363 C 506.473 2.22713 0.54142 0
M  V30 5364 C 507.473 1.2179 1.04995 0
M  V30 5365 O 508.663 1.46426 0.943667 0
M  V30 5366 C 505.795 2.92485 1.75116 0
M  V30 5367 H 506.988 2.99849 -0.0555508 0
M  V30 5368 H 504.541 1.56159 -0.0664453 0
M  V30 5369 H 505.276 2.19466 2.38758 0
M  V30 5370 H 505.061 3.66483 1.39401 0
M  V30 5371 H 506.551 3.44548 2.35959 0
M  V30 5372 N 506.988 0.0434614 1.5754 0
M  V30 5373 C 508.236 -0.630786 1.92004 0
M  V30 5374 C 508.557 -1.71836 0.921807 0
M  V30 5375 O 507.827 -1.9587 -0.034522 0
M  V30 5376 H 506.407 -0.235988 0.708745 0
M  V30 5377 H 509.069 0.0946462 1.9467 0
M  V30 5378 H 508.165 -1.07434 2.93026 0
M  V30 5379 N 508.466 -1.55915 -0.229846 0
M  V30 5380 C 509.715 -1.77742 -0.953455 0
M  V30 5381 C 510.028 -0.610524 -1.85828 0
M  V30 5382 O 511.234 -0.712219 -2.61992 0
M  V30 5383 C 509.69 -3.14738 -1.74551 0
M  V30 5384 C 509.298 -4.39126 -0.887242 0
M  V30 5385 C 511.042 -3.45895 -2.46084 0
M  V30 5386 C 508.949 -5.67149 -1.67617 0
M  V30 5387 H 507.879 -0.662648 -0.359741 0
M  V30 5388 H 510.53 -1.82322 -0.207576 0
M  V30 5389 H 508.912 -3.04311 -2.53399 0
M  V30 5390 H 510.086 -4.60588 -0.139892 0
M  V30 5391 H 508.401 -4.15427 -0.284443 0
M  V30 5392 H 510.998 -4.38767 -3.05594 0
M  V30 5393 H 511.341 -2.68007 -3.18556 0
M  V30 5394 H 511.874 -3.57614 -1.74233 0
M  V30 5395 H 508.613 -6.47906 -0.994881 0
M  V30 5396 H 508.133 -5.49763 -2.39836 0
M  V30 5397 H 509.812 -6.07025 -2.23898 0
M  V30 5398 N 509.944 0.496216 -1.49584 0
M  V30 5399 C 510.874 1.60576 -1.69521 0
M  V30 5400 C 511.855 1.61169 -0.543933 0
M  V30 5401 O 513.04 1.77834 -0.78031 0
M  V30 5402 C 510.17 2.99038 -1.76616 0
M  V30 5403 C 509.124 3.13312 -2.91581 0
M  V30 5404 C 508.45 4.53172 -2.83794 0
M  V30 5405 C 509.75 2.92886 -4.32452 0
M  V30 5406 H 511.444 1.44146 -2.62416 0
M  V30 5407 H 508.99 0.692024 -1.26282 0
M  V30 5408 H 510.943 3.76564 -1.8915 0
M  V30 5409 H 509.667 3.16568 -0.80324 0
M  V30 5410 H 508.326 2.38213 -2.78658 0
M  V30 5411 H 507.974 4.67585 -1.854 0
M  V30 5412 H 507.674 4.63662 -3.60958 0
M  V30 5413 H 509.198 5.32752 -2.98342 0
M  V30 5414 H 510.612 3.60178 -4.46032 0
M  V30 5415 H 509.009 3.14844 -5.10875 0
M  V30 5416 H 510.079 1.88966 -4.46565 0
M  V30 5417 N 511.423 1.38739 0.74761 0
M  V30 5418 C 512.671 1.35007 1.50391 0
M  V30 5419 C 512.992 -0.0574274 1.94915 0
M  V30 5420 O 512.262 -1.00628 1.6808 0
M  V30 5421 H 510.842 0.496784 0.557866 0
M  V30 5422 H 513.504 1.73479 0.888319 0
M  V30 5423 H 512.6 2.00474 2.392 0
M  V30 5424 N 512.901 -0.976442 1.23707 0
M  V30 5425 C 514.126 -1.75875 1.09922 0
M  V30 5426 C 514.551 -1.84911 -0.34489 0
M  V30 5427 O 513.909 -1.31363 -1.24954 0
M  V30 5428 C 513.957 -3.16179 1.73388 0
M  V30 5429 O 513.061 -4.00124 0.99871 0
M  V30 5430 H 512.402 -0.540954 0.385052 0
M  V30 5431 H 514.932 -1.22546 1.6384 0
M  V30 5432 H 514.942 -3.66741 1.78788 0
M  V30 5433 H 513.617 -3.08917 2.78466 0
M  V30 5434 H 512.194 -3.58624 1.02193 0
M  V30 5435 N 514.379 -1.04941 -1.1758 0
M  V30 5436 C 515.627 -0.756492 -1.87408 0
M  V30 5437 C 515.948 0.718478 -1.81281 0
M  V30 5438 O 515.218 1.519 -1.23706 0
M  V30 5439 H 513.798 -0.276841 -0.693807 0
M  V30 5440 H 516.46 -1.32803 -1.42652 0
M  V30 5441 H 515.556 -1.06918 -2.93215 0
M  V30 5442 N 515.857 1.33968 -0.830081 0
M  V30 5443 C 517.104 1.98063 -0.421566 0
M  V30 5444 C 517.432 1.65787 1.0171 0
M  V30 5445 O 516.687 0.925348 1.72441 0
M  V30 5446 C 516.986 3.52679 -0.57898 0
M  V30 5447 C 516.652 4.04884 -1.98443 0
M  V30 5448 C 515.314 4.18852 -2.36888 0
M  V30 5449 C 517.666 4.32879 -2.90285 0
M  V30 5450 C 514.994 4.58145 -3.66497 0
M  V30 5451 C 517.346 4.7362 -4.19364 0
M  V30 5452 C 516.01 4.85794 -4.57778 0
M  V30 5453 H 515.28 0.724765 -0.154262 0
M  V30 5454 H 517.927 1.59792 -1.05541 0
M  V30 5455 H 516.232 3.91556 0.138219 0
M  V30 5456 H 517.929 4.00261 -0.243317 0
M  V30 5457 H 514.519 3.9448 -1.67581 0
M  V30 5458 H 518.703 4.21619 -2.61823 0
M  V30 5459 H 513.959 4.65762 -3.96075 0
M  V30 5460 H 518.133 4.9424 -4.90612 0
M  V30 5461 H 515.76 5.15998 -5.58256 0
M  V30 5462 N 517.335 0.585699 1.46312 0
M  V30 5463 C 518.298 -0.135673 2.28798 0
M  V30 5464 C 519.298 -0.815988 1.38558 0
M  V30 5465 O 520.488 -0.667487 1.60904 0
M  V30 5466 C 517.62 -1.20163 3.1902 0
M  V30 5467 H 518.813 0.589257 2.94054 0
M  V30 5468 H 516.366 0.343794 1.52472 0
M  V30 5469 H 517.101 -1.95804 2.58517 0
M  V30 5470 H 516.886 -0.718282 3.85465 0
M  V30 5471 H 518.376 -1.70749 3.81096 0
M  V30 5472 N 518.813 -1.54241 0.323641 0
M  V30 5473 C 519.743 -2.27289 -0.534993 0
M  V30 5474 C 520.724 -1.28087 -1.11927 0
M  V30 5475 O 521.909 -1.56899 -1.14439 0
M  V30 5476 C 519.039 -3.03075 -1.69596 0
M  V30 5477 C 517.993 -4.09614 -1.24098 0
M  V30 5478 C 517.319 -4.73242 -2.4889 0
M  V30 5479 C 518.619 -5.21087 -0.355789 0
M  V30 5480 H 520.313 -2.99308 0.0743257 0
M  V30 5481 H 517.859 -1.43952 0.0371874 0
M  V30 5482 H 519.812 -3.52907 -2.30293 0
M  V30 5483 H 518.536 -2.28673 -2.33187 0
M  V30 5484 H 517.195 -3.60666 -0.656945 0
M  V30 5485 H 516.843 -3.95455 -3.10845 0
M  V30 5486 H 516.543 -5.45209 -2.19138 0
M  V30 5487 H 518.067 -5.25848 -3.10348 0
M  V30 5488 H 519.481 -5.66675 -0.869042 0
M  V30 5489 H 517.878 -5.9991 -0.151045 0
M  V30 5490 H 518.948 -4.81005 0.613339 0
M  V30 5491 N 520.291 -0.0518155 -1.57515 0
M  V30 5492 C 521.238 0.922352 -2.11569 0
M  V30 5493 C 522.208 1.30842 -1.02321 0
M  V30 5494 O 523.393 1.39778 -1.29872 0
M  V30 5495 C 520.533 2.19167 -2.6657 0
M  V30 5496 C 519.646 1.86003 -3.89906 0
M  V30 5497 C 518.781 3.07398 -4.33221 0
M  V30 5498 C 517.82 2.70158 -5.49255 0
M  V30 5499 N 516.957 3.84248 -5.8762 0
M  V30 5500 H 521.797 0.454506 -2.94514 0
M  V30 5501 H 519.334 0.212718 -1.45554 0
M  V30 5502 H 521.292 2.93443 -2.96559 0
M  V30 5503 H 519.922 2.63528 -1.86421 0
M  V30 5504 H 518.974 1.01874 -3.66505 0
M  V30 5505 H 520.286 1.54592 -4.74239 0
M  V30 5506 H 519.44 3.89972 -4.64765 0
M  V30 5507 H 518.179 3.41988 -3.477 0
M  V30 5508 H 517.184 1.86001 -5.17382 0
M  V30 5509 H 518.409 2.36759 -6.36492 0
M  V30 5510 H 516.355 4.18638 -5.05053 0
M  V30 5511 H 516.272 3.56538 -6.66646 0
M  V30 5512 H 517.54 4.6746 -6.2378 0
M  V30 5513 N 521.769 1.56035 0.221574 0
M  V30 5514 C 523.015 1.79312 0.947372 0
M  V30 5515 C 523.348 0.621453 1.83988 0
M  V30 5516 O 522.623 -0.379287 1.90766 0
M  V30 5517 C 522.906 3.1267 1.78633 0
M  V30 5518 C 522.759 4.40284 0.920312 0
M  V30 5519 C 524.078 3.4247 2.7641 0
M  V30 5520 H 521.197 0.652328 0.342982 0
M  V30 5521 H 523.839 1.88765 0.216244 0
M  V30 5522 H 521.989 3.04741 2.40967 0
M  V30 5523 H 523.661 4.60232 0.313718 0
M  V30 5524 H 521.904 4.33212 0.225734 0
M  V30 5525 H 522.575 5.30033 1.54171 0
M  V30 5526 H 525.051 3.50526 2.24211 0
M  V30 5527 H 523.927 4.3695 3.32213 0
M  V30 5528 H 524.188 2.64635 3.54148 0
M  V30 5529 N 523.247 -0.488276 1.49845 0
M  V30 5530 C 524.179 -1.60539 1.63584 0
M  V30 5531 C 525.192 -1.5434 0.517972 0
M  V30 5532 O 526.381 -1.60041 0.790516 0
M  V30 5533 C 523.481 -2.99374 1.58835 0
M  V30 5534 C 522.654 -3.30624 2.86368 0
M  V30 5535 C 521.713 -4.4893 2.74496 0
M  V30 5536 O 520.739 -4.50085 3.48443 0
M  V30 5537 N 521.941 -5.49591 1.86894 0
M  V30 5538 H 524.706 -1.49176 2.59936 0
M  V30 5539 H 522.267 -0.67639 1.47094 0
M  V30 5540 H 524.259 -3.76459 1.48529 0
M  V30 5541 H 522.829 -3.04595 0.702892 0
M  V30 5542 H 522.049 -2.42314 3.1093 0
M  V30 5543 H 523.337 -3.48305 3.70892 0
M  V30 5544 H 522.735 -5.51467 1.26097 0
M  V30 5545 H 521.292 -6.25728 1.82503 0
M  V30 5546 N 524.725 -1.39134 -0.740242 0
M  V30 5547 C 525.635 -1.39697 -1.88473 0
M  V30 5548 C 526.651 -0.292403 -1.71526 0
M  V30 5549 O 527.827 -0.533021 -1.94219 0
M  V30 5550 C 524.892 -1.23382 -3.24003 0
M  V30 5551 C 523.953 -2.43763 -3.53381 0
M  V30 5552 C 523.186 -2.28216 -4.82445 0
M  V30 5553 O 523.409 -1.28288 -5.55786 0
M  V30 5554 O 522.343 -3.1709 -5.11603 0
M  V30 5555 H 526.169 -2.36159 -1.90952 0
M  V30 5556 H 523.754 -1.20194 -0.887346 0
M  V30 5557 H 525.636 -1.16395 -4.05006 0
M  V30 5558 H 524.311 -0.300121 -3.22306 0
M  V30 5559 H 523.218 -2.56325 -2.72485 0
M  V30 5560 H 524.551 -3.35808 -3.59852 0
M  V30 5561 N 526.204 0.969867 -1.24223 0
M  V30 5562 C 527.136 2.0669 -0.99055 0
M  V30 5563 C 528.149 1.62753 0.0392222 0
M  V30 5564 O 529.338 1.77403 -0.197561 0
M  V30 5565 C 526.438 3.35589 -0.472594 0
M  V30 5566 C 525.611 4.08444 -1.56499 0
M  V30 5567 C 524.67 5.15616 -1.05007 0
M  V30 5568 O 523.696 5.41911 -1.7413 0
M  V30 5569 N 524.898 5.80383 0.116641 0
M  V30 5570 H 527.663 2.28855 -1.93508 0
M  V30 5571 H 525.224 1.13733 -1.15223 0
M  V30 5572 H 527.216 4.04542 -0.112919 0
M  V30 5573 H 525.786 3.10311 0.377617 0
M  V30 5574 H 525.006 3.33798 -2.09696 0
M  V30 5575 H 526.294 4.53882 -2.29932 0
M  V30 5576 H 525.692 5.6142 0.694589 0
M  V30 5577 H 524.249 6.50462 0.417483 0
M  V30 5578 N 527.682 1.05563 1.17022 0
M  V30 5579 C 528.632 0.630007 2.19123 0
M  V30 5580 C 529.616 -0.335472 1.57364 0
M  V30 5581 O 530.808 -0.1521 1.76345 0
M  V30 5582 C 527.937 0.0101676 3.43298 0
M  V30 5583 C 527.023 0.999698 4.12149 0
M  V30 5584 N 527.414 2.17251 4.56766 0
M  V30 5585 C 525.712 0.829 4.38228 0
M  V30 5586 C 526.413 2.79883 5.09942 0
M  V30 5587 N 525.389 2.07656 5.02374 0
M  V30 5588 H 529.191 1.52353 2.51328 0
M  V30 5589 H 526.705 0.926288 1.33393 0
M  V30 5590 H 528.702 -0.312541 4.15727 0
M  V30 5591 H 527.362 -0.878707 3.12584 0
M  V30 5592 H 528.373 2.55067 4.50734 0
M  V30 5593 H 525.05 -0.00850974 4.17499 0
M  V30 5594 H 526.44 3.79362 5.54558 0
M  V30 5595 N 529.16 -1.33526 0.837174 0
M  V30 5596 C 530.576 -1.50727 0.524743 0
M  V30 5597 C 530.776 -1.77792 -0.948279 0
M  V30 5598 O 529.832 -1.83719 -1.73216 0
M  V30 5599 C 531.145 -2.66299 1.39661 0
M  V30 5600 C 532.693 -2.80183 1.39521 0
M  V30 5601 C 533.168 -3.98815 2.25189 0
M  V30 5602 N 534.659 -4.06047 2.2289 0
M  V30 5603 C 535.394 -4.97032 2.85915 0
M  V30 5604 N 534.89 -5.93143 3.57985 0
M  V30 5605 N 536.683 -4.90015 2.75394 0
M  V30 5606 H 528.834 -1.1422 1.79074 0
M  V30 5607 H 531.097 -0.561399 0.763894 0
M  V30 5608 H 530.803 -2.52974 2.4433 0
M  V30 5609 H 530.677 -3.61663 1.07145 0
M  V30 5610 H 533.064 -2.92942 0.356253 0
M  V30 5611 H 533.145 -1.85586 1.76044 0
M  V30 5612 H 532.789 -3.86817 3.29143 0
M  V30 5613 H 532.719 -4.92654 1.86009 0
M  V30 5614 H 535.21 -3.37262 1.70478 0
M  V30 5615 H 535.523 -6.59227 4.03286 0
M  V30 5616 H 533.868 -5.93223 3.62093 0
M  V30 5617 H 537.059 -4.13894 2.18654 0
M  V30 5618 H 537.232 -5.60724 3.24796 0
M  V30 5619 N 530.638 -0.59345 -1.46 0
M  V30 5620 C 531.57 0.171569 -2.28557 0
M  V30 5621 C 532.583 0.845273 -1.39137 0
M  V30 5622 O 533.772 0.713033 -1.6364 0
M  V30 5623 C 530.872 1.26311 -3.14482 0
M  V30 5624 C 530.045 0.679258 -4.32094 0
M  V30 5625 C 529.104 1.65987 -4.99334 0
M  V30 5626 O 528.13 1.19171 -5.56585 0
M  V30 5627 N 529.332 2.99414 -4.97324 0
M  V30 5628 H 532.097 -0.536771 -2.94854 0
M  V30 5629 H 529.658 -0.431954 -1.56031 0
M  V30 5630 H 531.65 1.91863 -3.5633 0
M  V30 5631 H 530.22 1.87416 -2.50188 0
M  V30 5632 H 529.44 -0.153992 -3.93899 0
M  V30 5633 H 530.728 0.26916 -5.08088 0
M  V30 5634 H 530.126 3.40064 -4.52076 0
M  V30 5635 H 528.683 3.60426 -5.4308 0
M  V30 5636 N 532.116 1.54067 -0.331816 0
M  V30 5637 C 533.063 2.24623 0.530372 0
M  V30 5638 C 534.033 1.24009 1.10503 0
M  V30 5639 O 535.218 1.52712 1.14384 0
M  V30 5640 C 532.358 3.01374 1.68129 0
M  V30 5641 C 531.471 4.16821 1.13507 0
M  V30 5642 C 530.606 4.81085 2.25234 0
M  V30 5643 C 529.645 5.88621 1.67903 0
M  V30 5644 N 528.782 6.46713 2.73326 0
M  V30 5645 H 533.622 2.97898 -0.0778607 0
M  V30 5646 H 531.159 1.47014 -0.0501965 0
M  V30 5647 H 533.117 3.44125 2.35868 0
M  V30 5648 H 531.747 2.30419 2.26069 0
M  V30 5649 H 530.799 3.78796 0.348979 0
M  V30 5650 H 532.111 4.94203 0.675633 0
M  V30 5651 H 531.265 5.26846 3.00862 0
M  V30 5652 H 530.004 4.03102 2.74518 0
M  V30 5653 H 529.009 5.42254 0.907773 0
M  V30 5654 H 530.234 6.68506 1.19487 0
M  V30 5655 H 528.18 5.71599 3.21886 0
M  V30 5656 H 528.097 7.19532 2.3197 0
M  V30 5657 H 529.365 6.97129 3.48758 0
M  V30 5658 N 533.594 0.0601682 1.57485 0
M  V30 5659 C 534.544 -0.920969 2.08572 0
M  V30 5660 C 535.528 -1.26617 0.992827 0
M  V30 5661 O 536.72 -1.24708 1.25606 0
M  V30 5662 C 533.849 -2.19267 2.64153 0
M  V30 5663 C 532.935 -1.87447 3.80427 0
M  V30 5664 N 533.326 -1.26025 4.89848 0
M  V30 5665 C 531.624 -2.17265 3.89502 0
M  V30 5666 C 532.325 -1.12036 5.70809 0
M  V30 5667 N 531.301 -1.62624 5.18705 0
M  V30 5668 H 535.103 -0.441561 2.90564 0
M  V30 5669 H 532.617 -0.144043 1.6176 0
M  V30 5670 H 534.614 -2.90462 2.99061 0
M  V30 5671 H 533.274 -2.67806 1.83603 0
M  V30 5672 H 534.285 -0.931336 5.09457 0
M  V30 5673 H 530.962 -2.68262 3.19909 0
M  V30 5674 H 532.352 -0.642783 6.68818 0
M  V30 5675 N 535.072 -1.5615 -0.213296 0
M  V30 5676 C 536.319 -1.79546 -0.936462 0
M  V30 5677 C 536.647 -0.630337 -1.84003 0
M  V30 5678 O 535.902 0.384883 -1.91878 0
M  V30 5679 C 536.201 -3.08772 -1.79985 0
M  V30 5680 C 535.867 -4.38532 -1.04882 0
M  V30 5681 C 534.529 -4.73787 -0.841393 0
M  V30 5682 C 536.881 -5.18609 -0.51907 0
M  V30 5683 C 534.209 -5.86627 -0.0924403 0
M  V30 5684 C 536.561 -6.32229 0.216581 0
M  V30 5685 C 535.225 -6.6608 0.435191 0
M  V30 5686 H 534.495 -0.657004 -0.342676 0
M  V30 5687 H 537.142 -1.9041 -0.204051 0
M  V30 5688 H 535.447 -2.93065 -2.60038 0
M  V30 5689 H 537.144 -3.24077 -2.36168 0
M  V30 5690 H 533.734 -4.10855 -1.22048 0
M  V30 5691 H 537.918 -4.91801 -0.666775 0
M  V30 5692 H 533.174 -6.11338 0.087081 0
M  V30 5693 H 537.348 -6.93503 0.634538 0
M  V30 5694 H 534.975 -7.5336 1.01746 0
M  V30 5695 N 536.55 0.480323 -1.50102 0
M  V30 5696 C 537.46 1.60547 -1.71061 0
M  V30 5697 C 538.476 1.63564 -0.593529 0
M  V30 5698 O 539.652 1.81604 -0.870751 0
M  V30 5699 C 536.717 2.96814 -1.79171 0
M  V30 5700 C 535.778 3.04259 -3.02861 0
M  V30 5701 C 535.011 4.34027 -3.10574 0
M  V30 5702 O 535.234 5.24009 -2.25323 0
M  V30 5703 O 534.168 4.46873 -4.03223 0
M  V30 5704 H 537.994 1.45788 -2.6642 0
M  V30 5705 H 535.579 0.658838 -1.34088 0
M  V30 5706 H 537.461 3.77765 -1.86738 0
M  V30 5707 H 536.136 3.11791 -0.869947 0
M  V30 5708 H 535.043 2.22419 -3.008 0
M  V30 5709 H 536.376 2.94216 -3.94586 0
M  V30 5710 N 538.028 1.39524 0.732853 0
M  V30 5711 C 538.975 1.38416 1.84688 0
M  V30 5712 C 539.945 0.243539 1.64305 0
M  V30 5713 O 541.13 0.438979 1.85681 0
M  V30 5714 C 538.27 1.23555 3.22224 0
M  V30 5715 C 537.383 2.47179 3.54298 0
M  V30 5716 C 536.518 2.2489 4.81246 0
M  V30 5717 C 535.557 3.44178 5.0617 0
M  V30 5718 N 534.694 3.21192 6.24323 0
M  V30 5719 H 539.534 2.33645 1.84971 0
M  V30 5720 H 537.071 1.16059 0.903804 0
M  V30 5721 H 539.029 1.12949 4.0162 0
M  V30 5722 H 537.659 0.31954 3.21215 0
M  V30 5723 H 536.711 2.68379 2.69587 0
M  V30 5724 H 538.023 3.36022 3.68633 0
M  V30 5725 H 537.177 2.11538 5.68627 0
M  V30 5726 H 535.916 1.33443 4.69089 0
M  V30 5727 H 534.921 3.58025 4.17251 0
M  V30 5728 H 536.146 4.36528 5.20212 0
M  V30 5729 H 534.092 2.32413 6.1345 0
M  V30 5730 H 534.009 4.03594 6.39256 0
M  V30 5731 H 535.277 3.1154 7.14537 0
M  V30 5732 N 539.506 -0.963266 1.24736 0
M  V30 5733 C 540.922 -1.23273 1.01371 0
M  V30 5734 C 541.122 -1.99618 -0.274776 0
M  V30 5735 O 540.178 -2.32293 -0.989769 0
M  V30 5736 C 541.491 -2.01554 2.23152 0
M  V30 5737 C 543.039 -2.14629 2.27823 0
M  V30 5738 C 543.514 -2.96307 3.49237 0
M  V30 5739 N 545.005 -3.03887 3.49581 0
M  V30 5740 C 545.74 -3.67456 4.40186 0
M  V30 5741 N 545.236 -4.32706 5.41052 0
M  V30 5742 N 547.029 -3.64511 4.27888 0
M  V30 5743 H 539.18 -0.452294 2.07528 0
M  V30 5744 H 541.443 -0.262521 0.910926 0
M  V30 5745 H 541.149 -1.52847 3.1675 0
M  V30 5746 H 541.023 -3.02278 2.25628 0
M  V30 5747 H 543.41 -2.62537 1.34753 0
M  V30 5748 H 543.491 -1.13238 2.2937 0
M  V30 5749 H 543.135 -2.49091 4.42624 0
M  V30 5750 H 543.065 -3.97905 3.44933 0
M  V30 5751 H 545.556 -2.57477 2.76611 0
M  V30 5752 H 545.869 -4.79042 6.06415 0
M  V30 5753 H 544.214 -4.31361 5.44934 0
M  V30 5754 H 547.405 -3.12715 3.4832 0
M  V30 5755 H 547.578 -4.13768 4.98698 0
M  V30 5756 N 540.985 -1.06182 -1.16461 0
M  V30 5757 C 542.401 -0.785065 -1.38956 0
M  V30 5758 C 542.601 0.616103 -1.9185 0
M  V30 5759 O 541.657 1.37686 -2.11657 0
M  V30 5760 C 542.97 -1.84902 -2.37132 0
M  V30 5761 C 544.518 -1.8724 -2.50819 0
M  V30 5762 C 544.993 -2.92686 -3.52277 0
M  V30 5763 N 546.484 -2.91712 -3.59803 0
M  V30 5764 C 547.219 -3.69949 -4.38093 0
M  V30 5765 N 546.715 -4.58 -5.19815 0
M  V30 5766 N 548.508 -3.58346 -4.33064 0
M  V30 5767 H 540.659 -1.96569 -0.804634 0
M  V30 5768 H 542.922 -0.851747 -0.416211 0
M  V30 5769 H 542.628 -2.85518 -2.0536 0
M  V30 5770 H 542.502 -1.69908 -3.36766 0
M  V30 5771 H 544.889 -0.872827 -2.81897 0
M  V30 5772 H 544.97 -2.06311 -1.51226 0
M  V30 5773 H 544.614 -3.92835 -3.21937 0
M  V30 5774 H 544.544 -2.70864 -4.51598 0
M  V30 5775 H 547.035 -2.27876 -3.01464 0
M  V30 5776 H 547.348 -5.14357 -5.76764 0
M  V30 5777 H 545.693 -4.62056 -5.19162 0
M  V30 5778 H 548.884 -2.88943 -3.68279 0
M  V30 5779 H 549.057 -4.19563 -4.93833 0
M  V30 5780 N 542.463 1.3308 -0.844243 0
M  V30 5781 C 543.411 2.31028 -0.269954 0
M  V30 5782 C 544.405 1.58381 0.600997 0
M  V30 5783 O 545.611 1.73203 0.48996 0
M  V30 5784 H 541.986 0.748866 -0.0685782 0
M  V30 5785 H 543.957 2.76967 -1.11049 0
M  V30 5786 C 542.706 3.43549 0.535676 0
M  V30 5787 H 542.029 3.99604 -0.125202 0
M  V30 5788 H 543.469 4.14267 0.903262 0
M  V30 5789 C 541.928 2.8988 1.71672 0
M  V30 5790 O 542.458 2.86511 2.81557 0
M  V30 5791 N 540.664 2.46416 1.54037 0
M  V30 5792 H 540.211 2.49356 0.64649 0
M  V30 5793 H 540.169 2.1086 2.33207 0
M  V30 5794 N 543.941 0.601185 1.45683 0
M  V30 5795 C 545.352 0.179659 1.85834 0
M  V30 5796 C 545.703 -1.26189 1.50236 0
M  V30 5797 O 544.828 -1.95587 0.925987 0
M  V30 5798 C 545.423 0.319277 3.37292 0
M  V30 5799 C 543.982 -0.0475092 3.7637 0
M  V30 5800 C 543.129 0.646692 2.69654 0
M  V30 5801 H 546.08 0.808268 1.36575 0
M  V30 5802 H 546.101 -0.4503 3.77826 0
M  V30 5803 H 545.613 1.36855 3.6317 0
M  V30 5804 H 543.714 -1.0962 3.5611 0
M  V30 5805 H 543.827 0.34168 4.7788 0
M  V30 5806 H 542.191 0.0849971 2.54558 0
M  V30 5807 H 542.974 1.69797 2.98369 0
M  V30 5808 N 545.419 -1.53889 0.339982 0
M  V30 5809 C 546.382 -2.23547 -0.50592 0
M  V30 5810 C 547.382 -1.23445 -1.03044 0
M  V30 5811 O 548.572 -1.47909 -0.920253 0
M  V30 5812 C 545.704 -2.95234 -1.7044 0
M  V30 5813 H 546.897 -2.99722 0.103247 0
M  V30 5814 H 544.45 -1.56033 0.0912804 0
M  V30 5815 H 545.185 -2.23236 -2.35236 0
M  V30 5816 H 544.97 -3.68654 -1.33553 0
M  V30 5817 H 546.46 -3.48258 -2.30447 0
M  V30 5818 N 546.897 -0.0685191 -1.57451 0
M  V30 5819 C 547.86 0.885173 -2.11417 0
M  V30 5820 C 548.86 1.22853 -1.03748 0
M  V30 5821 O 550.05 1.16235 -1.2975 0
M  V30 5822 C 547.182 2.18964 -2.61281 0
M  V30 5823 H 548.375 0.417034 -2.96986 0
M  V30 5824 H 545.928 0.18014 -1.55258 0
M  V30 5825 H 546.663 2.70321 -1.79156 0
M  V30 5826 H 546.448 1.9534 -3.39977 0
M  V30 5827 H 547.938 2.87242 -3.0312 0
M  V30 5828 N 548.375 1.56261 0.205012 0
M  V30 5829 C 549.323 1.94631 1.27364 0
M  V30 5830 C 550.317 0.830434 1.47649 0
M  V30 5831 O 551.523 1.01538 1.48627 0
M  V30 5832 H 547.898 0.618755 0.427371 0
M  V30 5833 H 549.869 2.83768 0.922941 0
M  V30 5834 C 548.618 2.29358 2.61324 0
M  V30 5835 H 547.941 3.14744 2.46528 0
M  V30 5836 H 549.381 2.60076 3.34868 0
M  V30 5837 C 547.84 1.12461 3.17575 0
M  V30 5838 O 548.37 0.394407 3.99759 0
M  V30 5839 N 546.576 0.904036 2.7618 0
M  V30 5840 H 546.123 1.49956 2.09454 0
M  V30 5841 H 546.081 0.123662 3.14157 0
M  V30 5842 N 549.853 -0.472356 1.50355 0
M  V30 5843 C 550.783 -1.57859 1.72055 0
M  V30 5844 C 551.764 -1.60283 0.569505 0
M  V30 5845 O 552.949 -1.7657 0.808503 0
M  V30 5846 C 550.079 -2.96191 1.81351 0
M  V30 5847 C 549.033 -3.08633 2.96529 0
M  V30 5848 C 548.359 -4.486 2.90968 0
M  V30 5849 C 549.659 -2.85969 4.37057 0
M  V30 5850 H 551.353 -1.39953 2.64676 0
M  V30 5851 H 548.899 -0.671846 1.27367 0
M  V30 5852 H 550.852 -3.73507 1.95117 0
M  V30 5853 H 549.576 -3.15251 0.853502 0
M  V30 5854 H 548.235 -2.33749 2.82413 0
M  V30 5855 H 547.883 -4.64577 1.92815 0
M  V30 5856 H 547.583 -4.57861 3.68289 0
M  V30 5857 H 549.107 -5.27938 3.0678 0
M  V30 5858 H 550.521 -3.53036 4.51706 0
M  V30 5859 H 548.918 -3.06677 5.15819 0
M  V30 5860 H 549.988 -1.81838 4.49514 0
M  V30 5861 N 551.331 -1.39911 -0.725443 0
M  V30 5862 C 552.58 -1.36963 -1.48068 0
M  V30 5863 C 552.893 0.0284478 -1.95579 0
M  V30 5864 O 554.099 0.180535 -2.70899 0
M  V30 5865 C 552.555 -2.40664 -2.67598 0
M  V30 5866 C 552.163 -3.86234 -2.26997 0
M  V30 5867 C 553.907 -2.46807 -3.45379 0
M  V30 5868 C 551.814 -4.81554 -3.43307 0
M  V30 5869 H 550.744 -0.509223 -0.556065 0
M  V30 5870 H 553.395 -1.65602 -0.790454 0
M  V30 5871 H 551.777 -2.05109 -3.38742 0
M  V30 5872 H 552.951 -4.3088 -1.63337 0
M  V30 5873 H 551.266 -3.83475 -1.62284 0
M  V30 5874 H 553.863 -3.15213 -4.31909 0
M  V30 5875 H 554.206 -1.49552 -3.8851 0
M  V30 5876 H 554.739 -2.81303 -2.81271 0
M  V30 5877 H 551.478 -5.80106 -3.05217 0
M  V30 5878 H 550.998 -4.4158 -4.05915 0
M  V30 5879 H 552.677 -5.0091 -4.0951 0
M  V30 5880 N 552.809 0.956637 -1.25245 0
M  V30 5881 C 553.741 2.05628 -1.01242 0
M  V30 5882 C 554.754 1.62785 0.0219579 0
M  V30 5883 O 555.943 1.77184 -0.216365 0
M  V30 5884 C 553.043 3.35069 -0.508161 0
M  V30 5885 C 552.216 4.06761 -1.60823 0
M  V30 5886 C 551.275 5.14473 -1.1047 0
M  V30 5887 O 550.301 5.40033 -1.79868 0
M  V30 5888 N 551.503 5.80474 0.0550773 0
M  V30 5889 H 554.268 2.2679 -1.95925 0
M  V30 5890 H 551.829 1.12505 -1.16423 0
M  V30 5891 H 553.821 4.044 -0.155819 0
M  V30 5892 H 552.391 3.10694 0.344683 0
M  V30 5893 H 551.611 3.31555 -2.13224 0
M  V30 5894 H 552.899 4.51418 -2.34733 0
M  V30 5895 H 552.297 5.62125 0.635004 0
M  V30 5896 H 550.854 6.50868 0.348469 0
M  V30 5897 N 554.287 1.06798 1.15896 0
M  V30 5898 C 555.527 0.797041 1.8822 0
M  V30 5899 C 555.891 -0.664549 1.80133 0
M  V30 5900 O 557.092 -1.0503 2.47431 0
M  V30 5901 C 555.363 1.28431 3.33527 0
M  V30 5902 S 556.922 1.14319 4.23647 0
M  V30 5903 H 553.74 0.288988 0.649621 0
M  V30 5904 H 556.342 1.36594 1.39865 0
M  V30 5905 H 555.046 2.34286 3.36954 0
M  V30 5906 H 554.577 0.710371 3.86933 0
M  V30 5907 H 556.592 0.0772467 4.9614 0
M  V30 5908 N 555.766 -1.3263 0.851289 0
M  V30 5909 C 557.012 -1.9766 0.453694 0
M  V30 5910 C 557.345 -1.67225 -0.987396 0
M  V30 5911 O 556.62 -0.958693 -1.69232 0
M  V30 5912 C 556.903 -3.5344 0.68936 0
M  V30 5913 C 556.756 -3.93517 2.17862 0
M  V30 5914 C 558.075 -4.39866 0.143555 0
M  V30 5915 H 555.194 -0.717989 0.166314 0
M  V30 5916 H 557.836 -1.57068 1.06909 0
M  V30 5917 H 555.986 -3.88147 0.165546 0
M  V30 5918 H 557.658 -3.69006 2.76826 0
M  V30 5919 H 555.901 -3.42798 2.65841 0
M  V30 5920 H 556.572 -5.02065 2.29422 0
M  V30 5921 H 559.048 -4.11875 0.591451 0
M  V30 5922 H 557.924 -5.47858 0.338043 0
M  V30 5923 H 558.185 -4.31696 -0.953466 0
M  V30 5924 N 557.244 -0.608902 -1.45362 0
M  V30 5925 C 558.49 -0.113196 -2.03085 0
M  V30 5926 C 558.845 1.24288 -1.46868 0
M  V30 5927 O 558.138 1.80792 -0.634402 0
M  V30 5928 C 558.332 -0.0167296 -3.57396 0
M  V30 5929 C 558.161 -1.36191 -4.28581 0
M  V30 5930 C 556.931 -1.94295 -4.66452 0
M  V30 5931 C 559.129 -2.29097 -4.60455 0
M  V30 5932 N 557.111 -3.2228 -5.22503 0
M  V30 5933 C 558.482 -3.41681 -5.17353 0
M  V30 5934 C 560.537 -2.28453 -4.42395 0
M  V30 5935 C 559.24 -4.53789 -5.58093 0
M  V30 5936 C 561.266 -3.39608 -4.8417 0
M  V30 5937 C 560.628 -4.50915 -5.41161 0
M  V30 5938 H 556.727 -0.0848213 -0.777386 0
M  V30 5939 H 559.311 -0.807541 -1.77163 0
M  V30 5940 H 557.482 0.646839 -3.82976 0
M  V30 5941 H 559.214 0.485757 -4.01774 0
M  V30 5942 H 555.969 -1.47486 -4.5005 0
M  V30 5943 H 556.393 -3.87654 -5.55025 0
M  V30 5944 H 561.035 -1.43658 -3.97646 0
M  V30 5945 H 558.753 -5.39307 -6.01808 0
M  V30 5946 H 562.339 -3.40259 -4.71927 0
M  V30 5947 H 561.219 -5.35505 -5.72891 0
M  V30 5948 N 558.722 1.53707 -0.348139 0
M  V30 5949 C 560.138 1.596 0.00361134 0
M  V30 5950 C 560.338 1.36394 1.4832 0
M  V30 5951 O 559.394 1.16046 2.24253 0
M  V30 5952 C 560.707 2.97512 -0.436682 0
M  V30 5953 C 562.255 3.10568 -0.389416 0
M  V30 5954 C 562.73 4.50866 -0.805249 0
M  V30 5955 N 564.221 4.56929 -0.759616 0
M  V30 5956 C 564.956 5.63643 -1.05327 0
M  V30 5957 N 564.452 6.78189 -1.41531 0
M  V30 5958 N 566.245 5.5354 -0.977207 0
M  V30 5959 H 558.396 1.67044 -1.31187 0
M  V30 5960 H 560.659 0.782559 -0.535075 0
M  V30 5961 H 560.365 3.19575 -1.46849 0
M  V30 5962 H 560.239 3.76742 0.185744 0
M  V30 5963 H 562.626 2.88226 0.633228 0
M  V30 5964 H 562.707 2.33387 -1.04711 0
M  V30 5965 H 562.351 4.73943 -1.82593 0
M  V30 5966 H 562.281 5.26452 -0.124989 0
M  V30 5967 H 564.772 3.74675 -0.49265 0
M  V30 5968 H 565.085 7.55541 -1.62411 0
M  V30 5969 H 563.43 6.79624 -1.45381 0
M  V30 5970 H 566.621 4.62932 -0.693675 0
M  V30 5971 H 566.794 6.36614 -1.2094 0
M  V30 5972 N 560.2 0.0768682 1.57412 0
M  V30 5973 C 561.425 -0.603404 1.98428 0
M  V30 5974 C 561.85 -1.62047 0.955108 0
M  V30 5975 O 561.208 -1.81129 -0.0786778 0
M  V30 5976 C 561.256 -1.24396 3.38464 0
M  V30 5977 O 560.36 -2.35982 3.3821 0
M  V30 5978 H 559.701 -0.154741 0.645718 0
M  V30 5979 H 562.231 0.152885 2.04028 0
M  V30 5980 H 562.241 -1.5896 3.7576 0
M  V30 5981 H 560.916 -0.498735 4.12899 0
M  V30 5982 H 559.493 -2.03173 3.1269 0
M  V30 5983 N 561.678 -1.56367 -0.196722 0
M  V30 5984 C 562.908 -1.84371 -0.932254 0
M  V30 5985 C 563.316 -0.657013 -1.77426 0
M  V30 5986 O 562.659 0.383576 -1.79651 0
M  V30 5987 C 562.721 -3.06454 -1.87952 0
M  V30 5988 C 562.385 -4.40425 -1.21962 0
M  V30 5989 C 563.382 -5.16457 -0.597343 0
M  V30 5990 C 561.067 -4.8716 -1.22396 0
M  V30 5991 C 563.061 -6.37399 0.0117913 0
M  V30 5992 C 560.748 -6.08038 -0.610995 0
M  V30 5993 C 561.746 -6.83 0.00580487 0
M  V30 5994 O 561.434 -8.01589 0.609173 0
M  V30 5995 H 561.166 -0.616377 -0.277589 0
M  V30 5996 H 563.72 -2.04329 -0.209452 0
M  V30 5997 H 561.95 -2.82377 -2.64197 0
M  V30 5998 H 563.639 -3.21118 -2.48271 0
M  V30 5999 H 564.405 -4.81445 -0.586142 0
M  V30 6000 H 560.284 -4.2877 -1.69345 0
M  V30 6001 H 563.828 -6.9585 0.493836 0
M  V30 6002 H 559.725 -6.42519 -0.619693 0
M  V30 6003 H 560.493 -8.16935 0.505919 0
M  V30 6004 N 563.156 0.464375 -1.50603 0
M  V30 6005 C 564.119 1.54393 -1.69397 0
M  V30 6006 C 565.119 1.50566 -0.564504 0
M  V30 6007 O 566.309 1.53066 -0.831645 0
M  V30 6008 C 563.441 2.9401 -1.72543 0
M  V30 6009 H 564.634 1.39044 -2.65719 0
M  V30 6010 H 562.187 0.69122 -1.40185 0
M  V30 6011 H 562.922 3.14795 -0.77938 0
M  V30 6012 H 562.707 2.98195 -2.54602 0
M  V30 6013 H 564.197 3.72375 -1.89015 0
M  V30 6014 N 564.634 1.40294 0.718013 0
M  V30 6015 C 565.597 1.4012 1.81381 0
M  V30 6016 C 566.597 0.295405 1.58063 0
M  V30 6017 O 567.787 0.554187 1.6515 0
M  V30 6018 C 564.919 1.19056 3.19435 0
M  V30 6019 H 566.112 2.37645 1.82933 0
M  V30 6020 H 563.665 1.26107 0.923405 0
M  V30 6021 H 564.4 0.222809 3.23534 0
M  V30 6022 H 564.185 1.99152 3.37758 0
M  V30 6023 H 565.675 1.21716 3.99468 0
M  V30 6024 N 566.112 -0.949982 1.2575 0
M  V30 6025 C 567.389 -1.6718 1.01539 0
M  V30 6026 C 567.769 -2.06095 -0.456942 0
M  V30 6027 O 567.117 -1.77792 -1.43534 0
M  V30 6028 C 567.327 -2.8906 1.95564 0
M  V30 6029 C 568.675 -3.60909 2.23673 0
M  V30 6030 O 569.699 -2.9915 1.9336 0
M  V30 6031 O 568.558 -4.72127 2.75243 0
M  V30 6032 H 565.652 -0.731697 0.385419 0
M  V30 6033 H 568.198 -1.00249 1.36924 0
M  V30 6034 H 566.97 -2.57128 2.94959 0
M  V30 6035 H 566.593 -3.63719 1.60605 0
M  V30 6036 N 567.59 -1.07411 -1.15328 0
M  V30 6037 C 568.5 -0.706438 -2.23711 0
M  V30 6038 C 569.516 0.282586 -1.7169 0
M  V30 6039 O 570.692 0.129066 -2.00986 0
M  V30 6040 C 567.757 -0.11048 -3.46524 0
M  V30 6041 C 566.818 -1.15282 -4.13532 0
M  V30 6042 C 566.051 -0.585205 -5.30482 0
M  V30 6043 O 566.274 0.598549 -5.67251 0
M  V30 6044 O 565.208 -1.33039 -5.87013 0
M  V30 6045 H 569.034 -1.61031 -2.57493 0
M  V30 6046 H 566.619 -0.847113 -1.23062 0
M  V30 6047 H 568.501 0.21957 -4.20828 0
M  V30 6048 H 567.176 0.766703 -3.14489 0
M  V30 6049 H 566.083 -1.53523 -3.41147 0
M  V30 6050 H 567.416 -2.00192 -4.49649 0
M  V30 6051 N 569.068 1.32177 -0.85831 0
M  V30 6052 C 570.015 2.28794 -0.303607 0
M  V30 6053 C 570.985 1.55213 0.591453 0
M  V30 6054 O 572.17 1.83418 0.525585 0
M  V30 6055 C 569.31 3.41475 0.49889 0
M  V30 6056 C 568.423 4.2993 -0.422373 0
M  V30 6057 C 567.558 5.29743 0.393111 0
M  V30 6058 C 566.597 6.09842 -0.525317 0
M  V30 6059 N 565.734 7.01643 0.253208 0
M  V30 6060 H 570.574 2.75631 -1.13276 0
M  V30 6061 H 568.111 1.35606 -0.570026 0
M  V30 6062 H 570.069 4.05531 0.979826 0
M  V30 6063 H 568.699 2.95779 1.29284 0
M  V30 6064 H 567.751 3.66422 -1.02171 0
M  V30 6065 H 569.063 4.85899 -1.12709 0
M  V30 6066 H 568.217 5.9942 0.937056 0
M  V30 6067 H 566.956 4.744 1.13117 0
M  V30 6068 H 565.961 5.39066 -1.08112 0
M  V30 6069 H 567.186 6.6727 -1.26205 0
M  V30 6070 H 565.132 6.48725 0.974295 0
M  V30 6071 H 565.049 7.54981 -0.392398 0
M  V30 6072 H 566.317 7.756 0.778761 0
M  V30 6073 N 570.547 0.616602 1.45037 0
M  V30 6074 C 571.772 0.120192 2.07051 0
M  V30 6075 C 572.197 -1.19008 1.45666 0
M  V30 6076 O 571.555 -1.7267 0.552692 0
M  V30 6077 C 571.603 0.00354901 3.606 0
M  V30 6078 O 570.707 -1.04431 3.98958 0
M  V30 6079 H 570.048 0.0781599 0.659384 0
M  V30 6080 H 572.578 0.849167 1.86146 0
M  V30 6081 H 572.588 -0.191754 4.07549 0
M  V30 6082 H 571.263 0.960239 4.04663 0
M  V30 6083 H 569.84 -0.824749 3.63665 0
M  V30 6084 N 572.025 -1.5352 0.356285 0
M  V30 6085 C 573.271 -2.01414 -0.236653 0
M  V30 6086 C 573.604 -1.24339 -1.49176 0
M  V30 6087 O 572.879 -0.334496 -1.91602 0
M  V30 6088 C 573.162 -3.56059 -0.537982 0
M  V30 6089 C 573.015 -4.43835 0.730112 0
M  V30 6090 C 574.334 -4.19127 -1.34239 0
M  V30 6091 H 571.453 -0.732135 -0.0845386 0
M  V30 6092 H 574.095 -1.83854 0.479341 0
M  V30 6093 H 572.245 -3.71153 -1.14795 0
M  V30 6094 H 573.917 -4.40555 1.36782 0
M  V30 6095 H 572.16 -4.1218 1.3524 0
M  V30 6096 H 572.831 -5.49958 0.474358 0
M  V30 6097 H 575.307 -4.07809 -0.826498 0
M  V30 6098 H 574.183 -5.27378 -1.52198 0
M  V30 6099 H 574.444 -3.74581 -2.34822 0
M  V30 6100 N 573.503 -0.0852151 -1.57369 0
M  V30 6101 C 574.728 0.592872 -1.98746 0
M  V30 6102 C 575.153 1.61538 -0.963689 0
M  V30 6103 O 574.511 1.81168 0.069071 0
M  V30 6104 C 574.559 1.22599 -3.39119 0
M  V30 6105 O 573.663 2.34185 -3.39457 0
M  V30 6106 H 573.004 0.151314 -0.646529 0
M  V30 6107 H 575.534 -0.163703 -2.03944 0
M  V30 6108 H 575.544 1.56965 -3.76598 0
M  V30 6109 H 574.219 0.476831 -4.13158 0
M  V30 6110 H 572.796 2.01512 -3.13763 0
M  V30 6111 N 574.981 1.5647 0.188427 0
M  V30 6112 C 576.23 1.80207 0.905995 0
M  V30 6113 C 576.543 0.659579 1.84144 0
M  V30 6114 O 577.749 0.781431 2.60011 0
M  V30 6115 C 576.205 3.19255 1.66145 0
M  V30 6116 C 575.813 4.41324 0.770504 0
M  V30 6117 C 577.557 3.52298 2.36826 0
M  V30 6118 C 575.464 5.71394 1.52521 0
M  V30 6119 H 574.394 0.671953 0.342045 0
M  V30 6120 H 577.045 1.82808 0.159164 0
M  V30 6121 H 575.427 3.10922 2.45242 0
M  V30 6122 H 576.601 4.60797 0.0177261 0
M  V30 6123 H 574.916 4.16035 0.174199 0
M  V30 6124 H 577.513 4.46715 2.93854 0
M  V30 6125 H 577.856 2.76359 3.11338 0
M  V30 6126 H 578.389 3.62108 1.6469 0
M  V30 6127 H 575.128 6.50316 0.82275 0
M  V30 6128 H 574.648 5.55928 2.25175 0
M  V30 6129 H 576.327 6.12747 2.07725 0
M  V30 6130 N 576.459 -0.456382 1.50847 0
M  V30 6131 C 577.422 -1.53493 1.70213 0
M  V30 6132 C 578.422 -1.50264 0.572481 0
M  V30 6133 O 579.612 -1.52623 0.839751 0
M  V30 6134 C 576.744 -2.93091 1.741 0
M  V30 6135 H 577.937 -1.37633 2.66453 0
M  V30 6136 H 575.49 -0.683776 1.4055 0
M  V30 6137 H 576.225 -3.14378 0.796063 0
M  V30 6138 H 576.01 -2.9684 2.5618 0
M  V30 6139 H 577.5 -3.71368 1.90987 0
M  V30 6140 N 577.937 -1.40673 -0.710563 0
M  V30 6141 C 579.165 -1.42547 -1.4996 0
M  V30 6142 C 579.58 -0.0265485 -1.88781 0
M  V30 6143 O 578.937 0.950694 -1.55782 0
M  V30 6144 C 578.988 -2.32071 -2.77173 0
M  V30 6145 O 578.709 -3.66518 -2.39992 0
M  V30 6146 C 580.21 -2.42591 -3.71032 0
M  V30 6147 H 577.43 -0.486025 -0.462623 0
M  V30 6148 H 579.974 -1.84783 -0.876102 0
M  V30 6149 H 578.129 -1.93184 -3.35795 0
M  V30 6150 H 578.543 -4.14115 -3.21884 0
M  V30 6151 H 580.017 -3.09429 -4.57119 0
M  V30 6152 H 580.494 -1.4525 -4.14486 0
M  V30 6153 H 581.1 -2.82051 -3.18319 0
M  V30 6154 N 579.415 0.9433 -1.26252 0
M  V30 6155 C 580.661 1.69226 -1.12846 0
M  V30 6156 C 581.016 1.8963 0.325282 0
M  V30 6157 O 580.309 1.46435 1.23561 0
M  V30 6158 C 580.503 3.07073 -1.82868 0
M  V30 6159 C 580.332 3.00118 -3.34902 0
M  V30 6160 C 579.102 3.03251 -4.04186 0
M  V30 6161 C 581.3 2.80418 -4.31127 0
M  V30 6162 N 579.282 2.86573 -5.42908 0
M  V30 6163 C 580.653 2.72287 -5.5701 0
M  V30 6164 C 582.708 2.65185 -4.21404 0
M  V30 6165 C 581.411 2.50479 -6.74279 0
M  V30 6166 C 583.437 2.4475 -5.38378 0
M  V30 6167 C 582.799 2.37349 -6.63208 0
M  V30 6168 H 578.898 0.626716 -0.467708 0
M  V30 6169 H 581.482 1.11645 -1.5951 0
M  V30 6170 H 579.653 3.62797 -1.38682 0
M  V30 6171 H 581.385 3.70816 -1.62103 0
M  V30 6172 H 578.14 3.12882 -3.55531 0
M  V30 6173 H 578.564 2.81408 -6.15742 0
M  V30 6174 H 583.206 2.69675 -3.25631 0
M  V30 6175 H 580.924 2.4473 -7.70151 0
M  V30 6176 H 584.51 2.33872 -5.32724 0
M  V30 6177 H 583.39 2.21746 -7.52196 0
M  V30 6178 N 580.893 1.08022 1.14757 0
M  V30 6179 C 581.84 0.706657 2.19716 0
M  V30 6180 C 582.81 -0.30525 1.63271 0
M  V30 6181 O 583.995 -0.19015 1.8985 0
M  V30 6182 C 581.135 0.117914 3.44898 0
M  V30 6183 C 580.248 1.18212 4.15512 0
M  V30 6184 C 579.383 0.557659 5.28265 0
M  V30 6185 C 578.422 1.60418 5.90705 0
M  V30 6186 N 577.559 1.0018 6.94916 0
M  V30 6187 H 582.399 1.60603 2.51019 0
M  V30 6188 H 579.936 0.802664 1.23271 0
M  V30 6189 H 581.894 -0.241112 4.16503 0
M  V30 6190 H 580.524 -0.744788 3.1409 0
M  V30 6191 H 579.576 1.65863 3.42335 0
M  V30 6192 H 580.888 1.97533 4.5802 0
M  V30 6193 H 580.042 0.146654 6.06523 0
M  V30 6194 H 578.781 -0.267249 4.86967 0
M  V30 6195 H 577.786 2.02489 5.11154 0
M  V30 6196 H 579.011 2.43149 6.34078 0
M  V30 6197 H 576.957 0.197917 6.55701 0
M  V30 6198 H 576.874 1.73216 7.35889 0
M  V30 6199 H 578.142 0.616523 7.77058 0
M  V30 6200 N 582.371 -1.3172 0.865308 0
M  V30 6201 C 583.782 -1.79104 0.527126 0
M  V30 6202 C 584.133 -1.7135 -0.955695 0
M  V30 6203 O 583.258 -1.27845 -1.74598 0
M  V30 6204 C 583.853 -3.25207 0.950061 0
M  V30 6205 C 582.412 -3.70504 0.663611 0
M  V30 6206 C 581.559 -2.52605 1.14395 0
M  V30 6207 H 584.51 -1.18868 1.05148 0
M  V30 6208 H 584.531 -3.79535 0.270805 0
M  V30 6209 H 584.043 -3.30818 2.02931 0
M  V30 6210 H 582.144 -3.70398 -0.404474 0
M  V30 6211 H 582.257 -4.62845 1.23737 0
M  V30 6212 H 580.621 -2.4838 0.563859 0
M  V30 6213 H 581.404 -2.60964 2.23053 0
M  V30 6214 N 583.85 -0.624285 -1.44708 0
M  V30 6215 C 584.8 0.106466 -2.27751 0
M  V30 6216 C 585.784 0.822703 -1.38277 0
M  V30 6217 O 586.976 0.709939 -1.62138 0
M  V30 6218 C 584.105 1.092 -3.25469 0
M  V30 6219 C 583.191 0.375737 -4.22432 0
M  V30 6220 N 583.582 -0.591881 -5.02325 0
M  V30 6221 C 581.88 0.621093 -4.41654 0
M  V30 6222 C 582.581 -1.01443 -5.72786 0
M  V30 6223 N 581.557 -0.354651 -5.42442 0
M  V30 6224 H 585.359 -0.636464 -2.86926 0
M  V30 6225 H 582.873 -0.44925 -1.56062 0
M  V30 6226 H 584.87 1.63006 -3.83712 0
M  V30 6227 H 583.529 1.8353 -2.67856 0
M  V30 6228 H 584.541 -0.969389 -5.08747 0
M  V30 6229 H 581.218 1.34779 -3.95147 0
M  V30 6230 H 582.608 -1.81345 -6.46965 0
M  V30 6231 N 585.328 1.53329 -0.364422 0
M  V30 6232 C 586.258 2.28627 0.474543 0
M  V30 6233 C 587.239 1.31009 1.08492 0
M  V30 6234 O 588.424 1.59878 1.10239 0
M  V30 6235 C 585.554 3.07465 1.61501 0
M  V30 6236 C 584.508 4.1276 1.13194 0
M  V30 6237 C 583.834 4.79674 2.36255 0
M  V30 6238 C 585.134 5.21847 0.217507 0
M  V30 6239 H 586.828 2.99005 -0.153656 0
M  V30 6240 H 584.374 1.43803 -0.0753406 0
M  V30 6241 H 586.327 3.58889 2.20855 0
M  V30 6242 H 585.051 2.34775 2.27042 0
M  V30 6243 H 583.71 3.62281 0.56109 0
M  V30 6244 H 583.358 4.03557 3.00251 0
M  V30 6245 H 583.058 5.50827 2.04606 0
M  V30 6246 H 584.582 5.33892 2.96297 0
M  V30 6247 H 585.996 5.6878 0.718493 0
M  V30 6248 H 584.393 6.00099 -0.00806408 0
M  V30 6249 H 585.463 4.7921 -0.740653 0
M  V30 6250 N 586.806 0.0935595 1.57322 0
M  V30 6251 C 587.753 -0.865935 2.1394 0
M  V30 6252 C 588.723 -1.28083 1.05754 0
M  V30 6253 O 589.908 -1.36285 1.33533 0
M  V30 6254 C 587.048 -2.12023 2.72287 0
M  V30 6255 C 586.161 -1.756 3.94701 0
M  V30 6256 C 585.296 -2.95804 4.41218 0
M  V30 6257 C 584.335 -2.555 5.56225 0
M  V30 6258 N 583.472 -3.68534 5.97601 0
M  V30 6259 H 588.312 -0.376261 2.95615 0
M  V30 6260 H 585.849 -0.174052 1.46067 0
M  V30 6261 H 587.807 -2.85477 3.04235 0
M  V30 6262 H 586.437 -2.58492 1.93343 0
M  V30 6263 H 585.489 -0.921208 3.69077 0
M  V30 6264 H 586.801 -1.41964 4.78171 0
M  V30 6265 H 585.955 -3.77513 4.74941 0
M  V30 6266 H 584.694 -3.32649 3.56645 0
M  V30 6267 H 583.699 -1.72218 5.22131 0
M  V30 6268 H 584.924 -2.19801 6.42545 0
M  V30 6269 H 582.87 -4.051 5.15974 0
M  V30 6270 H 582.787 -3.38737 6.75865 0
M  V30 6271 H 584.055 -4.50757 6.35955 0
M  V30 6272 N 588.284 -1.56567 -0.180126 0
M  V30 6273 C 589.247 -1.94852 -1.20686 0
M  V30 6274 C 590.247 -0.831212 -1.3765 0
M  V30 6275 O 591.437 -1.09841 -1.35206 0
M  V30 6276 C 588.569 -2.23565 -2.57355 0
M  V30 6277 H 589.762 -2.86722 -0.879225 0
M  V30 6278 H 587.315 -1.50489 -0.422237 0
M  V30 6279 H 588.05 -1.34381 -2.95148 0
M  V30 6280 H 587.835 -3.04999 -2.46411 0
M  V30 6281 H 589.325 -2.54137 -3.31367 0
M  V30 6282 N 589.762 0.448376 -1.51087 0
M  V30 6283 C 590.692 1.55102 -1.74544 0
M  V30 6284 C 591.673 1.59357 -0.594932 0
M  V30 6285 O 592.858 1.75261 -0.836491 0
M  V30 6286 C 589.988 2.93268 -1.86041 0
M  V30 6287 C 588.942 3.03877 -3.01402 0
M  V30 6288 C 588.268 4.43914 -2.98068 0
M  V30 6289 C 589.568 2.7898 -4.41551 0
M  V30 6290 H 591.262 1.35724 -2.66869 0
M  V30 6291 H 588.808 0.651498 -1.28419 0
M  V30 6292 H 590.761 3.70356 -2.01034 0
M  V30 6293 H 589.485 3.13853 -0.903548 0
M  V30 6294 H 588.144 2.29227 -2.86096 0
M  V30 6295 H 587.792 4.6145 -2.00182 0
M  V30 6296 H 587.492 4.51944 -3.75527 0
M  V30 6297 H 589.016 5.22991 -3.1514 0
M  V30 6298 H 590.43 3.45805 -4.57265 0
M  V30 6299 H 588.827 2.98431 -5.20633 0
M  V30 6300 H 589.897 1.74663 -4.5235 0
M  V30 6301 N 591.24 1.41047 0.703093 0
M  V30 6302 C 592.19 1.38774 1.80903 0
M  V30 6303 C 593.174 0.263275 1.58731 0
M  V30 6304 O 594.366 0.503362 1.69692 0
M  V30 6305 C 591.495 1.26497 3.19145 0
M  V30 6306 C 590.581 2.43775 3.47037 0
M  V30 6307 N 590.972 3.69249 3.45672 0
M  V30 6308 C 589.27 2.37425 3.77552 0
M  V30 6309 C 589.971 4.46989 3.72258 0
M  V30 6310 N 588.947 3.76998 3.91629 0
M  V30 6311 H 592.749 2.33714 1.78199 0
M  V30 6312 H 590.263 1.34996 0.902762 0
M  V30 6313 H 592.26 1.2295 3.98358 0
M  V30 6314 H 590.92 0.32534 3.23066 0
M  V30 6315 H 591.931 4.02239 3.26228 0
M  V30 6316 H 588.608 1.51895 3.88888 0
M  V30 6317 H 589.998 5.55894 3.77402 0
M  V30 6318 N 592.718 -0.936591 1.26751 0
M  V30 6319 C 593.946 -1.71758 1.15355 0
M  V30 6320 C 594.361 -1.86549 -0.290683 0
M  V30 6321 O 593.718 -1.37616 -1.19868 0
M  V30 6322 C 593.769 -3.12193 1.82258 0
M  V30 6323 O 593.49 -2.98105 3.21038 0
M  V30 6324 C 594.991 -4.06485 1.76875 0
M  V30 6325 H 592.211 -0.537636 0.401483 0
M  V30 6326 H 594.755 -1.17382 1.67457 0
M  V30 6327 H 592.91 -3.63456 1.34083 0
M  V30 6328 H 593.324 -3.86824 3.54214 0
M  V30 6329 H 594.798 -5.02569 2.28316 0
M  V30 6330 H 595.275 -4.32986 0.736216 0
M  V30 6331 H 595.881 -3.61144 2.24623 0
M  V30 6332 N 594.196 -1.08629 -1.14182 0
M  V30 6333 C 595.436 -0.826884 -1.86928 0
M  V30 6334 C 595.8 0.635808 -1.81167 0
M  V30 6335 O 597.001 1.0108 -2.49071 0
M  V30 6336 C 595.272 -1.33721 -3.31442 0
M  V30 6337 S 596.831 -1.21045 -4.21774 0
M  V30 6338 H 593.649 -0.299286 -0.644941 0
M  V30 6339 H 596.251 -1.38802 -1.37674 0
M  V30 6340 H 594.955 -2.39617 -3.33184 0
M  V30 6341 H 594.486 -0.771839 -3.85754 0
M  V30 6342 H 596.501 -0.156168 -4.95954 0
M  V30 6343 N 595.674 1.31259 -0.872281 0
M  V30 6344 C 596.899 2.0133 -0.498099 0
M  V30 6345 C 597.324 1.65031 0.902568 0
M  V30 6346 O 596.682 0.860164 1.59596 0
M  V30 6347 C 596.73 3.54411 -0.665205 0
M  V30 6348 O 595.834 4.11347 0.294473 0
M  V30 6349 H 595.175 0.633844 -0.197832 0
M  V30 6350 H 597.705 1.67402 -1.17633 0
M  V30 6351 H 597.715 4.04147 -0.559373 0
M  V30 6352 H 596.39 3.80171 -1.68651 0
M  V30 6353 H 594.967 3.72624 0.143403 0
M  V30 6354 N 597.152 0.631951 1.44375 0
M  V30 6355 C 598.563 0.219036 1.85411 0
M  V30 6356 C 598.914 -1.22974 1.52879 0
M  V30 6357 O 598.039 -1.93579 0.967266 0
M  V30 6358 C 598.634 0.39075 3.36539 0
M  V30 6359 C 597.193 0.0323351 3.76386 0
M  V30 6360 C 596.34 0.703744 2.68221 0
M  V30 6361 H 599.291 0.837056 1.3483 0
M  V30 6362 H 599.312 -0.370056 3.78696 0
M  V30 6363 H 598.824 1.44527 3.60185 0
M  V30 6364 H 596.925 -1.02042 3.58355 0
M  V30 6365 H 597.038 0.442969 4.77048 0
M  V30 6366 H 595.402 0.138974 2.54321 0
M  V30 6367 H 596.185 1.76088 2.947 0
M  V30 6368 N 598.631 -1.53133 0.372548 0
M  V30 6369 C 599.859 -2.05774 -0.215515 0
M  V30 6370 C 600.274 -1.24555 -1.41886 0
M  V30 6371 O 599.631 -0.287951 -1.80214 0
M  V30 6372 C 599.682 -3.5645 -0.602161 0
M  V30 6373 O 599.403 -4.34591 0.553359 0
M  V30 6374 C 600.904 -4.25374 -1.24787 0
M  V30 6375 H 598.124 -0.670009 -0.0364529 0
M  V30 6376 H 600.668 -1.97434 0.532934 0
M  V30 6377 H 598.823 -3.64918 -1.30052 0
M  V30 6378 H 599.237 -5.23954 0.239336 0
M  V30 6379 H 600.711 -5.32097 -1.46891 0
M  V30 6380 H 601.188 -3.79531 -2.21026 0
M  V30 6381 H 601.794 -4.21177 -0.590752 0
M  V30 6382 N 600.109 -0.101901 -1.5727 0
M  V30 6383 C 601.056 0.854577 -2.14396 0
M  V30 6384 C 602.026 1.27521 -1.06432 0
M  V30 6385 O 603.211 1.35575 -1.34253 0
M  V30 6386 C 600.351 2.10576 -2.73408 0
M  V30 6387 C 599.464 1.73504 -3.95626 0
M  V30 6388 C 598.599 2.9346 -4.42781 0
M  V30 6389 C 597.638 2.52547 -5.57572 0
M  V30 6390 N 596.775 3.65359 -5.99547 0
M  V30 6391 H 601.615 0.360578 -2.9581 0
M  V30 6392 H 599.152 0.166303 -1.46157 0
M  V30 6393 H 601.11 2.83859 -3.05745 0
M  V30 6394 H 599.74 2.57463 -1.94711 0
M  V30 6395 H 598.792 0.901622 -3.6956 0
M  V30 6396 H 600.104 1.39426 -4.78917 0
M  V30 6397 H 599.258 3.74988 -4.76937 0
M  V30 6398 H 597.997 3.30753 -3.58404 0
M  V30 6399 H 597.002 1.69446 -5.23037 0
M  V30 6400 H 598.227 2.1639 -6.43702 0
M  V30 6401 H 596.173 4.02358 -5.18116 0
M  V30 6402 H 596.09 3.35148 -6.77652 0
M  V30 6403 H 597.358 4.47378 -6.38336 0
M  V30 6404 N 601.587 1.56661 0.17182 0
M  V30 6405 C 602.534 1.96371 1.21273 0
M  V30 6406 C 603.504 0.82756 1.44016 0
M  V30 6407 O 604.689 1.08764 1.56764 0
M  V30 6408 C 601.829 2.32838 2.54716 0
M  V30 6409 C 600.942 3.59628 2.39356 0
M  V30 6410 C 600.077 3.85311 3.65662 0
M  V30 6411 C 599.116 5.0545 3.45234 0
M  V30 6412 N 598.253 5.27268 4.63608 0
M  V30 6413 H 603.093 2.85106 0.86709 0
M  V30 6414 H 600.63 1.41073 0.416744 0
M  V30 6415 H 602.588 2.52004 3.3249 0
M  V30 6416 H 601.218 1.47214 2.87277 0
M  V30 6417 H 600.27 3.4838 1.52761 0
M  V30 6418 H 601.582 4.4756 2.20207 0
M  V30 6419 H 600.736 4.04841 4.51872 0
M  V30 6420 H 599.475 2.95753 3.8779 0
M  V30 6421 H 598.48 4.85819 2.5741 0
M  V30 6422 H 599.705 5.96538 3.24529 0
M  V30 6423 H 597.651 4.40662 4.85956 0
M  V30 6424 H 597.568 6.09422 4.4737 0
M  V30 6425 H 598.836 5.51277 5.51103 0
M  V30 6426 N 603.065 -0.440357 1.51323 0
M  V30 6427 C 603.975 -1.55955 1.75258 0
M  V30 6428 C 604.991 -1.61933 0.636687 0
M  V30 6429 O 606.167 -1.79231 0.918593 0
M  V30 6430 C 603.232 -2.9196 1.86977 0
M  V30 6431 C 602.293 -2.96122 3.10822 0
M  V30 6432 C 601.526 -4.2564 3.21973 0
M  V30 6433 O 601.749 -5.17851 2.39137 0
M  V30 6434 O 600.683 -4.36025 4.14929 0
M  V30 6435 H 604.509 -1.38673 2.70191 0
M  V30 6436 H 602.094 -0.623055 1.35788 0
M  V30 6437 H 603.976 -3.72682 1.96688 0
M  V30 6438 H 602.651 -3.09375 0.952307 0
M  V30 6439 H 601.558 -2.14366 3.06591 0
M  V30 6440 H 602.891 -2.83651 4.02247 0
M  V30 6441 N 604.543 -1.41418 -0.695603 0
M  V30 6442 C 605.475 -1.39195 -1.82092 0
M  V30 6443 C 606.488 -0.294132 -1.60121 0
M  V30 6444 O 607.677 -0.555854 -1.69625 0
M  V30 6445 C 604.777 -1.14828 -3.18854 0
M  V30 6446 C 603.95 -2.36649 -3.67853 0
M  V30 6447 C 603.009 -2.08139 -4.83285 0
M  V30 6448 O 602.035 -2.81177 -4.94902 0
M  V30 6449 N 603.237 -1.07162 -5.70523 0
M  V30 6450 H 606.002 -2.36185 -1.84491 0
M  V30 6451 H 603.563 -1.3603 -0.877923 0
M  V30 6452 H 605.555 -0.937075 -3.93702 0
M  V30 6453 H 604.125 -0.264358 -3.1148 0
M  V30 6454 H 603.345 -2.73472 -2.83913 0
M  V30 6455 H 604.633 -3.17816 -3.97329 0
M  V30 6456 H 604.031 -0.467124 -5.63768 0
M  V30 6457 H 602.588 -0.920311 -6.4527 0
M  V30 6458 N 606.021 0.929856 -1.27246 0
M  V30 6459 C 607.269 1.674 -1.13233 0
M  V30 6460 C 607.59 1.92311 0.322744 0
M  V30 6461 O 606.86 1.52784 1.22612 0
M  V30 6462 H 605.44 0.620411 -0.416052 0
M  V30 6463 H 608.102 1.11663 -1.59741 0
M  V30 6464 H 607.198 2.64308 -1.65975 0
M  V30 6465 N 607.499 1.09233 1.13605 0
M  V30 6466 C 608.409 0.741939 2.22559 0
M  V30 6467 C 609.425 -0.255236 1.72118 0
M  V30 6468 O 610.601 -0.0970747 2.01166 0
M  V30 6469 C 607.666 0.165595 3.46304 0
M  V30 6470 C 606.727 1.21846 4.11645 0
M  V30 6471 C 605.96 0.669526 5.29484 0
M  V30 6472 O 606.183 -0.508228 5.68131 0
M  V30 6473 O 605.117 1.42361 5.84822 0
M  V30 6474 H 608.943 1.65107 2.54899 0
M  V30 6475 H 606.528 0.866584 1.21699 0
M  V30 6476 H 608.41 -0.152592 4.21124 0
M  V30 6477 H 607.085 -0.716573 3.15669 0
M  V30 6478 H 605.992 1.58931 3.38662 0
M  V30 6479 H 607.325 2.07321 4.46407 0
M  V30 6480 N 608.977 -1.30795 0.87923 0
M  V30 6481 C 609.94 -2.26563 0.346676 0
M  V30 6482 C 610.94 -1.52578 -0.507597 0
M  V30 6483 O 612.13 -1.71318 -0.315575 0
M  V30 6484 C 609.262 -3.37115 -0.506611 0
M  V30 6485 H 610.455 -2.75183 1.19223 0
M  V30 6486 H 608.008 -1.41886 0.655598 0
M  V30 6487 H 608.743 -2.93802 -1.37299 0
M  V30 6488 H 608.528 -3.91959 0.105218 0
M  V30 6489 H 610.018 -4.08412 -0.871192 0
M  V30 6490 N 610.455 -0.639598 -1.44038 0
M  V30 6491 C 611.68 -0.153117 -2.06834 0
M  V30 6492 C 612.105 1.16676 -1.47541 0
M  V30 6493 O 611.463 1.71769 -0.580093 0
M  V30 6494 C 611.511 -0.0609169 -3.60549 0
M  V30 6495 O 610.615 0.98071 -4.00569 0
M  V30 6496 H 609.956 -0.0886402 -0.658057 0
M  V30 6497 H 612.486 -0.878674 -1.84771 0
M  V30 6498 H 612.496 0.126892 -4.07803 0
M  V30 6499 H 611.171 -1.0245 -4.03084 0
M  V30 6500 H 609.748 0.766789 -3.64931 0
M  V30 6501 N 611.933 1.52934 -0.380664 0
M  V30 6502 C 613.158 2.06363 0.207157 0
M  V30 6503 C 613.583 1.25122 1.4045 0
M  V30 6504 O 612.941 0.274062 1.79217 0
M  V30 6505 C 612.989 3.56162 0.563996 0
M  V30 6506 O 612.093 3.77552 1.65917 0
M  V30 6507 H 611.434 0.663468 0.0265859 0
M  V30 6508 H 613.964 1.9719 -0.545635 0
M  V30 6509 H 613.974 3.99453 0.830752 0
M  V30 6510 H 612.649 4.14732 -0.311427 0
M  V30 6511 H 611.226 3.46154 1.3868 0
M  V30 6512 N 613.412 0.11024 1.57214 0
M  V30 6513 C 614.637 -0.561179 1.99664 0
M  V30 6514 C 615.062 -1.59985 0.989266 0
M  V30 6515 O 614.42 -1.81255 -0.0402399 0
M  V30 6516 C 614.468 -1.17189 3.41027 0
M  V30 6517 O 613.572 -2.28755 3.4314 0
M  V30 6518 H 612.913 -0.14101 0.648855 0
M  V30 6519 H 615.443 0.196128 2.03658 0
M  V30 6520 H 615.453 -1.50954 3.79047 0
M  V30 6521 H 614.128 -0.411041 4.13864 0
M  V30 6522 H 612.705 -1.96495 3.16929 0
M  V30 6523 N 614.89 -1.56749 -0.16351 0
M  V30 6524 C 615.822 -1.93587 -1.22705 0
M  V30 6525 C 616.835 -0.829824 -1.40063 0
M  V30 6526 O 618.024 -1.10826 -1.39928 0
M  V30 6527 C 615.124 -2.1803 -2.59454 0
M  V30 6528 C 614.297 -3.4928 -2.63292 0
M  V30 6529 C 613.356 -3.62457 -3.8146 0
M  V30 6530 O 612.382 -4.35004 -3.67096 0
M  V30 6531 N 613.584 -2.97888 -4.9824 0
M  V30 6532 H 616.349 -2.8542 -0.914081 0
M  V30 6533 H 613.91 -1.58 -0.353214 0
M  V30 6534 H 615.902 -2.24102 -3.36987 0
M  V30 6535 H 614.472 -1.32543 -2.8311 0
M  V30 6536 H 613.692 -3.54795 -1.71796 0
M  V30 6537 H 614.98 -4.35632 -2.62873 0
M  V30 6538 H 614.378 -2.38833 -5.12811 0
M  V30 6539 H 612.935 -3.09545 -5.73607 0
M  V30 6540 N 616.368 0.432326 -1.51554 0
M  V30 6541 C 617.315 1.52512 -1.7323 0
M  V30 6542 C 618.285 1.55863 -0.5741 0
M  V30 6543 O 619.47 1.72796 -0.809093 0
M  V30 6544 C 616.61 2.90183 -1.86783 0
M  V30 6545 C 615.723 2.96322 -3.14352 0
M  V30 6546 C 614.858 4.25147 -3.18471 0
M  V30 6547 C 613.897 4.25172 -4.40335 0
M  V30 6548 N 613.034 5.45529 -4.41975 0
M  V30 6549 H 617.874 1.33332 -2.66508 0
M  V30 6550 H 615.411 0.647613 -1.32077 0
M  V30 6551 H 617.369 3.70071 -1.92623 0
M  V30 6552 H 615.999 3.0791 -0.969087 0
M  V30 6553 H 615.051 2.09066 -3.17798 0
M  V30 6554 H 616.363 2.92203 -4.04251 0
M  V30 6555 H 615.517 5.13411 -3.23255 0
M  V30 6556 H 614.256 4.31929 -2.2647 0
M  V30 6557 H 613.261 3.353 -4.35723 0
M  V30 6558 H 614.486 4.20049 -5.33606 0
M  V30 6559 H 612.432 5.53024 -3.52847 0
M  V30 6560 H 612.349 5.43311 -5.25689 0
M  V30 6561 H 613.617 6.35812 -4.50958 0
M  V30 6562 N 617.846 1.41785 0.688094 0
M  V30 6563 C 618.776 1.47 1.8142 0
M  V30 6564 C 619.757 0.327881 1.6691 0
M  V30 6565 O 620.942 0.540362 1.86531 0
M  V30 6566 C 618.072 1.35876 3.19617 0
M  V30 6567 C 617.026 2.47976 3.48844 0
M  V30 6568 C 616.352 2.21915 4.86475 0
M  V30 6569 C 617.652 3.90309 3.47068 0
M  V30 6570 H 619.346 2.41247 1.77314 0
M  V30 6571 H 616.892 1.16116 0.851651 0
M  V30 6572 H 618.845 1.38134 3.98117 0
M  V30 6573 H 617.569 0.38116 3.24368 0
M  V30 6574 H 616.228 2.45013 2.72698 0
M  V30 6575 H 615.876 1.2248 4.8786 0
M  V30 6576 H 615.576 2.97037 5.06994 0
M  V30 6577 H 617.1 2.25901 5.67275 0
M  V30 6578 H 618.514 3.94947 4.1556 0
M  V30 6579 H 616.911 4.65175 3.7912 0
M  V30 6580 H 617.981 4.17927 2.45896 0
M  V30 6581 N 619.324 -0.923095 1.27737 0
M  V30 6582 C 620.549 -1.71054 1.17283 0
M  V30 6583 C 620.974 -1.86208 -0.266153 0
M  V30 6584 O 620.332 -1.36545 -1.1927 0
M  V30 6585 C 620.38 -3.0854 1.86642 0
M  V30 6586 O 619.484 -3.95528 1.16752 0
M  V30 6587 H 618.825 -0.524136 0.407649 0
M  V30 6588 H 621.355 -1.15487 1.6889 0
M  V30 6589 H 621.365 -3.58828 1.94182 0
M  V30 6590 H 620.04 -2.96828 2.91317 0
M  V30 6591 H 618.617 -3.53967 1.17312 0
M  V30 6592 N 620.802 -1.09834 -1.13024 0
M  V30 6593 C 622.049 -0.83695 -1.84395 0
M  V30 6594 C 622.377 0.637463 -1.83757 0
M  V30 6595 O 621.632 1.48554 -1.27398 0
M  V30 6596 C 621.931 -1.32263 -3.32026 0
M  V30 6597 C 621.597 -2.80739 -3.52841 0
M  V30 6598 C 620.259 -3.21286 -3.5823 0
M  V30 6599 C 622.611 -3.76449 -3.60466 0
M  V30 6600 C 619.939 -4.56308 -3.68781 0
M  V30 6601 C 622.291 -5.11266 -3.72546 0
M  V30 6602 C 620.955 -5.51397 -3.76189 0
M  V30 6603 H 620.225 -0.306262 -0.674748 0
M  V30 6604 H 622.872 -1.37385 -1.33408 0
M  V30 6605 H 621.177 -0.705618 -3.85394 0
M  V30 6606 H 622.874 -1.09695 -3.85705 0
M  V30 6607 H 619.464 -2.48363 -3.49305 0
M  V30 6608 H 623.648 -3.46234 -3.55578 0
M  V30 6609 H 618.904 -4.86832 -3.69871 0
M  V30 6610 H 623.078 -5.85279 -3.77388 0
M  V30 6611 H 620.705 -6.56017 -3.84117 0
M  V30 6612 N 622.28 1.30327 -0.886154 0
M  V30 6613 C 623.227 2.28099 -0.352069 0
M  V30 6614 C 624.197 1.56433 0.558397 0
M  V30 6615 O 625.382 1.84492 0.486561 0
M  V30 6616 C 622.522 3.42456 0.426346 0
M  V30 6617 C 621.635 4.28938 -0.513472 0
M  V30 6618 C 620.77 5.30458 0.280657 0
M  V30 6619 C 619.809 6.0859 -0.654556 0
M  V30 6620 N 618.946 7.02022 0.104322 0
M  V30 6621 H 623.786 2.73166 -1.19097 0
M  V30 6622 H 621.323 1.34367 -0.598662 0
M  V30 6623 H 623.281 4.07518 0.893587 0
M  V30 6624 H 621.911 2.98455 1.22981 0
M  V30 6625 H 620.963 3.64173 -1.09921 0
M  V30 6626 H 622.275 4.83399 -1.2299 0
M  V30 6627 H 621.429 6.01273 0.8097 0
M  V30 6628 H 620.168 4.76693 1.03029 0
M  V30 6629 H 619.173 5.36651 -1.19522 0
M  V30 6630 H 620.398 6.64443 -1.4033 0
M  V30 6631 H 618.344 6.50645 0.836472 0
M  V30 6632 H 618.261 7.53979 -0.552453 0
M  V30 6633 H 619.529 7.77077 0.614069 0
M  V30 6634 N 623.758 0.647228 1.43697 0
M  V30 6635 C 624.668 -0.0487997 2.34549 0
M  V30 6636 C 625.684 -0.818586 1.53542 0
M  V30 6637 O 626.86 -0.767195 1.86215 0
M  V30 6638 C 623.925 -1.00734 3.31743 0
M  V30 6639 C 622.986 -0.23515 4.28655 0
M  V30 6640 C 622.219 -1.14803 5.21206 0
M  V30 6641 O 622.442 -2.38717 5.18045 0
M  V30 6642 O 621.376 -0.623667 5.9866 0
M  V30 6643 H 625.202 0.698863 2.9555 0
M  V30 6644 H 622.787 0.407412 1.43738 0
M  V30 6645 H 624.669 -1.55837 3.91526 0
M  V30 6646 H 623.344 -1.73534 2.73254 0
M  V30 6647 H 622.251 0.359319 3.7237 0
M  V30 6648 H 623.584 0.453152 4.9011 0
M  V30 6649 N 625.236 -1.5273 0.388769 0
M  V30 6650 C 626.652 -1.59553 0.0387049 0
M  V30 6651 C 626.852 -1.40278 -1.44652 0
M  V30 6652 O 625.908 -1.21951 -2.21098 0
M  V30 6653 C 627.221 -2.9625 0.515409 0
M  V30 6654 C 628.769 -3.09426 0.471621 0
M  V30 6655 C 629.244 -4.48572 0.924505 0
M  V30 6656 N 630.735 -4.54754 0.880496 0
M  V30 6657 C 631.47 -5.60653 1.20234 0
M  V30 6658 N 630.966 -6.74198 1.59463 0
M  V30 6659 N 632.759 -5.50755 1.12363 0
M  V30 6660 H 624.91 -1.63508 1.35569 0
M  V30 6661 H 627.173 -0.768097 0.555636 0
M  V30 6662 H 626.879 -3.15569 1.5527 0
M  V30 6663 H 626.753 -3.77102 -0.085792 0
M  V30 6664 H 629.14 -2.89804 -0.556588 0
M  V30 6665 H 629.221 -2.30528 1.10862 0
M  V30 6666 H 628.865 -4.68936 1.95094 0
M  V30 6667 H 628.795 -5.25935 0.264524 0
M  V30 6668 H 631.286 -3.73237 0.591815 0
M  V30 6669 H 631.599 -7.5097 1.82385 0
M  V30 6670 H 629.944 -6.75531 1.63349 0
M  V30 6671 H 633.135 -4.6093 0.816169 0
M  V30 6672 H 633.308 -6.33184 1.37777 0
M  V30 6673 N 626.714 -0.118576 -1.57153 0
M  V30 6674 C 627.96 0.540326 -1.95469 0
M  V30 6675 C 628.293 1.66356 -1.00196 0
M  V30 6676 O 627.568 1.94461 -0.039104 0
M  V30 6677 C 627.851 1.07342 -3.43729 0
M  V30 6678 C 627.704 -0.0463732 -4.49776 0
M  V30 6679 C 629.023 1.96442 -3.93826 0
M  V30 6680 H 626.142 0.19494 -0.710751 0
M  V30 6681 H 628.784 -0.19405 -1.89006 0
M  V30 6682 H 626.934 1.69925 -3.49368 0
M  V30 6683 H 628.606 -0.681648 -4.56236 0
M  V30 6684 H 626.849 -0.709574 -4.27957 0
M  V30 6685 H 627.52 0.367856 -5.50773 0
M  V30 6686 H 629.996 1.43731 -3.90488 0
M  V30 6687 H 628.872 2.3066 -4.98084 0
M  V30 6688 H 629.133 2.89077 -3.34495 0
M  V30 6689 N 628.193 1.56834 0.155195 0
M  V30 6690 C 629.609 1.51315 0.50755 0
M  V30 6691 C 629.809 0.825614 1.83809 0
M  V30 6692 O 628.865 0.39271 2.49427 0
M  V30 6693 C 630.178 2.96074 0.52542 0
M  V30 6694 C 631.726 3.06968 0.611505 0
M  V30 6695 C 632.201 4.53218 0.660115 0
M  V30 6696 N 633.692 4.5753 0.722564 0
M  V30 6697 C 634.427 5.68056 0.781023 0
M  V30 6698 N 633.923 6.88173 0.799327 0
M  V30 6699 N 635.716 5.56068 0.821278 0
M  V30 6700 H 627.867 1.9993 -0.717063 0
M  V30 6701 H 630.13 0.911507 -0.260496 0
M  V30 6702 H 629.836 3.49599 -0.383875 0
M  V30 6703 H 629.71 3.51587 1.36624 0
M  V30 6704 H 632.097 2.53468 1.51122 0
M  V30 6705 H 632.178 2.54513 -0.256306 0
M  V30 6706 H 631.822 5.07354 -0.23541 0
M  V30 6707 H 631.752 5.03447 1.5443 0
M  V30 6708 H 634.243 3.71054 0.716049 0
M  V30 6709 H 634.556 7.6816 0.845553 0
M  V30 6710 H 632.901 6.90751 0.767337 0
M  V30 6711 H 636.092 4.61142 0.804091 0
M  V30 6712 H 636.265 6.42223 0.863372 0
M  V30 6713 N 629.671 -0.424282 1.51781 0
M  V30 6714 C 630.604 -1.53633 1.68737 0
M  V30 6715 C 631.582 -1.53549 0.534915 0
M  V30 6716 O 632.766 -1.72483 0.760391 0
M  V30 6717 C 629.893 -2.92195 1.71288 0
M  V30 6718 C 628.939 -3.10251 2.92654 0
M  V30 6719 S 629.772 -2.85166 4.53256 0
M  V30 6720 C 630.928 -4.25986 4.58571 0
M  V30 6721 H 631.161 -1.39018 2.62795 0
M  V30 6722 H 628.694 -0.614854 1.41629 0
M  V30 6723 H 630.652 -3.72059 1.73443 0
M  V30 6724 H 629.313 -3.04162 0.783847 0
M  V30 6725 H 628.506 -4.1159 2.90877 0
M  V30 6726 H 628.108 -2.38231 2.88308 0
M  V30 6727 H 630.4 -5.19392 4.35015 0
M  V30 6728 H 631.343 -4.32792 5.60444 0
M  V30 6729 H 631.751 -4.1025 3.87757 0
M  V30 6730 N 631.149 -1.42148 -0.680565 0
M  V30 6731 C 632.112 -1.4488 -1.77602 0
M  V30 6732 C 633.112 -0.337209 -1.57224 0
M  V30 6733 O 634.302 -0.597778 -1.63622 0
M  V30 6734 C 631.434 -1.27483 -3.16166 0
M  V30 6735 H 632.627 -2.42412 -1.76568 0
M  V30 6736 H 630.18 -1.28511 -0.889645 0
M  V30 6737 H 630.915 -0.30851 -3.22829 0
M  V30 6738 H 630.7 -2.08037 -3.3236 0
M  V30 6739 H 632.19 -1.32265 -3.96101 0
M  V30 6740 N 632.627 0.916307 -1.28225 0
M  V30 6741 C 633.852 1.7043 -1.18188 0
M  V30 6742 C 634.277 1.86346 0.256274 0
M  V30 6743 O 633.635 1.37175 1.18544 0
M  V30 6744 C 633.683 3.07546 -1.88275 0
M  V30 6745 O 632.787 3.94904 -1.18848 0
M  V30 6746 H 632.128 0.521967 -0.410423 0
M  V30 6747 H 634.658 1.14589 -1.69501 0
M  V30 6748 H 634.668 3.57793 -1.96082 0
M  V30 6749 H 633.343 2.95279 -2.92887 0
M  V30 6750 H 631.92 3.53339 -1.19187 0
M  V30 6751 N 634.105 1.10431 1.1244 0
M  V30 6752 C 635.516 0.864439 1.65482 0
M  V30 6753 C 635.867 -0.60527 1.8663 0
M  V30 6754 O 634.992 -1.46492 1.59276 0
M  V30 6755 C 635.587 1.56267 3.0061 0
M  V30 6756 C 634.146 1.3695 3.50602 0
M  V30 6757 C 633.293 1.61209 2.25626 0
M  V30 6758 H 636.244 1.26203 0.962209 0
M  V30 6759 H 636.265 1.00166 3.67079 0
M  V30 6760 H 635.777 2.63231 2.85186 0
M  V30 6761 H 633.878 0.321481 3.71211 0
M  V30 6762 H 633.991 2.11143 4.30064 0
M  V30 6763 H 632.355 1.03482 2.32731 0
M  V30 6764 H 633.138 2.69425 2.12756 0
M  V30 6765 N 635.583 -1.29855 0.893053 0
M  V30 6766 C 636.999 -1.48366 0.588199 0
M  V30 6767 C 637.199 -1.81654 -0.872018 0
M  V30 6768 O 636.255 -1.909 -1.65268 0
M  V30 6769 C 637.568 -2.60136 1.5083 0
M  V30 6770 C 639.116 -2.74014 1.51279 0
M  V30 6771 C 639.591 -3.88905 2.41902 0
M  V30 6772 N 641.082 -3.96228 2.39911 0
M  V30 6773 C 641.817 -4.84458 3.06738 0
M  V30 6774 N 641.313 -5.77426 3.8282 0
M  V30 6775 N 643.106 -4.77894 2.95929 0
M  V30 6776 H 635.257 -1.06522 1.83757 0
M  V30 6777 H 637.52 -0.528495 0.787018 0
M  V30 6778 H 637.226 -2.42383 2.54839 0
M  V30 6779 H 637.1 -3.56793 1.22388 0
M  V30 6780 H 639.487 -2.91167 0.480179 0
M  V30 6781 H 639.568 -1.77952 1.83757 0
M  V30 6782 H 639.212 -3.72508 3.45253 0
M  V30 6783 H 639.142 -4.84322 2.06737 0
M  V30 6784 H 641.633 -3.29728 1.84629 0
M  V30 6785 H 641.946 -6.41529 4.30883 0
M  V30 6786 H 640.291 -5.77332 3.86927 0
M  V30 6787 H 643.482 -4.04248 2.36012 0
M  V30 6788 H 643.655 -5.46444 3.48286 0
M  V30 6789 N 637.061 -0.65484 -1.43351 0
M  V30 6790 C 638.309 -0.168559 -2.01396 0
M  V30 6791 C 638.63 1.22235 -1.51933 0
M  V30 6792 O 637.9 1.81685 -0.732627 0
M  V30 6793 H 636.48 -0.0593244 -0.744641 0
M  V30 6794 H 639.142 -0.846871 -1.75539 0
M  V30 6795 H 638.238 -0.154428 -3.11718 0
M  V30 6796 N 638.539 1.52521 -0.396863 0
M  V30 6797 C 639.471 2.24333 0.469814 0
M  V30 6798 C 640.484 1.2685 1.02043 0
M  V30 6799 O 641.673 1.52876 0.92147 0
M  V30 6800 C 638.773 2.95202 1.66461 0
M  V30 6801 C 637.946 4.19454 1.24003 0
M  V30 6802 C 637.005 4.73255 2.30036 0
M  V30 6803 O 636.031 5.36151 1.91131 0
M  V30 6804 N 637.233 4.53765 3.62047 0
M  V30 6805 H 639.998 2.99347 -0.145468 0
M  V30 6806 H 637.559 1.60348 -0.223606 0
M  V30 6807 H 639.551 3.28092 2.36934 0
M  V30 6808 H 638.121 2.2345 2.18607 0
M  V30 6809 H 637.341 3.92517 0.363892 0
M  V30 6810 H 638.629 5.0017 0.933135 0
M  V30 6811 H 638.027 4.03576 3.96412 0
M  V30 6812 H 636.584 4.91124 4.28533 0
M  V30 6813 N 640.017 0.126909 1.57088 0
M  V30 6814 C 641.242 -0.53997 2.00248 0
M  V30 6815 C 641.667 -1.58927 1.00618 0
M  V30 6816 O 641.025 -1.81288 -0.0210131 0
M  V30 6817 C 641.073 -1.13565 3.4225 0
M  V30 6818 O 640.177 -2.25103 3.45547 0
M  V30 6819 H 639.518 -0.13412 0.650314 0
M  V30 6820 H 642.048 0.217718 2.03438 0
M  V30 6821 H 642.058 -1.46925 3.80627 0
M  V30 6822 H 640.733 -0.367122 4.14277 0
M  V30 6823 H 639.31 -1.93123 3.18995 0
M  V30 6824 N 641.495 -1.56914 -0.146875 0
M  V30 6825 C 642.744 -1.82546 -0.857898 0
M  V30 6826 C 643.057 -0.708169 -1.8233 0
M  V30 6827 O 644.263 -0.850093 -2.57848 0
M  V30 6828 C 642.719 -3.23548 -1.57623 0
M  V30 6829 C 642.327 -4.43212 -0.653224 0
M  V30 6830 C 644.071 -3.58453 -2.27402 0
M  V30 6831 C 641.978 -5.75237 -1.37318 0
M  V30 6832 H 640.908 -0.680786 -0.32411 0
M  V30 6833 H 643.559 -1.83166 -0.110639 0
M  V30 6834 H 641.941 -3.17315 -2.36912 0
M  V30 6835 H 643.115 -4.60682 0.104452 0
M  V30 6836 H 641.43 -4.16351 -0.0638336 0
M  V30 6837 H 644.027 -4.54349 -2.81907 0
M  V30 6838 H 644.37 -2.84516 -3.03901 0
M  V30 6839 H 644.903 -3.66347 -1.55032 0
M  V30 6840 H 641.642 -6.52269 -0.650041 0
M  V30 6841 H 641.162 -5.61703 -2.10357 0
M  V30 6842 H 642.841 -6.18039 -1.91406 0
M  V30 6843 N 642.974 0.416227 -1.52004 0
M  V30 6844 C 643.921 1.50666 -1.74838 0
M  V30 6845 C 644.891 1.55245 -0.590599 0
M  V30 6846 O 646.076 1.71928 -0.827374 0
M  V30 6847 C 643.216 2.88185 -1.89851 0
M  V30 6848 C 642.329 2.92971 -3.17478 0
M  V30 6849 C 641.464 4.21745 -3.22962 0
M  V30 6850 C 640.503 4.20478 -4.4482 0
M  V30 6851 N 639.64 5.40811 -4.47736 0
M  V30 6852 H 644.48 1.30498 -2.67907 0
M  V30 6853 H 642.017 0.633568 -1.32757 0
M  V30 6854 H 643.975 3.68007 -1.96537 0
M  V30 6855 H 642.605 3.06865 -1.00169 0
M  V30 6856 H 641.657 2.05684 -3.19997 0
M  V30 6857 H 642.969 2.87899 -4.07328 0
M  V30 6858 H 642.123 5.09954 -3.28682 0
M  V30 6859 H 640.862 4.29503 -2.31038 0
M  V30 6860 H 639.867 3.30659 -4.39254 0
M  V30 6861 H 641.092 4.14366 -5.38031 0
M  V30 6862 H 639.038 5.4925 -3.58692 0
M  V30 6863 H 638.955 5.37705 -5.31422 0
M  V30 6864 H 640.223 6.30993 -4.57676 0
M  V30 6865 N 644.452 1.42507 0.673017 0
M  V30 6866 C 645.677 1.4668 1.46627 0
M  V30 6867 C 646.102 0.080066 1.8793 0
M  V30 6868 O 645.46 -0.921879 1.56112 0
M  V30 6869 C 645.508 2.40091 2.69051 0
M  V30 6870 O 644.612 1.8735 3.67387 0
M  V30 6871 H 643.953 0.496908 0.44043 0
M  V30 6872 H 646.483 1.87215 0.825334 0
M  V30 6873 H 646.493 2.56731 3.17101 0
M  V30 6874 H 645.168 3.4084 2.3833 0
M  V30 6875 H 643.745 1.80274 3.26429 0
M  V30 6876 N 645.93 -0.909495 1.28709 0
M  V30 6877 C 647.346 -1.18862 1.06508 0
M  V30 6878 C 647.546 -2.00604 -0.189864 0
M  V30 6879 O 646.602 -2.36281 -0.890355 0
M  V30 6880 C 647.915 -1.91908 2.31499 0
M  V30 6881 C 649.463 -2.04773 2.36721 0
M  V30 6882 C 649.938 -2.81228 3.6149 0
M  V30 6883 N 651.429 -2.88787 3.62155 0
M  V30 6884 C 652.164 -3.48455 4.55375 0
M  V30 6885 N 651.66 -4.09369 5.58918 0
M  V30 6886 N 653.453 -3.46035 4.42963 0
M  V30 6887 H 645.604 -0.363867 2.0926 0
M  V30 6888 H 647.867 -0.223649 0.921241 0
M  V30 6889 H 647.573 -1.39275 3.22948 0
M  V30 6890 H 647.447 -2.92436 2.38245 0
M  V30 6891 H 649.834 -2.56585 1.45767 0
M  V30 6892 H 649.915 -1.03408 2.33967 0
M  V30 6893 H 649.559 -2.30094 4.5279 0
M  V30 6894 H 649.489 -3.82917 3.61499 0
M  V30 6895 H 651.98 -2.45514 2.87283 0
M  V30 6896 H 652.293 -4.52891 6.26187 0
M  V30 6897 H 650.638 -4.0786 5.62739 0
M  V30 6898 H 653.829 -2.9766 3.6127 0
M  V30 6899 H 654.002 -3.92244 5.15799 0
M  V30 6900 N 647.408 -1.11026 -1.11852 0
M  V30 6901 C 648.34 -0.72249 -2.17515 0
M  V30 6902 C 649.353 0.243782 -1.60964 0
M  V30 6903 O 650.542 0.0273252 -1.78479 0
M  V30 6904 C 647.642 -0.0463979 -3.38868 0
M  V30 6905 C 646.815 -1.0384 -4.24895 0
M  V30 6906 C 645.874 -0.392659 -5.24733 0
M  V30 6907 O 644.9 -1.0453 -5.5952 0
M  V30 6908 N 646.102 0.846296 -5.74298 0
M  V30 6909 H 648.867 -1.63161 -2.51393 0
M  V30 6910 H 646.428 -0.999899 -1.27333 0
M  V30 6911 H 648.42 0.397215 -4.02746 0
M  V30 6912 H 646.99 0.765231 -3.03089 0
M  V30 6913 H 646.21 -1.6601 -3.57539 0
M  V30 6914 H 647.498 -1.70968 -4.79215 0
M  V30 6915 H 646.896 1.39578 -5.4821 0
M  V30 6916 H 645.453 1.23296 -6.40032 0
M  V30 6917 N 648.886 1.2938 -0.899927 0
M  V30 6918 C 649.849 2.25983 -0.382677 0
M  V30 6919 C 650.849 1.53366 0.483259 0
M  V30 6920 O 652.039 1.71798 0.28828 0
M  V30 6921 C 649.171 3.37878 0.452915 0
M  V30 6922 H 650.364 2.73252 -1.23586 0
M  V30 6923 H 647.917 1.40825 -0.678088 0
M  V30 6924 H 648.652 2.95949 1.32608 0
M  V30 6925 H 648.437 3.91742 -0.167562 0
M  V30 6926 H 649.927 4.09746 0.806107 0
M  V30 6927 N 650.364 0.662433 1.43002 0
M  V30 6928 C 651.589 0.186003 2.06564 0
M  V30 6929 C 652.014 -1.14314 1.49379 0
M  V30 6930 O 651.372 -1.70824 0.607346 0
M  V30 6931 C 651.42 0.118269 3.60406 0
M  V30 6932 O 650.524 -0.916859 4.02079 0
M  V30 6933 H 649.865 0.0990981 0.656563 0
M  V30 6934 H 652.395 0.907958 1.8335 0
M  V30 6935 H 652.405 -0.0619981 4.07953 0
M  V30 6936 H 651.08 1.08849 4.01403 0
M  V30 6937 H 649.657 -0.708635 3.66105 0
M  V30 6938 N 651.842 -1.52309 0.404946 0
M  V30 6939 C 653.088 -2.02065 -0.172455 0
M  V30 6940 C 653.421 -1.29022 -1.45145 0
M  V30 6941 O 652.696 -0.395284 -1.90441 0
M  V30 6942 C 652.979 -3.5759 -0.424433 0
M  V30 6943 C 652.832 -4.41287 0.870945 0
M  V30 6944 C 654.151 -4.23186 -1.20837 0
M  V30 6945 H 651.27 -0.734454 -0.0612035 0
M  V30 6946 H 653.912 -1.82236 0.53759 0
M  V30 6947 H 652.062 -3.74617 -1.02929 0
M  V30 6948 H 653.734 -4.3598 1.50729 0
M  V30 6949 H 651.977 -4.07669 1.48284 0
M  V30 6950 H 652.648 -5.48171 0.649083 0
M  V30 6951 H 655.124 -4.10232 -0.696338 0
M  V30 6952 H 654 -5.31953 -1.35343 0
M  V30 6953 H 654.261 -3.81862 -2.22786 0
M  V30 6954 N 653.32 -0.135238 -1.57019 0
M  V30 6955 C 654.568 0.51777 -1.95355 0
M  V30 6956 C 654.889 1.6617 -1.02042 0
M  V30 6957 O 654.159 1.95738 -0.0797343 0
M  V30 6958 H 652.739 0.194264 -0.721298 0
M  V30 6959 H 655.401 -0.207983 -1.93787 0
M  V30 6960 H 654.497 0.901675 -2.98791 0
M  V30 6961 N 654.798 1.5699 0.138552 0
M  V30 6962 C 656.075 1.74741 0.87891 0
M  V30 6963 C 656.455 0.705522 1.98961 0
M  V30 6964 O 655.803 -0.274066 2.2685 0
M  V30 6965 C 656.013 3.1909 1.4136 0
M  V30 6966 C 657.361 3.81023 1.87368 0
M  V30 6967 O 658.385 3.22571 1.51084 0
M  V30 6968 O 657.244 4.83722 2.54312 0
M  V30 6969 H 654.338 0.714781 0.415953 0
M  V30 6970 H 656.884 1.69248 0.123817 0
M  V30 6971 H 655.656 3.86424 0.61579 0
M  V30 6972 H 655.279 3.29043 2.23196 0
M  V30 6973 N 656.276 -0.40816 1.52223 0
M  V30 6974 C 657.692 -0.74685 1.41047 0
M  V30 6975 C 657.892 -1.94788 0.51573 0
M  V30 6976 O 656.948 -2.52494 -0.0181156 0
M  V30 6977 C 658.261 -0.999878 2.83589 0
M  V30 6978 C 659.809 -1.10253 2.92939 0
M  V30 6979 C 660.284 -1.38832 4.36451 0
M  V30 6980 N 661.775 -1.45694 4.3969 0
M  V30 6981 C 662.51 -1.69435 5.47795 0
M  V30 6982 N 662.006 -1.90774 6.66016 0
M  V30 6983 N 663.799 -1.71458 5.35312 0
M  V30 6984 H 655.95 0.382409 2.08929 0
M  V30 6985 H 658.213 0.108807 0.941735 0
M  V30 6986 H 657.919 -0.189723 3.51188 0
M  V30 6987 H 657.793 -1.91978 3.24691 0
M  V30 6988 H 660.18 -1.90328 2.2552 0
M  V30 6989 H 660.261 -0.160973 2.55293 0
M  V30 6990 H 659.905 -0.592741 5.04429 0
M  V30 6991 H 659.835 -2.34241 4.71634 0
M  V30 6992 H 662.326 -1.3099 3.54472 0
M  V30 6993 H 662.639 -2.08342 7.44186 0
M  V30 6994 H 660.984 -1.88037 6.69079 0
M  V30 6995 H 664.175 -1.54326 4.41929 0
M  V30 6996 H 664.348 -1.89621 6.19635 0
M  V30 6997 N 657.755 -1.42862 -0.66545 0
M  V30 6998 C 659.171 -1.25993 -0.979687 0
M  V30 6999 C 659.371 -0.170831 -2.00775 0
M  V30 7000 O 658.427 0.454827 -2.4837 0
M  V30 7001 C 659.74 -2.62005 -1.47559 0
M  V30 7002 C 661.288 -2.69437 -1.59288 0
M  V30 7003 C 661.763 -4.05838 -2.12272 0
M  V30 7004 N 663.254 -4.0784 -2.19592 0
M  V30 7005 C 663.989 -5.10205 -2.61684 0
M  V30 7006 N 663.485 -6.22949 -3.03161 0
M  V30 7007 N 665.278 -4.9756 -2.61516 0
M  V30 7008 H 657.429 -2.12395 0.0150493 0
M  V30 7009 H 659.692 -0.946355 -0.0558187 0
M  V30 7010 H 659.398 -3.42605 -0.794654 0
M  V30 7011 H 659.272 -2.86566 -2.45275 0
M  V30 7012 H 661.659 -1.89178 -2.26486 0
M  V30 7013 H 661.74 -2.48655 -0.600374 0
M  V30 7014 H 661.384 -4.86559 -1.4568 0
M  V30 7015 H 661.314 -4.23977 -3.12331 0
M  V30 7016 H 663.805 -3.26452 -1.90361 0
M  V30 7017 H 664.118 -6.96899 -3.33993 0
M  V30 7018 H 662.463 -6.2644 -3.00995 0
M  V30 7019 H 665.654 -4.08551 -2.28481 0
M  V30 7020 H 665.827 -5.77468 -2.93999 0
M  V30 7021 N 659.233 0.902656 -1.29189 0
M  V30 7022 C 660.458 1.69167 -1.19989 0
M  V30 7023 C 660.883 1.86607 0.236495 0
M  V30 7024 O 660.241 1.38425 1.17082 0
M  V30 7025 C 660.289 3.05532 -1.91527 0
M  V30 7026 O 659.393 3.93621 -1.2303 0
M  V30 7027 H 658.734 0.517584 -0.415936 0
M  V30 7028 H 661.264 1.12785 -1.70706 0
M  V30 7029 H 661.274 3.55693 -1.99866 0
M  V30 7030 H 659.949 2.92156 -2.96003 0
M  V30 7031 H 658.526 3.52055 -1.22928 0
M  V30 7032 N 660.711 1.11618 1.11262 0
M  V30 7033 C 662.122 0.881942 1.64556 0
M  V30 7034 C 662.473 -0.585442 1.87262 0
M  V30 7035 O 661.598 -1.44795 1.60821 0
M  V30 7036 C 662.193 1.59446 2.98935 0
M  V30 7037 C 660.752 1.40661 3.4913 0
M  V30 7038 C 659.899 1.63593 2.23903 0
M  V30 7039 H 662.85 1.27217 0.94877 0
M  V30 7040 H 662.871 1.04054 3.65996 0
M  V30 7041 H 662.383 2.66241 2.82378 0
M  V30 7042 H 660.484 0.360835 3.70849 0
M  V30 7043 H 660.597 2.15693 4.27801 0
M  V30 7044 H 658.961 1.05944 2.3162 0
M  V30 7045 H 659.744 2.71666 2.09886 0
M  V30 7046 N 662.189 -1.289 0.906776 0
M  V30 7047 C 663.414 -1.99939 0.551303 0
M  V30 7048 C 663.839 -1.67366 -0.858496 0
M  V30 7049 O 663.197 -0.902176 -1.57259 0
M  V30 7050 C 663.245 -3.52523 0.758937 0
M  V30 7051 O 662.349 -4.11983 -0.185308 0
M  V30 7052 H 661.69 -0.628376 0.214568 0
M  V30 7053 H 664.22 -1.64225 1.2203 0
M  V30 7054 H 664.23 -4.02522 0.666329 0
M  V30 7055 H 662.905 -3.75566 1.78671 0
M  V30 7056 H 661.482 -3.72873 -0.0445577 0
M  V30 7057 N 663.667 -0.670007 -1.42649 0
M  V30 7058 C 664.895 -0.19854 -2.05945 0
M  V30 7059 C 665.31 1.14243 -1.50313 0
M  V30 7060 O 664.667 1.70872 -0.641027 0
M  V30 7061 C 664.718 -0.11966 -3.61302 0
M  V30 7062 O 664.439 -1.40764 -4.1487 0
M  V30 7063 C 665.94 0.375878 -4.41704 0
M  V30 7064 H 663.16 -0.0976894 -0.663851 0
M  V30 7065 H 665.704 -0.915392 -1.82868 0
M  V30 7066 H 663.859 0.547851 -3.83507 0
M  V30 7067 H 664.273 -1.27784 -5.08696 0
M  V30 7068 H 665.747 0.379988 -5.50691 0
M  V30 7069 H 666.224 1.41028 -4.15942 0
M  V30 7070 H 666.83 -0.259727 -4.24506 0
M  V30 7071 N 665.145 1.52092 -0.413018 0
M  V30 7072 C 666.422 1.94356 0.22024 0
M  V30 7073 C 666.802 1.35017 1.62277 0
M  V30 7074 O 666.15 0.527511 2.22328 0
M  V30 7075 C 666.36 3.48289 0.222638 0
M  V30 7076 C 667.708 4.22313 0.440098 0
M  V30 7077 O 668.732 3.54919 0.301826 0
M  V30 7078 O 667.591 5.41829 0.712984 0
M  V30 7079 H 664.685 0.814536 0.14304 0
M  V30 7080 H 667.231 1.63083 -0.469242 0
M  V30 7081 H 666.003 3.83872 -0.758836 0
M  V30 7082 H 665.626 3.85934 0.956057 0
M  V30 7083 N 666.623 0.143563 1.56945 0
M  V30 7084 C 667.872 -0.50835 1.95189 0
M  V30 7085 C 668.185 -1.66239 1.03073 0
M  V30 7086 O 669.391 -2.3787 1.30882 0
M  V30 7087 C 667.847 -0.955735 3.46978 0
M  V30 7088 C 667.455 0.171183 4.47673 0
M  V30 7089 C 669.199 -1.57763 3.94095 0
M  V30 7090 C 667.106 -0.294279 5.90667 0
M  V30 7091 H 666.036 -0.193679 0.728701 0
M  V30 7092 H 668.687 0.227357 1.82086 0
M  V30 7093 H 667.069 -1.7466 3.55401 0
M  V30 7094 H 668.243 0.948049 4.50942 0
M  V30 7095 H 666.558 0.701273 4.10452 0
M  V30 7096 H 669.155 -1.93745 4.98364 0
M  V30 7097 H 669.498 -2.46531 3.35452 0
M  V30 7098 H 670.031 -0.851728 3.88575 0
M  V30 7099 H 666.77 0.557939 6.53121 0
M  V30 7100 H 666.29 -1.0371 5.90766 0
M  V30 7101 H 667.969 -0.747426 6.42668 0
M  V30 7102 N 668.101 -1.57061 -0.130224 0
M  V30 7103 C 669.329 -1.88432 -0.854456 0
M  V30 7104 C 669.744 -0.733608 -1.73964 0
M  V30 7105 O 669.101 0.296029 -1.80083 0
M  V30 7106 C 669.152 -3.1918 -1.69724 0
M  V30 7107 O 668.873 -4.2982 -0.847705 0
M  V30 7108 C 670.374 -3.6418 -2.5276 0
M  V30 7109 H 667.594 -0.624193 -0.246221 0
M  V30 7110 H 670.138 -2.04159 -0.11798 0
M  V30 7111 H 668.293 -3.05156 -2.3866 0
M  V30 7112 H 668.707 -5.04689 -1.42792 0
M  V30 7113 H 670.181 -4.58457 -3.07443 0
M  V30 7114 H 670.658 -2.90285 -3.29592 0
M  V30 7115 H 671.264 -3.80954 -1.89087 0
M  V30 7116 N 669.579 0.400081 -1.52437 0
M  V30 7117 C 670.542 1.4707 -1.75793 0
M  V30 7118 C 671.542 1.48036 -0.627856 0
M  V30 7119 O 672.732 1.49401 -0.895817 0
M  V30 7120 C 669.864 2.86427 -1.84858 0
M  V30 7121 H 671.057 1.27649 -2.71377 0
M  V30 7122 H 668.61 0.631141 -1.42991 0
M  V30 7123 H 669.345 3.11207 -0.912194 0
M  V30 7124 H 669.13 2.87128 -2.6702 0
M  V30 7125 H 670.62 3.64023 -2.04638 0
M  V30 7126 N 671.057 1.43213 0.657864 0
M  V30 7127 C 671.967 1.50448 1.80007 0
M  V30 7128 C 672.983 0.39191 1.69529 0
M  V30 7129 O 674.159 0.645349 1.90781 0
M  V30 7130 C 671.224 1.42062 3.16258 0
M  V30 7131 C 670.285 2.63951 3.38568 0
M  V30 7132 C 669.518 2.55956 4.68318 0
M  V30 7133 O 669.741 1.60473 5.47361 0
M  V30 7134 O 668.675 3.46378 4.92245 0
M  V30 7135 H 672.501 2.4689 1.76858 0
M  V30 7136 H 670.086 1.25163 0.81576 0
M  V30 7137 H 671.968 1.3981 3.97531 0
M  V30 7138 H 670.643 0.487524 3.20008 0
M  V30 7139 H 669.55 2.71776 2.57077 0
M  V30 7140 H 670.883 3.56217 3.39662 0
M  V30 7141 N 672.536 -0.895792 1.29666 0
M  V30 7142 C 673.784 -1.64339 1.17631 0
M  V30 7143 C 674.105 -1.93099 -0.271643 0
M  V30 7144 O 673.375 -1.55981 -1.18518 0
M  V30 7145 H 671.955 -0.609162 0.432354 0
M  V30 7146 H 674.617 -1.07389 1.62646 0
M  V30 7147 H 673.713 -2.59815 1.72924 0
M  V30 7148 N 674.014 -1.12206 -1.10668 0
M  V30 7149 C 675.239 -0.898938 -1.86906 0
M  V30 7150 C 675.664 0.546346 -1.79991 0
M  V30 7151 O 675.022 1.38655 -1.1681 0
M  V30 7152 C 675.07 -1.37529 -3.33344 0
M  V30 7153 O 674.174 -0.55218 -4.08687 0
M  V30 7154 H 673.515 -0.323163 -0.580053 0
M  V30 7155 H 676.045 -1.49355 -1.39837 0
M  V30 7156 H 676.055 -1.3733 -3.84193 0
M  V30 7157 H 674.73 -2.42767 -3.37693 0
M  V30 7158 H 673.307 -0.620947 -3.67694 0
M  V30 7159 N 675.492 1.28418 -0.913599 0
M  V30 7160 C 676.903 1.77024 -0.593237 0
M  V30 7161 C 677.254 1.74779 0.891441 0
M  V30 7162 O 676.379 1.34237 1.69733 0
M  V30 7163 C 676.974 3.21456 -1.07011 0
M  V30 7164 C 675.533 3.67786 -0.800664 0
M  V30 7165 C 674.68 2.48185 -1.23691 0
M  V30 7166 H 677.631 1.14883 -1.09487 0
M  V30 7167 H 677.652 3.78269 -0.411481 0
M  V30 7168 H 677.164 3.23058 -2.1507 0
M  V30 7169 H 675.265 3.71644 0.266725 0
M  V30 7170 H 675.378 4.57934 -1.4083 0
M  V30 7171 H 673.742 2.46116 -0.655655 0
M  V30 7172 H 674.525 2.52506 -2.32585 0
M  V30 7173 N 676.97 0.677563 1.42291 0
M  V30 7174 C 678.198 0.209459 2.05837 0
M  V30 7175 C 678.613 -1.13444 1.50917 0
M  V30 7176 O 677.97 -1.70529 0.65008 0
M  V30 7177 C 678.021 0.138819 3.61233 0
M  V30 7178 O 677.742 1.42962 4.14118 0
M  V30 7179 C 679.243 -0.352449 4.41897 0
M  V30 7180 H 676.463 0.101209 0.663323 0
M  V30 7181 H 679.007 0.925077 1.8238 0
M  V30 7182 H 677.162 -0.527505 3.83792 0
M  V30 7183 H 677.576 1.3048 5.08011 0
M  V30 7184 H 679.05 -0.350778 5.50884 0
M  V30 7185 H 679.527 -1.3882 4.16684 0
M  V30 7186 H 680.133 0.282236 4.24362 0
M  V30 7187 N 678.448 -1.51871 0.421078 0
M  V30 7188 C 679.395 -2.27334 -0.398508 0
M  V30 7189 C 680.365 -1.30241 -1.03085 0
M  V30 7190 O 681.55 -1.59121 -1.05285 0
M  V30 7191 C 678.69 -3.10664 -1.50272 0
M  V30 7192 C 677.803 -4.2273 -0.890122 0
M  V30 7193 C 676.938 -4.93399 -1.96803 0
M  V30 7194 C 675.977 -5.97409 -1.333 0
M  V30 7195 N 675.114 -6.61548 -2.35156 0
M  V30 7196 H 679.954 -2.96938 0.251411 0
M  V30 7197 H 677.491 -1.46472 0.135825 0
M  V30 7198 H 679.449 -3.57292 -2.15403 0
M  V30 7199 H 678.079 -2.43207 -2.1225 0
M  V30 7200 H 677.131 -3.80186 -0.127537 0
M  V30 7201 H 678.443 -4.97302 -0.386349 0
M  V30 7202 H 677.597 -5.43491 -2.69633 0
M  V30 7203 H 676.336 -4.18421 -2.50549 0
M  V30 7204 H 675.341 -5.46624 -0.59008 0
M  V30 7205 H 676.566 -6.74335 -0.803076 0
M  V30 7206 H 674.512 -5.89394 -2.88012 0
M  V30 7207 H 674.429 -7.31832 -1.89624 0
M  V30 7208 H 675.697 -7.16276 -3.0752 0
M  V30 7209 N 679.926 -0.151884 -1.56866 0
M  V30 7210 C 681.172 0.498742 -1.96572 0
M  V30 7211 C 681.505 1.64194 -1.03702 0
M  V30 7212 O 680.78 1.94334 -0.0803432 0
M  V30 7213 C 681.063 1.00027 -3.45929 0
M  V30 7214 C 680.916 -0.141767 -4.49577 0
M  V30 7215 C 682.235 1.88044 -3.97904 0
M  V30 7216 H 679.354 0.17982 -0.714726 0
M  V30 7217 H 681.996 -0.234097 -1.88552 0
M  V30 7218 H 680.146 1.62476 -3.52894 0
M  V30 7219 H 681.818 -0.778269 -4.54687 0
M  V30 7220 H 680.061 -0.80019 -4.26356 0
M  V30 7221 H 680.732 0.250947 -5.51429 0
M  V30 7222 H 683.208 1.35416 -3.93449 0
M  V30 7223 H 682.084 2.20043 -5.02864 0
M  V30 7224 H 682.345 2.81916 -3.40552 0
M  V30 7225 N 681.404 1.57128 0.121893 0
M  V30 7226 C 682.336 1.96773 1.17529 0
M  V30 7227 C 683.349 0.866668 1.37814 0
M  V30 7228 O 684.538 1.14497 1.3694 0
M  V30 7229 C 681.638 2.24832 2.53582 0
M  V30 7230 C 680.811 3.56138 2.53939 0
M  V30 7231 C 679.87 3.72443 3.71716 0
M  V30 7232 O 678.896 4.44584 3.55434 0
M  V30 7233 N 680.098 3.10993 4.90167 0
M  V30 7234 H 682.863 2.87743 0.838086 0
M  V30 7235 H 680.424 1.58881 0.311199 0
M  V30 7236 H 682.416 2.32958 3.30927 0
M  V30 7237 H 680.986 1.40002 2.79496 0
M  V30 7238 H 680.206 3.59226 1.62329 0
M  V30 7239 H 681.494 4.42448 2.51231 0
M  V30 7240 H 680.892 2.52345 5.06299 0
M  V30 7241 H 679.449 3.24644 5.65198 0
M  V30 7242 N 682.882 -0.391992 1.52647 0
M  V30 7243 C 683.829 -1.47866 1.77213 0
M  V30 7244 C 684.799 -1.54286 0.615223 0
M  V30 7245 O 685.984 -1.7059 0.854622 0
M  V30 7246 C 683.124 -2.85129 1.94411 0
M  V30 7247 C 682.237 -2.87883 3.22098 0
M  V30 7248 C 681.372 -4.16553 3.29631 0
M  V30 7249 C 680.411 -4.13348 4.51453 0
M  V30 7250 N 679.548 -5.33619 4.56284 0
M  V30 7251 H 684.388 -1.26219 2.6995 0
M  V30 7252 H 681.925 -0.612367 1.33748 0
M  V30 7253 H 683.883 -3.64833 2.02367 0
M  V30 7254 H 682.513 -3.05232 1.05038 0
M  V30 7255 H 681.565 -2.00567 3.23229 0
M  V30 7256 H 682.877 -2.81382 4.11856 0
M  V30 7257 H 682.031 -5.0466 3.36753 0
M  V30 7258 H 680.77 -4.25773 2.37842 0
M  V30 7259 H 679.775 -3.23629 4.44459 0
M  V30 7260 H 681 -4.05754 5.44555 0
M  V30 7261 H 678.946 -5.43474 3.67385 0
M  V30 7262 H 678.863 -5.29182 5.3991 0
M  V30 7263 H 680.131 -6.23632 4.67657 0
M  V30 7264 N 684.36 -1.4356 -0.65026 0
M  V30 7265 C 685.585 -1.48995 -1.44275 0
M  V30 7266 C 686.01 -0.109954 -1.87778 0
M  V30 7267 O 685.368 0.896926 -1.57559 0
M  V30 7268 C 685.416 -2.44341 -2.65198 0
M  V30 7269 O 684.52 -1.93172 -3.6436 0
M  V30 7270 H 683.861 -0.503852 -0.432469 0
M  V30 7271 H 686.391 -1.88504 -0.795446 0
M  V30 7272 H 686.401 -2.61743 -3.12977 0
M  V30 7273 H 685.076 -3.44588 -2.32877 0
M  V30 7274 H 683.653 -1.85445 -3.23519 0
M  V30 7275 N 685.838 0.888903 -1.30139 0
M  V30 7276 C 687.084 1.64288 -1.19922 0
M  V30 7277 C 687.439 1.90839 0.244561 0
M  V30 7278 O 686.732 1.51544 1.17239 0
M  V30 7279 C 686.926 2.99041 -1.95728 0
M  V30 7280 C 686.755 2.85644 -3.47329 0
M  V30 7281 C 685.525 2.85836 -4.16685 0
M  V30 7282 C 687.723 2.6188 -4.42632 0
M  V30 7283 N 685.705 2.63289 -5.54574 0
M  V30 7284 C 687.076 2.48418 -5.68057 0
M  V30 7285 C 689.131 2.47073 -4.32272 0
M  V30 7286 C 687.834 2.21655 -6.84296 0
M  V30 7287 C 689.86 2.21695 -5.48275 0
M  V30 7288 C 689.222 2.09007 -6.72678 0
M  V30 7289 H 685.321 0.606315 -0.493868 0
M  V30 7290 H 687.905 1.0478 -1.64102 0
M  V30 7291 H 686.076 3.56589 -1.53945 0
M  V30 7292 H 687.808 3.63607 -1.77685 0
M  V30 7293 H 684.563 2.97521 -3.68481 0
M  V30 7294 H 684.987 2.55039 -6.27124 0
M  V30 7295 H 689.629 2.55621 -3.36776 0
M  V30 7296 H 687.347 2.11845 -7.79838 0
M  V30 7297 H 690.933 2.11067 -5.42164 0
M  V30 7298 H 689.813 1.89643 -7.60924 0
M  V30 7299 N 687.317 1.12792 1.10072 0
M  V30 7300 C 688.542 0.908838 1.86427 0
M  V30 7301 C 688.967 -0.536793 1.80278 0
M  V30 7302 O 688.325 -1.38033 1.17543 0
M  V30 7303 C 688.373 1.39295 3.3261 0
M  V30 7304 O 687.477 0.573846 4.08388 0
M  V30 7305 H 686.818 0.326234 0.578331 0
M  V30 7306 H 689.348 1.50094 1.39043 0
M  V30 7307 H 689.358 1.39366 3.83459 0
M  V30 7308 H 688.033 2.44555 3.36401 0
M  V30 7309 H 686.61 0.640438 3.67359 0
M  V30 7310 N 688.795 -1.27931 0.920396 0
M  V30 7311 C 690.042 -1.94689 0.557007 0
M  V30 7312 C 690.37 -1.724 -0.900476 0
M  V30 7313 O 689.625 -1.04194 -1.65657 0
M  V30 7314 C 689.924 -3.47853 0.820558 0
M  V30 7315 C 689.59 -3.90252 2.25863 0
M  V30 7316 C 688.252 -4.01539 2.65179 0
M  V30 7317 C 690.604 -4.11853 3.19415 0
M  V30 7318 C 687.932 -4.3181 3.97187 0
M  V30 7319 C 690.284 -4.43606 4.50995 0
M  V30 7320 C 688.948 -4.53105 4.90155 0
M  V30 7321 H 688.218 -0.712416 0.203823 0
M  V30 7322 H 690.865 -1.52142 1.16298 0
M  V30 7323 H 689.17 -3.91578 0.131844 0
M  V30 7324 H 690.867 -3.97634 0.51847 0
M  V30 7325 H 687.457 -3.81999 1.94358 0
M  V30 7326 H 691.641 -4.0258 2.90246 0
M  V30 7327 H 686.897 -4.37371 4.2722 0
M  V30 7328 H 691.071 -4.59268 5.23494 0
M  V30 7329 H 688.698 -4.76315 5.92476 0
M  V30 7330 N 690.273 -0.685099 -1.4193 0
M  V30 7331 C 691.221 -0.00165985 -2.326 0
M  V30 7332 C 692.215 0.779678 -1.50391 0
M  V30 7333 O 693.421 0.68648 -1.66395 0
M  V30 7334 H 689.796 0.0182616 -0.751778 0
M  V30 7335 H 691.767 -0.783592 -2.87928 0
M  V30 7336 C 690.516 0.928385 -3.35077 0
M  V30 7337 H 689.839 0.336578 -3.98381 0
M  V30 7338 H 691.279 1.37509 -4.01083 0
M  V30 7339 C 689.738 2.03964 -2.68142 0
M  V30 7340 O 690.268 3.12727 -2.5212 0
M  V30 7341 N 688.474 1.81433 -2.27003 0
M  V30 7342 H 688.021 0.929807 -2.40234 0
M  V30 7343 H 687.979 2.55973 -1.82552 0
M  V30 7344 N 691.751 1.51645 -0.429126 0
M  V30 7345 C 693.028 1.94579 0.199614 0
M  V30 7346 C 693.408 1.3673 1.60836 0
M  V30 7347 O 692.756 0.551062 2.21756 0
M  V30 7348 C 692.966 3.48506 0.185685 0
M  V30 7349 C 694.314 4.22756 0.395282 0
M  V30 7350 O 695.338 3.55219 0.264165 0
M  V30 7351 O 694.197 5.42555 0.655475 0
M  V30 7352 H 691.291 0.816007 0.134393 0
M  V30 7353 H 693.837 1.62577 -0.486513 0
M  V30 7354 H 692.609 3.83045 -0.799508 0
M  V30 7355 H 692.232 3.86927 0.91507 0
M  V30 7356 N 693.229 0.160201 1.56784 0
M  V30 7357 C 694.645 -0.196089 1.58391 0
M  V30 7358 C 694.845 -1.63689 1.17508 0
M  V30 7359 O 693.901 -2.36613 0.881506 0
M  V30 7360 C 695.214 0.0746449 3.00607 0
M  V30 7361 C 696.762 0.0119762 3.12998 0
M  V30 7362 C 697.237 0.255551 4.57286 0
M  V30 7363 N 698.728 0.202938 4.62755 0
M  V30 7364 C 699.463 0.365731 5.72232 0
M  V30 7365 N 698.959 0.586972 6.90309 0
M  V30 7366 N 700.752 0.302411 5.61286 0
M  V30 7367 H 692.903 1.1008 1.81648 0
M  V30 7368 H 695.166 0.436779 0.841384 0
M  V30 7369 H 694.872 1.07231 3.34954 0
M  V30 7370 H 694.746 -0.638802 3.71751 0
M  V30 7371 H 697.133 -0.976254 2.78484 0
M  V30 7372 H 697.214 0.75796 2.44313 0
M  V30 7373 H 696.858 1.24094 4.92507 0
M  V30 7374 H 696.788 -0.510912 5.24116 0
M  V30 7375 H 699.279 0.0371328 3.77882 0
M  V30 7376 H 699.592 0.700941 7.69615 0
M  V30 7377 H 697.937 0.623453 6.92198 0
M  V30 7378 H 701.128 0.130238 4.67919 0
M  V30 7379 H 701.301 0.432712 6.46554 0
M  V30 7380 N 694.707 -1.5719 -0.113559 0
M  V30 7381 C 695.935 -1.89328 -0.834422 0
M  V30 7382 C 696.35 -0.752018 -1.73177 0
M  V30 7383 O 695.707 0.276912 -1.80387 0
M  V30 7384 C 695.758 -3.20962 -1.66329 0
M  V30 7385 O 695.479 -4.30695 -0.802069 0
M  V30 7386 C 696.98 -3.6684 -2.48884 0
M  V30 7387 H 694.2 -0.626769 -0.239587 0
M  V30 7388 H 696.744 -2.04273 -0.0963195 0
M  V30 7389 H 694.899 -3.0767 -2.35409 0
M  V30 7390 H 695.313 -5.06175 -1.37431 0
M  V30 7391 H 696.787 -4.61692 -3.02563 0
M  V30 7392 H 697.264 -2.93765 -3.26495 0
M  V30 7393 H 697.87 -3.82938 -1.85036 0
M  V30 7394 N 696.185 0.383891 -1.52853 0
M  V30 7395 C 697.601 0.724316 -1.42218 0
M  V30 7396 C 697.801 1.93943 -0.546654 0
M  V30 7397 O 696.857 2.5249 -0.0220562 0
M  V30 7398 C 698.17 0.954635 -2.85144 0
M  V30 7399 C 699.718 1.05579 -2.94656 0
M  V30 7400 C 700.193 1.3187 -4.38605 0
M  V30 7401 N 701.684 1.38681 -4.41952 0
M  V30 7402 C 702.419 1.60699 -5.50421 0
M  V30 7403 N 701.915 1.80154 -6.68967 0
M  V30 7404 N 703.708 1.6292 -5.37972 0
M  V30 7405 H 695.859 -0.4156 -2.08294 0
M  V30 7406 H 698.122 -0.123776 -0.939885 0
M  V30 7407 H 697.828 0.133829 -3.51445 0
M  V30 7408 H 697.702 1.86788 -3.27704 0
M  V30 7409 H 700.089 1.86716 -2.2852 0
M  V30 7410 H 700.17 0.120338 -2.55517 0
M  V30 7411 H 699.814 0.512416 -5.05309 0
M  V30 7412 H 699.744 2.26708 -4.75301 0
M  V30 7413 H 702.235 1.25334 -3.56511 0
M  V30 7414 H 702.548 1.96476 -7.47407 0
M  V30 7415 H 700.893 1.77368 -6.71986 0
M  V30 7416 H 704.084 1.47276 -4.44328 0
M  V30 7417 H 704.257 1.79739 -6.22574 0
M  V30 7418 N 697.663 1.43903 0.642637 0
M  V30 7419 C 698.91 1.46079 1.40239 0
M  V30 7420 C 699.238 0.0890335 1.94296 0
M  V30 7421 O 698.493 -0.907533 1.73385 0
M  V30 7422 C 698.792 2.45907 2.59354 0
M  V30 7423 C 698.458 3.91522 2.23654 0
M  V30 7424 C 697.12 4.31179 2.1363 0
M  V30 7425 C 699.472 4.83242 1.95261 0
M  V30 7426 C 696.8 5.60495 1.73384 0
M  V30 7427 C 699.152 6.12933 1.56511 0
M  V30 7428 C 697.816 6.51556 1.4502 0
M  V30 7429 H 697.086 0.534542 0.513172 0
M  V30 7430 H 699.733 1.77047 0.72984 0
M  V30 7431 H 698.038 2.08381 3.3179 0
M  V30 7432 H 699.735 2.44842 3.17574 0
M  V30 7433 H 696.325 3.60142 2.32369 0
M  V30 7434 H 700.509 4.53367 2.0192 0
M  V30 7435 H 695.765 5.89249 1.63082 0
M  V30 7436 H 699.939 6.83469 1.33576 0
M  V30 7437 H 697.566 7.51663 1.13606 0
M  V30 7438 N 699.141 -0.881989 1.30609 0
M  V30 7439 C 700.557 -1.16576 1.09005 0
M  V30 7440 C 700.757 -2.00961 -0.14727 0
M  V30 7441 O 699.813 -2.38117 -0.840036 0
M  V30 7442 C 701.126 -1.86954 2.35518 0
M  V30 7443 C 702.674 -1.99706 2.41011 0
M  V30 7444 C 703.149 -2.73497 3.67374 0
M  V30 7445 N 704.64 -2.8104 3.68199 0
M  V30 7446 C 705.375 -3.38718 4.62664 0
M  V30 7447 N 704.871 -3.97421 5.67475 0
M  V30 7448 N 706.664 -3.36561 4.50203 0
M  V30 7449 H 698.815 -0.319398 2.09985 0
M  V30 7450 H 701.078 -0.204058 0.925778 0
M  V30 7451 H 700.784 -1.32393 3.2583 0
M  V30 7452 H 700.658 -2.87317 2.44395 0
M  V30 7453 H 703.045 -2.53436 1.51176 0
M  V30 7454 H 703.126 -0.984218 2.36108 0
M  V30 7455 H 702.77 -2.20438 4.57569 0
M  V30 7456 H 702.7 -3.75163 3.6954 0
M  V30 7457 H 705.191 -2.39365 2.92426 0
M  V30 7458 H 705.504 -4.39507 6.35652 0
M  V30 7459 H 703.849 -3.95832 5.71264 0
M  V30 7460 H 707.04 -2.8993 3.67503 0
M  V30 7461 H 707.213 -3.81215 5.24003 0
M  V30 7462 N 700.619 -1.13374 -1.09472 0
M  V30 7463 C 702.03 -0.90801 -1.63132 0
M  V30 7464 C 702.381 0.555576 -1.8817 0
M  V30 7465 O 701.506 1.42218 -1.63104 0
M  V30 7466 C 702.101 -1.64182 -2.96361 0
M  V30 7467 C 700.66 -1.46197 -3.46848 0
M  V30 7468 C 699.807 -1.67134 -2.21273 0
M  V30 7469 H 702.758 -1.2871 -0.928411 0
M  V30 7470 H 702.779 -1.09863 -3.64294 0
M  V30 7471 H 702.291 -2.707 -2.78106 0
M  V30 7472 H 700.392 -0.419788 -3.70228 0
M  V30 7473 H 700.505 -2.22472 -4.24315 0
M  V30 7474 H 698.869 -1.09616 -2.29905 0
M  V30 7475 H 699.652 -2.74971 -2.05538 0
M  V30 7476 N 702.098 1.27442 -0.927168 0
M  V30 7477 C 703.323 1.99036 -0.583042 0
M  V30 7478 C 703.748 1.68711 0.83176 0
M  V30 7479 O 703.106 0.927081 1.55804 0
M  V30 7480 C 703.154 3.51271 -0.814925 0
M  V30 7481 O 702.258 4.12226 0.119742 0
M  V30 7482 H 701.599 0.624883 -0.224538 0
M  V30 7483 H 704.129 1.62263 -1.24628 0
M  V30 7484 H 704.139 4.01411 -0.730282 0
M  V30 7485 H 702.814 3.72676 -1.84623 0
M  V30 7486 H 701.391 3.72897 -0.0147688 0
M  V30 7487 N 703.576 0.692616 1.41565 0
M  V30 7488 C 704.506 0.0397325 2.33466 0
M  V30 7489 C 705.487 -0.770334 1.51657 0
M  V30 7490 O 706.672 -0.723903 1.80203 0
M  V30 7491 C 703.802 -0.899495 3.3545 0
M  V30 7492 C 702.756 -0.196738 4.27548 0
M  V30 7493 C 702.082 -1.25012 5.19881 0
M  V30 7494 C 703.382 0.935158 5.1386 0
M  V30 7495 H 705.076 0.807296 2.88311 0
M  V30 7496 H 702.622 0.389665 1.38628 0
M  V30 7497 H 704.575 -1.36545 3.98665 0
M  V30 7498 H 703.299 -1.69869 2.78948 0
M  V30 7499 H 701.958 0.249158 3.65752 0
M  V30 7500 H 701.606 -2.04177 4.59696 0
M  V30 7501 H 701.306 -0.784931 5.82334 0
M  V30 7502 H 702.83 -1.71665 5.85972 0
M  V30 7503 H 704.244 0.549619 5.70659 0
M  V30 7504 H 702.641 1.32726 5.85238 0
M  V30 7505 H 703.711 1.77613 4.512 0
M  V30 7506 N 705.054 -1.51416 0.437162 0
M  V30 7507 C 706.47 -1.59349 0.0894459 0
M  V30 7508 C 706.67 -1.44809 -1.40116 0
M  V30 7509 O 705.726 -1.28924 -2.17106 0
M  V30 7510 C 707.039 -2.9446 0.609398 0
M  V30 7511 C 708.587 -3.07769 0.569824 0
M  V30 7512 C 709.062 -4.45404 1.06675 0
M  V30 7513 N 710.553 -4.51723 1.02473 0
M  V30 7514 C 711.288 -5.56544 1.3801 0
M  V30 7515 N 710.784 -6.68784 1.80831 0
M  V30 7516 N 712.577 -5.46901 1.29828 0
M  V30 7517 H 704.728 -1.59112 1.40703 0
M  V30 7518 H 706.991 -0.750031 0.579791 0
M  V30 7519 H 706.697 -3.1047 1.65231 0
M  V30 7520 H 706.571 -3.77184 0.0342236 0
M  V30 7521 H 708.958 -2.91428 -0.464107 0
M  V30 7522 H 709.039 -2.26885 1.1814 0
M  V30 7523 H 708.683 -4.62492 2.09914 0
M  V30 7524 H 708.613 -5.24827 0.431712 0
M  V30 7525 H 711.104 -3.71165 0.710258 0
M  V30 7526 H 711.417 -7.44787 2.06185 0
M  V30 7527 H 709.762 -6.69992 1.84757 0
M  V30 7528 H 712.953 -4.581 0.962397 0
M  V30 7529 H 713.126 -6.2848 1.57851 0
M  V30 7530 N 706.532 -0.168513 -1.56696 0
M  V30 7531 C 707.462 0.758563 -2.20835 0
M  V30 7532 C 708.443 1.24121 -1.1631 0
M  V30 7533 O 709.628 1.29487 -1.4473 0
M  V30 7534 C 706.758 1.9892 -2.8469 0
M  V30 7535 C 705.712 1.64252 -3.95228 0
M  V30 7536 C 705.038 2.94757 -4.46119 0
M  V30 7537 C 706.338 0.872675 -5.14958 0
M  V30 7538 H 708.032 0.223953 -2.98561 0
M  V30 7539 H 705.578 0.106277 -1.43607 0
M  V30 7540 H 707.531 2.64275 -3.28233 0
M  V30 7541 H 706.255 2.5479 -2.04327 0
M  V30 7542 H 704.914 1.01266 -3.52336 0
M  V30 7543 H 704.562 3.48662 -3.62552 0
M  V30 7544 H 704.262 2.72316 -5.2069 0
M  V30 7545 H 705.786 3.61147 -4.92347 0
M  V30 7546 H 707.2 1.42875 -5.55211 0
M  V30 7547 H 705.597 0.747402 -5.95428 0
M  V30 7548 H 706.667 -0.131535 -4.84722 0
M  V30 7549 N 708.01 1.57248 0.105221 0
M  V30 7550 C 708.957 2.01338 1.12835 0
M  V30 7551 C 709.927 0.887897 1.40377 0
M  V30 7552 O 711.112 1.15315 1.5201 0
M  V30 7553 C 708.252 2.43432 2.44611 0
M  V30 7554 C 707.365 3.69457 2.23888 0
M  V30 7555 C 706.5 4.00473 3.48991 0
M  V30 7556 C 705.539 5.19638 3.23485 0
M  V30 7557 N 704.676 5.46457 4.40828 0
M  V30 7558 H 709.516 2.88527 0.745386 0
M  V30 7559 H 707.053 1.42714 0.356535 0
M  V30 7560 H 709.011 2.65879 3.21503 0
M  V30 7561 H 707.641 1.59266 2.80774 0
M  V30 7562 H 706.693 3.54545 1.37847 0
M  V30 7563 H 708.005 4.56497 2.01026 0
M  V30 7564 H 707.159 4.23642 4.34295 0
M  V30 7565 H 705.898 3.11935 3.74897 0
M  V30 7566 H 704.903 4.96299 2.36574 0
M  V30 7567 H 706.128 6.09766 2.98935 0
M  V30 7568 H 704.074 4.60876 4.66829 0
M  V30 7569 H 703.991 6.27849 4.2112 0
M  V30 7570 H 705.259 5.74155 5.27225 0
M  V30 7571 N 709.488 -0.375779 1.53054 0
M  V30 7572 C 710.713 -1.14484 1.7294 0
M  V30 7573 C 711.138 -1.82572 0.452668 0
M  V30 7574 O 710.496 -1.71343 -0.592567 0
M  V30 7575 C 710.544 -2.15857 2.88857 0
M  V30 7576 O 709.648 -3.22725 2.56753 0
M  V30 7577 H 708.989 -0.332666 0.574656 0
M  V30 7578 H 711.519 -0.436025 1.999 0
M  V30 7579 H 711.529 -2.59631 3.14731 0
M  V30 7580 H 710.204 -1.65689 3.81471 0
M  V30 7581 H 708.781 -2.83996 2.41663 0
M  V30 7582 N 710.966 -1.44241 -0.634997 0
M  V30 7583 C 712.191 -1.50516 -1.42687 0
M  V30 7584 C 712.616 -0.129864 -1.87651 0
M  V30 7585 O 711.974 0.880164 -1.58502 0
M  V30 7586 C 712.022 -2.4714 -2.62591 0
M  V30 7587 O 711.126 -1.97025 -3.62291 0
M  V30 7588 H 710.467 -0.50841 -0.427101 0
M  V30 7589 H 712.997 -1.89337 -0.775408 0
M  V30 7590 H 713.007 -2.65048 -3.10183 0
M  V30 7591 H 711.682 -3.47039 -2.29209 0
M  V30 7592 H 710.259 -1.88866 -3.21534 0
M  V30 7593 N 712.444 0.87505 -1.31075 0
M  V30 7594 C 713.376 1.98773 -1.14114 0
M  V30 7595 C 714.389 1.62595 -0.0816119 0
M  V30 7596 O 715.578 1.75449 -0.32861 0
M  V30 7597 C 712.678 3.31159 -0.720224 0
M  V30 7598 C 711.851 3.9571 -1.86366 0
M  V30 7599 C 710.91 5.06407 -1.42965 0
M  V30 7600 O 709.936 5.27501 -2.13848 0
M  V30 7601 N 711.138 5.79649 -0.314194 0
M  V30 7602 H 713.903 2.1387 -2.09951 0
M  V30 7603 H 711.464 1.04873 -1.23342 0
M  V30 7604 H 713.456 4.0259 -0.412687 0
M  V30 7605 H 712.026 3.12257 0.146396 0
M  V30 7606 H 711.246 3.17324 -2.33879 0
M  V30 7607 H 712.534 4.35576 -2.62966 0
M  V30 7608 H 711.932 5.65025 0.276228 0
M  V30 7609 H 710.489 6.51766 -0.0661641 0
M  V30 7610 N 713.922 1.13953 1.08869 0
M  V30 7611 C 715.333 0.916649 1.62648 0
M  V30 7612 C 715.684 -0.545589 1.88462 0
M  V30 7613 O 714.809 -1.41351 1.63856 0
M  V30 7614 C 715.404 1.65751 2.95486 0
M  V30 7615 C 713.963 1.48034 3.46068 0
M  V30 7616 C 713.11 1.68305 2.20383 0
M  V30 7617 H 716.061 1.292 0.921572 0
M  V30 7618 H 716.082 1.11794 3.63707 0
M  V30 7619 H 715.594 2.72171 2.76667 0
M  V30 7620 H 713.695 0.439416 3.7 0
M  V30 7621 H 713.808 2.24719 4.23129 0
M  V30 7622 H 712.172 1.10833 2.29321 0
M  V30 7623 H 712.955 2.76057 2.04077 0
M  V30 7624 N 715.4 -1.26948 0.933913 0
M  V30 7625 C 716.347 -2.26635 0.436484 0
M  V30 7626 C 717.317 -1.58397 -0.499953 0
M  V30 7627 O 718.502 -1.86171 -0.417753 0
M  V30 7628 C 715.642 -3.43803 -0.298951 0
M  V30 7629 C 714.755 -4.26736 0.672316 0
M  V30 7630 C 713.89 -5.31134 -0.0835872 0
M  V30 7631 C 712.929 -6.05742 0.879979 0
M  V30 7632 N 712.066 -7.01926 0.156301 0
M  V30 7633 H 716.906 -2.68558 1.29154 0
M  V30 7634 H 714.443 -1.32052 0.648118 0
M  V30 7635 H 716.401 -4.10554 -0.741723 0
M  V30 7636 H 715.031 -3.02814 -1.1182 0
M  V30 7637 H 714.083 -3.59842 1.23361 0
M  V30 7638 H 715.395 -4.78502 1.40846 0
M  V30 7639 H 714.549 -6.03863 -0.585984 0
M  V30 7640 H 713.288 -4.80188 -0.852661 0
M  V30 7641 H 712.293 -5.31846 1.39357 0
M  V30 7642 H 713.518 -6.58777 1.64894 0
M  V30 7643 H 711.464 -6.53301 -0.594413 0
M  V30 7644 H 711.381 -7.51409 0.831906 0
M  V30 7645 H 712.649 -7.78821 -0.325239 0
M  V30 7646 N 716.879 -0.700114 -1.41195 0
M  V30 7647 C 718.29 -0.307249 -1.84154 0
M  V30 7648 C 718.641 1.15539 -1.58572 0
M  V30 7649 O 717.766 1.88744 -1.05852 0
M  V30 7650 C 718.361 -0.550872 -3.34292 0
M  V30 7651 C 716.92 -0.211877 -3.75803 0
M  V30 7652 C 716.067 -0.830915 -2.64558 0
M  V30 7653 H 719.018 -0.900431 -1.30683 0
M  V30 7654 H 719.039 0.188954 -3.80031 0
M  V30 7655 H 718.551 -1.61548 -3.5288 0
M  V30 7656 H 716.652 0.848283 -3.62815 0
M  V30 7657 H 716.765 -0.67007 -4.74391 0
M  V30 7658 H 715.129 -0.260155 -2.53368 0
M  V30 7659 H 715.912 -1.89948 -2.85963 0
M  V30 7660 N 718.357 1.51182 -0.445186 0
M  V30 7661 C 719.603 2.02452 0.11882 0
M  V30 7662 C 719.936 1.32824 1.41673 0
M  V30 7663 O 719.211 0.445637 1.89326 0
M  V30 7664 C 719.494 3.5859 0.329475 0
M  V30 7665 C 719.347 4.38823 -0.987638 0
M  V30 7666 C 720.666 4.26241 1.09575 0
M  V30 7667 H 717.785 0.735819 0.0417092 0
M  V30 7668 H 720.427 1.80747 -0.585718 0
M  V30 7669 H 718.577 3.77214 0.9296 0
M  V30 7670 H 720.249 4.3183 -1.62235 0
M  V30 7671 H 718.492 4.03594 -1.59041 0
M  V30 7672 H 719.163 5.46257 -0.794192 0
M  V30 7673 H 721.639 4.11934 0.587328 0
M  V30 7674 H 720.515 5.35354 1.21191 0
M  V30 7675 H 720.776 3.87635 2.12584 0
M  V30 7676 N 719.835 0.176821 1.56605 0
M  V30 7677 C 721.084 -0.466833 1.96223 0
M  V30 7678 C 721.397 -1.64015 1.06576 0
M  V30 7679 O 722.603 -2.3504 1.35898 0
M  V30 7680 C 721.059 -0.881921 3.48927 0
M  V30 7681 C 720.667 0.266102 4.47209 0
M  V30 7682 C 722.411 -1.49368 3.97353 0
M  V30 7683 C 720.318 -0.168923 5.91159 0
M  V30 7684 H 719.248 -0.178178 0.732645 0
M  V30 7685 H 721.899 0.265929 1.81563 0
M  V30 7686 H 720.281 -1.67082 3.59026 0
M  V30 7687 H 721.455 1.04349 4.4883 0
M  V30 7688 H 719.77 0.788178 4.08872 0
M  V30 7689 H 722.367 -1.8313 5.02362 0
M  V30 7690 H 722.71 -2.3936 3.40606 0
M  V30 7691 H 723.243 -0.769114 3.90294 0
M  V30 7692 H 719.982 0.696351 6.51791 0
M  V30 7693 H 719.502 -0.911552 5.92833 0
M  V30 7694 H 721.181 -0.610938 6.44109 0
M  V30 7695 N 721.313 -1.57302 -0.09688 0
M  V30 7696 C 722.59 -1.7701 -0.832272 0
M  V30 7697 C 722.97 -0.758025 -1.97021 0
M  V30 7698 O 722.318 0.213824 -2.27497 0
M  V30 7699 C 722.528 -3.22725 -1.32851 0
M  V30 7700 C 723.876 -3.85856 -1.772 0
M  V30 7701 O 724.9 -3.26464 -1.42478 0
M  V30 7702 O 723.759 -4.90295 -2.41398 0
M  V30 7703 H 720.853 -0.725558 -0.396856 0
M  V30 7704 H 723.399 -1.69516 -0.0789005 0
M  V30 7705 H 722.171 -3.87921 -0.51312 0
M  V30 7706 H 721.794 -3.34845 -2.14394 0
M  V30 7707 N 722.791 0.367657 -1.53252 0
M  V30 7708 C 723.754 1.43308 -1.78873 0
M  V30 7709 C 724.754 1.46671 -0.659115 0
M  V30 7710 O 725.944 1.47468 -0.927306 0
M  V30 7711 C 723.076 2.82442 -1.90892 0
M  V30 7712 H 724.269 1.21864 -2.74024 0
M  V30 7713 H 721.822 0.600668 -1.44297 0
M  V30 7714 H 722.557 3.09202 -0.978 0
M  V30 7715 H 722.342 2.81399 -2.73051 0
M  V30 7716 H 723.832 3.59601 -2.12314 0
M  V30 7717 N 724.269 1.44576 0.627338 0
M  V30 7718 C 725.546 1.38033 1.38586 0
M  V30 7719 C 725.926 0.0409468 2.1106 0
M  V30 7720 O 725.274 -0.976582 2.0658 0
M  V30 7721 C 725.484 2.58102 2.34913 0
M  V30 7722 C 726.832 3.02332 2.98129 0
M  V30 7723 O 727.856 2.58334 2.45238 0
M  V30 7724 O 726.715 3.78628 3.94085 0
M  V30 7725 H 723.809 0.546801 0.620434 0
M  V30 7726 H 726.355 1.56672 0.652077 0
M  V30 7727 H 725.127 3.4719 1.80485 0
M  V30 7728 H 724.75 2.41696 3.15703 0
M  V30 7729 N 725.747 -0.868086 1.31537 0
M  V30 7730 C 726.975 -1.65402 1.24298 0
M  V30 7731 C 727.39 -1.87827 -0.191389 0
M  V30 7732 O 726.747 -1.43776 -1.12404 0
M  V30 7733 C 726.798 -3.02093 1.9855 0
M  V30 7734 O 726.519 -2.80668 3.36388 0
M  V30 7735 C 728.02 -3.96538 1.98173 0
M  V30 7736 H 725.24 -0.515598 0.429417 0
M  V30 7737 H 727.784 -1.0834 1.73444 0
M  V30 7738 H 725.939 -3.55838 1.53161 0
M  V30 7739 H 726.353 -3.67504 3.74221 0
M  V30 7740 H 727.827 -4.8976 2.54635 0
M  V30 7741 H 728.304 -4.28474 0.964697 0
M  V30 7742 H 728.91 -3.48729 2.4345 0
M  V30 7743 N 727.225 -1.14528 -1.08264 0
M  V30 7744 C 728.188 -0.83632 -2.13397 0
M  V30 7745 C 729.188 0.159715 -1.60005 0
M  V30 7746 O 730.378 -0.0688098 -1.74064 0
M  V30 7747 C 727.51 -0.246973 -3.40004 0
M  V30 7748 H 728.703 -1.76808 -2.42237 0
M  V30 7749 H 726.256 -0.951509 -1.24 0
M  V30 7750 H 726.991 0.693436 -3.168 0
M  V30 7751 H 726.776 -0.964412 -3.80055 0
M  V30 7752 H 728.266 -0.0480679 -4.17572 0
M  V30 7753 N 728.703 1.26451 -0.940633 0
M  V30 7754 C 729.633 2.28773 -0.467479 0
M  V30 7755 C 730.614 1.63218 0.478955 0
M  V30 7756 O 731.799 1.90427 0.380929 0
M  V30 7757 C 728.929 3.46259 0.268656 0
M  V30 7758 C 727.883 4.23898 -0.591171 0
M  V30 7759 C 727.209 5.33993 0.274891 0
M  V30 7760 C 728.509 4.87974 -1.86223 0
M  V30 7761 H 730.203 2.68601 -1.32265 0
M  V30 7762 H 727.749 1.29123 -0.637436 0
M  V30 7763 H 729.702 4.16951 0.610696 0
M  V30 7764 H 728.426 3.05383 1.15796 0
M  V30 7765 H 727.085 3.54969 -0.916098 0
M  V30 7766 H 726.733 4.89358 1.16353 0
M  V30 7767 H 726.433 5.86849 -0.297006 0
M  V30 7768 H 727.957 6.07523 0.612213 0
M  V30 7769 H 729.371 5.50883 -1.58747 0
M  V30 7770 H 727.768 5.50945 -2.37866 0
M  V30 7771 H 728.838 4.10945 -2.57394 0
M  V30 7772 N 730.181 0.707592 1.40822 0
M  V30 7773 C 731.429 0.243189 2.00632 0
M  V30 7774 C 731.75 -1.16512 1.56365 0
M  V30 7775 O 731.02 -1.78841 0.799553 0
M  V30 7776 H 729.6 0.0869203 0.741926 0
M  V30 7777 H 732.262 0.911438 1.72275 0
M  V30 7778 H 731.358 0.270014 3.1093 0
M  V30 7779 N 731.66 -1.50943 0.453197 0
M  V30 7780 C 732.888 -2.06628 -0.106135 0
M  V30 7781 C 733.303 -1.31901 -1.35084 0
M  V30 7782 O 732.66 -0.383074 -1.78434 0
M  V30 7783 C 732.711 -3.5914 -0.412368 0
M  V30 7784 O 732.432 -4.31047 0.782948 0
M  V30 7785 C 733.933 -4.31391 -1.02064 0
M  V30 7786 H 731.153 -0.670999 -0.000885896 0
M  V30 7787 H 733.697 -1.94331 0.63684 0
M  V30 7788 H 731.852 -3.71299 -1.10526 0
M  V30 7789 H 732.266 -5.21948 0.516736 0
M  V30 7790 H 733.74 -5.39135 -1.1848 0
M  V30 7791 H 734.217 -3.90714 -2.00598 0
M  V30 7792 H 734.823 -4.23716 -0.366664 0
M  V30 7793 N 733.138 -0.185124 -1.56509 0
M  V30 7794 C 734.415 0.503348 -1.89013 0
M  V30 7795 C 734.795 1.80349 -1.09715 0
M  V30 7796 O 734.143 2.27665 -0.195203 0
M  V30 7797 C 734.353 0.731839 -3.41241 0
M  V30 7798 C 735.701 1.05568 -4.11267 0
M  V30 7799 O 736.725 0.819906 -3.46635 0
M  V30 7800 O 735.584 1.50116 -5.25478 0
M  V30 7801 H 732.678 0.261139 -0.784688 0
M  V30 7802 H 735.224 -0.224592 -1.68207 0
M  V30 7803 H 733.996 -0.18672 -3.90854 0
M  V30 7804 H 733.619 1.5126 -3.67704 0
M  V30 7805 N 734.616 1.57351 0.0885366 0
M  V30 7806 C 735.893 1.77449 0.822873 0
M  V30 7807 C 736.273 0.768463 1.96616 0
M  V30 7808 O 735.621 -0.201757 2.27608 0
M  V30 7809 C 735.831 3.23425 1.31137 0
M  V30 7810 C 737.179 3.86791 1.75152 0
M  V30 7811 O 738.203 3.27215 1.40745 0
M  V30 7812 O 737.062 4.91568 2.38794 0
M  V30 7813 H 734.156 0.727653 0.393002 0
M  V30 7814 H 736.702 1.69556 0.0699095 0
M  V30 7815 H 735.474 3.88188 0.49254 0
M  V30 7816 H 735.097 3.35977 2.12615 0
M  V30 7817 N 736.094 -0.359525 1.53444 0
M  V30 7818 C 737.34 -1.10315 1.70172 0
M  V30 7819 C 737.673 -1.88788 0.455287 0
M  V30 7820 O 736.948 -1.86635 -0.547514 0
M  V30 7821 C 737.231 -2.05744 2.95536 0
M  V30 7822 C 737.084 -1.3084 4.3035 0
M  V30 7823 C 738.403 -3.05784 3.16518 0
M  V30 7824 H 735.522 -0.399662 0.619225 0
M  V30 7825 H 738.164 -0.383338 1.86093 0
M  V30 7826 H 736.314 -2.67125 2.82093 0
M  V30 7827 H 737.986 -0.721959 4.55615 0
M  V30 7828 H 736.229 -0.610283 4.29486 0
M  V30 7829 H 736.9 -2.00718 5.14214 0
M  V30 7830 H 739.376 -2.5451 3.29187 0
M  V30 7831 H 738.252 -3.69772 4.05659 0
M  V30 7832 H 738.513 -3.76289 2.32076 0
M  V30 7833 N 737.572 -1.44907 -0.619662 0
M  V30 7834 C 738.802 -1.51575 -1.40387 0
M  V30 7835 C 739.21 -0.14309 -1.88658 0
M  V30 7836 O 738.553 0.863403 -1.62145 0
M  V30 7837 C 738.615 -2.42858 -2.65067 0
M  V30 7838 C 738.279 -3.8982 -2.38515 0
M  V30 7839 C 739.276 -4.80047 -1.99627 0
M  V30 7840 C 736.961 -4.34628 -2.51801 0
M  V30 7841 C 738.955 -6.13086 -1.74369 0
M  V30 7842 C 736.642 -5.67712 -2.26156 0
M  V30 7843 C 737.64 -6.56759 -1.875 0
M  V30 7844 O 737.328 -7.87377 -1.62148 0
M  V30 7845 H 737.06 -0.51612 -0.436573 0
M  V30 7846 H 739.614 -1.90664 -0.763959 0
M  V30 7847 H 737.844 -1.98717 -3.31735 0
M  V30 7848 H 739.533 -2.40346 -3.27091 0
M  V30 7849 H 740.299 -4.46697 -1.8891 0
M  V30 7850 H 736.178 -3.65568 -2.80857 0
M  V30 7851 H 739.722 -6.8255 -1.44122 0
M  V30 7852 H 735.619 -6.0062 -2.36486 0
M  V30 7853 H 736.387 -7.99288 -1.763 0
M  V30 7854 N 739.05 0.861098 -1.31996 0
M  V30 7855 C 740.327 1.59788 -1.12814 0
M  V30 7856 C 740.707 2.08753 0.313882 0
M  V30 7857 O 740.055 1.87258 1.30946 0
M  V30 7858 C 740.265 2.74901 -2.15012 0
M  V30 7859 C 741.613 3.44643 -2.48004 0
M  V30 7860 O 742.637 2.85119 -2.13508 0
M  V30 7861 O 741.496 4.52044 -3.07113 0
M  V30 7862 H 738.59 0.703408 -0.434909 0
M  V30 7863 H 741.136 0.905788 -1.43505 0
M  V30 7864 H 739.908 2.36198 -3.11971 0
M  V30 7865 H 739.531 3.51792 -1.85279 0
M  V30 7866 N 740.528 1.15101 1.07655 0
M  V30 7867 C 741.438 0.858869 2.18313 0
M  V30 7868 C 742.454 -0.163641 1.73229 0
M  V30 7869 O 743.63 0.00969541 2.01398 0
M  V30 7870 C 740.695 0.34893 3.4494 0
M  V30 7871 C 739.756 1.43495 4.04608 0
M  V30 7872 C 738.989 0.949253 5.2519 0
M  V30 7873 O 739.212 -0.20636 5.70027 0
M  V30 7874 O 738.146 1.73161 5.76454 0
M  V30 7875 H 741.972 1.78386 2.45788 0
M  V30 7876 H 739.557 0.929876 1.16934 0
M  V30 7877 H 741.439 0.070851 4.2134 0
M  V30 7878 H 740.114 -0.548237 3.19024 0
M  V30 7879 H 739.021 1.7666 3.29761 0
M  V30 7880 H 740.354 2.30692 4.3479 0
M  V30 7881 N 742.006 -1.2595 0.947325 0
M  V30 7882 C 742.953 -2.26159 0.460497 0
M  V30 7883 C 743.923 -1.58919 -0.483125 0
M  V30 7884 O 745.108 -1.86603 -0.397983 0
M  V30 7885 C 742.248 -3.441 -0.26247 0
M  V30 7886 C 741.361 -4.25999 0.717539 0
M  V30 7887 C 740.496 -5.31193 -0.0272486 0
M  V30 7888 C 739.535 -6.04774 0.944177 0
M  V30 7889 N 738.672 -7.01721 0.230741 0
M  V30 7890 H 743.512 -2.67173 1.31995 0
M  V30 7891 H 741.049 -1.31358 0.662088 0
M  V30 7892 H 743.007 -4.11317 -0.698137 0
M  V30 7893 H 741.637 -3.03983 -1.08602 0
M  V30 7894 H 740.689 -3.58513 1.27171 0
M  V30 7895 H 742.001 -4.76981 1.45913 0
M  V30 7896 H 741.155 -6.04451 -0.521903 0
M  V30 7897 H 739.894 -4.81066 -0.801682 0
M  V30 7898 H 738.899 -5.30338 1.4499 0
M  V30 7899 H 740.124 -6.56991 1.71872 0
M  V30 7900 H 738.07 -6.53895 -0.525088 0
M  V30 7901 H 737.987 -7.50484 0.911556 0
M  V30 7902 H 739.255 -7.79122 -0.242616 0
M  V30 7903 N 743.484 -0.715051 -1.40445 0
M  V30 7904 C 744.732 -0.253826 -2.005 0
M  V30 7905 C 745.053 1.15681 -1.5698 0
M  V30 7906 O 744.323 1.78414 -0.809027 0
M  V30 7907 H 742.903 -0.0908537 -0.741454 0
M  V30 7908 H 745.565 -0.920561 -1.7179 0
M  V30 7909 H 744.661 -0.286499 -3.10782 0
M  V30 7910 N 744.962 1.50701 -0.461195 0
M  V30 7911 C 746.202 2.04174 0.0960673 0
M  V30 7912 C 746.566 1.33628 1.37868 0
M  V30 7913 O 747.767 1.77602 2.0177 0
M  V30 7914 C 746.038 3.56256 0.285676 0
M  V30 7915 S 747.597 4.31392 0.802917 0
M  V30 7916 H 744.415 0.710701 0.0206282 0
M  V30 7917 H 747.017 1.85204 -0.62607 0
M  V30 7918 H 745.721 4.05159 -0.653773 0
M  V30 7919 H 745.252 3.79562 1.03421 0
M  V30 7920 H 747.267 4.50611 2.07761 0
M  V30 7921 N 746.441 0.193421 1.56409 0
M  V30 7922 C 747.373 -0.759944 2.16235 0
M  V30 7923 C 748.386 -1.17797 1.12373 0
M  V30 7924 O 749.575 -1.11399 1.39472 0
M  V30 7925 C 746.675 -2.03735 2.70823 0
M  V30 7926 C 745.848 -1.77939 3.9957 0
M  V30 7927 C 744.907 -2.90111 4.39001 0
M  V30 7928 O 743.933 -2.59791 5.06456 0
M  V30 7929 N 745.135 -4.18426 4.02368 0
M  V30 7930 H 747.9 -0.248348 2.98669 0
M  V30 7931 H 745.461 0.0113966 1.61896 0
M  V30 7932 H 747.453 -2.77914 2.94187 0
M  V30 7933 H 746.023 -2.46022 1.92852 0
M  V30 7934 H 745.243 -0.875491 3.84355 0
M  V30 7935 H 746.531 -1.58099 4.83614 0
M  V30 7936 H 745.929 -4.45913 3.48106 0
M  V30 7937 H 744.486 -4.89237 4.30686 0
M  V30 7938 N 747.919 -1.57396 -0.0801906 0
M  V30 7939 C 749.159 -1.88668 -0.786367 0
M  V30 7940 C 749.523 -0.786216 -1.75165 0
M  V30 7941 O 750.724 -0.981769 -2.50229 0
M  V30 7942 C 748.995 -3.25176 -1.48308 0
M  V30 7943 S 750.554 -3.78177 -2.22549 0
M  V30 7944 H 747.372 -0.661094 -0.261679 0
M  V30 7945 H 749.974 -1.95453 -0.0428196 0
M  V30 7946 H 748.678 -4.03176 -0.766629 0
M  V30 7947 H 748.209 -3.21567 -2.26623 0
M  V30 7948 H 750.224 -3.52789 -3.48934 0
M  V30 7949 N 749.397 0.351382 -1.53633 0
M  V30 7950 C 750.674 1.10903 -1.6112 0
M  V30 7951 C 751.054 2.06725 -0.427556 0
M  V30 7952 O 750.402 2.20992 0.580916 0
M  V30 7953 C 750.612 1.83561 -2.96827 0
M  V30 7954 C 751.96 2.37587 -3.51906 0
M  V30 7955 O 752.984 1.93669 -2.9895 0
M  V30 7956 O 751.843 3.17913 -4.44515 0
M  V30 7957 H 748.937 0.509558 -0.651368 0
M  V30 7958 H 751.483 0.353504 -1.65977 0
M  V30 7959 H 750.255 1.1371 -3.74414 0
M  V30 7960 H 749.878 2.6599 -2.95525 0
M  V30 7961 N 750.875 1.45233 0.611969 0
M  V30 7962 C 752.121 1.49242 1.37312 0
M  V30 7963 C 752.454 0.131963 1.93751 0
M  V30 7964 O 751.729 -0.852999 1.74798 0
M  V30 7965 C 752.012 2.56811 2.52428 0
M  V30 7966 C 751.865 4.02284 2.01215 0
M  V30 7967 C 753.184 2.60705 3.54572 0
M  V30 7968 H 750.303 0.54336 0.497925 0
M  V30 7969 H 752.945 1.77019 0.690242 0
M  V30 7970 H 751.095 2.33256 3.10683 0
M  V30 7971 H 752.767 4.37035 1.47643 0
M  V30 7972 H 751.01 4.1315 1.32248 0
M  V30 7973 H 751.681 4.7323 2.84178 0
M  V30 7974 H 754.157 2.81799 3.06151 0
M  V30 7975 H 753.033 3.37841 4.32614 0
M  V30 7976 H 753.294 1.65627 4.09903 0
M  V30 7977 N 752.353 -0.854086 1.3245 0
M  V30 7978 C 753.578 -1.64597 1.26185 0
M  V30 7979 C 754.003 -1.87357 -0.167074 0
M  V30 7980 O 753.361 -1.42675 -1.11864 0
M  V30 7981 C 753.409 -2.98213 2.02734 0
M  V30 7982 O 752.513 -3.88784 1.37554 0
M  V30 7983 H 751.854 -0.50179 0.434859 0
M  V30 7984 H 754.384 -1.06372 1.74775 0
M  V30 7985 H 754.394 -3.4803 2.1293 0
M  V30 7986 H 753.069 -2.80969 3.06642 0
M  V30 7987 H 751.646 -3.4725 1.3591 0
M  V30 7988 N 753.831 -1.1567 -1.07043 0
M  V30 7989 C 755.077 -0.9349 -1.79965 0
M  V30 7990 C 755.41 0.536464 -1.86643 0
M  V30 7991 O 754.685 1.39781 -1.35247 0
M  V30 7992 C 754.968 -1.55371 -3.24857 0
M  V30 7993 C 754.821 -3.09589 -3.26305 0
M  V30 7994 C 756.14 -1.24209 -4.22209 0
M  V30 7995 H 753.259 -0.341061 -0.653335 0
M  V30 7996 H 755.901 -1.42883 -1.25237 0
M  V30 7997 H 754.051 -1.13368 -3.71591 0
M  V30 7998 H 755.723 -3.60521 -2.87789 0
M  V30 7999 H 753.966 -3.43315 -2.65174 0
M  V30 8000 H 754.637 -3.48002 -4.28484 0
M  V30 8001 H 757.113 -1.60548 -3.8388 0
M  V30 8002 H 755.989 -1.70119 -5.21872 0
M  V30 8003 H 756.25 -0.15964 -4.41812 0
M  V30 8004 N 755.309 1.25446 -0.953992 0
M  V30 8005 C 756.219 2.29632 -0.480264 0
M  V30 8006 C 757.235 1.68025 0.452071 0
M  V30 8007 O 758.411 1.98703 0.328472 0
M  V30 8008 C 755.476 3.45903 0.234974 0
M  V30 8009 C 754.537 4.22953 -0.735495 0
M  V30 8010 C 753.77 5.33672 -0.0542957 0
M  V30 8011 O 753.993 5.58477 1.16018 0
M  V30 8012 O 752.927 5.9734 -0.739509 0
M  V30 8013 H 756.753 2.72242 -1.34602 0
M  V30 8014 H 754.338 1.30883 -0.720419 0
M  V30 8015 H 756.22 4.16552 0.637341 0
M  V30 8016 H 754.895 3.05296 1.07592 0
M  V30 8017 H 753.802 3.54734 -1.18806 0
M  V30 8018 H 755.135 4.67341 -1.54444 0
M  V30 8019 N 756.787 0.722489 1.40064 0
M  V30 8020 C 758.064 0.191829 1.94657 0
M  V30 8021 C 758.444 -1.30389 1.66018 0
M  V30 8022 O 757.792 -2.06342 0.981588 0
M  V30 8023 C 758.002 0.511978 3.45224 0
M  V30 8024 C 759.35 0.454426 4.22161 0
M  V30 8025 O 760.374 0.448438 3.53366 0
M  V30 8026 O 759.233 0.437986 5.44742 0
M  V30 8027 H 756.327 0.0307821 0.826427 0
M  V30 8028 H 758.873 0.800493 1.49634 0
M  V30 8029 H 757.645 1.54622 3.59455 0
M  V30 8030 H 757.268 -0.126296 3.97399 0
M  V30 8031 N 758.265 -1.50454 0.469181 0
M  V30 8032 C 759.195 -2.31353 -0.31592 0
M  V30 8033 C 760.176 -1.38172 -0.992094 0
M  V30 8034 O 761.361 -1.67093 -0.989633 0
M  V30 8035 C 758.491 -3.1786 -1.39937 0
M  V30 8036 C 757.445 -4.19578 -0.844909 0
M  V30 8037 C 756.771 -4.9481 -2.0265 0
M  V30 8038 C 758.071 -5.22106 0.142499 0
M  V30 8039 H 759.765 -2.97237 0.359269 0
M  V30 8040 H 757.311 -1.42942 0.174224 0
M  V30 8041 H 759.264 -3.7325 -1.95607 0
M  V30 8042 H 757.988 -2.49858 -2.1033 0
M  V30 8043 H 756.647 -3.65285 -0.310189 0
M  V30 8044 H 756.295 -4.23282 -2.71737 0
M  V30 8045 H 755.995 -5.63613 -1.66174 0
M  V30 8046 H 757.519 -5.53035 -2.58815 0
M  V30 8047 H 758.933 -5.72378 -0.324966 0
M  V30 8048 H 757.33 -5.98618 0.421441 0
M  V30 8049 H 758.4 -4.7297 1.06901 0
M  V30 8050 N 759.743 -0.201713 -1.56304 0
M  V30 8051 C 760.971 0.440723 -2.02152 0
M  V30 8052 C 761.386 1.54735 -1.08179 0
M  V30 8053 O 760.743 1.82289 -0.0878196 0
M  V30 8054 C 760.794 0.990884 -3.47655 0
M  V30 8055 O 760.515 -0.0715937 -4.38041 0
M  V30 8056 C 762.016 1.70854 -4.09052 0
M  V30 8057 H 759.236 0.109987 -0.661924 0
M  V30 8058 H 761.78 -0.312358 -2.021 0
M  V30 8059 H 759.935 1.69432 -3.48384 0
M  V30 8060 H 760.349 0.338892 -5.23404 0
M  V30 8061 H 761.823 2.04572 -5.12693 0
M  V30 8062 H 762.3 2.61462 -3.52894 0
M  V30 8063 H 762.906 1.0508 -4.12114 0
M  V30 8064 N 761.222 1.57436 0.0718424 0
M  V30 8065 C 762.633 1.75975 0.623678 0
M  V30 8066 C 762.984 0.827155 1.77912 0
M  V30 8067 O 762.109 0.0112425 2.16397 0
M  V30 8068 C 762.704 3.1911 1.13816 0
M  V30 8069 C 761.263 3.38994 1.63586 0
M  V30 8070 C 760.41 2.71684 0.555261 0
M  V30 8071 H 763.361 1.57948 -0.154328 0
M  V30 8072 H 763.382 3.23267 2.00696 0
M  V30 8073 H 762.894 3.86962 0.296998 0
M  V30 8074 H 760.995 2.76256 2.50027 0
M  V30 8075 H 761.108 4.47436 1.71283 0
M  V30 8076 H 759.472 2.34236 1.00029 0
M  V30 8077 H 760.255 3.42191 -0.275712 0
M  V30 8078 N 762.7 -0.34323 1.53817 0
M  V30 8079 C 764.111 -0.918823 1.62525 0
M  V30 8080 C 764.462 -1.89542 0.506765 0
M  V30 8081 O 763.587 -2.13326 -0.363441 0
M  V30 8082 C 764.182 -1.67326 2.94597 0
M  V30 8083 C 762.741 -2.19786 3.05567 0
M  V30 8084 C 761.888 -1.01708 2.57974 0
M  V30 8085 H 764.839 -0.121358 1.58235 0
M  V30 8086 H 764.86 -2.53615 2.83654 0
M  V30 8087 H 764.372 -0.962223 3.75983 0
M  V30 8088 H 762.473 -2.94065 2.28816 0
M  V30 8089 H 762.586 -2.46135 4.1104 0
M  V30 8090 H 760.95 -1.39058 2.13389 0
M  V30 8091 H 761.733 -0.320671 3.41799 0
M  V30 8092 N 764.178 -1.45556 -0.604258 0
M  V30 8093 C 765.108 -1.57327 -1.72541 0
M  V30 8094 C 766.089 -0.424637 -1.64714 0
M  V30 8095 O 767.274 -0.648196 -1.83063 0
M  V30 8096 C 764.404 -1.54279 -3.11152 0
M  V30 8097 C 763.358 -2.67893 -3.33792 0
M  V30 8098 C 762.684 -2.499 -4.72709 0
M  V30 8099 C 763.984 -4.0988 -3.23722 0
M  V30 8100 H 765.678 -2.51175 -1.62947 0
M  V30 8101 H 763.224 -1.20884 -0.782504 0
M  V30 8102 H 765.177 -1.6111 -3.89386 0
M  V30 8103 H 763.901 -0.569627 -3.21594 0
M  V30 8104 H 762.56 -2.60495 -2.57949 0
M  V30 8105 H 762.208 -1.50715 -4.79889 0
M  V30 8106 H 761.908 -3.26091 -4.88813 0
M  V30 8107 H 763.432 -2.5859 -5.5314 0
M  V30 8108 H 764.846 -4.18503 -3.91826 0
M  V30 8109 H 763.243 -4.86487 -3.51355 0
M  V30 8110 H 764.313 -4.31553 -2.21111 0
M  V30 8111 N 765.656 0.84705 -1.32902 0
M  V30 8112 C 766.603 1.95624 -1.22473 0
M  V30 8113 C 767.573 1.65767 -0.105178 0
M  V30 8114 O 768.758 1.88704 -0.282042 0
M  V30 8115 C 765.898 3.31434 -0.961542 0
M  V30 8116 C 765.011 3.73741 -2.1666 0
M  V30 8117 C 764.146 4.98379 -1.83825 0
M  V30 8118 C 763.185 5.33199 -3.00609 0
M  V30 8119 N 762.322 6.49014 -2.67816 0
M  V30 8120 H 767.162 2.03875 -2.17345 0
M  V30 8121 H 764.699 0.997764 -1.08088 0
M  V30 8122 H 766.657 4.09663 -0.789411 0
M  V30 8123 H 765.287 3.22762 -0.0495938 0
M  V30 8124 H 764.339 2.91102 -2.44875 0
M  V30 8125 H 765.651 3.95462 -3.03993 0
M  V30 8126 H 764.805 5.84336 -1.63208 0
M  V30 8127 H 763.544 4.78611 -0.937172 0
M  V30 8128 H 762.549 4.4575 -3.21849 0
M  V30 8129 H 763.774 5.5492 -3.9146 0
M  V30 8130 H 761.72 6.30748 -1.80258 0
M  V30 8131 H 761.637 6.7079 -3.48679 0
M  V30 8132 H 762.905 7.38103 -2.50647 0
M  V30 8133 N 767.134 1.16236 1.06428 0
M  V30 8134 C 768.362 0.967184 1.82902 0
M  V30 8135 C 768.777 -0.484601 1.82475 0
M  V30 8136 O 768.134 -1.33631 1.24294 0
M  V30 8137 C 768.185 1.48534 3.29576 0
M  V30 8138 O 767.906 2.88026 3.3011 0
M  V30 8139 C 769.407 1.33298 4.22784 0
M  V30 8140 H 766.627 0.342923 0.576754 0
M  V30 8141 H 769.171 1.54232 1.34286 0
M  V30 8142 H 767.326 0.952513 3.75508 0
M  V30 8143 H 767.74 3.11721 4.21818 0
M  V30 8144 H 769.214 1.74385 5.23731 0
M  V30 8145 H 769.691 0.278356 4.38317 0
M  V30 8146 H 770.297 1.85535 3.82697 0
M  V30 8147 N 768.612 -1.24939 0.960631 0
M  V30 8148 C 769.858 -1.93104 0.61958 0
M  V30 8149 C 770.191 -1.74991 -0.84212 0
M  V30 8150 O 769.466 -1.09867 -1.60498 0
M  V30 8151 C 769.749 -3.46326 0.986422 0
M  V30 8152 C 769.602 -3.73638 2.50429 0
M  V30 8153 C 770.921 -4.37067 0.515827 0
M  V30 8154 H 768.04 -0.701311 0.226566 0
M  V30 8155 H 770.682 -1.47442 1.19836 0
M  V30 8156 H 768.832 -3.85348 0.493907 0
M  V30 8157 H 770.504 -3.44217 3.07103 0
M  V30 8158 H 768.747 -3.19035 2.93937 0
M  V30 8159 H 769.418 -4.80815 2.71147 0
M  V30 8160 H 771.894 -4.05381 0.938389 0
M  V30 8161 H 770.77 -5.43022 0.80114 0
M  V30 8162 H 771.031 -4.38224 -0.584171 0
M  V30 8163 N 770.09 -0.729906 -1.39679 0
M  V30 8164 C 771.339 -0.272534 -1.9985 0
M  V30 8165 C 771.652 1.14519 -1.58571 0
M  V30 8166 O 772.858 1.70182 -2.11543 0
M  V30 8167 C 771.314 -0.436322 -3.57245 0
M  V30 8168 C 770.922 -1.86161 -4.0749 0
M  V30 8169 C 772.666 -0.0404679 -4.24481 0
M  V30 8170 C 770.573 -1.97522 -5.5744 0
M  V30 8171 H 769.503 -0.0981428 -0.747585 0
M  V30 8172 H 772.154 -0.903056 -1.59741 0
M  V30 8173 H 770.536 0.263015 -3.95126 0
M  V30 8174 H 771.71 -2.59248 -3.80955 0
M  V30 8175 H 770.025 -2.21021 -3.529 0
M  V30 8176 H 772.622 -0.104437 -5.34598 0
M  V30 8177 H 772.965 1.00357 -4.04023 0
M  V30 8178 H 773.498 -0.690774 -3.91757 0
M  V30 8179 H 770.237 -3.00096 -5.82771 0
M  V30 8180 H 769.757 -1.28864 -5.85794 0
M  V30 8181 H 771.436 -1.754 -6.22771 0
M  V30 8182 N 771.568 1.50203 -0.477153 0
M  V30 8183 C 772.984 1.59056 -0.131663 0
M  V30 8184 C 773.184 1.48473 1.36227 0
M  V30 8185 O 772.24 1.34635 2.13611 0
M  V30 8186 C 773.553 2.92741 -0.687254 0
M  V30 8187 C 775.101 3.0615 -0.651223 0
M  V30 8188 C 775.576 4.42419 -1.18446 0
M  V30 8189 N 777.067 4.48847 -1.14413 0
M  V30 8190 C 777.802 5.52689 -1.52717 0
M  V30 8191 N 777.298 6.63754 -1.98499 0
M  V30 8192 N 779.091 5.43267 -1.44282 0
M  V30 8193 H 771.242 1.55325 -1.44872 0
M  V30 8194 H 773.505 0.734395 -0.599473 0
M  V30 8195 H 773.211 3.0598 -1.73405 0
M  V30 8196 H 773.085 3.76961 -0.134215 0
M  V30 8197 H 775.472 2.92556 0.386677 0
M  V30 8198 H 775.553 2.23673 -1.24114 0
M  V30 8199 H 775.197 4.56763 -2.22103 0
M  V30 8200 H 775.127 5.23498 -0.570709 0
M  V30 8201 H 777.618 3.69152 -0.808416 0
M  V30 8202 H 777.931 7.39059 -2.25859 0
M  V30 8203 H 776.276 6.64858 -2.02456 0
M  V30 8204 H 779.467 4.55387 -1.08352 0
M  V30 8205 H 779.64 6.24074 -1.74459 0
M  V30 8206 N 773.046 0.209999 1.56195 0
M  V30 8207 C 774.009 -0.691232 2.18528 0
M  V30 8208 C 775.009 -1.13013 1.14388 0
M  V30 8209 O 776.199 -1.04081 1.39688 0
M  V30 8210 C 773.331 -1.94551 2.79934 0
M  V30 8211 H 774.524 -0.147953 2.99535 0
M  V30 8212 H 772.077 -0.0396243 1.5625 0
M  V30 8213 H 772.812 -2.53094 2.02766 0
M  V30 8214 H 772.597 -1.63938 3.56184 0
M  V30 8215 H 774.087 -2.58785 3.2775 0
M  V30 8216 N 774.524 -1.57472 -0.0634922 0
M  V30 8217 C 775.773 -1.86837 -0.759928 0
M  V30 8218 C 776.086 -0.803823 -1.7832 0
M  V30 8219 O 777.292 -0.985578 -2.52979 0
M  V30 8220 C 775.748 -3.31448 -1.4025 0
M  V30 8221 C 775.356 -4.46052 -0.417368 0
M  V30 8222 C 777.1 -3.70003 -2.08082 0
M  V30 8223 C 775.007 -5.81707 -1.06633 0
M  V30 8224 H 773.937 -0.697009 -0.287567 0
M  V30 8225 H 776.588 -1.83495 -0.0133914 0
M  V30 8226 H 774.97 -3.29427 -2.19759 0
M  V30 8227 H 776.144 -4.5948 0.348503 0
M  V30 8228 H 774.459 -4.16104 0.156955 0
M  V30 8229 H 777.056 -4.68653 -2.57426 0
M  V30 8230 H 777.399 -3.00226 -2.88393 0
M  V30 8231 H 777.932 -3.7405 -1.35394 0
M  V30 8232 H 774.671 -6.54798 -0.303374 0
M  V30 8233 H 774.191 -5.72064 -1.80286 0
M  V30 8234 H 775.87 -6.27317 -1.58376 0
M  V30 8235 N 776.003 0.335068 -1.53997 0
M  V30 8236 C 777.419 0.678704 -1.4445 0
M  V30 8237 C 777.619 1.92106 -0.608078 0
M  V30 8238 O 776.675 2.52292 -0.102373 0
M  V30 8239 C 777.988 0.863435 -2.88037 0
M  V30 8240 C 779.536 0.961513 -2.97866 0
M  V30 8241 C 780.011 1.1785 -4.42578 0
M  V30 8242 N 781.502 1.2455 -4.46141 0
M  V30 8243 C 782.237 1.43106 -5.55255 0
M  V30 8244 N 781.733 1.5878 -6.74359 0
M  V30 8245 N 783.526 1.45722 -5.42883 0
M  V30 8246 H 775.677 -0.481656 -2.06867 0
M  V30 8247 H 777.94 -0.153615 -0.935471 0
M  V30 8248 H 777.646 0.0219511 -3.51693 0
M  V30 8249 H 777.52 1.76268 -3.33481 0
M  V30 8250 H 779.907 1.79351 -2.34344 0
M  V30 8251 H 779.988 0.0389862 -2.5577 0
M  V30 8252 H 779.632 0.351397 -5.06683 0
M  V30 8253 H 779.562 2.11472 -4.82273 0
M  V30 8254 H 782.053 1.13928 -3.60318 0
M  V30 8255 H 782.366 1.72599 -7.53279 0
M  V30 8256 H 780.711 1.559 -6.77289 0
M  V30 8257 H 783.902 1.33065 -4.48789 0
M  V30 8258 H 784.075 1.59841 -6.27977 0
M  V30 8259 N 777.481 1.45874 0.596531 0
M  V30 8260 C 778.73 1.49737 1.35135 0
M  V30 8261 C 779.043 0.147755 1.95041 0
M  V30 8262 O 780.249 0.0640984 2.71424 0
M  V30 8263 C 778.705 2.6378 2.44843 0
M  V30 8264 C 778.313 4.05102 1.91301 0
M  V30 8265 C 780.057 2.769 3.21755 0
M  V30 8266 C 777.964 5.10508 2.98557 0
M  V30 8267 H 776.894 0.557219 0.507959 0
M  V30 8268 H 779.545 1.72046 0.638147 0
M  V30 8269 H 777.927 2.34774 3.189 0
M  V30 8270 H 779.101 4.43836 1.2388 0
M  V30 8271 H 777.416 3.96528 1.271 0
M  V30 8272 H 780.013 3.52819 4.01775 0
M  V30 8273 H 780.356 1.83924 3.73467 0
M  V30 8274 H 780.889 3.05485 2.54802 0
M  V30 8275 H 777.628 6.0523 2.51749 0
M  V30 8276 H 777.148 4.76332 3.6451 0
M  V30 8277 H 778.827 5.35745 3.62748 0
M  V30 8278 N 778.959 -0.83999 1.33349 0
M  V30 8279 C 779.892 -1.95415 1.17848 0
M  V30 8280 C 780.87 -1.6243 0.0742296 0
M  V30 8281 O 782.054 -1.87014 0.23626 0
M  V30 8282 C 779.181 -3.28938 0.807295 0
M  V30 8283 C 778.227 -3.80895 1.91888 0
M  V30 8284 S 779.06 -4.02709 3.52967 0
M  V30 8285 C 780.216 -5.39185 3.17853 0
M  V30 8286 H 780.449 -2.08265 2.12162 0
M  V30 8287 H 777.982 -0.993643 1.18178 0
M  V30 8288 H 779.94 -4.06093 0.599914 0
M  V30 8289 H 778.601 -3.13881 -0.117234 0
M  V30 8290 H 777.794 -4.77508 1.6125 0
M  V30 8291 H 777.396 -3.10633 2.08286 0
M  V30 8292 H 779.688 -6.21978 2.68608 0
M  V30 8293 H 780.631 -5.74795 4.13542 0
M  V30 8294 H 781.039 -5.03885 2.5448 0
M  V30 8295 N 780.437 -1.16799 -1.0581 0
M  V30 8296 C 781.384 -0.87902 -2.13405 0
M  V30 8297 C 782.354 0.174541 -1.6518 0
M  V30 8298 O 783.539 0.0386843 -1.90761 0
M  V30 8299 C 780.679 -0.391616 -3.42871 0
M  V30 8300 C 779.792 -1.50857 -4.04804 0
M  V30 8301 C 778.927 -0.975682 -5.22163 0
M  V30 8302 C 777.966 -2.06851 -5.76089 0
M  V30 8303 N 777.103 -1.55085 -6.84758 0
M  V30 8304 H 781.943 -1.80043 -2.37463 0
M  V30 8305 H 779.48 -0.898083 -1.16503 0
M  V30 8306 H 781.438 -0.0906247 -4.17102 0
M  V30 8307 H 780.068 0.49284 -3.19016 0
M  V30 8308 H 779.12 -1.92542 -3.28073 0
M  V30 8309 H 780.432 -2.33305 -4.40874 0
M  V30 8310 H 779.586 -0.628165 -6.03439 0
M  V30 8311 H 778.325 -0.120566 -4.87551 0
M  V30 8312 H 777.33 -2.42467 -4.93447 0
M  V30 8313 H 778.555 -2.92768 -6.12751 0
M  V30 8314 H 776.501 -0.718345 -6.52055 0
M  V30 8315 H 776.418 -2.31145 -7.19797 0
M  V30 8316 H 777.686 -1.23206 -7.69702 0
M  V30 8317 N 781.915 1.24427 -0.967243 0
M  V30 8318 C 783.162 1.92487 -0.62888 0
M  V30 8319 C 783.49 1.75623 0.835871 0
M  V30 8320 O 782.745 1.1027 1.61675 0
M  V30 8321 C 783.044 3.44568 -0.949096 0
M  V30 8322 C 782.71 3.816 -2.40192 0
M  V30 8323 C 781.372 3.9142 -2.799 0
M  V30 8324 C 783.724 3.99715 -3.34481 0
M  V30 8325 C 781.052 4.16771 -4.12939 0
M  V30 8326 C 783.404 4.26562 -4.67148 0
M  V30 8327 C 782.068 4.34601 -5.06634 0
M  V30 8328 H 781.338 0.704361 -0.230124 0
M  V30 8329 H 783.985 1.4772 -1.21864 0
M  V30 8330 H 782.29 3.90819 -0.277085 0
M  V30 8331 H 783.987 3.95436 -0.665692 0
M  V30 8332 H 780.577 3.74522 -2.08402 0
M  V30 8333 H 784.761 3.91531 -3.04987 0
M  V30 8334 H 780.017 4.21214 -4.43158 0
M  V30 8335 H 784.191 4.39523 -5.40178 0
M  V30 8336 H 781.818 4.53998 -6.09746 0
M  V30 8337 N 783.393 0.737304 1.3929 0
M  V30 8338 C 784.343 0.0748537 2.27877 0
M  V30 8339 C 785.327 -0.71022 1.44377 0
M  V30 8340 O 786.519 -0.578851 1.67267 0
M  V30 8341 C 783.648 -0.82991 3.33118 0
M  V30 8342 C 782.734 -0.0388619 4.24082 0
M  V30 8343 N 783.125 0.989182 4.96033 0
M  V30 8344 C 781.423 -0.268167 4.45193 0
M  V30 8345 C 782.124 1.46639 5.62914 0
M  V30 8346 N 781.1 0.784581 5.37908 0
M  V30 8347 H 784.902 0.862457 2.80961 0
M  V30 8348 H 782.416 0.571845 1.51999 0
M  V30 8349 H 784.413 -1.31999 3.95452 0
M  V30 8350 H 783.073 -1.61665 2.81593 0
M  V30 8351 H 784.084 1.3706 4.99435 0
M  V30 8352 H 780.761 -1.02953 4.04607 0
M  V30 8353 H 782.151 2.32182 6.30508 0
M  V30 8354 N 784.871 -1.49948 0.485112 0
M  V30 8355 C 786.117 -2.02695 -0.0651022 0
M  V30 8356 C 786.45 -1.36534 -1.38102 0
M  V30 8357 O 785.725 -0.495677 -1.88078 0
M  V30 8358 C 786.008 -3.59337 -0.234285 0
M  V30 8359 C 785.861 -4.3605 1.10364 0
M  V30 8360 C 787.18 -4.28996 -0.982351 0
M  V30 8361 H 784.299 -0.736666 -0.0221856 0
M  V30 8362 H 786.941 -1.7913 0.633433 0
M  V30 8363 H 785.091 -3.79546 -0.829262 0
M  V30 8364 H 786.763 -4.27377 1.73627 0
M  V30 8365 H 785.006 -3.99236 1.69686 0
M  V30 8366 H 785.677 -5.43959 0.938743 0
M  V30 8367 H 788.153 -4.13346 -0.477904 0
M  V30 8368 H 787.029 -5.38379 -1.06955 0
M  V30 8369 H 787.29 -3.93135 -2.02231 0
M  V30 8370 N 786.349 -0.21828 -1.56081 0
M  V30 8371 C 787.312 0.679633 -2.18892 0
M  V30 8372 C 788.312 1.12405 -1.14986 0
M  V30 8373 O 789.502 1.03339 -1.40238 0
M  V30 8374 C 786.634 1.93063 -2.80962 0
M  V30 8375 H 787.827 0.132066 -2.99609 0
M  V30 8376 H 785.38 0.0313374 -1.56269 0
M  V30 8377 H 786.115 2.52015 -2.04106 0
M  V30 8378 H 785.9 1.62046 -3.57048 0
M  V30 8379 H 787.39 2.57043 -3.29118 0
M  V30 8380 N 787.827 1.57504 0.0551401 0
M  V30 8381 C 788.774 2.04825 1.06373 0
M  V30 8382 C 789.744 0.932108 1.37481 0
M  V30 8383 O 790.929 1.20093 1.48265 0
M  V30 8384 C 788.069 2.51091 2.36743 0
M  V30 8385 C 787.182 3.76392 2.12021 0
M  V30 8386 C 786.317 4.11373 3.36074 0
M  V30 8387 C 785.356 5.29666 3.0679 0
M  V30 8388 N 784.493 5.60205 4.2322 0
M  V30 8389 H 789.333 2.90753 0.653216 0
M  V30 8390 H 786.87 1.43776 0.310951 0
M  V30 8391 H 788.828 2.75973 3.12881 0
M  V30 8392 H 787.458 1.68118 2.75565 0
M  V30 8393 H 786.51 3.58751 1.26498 0
M  V30 8394 H 787.822 4.62662 1.86401 0
M  V30 8395 H 786.976 4.37245 4.20597 0
M  V30 8396 H 785.715 3.23704 3.64784 0
M  V30 8397 H 784.72 5.03574 2.20664 0
M  V30 8398 H 785.945 6.18968 2.79385 0
M  V30 8399 H 783.891 4.75495 4.5193 0
M  V30 8400 H 783.808 6.40928 4.00933 0
M  V30 8401 H 785.076 5.90637 5.08692 0
M  V30 8402 N 789.305 -0.326896 1.54172 0
M  V30 8403 C 790.721 -0.671034 1.44808 0
M  V30 8404 C 790.921 -1.91781 0.618258 0
M  V30 8405 O 789.977 -2.52235 0.115751 0
M  V30 8406 C 791.29 -0.848147 2.88491 0
M  V30 8407 C 792.838 -0.945702 2.98371 0
M  V30 8408 C 793.313 -1.15501 4.43197 0
M  V30 8409 N 794.804 -1.22183 4.46795 0
M  V30 8410 C 795.539 -1.4016 5.56006 0
M  V30 8411 N 795.035 -1.55202 6.75192 0
M  V30 8412 N 796.828 -1.42841 5.43648 0
M  V30 8413 H 788.979 0.49262 2.06608 0
M  V30 8414 H 791.242 0.158574 0.934643 0
M  V30 8415 H 790.948 -0.00329969 3.517 0
M  V30 8416 H 790.822 -1.74497 3.34411 0
M  V30 8417 H 793.209 -1.78106 2.35292 0
M  V30 8418 H 793.29 -0.0254215 2.55787 0
M  V30 8419 H 792.934 -0.324521 5.06862 0
M  V30 8420 H 792.864 -2.08911 4.83388 0
M  V30 8421 H 795.355 -1.12016 3.60917 0
M  V30 8422 H 795.668 -1.68601 7.54184 0
M  V30 8423 H 794.013 -1.52306 6.78106 0
M  V30 8424 H 797.204 -1.30683 4.49488 0
M  V30 8425 H 797.377 -1.56509 6.28816 0
M  V30 8426 N 790.784 -1.46188 -0.588786 0
M  V30 8427 C 791.731 -1.56292 -1.69828 0
M  V30 8428 C 792.701 -0.407581 -1.61022 0
M  V30 8429 O 793.886 -0.623532 -1.80324 0
M  V30 8430 C 791.026 -1.55341 -3.08161 0
M  V30 8431 C 790.139 -2.81564 -3.27636 0
M  V30 8432 C 789.274 -2.72158 -4.56183 0
M  V30 8433 C 788.313 -3.93348 -4.68981 0
M  V30 8434 N 787.45 -3.82365 -5.88848 0
M  V30 8435 H 792.29 -2.51066 -1.6053 0
M  V30 8436 H 789.827 -1.24562 -0.782474 0
M  V30 8437 H 791.785 -1.52776 -3.88221 0
M  V30 8438 H 790.415 -0.641034 -3.16371 0
M  V30 8439 H 789.467 -2.94136 -2.41223 0
M  V30 8440 H 790.779 -3.714 -3.32962 0
M  V30 8441 H 789.933 -2.67665 -5.44464 0
M  V30 8442 H 788.672 -1.79953 -4.53286 0
M  V30 8443 H 787.677 -3.98181 -3.7912 0
M  V30 8444 H 788.902 -4.86643 -4.73662 0
M  V30 8445 H 786.848 -2.92942 -5.86959 0
M  V30 8446 H 786.765 -4.65851 -5.95415 0
M  V30 8447 H 788.033 -3.81836 -6.79575 0
M  V30 8448 N 792.262 0.832906 -1.33792 0
M  V30 8449 C 793.509 1.58853 -1.25586 0
M  V30 8450 C 793.837 1.93695 0.176807 0
M  V30 8451 O 793.092 1.59386 1.13554 0
M  V30 8452 C 793.391 2.9047 -2.08235 0
M  V30 8453 C 793.057 2.74965 -3.57358 0
M  V30 8454 C 791.719 2.70444 -3.98012 0
M  V30 8455 C 794.071 2.59347 -4.52093 0
M  V30 8456 C 791.399 2.48212 -5.31608 0
M  V30 8457 C 793.751 2.38649 -5.85858 0
M  V30 8458 C 792.415 2.32533 -6.25687 0
M  V30 8459 H 791.685 0.581285 -0.459553 0
M  V30 8460 H 794.332 0.964501 -1.65438 0
M  V30 8461 H 792.637 3.57111 -1.6118 0
M  V30 8462 H 794.334 3.48001 -1.99239 0
M  V30 8463 H 790.924 2.79319 -3.25083 0
M  V30 8464 H 795.108 2.6187 -4.2159 0
M  V30 8465 H 790.364 2.41929 -5.61498 0
M  V30 8466 H 794.538 2.25549 -6.58863 0
M  V30 8467 H 792.165 2.15067 -7.29143 0
M  V30 8468 N 793.74 1.17359 1.05189 0
M  V30 8469 C 794.687 0.890325 2.12936 0
M  V30 8470 C 795.657 -0.165779 1.65271 0
M  V30 8471 O 796.842 -0.0285672 1.90779 0
M  V30 8472 C 793.982 0.409793 3.42658 0
M  V30 8473 C 793.095 1.53002 4.03998 0
M  V30 8474 C 792.23 1.00336 5.21638 0
M  V30 8475 C 791.269 2.09903 5.74984 0
M  V30 8476 N 790.406 1.58714 6.83926 0
M  V30 8477 H 795.246 1.81299 2.36505 0
M  V30 8478 H 792.783 0.904249 1.16025 0
M  V30 8479 H 794.741 0.112743 4.17048 0
M  V30 8480 H 793.371 -0.475915 3.19272 0
M  V30 8481 H 792.423 1.9428 3.27047 0
M  V30 8482 H 793.735 2.3564 4.39631 0
M  V30 8483 H 792.889 0.660158 6.03098 0
M  V30 8484 H 791.628 0.14642 4.8748 0
M  V30 8485 H 790.633 2.45081 4.92154 0
M  V30 8486 H 791.858 2.96013 6.1119 0
M  V30 8487 H 789.804 0.752915 6.51665 0
M  V30 8488 H 789.721 2.34959 7.18561 0
M  V30 8489 H 790.989 1.27287 7.69037 0
M  V30 8490 N 795.218 -1.23913 0.973828 0
M  V30 8491 C 796.128 -2.28838 0.516735 0
M  V30 8492 C 797.144 -1.68723 -0.425282 0
M  V30 8493 O 798.32 -1.99201 -0.296819 0
M  V30 8494 C 795.385 -3.46233 -0.179914 0
M  V30 8495 C 794.446 -4.21729 0.80269 0
M  V30 8496 C 793.679 -5.33518 0.139191 0
M  V30 8497 O 793.902 -5.60252 -1.07118 0
M  V30 8498 O 792.836 -5.96088 0.834447 0
M  V30 8499 H 796.662 -2.70067 1.38916 0
M  V30 8500 H 794.247 -1.2972 0.74115 0
M  V30 8501 H 796.129 -4.17514 -0.570991 0
M  V30 8502 H 794.804 -3.06969 -1.02721 0
M  V30 8503 H 793.711 -3.52799 1.24434 0
M  V30 8504 H 795.044 -4.64825 1.61859 0
M  V30 8505 N 796.696 -0.74468 -1.38897 0
M  V30 8506 C 797.924 -0.307428 -2.04603 0
M  V30 8507 C 798.339 1.06115 -1.56157 0
M  V30 8508 O 797.696 1.67233 -0.730701 0
M  V30 8509 C 797.747 -0.31101 -3.6016 0
M  V30 8510 O 797.468 -1.62557 -4.06825 0
M  V30 8511 C 798.969 0.141213 -4.43075 0
M  V30 8512 H 796.189 -0.132741 -0.657739 0
M  V30 8513 H 798.733 -1.01104 -1.77759 0
M  V30 8514 H 796.888 0.343792 -3.85872 0
M  V30 8515 H 797.302 -1.54569 -5.01207 0
M  V30 8516 H 798.776 0.0875449 -5.51931 0
M  V30 8517 H 799.253 1.18782 -4.22833 0
M  V30 8518 H 799.859 -0.484383 -4.22533 0
M  V30 8519 N 798.174 1.49689 -0.493057 0
M  V30 8520 C 799.104 2.31826 0.279073 0
M  V30 8521 C 800.085 1.39733 0.969987 0
M  V30 8522 O 801.27 1.68646 0.962925 0
M  V30 8523 C 798.4 3.20046 1.34862 0
M  V30 8524 C 797.354 4.20869 0.77805 0
M  V30 8525 C 796.68 4.97971 1.94753 0
M  V30 8526 C 797.98 5.21813 -0.225543 0
M  V30 8527 H 799.674 2.96627 -0.406512 0
M  V30 8528 H 797.22 1.42647 -0.196943 0
M  V30 8529 H 799.173 3.76315 1.89645 0
M  V30 8530 H 797.897 2.53172 2.06328 0
M  V30 8531 H 796.556 3.65733 0.252036 0
M  V30 8532 H 796.204 4.27552 2.64969 0
M  V30 8533 H 795.904 5.66186 1.57187 0
M  V30 8534 H 797.428 5.57082 2.49984 0
M  V30 8535 H 798.842 5.72823 0.233864 0
M  V30 8536 H 797.239 5.97872 -0.516622 0
M  V30 8537 H 798.309 4.71209 -1.14412 0
M  V30 8538 N 799.652 0.226554 1.55963 0
M  V30 8539 C 801.068 -0.128733 1.5908 0
M  V30 8540 C 801.268 -1.58558 1.24345 0
M  V30 8541 O 800.324 -2.32661 0.981069 0
M  V30 8542 C 801.637 0.202076 3.0002 0
M  V30 8543 C 803.185 0.144718 3.12665 0
M  V30 8544 C 803.66 0.449272 4.55791 0
M  V30 8545 N 805.151 0.399026 4.61478 0
M  V30 8546 C 805.886 0.608106 5.70166 0
M  V30 8547 N 805.382 0.879227 6.87198 0
M  V30 8548 N 807.175 0.5402 5.59498 0
M  V30 8549 H 799.326 1.17686 1.76816 0
M  V30 8550 H 801.589 0.472072 0.822102 0
M  V30 8551 H 801.295 1.21341 3.30105 0
M  V30 8552 H 801.169 -0.480554 3.74126 0
M  V30 8553 H 803.556 -0.857261 2.82374 0
M  V30 8554 H 803.637 0.860899 2.40878 0
M  V30 8555 H 803.281 1.44871 4.86801 0
M  V30 8556 H 803.211 -0.288157 5.25811 0
M  V30 8557 H 805.702 0.197372 3.77384 0
M  V30 8558 H 806.015 1.02673 7.65949 0
M  V30 8559 H 804.36 0.916477 6.88931 0
M  V30 8560 H 807.551 0.328581 4.66945 0
M  V30 8561 H 807.724 0.706548 6.44137 0
M  V30 8562 N 801.13 -1.57531 -0.0467866 0
M  V30 8563 C 802.541 -1.76945 -0.595603 0
M  V30 8564 C 802.892 -0.855354 -1.76573 0
M  V30 8565 O 802.017 -0.045668 -2.16352 0
M  V30 8566 C 802.612 -3.20881 -1.08725 0
M  V30 8567 C 801.171 -3.41553 -1.58172 0
M  V30 8568 C 800.318 -2.72533 -0.511968 0
M  V30 8569 H 803.269 -1.57682 0.179436 0
M  V30 8570 H 803.29 -3.26419 -1.95528 0
M  V30 8571 H 802.802 -3.87385 -0.235398 0
M  V30 8572 H 800.903 -2.80199 -2.456 0
M  V30 8573 H 801.016 -4.50104 -1.64143 0
M  V30 8574 H 799.38 -2.35797 -0.962899 0
M  V30 8575 H 800.163 -3.41709 0.330117 0
M  V30 8576 N 802.608 0.318715 -1.54344 0
M  V30 8577 C 803.838 1.07394 -1.76494 0
M  V30 8578 C 804.246 1.82031 -0.515881 0
M  V30 8579 O 803.589 1.7609 0.52325 0
M  V30 8580 C 803.651 2.11401 -2.90775 0
M  V30 8581 C 803.315 1.56118 -4.29507 0
M  V30 8582 C 804.312 1.00043 -5.10184 0
M  V30 8583 C 801.997 1.60215 -4.76063 0
M  V30 8584 C 803.991 0.487993 -6.35529 0
M  V30 8585 C 801.678 1.08584 -6.01376 0
M  V30 8586 C 802.676 0.529714 -6.80943 0
M  V30 8587 O 802.364 0.0211823 -8.03897 0
M  V30 8588 H 802.096 0.325061 -0.592715 0
M  V30 8589 H 804.65 0.36901 -2.02058 0
M  V30 8590 H 802.88 2.85524 -2.60793 0
M  V30 8591 H 804.569 2.72683 -3.00664 0
M  V30 8592 H 805.335 0.961811 -4.75367 0
M  V30 8593 H 801.214 2.02441 -4.14172 0
M  V30 8594 H 804.758 0.0532608 -6.9758 0
M  V30 8595 H 800.655 1.12155 -6.35682 0
M  V30 8596 H 801.423 0.136151 -8.18387 0
M  V30 8597 N 804.086 1.46499 0.581025 0
M  V30 8598 C 805.363 1.42372 1.34125 0
M  V30 8599 C 805.743 0.108073 2.10823 0
M  V30 8600 O 805.091 -0.910366 2.09582 0
M  V30 8601 C 805.301 2.65445 2.26583 0
M  V30 8602 C 806.649 3.11664 2.88359 0
M  V30 8603 O 807.673 2.66006 2.36896 0
M  V30 8604 O 806.532 3.90974 3.81839 0
M  V30 8605 H 803.626 0.566262 0.602724 0
M  V30 8606 H 806.172 1.58667 0.601903 0
M  V30 8607 H 804.944 3.52756 1.69348 0
M  V30 8608 H 804.567 2.51618 3.07854 0
M  V30 8609 N 805.565 -0.825799 1.34232 0
M  V30 8610 C 806.811 -1.58419 1.26614 0
M  V30 8611 C 807.144 -1.93503 -0.164341 0
M  V30 8612 O 806.419 -1.59785 -1.109 0
M  V30 8613 C 806.702 -2.8856 2.15418 0
M  V30 8614 C 806.555 -2.60075 3.66989 0
M  V30 8615 C 807.874 -3.90107 2.03726 0
M  V30 8616 H 804.993 -0.574794 0.461282 0
M  V30 8617 H 807.635 -0.951519 1.64457 0
M  V30 8618 H 805.785 -3.42553 1.83275 0
M  V30 8619 H 807.457 -2.12414 4.09485 0
M  V30 8620 H 805.7 -1.93565 3.88221 0
M  V30 8621 H 806.371 -3.52866 4.24488 0
M  V30 8622 H 808.847 -3.45459 2.31942 0
M  V30 8623 H 807.723 -4.78976 2.68092 0
M  V30 8624 H 807.984 -4.30329 1.01337 0
M  V30 8625 N 807.043 -1.17915 -1.04565 0
M  V30 8626 C 807.99 -0.901605 -2.12461 0
M  V30 8627 C 808.96 0.157011 -1.65356 0
M  V30 8628 O 810.145 0.0184494 -1.90791 0
M  V30 8629 C 807.285 -0.42796 -3.42436 0
M  V30 8630 C 806.398 -1.55142 -4.03181 0
M  V30 8631 C 805.533 -1.03101 -5.21098 0
M  V30 8632 C 804.572 -2.1295 -5.73863 0
M  V30 8633 N 803.709 -1.62339 -6.83074 0
M  V30 8634 H 808.549 -1.82551 -2.3554 0
M  V30 8635 H 806.086 -0.910389 -1.15544 0
M  V30 8636 H 808.044 -0.134859 -4.16982 0
M  V30 8637 H 806.674 0.458977 -3.1952 0
M  V30 8638 H 805.726 -1.96011 -3.26012 0
M  V30 8639 H 807.038 -2.37968 -4.38375 0
M  V30 8640 H 806.192 -0.692132 -6.02739 0
M  V30 8641 H 804.931 -0.17227 -4.87396 0
M  V30 8642 H 803.936 -2.47687 -4.90847 0
M  V30 8643 H 805.161 -2.9925 -6.09611 0
M  V30 8644 H 803.107 -0.787464 -6.51256 0
M  V30 8645 H 803.024 -2.38767 -7.17305 0
M  V30 8646 H 804.292 -1.31363 -7.68351 0
M  V30 8647 N 808.521 1.23394 -0.980386 0
M  V30 8648 C 809.798 1.87242 -0.565667 0
M  V30 8649 C 810.178 1.88151 0.957197 0
M  V30 8650 O 809.526 1.36309 1.8339 0
M  V30 8651 C 809.736 3.28743 -1.17172 0
M  V30 8652 C 811.084 4.05335 -1.26446 0
M  V30 8653 O 812.108 3.37962 -1.12517 0
M  V30 8654 O 810.967 5.25908 -1.48604 0
M  V30 8655 H 808.061 0.80477 -0.190459 0
M  V30 8656 H 810.607 1.3127 -1.07547 0
M  V30 8657 H 809.379 3.22647 -2.21392 0
M  V30 8658 H 809.002 3.92305 -0.646739 0
M  V30 8659 N 809.999 0.752036 1.385 0
M  V30 8660 C 811.245 0.307958 2.00448 0
M  V30 8661 C 811.578 -1.10702 1.59558 0
M  V30 8662 O 810.853 -1.75788 0.832391 0
M  V30 8663 C 811.136 0.429092 3.57534 0
M  V30 8664 C 810.989 1.88507 4.08393 0
M  V30 8665 C 812.308 -0.178442 4.39738 0
M  V30 8666 H 809.427 0.113373 0.728228 0
M  V30 8667 H 812.069 0.951389 1.64465 0
M  V30 8668 H 810.219 -0.118695 3.88319 0
M  V30 8669 H 811.891 2.49104 3.88259 0
M  V30 8670 H 810.134 2.40066 3.61318 0
M  V30 8671 H 810.805 1.92099 5.17496 0
M  V30 8672 H 813.281 0.28872 4.15097 0
M  V30 8673 H 812.157 -0.0634349 5.48863 0
M  V30 8674 H 812.418 -1.26655 4.23569 0
M  V30 8675 N 811.477 -1.49425 0.500989 0
M  V30 8676 C 812.726 -2.01649 -0.04538 0
M  V30 8677 C 813.039 -1.38572 -1.38047 0
M  V30 8678 O 814.245 -1.82124 -2.01353 0
M  V30 8679 C 812.701 -3.5966 -0.131337 0
M  V30 8680 C 812.309 -4.3171 1.19711 0
M  V30 8681 C 814.053 -4.19828 -0.628071 0
M  V30 8682 C 811.96 -5.81579 1.07332 0
M  V30 8683 H 810.89 -0.753715 -0.0207329 0
M  V30 8684 H 813.541 -1.71962 0.640407 0
M  V30 8685 H 811.923 -3.86063 -0.881574 0
M  V30 8686 H 813.097 -4.17008 1.96064 0
M  V30 8687 H 811.412 -3.83286 1.62729 0
M  V30 8688 H 814.009 -5.2958 -0.738198 0
M  V30 8689 H 814.352 -3.83194 -1.6269 0
M  V30 8690 H 814.885 -3.97746 0.0656314 0
M  V30 8691 H 811.624 -6.22738 2.04642 0
M  V30 8692 H 811.144 -5.98774 0.350679 0
M  V30 8693 H 812.823 -6.42614 0.752047 0
M  V30 8694 N 812.955 -0.234822 -1.55841 0
M  V30 8695 C 813.865 0.680828 -2.24504 0
M  V30 8696 C 814.881 1.20306 -1.25708 0
M  V30 8697 O 816.057 1.24188 -1.58554 0
M  V30 8698 C 813.122 1.86636 -2.92178 0
M  V30 8699 C 812.183 1.3848 -4.06352 0
M  V30 8700 C 811.416 2.51382 -4.70789 0
M  V30 8701 O 811.639 3.69831 -4.34259 0
M  V30 8702 O 810.573 2.21828 -5.59532 0
M  V30 8703 H 814.399 0.12583 -3.03439 0
M  V30 8704 H 811.984 -0.00381817 -1.494 0
M  V30 8705 H 813.866 2.55845 -3.34845 0
M  V30 8706 H 812.541 2.40921 -2.16192 0
M  V30 8707 H 811.448 0.660341 -3.68226 0
M  V30 8708 H 812.781 0.888177 -4.8412 0
M  V30 8709 N 814.433 1.57553 0.0384317 0
M  V30 8710 C 815.365 2.02726 1.06934 0
M  V30 8711 C 816.378 0.938502 1.33026 0
M  V30 8712 O 817.567 1.21595 1.30678 0
M  V30 8713 C 814.667 2.37958 2.41308 0
M  V30 8714 C 813.84 3.69098 2.34703 0
M  V30 8715 C 812.899 3.91623 3.51451 0
M  V30 8716 O 811.925 4.628 3.31368 0
M  V30 8717 N 813.127 3.36538 4.72993 0
M  V30 8718 H 815.892 2.91781 0.684381 0
M  V30 8719 H 813.453 1.60307 0.226542 0
M  V30 8720 H 815.445 2.50172 3.18113 0
M  V30 8721 H 814.015 1.54621 2.71682 0
M  V30 8722 H 813.235 3.67325 1.43059 0
M  V30 8723 H 814.523 4.55144 2.27424 0
M  V30 8724 H 813.921 2.78828 4.92211 0
M  V30 8725 H 812.478 3.54148 5.47195 0
M  V30 8726 N 815.911 -0.310526 1.54511 0
M  V30 8727 C 817.141 -1.06456 1.77061 0
M  V30 8728 C 817.549 -1.81755 0.525528 0
M  V30 8729 O 816.892 -1.76365 -0.513904 0
M  V30 8730 C 816.954 -2.09856 2.91892 0
M  V30 8731 C 816.618 -1.53838 4.30329 0
M  V30 8732 C 817.615 -0.973358 5.10707 0
M  V30 8733 C 815.3 -1.57688 4.76906 0
M  V30 8734 C 817.294 -0.454283 6.35779 0
M  V30 8735 C 814.981 -1.05393 6.01943 0
M  V30 8736 C 815.979 -0.493595 6.81214 0
M  V30 8737 O 815.667 0.0214506 8.03897 0
M  V30 8738 H 815.399 -0.321913 0.594431 0
M  V30 8739 H 817.953 -0.358289 2.02251 0
M  V30 8740 H 816.183 -2.84137 2.62304 0
M  V30 8741 H 817.872 -2.71085 3.02106 0
M  V30 8742 H 818.638 -0.936588 4.75871 0
M  V30 8743 H 814.517 -2.00242 4.1524 0
M  V30 8744 H 818.061 -0.0162657 6.97598 0
M  V30 8745 H 813.958 -1.08782 6.36268 0
M  V30 8746 H 814.726 -0.0927478 8.18447 0
M  V30 8747 N 817.389 -1.46805 -0.573248 0
M  V30 8748 C 818.614 -1.56433 -1.36175 0
M  V30 8749 C 819.039 -0.209336 -1.86932 0
M  V30 8750 O 818.397 0.812146 -1.62092 0
M  V30 8751 C 818.445 -2.58055 -2.51873 0
M  V30 8752 O 817.549 -2.12214 -3.53609 0
M  V30 8753 H 816.89 -0.526068 -0.405153 0
M  V30 8754 H 819.42 -1.92456 -0.694405 0
M  V30 8755 H 819.43 -2.77966 -2.98662 0
M  V30 8756 H 818.105 -3.56448 -2.14284 0
M  V30 8757 H 816.682 -2.02333 -3.13234 0
M  V30 8758 N 818.867 0.818669 -1.34668 0
M  V30 8759 C 819.83 1.9114 -1.26483 0
M  V30 8760 C 820.83 1.598 -0.179044 0
M  V30 8761 O 822.02 1.6876 -0.431952 0
M  V30 8762 C 819.152 3.27285 -0.95381 0
M  V30 8763 H 820.345 1.9982 -2.23634 0
M  V30 8764 H 817.898 1.01314 -1.19018 0
M  V30 8765 H 818.633 3.24297 0.0143428 0
M  V30 8766 H 818.418 3.51416 -1.73924 0
M  V30 8767 H 819.908 4.07299 -0.921827 0
M  V30 8768 N 820.346 1.18468 1.03938 0
M  V30 8769 C 821.594 0.978895 1.76811 0
M  V30 8770 C 821.915 -0.49257 1.88676 0
M  V30 8771 O 821.185 -1.3572 1.41269 0
M  V30 8772 H 819.765 0.359201 0.654968 0
M  V30 8773 H 822.427 1.49173 1.25433 0
M  V30 8774 H 821.523 1.418 2.78027 0
M  V30 8775 N 821.824 -1.22873 0.986916 0
M  V30 8776 C 822.774 -2.2237 0.503547 0
M  V30 8777 C 823.758 -1.55186 -0.424998 0
M  V30 8778 O 824.95 -1.75186 -0.252791 0
M  V30 8779 C 822.079 -3.42794 -0.186355 0
M  V30 8780 C 821.165 -4.17196 0.762143 0
M  V30 8781 N 821.556 -4.68453 1.9075 0
M  V30 8782 C 819.854 -4.42255 0.576797 0
M  V30 8783 C 820.555 -5.25126 2.50235 0
M  V30 8784 N 819.531 -5.13437 1.7856 0
M  V30 8785 H 823.333 -2.59636 1.37718 0
M  V30 8786 H 820.847 -1.38476 0.848415 0
M  V30 8787 H 822.844 -4.13256 -0.549993 0
M  V30 8788 H 821.504 -3.07042 -1.05619 0
M  V30 8789 H 822.515 -4.64595 2.28848 0
M  V30 8790 H 819.192 -4.16766 -0.247474 0
M  V30 8791 H 820.582 -5.75363 3.46997 0
M  V30 8792 N 823.302 -0.75937 -1.38099 0
M  V30 8793 C 824.232 -0.151077 -2.33011 0
M  V30 8794 C 825.213 0.697099 -1.5516 0
M  V30 8795 O 826.398 0.637101 -1.83452 0
M  V30 8796 C 823.528 0.738423 -3.39359 0
M  V30 8797 C 822.482 -0.0074741 -4.27999 0
M  V30 8798 C 821.808 1.00066 -5.25253 0
M  V30 8799 C 823.108 -1.17926 -5.08813 0
M  V30 8800 H 824.802 -0.943933 -2.84131 0
M  V30 8801 H 822.348 -0.455362 -1.36611 0
M  V30 8802 H 824.301 1.17369 -4.04725 0
M  V30 8803 H 823.025 1.56366 -2.86735 0
M  V30 8804 H 821.684 -0.423379 -3.64147 0
M  V30 8805 H 821.332 1.82012 -4.68914 0
M  V30 8806 H 821.032 0.506199 -5.85416 0
M  V30 8807 H 822.556 1.43512 -5.93495 0
M  V30 8808 H 823.97 -0.821262 -5.67387 0
M  V30 8809 H 822.367 -1.60497 -5.78239 0
M  V30 8810 H 823.437 -1.98938 -4.42212 0
M  V30 8811 N 824.78 1.49157 -0.508906 0
M  V30 8812 C 826.057 1.95363 0.0961913 0
M  V30 8813 C 826.437 1.45064 1.53362 0
M  V30 8814 O 825.785 0.667835 2.18523 0
M  V30 8815 C 825.995 3.49 0.000688881 0
M  V30 8816 C 827.343 4.24257 0.170632 0
M  V30 8817 O 828.367 3.5612 0.0754994 0
M  V30 8818 O 827.226 5.45267 0.366957 0
M  V30 8819 H 824.32 0.821984 0.0909489 0
M  V30 8820 H 826.866 1.59769 -0.572007 0
M  V30 8821 H 825.638 3.78269 -1.00143 0
M  V30 8822 H 825.261 3.91233 0.708682 0
M  V30 8823 N 826.258 0.243083 1.55714 0
M  V30 8824 C 827.191 -0.698623 2.17243 0
M  V30 8825 C 828.169 -1.1756 1.12331 0
M  V30 8826 O 829.353 -1.25444 1.40699 0
M  V30 8827 C 826.48 -1.94901 2.77004 0
M  V30 8828 C 825.526 -1.61022 3.94936 0
M  V30 8829 S 826.359 -0.716173 5.30689 0
M  V30 8830 C 827.515 -1.97565 5.93901 0
M  V30 8831 H 827.748 -0.175724 2.9678 0
M  V30 8832 H 825.281 0.0275727 1.54375 0
M  V30 8833 H 827.239 -2.66687 3.12071 0
M  V30 8834 H 825.9 -2.44304 1.9742 0
M  V30 8835 H 825.093 -2.5398 4.35328 0
M  V30 8836 H 824.695 -0.972829 3.61126 0
M  V30 8837 H 826.987 -2.92333 6.11186 0
M  V30 8838 H 827.93 -1.61528 6.8943 0
M  V30 8839 H 828.338 -2.126 5.22935 0
M  V30 8840 N 827.736 -1.57571 -0.0300757 0
M  V30 8841 C 828.666 -2.0953 -1.03051 0
M  V30 8842 C 829.647 -0.99761 -1.37774 0
M  V30 8843 O 830.832 -1.27279 -1.46676 0
M  V30 8844 C 827.962 -2.57385 -2.33174 0
M  V30 8845 C 826.916 -3.71409 -2.12696 0
M  V30 8846 C 826.242 -4.05467 -3.4857 0
M  V30 8847 C 827.542 -4.99877 -1.51396 0
M  V30 8848 H 829.236 -2.93367 -0.597999 0
M  V30 8849 H 826.782 -1.41127 -0.286203 0
M  V30 8850 H 828.735 -2.92355 -3.03491 0
M  V30 8851 H 827.459 -1.70629 -2.78484 0
M  V30 8852 H 826.118 -3.36786 -1.44813 0
M  V30 8853 H 825.766 -3.15779 -3.91526 0
M  V30 8854 H 825.466 -4.82269 -3.35694 0
M  V30 8855 H 826.99 -4.4297 -4.2025 0
M  V30 8856 H 828.404 -5.3281 -2.11629 0
M  V30 8857 H 826.801 -5.81283 -1.49098 0
M  V30 8858 H 827.871 -4.82522 -0.479676 0
M  V30 8859 N 829.214 0.302327 -1.54673 0
M  V30 8860 C 830.454 1.04568 -1.75627 0
M  V30 8861 C 830.818 1.84535 -0.530175 0
M  V30 8862 O 832.019 2.61613 -0.61743 0
M  V30 8863 C 830.29 1.92873 -3.0089 0
M  V30 8864 S 831.849 2.73872 -3.4284 0
M  V30 8865 H 828.667 0.352682 -0.617362 0
M  V30 8866 H 831.269 0.319239 -1.92876 0
M  V30 8867 H 829.973 1.32998 -3.88252 0
M  V30 8868 H 829.504 2.69887 -2.86225 0
M  V30 8869 H 831.519 3.95386 -2.99807 0
M  V30 8870 N 830.692 1.47107 0.565454 0
M  V30 8871 C 832.108 1.32443 0.890566 0
M  V30 8872 C 832.308 0.308735 1.99121 0
M  V30 8873 O 831.364 -0.28265 2.50913 0
M  V30 8874 C 832.677 2.71548 1.2916 0
M  V30 8875 C 834.225 2.7977 1.40349 0
M  V30 8876 C 834.7 4.19497 1.83811 0
M  V30 8877 N 836.191 4.21998 1.90975 0
M  V30 8878 C 836.926 5.2702 2.25916 0
M  V30 8879 N 836.422 6.42353 2.59527 0
M  V30 8880 N 838.215 5.14393 2.26619 0
M  V30 8881 H 830.366 2.11786 -0.161328 0
M  V30 8882 H 832.629 0.947952 -0.00950631 0
M  V30 8883 H 832.335 3.47265 0.556753 0
M  V30 8884 H 832.209 3.02782 2.24951 0
M  V30 8885 H 834.596 2.0433 2.12916 0
M  V30 8886 H 834.677 2.522 0.427655 0
M  V30 8887 H 834.321 4.95439 1.11816 0
M  V30 8888 H 834.251 4.44486 2.82382 0
M  V30 8889 H 836.742 3.38791 1.6742 0
M  V30 8890 H 837.055 7.18252 2.85191 0
M  V30 8891 H 835.4 6.45687 2.57126 0
M  V30 8892 H 838.591 4.2332 1.99794 0
M  V30 8893 H 838.764 5.96349 2.5352 0
M  V30 8894 N 832.17 -0.811516 1.35101 0
M  V30 8895 C 833.419 -1.56343 1.27435 0
M  V30 8896 C 833.732 -1.95019 -0.150696 0
M  V30 8897 O 834.938 -2.6924 -0.349586 0
M  V30 8898 C 833.394 -2.82124 2.23459 0
M  V30 8899 C 833.002 -2.50706 3.71283 0
M  V30 8900 C 834.746 -3.60137 2.24726 0
M  V30 8901 C 832.653 -3.72748 4.59143 0
M  V30 8902 H 831.583 -0.58682 0.473453 0
M  V30 8903 H 834.234 -0.892465 1.60335 0
M  V30 8904 H 832.616 -3.50905 1.83525 0
M  V30 8905 H 833.79 -1.89962 4.19823 0
M  V30 8906 H 832.105 -1.85947 3.72576 0
M  V30 8907 H 834.702 -4.50775 2.87587 0
M  V30 8908 H 835.045 -3.97101 1.24965 0
M  V30 8909 H 835.578 -2.98311 2.63164 0
M  V30 8910 H 832.317 -3.40896 5.59884 0
M  V30 8911 H 831.837 -4.32735 4.15332 0
M  V30 8912 H 833.516 -4.40033 4.74321 0
M  V30 8913 N 833.648 -1.19017 -1.03309 0
M  V30 8914 C 834.595 -0.924088 -2.11493 0
M  V30 8915 C 835.565 0.139464 -1.65513 0
M  V30 8916 O 836.75 -0.00178761 -1.908 0
M  V30 8917 C 833.89 -0.464255 -3.41963 0
M  V30 8918 C 833.003 -1.5941 -4.01513 0
M  V30 8919 C 832.138 -1.08622 -5.19976 0
M  V30 8920 C 831.177 -2.19024 -5.71572 0
M  V30 8921 N 830.314 -1.69575 -6.81314 0
M  V30 8922 H 835.154 -1.85039 -2.33591 0
M  V30 8923 H 832.691 -0.922593 -1.14572 0
M  V30 8924 H 834.649 -0.179078 -4.16815 0
M  V30 8925 H 833.279 0.425062 -3.19989 0
M  V30 8926 H 832.331 -1.99458 -3.23915 0
M  V30 8927 H 833.643 -2.42604 -4.35826 0
M  V30 8928 H 832.797 -0.756022 -6.01971 0
M  V30 8929 H 831.536 -0.223955 -4.87186 0
M  V30 8930 H 830.541 -2.5288 -4.88193 0
M  V30 8931 H 831.766 -3.05699 -6.06403 0
M  V30 8932 H 829.712 -0.856494 -6.50385 0
M  V30 8933 H 829.629 -2.46361 -7.14732 0
M  V30 8934 H 830.897 -1.39505 -7.66915 0
M  V30 8935 N 835.127 1.22348 -0.993418 0
M  V30 8936 C 836.352 1.95666 -0.687727 0
M  V30 8937 C 836.777 1.72883 0.741161 0
M  V30 8938 O 836.135 1.00837 1.50671 0
M  V30 8939 C 836.183 3.46457 -0.99998 0
M  V30 8940 O 835.287 4.12281 -0.0989386 0
M  V30 8941 H 834.628 0.612102 -0.257346 0
M  V30 8942 H 837.158 1.55428 -1.33054 0
M  V30 8943 H 837.168 3.96976 -0.942035 0
M  V30 8944 H 835.843 3.62365 -2.04118 0
M  V30 8945 H 834.42 3.72295 -0.212413 0
M  V30 8946 N 836.605 0.766683 1.37694 0
M  V30 8947 C 837.535 0.163432 2.32927 0
M  V30 8948 C 838.516 -0.688861 1.55527 0
M  V30 8949 O 839.701 -0.627363 1.83787 0
M  V30 8950 C 836.831 -0.720416 3.39746 0
M  V30 8951 C 835.785 0.0301718 4.27989 0
M  V30 8952 C 835.111 -0.972788 5.25776 0
M  V30 8953 C 836.411 1.20623 5.0818 0
M  V30 8954 H 838.105 0.958988 2.83626 0
M  V30 8955 H 835.651 0.462601 1.36367 0
M  V30 8956 H 837.604 -1.15221 4.05342 0
M  V30 8957 H 836.328 -1.54844 2.8756 0
M  V30 8958 H 834.987 0.442685 3.63917 0
M  V30 8959 H 834.635 -1.79522 4.69873 0
M  V30 8960 H 834.335 -0.475145 5.85676 0
M  V30 8961 H 835.859 -1.40362 5.94248 0
M  V30 8962 H 837.273 0.851341 5.66944 0
M  V30 8963 H 835.67 1.63561 5.7738 0
M  V30 8964 H 836.74 2.01281 4.41151 0
M  V30 8965 N 838.083 -1.48885 0.516809 0
M  V30 8966 C 839.015 -2.27357 -0.290061 0
M  V30 8967 C 840.028 -1.34558 -0.916406 0
M  V30 8968 O 841.217 -1.59715 -0.797073 0
M  V30 8969 C 838.317 -3.07496 -1.42476 0
M  V30 8970 C 837.49 -4.27982 -0.902793 0
M  V30 8971 C 836.549 -4.90038 -1.91701 0
M  V30 8972 O 835.575 -5.49643 -1.47922 0
M  V30 8973 N 836.777 -4.811 -3.24843 0
M  V30 8974 H 839.542 -2.97244 0.382884 0
M  V30 8975 H 837.103 -1.58064 0.35032 0
M  V30 8976 H 839.095 -3.45882 -2.10113 0
M  V30 8977 H 837.665 -2.40115 -2.00159 0
M  V30 8978 H 836.885 -3.94167 -0.0508272 0
M  V30 8979 H 838.173 -5.06003 -0.532723 0
M  V30 8980 H 837.571 -4.33801 -3.63088 0
M  V30 8981 H 836.128 -5.23625 -3.8815 0
M  V30 8982 N 839.561 -0.251338 -1.55583 0
M  V30 8983 C 840.789 0.376187 -2.03451 0
M  V30 8984 C 841.204 1.51215 -1.13047 0
M  V30 8985 O 840.561 1.81917 -0.145769 0
M  V30 8986 C 840.612 0.879779 -3.50631 0
M  V30 8987 O 840.333 -0.210917 -4.37592 0
M  V30 8988 C 841.834 1.57754 -4.14281 0
M  V30 8989 H 839.054 0.0888722 -0.665089 0
M  V30 8990 H 841.598 -0.376497 -2.01004 0
M  V30 8991 H 839.753 1.58263 -3.53598 0
M  V30 8992 H 840.167 0.172203 -5.24217 0
M  V30 8993 H 841.641 1.88158 -5.18942 0
M  V30 8994 H 842.118 2.50103 -3.61034 0
M  V30 8995 H 842.724 0.919154 -4.15249 0
M  V30 8996 N 841.039 1.57585 0.0217189 0
M  V30 8997 C 842.455 1.55072 0.377484 0
M  V30 8998 C 842.655 0.978423 1.76151 0
M  V30 8999 O 841.711 0.602688 2.45202 0
M  V30 9000 C 843.024 2.99462 0.272605 0
M  V30 9001 C 844.572 3.11047 0.349148 0
M  V30 9002 C 845.047 4.57182 0.273636 0
M  V30 9003 N 846.538 4.62007 0.332206 0
M  V30 9004 C 847.273 5.72631 0.296782 0
M  V30 9005 N 846.769 6.92472 0.21322 0
M  V30 9006 N 848.562 5.61028 0.347053 0
M  V30 9007 H 840.713 1.93133 -0.883925 0
M  V30 9008 H 842.976 0.886151 -0.33681 0
M  V30 9009 H 842.682 3.45088 -0.67878 0
M  V30 9010 H 842.556 3.61901 1.06335 0
M  V30 9011 H 844.943 2.65364 1.29097 0
M  V30 9012 H 845.024 2.51425 -0.471085 0
M  V30 9013 H 844.668 5.03534 -0.664548 0
M  V30 9014 H 844.598 5.14724 1.11207 0
M  V30 9015 H 847.089 3.75788 0.399003 0
M  V30 9016 H 847.402 7.72563 0.191492 0
M  V30 9017 H 845.747 6.94769 0.179161 0
M  V30 9018 H 848.938 4.66298 0.410378 0
M  V30 9019 H 849.111 6.47229 0.315979 0
M  V30 9020 N 842.517 -0.29412 1.54831 0
M  V30 9021 C 843.763 -1.02999 1.74697 0
M  V30 9022 C 844.096 -1.86687 0.534949 0
M  V30 9023 O 843.371 -1.88789 -0.467863 0
M  V30 9024 C 843.654 -1.93024 3.03996 0
M  V30 9025 C 843.507 -1.1247 4.35512 0
M  V30 9026 C 844.826 -2.92085 3.29203 0
M  V30 9027 H 841.945 -0.373039 0.635618 0
M  V30 9028 H 844.587 -0.304065 1.87551 0
M  V30 9029 H 842.737 -2.5492 2.93169 0
M  V30 9030 H 844.409 -0.528067 4.58268 0
M  V30 9031 H 842.652 -0.427574 4.31688 0
M  V30 9032 H 843.323 -1.78728 5.22265 0
M  V30 9033 H 845.799 -2.40319 3.39685 0
M  V30 9034 H 844.675 -3.52234 4.20978 0
M  V30 9035 H 844.936 -3.66107 2.47827 0
M  V30 9036 N 843.995 -1.47404 -0.557645 0
M  V30 9037 C 845.272 -1.44488 -1.31843 0
M  V30 9038 C 845.652 -0.1416 -2.10625 0
M  V30 9039 O 845 0.876908 -2.11004 0
M  V30 9040 C 845.21 -2.69016 -2.22331 0
M  V30 9041 C 846.558 -3.16212 -2.83364 0
M  V30 9042 O 847.582 -2.69741 -2.32634 0
M  V30 9043 O 846.441 -3.96999 -3.75571 0
M  V30 9044 H 843.535 -0.57578 -0.593639 0
M  V30 9045 H 846.081 -1.59605 -0.576584 0
M  V30 9046 H 844.853 -3.55406 -1.63715 0
M  V30 9047 H 844.476 -2.56484 -3.03812 0
M  V30 9048 N 845.473 0.80434 -1.35529 0
M  V30 9049 C 846.405 1.92445 -1.2449 0
M  V30 9050 C 847.418 1.61934 -0.167685 0
M  V30 9051 O 848.607 1.73461 -0.42115 0
M  V30 9052 C 845.707 3.26875 -0.894751 0
M  V30 9053 C 844.88 3.85275 -2.07079 0
M  V30 9054 C 843.939 4.98116 -1.69607 0
M  V30 9055 O 842.965 5.15424 -2.41509 0
M  V30 9056 N 844.167 5.77169 -0.621012 0
M  V30 9057 H 846.932 2.02441 -2.20993 0
M  V30 9058 H 844.493 0.981874 -1.28728 0
M  V30 9059 H 846.485 3.99837 -0.625511 0
M  V30 9060 H 845.055 3.12594 -0.0193306 0
M  V30 9061 H 844.275 3.0448 -2.5037 0
M  V30 9062 H 845.563 4.21024 -2.85685 0
M  V30 9063 H 844.961 5.65695 -0.0236679 0
M  V30 9064 H 843.518 6.50499 -0.411558 0
M  V30 9065 N 846.951 1.19563 1.02676 0
M  V30 9066 C 848.2 0.993864 1.75514 0
M  V30 9067 C 848.513 -0.475882 1.89723 0
M  V30 9068 O 849.719 -0.796525 2.59553 0
M  V30 9069 C 848.175 1.72937 3.15628 0
M  V30 9070 C 847.783 3.23937 3.09466 0
M  V30 9071 C 849.527 1.61092 3.92746 0
M  V30 9072 C 847.434 3.90067 4.44524 0
M  V30 9073 H 846.364 0.368244 0.657961 0
M  V30 9074 H 849.015 1.43081 1.14891 0
M  V30 9075 H 847.397 1.22025 3.76731 0
M  V30 9076 H 848.571 3.81983 2.57731 0
M  V30 9077 H 846.886 3.3608 2.45843 0
M  V30 9078 H 849.483 2.07848 4.92649 0
M  V30 9079 H 849.826 0.565415 4.12442 0
M  V30 9080 H 850.359 2.09361 3.3825 0
M  V30 9081 H 847.098 4.94725 4.30032 0
M  V30 9082 H 846.618 3.36809 4.96306 0
M  V30 9083 H 848.297 3.93736 5.13401 0
M  V30 9084 N 848.429 -1.21819 0.999893 0
M  V30 9085 C 849.359 -2.26282 0.576096 0
M  V30 9086 C 850.34 -1.65317 -0.400537 0
M  V30 9087 O 851.525 -1.92028 -0.28964 0
M  V30 9088 C 848.655 -3.47147 -0.103145 0
M  V30 9089 C 847.609 -4.20594 0.792745 0
M  V30 9090 C 846.935 -5.34696 -0.0198026 0
M  V30 9091 C 848.235 -4.78533 2.09293 0
M  V30 9092 H 849.929 -2.61984 1.4493 0
M  V30 9093 H 847.475 -1.25935 0.698316 0
M  V30 9094 H 849.428 -4.1939 -0.411068 0
M  V30 9095 H 848.152 -3.1056 -1.01094 0
M  V30 9096 H 846.811 -3.50194 1.08442 0
M  V30 9097 H 846.459 -4.94352 -0.928729 0
M  V30 9098 H 846.159 -5.84764 0.576661 0
M  V30 9099 H 847.683 -6.09752 -0.321659 0
M  V30 9100 H 849.097 -5.42682 1.8485 0
M  V30 9101 H 847.494 -5.38968 2.63881 0
M  V30 9102 H 848.564 -3.98197 2.76708 0
M  V30 9103 N 849.908 -0.773975 -1.37286 0
M  V30 9104 C 851.156 -0.338636 -1.99243 0
M  V30 9105 C 851.477 1.08919 -1.61746 0
M  V30 9106 O 850.747 1.74822 -0.88397 0
M  V30 9107 H 849.327 -0.12222 -0.736934 0
M  V30 9108 H 851.989 -0.992595 -1.67731 0
M  V30 9109 H 851.085 -0.418055 -3.09287 0
M  V30 9110 N 851.386 1.48609 -0.524698 0
M  V30 9111 C 852.333 2.29539 0.240956 0
M  V30 9112 C 853.303 1.37033 0.938681 0
M  V30 9113 O 854.488 1.65996 0.940737 0
M  V30 9114 C 851.628 3.20278 1.28514 0
M  V30 9115 C 850.741 4.27858 0.596798 0
M  V30 9116 C 849.876 5.05784 1.62346 0
M  V30 9117 C 848.915 6.05173 0.918287 0
M  V30 9118 N 848.052 6.76176 1.89025 0
M  V30 9119 H 852.892 2.945 -0.455368 0
M  V30 9120 H 850.429 1.45188 -0.236403 0
M  V30 9121 H 852.387 3.71281 1.90279 0
M  V30 9122 H 851.017 2.57251 1.94992 0
M  V30 9123 H 850.069 3.80162 -0.134668 0
M  V30 9124 H 851.381 4.98782 0.0428506 0
M  V30 9125 H 850.535 5.60775 2.31553 0
M  V30 9126 H 849.274 4.34687 2.2113 0
M  V30 9127 H 848.279 5.49391 0.21212 0
M  V30 9128 H 849.504 6.78265 0.336633 0
M  V30 9129 H 847.45 6.07834 2.46726 0
M  V30 9130 H 847.367 7.43157 1.3876 0
M  V30 9131 H 848.635 7.35759 2.57446 0
M  V30 9132 N 852.864 0.259585 1.55447 0
M  V30 9133 C 854.112 -0.360893 1.98852 0
M  V30 9134 C 854.433 -1.57535 1.14924 0
M  V30 9135 O 853.703 -1.94485 0.235025 0
M  V30 9136 H 852.283 -0.136332 0.734454 0
M  V30 9137 H 854.945 0.361319 1.91522 0
M  V30 9138 H 854.041 -0.661388 3.05012 0
M  V30 9139 N 854.342 -1.57594 -0.0133615 0
M  V30 9140 C 855.274 -2.04402 -1.03695 0
M  V30 9141 C 856.287 -0.959546 -1.31516 0
M  V30 9142 O 857.476 -1.23659 -1.28727 0
M  V30 9143 C 854.576 -2.41766 -2.37491 0
M  V30 9144 C 853.749 -3.72785 -2.28802 0
M  V30 9145 C 852.808 -3.97165 -3.45176 0
M  V30 9146 O 851.834 -4.68013 -3.23963 0
M  V30 9147 N 853.036 -3.44021 -4.67579 0
M  V30 9148 H 855.801 -2.92833 -0.637874 0
M  V30 9149 H 853.362 -1.60647 -0.20101 0
M  V30 9150 H 855.354 -2.55201 -3.14093 0
M  V30 9151 H 853.924 -1.58924 -2.69188 0
M  V30 9152 H 853.144 -3.69555 -1.37197 0
M  V30 9153 H 854.432 -4.58704 -2.20154 0
M  V30 9154 H 853.83 -2.86623 -4.87713 0
M  V30 9155 H 852.387 -3.62808 -5.41492 0
M  V30 9156 N 855.82 0.285905 -1.54985 0
M  V30 9157 C 857.069 1.01691 -1.74189 0
M  V30 9158 C 857.382 1.87908 -0.543135 0
M  V30 9159 O 858.588 2.64389 -0.617305 0
M  V30 9160 C 857.044 1.85785 -3.0824 0
M  V30 9161 C 856.652 1.04497 -4.35642 0
M  V30 9162 C 858.396 2.58393 -3.36798 0
M  V30 9163 C 856.303 1.87955 -5.60738 0
M  V30 9164 H 855.233 0.383396 -0.649248 0
M  V30 9165 H 857.884 0.27317 -1.81455 0
M  V30 9166 H 856.266 2.64205 -2.94978 0
M  V30 9167 H 857.44 0.305847 -4.59784 0
M  V30 9168 H 855.755 0.434023 -4.14132 0
M  V30 9169 H 858.352 3.21214 -4.27464 0
M  V30 9170 H 858.695 3.28011 -2.56349 0
M  V30 9171 H 859.228 1.87012 -3.511 0
M  V30 9172 H 855.967 1.22781 -6.43898 0
M  V30 9173 H 855.487 2.59499 -5.40759 0
M  V30 9174 H 857.166 2.45636 -5.98558 0
M  V30 9175 N 857.298 1.47698 0.54982 0
M  V30 9176 C 858.526 1.5833 1.33188 0
M  V30 9177 C 858.941 0.236193 1.87317 0
M  V30 9178 O 858.298 -0.77167 1.65383 0
M  V30 9179 C 858.349 2.61438 2.49664 0
M  V30 9180 O 858.07 3.9092 1.97771 0
M  V30 9181 C 859.571 2.82324 3.41772 0
M  V30 9182 H 856.791 0.53443 0.405741 0
M  V30 9183 H 859.335 1.93375 0.665309 0
M  V30 9184 H 857.49 2.29307 3.12245 0
M  V30 9185 H 857.904 4.47323 2.73866 0
M  V30 9186 H 859.378 3.58316 4.19897 0
M  V30 9187 H 859.855 1.90416 3.95776 0
M  V30 9188 H 860.461 3.15682 2.85 0
M  V30 9189 N 858.776 -0.797141 1.35954 0
M  V30 9190 C 860.001 -1.59097 1.33053 0
M  V30 9191 C 860.426 -1.87897 -0.0874592 0
M  V30 9192 O 859.784 -1.47291 -1.05712 0
M  V30 9193 C 859.832 -2.89346 2.152 0
M  V30 9194 O 858.936 -3.826 1.5392 0
M  V30 9195 H 858.277 -0.482895 0.45575 0
M  V30 9196 H 860.807 -0.988633 1.79129 0
M  V30 9197 H 860.817 -3.38686 2.27499 0
M  V30 9198 H 859.492 -2.6771 3.18283 0
M  V30 9199 H 858.069 -3.41174 1.50516 0
M  V30 9200 N 860.254 -1.20106 -1.0204 0
M  V30 9201 C 861.531 -0.918029 -1.72718 0
M  V30 9202 C 861.911 0.574163 -2.03142 0
M  V30 9203 O 861.259 1.53476 -1.69285 0
M  V30 9204 C 861.469 -1.78698 -2.9978 0
M  V30 9205 C 862.817 -2.02648 -3.7312 0
M  V30 9206 O 863.841 -1.75919 -3.09727 0
M  V30 9207 O 862.7 -2.47767 -4.87107 0
M  V30 9208 H 859.794 -0.342904 -0.752559 0
M  V30 9209 H 862.34 -1.30961 -1.07923 0
M  V30 9210 H 861.112 -2.79757 -2.7359 0
M  V30 9211 H 860.735 -1.39522 -3.72316 0
M  V30 9212 N 861.732 1.21287 -1.00634 0
M  V30 9213 C 862.679 2.23705 -0.567876 0
M  V30 9214 C 863.649 1.61043 0.406753 0
M  V30 9215 O 864.834 1.88289 0.308499 0
M  V30 9216 C 861.974 3.44961 0.097996 0
M  V30 9217 C 861.087 4.22091 -0.919972 0
M  V30 9218 C 860.222 5.30718 -0.226222 0
M  V30 9219 C 859.261 5.99581 -1.23165 0
M  V30 9220 N 858.398 6.99821 -0.565278 0
M  V30 9221 H 863.238 2.60571 -1.44592 0
M  V30 9222 H 860.775 1.28049 -0.724006 0
M  V30 9223 H 862.733 4.1418 0.501097 0
M  V30 9224 H 861.363 3.08818 0.939744 0
M  V30 9225 H 860.415 3.52038 -1.44131 0
M  V30 9226 H 861.727 4.69476 -1.68505 0
M  V30 9227 H 860.881 6.06253 0.232917 0
M  V30 9228 H 859.62 4.84343 0.571247 0
M  V30 9229 H 858.625 5.22816 -1.70128 0
M  V30 9230 H 859.85 6.48042 -2.03022 0
M  V30 9231 H 857.796 6.55656 0.212508 0
M  V30 9232 H 857.713 7.4528 -1.26858 0
M  V30 9233 H 858.981 7.79393 -0.129389 0
M  V30 9234 N 863.21 0.781244 1.36873 0
M  V30 9235 C 864.157 0.172146 2.30157 0
M  V30 9236 C 865.127 -0.679328 1.51573 0
M  V30 9237 O 866.312 -0.629713 1.80109 0
M  V30 9238 C 863.452 -0.693534 3.38059 0
M  V30 9239 C 862.565 0.175586 4.31643 0
M  V30 9240 C 861.7 -0.695695 5.26625 0
M  V30 9241 C 860.739 0.17538 6.11849 0
M  V30 9242 N 859.876 -0.654416 6.99043 0
M  V30 9243 H 864.716 0.973133 2.81663 0
M  V30 9244 H 862.253 0.491469 1.38647 0
M  V30 9245 H 864.211 -1.21035 3.99257 0
M  V30 9246 H 862.841 -1.46003 2.87894 0
M  V30 9247 H 861.893 0.810295 3.7167 0
M  V30 9248 H 863.205 0.847107 4.91554 0
M  V30 9249 H 862.359 -1.27863 5.93073 0
M  V30 9250 H 861.098 -1.40087 4.67148 0
M  V30 9251 H 860.103 0.77078 5.4437 0
M  V30 9252 H 861.328 0.87803 6.734 0
M  V30 9253 H 859.274 -1.34403 6.42084 0
M  V30 9254 H 859.191 -0.0403998 7.55989 0
M  V30 9255 H 860.459 -1.22144 7.69871 0
M  V30 9256 N 864.689 -1.48329 0.532571 0
M  V30 9257 C 865.914 -2.074 0.00147755 0
M  V30 9258 C 866.339 -1.38615 -1.27151 0
M  V30 9259 O 865.697 -0.452949 -1.75551 0
M  V30 9260 C 865.745 -3.60029 -0.202866 0
M  V30 9261 O 864.849 -3.92327 -1.27097 0
M  V30 9262 H 864.19 -0.662777 0.0402883 0
M  V30 9263 H 866.72 -1.90701 0.741224 0
M  V30 9264 H 866.73 -4.05783 -0.424722 0
M  V30 9265 H 865.405 -4.09496 0.727033 0
M  V30 9266 H 863.982 -3.58348 -1.03156 0
M  V30 9267 N 866.167 -0.267825 -1.55308 0
M  V30 9268 C 867.583 0.0865107 -1.59365 0
M  V30 9269 C 867.783 1.55205 -1.28505 0
M  V30 9270 O 866.839 2.29978 -1.04241 0
M  V30 9271 C 868.152 -0.28155 -2.99379 0
M  V30 9272 C 869.7 -0.227565 -3.12172 0
M  V30 9273 C 870.175 -0.569959 -4.5444 0
M  V30 9274 N 871.666 -0.521238 -4.60258 0
M  V30 9275 C 872.401 -0.759061 -5.68354 0
M  V30 9276 N 871.897 -1.06112 -6.84626 0
M  V30 9277 N 873.69 -0.688351 -5.57869 0
M  V30 9278 H 865.841 -1.22332 -1.73633 0
M  V30 9279 H 868.104 -0.493703 -0.809297 0
M  V30 9280 H 867.81 -1.3005 -3.26772 0
M  V30 9281 H 867.684 0.381192 -3.75269 0
M  V30 9282 H 870.071 0.782093 -2.84548 0
M  V30 9283 H 870.152 -0.924461 -2.38511 0
M  V30 9284 H 869.796 -1.57727 -4.82788 0
M  V30 9285 H 869.726 0.148646 -5.2639 0
M  V30 9286 H 872.217 -0.297359 -3.76728 0
M  V30 9287 H 872.53 -1.22945 -7.62958 0
M  V30 9288 H 870.875 -1.09881 -6.86259 0
M  V30 9289 H 874.066 -0.452268 -4.6591 0
M  V30 9290 H 874.239 -0.877081 -6.42037 0
M  V30 9291 N 867.645 1.57599 0.00500368 0
M  V30 9292 C 868.555 2.11532 1.01446 0
M  V30 9293 C 869.571 1.05941 1.3803 0
M  V30 9294 O 870.747 1.37815 1.46864 0
M  V30 9295 C 867.812 2.60382 2.28915 0
M  V30 9296 C 866.873 3.80554 1.98689 0
M  V30 9297 C 866.106 4.27064 3.20081 0
M  V30 9298 O 866.329 3.72939 4.31593 0
M  V30 9299 O 865.263 5.1927 3.04371 0
M  V30 9300 H 869.089 2.97993 0.586011 0
M  V30 9301 H 866.674 1.47718 0.223519 0
M  V30 9302 H 868.556 2.92024 3.03809 0
M  V30 9303 H 867.231 1.77022 2.71007 0
M  V30 9304 H 866.138 3.53893 1.21286 0
M  V30 9305 H 867.471 4.64972 1.61437 0
M  V30 9306 N 869.123 -0.277682 1.55134 0
M  V30 9307 C 870.07 -1.34313 1.87693 0
M  V30 9308 C 871.04 -1.49298 0.727973 0
M  V30 9309 O 872.225 -1.6378 0.978807 0
M  V30 9310 C 869.365 -2.69922 2.15026 0
M  V30 9311 C 868.478 -2.63197 3.42565 0
M  V30 9312 C 867.613 -3.90955 3.59622 0
M  V30 9313 C 866.652 -3.78722 4.8087 0
M  V30 9314 N 865.789 -4.98303 4.94609 0
M  V30 9315 H 870.629 -1.05847 2.78569 0
M  V30 9316 H 868.166 -0.511469 1.37922 0
M  V30 9317 H 870.124 -3.48817 2.28872 0
M  V30 9318 H 868.754 -2.966 1.2739 0
M  V30 9319 H 867.806 -1.76038 3.37216 0
M  V30 9320 H 869.118 -2.50056 4.31594 0
M  V30 9321 H 868.272 -4.78291 3.7326 0
M  V30 9322 H 867.011 -4.06957 2.6877 0
M  V30 9323 H 866.016 -2.89769 4.67241 0
M  V30 9324 H 867.241 -3.64242 5.73153 0
M  V30 9325 H 865.187 -5.14725 4.06687 0
M  V30 9326 H 865.104 -4.87675 5.77676 0
M  V30 9327 H 866.372 -5.87225 5.12628 0
M  V30 9328 N 870.601 -1.47988 -0.541979 0
M  V30 9329 C 871.85 -1.5465 -1.29485 0
M  V30 9330 C 872.163 -0.220041 -1.94358 0
M  V30 9331 O 873.369 -0.164792 -2.70999 0
M  V30 9332 C 871.825 -2.72685 -2.34885 0
M  V30 9333 C 871.433 -4.11923 -1.76134 0
M  V30 9334 C 873.177 -2.88651 -3.11257 0
M  V30 9335 C 871.084 -5.21237 -2.79404 0
M  V30 9336 H 870.014 -0.575688 -0.486928 0
M  V30 9337 H 872.665 -1.74296 -0.573853 0
M  V30 9338 H 871.047 -2.46448 -3.09966 0
M  V30 9339 H 872.221 -4.48128 -1.07322 0
M  V30 9340 H 870.536 -4.00972 -1.12295 0
M  V30 9341 H 873.133 -3.67487 -3.88404 0
M  V30 9342 H 873.476 -1.97658 -3.66384 0
M  V30 9343 H 874.009 -3.14731 -2.43288 0
M  V30 9344 H 870.748 -6.14156 -2.29113 0
M  V30 9345 H 870.268 -4.89533 -3.4658 0
M  V30 9346 H 871.947 -5.48839 -3.42615 0
M  V30 9347 N 872.079 0.78992 -1.36375 0
M  V30 9348 C 873.307 1.57873 -1.3373 0
M  V30 9349 C 873.722 1.88624 0.0815544 0
M  V30 9350 O 873.079 1.50085 1.03831 0
M  V30 9351 C 873.13 2.90003 -2.15825 0
M  V30 9352 O 872.851 2.60578 -3.5218 0
M  V30 9353 C 874.352 3.84309 -2.20955 0
M  V30 9354 H 871.572 0.489685 -0.458748 0
M  V30 9355 H 874.116 0.980436 -1.79465 0
M  V30 9356 H 872.271 3.46303 -1.73646 0
M  V30 9357 H 872.685 3.4506 -3.95011 0
M  V30 9358 H 874.159 4.74081 -2.82756 0
M  V30 9359 H 874.636 4.22121 -1.21287 0
M  V30 9360 H 875.242 3.33942 -2.63368 0
M  V30 9361 N 873.557 1.20646 1.01402 0
M  V30 9362 C 874.52 0.959314 2.08158 0
M  V30 9363 C 875.52 -0.0661558 1.60664 0
M  V30 9364 O 876.71 0.170177 1.73367 0
M  V30 9365 C 873.842 0.444785 3.37986 0
M  V30 9366 H 875.035 1.90631 2.31517 0
M  V30 9367 H 872.588 1.02219 1.18241 0
M  V30 9368 H 873.323 -0.507553 3.20304 0
M  V30 9369 H 873.108 1.18435 3.73785 0
M  V30 9370 H 874.598 0.291443 4.16582 0
M  V30 9371 N 875.035 -1.20752 1.01276 0
M  V30 9372 C 875.945 -2.27079 0.589277 0
M  V30 9373 C 876.961 -1.6999 -0.371389 0
M  V30 9374 O 878.137 -2.00044 -0.233294 0
M  V30 9375 C 875.202 -3.4663 -0.0696715 0
M  V30 9376 C 874.263 -4.18962 0.936454 0
M  V30 9377 C 873.496 -5.32806 0.308856 0
M  V30 9378 O 873.719 -5.63376 -0.8924 0
M  V30 9379 O 872.653 -5.93131 1.02367 0
M  V30 9380 H 876.479 -2.6551 1.47438 0
M  V30 9381 H 874.064 -1.27297 0.782045 0
M  V30 9382 H 875.946 -4.19119 -0.437873 0
M  V30 9383 H 874.621 -3.10082 -0.929029 0
M  V30 9384 H 873.528 -3.48661 1.35595 0
M  V30 9385 H 874.861 -4.59441 1.76565 0
M  V30 9386 N 876.513 -0.788492 -1.36457 0
M  V30 9387 C 877.463 -0.159377 -2.27442 0
M  V30 9388 C 878.447 0.656146 -1.46913 0
M  V30 9389 O 879.639 0.516372 -1.693 0
M  V30 9390 C 876.768 0.705703 -3.35968 0
M  V30 9391 C 875.854 -0.11856 -4.23934 0
M  V30 9392 N 876.245 -1.1726 -4.9202 0
M  V30 9393 C 874.543 0.102752 -4.45882 0
M  V30 9394 C 875.244 -1.6743 -5.57083 0
M  V30 9395 N 874.22 -0.983682 -5.34626 0
M  V30 9396 H 878.022 -0.96614 -2.77566 0
M  V30 9397 H 875.536 -0.627864 -1.49772 0
M  V30 9398 H 877.533 1.17231 -4.00078 0
M  V30 9399 H 876.193 1.51102 -2.87399 0
M  V30 9400 H 877.204 -1.55502 -4.94004 0
M  V30 9401 H 873.881 0.878651 -4.08149 0
M  V30 9402 H 875.271 -2.55423 -6.21457 0
M  V30 9403 N 877.991 1.48044 -0.54043 0
M  V30 9404 C 878.901 2.33565 0.220163 0
M  V30 9405 C 879.917 1.47146 0.928659 0
M  V30 9406 O 881.093 1.80107 0.901295 0
M  V30 9407 C 878.158 3.2349 1.2472 0
M  V30 9408 C 877.219 4.25789 0.547938 0
M  V30 9409 C 876.452 5.11417 1.52605 0
M  V30 9410 O 876.675 4.99204 2.75956 0
M  V30 9411 O 875.609 5.92498 1.05972 0
M  V30 9412 H 879.435 2.99868 -0.480898 0
M  V30 9413 H 877.02 1.46332 -0.301226 0
M  V30 9414 H 878.902 3.79084 1.84047 0
M  V30 9415 H 877.577 2.59835 1.93048 0
M  V30 9416 H 876.484 3.74001 -0.0860941 0
M  V30 9417 H 877.817 4.92111 -0.0935896 0
M  V30 9418 N 879.47 0.276058 1.55163 0
M  V30 9419 C 880.698 -0.343772 2.04024 0
M  V30 9420 C 881.113 -1.49397 1.15438 0
M  V30 9421 O 880.47 -1.81662 0.174692 0
M  V30 9422 C 880.521 -0.823885 3.51986 0
M  V30 9423 O 880.242 0.280507 4.37201 0
M  V30 9424 C 881.743 -1.51143 4.16738 0
M  V30 9425 H 878.963 -0.07828 0.666418 0
M  V30 9426 H 881.507 0.408427 2.0038 0
M  V30 9427 H 879.662 -1.52617 3.56071 0
M  V30 9428 H 880.076 -0.0887831 5.24425 0
M  V30 9429 H 881.55 -1.79878 5.2187 0
M  V30 9430 H 882.027 -2.44327 3.64967 0
M  V30 9431 H 882.633 -0.852975 4.16659 0
M  V30 9432 N 880.948 -1.576 0.00335426 0
M  V30 9433 C 882.176 -1.94996 -0.691685 0
M  V30 9434 C 882.591 -0.878405 -1.67121 0
M  V30 9435 O 881.948 0.142343 -1.81944 0
M  V30 9436 C 881.999 -3.32416 -1.42063 0
M  V30 9437 O 881.72 -4.35458 -0.48038 0
M  V30 9438 C 883.221 -3.84291 -2.20987 0
M  V30 9439 H 880.441 -0.642814 -0.192434 0
M  V30 9440 H 882.985 -2.04425 0.0554706 0
M  V30 9441 H 881.14 -3.24285 -2.11939 0
M  V30 9442 H 881.554 -5.14975 -0.995054 0
M  V30 9443 H 883.028 -4.82863 -2.67483 0
M  V30 9444 H 883.505 -3.17174 -3.03805 0
M  V30 9445 H 884.111 -3.95609 -1.56121 0
M  V30 9446 N 882.426 0.269451 -1.5528 0
M  V30 9447 C 883.703 1.02207 -1.66773 0
M  V30 9448 C 884.083 2.04168 -0.536536 0
M  V30 9449 O 883.431 2.23761 0.462956 0
M  V30 9450 C 883.641 1.67569 -3.0614 0
M  V30 9451 C 884.989 2.18599 -3.64005 0
M  V30 9452 O 886.013 1.7755 -3.08795 0
M  V30 9453 O 884.872 2.93903 -4.60742 0
M  V30 9454 H 881.966 0.474314 -0.677462 0
M  V30 9455 H 884.512 0.265026 -1.67618 0
M  V30 9456 H 883.284 0.937029 -3.79915 0
M  V30 9457 H 882.907 2.49951 -3.09209 0
M  V30 9458 N 883.904 1.48273 0.534124 0
M  V30 9459 C 885.181 1.46567 1.29528 0
M  V30 9460 C 885.561 0.17509 2.10373 0
M  V30 9461 O 884.909 -0.843228 2.12372 0
M  V30 9462 C 885.119 2.72519 2.18023 0
M  V30 9463 C 886.467 3.2068 2.78298 0
M  V30 9464 O 887.491 2.73408 2.28313 0
M  V30 9465 O 886.35 4.02924 3.69208 0
M  V30 9466 H 883.444 0.585151 0.584403 0
M  V30 9467 H 885.99 1.60502 0.551119 0
M  V30 9468 H 884.762 3.57965 1.5804 0
M  V30 9469 H 884.385 2.61285 2.99693 0
M  V30 9470 N 885.382 -0.782676 1.36792 0
M  V30 9471 C 886.312 -1.90973 1.34356 0
M  V30 9472 C 887.293 -1.6875 0.213917 0
M  V30 9473 O 888.478 -1.89766 0.412601 0
M  V30 9474 C 885.608 -3.28097 1.13884 0
M  V30 9475 C 884.562 -3.6486 2.23744 0
M  V30 9476 C 883.888 -5.00406 1.88408 0
M  V30 9477 C 885.188 -3.72742 3.6587 0
M  V30 9478 H 886.882 -1.93268 2.28665 0
M  V30 9479 H 884.428 -0.928447 1.10072 0
M  V30 9480 H 886.381 -4.06569 1.10813 0
M  V30 9481 H 885.105 -3.26206 0.160275 0
M  V30 9482 H 883.764 -2.88689 2.25952 0
M  V30 9483 H 883.412 -4.95044 0.891083 0
M  V30 9484 H 883.112 -5.25973 2.61966 0
M  V30 9485 H 884.636 -5.81291 1.86905 0
M  V30 9486 H 886.05 -4.4139 3.65852 0
M  V30 9487 H 884.447 -4.09798 4.38389 0
M  V30 9488 H 885.517 -2.73676 4.00287 0
M  V30 9489 N 886.86 -1.21182 -1.00761 0
M  V30 9490 C 888.085 -1.05411 -1.78615 0
M  V30 9491 C 888.51 0.391837 -1.83973 0
M  V30 9492 O 887.868 1.28256 -1.28141 0
M  V30 9493 C 887.916 -1.65285 -3.20489 0
M  V30 9494 O 887.02 -0.896558 -4.02536 0
M  V30 9495 H 886.361 -0.37116 -0.550578 0
M  V30 9496 H 888.891 -1.60669 -1.26676 0
M  V30 9497 H 888.901 -1.69397 -3.71172 0
M  V30 9498 H 887.576 -2.70514 -3.15904 0
M  V30 9499 H 886.153 -0.930335 -3.61108 0
M  V30 9500 N 888.338 1.20213 -1.01915 0
M  V30 9501 C 889.271 2.2181 -0.536243 0
M  V30 9502 C 890.249 1.57144 0.417689 0
M  V30 9503 O 891.433 1.85461 0.337088 0
M  V30 9504 C 888.56 3.37989 0.219303 0
M  V30 9505 C 887.606 4.2097 -0.684571 0
M  V30 9506 S 888.439 4.90216 -2.15519 0
M  V30 9507 C 889.595 6.09814 -1.40988 0
M  V30 9508 H 889.828 2.62429 -1.39709 0
M  V30 9509 H 887.361 1.30305 -0.828254 0
M  V30 9510 H 889.319 4.05335 0.649112 0
M  V30 9511 H 887.98 2.95825 1.05575 0
M  V30 9512 H 887.173 5.03897 -0.101833 0
M  V30 9513 H 886.775 3.58892 -1.05227 0
M  V30 9514 H 889.067 6.73964 -0.691243 0
M  V30 9515 H 890.01 6.72552 -2.21539 0
M  V30 9516 H 890.418 5.5709 -0.911645 0
M  V30 9517 N 889.816 0.795718 1.36037 0
M  V30 9518 C 890.746 0.212803 2.32528 0
M  V30 9519 C 891.727 -0.655716 1.56953 0
M  V30 9520 O 892.912 -0.588238 1.85077 0
M  V30 9521 C 890.042 -0.648189 3.41198 0
M  V30 9522 C 888.996 0.120948 4.27829 0
M  V30 9523 C 888.322 -0.861044 5.27722 0
M  V30 9524 C 889.622 1.31375 5.05508 0
M  V30 9525 H 891.316 1.01893 2.81528 0
M  V30 9526 H 888.862 0.491422 1.35355 0
M  V30 9527 H 890.815 -1.06597 4.07695 0
M  V30 9528 H 889.539 -1.48709 2.9078 0
M  V30 9529 H 888.198 0.519777 3.62897 0
M  V30 9530 H 887.846 -1.69515 4.73575 0
M  V30 9531 H 887.546 -0.350808 5.86552 0
M  V30 9532 H 889.07 -1.27726 5.97092 0
M  V30 9533 H 890.484 0.971406 5.6501 0
M  V30 9534 H 888.881 1.75772 5.73781 0
M  V30 9535 H 889.951 2.10593 4.36782 0
M  V30 9536 N 891.294 -1.47756 0.548274 0
M  V30 9537 C 892.542 -2.02089 0.0208542 0
M  V30 9538 C 892.863 -1.42589 -1.33017 0
M  V30 9539 O 892.133 -0.597825 -1.86555 0
M  V30 9540 H 890.713 -0.746985 0.00472023 0
M  V30 9541 H 893.375 -1.81262 0.716257 0
M  V30 9542 H 892.471 -3.12012 -0.0739016 0
M  V30 9543 N 892.772 -0.284283 -1.55015 0
M  V30 9544 C 894.188 0.069603 -1.59448 0
M  V30 9545 C 894.388 1.53833 -1.30144 0
M  V30 9546 O 893.444 2.2886 -1.06674 0
M  V30 9547 C 894.757 -0.313287 -2.99064 0
M  V30 9548 C 896.305 -0.260662 -3.11913 0
M  V30 9549 C 896.78 -0.618127 -4.5381 0
M  V30 9550 N 898.271 -0.570026 -4.59679 0
M  V30 9551 C 899.006 -0.8193 -5.67517 0
M  V30 9552 N 898.502 -1.13367 -6.83462 0
M  V30 9553 N 900.295 -0.747482 -5.57108 0
M  V30 9554 H 892.446 -1.24167 -1.72326 0
M  V30 9555 H 894.709 -0.502259 -0.804015 0
M  V30 9556 H 894.415 -1.33509 -3.25374 0
M  V30 9557 H 894.289 0.341369 -3.75652 0
M  V30 9558 H 896.676 0.751869 -2.85361 0
M  V30 9559 H 896.757 -0.949706 -2.37517 0
M  V30 9560 H 896.401 -1.62839 -4.81088 0
M  V30 9561 H 896.331 0.092807 -5.26518 0
M  V30 9562 H 898.822 -0.3373 -3.76392 0
M  V30 9563 H 899.135 -1.3103 -7.61611 0
M  V30 9564 H 897.48 -1.17154 -6.85055 0
M  V30 9565 H 900.671 -0.501658 -4.65404 0
M  V30 9566 H 900.844 -0.945128 -6.4107 0
M  V30 9567 N 894.251 1.57596 -0.0117121 0
M  V30 9568 C 895.497 1.91355 0.671661 0
M  V30 9569 C 895.83 0.886818 1.72769 0
M  V30 9570 O 895.105 -0.0928813 1.94278 0
M  V30 9571 C 895.388 3.35657 1.30409 0
M  V30 9572 C 895.241 4.49055 0.2588 0
M  V30 9573 C 896.56 3.79595 2.22701 0
M  V30 9574 H 893.679 0.695893 0.242698 0
M  V30 9575 H 896.321 1.89887 -0.0654071 0
M  V30 9576 H 894.471 3.37038 1.9323 0
M  V30 9577 H 896.143 4.59809 -0.370631 0
M  V30 9578 H 894.386 4.31785 -0.417672 0
M  V30 9579 H 895.057 5.4701 0.740578 0
M  V30 9580 H 897.533 3.7984 1.69885 0
M  V30 9581 H 896.409 4.81292 2.63912 0
M  V30 9582 H 896.67 3.14118 3.11098 0
M  V30 9583 N 895.729 -0.261212 1.5542 0
M  V30 9584 C 896.975 -0.992699 1.76843 0
M  V30 9585 C 897.308 -1.8551 0.574428 0
M  V30 9586 O 896.583 -1.89739 -0.427713 0
M  V30 9587 C 896.866 -1.86532 3.08022 0
M  V30 9588 C 896.719 -1.03206 4.378 0
M  V30 9589 C 898.038 -2.85036 3.35324 0
M  V30 9590 H 895.157 -0.359473 0.643388 0
M  V30 9591 H 897.799 -0.264214 1.88154 0
M  V30 9592 H 895.949 -2.48644 2.9851 0
M  V30 9593 H 897.621 -0.430743 4.59285 0
M  V30 9594 H 895.864 -0.335911 4.32497 0
M  V30 9595 H 896.535 -1.6761 5.25938 0
M  V30 9596 H 899.011 -2.3306 3.44706 0
M  V30 9597 H 897.887 -3.43226 4.28354 0
M  V30 9598 H 898.148 -3.60768 2.55537 0
M  V30 9599 N 897.207 -1.48554 -0.526253 0
M  V30 9600 C 898.154 -1.63354 -1.63046 0
M  V30 9601 C 899.124 -0.475509 -1.59148 0
M  V30 9602 O 900.309 -0.699453 -1.77517 0
M  V30 9603 C 897.449 -1.68271 -3.01295 0
M  V30 9604 C 896.562 -2.95207 -3.15399 0
M  V30 9605 C 895.697 -2.91262 -4.4423 0
M  V30 9606 C 894.736 -4.12886 -4.51876 0
M  V30 9607 N 893.873 -4.06996 -5.721 0
M  V30 9608 H 898.713 -2.57649 -1.49737 0
M  V30 9609 H 896.25 -1.27769 -0.728938 0
M  V30 9610 H 898.208 -1.69104 -3.81392 0
M  V30 9611 H 896.838 -0.774641 -3.13367 0
M  V30 9612 H 895.89 -3.04102 -2.2853 0
M  V30 9613 H 897.202 -3.85187 -3.1691 0
M  V30 9614 H 896.356 -2.90516 -5.32621 0
M  V30 9615 H 895.095 -1.99016 -4.45246 0
M  V30 9616 H 894.1 -4.13902 -3.61891 0
M  V30 9617 H 895.325 -5.06294 -4.52596 0
M  V30 9618 H 893.271 -3.17573 -5.74006 0
M  V30 9619 H 893.188 -4.90685 -5.75121 0
M  V30 9620 H 894.456 -4.10315 -6.62768 0
M  V30 9621 N 898.685 0.775411 -1.37205 0
M  V30 9622 C 899.931 1.53611 -1.32407 0
M  V30 9623 C 900.264 1.9398 0.0924103 0
M  V30 9624 O 899.539 1.63791 1.04893 0
M  V30 9625 C 899.822 2.80367 -2.25979 0
M  V30 9626 C 899.675 2.46275 -3.76389 0
M  V30 9627 C 900.994 3.82277 -2.18064 0
M  V30 9628 H 898.113 0.557278 -0.482297 0
M  V30 9629 H 900.755 0.889826 -1.67875 0
M  V30 9630 H 898.905 3.35515 -1.95862 0
M  V30 9631 H 900.577 1.9707 -4.17087 0
M  V30 9632 H 898.82 1.79023 -3.95137 0
M  V30 9633 H 899.491 3.36868 -4.37291 0
M  V30 9634 H 901.967 3.36613 -2.44604 0
M  V30 9635 H 900.843 4.68696 -2.85684 0
M  V30 9636 H 901.104 4.26272 -1.17239 0
M  V30 9637 N 900.163 1.21714 1.00117 0
M  V30 9638 C 901.073 0.99597 2.12409 0
M  V30 9639 C 902.089 -0.0531431 1.73919 0
M  V30 9640 O 903.265 0.137757 2.00928 0
M  V30 9641 C 900.33 0.567593 3.42022 0
M  V30 9642 C 899.391 1.68936 3.94663 0
M  V30 9643 C 898.624 1.28133 5.1809 0
M  V30 9644 O 898.847 0.156574 5.70185 0
M  V30 9645 O 897.781 2.0947 5.64275 0
M  V30 9646 H 901.607 1.93657 2.33946 0
M  V30 9647 H 899.192 1.00236 1.10784 0
M  V30 9648 H 901.074 0.338664 4.20037 0
M  V30 9649 H 899.749 -0.34424 3.21864 0
M  V30 9650 H 898.656 1.97274 3.17858 0
M  V30 9651 H 899.989 2.57876 4.19238 0
M  V30 9652 N 901.641 -1.19671 1.02551 0
M  V30 9653 C 902.588 -2.22773 0.603394 0
M  V30 9654 C 903.558 -1.61669 -0.381081 0
M  V30 9655 O 904.743 -1.88756 -0.278505 0
M  V30 9656 C 901.883 -3.45073 -0.0431034 0
M  V30 9657 C 900.996 -4.20574 0.987006 0
M  V30 9658 C 900.131 -5.30291 0.310626 0
M  V30 9659 C 899.17 -5.97545 1.32688 0
M  V30 9660 N 898.307 -6.98833 0.676542 0
M  V30 9661 H 903.147 -2.58238 1.48719 0
M  V30 9662 H 900.684 -1.26881 0.744286 0
M  V30 9663 H 902.642 -4.14925 -0.435141 0
M  V30 9664 H 901.272 -3.10274 -0.890495 0
M  V30 9665 H 900.324 -3.497 1.49713 0
M  V30 9666 H 901.636 -4.66736 1.75952 0
M  V30 9667 H 900.79 -6.06547 -0.136438 0
M  V30 9668 H 899.529 -4.8519 -0.49412 0
M  V30 9669 H 898.534 -5.20043 1.78424 0
M  V30 9670 H 899.759 -6.4473 2.13306 0
M  V30 9671 H 897.705 -6.55911 -0.108172 0
M  V30 9672 H 897.622 -7.43168 1.38699 0
M  V30 9673 H 898.89 -7.79088 0.253367 0
M  V30 9674 N 903.119 -0.802921 -1.35613 0
M  V30 9675 C 904.051 -0.168461 -2.2858 0
M  V30 9676 C 905.064 0.630123 -1.50111 0
M  V30 9677 O 906.253 0.463086 -1.72388 0
M  V30 9678 C 903.353 0.783943 -3.29708 0
M  V30 9679 C 902.526 0.0325165 -4.37388 0
M  V30 9680 C 901.585 0.902859 -5.18396 0
M  V30 9681 O 900.611 0.355144 -5.68091 0
M  V30 9682 N 901.813 2.22542 -5.36149 0
M  V30 9683 H 904.578 -0.96709 -2.83668 0
M  V30 9684 H 902.139 -0.658043 -1.47924 0
M  V30 9685 H 904.131 1.37034 -3.80794 0
M  V30 9686 H 902.701 1.48339 -2.75162 0
M  V30 9687 H 901.921 -0.735057 -3.87286 0
M  V30 9688 H 903.209 -0.485499 -5.06478 0
M  V30 9689 H 902.607 2.69439 -4.97412 0
M  V30 9690 H 901.164 2.76113 -5.90428 0
M  V30 9691 N 904.597 1.47463 -0.556102 0
M  V30 9692 C 905.843 2.02775 -0.0316806 0
M  V30 9693 C 906.176 1.42967 1.3143 0
M  V30 9694 O 905.451 0.584847 1.85499 0
M  V30 9695 C 905.734 3.60046 0.0625742 0
M  V30 9696 C 905.587 4.30288 -1.31043 0
M  V30 9697 C 906.906 4.33195 0.776553 0
M  V30 9698 H 904.025 0.736886 -0.0129869 0
M  V30 9699 H 906.667 1.75904 -0.718177 0
M  V30 9700 H 904.817 3.83071 0.647231 0
M  V30 9701 H 906.489 4.18607 -1.9382 0
M  V30 9702 H 904.732 3.90685 -1.8854 0
M  V30 9703 H 905.403 5.38861 -1.1972 0
M  V30 9704 H 907.879 4.15156 0.280147 0
M  V30 9705 H 906.755 5.42869 0.81146 0
M  V30 9706 H 907.016 4.02336 1.83244 0
M  V30 9707 N 906.075 0.2925 1.54862 0
M  V30 9708 C 907.007 -0.620889 2.2063 0
M  V30 9709 C 908.02 -1.10412 1.19637 0
M  V30 9710 O 909.209 -1.02304 1.46274 0
M  V30 9711 C 906.309 -1.861 2.83232 0
M  V30 9712 C 905.482 -1.52168 4.10078 0
M  V30 9713 C 904.541 -2.61605 4.56562 0
M  V30 9714 O 903.567 -2.27056 5.21952 0
M  V30 9715 N 904.769 -3.9199 4.28163 0
M  V30 9716 H 907.534 -0.0579028 2.99644 0
M  V30 9717 H 905.095 0.114333 1.61496 0
M  V30 9718 H 907.087 -2.58642 3.11266 0
M  V30 9719 H 905.657 -2.33259 2.08108 0
M  V30 9720 H 904.877 -0.629283 3.89145 0
M  V30 9721 H 906.165 -1.27023 4.92689 0
M  V30 9722 H 905.563 -4.22872 3.7576 0
M  V30 9723 H 904.12 -4.60857 4.60928 0
M  V30 9724 N 907.553 -1.57587 0.0200696 0
M  V30 9725 C 908.778 -1.96124 -0.674547 0
M  V30 9726 C 909.203 -0.896068 -1.65385 0
M  V30 9727 O 908.561 0.143925 -1.80728 0
M  V30 9728 C 908.609 -3.3376 -1.36517 0
M  V30 9729 O 907.713 -3.29483 -2.48022 0
M  V30 9730 H 907.054 -0.639719 -0.177919 0
M  V30 9731 H 909.584 -2.04447 0.0792317 0
M  V30 9732 H 909.594 -3.69785 -1.72403 0
M  V30 9733 H 908.269 -4.10832 -0.647265 0
M  V30 9734 H 906.846 -3.05162 -2.14314 0
M  V30 9735 N 909.032 0.252966 -1.55557 0
M  V30 9736 C 910.281 0.979736 -1.76307 0
M  V30 9737 C 910.594 1.86714 -0.582871 0
M  V30 9738 O 911.8 2.6302 -0.673247 0
M  V30 9739 C 910.256 1.79205 -3.12112 0
M  V30 9740 C 909.864 0.952333 -4.37761 0
M  V30 9741 C 911.608 2.51191 -3.42203 0
M  V30 9742 C 909.515 1.76018 -5.64599 0
M  V30 9743 H 908.445 0.369538 -0.657235 0
M  V30 9744 H 911.096 0.234619 -1.81994 0
M  V30 9745 H 909.478 2.57888 -3.00515 0
M  V30 9746 H 910.652 0.208251 -4.60329 0
M  V30 9747 H 908.967 0.346082 -4.14959 0
M  V30 9748 H 911.564 3.12074 -4.34182 0
M  V30 9749 H 911.907 3.22499 -2.63249 0
M  V30 9750 H 912.44 1.79523 -3.54988 0
M  V30 9751 H 909.179 1.09095 -6.46358 0
M  V30 9752 H 908.699 2.4797 -5.46142 0
M  V30 9753 H 910.378 2.32884 -6.03634 0
M  V30 9754 N 910.51 1.48831 0.518367 0
M  V30 9755 C 911.42 1.6692 1.64848 0
M  V30 9756 C 912.436 0.551711 1.65022 0
M  V30 9757 O 913.612 0.824251 1.83761 0
M  V30 9758 C 910.677 1.71559 3.01278 0
M  V30 9759 C 909.738 2.9502 3.11868 0
M  V30 9760 C 908.971 2.99428 4.4179 0
M  V30 9761 O 909.194 2.11914 5.29574 0
M  V30 9762 O 908.128 3.91719 4.5699 0
M  V30 9763 H 911.954 2.62623 1.52521 0
M  V30 9764 H 909.539 1.32368 0.692749 0
M  V30 9765 H 911.421 1.77064 3.82396 0
M  V30 9766 H 910.096 0.790316 3.13904 0
M  V30 9767 H 909.003 2.95042 2.30003 0
M  V30 9768 H 910.336 3.8697 3.04163 0
M  V30 9769 N 911.988 -0.768124 1.37614 0
M  V30 9770 C 913.213 -1.56239 1.36397 0
M  V30 9771 C 913.638 -1.8804 -0.0475839 0
M  V30 9772 O 912.996 -1.495 -1.02564 0
M  V30 9773 C 913.044 -2.84716 2.21289 0
M  V30 9774 O 912.148 -3.79249 1.62001 0
M  V30 9775 H 911.489 -0.473119 0.465891 0
M  V30 9776 H 914.019 -0.950415 1.81186 0
M  V30 9777 H 914.029 -3.33784 2.34632 0
M  V30 9778 H 912.704 -2.60899 3.2389 0
M  V30 9779 H 911.281 -3.37904 1.57719 0
M  V30 9780 N 913.466 -1.22244 -0.994698 0
M  V30 9781 C 914.413 -0.990906 -2.08446 0
M  V30 9782 C 915.383 0.086737 -1.65873 0
M  V30 9783 O 916.568 -0.0624882 -1.90698 0
M  V30 9784 C 913.708 -0.572813 -3.40313 0
M  V30 9785 C 912.821 -1.72103 -3.96238 0
M  V30 9786 C 911.956 -1.2511 -5.16257 0
M  V30 9787 C 910.995 -2.37098 -5.64315 0
M  V30 9788 N 910.132 -1.91164 -6.75574 0
M  V30 9789 H 914.972 -1.92377 -2.27585 0
M  V30 9790 H 912.509 -0.958576 -1.11578 0
M  V30 9791 H 914.467 -0.311594 -4.16035 0
M  V30 9792 H 913.097 0.323044 -3.21179 0
M  V30 9793 H 912.149 -2.09662 -3.17405 0
M  V30 9794 H 913.461 -2.56347 -4.27888 0
M  V30 9795 H 912.615 -0.947152 -5.99261 0
M  V30 9796 H 911.354 -0.378836 -4.86226 0
M  V30 9797 H 910.359 -2.68283 -4.799 0
M  V30 9798 H 911.584 -3.24837 -5.96371 0
M  V30 9799 H 909.53 -1.06298 -6.47331 0
M  V30 9800 H 909.447 -2.68975 -7.06533 0
M  V30 9801 H 910.715 -1.63833 -7.62088 0
M  V30 9802 N 914.944 1.19125 -1.03184 0
M  V30 9803 C 915.874 2.24675 -0.635889 0
M  V30 9804 C 916.855 1.66321 0.356565 0
M  V30 9805 O 918.04 1.92728 0.238625 0
M  V30 9806 C 915.17 3.47298 0.011069 0
M  V30 9807 C 914.124 4.18345 -0.903979 0
M  V30 9808 C 913.45 5.34561 -0.12197 0
M  V30 9809 C 914.75 4.72816 -2.21907 0
M  V30 9810 H 916.444 2.5805 -1.51825 0
M  V30 9811 H 913.99 1.24039 -0.73146 0
M  V30 9812 H 915.943 4.20333 0.299729 0
M  V30 9813 H 914.667 3.13131 0.928245 0
M  V30 9814 H 913.326 3.47196 -1.17688 0
M  V30 9815 H 912.974 4.9664 0.797334 0
M  V30 9816 H 912.674 5.83029 -0.731498 0
M  V30 9817 H 914.198 6.10391 0.159881 0
M  V30 9818 H 915.612 5.3759 -1.99173 0
M  V30 9819 H 914.009 5.31782 -2.78078 0
M  V30 9820 H 915.079 3.9072 -2.87168 0
M  V30 9821 N 916.422 0.810101 1.35185 0
M  V30 9822 C 917.699 0.315235 1.93043 0
M  V30 9823 C 918.079 -1.19567 1.73974 0
M  V30 9824 O 917.427 -1.99682 1.11083 0
M  V30 9825 C 917.637 0.730492 3.41269 0
M  V30 9826 C 918.985 0.721985 4.18417 0
M  V30 9827 O 920.009 0.672258 3.49799 0
M  V30 9828 O 918.868 0.783535 5.40854 0
M  V30 9829 H 915.962 0.0832774 0.822796 0
M  V30 9830 H 918.508 0.894034 1.4424 0
M  V30 9831 H 917.28 1.77169 3.48894 0
M  V30 9832 H 916.903 0.12669 3.97398 0
M  V30 9833 N 917.9 -1.47166 0.563914 0
M  V30 9834 C 919.14 -2.04351 0.0448121 0
M  V30 9835 C 919.504 -1.42808 -1.28336 0
M  V30 9836 O 920.705 -1.91079 -1.89056 0
M  V30 9837 C 918.976 -3.57378 -0.0395795 0
M  V30 9838 S 920.535 -4.35898 -0.503833 0
M  V30 9839 H 917.353 -0.710433 0.0283795 0
M  V30 9840 H 919.955 -1.80451 0.752166 0
M  V30 9841 H 918.659 -3.99693 0.931326 0
M  V30 9842 H 918.19 -3.85785 -0.770282 0
M  V30 9843 H 920.205 -4.63852 -1.76225 0
M  V30 9844 N 919.378 -0.300708 -1.54705 0
M  V30 9845 C 920.308 0.568675 -2.26469 0
M  V30 9846 C 921.289 1.13817 -1.26411 0
M  V30 9847 O 922.474 1.16756 -1.55183 0
M  V30 9848 C 919.604 1.74077 -3.00524 0
M  V30 9849 C 918.558 1.30165 -4.07727 0
M  V30 9850 C 917.884 2.55888 -4.69495 0
M  V30 9851 C 919.184 0.433106 -5.20501 0
M  V30 9852 H 920.878 -0.0298851 -2.99385 0
M  V30 9853 H 918.424 -0.0158135 -1.43991 0
M  V30 9854 H 920.377 2.35506 -3.49449 0
M  V30 9855 H 919.101 2.36556 -2.25186 0
M  V30 9856 H 917.76 0.710414 -3.59651 0
M  V30 9857 H 917.408 3.16681 -3.90797 0
M  V30 9858 H 917.108 2.27207 -5.41895 0
M  V30 9859 H 918.632 3.18121 -5.21183 0
M  V30 9860 H 920.046 0.95307 -5.65322 0
M  V30 9861 H 918.443 0.240085 -5.9962 0
M  V30 9862 H 919.513 -0.541866 -4.81863 0
M  V30 9863 N 920.856 1.57574 -0.0284266 0
M  V30 9864 C 921.786 2.1321 0.952039 0
M  V30 9865 C 922.767 1.04806 1.33977 0
M  V30 9866 O 923.952 1.32635 1.41851 0
M  V30 9867 C 921.082 2.65862 2.23461 0
M  V30 9868 C 920.036 3.79047 1.98765 0
M  V30 9869 C 919.362 4.18124 3.33281 0
M  V30 9870 C 920.662 5.05151 1.32739 0
M  V30 9871 H 922.356 2.95385 0.488705 0
M  V30 9872 H 919.902 1.42092 0.233628 0
M  V30 9873 H 921.855 3.03417 2.92431 0
M  V30 9874 H 920.579 1.80848 2.71959 0
M  V30 9875 H 919.238 3.41929 1.32213 0
M  V30 9876 H 918.886 3.30092 3.79537 0
M  V30 9877 H 918.586 4.94396 3.17563 0
M  V30 9878 H 920.11 4.58262 4.0352 0
M  V30 9879 H 921.524 5.40297 1.91708 0
M  V30 9880 H 919.921 5.86416 1.27421 0
M  V30 9881 H 920.991 4.83969 0.300261 0
M  V30 9882 N 922.334 -0.244713 1.55689 0
M  V30 9883 C 923.611 -0.995407 1.68378 0
M  V30 9884 C 923.991 -2.03288 0.568949 0
M  V30 9885 O 923.339 -2.24469 -0.427299 0
M  V30 9886 C 923.549 -1.62678 3.08767 0
M  V30 9887 C 924.897 -2.1278 3.67437 0
M  V30 9888 O 925.921 -1.72614 3.11581 0
M  V30 9889 O 924.78 -2.86536 4.65359 0
M  V30 9890 H 921.874 -0.463476 0.684923 0
M  V30 9891 H 924.42 -0.238326 1.68018 0
M  V30 9892 H 923.192 -0.876469 3.81358 0
M  V30 9893 H 922.815 -2.45 3.13146 0
M  V30 9894 N 923.813 -1.49104 -0.510467 0
M  V30 9895 C 925.062 -1.57362 -1.26175 0
M  V30 9896 C 925.375 -0.261218 -1.93848 0
M  V30 9897 O 926.581 -0.222238 -2.70589 0
M  V30 9898 C 925.037 -2.77606 -2.29048 0
M  V30 9899 C 924.645 -4.15567 -1.67357 0
M  V30 9900 C 926.389 -2.95188 -3.05064 0
M  V30 9901 C 924.296 -5.27046 -2.68285 0
M  V30 9902 H 923.226 -0.585887 -0.474608 0
M  V30 9903 H 925.877 -1.75474 -0.536753 0
M  V30 9904 H 924.259 -2.52968 -3.04669 0
M  V30 9905 H 925.433 -4.50304 -0.977924 0
M  V30 9906 H 923.748 -4.03264 -1.03765 0
M  V30 9907 H 926.345 -3.75643 -3.80521 0
M  V30 9908 H 926.688 -2.05385 -3.62108 0
M  V30 9909 H 927.221 -3.19821 -2.36558 0
M  V30 9910 H 923.96 -6.18878 -2.16034 0
M  V30 9911 H 923.48 -4.96774 -3.36118 0
M  V30 9912 H 925.159 -5.55983 -3.30896 0
M  V30 9913 N 925.291 0.760815 -1.38019 0
M  V30 9914 C 926.521 1.54776 -1.3685 0
M  V30 9915 C 926.929 1.89146 0.0453971 0
M  V30 9916 O 926.272 1.52746 1.0205 0
M  V30 9917 C 926.334 2.87923 -2.15269 0
M  V30 9918 C 925.998 2.76131 -3.64144 0
M  V30 9919 C 926.995 2.46417 -4.57794 0
M  V30 9920 C 924.68 2.9381 -4.07408 0
M  V30 9921 C 926.674 2.34525 -5.92686 0
M  V30 9922 C 924.361 2.81539 -5.42383 0
M  V30 9923 C 925.359 2.51938 -6.34836 0
M  V30 9924 O 925.047 2.39713 -7.67329 0
M  V30 9925 H 924.779 0.485776 -0.470104 0
M  V30 9926 H 927.333 0.949939 -1.82113 0
M  V30 9927 H 925.563 3.49867 -1.64712 0
M  V30 9928 H 927.252 3.49389 -2.06596 0
M  V30 9929 H 928.018 2.32433 -4.25676 0
M  V30 9930 H 923.897 3.15849 -3.35799 0
M  V30 9931 H 927.441 2.11342 -6.64816 0
M  V30 9932 H 923.338 2.95093 -5.741 0
M  V30 9933 H 924.106 2.5498 -7.77771 0
M  V30 9934 N 926.769 1.22769 0.988202 0
M  V30 9935 C 927.701 0.959757 2.08138 0
M  V30 9936 C 928.714 -0.0633787 1.62677 0
M  V30 9937 O 929.903 0.171203 1.77677 0
M  V30 9938 C 927.003 0.422724 3.36253 0
M  V30 9939 C 926.176 1.50419 4.10722 0
M  V30 9940 C 925.235 0.973407 5.17118 0
M  V30 9941 O 924.261 1.66066 5.44436 0
M  V30 9942 N 925.463 -0.202787 5.80146 0
M  V30 9943 H 928.228 1.9009 2.31702 0
M  V30 9944 H 925.789 1.13522 1.15431 0
M  V30 9945 H 927.781 0.0528514 4.04665 0
M  V30 9946 H 926.351 -0.423642 3.09716 0
M  V30 9947 H 925.571 2.04718 3.36874 0
M  V30 9948 H 926.859 2.23169 4.57245 0
M  V30 9949 H 926.257 -0.777856 5.60327 0
M  V30 9950 H 924.814 -0.513998 6.4977 0
M  V30 9951 N 928.247 -1.18576 1.03814 0
M  V30 9952 C 929.179 -2.21607 0.585055 0
M  V30 9953 C 930.192 -1.59125 -0.343963 0
M  V30 9954 O 931.381 -1.77959 -0.138882 0
M  V30 9955 C 928.481 -3.38495 -0.165602 0
M  V30 9956 C 927.654 -4.30557 0.770662 0
M  V30 9957 C 926.713 -5.26161 0.0637534 0
M  V30 9958 O 925.739 -5.64961 0.693359 0
M  V30 9959 N 926.941 -5.67882 -1.20377 0
M  V30 9960 H 929.706 -2.61104 1.47121 0
M  V30 9961 H 927.267 -1.33336 0.918316 0
M  V30 9962 H 929.259 -3.99474 -0.648292 0
M  V30 9963 H 927.829 -2.97711 -0.953268 0
M  V30 9964 H 927.049 -3.67221 1.43326 0
M  V30 9965 H 928.337 -4.88969 1.40667 0
M  V30 9966 H 927.735 -5.38409 -1.73586 0
M  V30 9967 H 926.292 -6.31069 -1.63079 0
M  V30 9968 N 929.725 -0.817259 -1.34754 0
M  V30 9969 C 930.971 -0.403244 -1.98751 0
M  V30 9970 C 931.304 1.02963 -1.64658 0
M  V30 9971 O 930.579 1.71617 -0.915314 0
M  V30 9972 C 930.862 -0.599188 -3.5508 0
M  V30 9973 C 930.715 -2.07777 -3.98934 0
M  V30 9974 C 932.034 -0.0315656 -4.40089 0
M  V30 9975 H 929.153 -0.147988 -0.721989 0
M  V30 9976 H 931.795 -1.02877 -1.59738 0
M  V30 9977 H 929.945 -0.0667116 -3.88443 0
M  V30 9978 H 931.617 -2.67345 -3.75931 0
M  V30 9979 H 929.86 -2.57031 -3.49453 0
M  V30 9980 H 930.531 -2.16571 -5.07741 0
M  V30 9981 H 933.007 -0.48644 -4.13247 0
M  V30 9982 H 931.883 -0.198507 -5.48541 0
M  V30 9983 H 932.144 1.06302 -4.2913 0
M  V30 9984 N 931.203 1.46865 -0.571711 0
M  V30 9985 C 932.133 2.3298 0.155795 0
M  V30 9986 C 933.114 1.44678 0.894553 0
M  V30 9987 O 934.299 1.73513 0.872176 0
M  V30 9988 C 931.429 3.26745 1.17708 0
M  V30 9989 C 930.383 4.24401 0.553863 0
M  V30 9990 C 929.709 5.07595 1.68083 0
M  V30 9991 C 931.009 5.19884 -0.501827 0
M  V30 9992 H 932.703 2.94056 -0.563176 0
M  V30 9993 H 930.249 1.41402 -0.27228 0
M  V30 9994 H 932.202 3.85838 1.6943 0
M  V30 9995 H 930.926 2.63753 1.92618 0
M  V30 9996 H 929.585 3.66554 0.057815 0
M  V30 9997 H 929.233 4.40996 2.41933 0
M  V30 9998 H 928.933 5.73722 1.26953 0
M  V30 9999 H 930.457 5.6955 2.20103 0
M  V30 10000 H 931.871 5.73257 -0.0701057 0
M  V30 10001 H 930.268 5.94293 -0.832815 0
M  V30 10002 H 931.338 4.64482 -1.39229 0
M  V30 10003 N 932.681 0.308908 1.54543 0
M  V30 10004 C 934.097 -0.0442273 1.59539 0
M  V30 10005 C 934.297 -1.51743 1.32575 0
M  V30 10006 O 933.353 -2.27134 1.10302 0
M  V30 10007 C 934.666 0.360826 2.98527 0
M  V30 10008 C 936.214 0.310252 3.11459 0
M  V30 10009 C 936.689 0.690246 4.52769 0
M  V30 10010 N 938.18 0.643084 4.58714 0
M  V30 10011 C 938.915 0.909483 5.66141 0
M  V30 10012 N 938.411 1.24226 6.81572 0
M  V30 10013 N 940.204 0.836018 5.55848 0
M  V30 10014 H 932.355 1.26893 1.70329 0
M  V30 10015 H 934.618 0.514986 0.795923 0
M  V30 10016 H 934.324 1.38669 3.23209 0
M  V30 10017 H 934.198 -0.281563 3.76148 0
M  V30 10018 H 936.585 -0.706375 2.86521 0
M  V30 10019 H 936.666 0.987373 2.35976 0
M  V30 10020 H 936.31 1.70472 4.78437 0
M  V30 10021 H 936.24 -0.00903075 5.26599 0
M  V30 10022 H 938.731 0.397138 3.75807 0
M  V30 10023 H 939.044 1.4313 7.5943 0
M  V30 10024 H 937.389 1.28038 6.83104 0
M  V30 10025 H 940.58 0.575637 4.64547 0
M  V30 10026 H 940.753 1.047 6.39486 0
M  V30 10027 N 934.159 -1.57557 0.0367827 0
M  V30 10028 C 935.106 -2.10679 -0.942499 0
M  V30 10029 C 936.076 -1.01068 -1.31812 0
M  V30 10030 O 937.261 -1.28533 -1.41011 0
M  V30 10031 C 934.401 -2.64467 -2.21701 0
M  V30 10032 C 933.514 -3.88114 -1.89715 0
M  V30 10033 C 932.649 -4.30268 -3.11518 0
M  V30 10034 C 931.688 -5.46652 -2.75387 0
M  V30 10035 N 930.825 -5.83927 -3.89838 0
M  V30 10036 H 935.665 -2.94066 -0.482588 0
M  V30 10037 H 933.202 -1.45344 -0.226597 0
M  V30 10038 H 935.16 -2.93745 -2.96259 0
M  V30 10039 H 933.79 -1.83898 -2.65295 0
M  V30 10040 H 932.842 -3.65516 -1.05366 0
M  V30 10041 H 934.154 -4.72743 -1.5911 0
M  V30 10042 H 933.308 -4.61023 -3.94389 0
M  V30 10043 H 932.047 -3.44421 -3.4529 0
M  V30 10044 H 931.052 -5.15583 -1.90929 0
M  V30 10045 H 932.277 -6.34204 -2.42822 0
M  V30 10046 H 930.223 -5.01035 -4.23438 0
M  V30 10047 H 930.14 -6.63214 -3.62883 0
M  V30 10048 H 931.408 -6.19291 -4.73391 0
M  V30 10049 N 935.637 0.236453 -1.55816 0
M  V30 10050 C 936.885 0.96111 -1.77784 0
M  V30 10051 C 937.206 1.85454 -0.602648 0
M  V30 10052 O 936.476 1.92157 0.381137 0
M  V30 10053 H 935.056 0.35787 -0.655697 0
M  V30 10054 H 937.718 0.251888 -1.93265 0
M  V30 10055 H 936.814 1.5767 -2.69345 0
M  V30 10056 N 937.115 1.49373 0.502552 0
M  V30 10057 C 938.34 1.62752 1.28556 0
M  V30 10058 C 938.765 0.298285 1.8572 0
M  V30 10059 O 938.123 -0.733885 1.65782 0
M  V30 10060 C 938.171 2.69778 2.39274 0
M  V30 10061 O 937.275 2.28843 3.43081 0
M  V30 10062 H 936.616 0.544799 0.379592 0
M  V30 10063 H 939.146 1.9555 0.601792 0
M  V30 10064 H 939.156 2.91899 2.8506 0
M  V30 10065 H 937.831 3.66266 1.97033 0
M  V30 10066 H 936.408 2.17047 3.03224 0
M  V30 10067 N 938.594 -0.753485 1.38421 0
M  V30 10068 C 939.557 -1.84888 1.35459 0
M  V30 10069 C 940.557 -1.58764 0.255083 0
M  V30 10070 O 941.747 -1.66507 0.511978 0
M  V30 10071 C 938.879 -3.22361 1.10888 0
M  V30 10072 H 940.072 -1.88922 2.32913 0
M  V30 10073 H 937.625 -0.955199 1.23716 0
M  V30 10074 H 938.36 -3.23996 0.1404 0
M  V30 10075 H 938.145 -3.42717 1.90492 0
M  V30 10076 H 939.635 -4.02437 1.1151 0
M  V30 10077 N 940.072 -1.23292 -0.981677 0
M  V30 10078 C 941.297 -1.09176 -1.76339 0
M  V30 10079 C 941.722 0.352726 -1.84763 0
M  V30 10080 O 941.08 1.25509 -1.30832 0
M  V30 10081 C 941.128 -1.72046 -3.16911 0
M  V30 10082 O 940.232 -0.98174 -4.00544 0
M  V30 10083 H 939.573 -0.382755 -0.542581 0
M  V30 10084 H 942.103 -1.63319 -1.23239 0
M  V30 10085 H 942.113 -1.77232 -3.67495 0
M  V30 10086 H 940.788 -2.77154 -3.10095 0
M  V30 10087 H 939.365 -1.00672 -3.59054 0
M  V30 10088 N 941.55 1.18024 -1.04442 0
M  V30 10089 C 942.513 2.19992 -0.643136 0
M  V30 10090 C 943.513 1.57949 0.301444 0
M  V30 10091 O 944.703 1.73986 0.0863341 0
M  V30 10092 C 941.835 3.40853 0.0565208 0
M  V30 10093 H 943.028 2.57008 -1.54554 0
M  V30 10094 H 940.581 1.31974 -0.837408 0
M  V30 10095 H 941.316 3.09373 0.972553 0
M  V30 10096 H 941.101 3.87128 -0.622439 0
M  V30 10097 H 942.591 4.16344 0.323652 0
M  V30 10098 N 943.028 0.824394 1.34319 0
M  V30 10099 C 943.958 0.262077 2.32025 0
M  V30 10100 C 944.939 -0.622277 1.58309 0
M  V30 10101 O 946.124 -0.548848 1.86283 0
M  V30 10102 C 943.254 -0.57567 3.42496 0
M  V30 10103 C 942.208 0.21167 4.27476 0
M  V30 10104 C 941.534 -0.748913 5.29429 0
M  V30 10105 C 942.834 1.42068 5.02607 0
M  V30 10106 H 944.528 1.07842 2.79304 0
M  V30 10107 H 942.074 0.520022 1.34282 0
M  V30 10108 H 944.027 -0.979251 4.09864 0
M  V30 10109 H 942.751 -1.42508 2.93869 0
M  V30 10110 H 941.41 0.596636 3.61712 0
M  V30 10111 H 941.058 -1.59432 4.77064 0
M  V30 10112 H 940.758 -0.226313 5.87164 0
M  V30 10113 H 942.282 -1.15032 5.99667 0
M  V30 10114 H 943.696 1.09103 5.62823 0
M  V30 10115 H 942.093 1.87903 5.69923 0
M  V30 10116 H 943.163 2.1981 4.32217 0
M  V30 10117 N 944.506 -1.46559 0.579492 0
M  V30 10118 C 945.469 -2.28739 -0.145371 0
M  V30 10119 C 946.469 -1.38211 -0.821854 0
M  V30 10120 O 947.659 -1.6062 -0.674302 0
M  V30 10121 C 944.791 -3.18507 -1.21515 0
M  V30 10122 H 945.984 -2.94301 0.576786 0
M  V30 10123 H 943.537 -1.52616 0.337327 0
M  V30 10124 H 944.272 -2.57685 -1.96899 0
M  V30 10125 H 944.057 -3.85157 -0.734616 0
M  V30 10126 H 945.547 -3.80369 -1.72363 0
M  V30 10127 N 945.984 -0.3171 -1.54377 0
M  V30 10128 C 946.914 0.544623 -2.2706 0
M  V30 10129 C 947.895 1.12469 -1.27611 0
M  V30 10130 O 949.08 1.15103 -1.56413 0
M  V30 10131 C 946.21 1.70879 -3.02353 0
M  V30 10132 C 945.164 1.25833 -4.09084 0
M  V30 10133 C 944.49 2.50894 -4.72182 0
M  V30 10134 C 945.79 0.377876 -5.20931 0
M  V30 10135 H 947.484 -0.0616372 -2.99337 0
M  V30 10136 H 945.03 -0.0310848 -1.43966 0
M  V30 10137 H 946.983 2.31787 -3.51927 0
M  V30 10138 H 945.707 2.34155 -2.27682 0
M  V30 10139 H 944.366 0.672228 -3.60384 0
M  V30 10140 H 944.014 3.12518 -3.94134 0
M  V30 10141 H 943.714 2.21447 -5.44275 0
M  V30 10142 H 945.238 3.12575 -5.24528 0
M  V30 10143 H 946.652 0.893056 -5.66302 0
M  V30 10144 H 945.049 0.176474 -5.9984 0
M  V30 10145 H 946.119 -0.592943 -4.81261 0
M  V30 10146 N 947.462 1.57535 -0.0451378 0
M  V30 10147 C 948.425 2.1008 0.916461 0
M  V30 10148 C 949.425 1.01913 1.2438 0
M  V30 10149 O 950.615 1.2801 1.18148 0
M  V30 10150 C 947.747 2.58001 2.22818 0
M  V30 10151 H 948.94 2.96334 0.461076 0
M  V30 10152 H 946.493 1.54974 0.203169 0
M  V30 10153 H 947.228 1.75123 2.72951 0
M  V30 10154 H 947.013 3.3704 2.00366 0
M  V30 10155 H 948.503 2.98822 2.9171 0
M  V30 10156 N 948.94 -0.228186 1.55939 0
M  V30 10157 C 950.165 -0.974795 1.83064 0
M  V30 10158 C 950.59 -1.77426 0.624624 0
M  V30 10159 O 949.948 -1.76211 -0.426556 0
M  V30 10160 C 949.996 -1.87342 3.08116 0
M  V30 10161 O 949.1 -2.96784 2.86344 0
M  V30 10162 H 948.441 -0.276379 0.603747 0
M  V30 10163 H 950.971 -0.243507 2.03146 0
M  V30 10164 H 950.981 -2.28451 3.38045 0
M  V30 10165 H 949.656 -1.28575 3.95526 0
M  V30 10166 H 948.233 -2.59669 2.67631 0
M  V30 10167 N 950.418 -1.49637 -0.494624 0
M  V30 10168 C 951.665 -1.59445 -1.24834 0
M  V30 10169 C 951.993 -0.284028 -1.92415 0
M  V30 10170 O 951.248 0.728519 -1.81634 0
M  V30 10171 C 951.547 -2.70749 -2.33302 0
M  V30 10172 C 951.213 -4.12034 -1.83135 0
M  V30 10173 C 949.875 -4.50482 -1.69173 0
M  V30 10174 C 952.227 -5.00432 -1.4566 0
M  V30 10175 C 949.555 -5.75093 -1.16124 0
M  V30 10176 C 951.907 -6.25568 -0.940608 0
M  V30 10177 C 950.571 -6.62839 -0.787432 0
M  V30 10178 H 949.841 -0.583451 -0.456799 0
M  V30 10179 H 952.488 -1.8349 -0.548044 0
M  V30 10180 H 950.793 -2.407 -3.09145 0
M  V30 10181 H 952.49 -2.75546 -2.91334 0
M  V30 10182 H 949.08 -3.8169 -1.94964 0
M  V30 10183 H 953.264 -4.71379 -1.55291 0
M  V30 10184 H 948.52 -6.02665 -1.02982 0
M  V30 10185 H 952.694 -6.93439 -0.641467 0
M  V30 10186 H 950.321 -7.59279 -0.374191 0
M  V30 10187 N 951.896 0.746133 -1.38819 0
M  V30 10188 C 952.828 1.86991 -1.3254 0
M  V30 10189 C 953.841 1.61077 -0.236216 0
M  V30 10190 O 955.03 1.71518 -0.494341 0
M  V30 10191 C 952.13 3.22786 -1.03258 0
M  V30 10192 C 951.303 3.76145 -2.23234 0
M  V30 10193 C 950.362 4.90474 -1.90581 0
M  V30 10194 O 949.388 5.04717 -2.63153 0
M  V30 10195 N 950.59 5.74015 -0.86525 0
M  V30 10196 H 953.355 1.92885 -2.2938 0
M  V30 10197 H 950.916 0.926392 -1.32776 0
M  V30 10198 H 952.908 3.96824 -0.794533 0
M  V30 10199 H 951.478 3.12231 -0.151895 0
M  V30 10200 H 950.698 2.93587 -2.63059 0
M  V30 10201 H 951.986 4.08528 -3.03285 0
M  V30 10202 H 951.384 5.65086 -0.263577 0
M  V30 10203 H 949.941 6.48168 -0.687087 0
M  V30 10204 N 953.375 1.23811 0.975125 0
M  V30 10205 C 954.624 1.06741 1.71141 0
M  V30 10206 C 954.937 -0.394986 1.9157 0
M  V30 10207 O 956.143 -0.685723 2.62698 0
M  V30 10208 C 954.599 1.86168 3.08009 0
M  V30 10209 C 954.207 3.36771 2.95448 0
M  V30 10210 C 955.951 1.77604 3.85561 0
M  V30 10211 C 953.858 4.0857 4.2758 0
M  V30 10212 H 952.788 0.395819 0.64175 0
M  V30 10213 H 955.439 1.47825 1.0872 0
M  V30 10214 H 953.821 1.37893 3.71216 0
M  V30 10215 H 954.995 3.92571 2.41298 0
M  V30 10216 H 953.31 3.46205 2.31368 0
M  V30 10217 H 955.907 2.28556 4.83391 0
M  V30 10218 H 956.25 0.739837 4.09673 0
M  V30 10219 H 956.783 2.23519 3.29065 0
M  V30 10220 H 953.522 5.12518 4.08663 0
M  V30 10221 H 953.042 3.57556 4.81574 0
M  V30 10222 H 954.721 4.15157 4.9624 0
M  V30 10223 N 954.853 -1.17469 1.05066 0
M  V30 10224 C 956.264 -1.69334 0.786304 0
M  V30 10225 C 956.615 -1.83604 -0.691671 0
M  V30 10226 O 955.74 -1.52269 -1.53763 0
M  V30 10227 C 956.335 -3.07572 1.42074 0
M  V30 10228 C 954.894 -3.56609 1.20446 0
M  V30 10229 C 954.041 -2.329 1.50508 0
M  V30 10230 H 956.992 -1.02003 1.21577 0
M  V30 10231 H 957.013 -3.71352 0.829334 0
M  V30 10232 H 956.525 -2.97154 2.49642 0
M  V30 10233 H 954.626 -3.72306 0.147968 0
M  V30 10234 H 954.739 -4.39446 1.90852 0
M  V30 10235 H 953.103 -2.37305 0.925124 0
M  V30 10236 H 953.886 -2.25093 2.59207 0
M  V30 10237 N 956.331 -0.831506 -1.3388 0
M  V30 10238 C 957.742 -0.481375 -1.80388 0
M  V30 10239 C 958.093 0.998993 -1.68863 0
M  V30 10240 O 957.218 1.77795 -1.2336 0
M  V30 10241 C 957.813 -0.86699 -3.27519 0
M  V30 10242 C 956.372 -0.569105 -3.72073 0
M  V30 10243 C 955.519 -1.07929 -2.55434 0
M  V30 10244 H 958.47 -1.02089 -1.21505 0
M  V30 10245 H 958.491 -0.174128 -3.80101 0
M  V30 10246 H 958.003 -1.94447 -3.35875 0
M  V30 10247 H 956.104 0.498607 -3.69249 0
M  V30 10248 H 956.217 -1.11918 -4.65845 0
M  V30 10249 H 954.581 -0.500465 -2.49735 0
M  V30 10250 H 955.364 -2.16339 -2.66556 0
M  V30 10251 N 957.809 1.4625 -0.587256 0
M  V30 10252 C 959.056 2.02363 -0.0745746 0
M  V30 10253 C 959.384 1.4582 1.28712 0
M  V30 10254 O 958.639 0.614922 1.85788 0
M  V30 10255 C 958.938 3.57382 0.036328 0
M  V30 10256 C 958.604 4.32985 -1.25837 0
M  V30 10257 C 957.266 4.53358 -1.61306 0
M  V30 10258 C 959.618 4.76361 -2.11494 0
M  V30 10259 C 956.946 5.14361 -2.82223 0
M  V30 10260 C 959.298 5.38699 -3.31641 0
M  V30 10261 C 957.962 5.57299 -3.67388 0
M  V30 10262 H 957.232 0.740497 -0.0272888 0
M  V30 10263 H 959.879 1.75565 -0.764804 0
M  V30 10264 H 958.184 3.83342 0.809712 0
M  V30 10265 H 959.881 3.9848 0.448838 0
M  V30 10266 H 956.471 4.17427 -0.972251 0
M  V30 10267 H 960.655 4.60372 -1.85394 0
M  V30 10268 H 955.911 5.26952 -3.10051 0
M  V30 10269 H 960.085 5.71267 -3.9828 0
M  V30 10270 H 957.712 6.04338 -4.61173 0
M  V30 10271 N 959.287 0.325282 1.54207 0
M  V30 10272 C 960.197 -0.548778 2.28091 0
M  V30 10273 C 961.213 -1.12772 1.32508 0
M  V30 10274 O 962.389 -1.14732 1.65525 0
M  V30 10275 C 959.454 -1.69284 3.02562 0
M  V30 10276 C 958.515 -1.14553 4.13734 0
M  V30 10277 C 957.748 -2.23506 4.84645 0
M  V30 10278 O 957.971 -3.43884 4.55082 0
M  V30 10279 O 956.905 -1.88828 5.71513 0
M  V30 10280 H 960.731 0.0512974 3.03657 0
M  V30 10281 H 958.316 0.0909159 1.49123 0
M  V30 10282 H 960.198 -2.35887 3.49192 0
M  V30 10283 H 958.873 -2.27906 2.2987 0
M  V30 10284 H 957.78 -0.444532 3.71449 0
M  V30 10285 H 959.113 -0.60441 4.88475 0
M  V30 10286 N 960.765 -1.57509 0.0534917 0
M  V30 10287 C 962.005 -1.94654 -0.623641 0
M  V30 10288 C 962.369 -0.93184 -1.67871 0
M  V30 10289 O 963.57 -1.19031 -2.41009 0
M  V30 10290 C 961.841 -3.36575 -1.20216 0
M  V30 10291 S 963.4 -3.95677 -1.89697 0
M  V30 10292 H 960.218 -0.680893 -0.20471 0
M  V30 10293 H 962.82 -1.95113 0.122982 0
M  V30 10294 H 961.524 -4.08223 -0.422177 0
M  V30 10295 H 961.055 -3.39617 -1.98555 0
M  V30 10296 H 963.07 -3.81092 -3.17779 0
M  V30 10297 N 962.243 0.219913 -1.56058 0
M  V30 10298 C 963.153 1.29349 -1.95719 0
M  V30 10299 C 964.169 1.5119 -0.861248 0
M  V30 10300 O 965.345 1.64289 -1.16495 0
M  V30 10301 C 962.41 2.6229 -2.26726 0
M  V30 10302 C 961.471 2.48738 -3.49897 0
M  V30 10303 C 960.704 3.75339 -3.79416 0
M  V30 10304 O 960.927 4.78427 -3.10586 0
M  V30 10305 O 959.861 3.72352 -4.72903 0
M  V30 10306 H 963.687 0.986979 -2.87215 0
M  V30 10307 H 961.272 0.42291 -1.43289 0
M  V30 10308 H 963.154 3.408 -2.47857 0
M  V30 10309 H 961.829 2.92619 -1.38404 0
M  V30 10310 H 960.736 1.68422 -3.34043 0
M  V30 10311 H 962.069 2.23347 -4.38608 0
M  V30 10312 N 963.721 1.49897 0.486681 0
M  V30 10313 C 964.653 1.63755 1.60365 0
M  V30 10314 C 965.666 0.519614 1.54285 0
M  V30 10315 O 966.855 0.792219 1.59957 0
M  V30 10316 C 963.955 1.59153 2.99205 0
M  V30 10317 C 963.128 2.8672 3.30319 0
M  V30 10318 C 962.187 2.74974 4.48638 0
M  V30 10319 O 961.213 3.48922 4.49714 0
M  V30 10320 N 962.415 1.87479 5.49392 0
M  V30 10321 H 965.18 2.60094 1.48899 0
M  V30 10322 H 962.741 1.47166 0.674825 0
M  V30 10323 H 964.733 1.4893 3.76301 0
M  V30 10324 H 963.303 0.706133 3.0452 0
M  V30 10325 H 962.523 3.11188 2.41983 0
M  V30 10326 H 963.811 3.71262 3.47911 0
M  V30 10327 H 963.209 1.26684 5.51333 0
M  V30 10328 H 961.766 1.83169 6.25534 0
M  V30 10329 N 965.199 -0.738761 1.39212 0
M  V30 10330 C 966.427 -1.52801 1.39497 0
M  V30 10331 C 966.842 -1.88797 -0.0114917 0
M  V30 10332 O 966.199 -1.53835 -0.981887 0
M  V30 10333 C 966.25 -2.81793 2.2644 0
M  V30 10334 O 965.971 -2.47328 3.61608 0
M  V30 10335 C 967.472 -3.75844 2.35067 0
M  V30 10336 H 964.692 -0.472322 0.476606 0
M  V30 10337 H 967.236 -0.913153 1.8298 0
M  V30 10338 H 965.391 -3.3962 1.8638 0
M  V30 10339 H 965.805 -3.30162 4.07545 0
M  V30 10340 H 967.279 -4.6326 3.00157 0
M  V30 10341 H 967.756 -4.17329 1.3687 0
M  V30 10342 H 968.362 -3.23937 2.75581 0
M  V30 10343 N 966.677 -1.24326 -0.968545 0
M  V30 10344 C 967.902 -1.1104 -1.75171 0
M  V30 10345 C 968.327 0.333109 -1.85127 0
M  V30 10346 O 967.685 1.24115 -1.32156 0
M  V30 10347 C 967.733 -1.75397 -3.15068 0
M  V30 10348 O 966.837 -1.02417 -3.9948 0
M  V30 10349 H 966.178 -0.388488 -0.538491 0
M  V30 10350 H 968.708 -1.64617 -1.215 0
M  V30 10351 H 968.718 -1.8112 -3.65595 0
M  V30 10352 H 967.393 -2.80427 -3.07138 0
M  V30 10353 H 965.97 -1.04475 -3.57966 0
M  V30 10354 N 968.156 1.1691 -1.05688 0
M  V30 10355 C 969.433 1.83266 -0.683601 0
M  V30 10356 C 969.813 1.93858 0.835602 0
M  V30 10357 O 969.161 1.47696 1.7435 0
M  V30 10358 C 969.371 3.20625 -1.37842 0
M  V30 10359 C 970.719 3.96473 -1.51967 0
M  V30 10360 O 971.743 3.30122 -1.33783 0
M  V30 10361 O 970.602 5.15393 -1.81749 0
M  V30 10362 H 967.696 0.791028 -0.241254 0
M  V30 10363 H 970.242 1.24165 -1.15677 0
M  V30 10364 H 969.014 3.07914 -2.41463 0
M  V30 10365 H 968.637 3.87398 -0.894921 0
M  V30 10366 N 969.634 0.838594 1.33437 0
M  V30 10367 C 970.864 0.446995 2.01707 0
M  V30 10368 C 971.272 -0.956335 1.63251 0
M  V30 10369 O 970.615 -1.63289 0.841566 0
M  V30 10370 C 970.677 0.487707 3.56176 0
M  V30 10371 C 970.341 1.8471 4.18009 0
M  V30 10372 C 971.338 2.81028 4.374 0
M  V30 10373 C 969.023 2.13987 4.54439 0
M  V30 10374 C 971.017 4.04785 4.92369 0
M  V30 10375 C 968.704 3.38 5.09116 0
M  V30 10376 C 969.702 4.33216 5.28027 0
M  V30 10377 O 969.39 5.55036 5.81541 0
M  V30 10378 H 969.122 0.175799 0.652741 0
M  V30 10379 H 971.676 1.13265 1.71348 0
M  V30 10380 H 969.906 -0.254719 3.8586 0
M  V30 10381 H 971.595 0.113971 4.0574 0
M  V30 10382 H 972.361 2.5971 4.09604 0
M  V30 10383 H 968.24 1.40668 4.39014 0
M  V30 10384 H 971.784 4.79114 5.07046 0
M  V30 10385 H 967.681 3.59175 5.36343 0
M  V30 10386 H 968.449 5.56772 5.99956 0
M  V30 10387 N 971.112 -1.45937 0.595003 0
M  V30 10388 C 972.044 -2.28575 -0.169137 0
M  V30 10389 C 973.057 -1.39226 -0.843792 0
M  V30 10390 O 974.246 -1.63716 -0.711291 0
M  V30 10391 C 971.346 -3.14616 -1.25976 0
M  V30 10392 C 970.519 -4.32166 -0.67466 0
M  V30 10393 C 969.578 -4.99511 -1.65456 0
M  V30 10394 O 968.604 -5.56712 -1.18578 0
M  V30 10395 N 969.806 -4.97643 -2.98885 0
M  V30 10396 H 972.571 -2.94797 0.539908 0
M  V30 10397 H 970.132 -1.55985 0.433614 0
M  V30 10398 H 972.124 -3.56534 -1.91483 0
M  V30 10399 H 970.694 -2.50387 -1.8715 0
M  V30 10400 H 969.914 -3.93882 0.158184 0
M  V30 10401 H 971.202 -5.08116 -0.263753 0
M  V30 10402 H 970.6 -4.52438 -3.39583 0
M  V30 10403 H 969.157 -5.43463 -3.59848 0
M  V30 10404 N 972.59 -0.333456 -1.54032 0
M  V30 10405 C 973.815 0.270517 -2.05628 0
M  V30 10406 C 974.24 1.44231 -1.20744 0
M  V30 10407 O 973.598 1.79975 -0.218822 0
M  V30 10408 C 973.646 0.673251 -3.54259 0
M  V30 10409 O 972.75 1.77448 -3.72271 0
M  V30 10410 H 972.091 0.0469753 -0.662336 0
M  V30 10411 H 974.621 -0.484739 -1.98775 0
M  V30 10412 H 974.631 0.953194 -3.96709 0
M  V30 10413 H 973.306 -0.183747 -4.15494 0
M  V30 10414 H 971.883 1.49259 -3.41725 0
M  V30 10415 N 974.068 1.57479 -0.061844 0
M  V30 10416 C 975.479 1.80627 0.472295 0
M  V30 10417 C 975.83 0.97496 1.70261 0
M  V30 10418 O 974.955 0.1946 2.15523 0
M  V30 10419 C 975.55 3.27608 0.863616 0
M  V30 10420 C 974.109 3.51638 1.34267 0
M  V30 10421 C 973.256 2.75412 0.323009 0
M  V30 10422 H 976.207 1.56072 -0.287634 0
M  V30 10423 H 976.228 3.39113 1.72577 0
M  V30 10424 H 975.74 3.88087 -0.0320226 0
M  V30 10425 H 973.841 2.96452 2.25714 0
M  V30 10426 H 973.954 4.60342 1.32747 0
M  V30 10427 H 972.318 2.4187 0.798175 0
M  V30 10428 H 973.101 3.38623 -0.564729 0
M  V30 10429 N 975.546 -0.211634 1.56173 0
M  V30 10430 C 976.792 -0.935935 1.79911 0
M  V30 10431 C 977.125 -1.83589 0.633155 0
M  V30 10432 O 976.4 -1.91004 -0.367132 0
M  V30 10433 C 976.683 -1.76638 3.13801 0
M  V30 10434 C 976.536 -0.892259 4.40861 0
M  V30 10435 C 977.855 -2.74224 3.44223 0
M  V30 10436 H 974.974 -0.338822 0.654499 0
M  V30 10437 H 977.616 -0.20422 1.88899 0
M  V30 10438 H 975.766 -2.39021 3.0627 0
M  V30 10439 H 977.438 -0.284407 4.60422 0
M  V30 10440 H 975.681 -0.198145 4.33347 0
M  V30 10441 H 976.352 -1.50793 5.31004 0
M  V30 10442 H 978.828 -2.21975 3.51946 0
M  V30 10443 H 977.704 -3.29424 4.39057 0
M  V30 10444 H 977.965 -3.52455 2.66885 0
M  V30 10445 N 977.024 -1.50153 -0.478725 0
M  V30 10446 C 978.301 -1.51274 -1.23999 0
M  V30 10447 C 978.681 -0.253048 -2.09578 0
M  V30 10448 O 978.029 0.763827 -2.15355 0
M  V30 10449 C 978.239 -2.80423 -2.07759 0
M  V30 10450 C 979.587 -3.30788 -2.66204 0
M  V30 10451 O 980.611 -2.81693 -2.18008 0
M  V30 10452 O 979.47 -4.1635 -3.53999 0
M  V30 10453 H 976.564 -0.606438 -0.562283 0
M  V30 10454 H 979.11 -1.62436 -0.491171 0
M  V30 10455 H 977.882 -3.63584 -1.44645 0
M  V30 10456 H 977.505 -2.72228 -2.89789 0
M  V30 10457 N 978.502 0.731368 -1.39602 0
M  V30 10458 C 979.727 1.52567 -1.40492 0
M  V30 10459 C 980.152 1.881 -0.00228828 0
M  V30 10460 O 979.51 1.52167 0.985643 0
M  V30 10461 C 979.558 2.78749 -2.2876 0
M  V30 10462 O 978.662 3.7482 -1.71999 0
M  V30 10463 H 978.003 0.460601 -0.478271 0
M  V30 10464 H 980.533 0.902042 -1.83642 0
M  V30 10465 H 980.543 3.27446 -2.43399 0
M  V30 10466 H 979.218 2.5222 -3.30693 0
M  V30 10467 H 977.795 3.33604 -1.66622 0
M  V30 10468 N 979.98 1.24838 0.961938 0
M  V30 10469 C 980.927 1.04582 2.05745 0
M  V30 10470 C 981.897 -0.0427281 1.66045 0
M  V30 10471 O 983.082 0.113026 1.90465 0
M  V30 10472 C 980.222 0.66284 3.38675 0
M  V30 10473 C 979.335 1.82548 3.91536 0
M  V30 10474 C 978.47 1.38753 5.12758 0
M  V30 10475 C 977.509 2.51976 5.5783 0
M  V30 10476 N 976.646 2.09009 6.70268 0
M  V30 10477 H 981.486 1.98343 2.22405 0
M  V30 10478 H 979.023 0.987822 1.08998 0
M  V30 10479 H 980.981 0.421788 4.15062 0
M  V30 10480 H 979.611 -0.237776 3.21923 0
M  V30 10481 H 978.663 2.18004 3.11735 0
M  V30 10482 H 979.975 2.67601 4.20941 0
M  V30 10483 H 979.129 1.1057 5.96539 0
M  V30 10484 H 977.868 0.507618 4.85051 0
M  V30 10485 H 976.873 2.80912 4.72619 0
M  V30 10486 H 978.098 3.40534 5.87549 0
M  V30 10487 H 976.044 1.23423 6.44285 0
M  V30 10488 H 975.961 2.87613 6.99153 0
M  V30 10489 H 977.229 1.83981 7.57477 0
M  V30 10490 N 981.458 -1.16348 1.06306 0
M  V30 10491 C 982.735 -1.829 0.69331 0
M  V30 10492 C 983.115 -1.94298 -0.82531 0
M  V30 10493 O 982.463 -1.48619 -1.73565 0
M  V30 10494 C 982.673 -3.1989 1.3954 0
M  V30 10495 C 984.021 -3.95662 1.54068 0
M  V30 10496 O 985.045 -3.29408 1.35532 0
M  V30 10497 O 983.904 -5.14422 1.84479 0
M  V30 10498 H 980.998 -0.789738 0.245445 0
M  V30 10499 H 983.544 -1.23549 1.16334 0
M  V30 10500 H 982.316 -3.06629 2.43093 0
M  V30 10501 H 981.939 -3.86918 0.915453 0
M  V30 10502 N 982.937 -0.845659 -1.3299 0
M  V30 10503 C 983.867 -0.298957 -2.31578 0
M  V30 10504 C 984.848 0.597012 -1.59279 0
M  V30 10505 O 986.033 0.519142 -1.87132 0
M  V30 10506 C 983.163 0.521109 -3.43368 0
M  V30 10507 C 982.117 -0.279651 -4.27085 0
M  V30 10508 C 981.443 0.664591 -5.30554 0
M  V30 10509 C 982.743 -1.50046 -5.00283 0
M  V30 10510 H 984.437 -1.12272 -2.77552 0
M  V30 10511 H 981.983 -0.54132 -1.33438 0
M  V30 10512 H 983.936 0.913921 -4.1137 0
M  V30 10513 H 982.66 1.37815 -2.96099 0
M  V30 10514 H 981.319 -0.654106 -3.60717 0
M  V30 10515 H 980.967 1.51822 -4.79541 0
M  V30 10516 H 980.667 0.132871 -5.8745 0
M  V30 10517 H 982.191 1.05477 -6.01421 0
M  V30 10518 H 983.605 -1.18044 -5.61016 0
M  V30 10519 H 982.002 -1.96946 -5.66862 0
M  V30 10520 H 983.072 -2.26659 -4.28665 0
M  V30 10521 N 984.415 1.45619 -0.602734 0
M  V30 10522 C 985.64 2.07157 -0.100429 0
M  V30 10523 C 986.065 1.44524 1.20393 0
M  V30 10524 O 985.423 0.536191 1.7319 0
M  V30 10525 C 985.471 3.60587 0.0308604 0
M  V30 10526 O 984.575 3.97944 1.08234 0
M  V30 10527 H 983.916 0.6601 -0.0718643 0
M  V30 10528 H 986.446 1.86948 -0.831366 0
M  V30 10529 H 986.456 4.07348 0.230634 0
M  V30 10530 H 985.131 4.05561 -0.921581 0
M  V30 10531 H 983.708 3.62862 0.859414 0
M  V30 10532 N 985.893 0.34162 1.53853 0
M  V30 10533 C 987.141 -0.254979 2.00485 0
M  V30 10534 C 987.462 -1.51222 1.23114 0
M  V30 10535 O 986.732 -1.92966 0.337787 0
M  V30 10536 H 985.312 -0.0972084 0.740648 0
M  V30 10537 H 987.974 0.462332 1.89337 0
M  V30 10538 H 987.07 -0.498778 3.08089 0
M  V30 10539 N 987.371 -1.57444 0.0701946 0
M  V30 10540 C 988.596 -1.98171 -0.61181 0
M  V30 10541 C 989.021 -0.94823 -1.62451 0
M  V30 10542 O 988.379 0.0863553 -1.81094 0
M  V30 10543 C 988.427 -3.37934 -1.2583 0
M  V30 10544 O 987.531 -3.37207 -2.37414 0
M  V30 10545 H 986.872 -0.645056 -0.157477 0
M  V30 10546 H 989.402 -2.04091 0.144235 0
M  V30 10547 H 989.412 -3.75083 -1.60552 0
M  V30 10548 H 988.087 -4.12684 -0.516234 0
M  V30 10549 H 986.664 -3.11826 -2.04497 0
M  V30 10550 N 988.849 0.203349 -1.56283 0
M  V30 10551 C 989.812 1.23566 -1.93039 0
M  V30 10552 C 990.812 1.38869 -0.810687 0
M  V30 10553 O 992.002 1.36822 -1.07821 0
M  V30 10554 C 989.134 2.60645 -2.1972 0
M  V30 10555 H 990.327 0.921692 -2.85385 0
M  V30 10556 H 987.88 0.44453 -1.49845 0
M  V30 10557 H 988.615 2.9711 -1.29985 0
M  V30 10558 H 988.4 2.50911 -3.01307 0
M  V30 10559 H 989.89 3.35103 -2.4919 0
M  V30 10560 N 990.327 1.50405 0.470755 0
M  V30 10561 C 991.259 1.65447 1.58619 0
M  V30 10562 C 992.272 0.535949 1.53725 0
M  V30 10563 O 993.461 0.80914 1.59107 0
M  V30 10564 C 990.561 1.62318 2.975 0
M  V30 10565 C 989.734 2.90207 3.27259 0
M  V30 10566 C 988.793 2.79717 4.45696 0
M  V30 10567 O 987.819 3.53672 4.45987 0
M  V30 10568 N 989.021 1.93296 5.47373 0
M  V30 10569 H 991.786 2.61659 1.46132 0
M  V30 10570 H 989.347 1.47873 0.659178 0
M  V30 10571 H 991.339 1.52912 3.747 0
M  V30 10572 H 989.909 0.738392 3.03754 0
M  V30 10573 H 989.129 3.13737 2.38669 0
M  V30 10574 H 990.417 3.74931 3.43953 0
M  V30 10575 H 989.815 1.32524 5.49958 0
M  V30 10576 H 988.372 1.89793 6.23556 0
M  V30 10577 N 991.805 -0.723954 1.39988 0
M  V30 10578 C 992.753 -1.85938 1.39749 0
M  V30 10579 C 993.747 -1.67085 0.279112 0
M  V30 10580 O 994.953 -1.74291 0.44972 0
M  V30 10581 H 991.328 -0.612246 0.436644 0
M  V30 10582 H 993.299 -1.83255 2.355 0
M  V30 10583 C 992.048 -3.23726 1.26874 0
M  V30 10584 H 991.371 -3.38835 2.12206 0
M  V30 10585 H 992.811 -4.03332 1.30765 0
M  V30 10586 C 991.27 -3.36893 -0.0218317 0
M  V30 10587 O 991.8 -3.89363 -0.987905 0
M  V30 10588 N 990.006 -2.90465 -0.0885618 0
M  V30 10589 H 989.553 -2.47954 0.698314 0
M  V30 10590 H 989.511 -2.99654 -0.951557 0
M  V30 10591 N 993.283 -1.25346 -0.955304 0
M  V30 10592 C 994.508 -1.12892 -1.73983 0
M  V30 10593 C 994.933 0.313455 -1.8547 0
M  V30 10594 O 994.291 1.22706 -1.33465 0
M  V30 10595 C 994.339 -1.78729 -3.1319 0
M  V30 10596 O 993.443 -1.06648 -3.98372 0
M  V30 10597 H 992.784 -0.394178 -0.534341 0
M  V30 10598 H 995.314 -1.65897 -1.19747 0
M  V30 10599 H 995.324 -1.84987 -3.63653 0
M  V30 10600 H 993.999 -2.83669 -3.04146 0
M  V30 10601 H 992.576 -1.08266 -3.56837 0
M  V30 10602 N 994.761 1.15782 -1.06922 0
M  V30 10603 C 996.009 1.86097 -0.788192 0
M  V30 10604 C 996.33 1.82475 0.687606 0
M  V30 10605 O 995.6 1.26266 1.49778 0
M  V30 10606 H 994.18 0.689008 -0.288577 0
M  V30 10607 H 996.842 1.40377 -1.35205 0
M  V30 10608 H 995.938 2.91358 -1.1188 0
M  V30 10609 N 996.239 0.8527 1.3254 0
M  V30 10610 C 997.479 0.461385 1.99125 0
M  V30 10611 C 997.843 -0.964507 1.66016 0
M  V30 10612 O 999.044 -1.46027 2.25676 0
M  V30 10613 C 997.315 0.69143 3.50648 0
M  V30 10614 S 998.874 0.397397 4.36997 0
M  V30 10615 H 995.692 0.172933 0.689649 0
M  V30 10616 H 998.294 1.10499 1.61277 0
M  V30 10617 H 996.998 1.72831 3.72233 0
M  V30 10618 H 996.529 0.0341812 3.93385 0
M  V30 10619 H 998.544 -0.777363 4.90073 0
M  V30 10620 N 997.718 -1.45297 0.610449 0
M  V30 10621 C 998.648 -2.33311 -0.0939698 0
M  V30 10622 C 999.629 -1.46999 -0.85588 0
M  V30 10623 O 1000.81 -1.75764 -0.825865 0
M  V30 10624 C 997.944 -3.29751 -1.09003 0
M  V30 10625 C 996.898 -4.2572 -0.441146 0
M  V30 10626 C 996.224 -5.11873 -1.54566 0
M  V30 10627 C 997.524 -5.1837 0.639489 0
M  V30 10628 H 999.218 -2.92459 0.640941 0
M  V30 10629 H 996.764 -1.40631 0.309675 0
M  V30 10630 H 998.717 -3.90195 -1.59141 0
M  V30 10631 H 997.441 -2.68768 -1.85557 0
M  V30 10632 H 996.1 -3.66579 0.0393908 0
M  V30 10633 H 995.748 -4.47256 -2.30155 0
M  V30 10634 H 995.448 -5.76886 -1.11698 0
M  V30 10635 H 996.972 -5.75185 -2.04925 0
M  V30 10636 H 998.386 -5.7287 0.22207 0
M  V30 10637 H 996.783 -5.91876 0.990089 0
M  V30 10638 H 997.853 -4.60627 1.51495 0
M  V30 10639 N 999.196 -0.349774 -1.5367 0
M  V30 10640 C 1000.42 0.248692 -2.05904 0
M  V30 10641 C 1000.85 1.42942 -1.22267 0
M  V30 10642 O 1000.2 1.79732 -0.237899 0
M  V30 10643 C 1000.25 0.635639 -3.54953 0
M  V30 10644 O 999.356 1.7349 -3.74132 0
M  V30 10645 H 998.697 0.0399477 -0.662797 0
M  V30 10646 H 1001.23 -0.505795 -1.9825 0
M  V30 10647 H 1001.24 0.911064 -3.97698 0
M  V30 10648 H 999.912 -0.227805 -4.15276 0
M  V30 10649 H 998.489 1.45626 -3.43289 0
M  V30 10650 N 1000.67 1.57404 -0.0785433 0
M  V30 10651 C 1002.09 1.57158 0.2781 0
M  V30 10652 C 1002.29 1.08847 1.69572 0
M  V30 10653 O 1001.35 0.757407 2.40873 0
M  V30 10654 C 1002.66 3.00589 0.0816067 0
M  V30 10655 C 1004.21 3.12637 0.150627 0
M  V30 10656 C 1004.68 4.57997 -0.0176685 0
M  V30 10657 N 1006.17 4.63185 0.0377145 0
M  V30 10658 C 1006.91 5.7336 -0.0679907 0
M  V30 10659 N 1006.4 6.92426 -0.227598 0
M  V30 10660 N 1008.2 5.62099 -0.0104424 0
M  V30 10661 H 1000.35 1.87121 -1.00496 0
M  V30 10662 H 1002.61 0.862937 -0.392484 0
M  V30 10663 H 1002.32 3.40072 -0.896869 0
M  V30 10664 H 1002.19 3.67931 0.831046 0
M  V30 10665 H 1004.58 2.73037 1.11959 0
M  V30 10666 H 1004.66 2.4792 -0.630028 0
M  V30 10667 H 1004.3 4.98288 -0.983431 0
M  V30 10668 H 1004.23 5.20754 0.782475 0
M  V30 10669 H 1006.72 3.77564 0.159208 0
M  V30 10670 H 1007.04 7.72217 -0.300217 0
M  V30 10671 H 1005.38 6.94502 -0.263049 0
M  V30 10672 H 1008.57 4.67964 0.112999 0
M  V30 10673 H 1008.75 6.47928 -0.0962747 0
M  V30 10674 N 1002.15 -0.195058 1.56388 0
M  V30 10675 C 1003.38 -0.935745 1.85091 0
M  V30 10676 C 1003.8 -1.76061 0.662118 0
M  V30 10677 O 1003.16 -1.77076 -0.389083 0
M  V30 10678 C 1003.21 -1.80764 3.1202 0
M  V30 10679 O 1002.31 -2.90643 2.92575 0
M  V30 10680 H 1001.65 -0.26351 0.609474 0
M  V30 10681 H 1004.18 -0.200362 2.03617 0
M  V30 10682 H 1004.19 -2.21229 3.42815 0
M  V30 10683 H 1002.87 -1.20157 3.98165 0
M  V30 10684 H 1001.44 -2.53934 2.73079 0
M  V30 10685 N 1003.63 -1.50653 -0.462772 0
M  V30 10686 C 1004.86 -1.65826 -1.23731 0
M  V30 10687 C 1005.27 -0.345002 -1.85621 0
M  V30 10688 O 1004.63 0.673935 -1.69601 0
M  V30 10689 C 1004.68 -2.7555 -2.33997 0
M  V30 10690 O 1004.4 -4.01785 -1.74643 0
M  V30 10691 C 1005.9 -3.0177 -3.2473 0
M  V30 10692 H 1003.12 -0.557177 -0.373892 0
M  V30 10693 H 1005.67 -1.96925 -0.551434 0
M  V30 10694 H 1003.82 -2.47122 -2.98345 0
M  V30 10695 H 1004.24 -4.62529 -2.4732 0
M  V30 10696 H 1005.71 -3.82188 -3.98292 0
M  V30 10697 H 1006.19 -2.13167 -3.84001 0
M  V30 10698 H 1006.79 -3.31761 -2.66111 0
M  V30 10699 N 1005.11 0.71652 -1.4037 0
M  V30 10700 C 1006.33 1.51069 -1.42102 0
M  V30 10701 C 1006.76 1.88087 -0.0222387 0
M  V30 10702 O 1006.12 1.53204 0.969448 0
M  V30 10703 C 1006.16 2.76307 -2.31704 0
M  V30 10704 O 1005.27 3.72975 -1.75964 0
M  V30 10705 H 1004.61 0.455502 -0.483129 0
M  V30 10706 H 1007.14 0.882514 -1.84588 0
M  V30 10707 H 1007.15 3.24846 -2.46859 0
M  V30 10708 H 1005.82 2.48698 -3.3335 0
M  V30 10709 H 1004.4 3.31818 -1.70151 0
M  V30 10710 N 1006.59 1.25851 0.948643 0
M  V30 10711 C 1007.55 1.0683 2.0278 0
M  V30 10712 C 1008.55 0.0191016 1.60789 0
M  V30 10713 O 1009.74 0.261836 1.72221 0
M  V30 10714 C 1006.87 0.623318 3.35153 0
M  V30 10715 H 1008.06 2.02635 2.21086 0
M  V30 10716 H 1005.62 1.08343 1.12657 0
M  V30 10717 H 1006.35 -0.337053 3.22544 0
M  V30 10718 H 1006.14 1.38082 3.66982 0
M  V30 10719 H 1007.63 0.511854 4.14451 0
M  V30 10720 N 1008.06 -1.15214 1.07534 0
M  V30 10721 C 1009.01 -2.22078 0.69168 0
M  V30 10722 C 1010.01 -1.66751 -0.298382 0
M  V30 10723 O 1011.21 -1.7927 -0.161897 0
M  V30 10724 H 1007.59 -0.723347 0.205604 0
M  V30 10725 H 1009.56 -2.51716 1.60256 0
M  V30 10726 C 1008.31 -3.47534 0.107546 0
M  V30 10727 H 1007.63 -3.90429 0.860522 0
M  V30 10728 H 1009.07 -4.23821 -0.123215 0
M  V30 10729 C 1007.53 -3.16583 -1.15226 0
M  V30 10730 O 1008.06 -3.33551 -2.23845 0
M  V30 10731 N 1006.27 -2.70611 -1.05915 0
M  V30 10732 H 1005.81 -2.57004 -0.175198 0
M  V30 10733 H 1005.77 -2.50277 -1.90287 0
M  V30 10734 N 1009.54 -0.859717 -1.32086 0
M  V30 10735 C 1010.79 -0.461779 -1.96343 0
M  V30 10736 C 1011.1 0.988837 -1.68764 0
M  V30 10737 O 1012.31 1.49244 -2.268 0
M  V30 10738 C 1010.77 -0.77484 -3.5146 0
M  V30 10739 C 1010.37 -2.24153 -3.87891 0
M  V30 10740 C 1012.12 -0.444873 -4.22162 0
M  V30 10741 C 1010.03 -2.49754 -5.36075 0
M  V30 10742 H 1008.96 -0.168951 -0.734828 0
M  V30 10743 H 1011.61 -1.0512 -1.50406 0
M  V30 10744 H 1009.99 -0.114792 -3.95834 0
M  V30 10745 H 1011.16 -2.94378 -3.54511 0
M  V30 10746 H 1009.48 -2.53651 -3.30227 0
M  V30 10747 H 1012.07 -0.613508 -5.31169 0
M  V30 10748 H 1012.42 0.61391 -4.11749 0
M  V30 10749 H 1012.95 -1.06103 -3.83389 0
M  V30 10750 H 1009.69 -3.54276 -5.51515 0
M  V30 10751 H 1009.21 -1.84112 -5.70844 0
M  V30 10752 H 1010.89 -2.3396 -6.03218 0
M  V30 10753 N 1011.02 1.44971 -0.618145 0
M  V30 10754 C 1012.25 2.07039 -0.122395 0
M  V30 10755 C 1012.67 1.45793 1.18853 0
M  V30 10756 O 1012.03 0.55453 1.72611 0
M  V30 10757 C 1012.08 3.60599 -0.0073864 0
M  V30 10758 O 1011.18 3.99069 1.04007 0
M  V30 10759 H 1010.52 0.6593 -0.0788615 0
M  V30 10760 H 1013.05 1.86055 -0.851147 0
M  V30 10761 H 1013.06 4.07569 0.187417 0
M  V30 10762 H 1011.74 4.04561 -0.964544 0
M  V30 10763 H 1010.31 3.63753 0.820879 0
M  V30 10764 N 1012.5 0.357919 1.53482 0
M  V30 10765 C 1013.91 0.00655107 1.59599 0
M  V30 10766 C 1014.11 -1.47449 1.37336 0
M  V30 10767 O 1013.17 -2.2351 1.17472 0
M  V30 10768 C 1014.48 0.455617 2.97228 0
M  V30 10769 C 1016.03 0.409183 3.10314 0
M  V30 10770 C 1016.51 0.833941 4.50344 0
M  V30 10771 N 1018 0.788695 4.56436 0
M  V30 10772 C 1018.73 1.08914 5.62961 0
M  V30 10773 N 1018.23 1.45847 6.77274 0
M  V30 10774 N 1020.02 1.01243 5.52907 0
M  V30 10775 H 1012.17 1.32248 1.66206 0
M  V30 10776 H 1014.44 0.540047 0.779136 0
M  V30 10777 H 1014.14 1.48881 3.18634 0
M  V30 10778 H 1014.02 -0.161751 3.76853 0
M  V30 10779 H 1016.4 -0.614863 2.88623 0
M  V30 10780 H 1016.48 1.06195 2.32715 0
M  V30 10781 H 1016.13 1.85607 4.72771 0
M  V30 10782 H 1016.06 0.158507 5.26361 0
M  V30 10783 H 1018.55 0.516497 3.74354 0
M  V30 10784 H 1018.86 1.67218 7.54492 0
M  V30 10785 H 1017.21 1.49705 6.78685 0
M  V30 10786 H 1020.4 0.723137 4.62481 0
M  V30 10787 H 1020.57 1.24991 6.35831 0
M  V30 10788 N 1013.98 -1.5736 0.0868897 0
M  V30 10789 C 1015.22 -1.9367 -0.577598 0
M  V30 10790 C 1015.55 -0.968844 -1.69229 0
M  V30 10791 O 1014.82 -0.0195061 -1.9589 0
M  V30 10792 H 1013.4 -0.714983 -0.216353 0
M  V30 10793 H 1016.06 -1.94335 0.148294 0
M  V30 10794 H 1015.15 -2.95877 -0.993128 0
M  V30 10795 N 1015.45 0.186762 -1.56489 0
M  V30 10796 C 1016.38 1.23395 -1.98232 0
M  V30 10797 C 1017.37 1.4702 -0.855526 0
M  V30 10798 O 1018.55 1.58616 -1.12048 0
M  V30 10799 C 1015.68 2.57635 -2.32898 0
M  V30 10800 C 1014.63 2.48607 -3.48394 0
M  V30 10801 C 1013.96 3.87196 -3.68759 0
M  V30 10802 C 1015.26 2.00398 -4.82325 0
M  V30 10803 H 1016.95 0.887026 -2.85958 0
M  V30 10804 H 1014.5 0.42525 -1.37578 0
M  V30 10805 H 1016.45 3.31082 -2.60696 0
M  V30 10806 H 1015.18 2.94084 -1.42064 0
M  V30 10807 H 1013.84 1.77615 -3.207 0
M  V30 10808 H 1013.48 4.21012 -2.75241 0
M  V30 10809 H 1013.18 3.82029 -4.46462 0
M  V30 10810 H 1014.71 4.62253 -3.98941 0
M  V30 10811 H 1016.12 2.6361 -5.091 0
M  V30 10812 H 1014.52 2.06214 -5.63556 0
M  V30 10813 H 1015.59 0.957562 -4.75351 0
M  V30 10814 N 1016.93 1.50896 0.454776 0
M  V30 10815 C 1017.86 1.6712 1.56855 0
M  V30 10816 C 1018.88 0.552223 1.53148 0
M  V30 10817 O 1020.07 0.825969 1.5824 0
M  V30 10818 C 1017.17 1.65464 2.95762 0
M  V30 10819 C 1016.34 2.93662 3.24163 0
M  V30 10820 C 1015.4 2.84428 4.42704 0
M  V30 10821 O 1014.42 3.58382 4.42211 0
M  V30 10822 N 1015.63 1.9909 5.45292 0
M  V30 10823 H 1018.39 2.63194 1.43349 0
M  V30 10824 H 1015.95 1.48564 0.643457 0
M  V30 10825 H 1017.94 1.56878 3.73057 0
M  V30 10826 H 1016.51 0.770568 3.02954 0
M  V30 10827 H 1015.73 3.16251 2.35328 0
M  V30 10828 H 1017.02 3.78558 3.39957 0
M  V30 10829 H 1016.42 1.3835 5.48521 0
M  V30 10830 H 1014.98 1.96396 6.21508 0
M  V30 10831 N 1018.41 -0.709066 1.40748 0
M  V30 10832 C 1019.66 -1.46901 1.39378 0
M  V30 10833 C 1019.99 -1.945 -0.0016993 0
M  V30 10834 O 1019.24 -1.68963 -0.987426 0
M  V30 10835 C 1019.54 -2.70543 2.33541 0
M  V30 10836 C 1019.21 -2.41674 3.80663 0
M  V30 10837 C 1017.87 -2.33511 4.20745 0
M  V30 10838 C 1020.22 -2.1759 4.73607 0
M  V30 10839 C 1017.55 -1.99342 5.51797 0
M  V30 10840 C 1019.9 -1.84933 6.04965 0
M  V30 10841 C 1018.56 -1.75256 6.44082 0
M  V30 10842 H 1017.83 -0.537549 0.510021 0
M  V30 10843 H 1020.48 -0.811635 1.7345 0
M  V30 10844 H 1018.79 -3.41149 1.92677 0
M  V30 10845 H 1020.48 -3.2865 2.29761 0
M  V30 10846 H 1017.07 -2.48917 3.4891 0
M  V30 10847 H 1021.26 -2.22849 4.43454 0
M  V30 10848 H 1016.51 -1.90392 5.81 0
M  V30 10849 H 1020.69 -1.65313 6.76494 0
M  V30 10850 H 1018.31 -1.48547 7.45545 0
M  V30 10851 N 1019.89 -1.26353 -0.941956 0
M  V30 10852 C 1021.14 -1.11241 -1.68251 0
M  V30 10853 C 1021.45 0.344055 -1.9255 0
M  V30 10854 O 1022.66 0.615832 -2.64423 0
M  V30 10855 C 1021.11 -1.94269 -3.02965 0
M  V30 10856 C 1020.72 -3.44485 -2.86415 0
M  V30 10857 C 1022.47 -1.87764 -3.80716 0
M  V30 10858 C 1020.37 -4.19763 -4.16597 0
M  V30 10859 H 1019.3 -0.412694 -0.63103 0
M  V30 10860 H 1021.95 -1.50656 -1.04762 0
M  V30 10861 H 1020.34 -1.47687 -3.6743 0
M  V30 10862 H 1021.51 -3.9883 -2.30805 0
M  V30 10863 H 1019.82 -3.52218 -2.22107 0
M  V30 10864 H 1022.42 -2.41292 -4.77161 0
M  V30 10865 H 1022.76 -0.848195 -4.07568 0
M  V30 10866 H 1023.3 -2.32165 -3.23024 0
M  V30 10867 H 1020.04 -5.23173 -3.9493 0
M  V30 10868 H 1019.56 -3.70198 -4.71925 0
M  V30 10869 H 1021.24 -4.28168 -4.85058 0
M  V30 10870 N 1021.37 1.14642 -1.08144 0
M  V30 10871 C 1022.3 2.21775 -0.730609 0
M  V30 10872 C 1023.28 1.67683 0.285702 0
M  V30 10873 O 1024.46 1.93567 0.156667 0
M  V30 10874 C 1021.59 3.47033 -0.136242 0
M  V30 10875 C 1020.55 4.14134 -1.0806 0
M  V30 10876 C 1019.87 5.33563 -0.348585 0
M  V30 10877 C 1021.17 4.62978 -2.41761 0
M  V30 10878 H 1022.87 2.51378 -1.62633 0
M  V30 10879 H 1020.41 1.20825 -0.783411 0
M  V30 10880 H 1022.37 4.21226 0.121182 0
M  V30 10881 H 1021.09 3.16786 0.7946 0
M  V30 10882 H 1019.75 3.41892 -1.32308 0
M  V30 10883 H 1019.4 4.99575 0.585974 0
M  V30 10884 H 1019.1 5.79402 -0.978122 0
M  V30 10885 H 1020.62 6.10519 -0.0991508 0
M  V30 10886 H 1022.04 5.28659 -2.21795 0
M  V30 10887 H 1020.43 5.1951 -3.00383 0
M  V30 10888 H 1021.5 3.78189 -3.03482 0
M  V30 10889 N 1022.85 0.866709 1.31628 0
M  V30 10890 C 1024.07 0.49039 2.01004 0
M  V30 10891 C 1024.49 -0.916244 1.65077 0
M  V30 10892 O 1023.85 -1.59975 0.8783 0
M  V30 10893 C 1023.9 0.634011 3.55897 0
M  V30 10894 O 1023.62 1.98525 3.90537 0
M  V30 10895 C 1025.12 0.258277 4.42547 0
M  V30 10896 H 1022.34 0.191421 0.643117 0
M  V30 10897 H 1024.88 1.16698 1.67934 0
M  V30 10898 H 1023.04 0.00501801 3.874 0
M  V30 10899 H 1023.45 1.99067 4.85255 0
M  V30 10900 H 1024.93 0.409733 5.50477 0
M  V30 10901 H 1025.4 -0.802301 4.3181 0
M  V30 10902 H 1026.01 0.862837 4.16456 0
M  V30 10903 N 1024.32 -1.44642 0.625825 0
M  V30 10904 C 1025.73 -1.85502 0.211175 0
M  V30 10905 C 1026.09 -1.52356 -1.2362 0
M  V30 10906 O 1025.21 -0.959051 -1.93988 0
M  V30 10907 C 1025.81 -3.36702 0.37648 0
M  V30 10908 C 1024.36 -3.76396 0.0163795 0
M  V30 10909 C 1023.51 -2.68517 0.692368 0
M  V30 10910 H 1026.46 -1.35183 0.831333 0
M  V30 10911 H 1026.48 -3.78536 -0.386106 0
M  V30 10912 H 1026 -3.60795 1.42999 0
M  V30 10913 H 1024.1 -3.57919 -1.0356 0
M  V30 10914 H 1024.21 -4.77231 0.422742 0
M  V30 10915 H 1022.57 -2.54377 0.128191 0
M  V30 10916 H 1023.36 -2.95444 1.74837 0
M  V30 10917 N 1025.8 -0.366053 -1.5329 0
M  V30 10918 C 1026.75 0.495319 -2.27265 0
M  V30 10919 C 1027.74 1.08298 -1.30261 0
M  V30 10920 O 1028.95 1.02613 -1.47887 0
M  V30 10921 H 1025.32 0.178454 -0.730519 0
M  V30 10922 H 1027.3 -0.150354 -2.98021 0
M  V30 10923 C 1026.04 1.62283 -3.07505 0
M  V30 10924 H 1025.37 1.17993 -3.81992 0
M  V30 10925 H 1026.81 2.20024 -3.62444 0
M  V30 10926 C 1025.27 2.56542 -2.18375 0
M  V30 10927 O 1025.8 3.59371 -1.79486 0
M  V30 10928 N 1024 2.25742 -1.82999 0
M  V30 10929 H 1023.55 1.42159 -2.14822 0
M  V30 10930 H 1023.51 2.89064 -1.2365 0
M  V30 10931 N 1027.28 1.57312 -0.0952337 0
M  V30 10932 C 1028.19 2.17556 0.877877 0
M  V30 10933 C 1029.21 1.14505 1.31014 0
M  V30 10934 O 1030.38 1.46876 1.37802 0
M  V30 10935 C 1027.45 2.74413 2.11892 0
M  V30 10936 C 1026.51 3.92419 1.74085 0
M  V30 10937 C 1025.74 4.46556 2.92273 0
M  V30 10938 O 1025.96 3.99631 4.07002 0
M  V30 10939 O 1024.9 5.37576 2.70732 0
M  V30 10940 H 1028.72 3.01116 0.395312 0
M  V30 10941 H 1026.31 1.48841 0.129123 0
M  V30 10942 H 1028.19 3.10754 2.84622 0
M  V30 10943 H 1026.87 1.93899 2.59201 0
M  V30 10944 H 1025.77 3.6089 0.985346 0
M  V30 10945 H 1027.11 4.74298 1.31539 0
M  V30 10946 N 1028.76 -0.17846 1.56586 0
M  V30 10947 C 1030 -0.896235 1.81587 0
M  V30 10948 C 1030.33 -1.82553 0.671168 0
M  V30 10949 O 1029.59 -1.92688 -0.342046 0
M  V30 10950 C 1029.89 -1.73063 3.12704 0
M  V30 10951 C 1029.55 -0.950877 4.4076 0
M  V30 10952 C 1028.21 -0.735647 4.75544 0
M  V30 10953 C 1030.57 -0.403419 5.19636 0
M  V30 10954 C 1027.89 0.0382562 5.86688 0
M  V30 10955 C 1030.25 0.357359 6.3159 0
M  V30 10956 C 1028.91 0.583455 6.64945 0
M  V30 10957 H 1028.18 -0.327956 0.664474 0
M  V30 10958 H 1030.83 -0.161586 1.90817 0
M  V30 10959 H 1029.13 -2.53446 2.98785 0
M  V30 10960 H 1030.83 -2.28891 3.29257 0
M  V30 10961 H 1027.42 -1.12866 4.13472 0
M  V30 10962 H 1031.6 -0.557059 4.93164 0
M  V30 10963 H 1026.86 0.223237 6.10992 0
M  V30 10964 H 1031.03 0.788861 6.91918 0
M  V30 10965 H 1028.66 1.18502 7.50907 0
M  V30 10966 N 1030.24 -1.51135 -0.446768 0
M  V30 10967 C 1031.46 -1.67411 -1.22427 0
M  V30 10968 C 1031.89 -0.367009 -1.84485 0
M  V30 10969 O 1031.24 0.67185 -1.68392 0
M  V30 10970 C 1031.29 -2.78473 -2.29096 0
M  V30 10971 O 1030.4 -2.41419 -3.34351 0
M  V30 10972 H 1029.74 -0.558512 -0.359111 0
M  V30 10973 H 1032.27 -1.97648 -0.5288 0
M  V30 10974 H 1032.28 -3.02277 -2.7403 0
M  V30 10975 H 1030.95 -3.73326 -1.83304 0
M  V30 10976 H 1029.53 -2.28152 -2.9496 0
M  V30 10977 N 1031.71 0.701592 -1.41122 0
M  V30 10978 C 1032.68 1.79733 -1.42227 0
M  V30 10979 C 1033.68 1.57708 -0.313831 0
M  V30 10980 O 1034.87 1.64492 -0.573423 0
M  V30 10981 C 1032 3.18024 -1.22775 0
M  V30 10982 H 1033.19 1.80148 -2.39764 0
M  V30 10983 H 1030.74 0.908624 -1.27176 0
M  V30 10984 H 1031.48 3.23252 -0.260552 0
M  V30 10985 H 1031.26 3.35411 -2.0308 0
M  V30 10986 H 1032.75 3.98021 -1.2637 0
M  V30 10987 N 1033.19 1.2685 0.935242 0
M  V30 10988 C 1034.12 1.04717 2.0388 0
M  V30 10989 C 1035.14 0.00567507 1.62799 0
M  V30 10990 O 1036.33 0.246408 1.76791 0
M  V30 10991 C 1033.43 0.56496 3.34158 0
M  V30 10992 C 1032.6 1.67704 4.03973 0
M  V30 10993 C 1031.66 1.19186 5.12524 0
M  V30 10994 O 1030.68 1.89008 5.36903 0
M  V30 10995 N 1031.89 0.0434554 5.80484 0
M  V30 10996 H 1034.65 1.99746 2.23431 0
M  V30 10997 H 1032.21 1.18316 1.10512 0
M  V30 10998 H 1034.2 0.224436 4.04077 0
M  V30 10999 H 1032.77 -0.291899 3.11234 0
M  V30 11000 H 1031.99 2.18821 3.27889 0
M  V30 11001 H 1033.28 2.42361 4.47368 0
M  V30 11002 H 1032.68 -0.539502 5.63122 0
M  V30 11003 H 1031.24 -0.237946 6.51366 0
M  V30 11004 N 1034.67 -1.14067 1.0875 0
M  V30 11005 C 1035.9 -1.89041 0.840902 0
M  V30 11006 C 1036.31 -1.78768 -0.60725 0
M  V30 11007 O 1035.67 -1.14945 -1.41753 0
M  V30 11008 C 1035.72 -3.38891 1.25838 0
M  V30 11009 O 1035.44 -3.48886 2.64972 0
M  V30 11010 C 1036.94 -4.30852 1.04315 0
M  V30 11011 H 1034.16 -0.598685 0.303014 0
M  V30 11012 H 1036.71 -1.44438 1.44769 0
M  V30 11013 H 1034.86 -3.81103 0.695627 0
M  V30 11014 H 1035.28 -4.41989 2.82393 0
M  V30 11015 H 1036.75 -5.34353 1.38461 0
M  V30 11016 H 1037.23 -4.39196 -0.0195784 0
M  V30 11017 H 1037.83 -3.944 1.59151 0
M  V30 11018 N 1036.15 -0.873678 -1.31166 0
M  V30 11019 C 1037.4 -0.486457 -1.9657 0
M  V30 11020 C 1037.72 0.962042 -1.69041 0
M  V30 11021 O 1036.98 1.69305 -0.981543 0
M  V30 11022 C 1037.28 -0.69462 -3.50585 0
M  V30 11023 C 1036.94 -2.11647 -3.98141 0
M  V30 11024 C 1035.61 -2.50531 -4.10838 0
M  V30 11025 C 1037.96 -3.0436 -4.23101 0
M  V30 11026 C 1035.29 -3.81361 -4.45848 0
M  V30 11027 C 1037.64 -4.34709 -4.59577 0
M  V30 11028 C 1036.3 -4.73502 -4.70481 0
M  V30 11029 H 1035.57 -0.178007 -0.719301 0
M  V30 11030 H 1038.22 -1.10737 -1.56235 0
M  V30 11031 H 1036.52 0.00940878 -3.91799 0
M  V30 11032 H 1038.22 -0.374782 -3.99245 0
M  V30 11033 H 1034.81 -1.8046 -3.88757 0
M  V30 11034 H 1038.99 -2.75544 -4.12782 0
M  V30 11035 H 1034.25 -4.11174 -4.52488 0
M  V30 11036 H 1038.42 -5.06596 -4.77842 0
M  V30 11037 H 1036.05 -5.74919 -4.97365 0
M  V30 11038 N 1037.63 1.44308 -0.633487 0
M  V30 11039 C 1038.86 2.06085 -0.145852 0
M  V30 11040 C 1039.26 1.47432 1.18577 0
M  V30 11041 O 1038.61 0.592575 1.7388 0
M  V30 11042 C 1038.67 3.59477 0.0407848 0
M  V30 11043 C 1038.33 4.40607 -1.21304 0
M  V30 11044 C 1039.33 4.73937 -2.13728 0
M  V30 11045 C 1037.02 4.80943 -1.44911 0
M  V30 11046 C 1039.01 5.46489 -3.28068 0
M  V30 11047 C 1036.7 5.53243 -2.59548 0
M  V30 11048 C 1037.69 5.85936 -3.50953 0
M  V30 11049 O 1037.38 6.56764 -4.6359 0
M  V30 11050 H 1037.11 0.671484 -0.0780085 0
M  V30 11051 H 1039.67 1.86128 -0.868658 0
M  V30 11052 H 1037.9 3.77933 0.818761 0
M  V30 11053 H 1039.59 4.03013 0.483273 0
M  V30 11054 H 1040.35 4.43311 -1.96725 0
M  V30 11055 H 1036.23 4.54915 -0.746537 0
M  V30 11056 H 1039.78 5.71924 -3.99435 0
M  V30 11057 H 1035.67 5.83285 -2.76493 0
M  V30 11058 H 1036.44 6.75234 -4.62602 0
M  V30 11059 N 1039.1 0.374177 1.53094 0
M  V30 11060 C 1040.07 -0.455999 2.24618 0
M  V30 11061 C 1041.07 -1.00269 1.25709 0
M  V30 11062 O 1042.26 -0.887077 1.49922 0
M  V30 11063 C 1039.39 -1.63822 2.98957 0
M  V30 11064 H 1040.58 0.169986 2.99418 0
M  V30 11065 H 1038.14 0.126015 1.55791 0
M  V30 11066 H 1038.87 -2.30205 2.28421 0
M  V30 11067 H 1038.66 -1.25308 3.71538 0
M  V30 11068 H 1040.15 -2.22633 3.53305 0
M  V30 11069 N 1040.58 -1.57259 0.103575 0
M  V30 11070 C 1041.51 -2.17509 -0.84923 0
M  V30 11071 C 1042.49 -1.11079 -1.28824 0
M  V30 11072 O 1043.68 -1.39252 -1.35361 0
M  V30 11073 C 1040.81 -2.76221 -2.10522 0
M  V30 11074 C 1039.76 -3.88098 -1.80454 0
M  V30 11075 C 1039.09 -4.33549 -3.12952 0
M  V30 11076 C 1040.39 -5.10909 -1.08486 0
M  V30 11077 H 1042.08 -2.9738 -0.347217 0
M  V30 11078 H 1039.63 -1.43045 -0.165568 0
M  V30 11079 H 1041.58 -3.17024 -2.77621 0
M  V30 11080 H 1040.31 -1.93617 -2.63021 0
M  V30 11081 H 1038.96 -3.47847 -1.15749 0
M  V30 11082 H 1038.61 -3.47825 -3.63355 0
M  V30 11083 H 1038.31 -5.08984 -2.93614 0
M  V30 11084 H 1039.84 -4.76992 -3.81196 0
M  V30 11085 H 1041.25 -5.48828 -1.65711 0
M  V30 11086 H 1039.65 -5.91828 -0.992973 0
M  V30 11087 H 1040.72 -4.84851 -0.0690108 0
M  V30 11088 N 1042.06 0.170153 -1.56679 0
M  V30 11089 C 1043.29 0.90618 -1.86556 0
M  V30 11090 C 1043.71 1.74986 -0.690044 0
M  V30 11091 O 1043.07 1.77672 0.360862 0
M  V30 11092 C 1043.12 1.75777 -3.14857 0
M  V30 11093 O 1042.22 2.85952 -2.97162 0
M  V30 11094 H 1041.56 0.253781 -0.613589 0
M  V30 11095 H 1044.09 0.167943 -2.0391 0
M  V30 11096 H 1044.1 2.15747 -3.46291 0
M  V30 11097 H 1042.78 1.13807 -4.00026 0
M  V30 11098 H 1041.35 2.49557 -2.77084 0
M  V30 11099 N 1043.54 1.5137 0.438746 0
M  V30 11100 C 1044.95 1.56462 1.01866 0
M  V30 11101 C 1045.3 0.387244 1.9234 0
M  V30 11102 O 1044.43 -0.496131 2.10636 0
M  V30 11103 C 1045.02 2.83557 1.85421 0
M  V30 11104 C 1043.58 2.91224 2.38464 0
M  V30 11105 C 1042.73 2.51109 1.17641 0
M  V30 11106 H 1045.68 1.57167 0.220072 0
M  V30 11107 H 1045.7 2.6724 2.70857 0
M  V30 11108 H 1045.21 3.69229 1.19546 0
M  V30 11109 H 1043.31 2.09979 3.07798 0
M  V30 11110 H 1043.42 3.94844 2.71358 0
M  V30 11111 H 1041.79 2.04276 1.5213 0
M  V30 11112 H 1042.57 3.39125 0.533785 0
M  V30 11113 N 1045.02 -0.694098 1.41492 0
M  V30 11114 C 1046.24 -1.48286 1.44288 0
M  V30 11115 C 1046.66 -1.88737 0.0485783 0
M  V30 11116 O 1046.02 -1.56881 -0.932449 0
M  V30 11117 C 1046.07 -2.74446 2.3529 0
M  V30 11118 O 1045.79 -2.35698 3.69294 0
M  V30 11119 C 1047.29 -3.68175 2.46905 0
M  V30 11120 H 1044.51 -0.45692 0.491391 0
M  V30 11121 H 1047.05 -0.854477 1.85793 0
M  V30 11122 H 1045.21 -3.33518 1.9709 0
M  V30 11123 H 1045.62 -3.17029 4.17843 0
M  V30 11124 H 1047.1 -4.53476 3.14743 0
M  V30 11125 H 1047.57 -4.12763 1.50078 0
M  V30 11126 H 1048.18 -3.15006 2.85747 0
M  V30 11127 N 1046.49 -1.27344 -0.928501 0
M  V30 11128 C 1047.43 -1.04322 -2.02959 0
M  V30 11129 C 1048.41 0.0361118 -1.6256 0
M  V30 11130 O 1049.59 -0.108872 -1.88185 0
M  V30 11131 C 1046.72 -0.582329 -3.33656 0
M  V30 11132 C 1045.76 -1.65611 -3.93033 0
M  V30 11133 S 1046.6 -3.2484 -4.25722 0
M  V30 11134 C 1047.75 -2.8055 -5.59502 0
M  V30 11135 H 1047.98 -1.97548 -2.22176 0
M  V30 11136 H 1045.52 -1.11167 -1.07151 0
M  V30 11137 H 1047.48 -0.323095 -4.09227 0
M  V30 11138 H 1046.14 0.329858 -3.12363 0
M  V30 11139 H 1045.33 -1.28491 -4.87346 0
M  V30 11140 H 1044.93 -1.86738 -3.24045 0
M  V30 11141 H 1047.22 -2.25803 -6.38764 0
M  V30 11142 H 1048.17 -3.73603 -6.0152 0
M  V30 11143 H 1048.57 -2.19717 -5.19985 0
M  V30 11144 N 1047.97 1.13488 -1.09353 0
M  V30 11145 C 1048.92 2.16933 -0.701709 0
M  V30 11146 C 1049.91 1.58382 0.283553 0
M  V30 11147 O 1051.1 1.7675 0.0940391 0
M  V30 11148 C 1048.23 3.43079 -0.123031 0
M  V30 11149 C 1047.31 4.08639 -1.13466 0
M  V30 11150 N 1047.7 4.49377 -2.32152 0
M  V30 11151 C 1046 4.35265 -0.972632 0
M  V30 11152 C 1046.7 5.00464 -2.96497 0
M  V30 11153 N 1045.68 4.95275 -2.24061 0
M  V30 11154 H 1049.48 2.46183 -1.60534 0
M  V30 11155 H 1047 1.30275 -0.969644 0
M  V30 11156 H 1048.99 4.1653 0.17569 0
M  V30 11157 H 1047.65 3.15304 0.775461 0
M  V30 11158 H 1048.66 4.42105 -2.69748 0
M  V30 11159 H 1045.34 4.17301 -0.12876 0
M  V30 11160 H 1046.73 5.41785 -3.9739 0
M  V30 11161 N 1049.45 0.880621 1.30701 0
M  V30 11162 C 1050.68 0.510909 2.01009 0
M  V30 11163 C 1051.1 -0.892041 1.65603 0
M  V30 11164 O 1050.46 -1.59045 0.870309 0
M  V30 11165 C 1050.51 0.687759 3.53981 0
M  V30 11166 O 1049.61 -0.268275 4.11526 0
M  V30 11167 H 1048.95 0.201864 0.632572 0
M  V30 11168 H 1051.48 1.18697 1.6665 0
M  V30 11169 H 1051.49 0.585095 4.03783 0
M  V30 11170 H 1050.17 1.71068 3.79089 0
M  V30 11171 H 1048.74 -0.119673 3.72708 0
M  V30 11172 N 1050.93 -1.4397 0.641131 0
M  V30 11173 C 1051.86 -2.28997 -0.0963315 0
M  V30 11174 C 1052.87 -1.4184 -0.799071 0
M  V30 11175 O 1054.06 -1.65896 -0.658846 0
M  V30 11176 C 1051.16 -3.18465 -1.15903 0
M  V30 11177 C 1050.34 -4.34093 -0.536828 0
M  V30 11178 C 1049.4 -5.04522 -1.4948 0
M  V30 11179 O 1048.42 -5.60202 -1.00807 0
M  V30 11180 N 1049.62 -5.06899 -2.82901 0
M  V30 11181 H 1052.39 -2.9293 0.633422 0
M  V30 11182 H 1049.95 -1.54527 0.48302 0
M  V30 11183 H 1051.94 -3.62445 -1.80044 0
M  V30 11184 H 1050.51 -2.56214 -1.79089 0
M  V30 11185 H 1049.73 -3.9318 0.283414 0
M  V30 11186 H 1051.02 -5.08698 -0.101966 0
M  V30 11187 H 1050.42 -4.63012 -3.25017 0
M  V30 11188 H 1048.97 -5.54637 -3.42376 0
M  V30 11189 N 1052.41 -0.382291 -1.52893 0
M  V30 11190 C 1053.37 0.44408 -2.24857 0
M  V30 11191 C 1054.37 0.996004 -1.26239 0
M  V30 11192 O 1055.56 0.879114 -1.5039 0
M  V30 11193 C 1052.69 1.62234 -2.99822 0
M  V30 11194 H 1053.89 -0.185862 -2.99324 0
M  V30 11195 H 1051.44 -0.134275 -1.55722 0
M  V30 11196 H 1052.17 2.28991 -2.29638 0
M  V30 11197 H 1051.96 1.23336 -3.72197 0
M  V30 11198 H 1053.45 2.20756 -3.54481 0
M  V30 11199 N 1053.89 1.57202 -0.111913 0
M  V30 11200 C 1055.11 1.99297 0.555713 0
M  V30 11201 C 1055.53 0.991444 1.60673 0
M  V30 11202 O 1054.89 -0.0166672 1.82492 0
M  V30 11203 C 1054.94 3.41413 1.18826 0
M  V30 11204 O 1054.66 4.37733 0.179261 0
M  V30 11205 C 1056.16 3.98602 1.93989 0
M  V30 11206 H 1053.38 0.654543 0.147695 0
M  V30 11207 H 1055.92 2.03557 -0.196163 0
M  V30 11208 H 1054.08 3.38115 1.89096 0
M  V30 11209 H 1054.49 5.20606 0.637935 0
M  V30 11210 H 1055.97 5.00143 2.33584 0
M  V30 11211 H 1056.44 3.37349 2.81233 0
M  V30 11212 H 1057.05 4.05424 1.28497 0
M  V30 11213 N 1055.36 -0.161842 1.56767 0
M  V30 11214 C 1056.3 -1.22499 1.93718 0
M  V30 11215 C 1057.31 -1.39975 0.831314 0
M  V30 11216 O 1058.5 -1.3981 1.10975 0
M  V30 11217 C 1055.6 -2.59222 2.18306 0
M  V30 11218 C 1054.77 -2.6292 3.4956 0
M  V30 11219 C 1053.83 -3.81074 3.62863 0
M  V30 11220 O 1052.86 -3.66633 4.35395 0
M  V30 11221 N 1054.06 -4.97923 2.98418 0
M  V30 11222 H 1056.82 -0.911043 2.85517 0
M  V30 11223 H 1054.38 -0.351533 1.58038 0
M  V30 11224 H 1056.38 -3.36749 2.24461 0
M  V30 11225 H 1054.95 -2.82969 1.32844 0
M  V30 11226 H 1054.17 -1.71418 3.54978 0
M  V30 11227 H 1055.45 -2.62409 4.35911 0
M  V30 11228 H 1054.85 -5.12557 2.39378 0
M  V30 11229 H 1053.41 -5.73277 3.10155 0
M  V30 11230 N 1056.84 -1.516 -0.430713 0
M  V30 11231 C 1058.09 -1.6484 -1.18134 0
M  V30 11232 C 1058.42 -0.366725 -1.90706 0
M  V30 11233 O 1057.7 0.63398 -1.83878 0
M  V30 11234 C 1057.98 -2.85617 -2.19306 0
M  V30 11235 C 1057.83 -4.23778 -1.50773 0
M  V30 11236 C 1059.15 -3.01909 -3.20217 0
M  V30 11237 H 1056.27 -0.599907 -0.428113 0
M  V30 11238 H 1058.91 -1.84102 -0.46973 0
M  V30 11239 H 1057.06 -2.69325 -2.79993 0
M  V30 11240 H 1058.73 -4.51752 -0.93371 0
M  V30 11241 H 1056.98 -4.26171 -0.809966 0
M  V30 11242 H 1057.65 -5.04291 -2.24487 0
M  V30 11243 H 1060.12 -3.16956 -2.69589 0
M  V30 11244 H 1059 -3.87968 -3.88293 0
M  V30 11245 H 1059.26 -2.1427 -3.86705 0
M  V30 11246 N 1058.32 0.686584 -1.41858 0
M  V30 11247 C 1059.73 1.26682 -1.37145 0
M  V30 11248 C 1060.08 1.96112 -0.058922 0
M  V30 11249 O 1059.21 1.99321 0.842629 0
M  V30 11250 C 1059.8 2.30383 -2.48413 0
M  V30 11251 C 1058.36 2.83961 -2.47069 0
M  V30 11252 C 1057.51 1.58119 -2.27802 0
M  V30 11253 H 1060.46 0.480742 -1.51243 0
M  V30 11254 H 1060.48 3.11868 -2.17987 0
M  V30 11255 H 1059.99 1.79822 -3.43927 0
M  V30 11256 H 1058.09 3.38675 -1.55338 0
M  V30 11257 H 1058.21 3.3378 -3.43697 0
M  V30 11258 H 1056.57 1.84258 -1.75844 0
M  V30 11259 H 1057.35 1.09541 -3.25355 0
M  V30 11260 N 1059.8 1.27835 0.921735 0
M  V30 11261 C 1061.05 1.13904 1.6646 0
M  V30 11262 C 1061.36 -0.313379 1.93073 0
M  V30 11263 O 1062.57 -0.573687 2.6537 0
M  V30 11264 C 1061.02 1.99064 2.99836 0
M  V30 11265 C 1060.63 3.48998 2.80899 0
M  V30 11266 C 1062.37 1.93797 3.77681 0
M  V30 11267 C 1060.28 4.26337 4.09867 0
M  V30 11268 H 1059.21 0.422681 0.624385 0
M  V30 11269 H 1061.86 1.52303 1.02352 0
M  V30 11270 H 1060.24 1.53514 3.65034 0
M  V30 11271 H 1061.42 4.02452 2.24431 0
M  V30 11272 H 1059.73 3.55707 2.16476 0
M  V30 11273 H 1062.33 2.48852 4.73262 0
M  V30 11274 H 1062.67 0.912928 4.06167 0
M  V30 11275 H 1063.21 2.37275 3.19289 0
M  V30 11276 H 1059.94 5.2939 3.86557 0
M  V30 11277 H 1059.46 3.77659 4.65976 0
M  V30 11278 H 1061.14 4.3583 4.78185 0
M  V30 11279 N 1061.28 -1.12907 1.09954 0
M  V30 11280 C 1062.5 -1.88679 0.861099 0
M  V30 11281 C 1062.93 -1.78853 -0.582499 0
M  V30 11282 O 1062.28 -1.13992 -1.4098 0
M  V30 11283 C 1062.33 -3.36047 1.30785 0
M  V30 11284 O 1061.44 -4.09716 0.469728 0
M  V30 11285 H 1060.78 -0.586447 0.31141 0
M  V30 11286 H 1063.31 -1.42818 1.46507 0
M  V30 11287 H 1063.32 -3.86882 1.29562 0
M  V30 11288 H 1061.99 -3.42516 2.35914 0
M  V30 11289 H 1060.57 -3.6887 0.54674 0
M  V30 11290 N 1062.75 -0.88754 -1.30232 0
M  V30 11291 C 1063.69 -0.313488 -2.27046 0
M  V30 11292 C 1064.7 0.533383 -1.53814 0
M  V30 11293 O 1065.89 0.352516 -1.74984 0
M  V30 11294 C 1062.99 0.572674 -3.34026 0
M  V30 11295 C 1062.16 -0.245712 -4.36709 0
M  V30 11296 C 1061.22 0.57135 -5.23089 0
M  V30 11297 O 1060.25 -0.00685948 -5.692 0
M  V30 11298 N 1061.45 1.87994 -5.49216 0
M  V30 11299 H 1064.21 -1.14553 -2.76943 0
M  V30 11300 H 1061.77 -0.750785 -1.43439 0
M  V30 11301 H 1063.77 1.12539 -3.88738 0
M  V30 11302 H 1062.34 1.3054 -2.84039 0
M  V30 11303 H 1061.56 -0.979869 -3.81827 0
M  V30 11304 H 1062.84 -0.806618 -5.02366 0
M  V30 11305 H 1062.24 2.3726 -5.13541 0
M  V30 11306 H 1060.8 2.38005 -6.06792 0
M  V30 11307 N 1064.23 1.43628 -0.648757 0
M  V30 11308 C 1065.46 2.06732 -0.166284 0
M  V30 11309 C 1065.88 1.48281 1.15734 0
M  V30 11310 O 1065.24 0.591018 1.71396 0
M  V30 11311 C 1065.29 3.60502 -0.0838732 0
M  V30 11312 O 1064.39 4.01186 0.955185 0
M  V30 11313 H 1063.73 0.657479 -0.0928285 0
M  V30 11314 H 1066.26 1.84208 -0.890421 0
M  V30 11315 H 1066.27 4.07875 0.100923 0
M  V30 11316 H 1064.95 4.02424 -1.05014 0
M  V30 11317 H 1063.53 3.65412 0.743537 0
M  V30 11318 N 1065.71 0.390394 1.52688 0
M  V30 11319 C 1066.99 -0.249068 1.94008 0
M  V30 11320 C 1067.37 -1.64263 1.32593 0
M  V30 11321 O 1066.72 -2.23086 0.494448 0
M  V30 11322 C 1066.93 -0.274318 3.4792 0
M  V30 11323 C 1068.27 -0.502743 4.21613 0
M  V30 11324 O 1069.3 -0.35448 3.54432 0
M  V30 11325 O 1068.16 -0.79334 5.40711 0
M  V30 11326 H 1065.25 -0.155116 0.812323 0
M  V30 11327 H 1067.8 0.44498 1.63762 0
M  V30 11328 H 1066.57 0.701766 3.84956 0
M  V30 11329 H 1066.19 -1.01324 3.84473 0
M  V30 11330 N 1067.19 -1.57141 0.120249 0
M  V30 11331 C 1068.44 -1.94852 -0.536387 0
M  V30 11332 C 1068.76 -1.00452 -1.67136 0
M  V30 11333 O 1068.03 -0.061053 -1.95805 0
M  V30 11334 H 1066.61 -0.719411 -0.201138 0
M  V30 11335 H 1069.27 -1.93977 0.189482 0
M  V30 11336 H 1068.37 -2.97917 -0.930145 0
M  V30 11337 N 1068.67 0.153526 -1.5685 0
M  V30 11338 C 1069.89 0.886343 -1.87507 0
M  V30 11339 C 1070.32 1.74244 -0.708565 0
M  V30 11340 O 1069.67 1.78045 0.341997 0
M  V30 11341 C 1069.72 1.72428 -3.16703 0
M  V30 11342 O 1068.83 2.82784 -3.00178 0
M  V30 11343 H 1068.17 0.247259 -0.616246 0
M  V30 11344 H 1070.7 0.146306 -2.04076 0
M  V30 11345 H 1070.71 2.12062 -3.4856 0
M  V30 11346 H 1069.38 1.09558 -4.01211 0
M  V30 11347 H 1067.96 2.46604 -2.79716 0
M  V30 11348 N 1070.14 1.51827 0.422667 0
M  V30 11349 C 1071.11 1.7359 1.49663 0
M  V30 11350 C 1072.11 0.605811 1.48952 0
M  V30 11351 O 1073.3 0.87354 1.50715 0
M  V30 11352 C 1070.43 1.80585 2.8914 0
M  V30 11353 H 1071.62 2.69453 1.31664 0
M  V30 11354 H 1069.18 1.42038 0.652298 0
M  V30 11355 H 1069.91 0.865895 3.12526 0
M  V30 11356 H 1069.7 2.62729 2.9106 0
M  V30 11357 H 1071.19 1.99212 3.67021 0
M  V30 11358 N 1071.62 -0.679052 1.4222 0
M  V30 11359 C 1072.87 -1.44125 1.42674 0
M  V30 11360 C 1073.2 -1.94156 0.041438 0
M  V30 11361 O 1072.48 -1.70628 -0.93361 0
M  V30 11362 C 1072.76 -2.64133 2.44756 0
M  V30 11363 C 1072.61 -2.19761 3.9246 0
M  V30 11364 C 1073.93 -3.66347 2.43881 0
M  V30 11365 H 1071.05 -0.522729 0.519541 0
M  V30 11366 H 1073.69 -0.772067 1.73606 0
M  V30 11367 H 1071.84 -3.21225 2.1851 0
M  V30 11368 H 1073.51 -1.67869 4.29671 0
M  V30 11369 H 1071.76 -1.51377 4.06531 0
M  V30 11370 H 1072.43 -3.05944 4.59459 0
M  V30 11371 H 1074.9 -3.18963 2.67211 0
M  V30 11372 H 1073.78 -4.47902 3.17293 0
M  V30 11373 H 1074.04 -4.17183 1.46325 0
M  V30 11374 N 1073.1 -1.28322 -0.914942 0
M  V30 11375 C 1074.06 -1.12169 -1.99877 0
M  V30 11376 C 1075.06 -0.0617252 -1.60681 0
M  V30 11377 O 1076.25 -0.307405 -1.71466 0
M  V30 11378 C 1073.39 -0.711959 -3.33383 0
M  V30 11379 H 1074.58 -2.08425 -2.15636 0
M  V30 11380 H 1072.13 -1.11291 -1.09745 0
M  V30 11381 H 1072.87 0.251418 -3.23324 0
M  V30 11382 H 1072.65 -1.47764 -3.63192 0
M  V30 11383 H 1074.14 -0.621558 -4.12948 0
M  V30 11384 N 1074.58 1.12322 -1.10551 0
M  V30 11385 C 1075.54 2.16273 -0.758844 0
M  V30 11386 C 1076.54 1.59325 0.217294 0
M  V30 11387 O 1077.73 1.74199 -0.00601346 0
M  V30 11388 C 1074.86 3.40674 -0.124238 0
M  V30 11389 H 1076.06 2.48454 -1.6796 0
M  V30 11390 H 1073.61 1.2735 -0.906188 0
M  V30 11391 H 1074.34 3.14094 0.807194 0
M  V30 11392 H 1074.13 3.83284 -0.826772 0
M  V30 11393 H 1075.62 4.17474 0.102502 0
M  V30 11394 N 1076.06 0.894434 1.2976 0
M  V30 11395 C 1077.28 0.532916 1.99919 0
M  V30 11396 C 1077.7 -0.881022 1.66983 0
M  V30 11397 O 1077.06 -1.58076 0.912035 0
M  V30 11398 C 1077.11 0.70936 3.54472 0
M  V30 11399 O 1076.83 2.06764 3.86239 0
M  V30 11400 C 1078.33 0.352089 4.419 0
M  V30 11401 H 1075.55 0.205019 0.638912 0
M  V30 11402 H 1078.09 1.20233 1.65421 0
M  V30 11403 H 1076.25 0.0871901 3.87302 0
M  V30 11404 H 1076.66 2.09315 4.80924 0
M  V30 11405 H 1078.14 0.526405 5.49484 0
M  V30 11406 H 1078.61 -0.710527 4.33415 0
M  V30 11407 H 1079.22 0.950979 4.14532 0
M  V30 11408 N 1077.53 -1.43282 0.656365 0
M  V30 11409 C 1078.48 -2.32556 -0.0452037 0
M  V30 11410 C 1079.48 -1.48789 -0.80982 0
M  V30 11411 O 1080.68 -1.64979 -0.719865 0
M  V30 11412 H 1077.06 -0.751258 -0.0334043 0
M  V30 11413 H 1079.03 -2.89448 0.725423 0
M  V30 11414 C 1077.78 -3.33138 -0.995706 0
M  V30 11415 H 1077.1 -3.97622 -0.416774 0
M  V30 11416 H 1078.54 -3.98231 -1.45562 0
M  V30 11417 C 1077 -2.63978 -2.09325 0
M  V30 11418 O 1077.53 -2.45769 -3.17743 0
M  V30 11419 N 1075.74 -2.23301 -1.8597 0
M  V30 11420 H 1075.28 -2.38312 -0.97802 0
M  V30 11421 H 1075.24 -1.77358 -2.59599 0
M  V30 11422 N 1079.01 -0.398486 -1.52479 0
M  V30 11423 C 1080.24 0.180557 -2.06111 0
M  V30 11424 C 1080.66 1.39751 -1.26945 0
M  V30 11425 O 1080.01 1.79699 -0.318497 0
M  V30 11426 C 1080.06 0.541573 -3.5742 0
M  V30 11427 O 1079.79 -0.627043 -4.33589 0
M  V30 11428 C 1081.29 1.17549 -4.27431 0
M  V30 11429 H 1078.51 0.0250754 -0.670531 0
M  V30 11430 H 1081.05 -0.566368 -1.96501 0
M  V30 11431 H 1079.21 1.23839 -3.67073 0
M  V30 11432 H 1079.62 -0.328233 -5.23472 0
M  V30 11433 H 1081.09 1.37839 -5.34513 0
M  V30 11434 H 1081.57 2.14553 -3.83228 0
M  V30 11435 H 1082.18 0.51918 -4.22119 0
M  V30 11436 N 1080.49 1.57075 -0.12858 0
M  V30 11437 C 1081.74 1.94695 0.526952 0
M  V30 11438 C 1082.05 1.01482 1.67215 0
M  V30 11439 O 1083.26 1.28606 2.39108 0
M  V30 11440 C 1081.72 3.4605 0.988801 0
M  V30 11441 C 1081.32 4.47816 -0.128457 0
M  V30 11442 C 1083.07 3.92572 1.61517 0
M  V30 11443 C 1080.97 5.9036 0.350628 0
M  V30 11444 H 1079.9 0.726819 0.200623 0
M  V30 11445 H 1082.56 1.82295 -0.209972 0
M  V30 11446 H 1080.94 3.53718 1.78043 0
M  V30 11447 H 1082.11 4.51826 -0.904976 0
M  V30 11448 H 1080.43 4.11103 -0.662075 0
M  V30 11449 H 1083.02 4.96493 1.98491 0
M  V30 11450 H 1083.37 3.33085 2.49721 0
M  V30 11451 H 1083.9 3.87744 0.888768 0
M  V30 11452 H 1080.64 6.53624 -0.495592 0
M  V30 11453 H 1080.16 5.89749 1.09342 0
M  V30 11454 H 1081.84 6.41926 0.808717 0
M  V30 11455 N 1081.97 -0.145205 1.5693 0
M  V30 11456 C 1082.93 -1.16316 1.97492 0
M  V30 11457 C 1083.93 -1.35764 0.861668 0
M  V30 11458 O 1085.12 -1.32726 1.12825 0
M  V30 11459 C 1082.25 -2.52311 2.29242 0
M  V30 11460 H 1083.45 -0.815138 2.8861 0
M  V30 11461 H 1081 -0.38861 1.51392 0
M  V30 11462 H 1081.74 -2.92081 1.40922 0
M  V30 11463 H 1081.52 -2.39555 3.10412 0
M  V30 11464 H 1083.01 -3.25624 2.61456 0
M  V30 11465 N 1083.45 -1.52049 -0.414609 0
M  V30 11466 C 1084.4 -1.75603 -1.52533 0
M  V30 11467 C 1085.39 -0.622965 -1.57529 0
M  V30 11468 O 1086.6 -0.804886 -1.61002 0
M  V30 11469 H 1082.97 -0.555222 -0.507181 0
M  V30 11470 H 1084.94 -2.68666 -1.2985 0
M  V30 11471 C 1083.69 -1.9188 -2.89961 0
M  V30 11472 H 1083.01 -2.78483 -2.86857 0
M  V30 11473 H 1084.45 -2.12363 -3.66985 0
M  V30 11474 C 1082.91 -0.684453 -3.29874 0
M  V30 11475 O 1083.44 0.150256 -4.01419 0
M  V30 11476 N 1081.65 -0.521936 -2.85874 0
M  V30 11477 H 1081.2 -1.20229 -2.27822 0
M  V30 11478 H 1081.15 0.302655 -3.1294 0
M  V30 11479 N 1084.93 0.6715 -1.42579 0
M  V30 11480 C 1085.86 1.79703 -1.42266 0
M  V30 11481 C 1086.87 1.59599 -0.321268 0
M  V30 11482 O 1088.06 1.68657 -0.584564 0
M  V30 11483 C 1085.16 3.16859 -1.20224 0
M  V30 11484 C 1084.33 3.63783 -2.42859 0
M  V30 11485 C 1083.39 4.79683 -2.16312 0
M  V30 11486 O 1082.42 4.90058 -2.89537 0
M  V30 11487 N 1083.62 5.68622 -1.16831 0
M  V30 11488 H 1086.38 1.80455 -2.39282 0
M  V30 11489 H 1083.95 0.854708 -1.375 0
M  V30 11490 H 1085.94 3.92054 -1.00376 0
M  V30 11491 H 1084.51 3.10987 -0.317188 0
M  V30 11492 H 1083.73 2.7923 -2.78252 0
M  V30 11493 H 1085.02 3.91877 -3.24514 0
M  V30 11494 H 1084.41 5.62894 -0.562746 0
M  V30 11495 H 1082.97 6.43615 -1.0297 0
M  V30 11496 N 1086.4 1.28806 0.908124 0
M  V30 11497 C 1087.65 1.15663 1.65242 0
M  V30 11498 C 1087.97 -0.292883 1.93395 0
M  V30 11499 O 1089.17 -0.545509 2.65963 0
M  V30 11500 C 1087.63 2.02233 2.97707 0
M  V30 11501 C 1087.24 3.51958 2.77181 0
M  V30 11502 C 1088.98 1.97792 3.75604 0
M  V30 11503 C 1086.89 4.3066 4.05322 0
M  V30 11504 H 1085.82 0.42928 0.619867 0
M  V30 11505 H 1088.47 1.5338 1.00731 0
M  V30 11506 H 1086.85 1.57377 3.63385 0
M  V30 11507 H 1088.02 4.0481 2.20149 0
M  V30 11508 H 1086.34 3.57983 2.12691 0
M  V30 11509 H 1088.94 2.53858 4.70596 0
M  V30 11510 H 1089.28 0.955956 4.05175 0
M  V30 11511 H 1089.81 2.40648 3.16755 0
M  V30 11512 H 1086.55 5.3346 3.8092 0
M  V30 11513 H 1086.07 3.8258 4.61944 0
M  V30 11514 H 1087.75 4.40878 4.73535 0
M  V30 11515 N 1087.88 -1.11734 1.11145 0
M  V30 11516 C 1088.83 -2.19765 0.761982 0
M  V30 11517 C 1089.82 -1.67616 -0.24518 0
M  V30 11518 O 1091.03 -1.79695 -0.104781 0
M  V30 11519 H 1087.4 -0.71644 0.228513 0
M  V30 11520 H 1089.38 -2.4649 1.68183 0
M  V30 11521 C 1088.12 -3.47016 0.218057 0
M  V30 11522 H 1087.45 -3.87494 0.984299 0
M  V30 11523 H 1088.89 -4.23998 0.0116825 0
M  V30 11524 C 1087.35 -3.20088 -1.05096 0
M  V30 11525 O 1087.88 -3.40503 -2.1312 0
M  V30 11526 N 1086.08 -2.73844 -0.972523 0
M  V30 11527 H 1085.63 -2.57431 -0.0933459 0
M  V30 11528 H 1085.59 -2.56204 -1.82228 0
M  V30 11529 N 1089.36 -0.901303 -1.29284 0
M  V30 11530 C 1090.59 -0.543511 -1.99634 0
M  V30 11531 C 1091 0.872154 -1.67448 0
M  V30 11532 O 1090.36 1.57591 -0.920406 0
M  V30 11533 C 1090.41 -0.728148 -3.54091 0
M  V30 11534 O 1090.13 -2.08809 -3.85137 0
M  V30 11535 C 1091.63 -0.375519 -4.41707 0
M  V30 11536 H 1088.85 -0.208405 -0.637815 0
M  V30 11537 H 1091.4 -1.21109 -1.64781 0
M  V30 11538 H 1089.55 -0.107728 -3.8725 0
M  V30 11539 H 1089.97 -2.11863 -4.79807 0
M  V30 11540 H 1091.44 -0.555538 -5.49197 0
M  V30 11541 H 1091.92 0.687532 -4.33785 0
M  V30 11542 H 1092.52 -0.972949 -4.14021 0
M  V30 11543 N 1090.84 1.42931 -0.663954 0
M  V30 11544 C 1091.8 2.29197 0.0117626 0
M  V30 11545 C 1092.8 1.42767 0.739875 0
M  V30 11546 O 1093.99 1.64278 0.579509 0
M  V30 11547 C 1091.12 3.2505 1.02738 0
M  V30 11548 H 1092.32 2.90438 -0.747391 0
M  V30 11549 H 1089.87 1.5039 -0.425733 0
M  V30 11550 H 1090.6 2.68726 1.8154 0
M  V30 11551 H 1090.39 3.88785 0.508809 0
M  V30 11552 H 1091.88 3.89771 1.49893 0
M  V30 11553 N 1092.32 0.406567 1.52266 0
M  V30 11554 C 1093.73 -0.063607 1.86592 0
M  V30 11555 C 1094.08 -1.4466 1.32544 0
M  V30 11556 O 1093.2 -2.05971 0.663692 0
M  V30 11557 C 1093.8 -0.122198 3.3858 0
M  V30 11558 C 1092.36 -0.536701 3.72554 0
M  V30 11559 C 1091.5 0.290422 2.75775 0
M  V30 11560 H 1094.45 0.623738 1.45929 0
M  V30 11561 H 1094.48 -0.937964 3.68758 0
M  V30 11562 H 1093.99 0.884495 3.77887 0
M  V30 11563 H 1092.09 -1.55013 3.38824 0
M  V30 11564 H 1092.2 -0.282867 4.78264 0
M  V30 11565 H 1090.57 -0.246864 2.53501 0
M  V30 11566 H 1091.35 1.29541 3.17921 0
M  V30 11567 N 1093.79 -1.57004 0.136909 0
M  V30 11568 C 1094.74 -2.16246 -0.806607 0
M  V30 11569 C 1095.71 -1.09246 -1.25118 0
M  V30 11570 O 1096.9 -1.3724 -1.32551 0
M  V30 11571 C 1094.04 -2.78031 -2.04433 0
M  V30 11572 C 1093.15 -3.99393 -1.64649 0
M  V30 11573 C 1092.28 -4.49208 -2.83524 0
M  V30 11574 C 1091.32 -5.63059 -2.40064 0
M  V30 11575 N 1090.46 -6.07537 -3.51913 0
M  V30 11576 H 1095.3 -2.9654 -0.294596 0
M  V30 11577 H 1092.84 -1.46491 -0.133705 0
M  V30 11578 H 1094.8 -3.11992 -2.76978 0
M  V30 11579 H 1093.43 -2.00398 -2.53062 0
M  V30 11580 H 1092.48 -3.71477 -0.819077 0
M  V30 11581 H 1093.79 -4.81904 -1.28723 0
M  V30 11582 H 1092.94 -4.85171 -3.64271 0
M  V30 11583 H 1091.68 -3.65683 -3.22688 0
M  V30 11584 H 1090.69 -5.26682 -1.57754 0
M  V30 11585 H 1091.91 -6.48362 -2.01997 0
M  V30 11586 H 1089.86 -5.2695 -3.90717 0
M  V30 11587 H 1089.78 -6.84949 -3.1997 0
M  V30 11588 H 1091.04 -6.48143 -4.33048 0
M  V30 11589 N 1095.27 0.136881 -1.57004 0
M  V30 11590 C 1096.68 0.695911 -1.73245 0
M  V30 11591 C 1097.03 1.8118 -0.75288 0
M  V30 11592 O 1096.16 2.16258 0.0782477 0
M  V30 11593 C 1096.75 1.26914 -3.14131 0
M  V30 11594 C 1095.31 1.77463 -3.31939 0
M  V30 11595 C 1094.46 0.667128 -2.69156 0
M  V30 11596 H 1097.41 -0.0888841 -1.58451 0
M  V30 11597 H 1097.43 2.13892 -3.14691 0
M  V30 11598 H 1096.94 0.456754 -3.85403 0
M  V30 11599 H 1095.05 2.61236 -2.65681 0
M  V30 11600 H 1095.16 1.89638 -4.39971 0
M  V30 11601 H 1093.52 1.09629 -2.29899 0
M  V30 11602 H 1094.31 -0.13398 -3.43038 0
M  V30 11603 N 1096.75 1.52266 0.40654 0
M  V30 11604 C 1097.71 1.75168 1.47814 0
M  V30 11605 C 1098.71 0.621575 1.48301 0
M  V30 11606 O 1099.9 0.889476 1.4978 0
M  V30 11607 C 1097.04 1.83642 2.87208 0
M  V30 11608 H 1098.23 2.70834 1.28798 0
M  V30 11609 H 1095.78 1.42722 0.637196 0
M  V30 11610 H 1096.52 0.898994 3.1159 0
M  V30 11611 H 1096.3 2.65801 2.88257 0
M  V30 11612 H 1097.79 2.03093 3.64888 0
M  V30 11613 N 1098.23 -0.663929 1.42933 0
M  V30 11614 C 1099.19 -1.75899 1.46943 0
M  V30 11615 C 1100.19 -1.5682 0.355535 0
M  V30 11616 O 1101.38 -1.62914 0.616833 0
M  V30 11617 C 1098.51 -3.14657 1.31164 0
M  V30 11618 H 1099.71 -1.73727 2.44456 0
M  V30 11619 H 1097.26 -0.874587 1.2954 0
M  V30 11620 H 1097.99 -3.22447 0.346165 0
M  V30 11621 H 1097.78 -3.29909 2.11902 0
M  V30 11622 H 1099.27 -3.9453 1.36878 0
M  V30 11623 N 1099.71 -1.29285 -0.901281 0
M  V30 11624 C 1101.12 -1.15499 -1.46686 0
M  V30 11625 C 1101.47 0.250446 -1.94595 0
M  V30 11626 O 1100.59 1.14581 -1.83576 0
M  V30 11627 C 1101.19 -2.0906 -2.66607 0
M  V30 11628 C 1099.75 -1.99301 -3.19306 0
M  V30 11629 C 1098.89 -2.00079 -1.91999 0
M  V30 11630 H 1101.85 -1.41793 -0.712773 0
M  V30 11631 H 1101.87 -1.6619 -3.42288 0
M  V30 11632 H 1101.38 -3.11341 -2.31707 0
M  V30 11633 H 1099.48 -1.00103 -3.58901 0
M  V30 11634 H 1099.59 -2.86885 -3.8371 0
M  V30 11635 H 1097.96 -1.44655 -2.09636 0
M  V30 11636 H 1098.74 -3.04061 -1.59379 0
M  V30 11637 N 1101.18 1.11143 -1.11736 0
M  V30 11638 C 1102.41 1.86745 -0.890727 0
M  V30 11639 C 1102.83 1.80315 0.55964 0
M  V30 11640 O 1102.18 1.18663 1.38656 0
M  V30 11641 C 1102.24 3.35436 -1.34779 0
M  V30 11642 O 1101.96 3.41738 -2.74129 0
M  V30 11643 C 1103.46 4.27935 -1.15702 0
M  V30 11644 H 1100.68 0.59044 -0.318781 0
M  V30 11645 H 1103.22 1.40549 -1.48547 0
M  V30 11646 H 1101.38 3.79125 -0.796425 0
M  V30 11647 H 1101.79 4.34347 -2.94012 0
M  V30 11648 H 1103.26 5.30494 -1.52579 0
M  V30 11649 H 1103.74 4.39093 -0.0968735 0
M  V30 11650 H 1104.35 3.90042 -1.69551 0
M  V30 11651 N 1102.66 0.908147 1.28804 0
M  V30 11652 C 1103.89 0.55409 1.99343 0
M  V30 11653 C 1104.31 -0.863262 1.67908 0
M  V30 11654 O 1103.66 -1.571 0.92875 0
M  V30 11655 C 1103.71 0.746916 3.537 0
M  V30 11656 O 1103.43 2.10849 3.84024 0
M  V30 11657 C 1104.94 0.398939 4.41501 0
M  V30 11658 H 1102.16 0.211784 0.636701 0
M  V30 11659 H 1104.7 1.21981 1.64137 0
M  V30 11660 H 1102.85 0.128264 3.87188 0
M  V30 11661 H 1103.27 2.14404 4.78676 0
M  V30 11662 H 1104.74 0.584656 5.48895 0
M  V30 11663 H 1105.22 -0.664517 4.34144 0
M  V30 11664 H 1105.83 0.994892 4.135 0
M  V30 11665 N 1104.14 -1.42577 0.671525 0
M  V30 11666 C 1105.07 -2.33499 0.00506984 0
M  V30 11667 C 1106.05 -1.50497 -0.792763 0
M  V30 11668 O 1107.24 -1.79109 -0.750574 0
M  V30 11669 C 1104.37 -3.34077 -0.949194 0
M  V30 11670 C 1103.32 -4.27208 -0.260187 0
M  V30 11671 C 1102.65 -5.17968 -1.32716 0
M  V30 11672 C 1103.95 -5.15192 0.858772 0
M  V30 11673 H 1105.64 -2.89477 0.764407 0
M  V30 11674 H 1103.19 -1.39191 0.369043 0
M  V30 11675 H 1105.14 -3.96594 -1.42448 0
M  V30 11676 H 1103.86 -2.76396 -1.73991 0
M  V30 11677 H 1102.52 -3.66082 0.194834 0
M  V30 11678 H 1102.17 -4.56615 -2.10979 0
M  V30 11679 H 1101.87 -5.81104 -0.871293 0
M  V30 11680 H 1103.39 -5.83359 -1.80345 0
M  V30 11681 H 1104.81 -5.71412 0.464844 0
M  V30 11682 H 1103.21 -5.87144 1.24023 0
M  V30 11683 H 1104.28 -4.53787 1.70895 0
M  V30 11684 N 1105.62 -0.414636 -1.52048 0
M  V30 11685 C 1106.55 0.443601 -2.24866 0
M  V30 11686 C 1107.56 1.00556 -1.28032 0
M  V30 11687 O 1108.75 0.903566 -1.53941 0
M  V30 11688 C 1105.85 1.63004 -2.97124 0
M  V30 11689 C 1105.03 1.191 -4.20873 0
M  V30 11690 C 1104.08 2.24497 -4.75907 0
M  V30 11691 O 1103.11 1.84861 -5.38345 0
M  V30 11692 N 1104.31 3.56727 -4.57959 0
M  V30 11693 H 1107.08 -0.180393 -2.99157 0
M  V30 11694 H 1104.64 -0.242305 -1.60077 0
M  V30 11695 H 1106.63 2.33089 -3.30835 0
M  V30 11696 H 1105.2 2.15984 -2.25986 0
M  V30 11697 H 1104.42 0.318059 -3.92915 0
M  V30 11698 H 1105.71 0.874699 -5.01225 0
M  V30 11699 H 1105.11 3.91675 -4.08175 0
M  V30 11700 H 1103.66 4.22772 -4.96092 0
M  V30 11701 N 1107.1 1.56929 -0.145233 0
M  V30 11702 C 1108.35 1.95243 0.506273 0
M  V30 11703 C 1108.66 1.0325 1.66129 0
M  V30 11704 O 1109.86 1.31135 2.37731 0
M  V30 11705 C 1108.32 3.47079 0.952042 0
M  V30 11706 C 1107.93 4.47654 -0.175947 0
M  V30 11707 C 1109.67 3.94263 1.57344 0
M  V30 11708 C 1107.58 5.90698 0.287993 0
M  V30 11709 H 1106.51 0.728906 0.192903 0
M  V30 11710 H 1109.16 1.82062 -0.229295 0
M  V30 11711 H 1107.54 3.55587 1.74282 0
M  V30 11712 H 1108.72 4.50841 -0.952848 0
M  V30 11713 H 1107.03 4.10377 -0.70564 0
M  V30 11714 H 1109.63 4.9857 1.93214 0
M  V30 11715 H 1109.97 3.35714 2.46174 0
M  V30 11716 H 1110.5 3.88665 0.847593 0
M  V30 11717 H 1107.24 6.53061 -0.564889 0
M  V30 11718 H 1106.76 5.90876 1.03081 0
M  V30 11719 H 1108.44 6.42747 0.740586 0
M  V30 11720 N 1108.58 -0.128553 1.57075 0
M  V30 11721 C 1109.99 -0.686713 1.73612 0
M  V30 11722 C 1110.34 -1.80778 0.762478 0
M  V30 11723 O 1109.46 -2.16297 -0.0667779 0
M  V30 11724 C 1110.06 -1.25246 3.148 0
M  V30 11725 C 1108.62 -1.757 3.32876 0
M  V30 11726 C 1107.76 -0.652844 2.69506 0
M  V30 11727 H 1110.71 0.0972859 1.58402 0
M  V30 11728 H 1110.74 -2.1222 3.15821 0
M  V30 11729 H 1110.25 -0.436308 3.8564 0
M  V30 11730 H 1108.35 -2.59824 2.67063 0
M  V30 11731 H 1108.46 -1.87302 4.4097 0
M  V30 11732 H 1106.83 -1.08408 2.30477 0
M  V30 11733 H 1107.61 0.15217 3.42963 0
M  V30 11734 N 1110.05 -1.5248 -0.398459 0
M  V30 11735 C 1111.46 -1.59107 -0.976817 0
M  V30 11736 C 1111.82 -0.438104 -1.91246 0
M  V30 11737 O 1110.94 0.440111 -2.11877 0
M  V30 11738 C 1111.54 -2.88373 -1.77838 0
M  V30 11739 C 1110.09 -2.97445 -2.30659 0
M  V30 11740 C 1109.24 -2.5414 -1.10942 0
M  V30 11741 H 1112.19 -1.57695 -0.178324 0
M  V30 11742 H 1112.21 -2.74327 -2.63676 0
M  V30 11743 H 1111.73 -3.72269 -1.09714 0
M  V30 11744 H 1109.83 -2.18066 -3.02123 0
M  V30 11745 H 1109.94 -4.019 -2.60794 0
M  V30 11746 H 1108.3 -2.08237 -1.46661 0
M  V30 11747 H 1109.09 -3.40421 -0.443684 0
M  V30 11748 N 1111.53 0.65634 -1.43283 0
M  V30 11749 C 1112.94 1.23744 -1.39801 0
M  V30 11750 C 1113.29 1.95942 -0.100507 0
M  V30 11751 O 1112.42 2.01063 0.800161 0
M  V30 11752 C 1113.01 2.25062 -2.53244 0
M  V30 11753 C 1111.57 2.78657 -2.53036 0
M  V30 11754 C 1110.72 1.53251 -2.31105 0
M  V30 11755 H 1113.67 0.448553 -1.52229 0
M  V30 11756 H 1113.69 3.07174 -2.24553 0
M  V30 11757 H 1113.2 1.72487 -3.47664 0
M  V30 11758 H 1111.3 3.35304 -1.62487 0
M  V30 11759 H 1111.42 3.26414 -3.507 0
M  V30 11760 H 1109.78 1.80487 -1.79713 0
M  V30 11761 H 1110.56 1.02615 -3.27605 0
M  V30 11762 N 1113.01 1.29761 0.894412 0
M  V30 11763 C 1113.94 1.17902 2.01547 0
M  V30 11764 C 1114.92 0.0719402 1.69948 0
M  V30 11765 O 1116.11 0.252338 1.92554 0
M  V30 11766 C 1113.24 0.860262 3.36477 0
M  V30 11767 C 1112.19 1.92424 3.82305 0
M  V30 11768 C 1111.52 1.45868 5.14419 0
M  V30 11769 C 1112.82 3.33391 4.02054 0
M  V30 11770 H 1114.51 2.11688 2.11727 0
M  V30 11771 H 1112.06 1.01916 1.01731 0
M  V30 11772 H 1114.01 0.763987 4.14417 0
M  V30 11773 H 1112.73 -0.113289 3.26403 0
M  V30 11774 H 1111.39 2.00999 3.06586 0
M  V30 11775 H 1111.04 0.473654 5.00765 0
M  V30 11776 H 1110.74 2.17028 5.46052 0
M  V30 11777 H 1112.26 1.37601 5.94894 0
M  V30 11778 H 1113.68 3.27628 4.7046 0
M  V30 11779 H 1112.07 4.02555 4.4505 0
M  V30 11780 H 1113.14 3.75978 3.06216 0
M  V30 11781 N 1114.49 -1.10549 1.12324 0
M  V30 11782 C 1115.9 -1.63991 0.892402 0
M  V30 11783 C 1116.25 -1.87631 -0.573506 0
M  V30 11784 O 1115.37 -1.6174 -1.43768 0
M  V30 11785 C 1115.97 -2.97914 1.61347 0
M  V30 11786 C 1114.53 -3.48227 1.42881 0
M  V30 11787 C 1113.68 -2.22857 1.65015 0
M  V30 11788 H 1116.63 -0.94065 1.27818 0
M  V30 11789 H 1116.65 -3.65326 1.06382 0
M  V30 11790 H 1116.16 -2.80677 2.68034 0
M  V30 11791 H 1114.26 -3.70611 0.384441 0
M  V30 11792 H 1114.37 -4.26419 2.18413 0
M  V30 11793 H 1112.74 -2.30941 1.07417 0
M  V30 11794 H 1113.52 -2.08152 2.72997 0
M  V30 11795 N 1115.97 -0.914965 -1.28321 0
M  V30 11796 C 1116.93 -0.409024 -2.25521 0
M  V30 11797 C 1117.93 0.465327 -1.5392 0
M  V30 11798 O 1119.12 0.26821 -1.72123 0
M  V30 11799 C 1116.25 0.413452 -3.38383 0
M  V30 11800 H 1117.44 -1.26767 -2.71791 0
M  V30 11801 H 1115 -0.694477 -1.40024 0
M  V30 11802 H 1115.73 1.29145 -2.97476 0
M  V30 11803 H 1115.52 -0.213268 -3.9152 0
M  V30 11804 H 1117.01 0.758232 -4.10659 0
M  V30 11805 N 1117.44 1.42219 -0.679077 0
M  V30 11806 C 1118.69 2.00703 -0.200309 0
M  V30 11807 C 1119.01 1.54339 1.20161 0
M  V30 11808 O 1120.21 2.0527 1.77698 0
M  V30 11809 C 1118.67 3.58586 -0.307248 0
M  V30 11810 C 1118.28 4.13937 -1.71349 0
M  V30 11811 C 1120.02 4.24351 0.112588 0
M  V30 11812 C 1117.93 5.64198 -1.77297 0
M  V30 11813 H 1116.86 0.750638 -0.0711279 0
M  V30 11814 H 1119.51 1.62893 -0.844881 0
M  V30 11815 H 1117.89 3.93921 0.40529 0
M  V30 11816 H 1119.06 3.90054 -2.45346 0
M  V30 11817 H 1117.38 3.60639 -2.08155 0
M  V30 11818 H 1119.98 5.34627 0.0883578 0
M  V30 11819 H 1120.32 4.00142 1.14857 0
M  V30 11820 H 1120.85 3.93992 -0.549093 0
M  V30 11821 H 1117.59 5.93211 -2.78892 0
M  V30 11822 H 1117.11 5.90058 -1.07662 0
M  V30 11823 H 1118.79 6.2869 -1.52835 0
M  V30 11824 N 1118.92 0.422693 1.51826 0
M  V30 11825 C 1119.87 -0.396088 2.27376 0
M  V30 11826 C 1120.84 -1.02946 1.30351 0
M  V30 11827 O 1122.02 -1.05116 1.59233 0
M  V30 11828 C 1119.16 -1.49942 3.10824 0
M  V30 11829 C 1118.28 -0.885623 4.22825 0
M  V30 11830 C 1117.41 -1.96278 4.93608 0
M  V30 11831 C 1116.45 -1.32664 5.97551 0
M  V30 11832 N 1115.59 -2.34452 6.61798 0
M  V30 11833 H 1120.43 0.254571 2.96911 0
M  V30 11834 H 1117.96 0.137383 1.46457 0
M  V30 11835 H 1119.92 -2.15023 3.57521 0
M  V30 11836 H 1118.55 -2.11991 2.43433 0
M  V30 11837 H 1117.6 -0.123491 3.80199 0
M  V30 11838 H 1118.92 -0.381057 4.97342 0
M  V30 11839 H 1118.07 -2.69055 5.43778 0
M  V30 11840 H 1116.81 -2.50103 4.18688 0
M  V30 11841 H 1115.81 -0.584262 5.46687 0
M  V30 11842 H 1117.04 -0.7959 6.7442 0
M  V30 11843 H 1114.99 -2.87385 5.897 0
M  V30 11844 H 1114.9 -1.88845 7.32034 0
M  V30 11845 H 1116.17 -3.06757 7.16603 0
M  V30 11846 N 1120.4 -1.5685 0.153553 0
M  V30 11847 C 1121.35 -2.13671 -0.795526 0
M  V30 11848 C 1122.33 -1.06624 -1.20499 0
M  V30 11849 O 1123.53 -1.32788 -1.17032 0
M  V30 11850 C 1120.65 -2.76704 -2.03199 0
M  V30 11851 C 1119.74 -3.90884 -1.64532 0
M  V30 11852 N 1120.13 -4.96466 -0.96723 0
M  V30 11853 C 1118.43 -4.01713 -1.93759 0
M  V30 11854 C 1119.13 -5.76453 -0.779527 0
M  V30 11855 N 1118.11 -5.27444 -1.31544 0
M  V30 11856 H 1121.91 -2.92673 -0.268288 0
M  V30 11857 H 1119.42 -1.6233 -0.0477596 0
M  V30 11858 H 1121.42 -3.15777 -2.72196 0
M  V30 11859 H 1120.08 -1.99177 -2.56434 0
M  V30 11860 H 1121.09 -5.14087 -0.627253 0
M  V30 11861 H 1117.77 -3.3527 -2.48797 0
M  V30 11862 H 1119.16 -6.71455 -0.244604 0
M  V30 11863 N 1121.88 0.120221 -1.57141 0
M  V30 11864 C 1122.81 1.14876 -2.03287 0
M  V30 11865 C 1123.79 1.43259 -0.917112 0
M  V30 11866 O 1124.97 1.53721 -1.18674 0
M  V30 11867 C 1122.1 2.47525 -2.43616 0
M  V30 11868 C 1121.06 2.33607 -3.58625 0
M  V30 11869 C 1120.38 3.71207 -3.84849 0
M  V30 11870 C 1121.68 1.79761 -4.90391 0
M  V30 11871 H 1123.38 0.764943 -2.89463 0
M  V30 11872 H 1120.92 0.366516 -1.39258 0
M  V30 11873 H 1122.88 3.19728 -2.74504 0
M  V30 11874 H 1121.6 2.87794 -1.54409 0
M  V30 11875 H 1120.26 1.63853 -3.27945 0
M  V30 11876 H 1119.91 4.0896 -2.9285 0
M  V30 11877 H 1119.61 3.62749 -4.62263 0
M  V30 11878 H 1121.13 4.44917 -4.18188 0
M  V30 11879 H 1122.55 2.4178 -5.19822 0
M  V30 11880 H 1120.94 1.82126 -5.71795 0
M  V30 11881 H 1122.01 0.755087 -4.78985 0
M  V30 11882 N 1123.36 1.52689 0.390367 0
M  V30 11883 C 1124.77 1.59623 0.968366 0
M  V30 11884 C 1125.12 0.44824 1.91011 0
M  V30 11885 O 1124.24 -0.428868 2.12108 0
M  V30 11886 C 1124.84 2.89312 1.76306 0
M  V30 11887 C 1123.4 2.98664 2.29079 0
M  V30 11888 C 1122.54 2.54725 1.09593 0
M  V30 11889 H 1125.5 1.57787 0.169959 0
M  V30 11890 H 1125.52 2.75721 2.62217 0
M  V30 11891 H 1125.03 3.72846 1.07738 0
M  V30 11892 H 1123.13 2.19665 3.00962 0
M  V30 11893 H 1123.24 4.03277 2.58659 0
M  V30 11894 H 1121.61 2.09012 1.45554 0
M  V30 11895 H 1122.39 3.40651 0.425625 0
M  V30 11896 N 1124.83 -0.648732 1.43629 0
M  V30 11897 C 1126.25 -0.964917 1.27128 0
M  V30 11898 C 1126.45 -2.00561 0.194251 0
M  V30 11899 O 1125.51 -2.48884 -0.42581 0
M  V30 11900 C 1126.82 -1.44491 2.6371 0
M  V30 11901 C 1128.37 -1.56133 2.71278 0
M  V30 11902 C 1128.84 -2.07521 4.08288 0
M  V30 11903 N 1130.33 -2.14817 4.10375 0
M  V30 11904 C 1131.07 -2.55712 5.13224 0
M  V30 11905 N 1130.56 -2.9587 6.26444 0
M  V30 11906 N 1132.36 -2.55691 5.00578 0
M  V30 11907 H 1124.51 0.0398357 2.12363 0
M  V30 11908 H 1126.77 -0.0447705 0.946942 0
M  V30 11909 H 1126.48 -0.754616 3.43509 0
M  V30 11910 H 1126.35 -2.41914 2.89409 0
M  V30 11911 H 1128.74 -2.24263 1.91808 0
M  V30 11912 H 1128.82 -0.571314 2.49338 0
M  V30 11913 H 1128.46 -1.39992 4.88226 0
M  V30 11914 H 1128.39 -3.07362 4.27594 0
M  V30 11915 H 1130.88 -1.86538 3.28652 0
M  V30 11916 H 1131.2 -3.25837 7.0075 0
M  V30 11917 H 1129.54 -2.93664 6.2991 0
M  V30 11918 H 1132.73 -2.23697 4.1119 0
M  V30 11919 H 1132.91 -2.87239 5.80859 0
M  V30 11920 N 1126.31 -1.30234 -0.887518 0
M  V30 11921 C 1127.72 -1.17048 -1.45453 0
M  V30 11922 C 1128.07 0.229793 -1.9485 0
M  V30 11923 O 1127.2 1.12628 -1.84781 0
M  V30 11924 C 1127.79 -2.11876 -2.64375 0
M  V30 11925 C 1126.35 -2.02676 -3.17174 0
M  V30 11926 C 1125.5 -2.02104 -1.89866 0
M  V30 11927 H 1128.45 -1.42541 -0.697694 0
M  V30 11928 H 1128.47 -1.69811 -3.40506 0
M  V30 11929 H 1127.98 -3.13781 -2.28392 0
M  V30 11930 H 1126.09 -1.03904 -3.57819 0
M  V30 11931 H 1126.2 -2.90939 -3.80646 0
M  V30 11932 H 1124.56 -1.4687 -2.0809 0
M  V30 11933 H 1125.35 -3.05735 -1.56145 0
M  V30 11934 N 1127.79 1.09952 -1.12909 0
M  V30 11935 C 1128.7 2.19999 -0.81471 0
M  V30 11936 C 1129.72 1.72864 0.19851 0
M  V30 11937 O 1130.89 2.01376 0.0308832 0
M  V30 11938 C 1127.96 3.45573 -0.279363 0
M  V30 11939 C 1127.02 4.07417 -1.35314 0
M  V30 11940 C 1126.25 5.26996 -0.843247 0
M  V30 11941 O 1126.47 5.69495 0.321164 0
M  V30 11942 O 1125.41 5.79826 -1.61511 0
M  V30 11943 H 1129.23 2.49333 -1.73398 0
M  V30 11944 H 1126.82 1.18784 -0.906128 0
M  V30 11945 H 1128.7 4.21398 0.0140531 0
M  V30 11946 H 1127.38 3.17854 0.612401 0
M  V30 11947 H 1126.28 3.33253 -1.6998 0
M  V30 11948 H 1127.62 4.39349 -2.21885 0
M  V30 11949 N 1129.27 0.921757 1.27833 0
M  V30 11950 C 1130.5 0.575202 1.98744 0
M  V30 11951 C 1130.91 -0.845405 1.68815 0
M  V30 11952 O 1130.27 -1.56106 0.94536 0
M  V30 11953 C 1130.32 0.784389 3.52888 0
M  V30 11954 O 1130.04 2.1491 3.81766 0
M  V30 11955 C 1131.54 0.445744 4.41053 0
M  V30 11956 H 1128.76 0.218525 0.634419 0
M  V30 11957 H 1131.31 1.23715 1.62834 0
M  V30 11958 H 1129.46 0.169323 3.8703 0
M  V30 11959 H 1129.87 2.19469 4.76375 0
M  V30 11960 H 1131.35 0.64284 5.48244 0
M  V30 11961 H 1131.83 -0.618433 4.34824 0
M  V30 11962 H 1132.43 1.03869 4.12421 0
M  V30 11963 N 1130.75 -1.41857 0.686609 0
M  V30 11964 C 1131.68 -2.33481 0.0298353 0
M  V30 11965 C 1132.66 -1.51329 -0.776756 0
M  V30 11966 O 1133.84 -1.79895 -0.731535 0
M  V30 11967 C 1130.97 -3.35065 -0.913707 0
M  V30 11968 C 1129.93 -4.2746 -0.214861 0
M  V30 11969 C 1129.25 -5.19346 -1.27215 0
M  V30 11970 C 1130.55 -5.14252 0.913367 0
M  V30 11971 H 1132.25 -2.8865 0.795067 0
M  V30 11972 H 1129.79 -1.38792 0.383785 0
M  V30 11973 H 1131.75 -3.98082 -1.38234 0
M  V30 11974 H 1130.47 -2.78226 -1.7105 0
M  V30 11975 H 1129.13 -3.65855 0.233651 0
M  V30 11976 H 1128.78 -4.58827 -2.06124 0
M  V30 11977 H 1128.48 -5.81996 -0.80961 0
M  V30 11978 H 1130 -5.85239 -1.74147 0
M  V30 11979 H 1131.41 -5.70887 0.525424 0
M  V30 11980 H 1129.81 -5.85796 1.30244 0
M  V30 11981 H 1130.88 -4.51949 1.75699 0
M  V30 11982 N 1132.22 -0.430739 -1.51599 0
M  V30 11983 C 1133.17 0.401828 -2.24431 0
M  V30 11984 C 1134.16 0.995588 -1.264 0
M  V30 11985 O 1135.35 0.914822 -1.51526 0
M  V30 11986 C 1132.48 1.5061 -3.08499 0
M  V30 11987 C 1131.57 0.922059 -4.13955 0
M  V30 11988 N 1131.96 0.0665912 -5.05756 0
M  V30 11989 C 1130.25 1.19034 -4.29822 0
M  V30 11990 C 1130.96 -0.260713 -5.81115 0
M  V30 11991 N 1129.93 0.353991 -5.42446 0
M  V30 11992 H 1133.73 -0.257813 -2.92767 0
M  V30 11993 H 1131.25 -0.242421 -1.6058 0
M  V30 11994 H 1133.24 2.11535 -3.59247 0
M  V30 11995 H 1131.9 2.16815 -2.41706 0
M  V30 11996 H 1132.92 -0.299356 -5.17034 0
M  V30 11997 H 1129.59 1.85036 -3.74256 0
M  V30 11998 H 1130.98 -0.956442 -6.65058 0
M  V30 11999 N 1133.7 1.56767 -0.161869 0
M  V30 12000 C 1135.11 1.83265 0.356466 0
M  V30 12001 C 1135.46 1.08127 1.63716 0
M  V30 12002 O 1134.59 0.33127 2.13849 0
M  V30 12003 C 1135.18 3.32437 0.653521 0
M  V30 12004 C 1133.74 3.59465 1.11633 0
M  V30 12005 C 1132.89 2.76909 0.147204 0
M  V30 12006 H 1135.84 1.53926 -0.386308 0
M  V30 12007 H 1135.86 3.49401 1.50662 0
M  V30 12008 H 1135.37 3.87098 -0.278766 0
M  V30 12009 H 1133.48 3.10206 2.06404 0
M  V30 12010 H 1133.59 4.67853 1.03202 0
M  V30 12011 H 1131.95 2.46457 0.642739 0
M  V30 12012 H 1132.74 3.34346 -0.778938 0
M  V30 12013 N 1135.18 -0.111886 1.57202 0
M  V30 12014 C 1136.13 -1.15585 2.01849 0
M  V30 12015 C 1137.12 -1.42458 0.916621 0
M  V30 12016 O 1138.33 -1.42337 1.10182 0
M  V30 12017 H 1134.7 -0.389885 0.643035 0
M  V30 12018 H 1136.67 -0.752854 2.88747 0
M  V30 12019 C 1135.42 -2.47247 2.44467 0
M  V30 12020 H 1134.75 -2.27409 3.28824 0
M  V30 12021 H 1136.19 -3.18837 2.79497 0
M  V30 12022 C 1134.65 -3.10339 1.31115 0
M  V30 12023 O 1135.18 -3.96713 0.631029 0
M  V30 12024 N 1133.38 -2.70326 1.0664 0
M  V30 12025 H 1132.93 -2.00182 1.62126 0
M  V30 12026 H 1132.89 -3.12869 0.309944 0
M  V30 12027 N 1136.66 -1.52894 -0.382264 0
M  V30 12028 C 1138.07 -1.60135 -0.959887 0
M  V30 12029 C 1138.42 -0.458363 -1.90771 0
M  V30 12030 O 1137.55 0.417614 -2.12332 0
M  V30 12031 C 1138.14 -2.90243 -1.74769 0
M  V30 12032 C 1136.7 -2.99874 -2.27491 0
M  V30 12033 C 1135.85 -2.55302 -1.0824 0
M  V30 12034 H 1138.8 -1.57875 -0.161589 0
M  V30 12035 H 1138.82 -2.77108 -2.60751 0
M  V30 12036 H 1138.33 -3.73412 -1.0576 0
M  V30 12037 H 1136.43 -2.21258 -2.99793 0
M  V30 12038 H 1136.54 -4.04643 -2.56516 0
M  V30 12039 H 1134.91 -2.09781 -1.44444 0
M  V30 12040 H 1135.69 -3.40872 -0.407553 0
M  V30 12041 N 1138.14 0.641106 -1.43971 0
M  V30 12042 C 1139.1 1.73539 -1.49723 0
M  V30 12043 C 1140.1 1.56235 -0.380438 0
M  V30 12044 O 1141.29 1.61912 -0.642673 0
M  V30 12045 C 1138.42 3.1253 -1.36153 0
M  V30 12046 H 1139.62 1.69816 -2.47189 0
M  V30 12047 H 1137.17 0.853867 -1.30915 0
M  V30 12048 H 1137.9 3.21856 -0.39742 0
M  V30 12049 H 1137.69 3.26496 -2.17124 0
M  V30 12050 H 1139.18 3.92303 -1.43138 0
M  V30 12051 N 1139.62 1.30703 0.880598 0
M  V30 12052 C 1140.86 1.19541 1.62955 0
M  V30 12053 C 1141.18 -0.249089 1.93403 0
M  V30 12054 O 1140.45 -1.1669 1.57354 0
M  V30 12055 H 1139.03 0.439434 0.604075 0
M  V30 12056 H 1141.7 1.63888 1.05483 0
M  V30 12057 H 1140.79 1.75945 2.57779 0
M  V30 12058 N 1141.09 -1.09351 1.1349 0
M  V30 12059 C 1142.02 -2.18037 0.835588 0
M  V30 12060 C 1143 -1.68856 -0.205373 0
M  V30 12061 O 1144.19 -1.94094 -0.0641357 0
M  V30 12062 C 1141.32 -3.45987 0.301661 0
M  V30 12063 C 1140.27 -4.08507 1.27696 0
M  V30 12064 C 1139.6 -5.31292 0.602758 0
M  V30 12065 C 1140.9 -4.50916 2.63575 0
M  V30 12066 H 1142.59 -2.43332 1.74441 0
M  V30 12067 H 1140.14 -1.1695 0.840166 0
M  V30 12068 H 1142.09 -4.21324 0.079928 0
M  V30 12069 H 1140.82 -3.20217 -0.642552 0
M  V30 12070 H 1139.48 -3.3519 1.4847 0
M  V30 12071 H 1139.12 -5.01802 -0.346953 0
M  V30 12072 H 1138.82 -5.74075 1.25345 0
M  V30 12073 H 1140.35 -6.09351 0.390325 0
M  V30 12074 H 1141.76 -5.17474 2.46765 0
M  V30 12075 H 1140.16 -5.04586 3.24827 0
M  V30 12076 H 1141.23 -3.63279 3.2118 0
M  V30 12077 N 1142.57 -0.928524 -1.27343 0
M  V30 12078 C 1143.5 -0.385563 -2.25934 0
M  V30 12079 C 1144.52 0.484178 -1.55433 0
M  V30 12080 O 1145.71 0.296668 -1.76017 0
M  V30 12081 C 1142.81 0.466116 -3.35679 0
M  V30 12082 C 1141.98 -0.384523 -4.35707 0
M  V30 12083 C 1141.04 0.404644 -5.24642 0
M  V30 12084 O 1140.06 -0.187943 -5.6889 0
M  V30 12085 N 1141.27 1.70426 -5.54919 0
M  V30 12086 H 1144.03 -1.23306 -2.73159 0
M  V30 12087 H 1141.59 -0.796039 -1.40978 0
M  V30 12088 H 1143.58 1.00115 -3.92121 0
M  V30 12089 H 1142.15 1.21437 -2.88048 0
M  V30 12090 H 1141.37 -1.10085 -3.78517 0
M  V30 12091 H 1142.66 -0.966033 -4.99545 0
M  V30 12092 H 1142.06 2.20802 -5.20829 0
M  V30 12093 H 1140.62 2.1858 -6.14057 0
M  V30 12094 N 1144.05 1.41491 -0.694123 0
M  V30 12095 C 1144.96 2.34583 -0.0283414 0
M  V30 12096 C 1145.98 1.5615 0.767662 0
M  V30 12097 O 1147.15 1.88637 0.705556 0
M  V30 12098 C 1144.22 3.34876 0.897726 0
M  V30 12099 C 1143.28 4.29197 0.0940905 0
M  V30 12100 C 1142.51 5.24699 0.976051 0
M  V30 12101 O 1142.73 5.25613 2.21556 0
M  V30 12102 O 1141.67 6.00387 0.426503 0
M  V30 12103 H 1145.49 2.93092 -0.795656 0
M  V30 12104 H 1143.08 1.4232 -0.45445 0
M  V30 12105 H 1144.96 3.96438 1.4288 0
M  V30 12106 H 1143.64 2.78812 1.64456 0
M  V30 12107 H 1142.54 3.70988 -0.481552 0
M  V30 12108 H 1143.88 4.88355 -0.614045 0
M  V30 12109 N 1145.53 0.438773 1.51369 0
M  V30 12110 C 1146.75 -0.128221 2.07003 0
M  V30 12111 C 1147.18 -1.3557 1.30393 0
M  V30 12112 O 1146.54 -1.7804 0.342283 0
M  V30 12113 C 1146.58 -0.42761 3.58056 0
M  V30 12114 O 1145.69 -1.51382 3.83611 0
M  V30 12115 H 1145.03 -0.00123679 0.663999 0
M  V30 12116 H 1147.56 0.62052 1.94963 0
M  V30 12117 H 1147.57 -0.677645 4.02333 0
M  V30 12118 H 1146.24 0.469535 4.13241 0
M  V30 12119 H 1144.82 -1.25363 3.51196 0
M  V30 12120 N 1147.01 -1.56678 0.170181 0
M  V30 12121 C 1148.25 -1.96024 -0.475147 0
M  V30 12122 C 1148.57 -1.0588 -1.64465 0
M  V30 12123 O 1149.77 -1.34901 -2.35614 0
M  V30 12124 C 1148.23 -3.4855 -0.896704 0
M  V30 12125 C 1147.84 -4.47318 0.247142 0
M  V30 12126 C 1149.58 -3.96716 -1.51052 0
M  V30 12127 C 1147.49 -5.91082 -0.193982 0
M  V30 12128 H 1146.42 -0.731883 -0.181282 0
M  V30 12129 H 1149.07 -1.81674 0.25823 0
M  V30 12130 H 1147.45 -3.58314 -1.68603 0
M  V30 12131 H 1148.63 -4.49268 1.02445 0
M  V30 12132 H 1146.94 -4.09203 0.770839 0
M  V30 12133 H 1149.54 -5.01581 -1.85258 0
M  V30 12134 H 1149.88 -3.39588 -2.40802 0
M  V30 12135 H 1150.41 -3.89965 -0.785652 0
M  V30 12136 H 1147.15 -6.5208 0.668714 0
M  V30 12137 H 1146.67 -5.92441 -0.936675 0
M  V30 12138 H 1148.35 -6.43844 -0.638237 0
M  V30 12139 N 1148.48 0.103547 -1.57259 0
M  V30 12140 C 1149.71 0.82624 -1.90232 0
M  V30 12141 C 1150.13 1.71902 -0.763641 0
M  V30 12142 O 1149.49 1.79043 0.285181 0
M  V30 12143 C 1149.54 1.62265 -3.22029 0
M  V30 12144 O 1148.64 2.73091 -3.09023 0
M  V30 12145 H 1147.98 0.227528 -0.6238 0
M  V30 12146 H 1150.51 0.081307 -2.04438 0
M  V30 12147 H 1150.52 2.00865 -3.5513 0
M  V30 12148 H 1149.2 0.967383 -4.04493 0
M  V30 12149 H 1147.78 2.3758 -2.8742 0
M  V30 12150 N 1149.96 1.53094 0.37415 0
M  V30 12151 C 1151.24 1.59456 1.13283 0
M  V30 12152 C 1151.62 0.396821 2.07337 0
M  V30 12153 O 1150.97 -0.613659 2.20106 0
M  V30 12154 C 1151.18 2.94069 1.87948 0
M  V30 12155 C 1152.52 3.4834 2.42785 0
M  V30 12156 O 1153.55 2.96042 1.98085 0
M  V30 12157 O 1152.41 4.39747 3.24477 0
M  V30 12158 H 1149.5 0.643731 0.519171 0
M  V30 12159 H 1152.05 1.65434 0.378105 0
M  V30 12160 H 1150.82 3.72685 1.19255 0
M  V30 12161 H 1150.44 2.91544 2.70348 0
M  V30 12162 N 1151.44 -0.633461 1.44309 0
M  V30 12163 C 1152.69 -1.39513 1.47187 0
M  V30 12164 C 1153.02 -1.93926 0.103186 0
M  V30 12165 O 1152.29 -1.73512 -0.878853 0
M  V30 12166 C 1152.58 -2.56213 2.53036 0
M  V30 12167 C 1152.43 -2.07164 3.99253 0
M  V30 12168 C 1153.75 -3.58403 2.55412 0
M  V30 12169 H 1150.87 -0.505936 0.535908 0
M  V30 12170 H 1153.51 -0.716445 1.75975 0
M  V30 12171 H 1151.66 -3.14111 2.28619 0
M  V30 12172 H 1153.33 -1.54115 4.34795 0
M  V30 12173 H 1151.57 -1.38367 4.11141 0
M  V30 12174 H 1152.25 -2.91172 4.6896 0
M  V30 12175 H 1154.72 -3.103 2.77224 0
M  V30 12176 H 1153.6 -4.37581 3.31382 0
M  V30 12177 H 1153.86 -4.12316 1.59523 0
M  V30 12178 N 1152.92 -1.31168 -0.873655 0
M  V30 12179 C 1154.15 -1.23595 -1.65927 0
M  V30 12180 C 1154.56 0.199349 -1.87745 0
M  V30 12181 O 1153.92 1.13013 -1.43298 0
M  V30 12182 C 1153.97 -1.97268 -3.02932 0
M  V30 12183 O 1153.69 -3.35196 -2.82091 0
M  V30 12184 C 1155.19 -1.9649 -3.97374 0
M  V30 12185 H 1152.41 -0.427228 -0.517414 0
M  V30 12186 H 1154.96 -1.72983 -1.09074 0
M  V30 12187 H 1153.11 -1.51651 -3.56484 0
M  V30 12188 H 1153.52 -3.7266 -3.69087 0
M  V30 12189 H 1155 -2.52557 -4.90835 0
M  V30 12190 H 1155.48 -0.946525 -4.28879 0
M  V30 12191 H 1156.08 -2.4197 -3.49758 0
M  V30 12192 N 1154.4 1.08748 -1.14068 0
M  V30 12193 C 1155.62 1.84814 -0.930138 0
M  V30 12194 C 1156.04 1.81461 0.521267 0
M  V30 12195 O 1155.4 1.21577 1.36108 0
M  V30 12196 C 1155.45 3.32501 -1.41863 0
M  V30 12197 O 1155.17 3.35846 -2.81317 0
M  V30 12198 C 1156.67 4.25384 -1.24753 0
M  V30 12199 H 1153.89 0.583546 -0.331233 0
M  V30 12200 H 1156.43 1.37366 -1.51495 0
M  V30 12201 H 1154.59 3.7735 -0.876664 0
M  V30 12202 H 1155 4.28013 -3.03159 0
M  V30 12203 H 1156.48 5.27138 -1.63798 0
M  V30 12204 H 1156.95 4.38789 -0.18999 0
M  V30 12205 H 1157.56 3.86357 -1.77787 0
M  V30 12206 N 1155.87 0.935264 1.26849 0
M  V30 12207 C 1157.11 0.587087 1.95787 0
M  V30 12208 C 1157.48 -0.856974 1.71814 0
M  V30 12209 O 1158.68 -1.3138 2.34505 0
M  V30 12210 C 1156.95 0.91303 3.45541 0
M  V30 12211 S 1158.51 0.674506 4.33585 0
M  V30 12212 H 1155.33 0.216442 0.677255 0
M  V30 12213 H 1157.93 1.20532 1.53923 0
M  V30 12214 H 1156.63 1.96154 3.60488 0
M  V30 12215 H 1156.16 0.28429 3.92371 0
M  V30 12216 H 1158.18 -0.464121 4.94025 0
M  V30 12217 N 1157.35 -1.41121 0.701616 0
M  V30 12218 C 1158.28 -2.33436 0.0545974 0
M  V30 12219 C 1159.26 -1.52144 -0.760662 0
M  V30 12220 O 1160.45 -1.80661 -0.712414 0
M  V30 12221 C 1157.58 -3.36015 -0.878117 0
M  V30 12222 C 1156.53 -4.27664 -0.169511 0
M  V30 12223 C 1155.86 -5.20666 -1.21699 0
M  V30 12224 C 1157.16 -5.13254 0.967859 0
M  V30 12225 H 1158.85 -2.87791 0.825637 0
M  V30 12226 H 1156.4 -1.38377 0.398484 0
M  V30 12227 H 1158.35 -3.99526 -1.34004 0
M  V30 12228 H 1157.08 -2.80024 -1.68089 0
M  V30 12229 H 1155.73 -3.65586 0.272441 0
M  V30 12230 H 1155.38 -4.60987 -2.01246 0
M  V30 12231 H 1155.08 -5.82822 -0.747836 0
M  V30 12232 H 1156.61 -5.87053 -1.6793 0
M  V30 12233 H 1158.02 -5.70298 0.585944 0
M  V30 12234 H 1156.42 -5.84381 1.3645 0
M  V30 12235 H 1157.49 -4.5006 1.80483 0
M  V30 12236 N 1158.83 -0.446794 -1.51134 0
M  V30 12237 C 1160.08 0.116666 -2.02464 0
M  V30 12238 C 1160.41 1.41532 -1.32975 0
M  V30 12239 O 1159.68 1.89278 -0.447651 0
M  V30 12240 C 1159.97 0.325659 -3.58624 0
M  V30 12241 C 1159.82 -0.992307 -4.38718 0
M  V30 12242 C 1161.14 1.09121 -4.26357 0
M  V30 12243 H 1158.26 0.0409262 -0.735863 0
M  V30 12244 H 1160.9 -0.587641 -1.80684 0
M  V30 12245 H 1159.05 0.925585 -3.77313 0
M  V30 12246 H 1160.72 -1.62694 -4.31658 0
M  V30 12247 H 1158.97 -1.5947 -4.03425 0
M  V30 12248 H 1159.64 -0.800005 -5.46172 0
M  V30 12249 H 1162.11 0.582944 -4.11996 0
M  V30 12250 H 1160.99 1.20621 -5.35483 0
M  V30 12251 H 1161.25 2.12171 -3.87861 0
M  V30 12252 N 1160.31 1.56586 -0.178487 0
M  V30 12253 C 1161.27 2.17091 0.73512 0
M  V30 12254 C 1162.27 1.12088 1.15295 0
M  V30 12255 O 1163.46 1.37563 1.06874 0
M  V30 12256 C 1160.59 2.75957 2.00151 0
M  V30 12257 H 1161.79 2.99176 0.208272 0
M  V30 12258 H 1159.34 1.56138 0.0710967 0
M  V30 12259 H 1160.07 1.97626 2.57127 0
M  V30 12260 H 1159.86 3.52809 1.7108 0
M  V30 12261 H 1161.35 3.2247 2.65335 0
M  V30 12262 N 1161.79 -0.095206 1.57312 0
M  V30 12263 C 1163.01 -0.81614 1.90667 0
M  V30 12264 C 1163.44 -1.71494 0.772746 0
M  V30 12265 O 1162.79 -1.79192 -0.275682 0
M  V30 12266 C 1162.84 -1.60555 3.22885 0
M  V30 12267 O 1161.95 -2.71448 3.10467 0
M  V30 12268 H 1161.29 -0.224217 0.624998 0
M  V30 12269 H 1163.82 -0.070464 2.04479 0
M  V30 12270 H 1163.83 -1.98979 3.5619 0
M  V30 12271 H 1162.5 -0.945918 4.05 0
M  V30 12272 H 1161.08 -2.36053 2.88675 0
M  V30 12273 N 1163.26 -1.53291 -0.366026 0
M  V30 12274 C 1164.21 -1.79697 -1.44836 0
M  V30 12275 C 1165.18 -0.641321 -1.5322 0
M  V30 12276 O 1166.37 -0.883453 -1.69115 0
M  V30 12277 C 1163.51 -1.99223 -2.81788 0
M  V30 12278 C 1162.62 -3.26938 -2.82375 0
M  V30 12279 C 1161.75 -3.36654 -4.10898 0
M  V30 12280 C 1160.79 -4.58404 -4.05626 0
M  V30 12281 N 1159.93 -4.65275 -5.25798 0
M  V30 12282 H 1164.77 -2.72053 -1.21619 0
M  V30 12283 H 1162.31 -1.34768 -0.589577 0
M  V30 12284 H 1164.27 -2.0853 -3.61346 0
M  V30 12285 H 1162.9 -1.10204 -3.03406 0
M  V30 12286 H 1161.95 -3.26587 -1.95052 0
M  V30 12287 H 1163.26 -4.16573 -2.74351 0
M  V30 12288 H 1162.41 -3.4527 -4.98872 0
M  V30 12289 H 1161.15 -2.45035 -4.21674 0
M  V30 12290 H 1160.16 -4.49888 -3.16039 0
M  V30 12291 H 1161.38 -5.51364 -3.96453 0
M  V30 12292 H 1159.33 -3.76557 -5.3716 0
M  V30 12293 H 1159.25 -5.48814 -5.19942 0
M  V30 12294 H 1160.51 -4.78175 -6.15605 0
M  V30 12295 N 1164.74 0.6258 -1.44643 0
M  V30 12296 C 1165.65 1.76611 -1.5442 0
M  V30 12297 C 1166.67 1.68614 -0.429576 0
M  V30 12298 O 1167.84 1.89296 -0.687686 0
M  V30 12299 C 1164.91 3.13015 -1.49071 0
M  V30 12300 C 1163.97 3.32604 -2.71428 0
M  V30 12301 C 1163.2 4.62501 -2.66325 0
M  V30 12302 O 1163.43 5.43651 -1.72626 0
M  V30 12303 O 1162.36 4.84408 -3.57258 0
M  V30 12304 H 1166.19 1.71315 -2.50769 0
M  V30 12305 H 1163.77 0.787677 -1.26949 0
M  V30 12306 H 1165.65 3.94318 -1.48631 0
M  V30 12307 H 1164.33 3.18842 -0.558686 0
M  V30 12308 H 1163.24 2.50959 -2.77435 0
M  V30 12309 H 1164.57 3.31642 -3.63695 0
M  V30 12310 N 1166.22 1.31629 0.866686 0
M  V30 12311 C 1167.17 1.19492 1.99561 0
M  V30 12312 C 1168.16 0.102456 1.6909 0
M  V30 12313 O 1169.37 0.264571 1.78045 0
M  V30 12314 H 1165.74 0.370071 0.654638 0
M  V30 12315 H 1167.71 2.14996 2.06928 0
M  V30 12316 C 1166.46 0.92246 3.3524 0
M  V30 12317 H 1165.79 1.75524 3.59209 0
M  V30 12318 H 1167.23 0.877726 4.14816 0
M  V30 12319 C 1165.69 -0.374803 3.34809 0
M  V30 12320 O 1166.22 -1.39055 3.76864 0
M  V30 12321 N 1164.42 -0.392506 2.87937 0
M  V30 12322 H 1163.97 0.434591 2.53908 0
M  V30 12323 H 1163.93 -1.26038 2.88031 0
M  V30 12324 N 1167.7 -1.08142 1.14644 0
M  V30 12325 C 1168.95 -1.80849 0.917685 0
M  V30 12326 C 1169.28 -1.86123 -0.554249 0
M  V30 12327 O 1168.55 -1.33907 -1.41065 0
M  V30 12328 C 1168.84 -3.26325 1.52264 0
M  V30 12329 C 1168.69 -3.29244 3.06461 0
M  V30 12330 C 1170.01 -4.23375 1.20175 0
M  V30 12331 H 1167.13 -0.656559 0.334812 0
M  V30 12332 H 1169.77 -1.26595 1.41682 0
M  V30 12333 H 1167.92 -3.72656 1.09817 0
M  V30 12334 H 1169.59 -2.91216 3.57758 0
M  V30 12335 H 1167.83 -2.68438 3.40769 0
M  V30 12336 H 1168.51 -4.31785 3.43897 0
M  V30 12337 H 1170.98 -3.85394 1.56877 0
M  V30 12338 H 1169.86 -5.23472 1.65132 0
M  V30 12339 H 1170.12 -4.41944 0.117474 0
M  V30 12340 N 1169.18 -0.941978 -1.26351 0
M  V30 12341 C 1170.11 -0.409504 -2.25512 0
M  V30 12342 C 1171.12 0.467665 -1.55938 0
M  V30 12343 O 1172.31 0.277982 -1.76322 0
M  V30 12344 C 1169.41 0.430487 -3.36155 0
M  V30 12345 C 1168.58 -0.430714 -4.35274 0
M  V30 12346 C 1167.64 0.348976 -5.25042 0
M  V30 12347 O 1166.67 -0.24827 -5.68658 0
M  V30 12348 N 1167.87 1.64531 -5.56695 0
M  V30 12349 H 1170.64 -1.26196 -2.71836 0
M  V30 12350 H 1168.2 -0.810947 -1.40126 0
M  V30 12351 H 1170.19 0.959501 -3.93161 0
M  V30 12352 H 1168.76 1.18375 -2.8932 0
M  V30 12353 H 1167.98 -1.14093 -3.77328 0
M  V30 12354 H 1169.27 -1.01896 -4.98492 0
M  V30 12355 H 1168.67 2.15266 -5.23142 0
M  V30 12356 H 1167.22 2.12055 -6.16341 0
M  V30 12357 N 1170.66 1.40747 -0.709091 0
M  V30 12358 C 1171.9 2.013 -0.246174 0
M  V30 12359 C 1172.23 1.56078 1.15556 0
M  V30 12360 O 1171.51 0.777941 1.78265 0
M  V30 12361 C 1171.79 3.58685 -0.318945 0
M  V30 12362 C 1171.65 4.13997 -1.75859 0
M  V30 12363 C 1172.96 4.38981 0.31358 0
M  V30 12364 H 1170.08 0.73137 -0.0909255 0
M  V30 12365 H 1172.73 1.67312 -0.900365 0
M  V30 12366 H 1170.88 3.8777 0.23805 0
M  V30 12367 H 1172.55 3.95735 -2.37047 0
M  V30 12368 H 1170.79 3.6853 -2.28841 0
M  V30 12369 H 1171.46 5.23158 -1.76095 0
M  V30 12370 H 1173.94 4.15789 -0.160939 0
M  V30 12371 H 1172.81 5.48409 0.232184 0
M  V30 12372 H 1173.07 4.19474 1.39621 0
M  V30 12373 N 1172.13 0.454803 1.50895 0
M  V30 12374 C 1173.1 -0.336293 2.26719 0
M  V30 12375 C 1174.1 -0.93464 1.30848 0
M  V30 12376 O 1175.29 -0.80636 1.54413 0
M  V30 12377 C 1172.42 -1.47744 3.07221 0
M  V30 12378 H 1173.61 0.328462 2.98096 0
M  V30 12379 H 1171.16 0.208419 1.54904 0
M  V30 12380 H 1171.9 -2.17773 2.40302 0
M  V30 12381 H 1171.68 -1.05438 3.77658 0
M  V30 12382 H 1173.17 -2.03592 3.6461 0
M  V30 12383 N 1173.61 -1.56489 0.186789 0
M  V30 12384 C 1174.54 -2.15911 -0.769104 0
M  V30 12385 C 1175.56 -1.11872 -1.18273 0
M  V30 12386 O 1176.75 -1.38999 -1.1199 0
M  V30 12387 C 1173.85 -2.69957 -2.04882 0
M  V30 12388 C 1173.02 -3.98812 -1.79631 0
M  V30 12389 C 1172.08 -4.37767 -2.9197 0
M  V30 12390 O 1171.1 -5.0535 -2.61935 0
M  V30 12391 N 1172.31 -4.0059 -4.20128 0
M  V30 12392 H 1175.07 -2.98561 -0.261007 0
M  V30 12393 H 1172.63 -1.61899 0.00453357 0
M  V30 12394 H 1174.62 -2.93006 -2.79158 0
M  V30 12395 H 1173.19 -1.91808 -2.46837 0
M  V30 12396 H 1172.41 -3.8398 -0.891776 0
M  V30 12397 H 1173.7 -4.82939 -1.60148 0
M  V30 12398 H 1173.1 -3.46213 -4.47385 0
M  V30 12399 H 1171.66 -4.28608 -4.91059 0
M  V30 12400 N 1175.09 0.086862 -1.5736 0
M  V30 12401 C 1176.31 0.806017 -1.91097 0
M  V30 12402 C 1176.74 1.71082 -0.78183 0
M  V30 12403 O 1176.1 1.79335 0.266175 0
M  V30 12404 C 1176.15 1.5884 -3.23732 0
M  V30 12405 O 1175.25 2.69798 -3.11902 0
M  V30 12406 H 1174.59 0.220899 -0.626179 0
M  V30 12407 H 1177.12 0.059619 -2.04513 0
M  V30 12408 H 1177.13 1.97088 -3.5724 0
M  V30 12409 H 1175.81 0.924426 -4.05496 0
M  V30 12410 H 1174.38 2.34519 -2.89923 0
M  V30 12411 N 1176.57 1.53483 0.357892 0
M  V30 12412 C 1177.52 1.81143 1.45911 0
M  V30 12413 C 1178.51 0.681002 1.55109 0
M  V30 12414 O 1179.72 0.864086 1.57904 0
M  V30 12415 H 1176.09 0.573663 0.486225 0
M  V30 12416 H 1178.06 2.733 1.19789 0
M  V30 12417 C 1176.81 2.02509 2.8264 0
M  V30 12418 H 1176.13 2.88938 2.76324 0
M  V30 12419 H 1177.57 2.25837 3.58851 0
M  V30 12420 C 1176.03 0.806412 3.27106 0
M  V30 12421 O 1176.56 -0.00116809 4.017 0
M  V30 12422 N 1174.77 0.627677 2.8374 0
M  V30 12423 H 1174.32 1.28601 2.23203 0
M  V30 12424 H 1174.27 -0.186301 3.13848 0
M  V30 12425 N 1178.05 -0.61812 1.44973 0
M  V30 12426 C 1178.98 -1.74035 1.55673 0
M  V30 12427 C 1179.96 -1.65112 0.4089 0
M  V30 12428 O 1181.14 -1.83673 0.630698 0
M  V30 12429 C 1178.27 -3.1261 1.51303 0
M  V30 12430 C 1177.23 -3.36334 2.64696 0
M  V30 12431 C 1176.55 -4.75072 2.45378 0
M  V30 12432 C 1177.85 -3.27618 4.06772 0
M  V30 12433 H 1179.55 -1.65336 2.49608 0
M  V30 12434 H 1177.09 -0.794003 1.20132 0
M  V30 12435 H 1179.04 -3.90906 1.57388 0
M  V30 12436 H 1177.77 -3.22123 0.538914 0
M  V30 12437 H 1176.43 -2.60423 2.58022 0
M  V30 12438 H 1176.08 -4.81306 1.46129 0
M  V30 12439 H 1175.78 -4.91903 3.21412 0
M  V30 12440 H 1177.3 -5.55582 2.53301 0
M  V30 12441 H 1178.71 -3.95802 4.14746 0
M  V30 12442 H 1177.11 -3.55981 4.83113 0
M  V30 12443 H 1178.18 -2.25219 4.29423 0
M  V30 12444 N 1179.52 -1.32087 -0.859693 0
M  V30 12445 C 1180.75 -1.25348 -1.64607 0
M  V30 12446 C 1181.17 0.179425 -1.87945 0
M  V30 12447 O 1180.52 1.11487 -1.44489 0
M  V30 12448 C 1180.57 -2.0047 -3.00822 0
M  V30 12449 O 1180.3 -3.38169 -2.7852 0
M  V30 12450 C 1181.8 -2.00694 -3.95268 0
M  V30 12451 H 1179.02 -0.432692 -0.512854 0
M  V30 12452 H 1181.56 -1.7413 -1.07234 0
M  V30 12453 H 1179.72 -1.55423 -3.54855 0
M  V30 12454 H 1180.13 -3.76553 -3.65113 0
M  V30 12455 H 1181.6 -2.57748 -4.88129 0
M  V30 12456 H 1182.08 -0.99196 -4.27851 0
M  V30 12457 H 1182.69 -2.45666 -3.47172 0
M  V30 12458 N 1181 1.07532 -1.15215 0
M  V30 12459 C 1181.95 2.14687 -0.847243 0
M  V30 12460 C 1182.92 1.64903 0.199043 0
M  V30 12461 O 1184.1 1.90682 0.0669986 0
M  V30 12462 C 1181.24 3.43414 -0.340673 0
M  V30 12463 C 1180.36 4.06999 -1.44831 0
M  V30 12464 C 1179.49 5.23554 -0.898059 0
M  V30 12465 C 1178.53 5.79097 -1.98276 0
M  V30 12466 N 1177.67 6.86985 -1.44902 0
M  V30 12467 H 1182.51 2.4011 -1.76498 0
M  V30 12468 H 1180.04 1.17823 -0.880689 0
M  V30 12469 H 1182 4.1719 -0.0286956 0
M  V30 12470 H 1180.63 3.18249 0.540144 0
M  V30 12471 H 1179.68 3.30895 -1.87651 0
M  V30 12472 H 1181 4.44289 -2.26735 0
M  V30 12473 H 1180.15 6.04305 -0.538514 0
M  V30 12474 H 1178.89 4.87676 -0.0481752 0
M  V30 12475 H 1177.89 4.96992 -2.35115 0
M  V30 12476 H 1179.12 6.1703 -2.83639 0
M  V30 12477 H 1177.07 6.5305 -0.621468 0
M  V30 12478 H 1176.98 7.23149 -2.20434 0
M  V30 12479 H 1178.25 7.71446 -1.11767 0
M  V30 12480 N 1182.48 0.948665 1.2585 0
M  V30 12481 C 1183.76 0.517832 1.88621 0
M  V30 12482 C 1184.14 -1.00477 1.85654 0
M  V30 12483 O 1183.49 -1.868 1.31598 0
M  V30 12484 C 1183.7 1.08768 3.31618 0
M  V30 12485 C 1185.04 1.16089 4.08422 0
M  V30 12486 O 1186.07 1.0388 3.40716 0
M  V30 12487 O 1184.93 1.35172 5.29519 0
M  V30 12488 H 1182.02 0.169916 0.809356 0
M  V30 12489 H 1184.57 1.04171 1.33964 0
M  V30 12490 H 1183.34 2.13109 3.28177 0
M  V30 12491 H 1182.96 0.54669 3.93824 0
M  V30 12492 N 1183.96 -1.40369 0.716545 0
M  V30 12493 C 1185.37 -1.54757 0.390202 0
M  V30 12494 C 1185.57 -1.68767 -1.10091 0
M  V30 12495 O 1184.63 -1.67779 -1.88697 0
M  V30 12496 C 1185.94 -2.77546 1.15709 0
M  V30 12497 C 1187.49 -2.91364 1.14349 0
M  V30 12498 C 1187.97 -4.17068 1.89256 0
M  V30 12499 N 1189.46 -4.2407 1.8633 0
M  V30 12500 C 1190.19 -5.20243 2.41112 0
M  V30 12501 N 1189.69 -6.22318 3.04454 0
M  V30 12502 N 1191.48 -5.12328 2.31249 0
M  V30 12503 H 1183.63 -1.29521 1.68339 0
M  V30 12504 H 1185.9 -0.626382 0.711582 0
M  V30 12505 H 1185.6 -2.73474 2.21144 0
M  V30 12506 H 1185.48 -3.69682 0.749347 0
M  V30 12507 H 1187.86 -2.94939 0.0973383 0
M  V30 12508 H 1187.94 -2.00344 1.59047 0
M  V30 12509 H 1187.59 -4.14255 2.93863 0
M  V30 12510 H 1187.52 -5.07099 1.41978 0
M  V30 12511 H 1190.01 -3.50944 1.40168 0
M  V30 12512 H 1190.32 -6.92129 3.43769 0
M  V30 12513 H 1188.67 -6.22759 3.08538 0
M  V30 12514 H 1191.86 -4.31514 1.8142 0
M  V30 12515 H 1192.03 -5.87107 2.74243 0
M  V30 12516 N 1185.44 -0.462799 -1.50652 0
M  V30 12517 C 1186.66 0.0952726 -2.07181 0
M  V30 12518 C 1187.09 1.33479 -1.32533 0
M  V30 12519 O 1186.44 1.77473 -0.370564 0
M  V30 12520 C 1186.49 0.370592 -3.58691 0
M  V30 12521 O 1185.6 1.4526 -3.85971 0
M  V30 12522 H 1184.94 -0.00932702 -0.663934 0
M  V30 12523 H 1187.47 -0.651458 -1.93951 0
M  V30 12524 H 1187.48 0.613551 -4.0336 0
M  V30 12525 H 1186.15 -0.535219 -4.12442 0
M  V30 12526 H 1184.73 1.1976 -3.53146 0
M  V30 12527 N 1186.91 1.56388 -0.195085 0
M  V30 12528 C 1187.85 2.14992 0.765096 0
M  V30 12529 C 1188.83 1.08663 1.20959 0
M  V30 12530 O 1190.01 1.36775 1.29711 0
M  V30 12531 C 1187.14 2.7088 2.03327 0
M  V30 12532 C 1186.18 3.89797 1.7309 0
M  V30 12533 S 1187.02 5.28236 0.879025 0
M  V30 12534 C 1188.17 5.87545 2.15734 0
M  V30 12535 H 1188.4 2.961 0.266902 0
M  V30 12536 H 1185.94 1.54387 0.0199116 0
M  V30 12537 H 1187.9 3.03723 2.76157 0
M  V30 12538 H 1186.56 1.89814 2.50259 0
M  V30 12539 H 1185.75 4.27312 2.67246 0
M  V30 12540 H 1185.35 3.57964 1.08342 0
M  V30 12541 H 1187.64 6.01907 3.10989 0
M  V30 12542 H 1188.59 6.84137 1.82652 0
M  V30 12543 H 1188.99 5.16151 2.2858 0
M  V30 12544 N 1188.39 -0.0785156 1.57404 0
M  V30 12545 C 1189.81 -0.433143 1.5361 0
M  V30 12546 C 1190.01 -1.79564 0.914283 0
M  V30 12547 O 1189.06 -2.47215 0.513899 0
M  V30 12548 C 1190.38 -0.380387 2.98284 0
M  V30 12549 C 1191.93 -0.461056 3.09586 0
M  V30 12550 C 1192.4 -0.438276 4.55898 0
M  V30 12551 N 1193.89 -0.498548 4.60509 0
M  V30 12552 C 1194.63 -0.503028 5.71189 0
M  V30 12553 N 1194.12 -0.462724 6.91253 0
M  V30 12554 N 1195.92 -0.549083 5.59412 0
M  V30 12555 H 1188.07 0.813724 1.96195 0
M  V30 12556 H 1190.33 0.304644 0.897717 0
M  V30 12557 H 1190.04 0.553932 3.4731 0
M  V30 12558 H 1189.91 -1.19313 3.57833 0
M  V30 12559 H 1192.3 -1.3858 2.60537 0
M  V30 12560 H 1192.38 0.380138 2.5296 0
M  V30 12561 H 1192.02 0.482588 5.05602 0
M  V30 12562 H 1191.95 -1.29691 5.1038 0
M  V30 12563 H 1194.44 -0.534219 3.74105 0
M  V30 12564 H 1194.76 -0.469883 7.7137 0
M  V30 12565 H 1193.1 -0.429515 6.93672 0
M  V30 12566 H 1196.29 -0.578215 4.64515 0
M  V30 12567 H 1196.46 -0.549105 6.45669 0
M  V30 12568 N 1189.87 -1.5367 -0.349747 0
M  V30 12569 C 1190.82 -1.81223 -1.42922 0
M  V30 12570 C 1191.79 -0.657536 -1.52531 0
M  V30 12571 O 1192.97 -0.90134 -1.68168 0
M  V30 12572 C 1190.11 -2.022 -2.79659 0
M  V30 12573 C 1189.23 -3.29915 -2.78891 0
M  V30 12574 C 1188.36 -3.40993 -4.07305 0
M  V30 12575 C 1187.4 -4.6268 -4.00741 0
M  V30 12576 N 1186.54 -4.70826 -5.20833 0
M  V30 12577 H 1191.38 -2.73328 -1.18727 0
M  V30 12578 H 1188.91 -1.35386 -0.57525 0
M  V30 12579 H 1190.87 -2.12351 -3.59114 0
M  V30 12580 H 1189.5 -1.13416 -3.0222 0
M  V30 12581 H 1188.55 -3.28637 -1.91577 0
M  V30 12582 H 1189.87 -4.19459 -2.69917 0
M  V30 12583 H 1189.02 -3.50542 -4.95182 0
M  V30 12584 H 1187.76 -2.49493 -4.19052 0
M  V30 12585 H 1186.76 -4.53215 -3.11249 0
M  V30 12586 H 1187.99 -5.55538 -3.90582 0
M  V30 12587 H 1185.93 -3.82233 -5.33136 0
M  V30 12588 H 1185.85 -5.54297 -5.14092 0
M  V30 12589 H 1187.12 -4.84677 -6.10499 0
M  V30 12590 N 1191.35 0.610423 -1.45298 0
M  V30 12591 C 1192.57 1.40112 -1.52917 0
M  V30 12592 C 1193 1.87404 -0.161696 0
M  V30 12593 O 1192.36 1.59973 0.853135 0
M  V30 12594 C 1192.4 2.58359 -2.51561 0
M  V30 12595 O 1191.51 3.58895 -2.03146 0
M  V30 12596 H 1190.85 0.41841 -0.515586 0
M  V30 12597 H 1193.38 0.743159 -1.90626 0
M  V30 12598 H 1193.39 3.0564 -2.70275 0
M  V30 12599 H 1192.06 2.23286 -3.50879 0
M  V30 12600 H 1190.64 3.18282 -1.94296 0
M  V30 12601 N 1192.83 1.32541 0.852676 0
M  V30 12602 C 1194.07 1.23214 1.607 0
M  V30 12603 C 1194.4 -0.205542 1.93411 0
M  V30 12604 O 1193.66 -1.15907 1.57683 0
M  V30 12605 C 1193.96 2.039 2.9353 0
M  V30 12606 C 1193.62 3.53237 2.8024 0
M  V30 12607 C 1192.28 3.93953 2.76323 0
M  V30 12608 C 1194.64 4.48194 2.6603 0
M  V30 12609 C 1191.96 5.27865 2.56077 0
M  V30 12610 C 1194.32 5.82251 2.47319 0
M  V30 12611 C 1192.98 6.22166 2.41796 0
M  V30 12612 H 1192.25 0.450873 0.588043 0
M  V30 12613 H 1194.9 1.63988 0.988954 0
M  V30 12614 H 1193.2 1.55861 3.59464 0
M  V30 12615 H 1194.9 1.94051 3.50921 0
M  V30 12616 H 1191.49 3.209 2.84114 0
M  V30 12617 H 1195.67 4.17656 2.681 0
M  V30 12618 H 1190.93 5.57845 2.50237 0
M  V30 12619 H 1195.1 6.55442 2.35305 0
M  V30 12620 H 1192.73 7.2587 2.25868 0
M  V30 12621 N 1194.3 -1.0692 1.15784 0
M  V30 12622 C 1195.58 -1.76367 0.845825 0
M  V30 12623 C 1195.96 -2.00594 -0.657672 0
M  V30 12624 O 1195.31 -1.62794 -1.60345 0
M  V30 12625 C 1195.52 -3.06913 1.66149 0
M  V30 12626 C 1196.87 -3.81181 1.87046 0
M  V30 12627 O 1197.89 -3.16737 1.62961 0
M  V30 12628 O 1196.75 -4.96936 2.27413 0
M  V30 12629 H 1193.84 -0.766095 0.311493 0
M  V30 12630 H 1196.39 -1.13246 1.26386 0
M  V30 12631 H 1195.16 -2.84924 2.68205 0
M  V30 12632 H 1194.79 -3.77767 1.24007 0
M  V30 12633 N 1195.78 -0.955326 -1.25345 0
M  V30 12634 C 1196.72 -0.420299 -2.24296 0
M  V30 12635 C 1197.69 0.498753 -1.54762 0
M  V30 12636 O 1198.88 0.432971 -1.8346 0
M  V30 12637 C 1196 0.394576 -3.36394 0
M  V30 12638 C 1195.05 -0.464973 -4.23958 0
M  V30 12639 S 1195.88 -1.89764 -5.00749 0
M  V30 12640 C 1197.04 -1.09121 -6.16314 0
M  V30 12641 H 1197.27 -1.25888 -2.69331 0
M  V30 12642 H 1194.81 -0.759449 -1.34431 0
M  V30 12643 H 1196.76 0.858788 -4.01416 0
M  V30 12644 H 1195.42 1.20799 -2.89942 0
M  V30 12645 H 1194.62 0.160055 -5.03746 0
M  V30 12646 H 1194.22 -0.864422 -3.63873 0
M  V30 12647 H 1196.51 -0.340218 -6.76645 0
M  V30 12648 H 1197.45 -1.86304 -6.83152 0
M  V30 12649 H 1197.86 -0.621033 -5.61073 0
M  V30 12650 N 1197.26 1.39987 -0.723979 0
M  V30 12651 C 1198.51 2.00334 -0.266587 0
M  V30 12652 C 1198.83 1.57714 1.14679 0
M  V30 12653 O 1198.1 0.82037 1.77895 0
M  V30 12654 H 1196.68 0.740861 -0.095573 0
M  V30 12655 H 1199.34 1.712 -0.931481 0
M  V30 12656 H 1198.44 3.10594 -0.306282 0
M  V30 12657 N 1198.74 0.470782 1.50404 0
M  V30 12658 C 1199.99 -0.0841494 2.01925 0
M  V30 12659 C 1200.31 -1.40244 1.35487 0
M  V30 12660 O 1199.58 -1.89409 0.500111 0
M  V30 12661 H 1198.16 -0.0340884 0.746222 0
M  V30 12662 H 1200.82 0.621133 1.84738 0
M  V30 12663 H 1199.92 -0.235877 3.11207 0
M  V30 12664 N 1200.22 -1.56282 0.203376 0
M  V30 12665 C 1201.13 -2.23086 -0.725922 0
M  V30 12666 C 1202.14 -1.23258 -1.22814 0
M  V30 12667 O 1203.32 -1.5602 -1.27357 0
M  V30 12668 C 1200.38 -2.88358 -1.92485 0
M  V30 12669 C 1199.45 -4.03479 -1.46639 0
M  V30 12670 C 1198.68 -4.65629 -2.60816 0
M  V30 12671 O 1198.9 -4.2672 -3.78506 0
M  V30 12672 O 1197.84 -5.54949 -2.33056 0
M  V30 12673 H 1201.66 -3.03124 -0.18694 0
M  V30 12674 H 1199.25 -1.49377 -0.0262829 0
M  V30 12675 H 1201.13 -3.29623 -2.62539 0
M  V30 12676 H 1199.8 -2.11294 -2.45228 0
M  V30 12677 H 1198.71 -3.66821 -0.734396 0
M  V30 12678 H 1200.04 -4.82232 -0.985535 0
M  V30 12679 N 1201.7 0.070167 -1.57444 0
M  V30 12680 C 1202.92 0.781894 -1.91557 0
M  V30 12681 C 1203.34 1.71037 -0.799489 0
M  V30 12682 O 1202.7 1.81082 0.227062 0
M  V30 12683 C 1202.75 1.57415 -3.25427 0
M  V30 12684 O 1202.47 0.682991 -4.32743 0
M  V30 12685 C 1203.97 2.38673 -3.73564 0
M  V30 12686 H 1201.19 0.222211 -0.633138 0
M  V30 12687 H 1203.73 0.0399504 -2.04461 0
M  V30 12688 H 1201.89 2.26835 -3.14045 0
M  V30 12689 H 1202.3 1.2342 -5.09772 0
M  V30 12690 H 1203.78 2.89716 -4.6986 0
M  V30 12691 H 1204.25 3.18269 -3.02657 0
M  V30 12692 H 1204.86 1.74405 -3.87896 0
M  V30 12693 N 1203.17 1.53854 0.341593 0
M  V30 12694 C 1204.1 1.84966 1.42513 0
M  V30 12695 C 1205.08 0.704944 1.54805 0
M  V30 12696 O 1206.27 0.957036 1.68981 0
M  V30 12697 C 1203.4 2.06099 2.79536 0
M  V30 12698 C 1202.35 3.21919 2.82049 0
M  V30 12699 C 1201.68 3.28389 4.21977 0
M  V30 12700 C 1202.98 4.59984 2.4741 0
M  V30 12701 H 1204.67 2.7571 1.16724 0
M  V30 12702 H 1202.22 1.32662 0.560073 0
M  V30 12703 H 1204.17 2.26448 3.55386 0
M  V30 12704 H 1202.9 1.12087 3.06764 0
M  V30 12705 H 1201.56 3.01429 2.08653 0
M  V30 12706 H 1201.2 2.3197 4.46317 0
M  V30 12707 H 1200.9 4.0622 4.24569 0
M  V30 12708 H 1202.43 3.50951 4.99666 0
M  V30 12709 H 1203.84 4.80334 3.12973 0
M  V30 12710 H 1202.24 5.40233 2.61282 0
M  V30 12711 H 1203.31 4.6346 1.42594 0
M  V30 12712 N 1204.65 -0.602709 1.4562 0
M  V30 12713 C 1205.58 -1.72374 1.5751 0
M  V30 12714 C 1206.56 -1.64669 0.426389 0
M  V30 12715 O 1207.75 -1.82994 0.650143 0
M  V30 12716 C 1204.88 -3.10987 1.5461 0
M  V30 12717 C 1203.83 -3.33507 2.68248 0
M  V30 12718 C 1203.16 -4.72443 2.50403 0
M  V30 12719 C 1204.46 -3.23285 4.10224 0
M  V30 12720 H 1206.15 -1.62679 2.51348 0
M  V30 12721 H 1203.7 -0.781217 1.20967 0
M  V30 12722 H 1205.65 -3.89214 1.61525 0
M  V30 12723 H 1204.37 -3.21533 0.573049 0
M  V30 12724 H 1203.03 -2.57672 2.60769 0
M  V30 12725 H 1202.68 -4.79729 1.51226 0
M  V30 12726 H 1202.38 -4.88466 3.26611 0
M  V30 12727 H 1203.91 -5.52864 2.59179 0
M  V30 12728 H 1205.32 -3.91381 4.1892 0
M  V30 12729 H 1203.72 -3.50837 4.86861 0
M  V30 12730 H 1204.79 -2.20652 4.31788 0
M  V30 12731 N 1206.13 -1.32992 -0.845635 0
M  V30 12732 C 1207.35 -1.27231 -1.6379 0
M  V30 12733 C 1207.78 0.155141 -1.87459 0
M  V30 12734 O 1207.14 1.10953 -1.43384 0
M  V30 12735 C 1207.19 -2.04629 -2.96916 0
M  V30 12736 O 1206.29 -1.40027 -3.879 0
M  V30 12737 H 1205.63 -0.438045 -0.499011 0
M  V30 12738 H 1208.16 -1.75448 -1.05257 0
M  V30 12739 H 1208.17 -2.15141 -3.46667 0
M  V30 12740 H 1206.85 -3.08425 -2.79011 0
M  V30 12741 H 1205.42 -1.38118 -3.46378 0
M  V30 12742 N 1207.61 1.06304 -1.1635 0
M  V30 12743 C 1208.85 1.79366 -0.94634 0
M  V30 12744 C 1209.19 1.86981 0.524569 0
M  V30 12745 O 1208.46 1.36134 1.38917 0
M  V30 12746 C 1208.74 3.23861 -1.57436 0
M  V30 12747 C 1208.6 3.24327 -3.1166 0
M  V30 12748 C 1209.92 4.21409 -1.26895 0
M  V30 12749 H 1207.04 0.65115 -0.345215 0
M  V30 12750 H 1209.68 1.24325 -1.43678 0
M  V30 12751 H 1207.83 3.70862 -1.15731 0
M  V30 12752 H 1209.5 2.85488 -3.62346 0
M  V30 12753 H 1207.74 2.62983 -3.44997 0
M  V30 12754 H 1208.41 4.2626 -3.50723 0
M  V30 12755 H 1210.89 3.8285 -1.62989 0
M  V30 12756 H 1209.77 5.20778 -1.73439 0
M  V30 12757 H 1210.03 4.41701 -0.187768 0
M  V30 12758 N 1209.09 0.96196 1.24836 0
M  V30 12759 C 1210.33 0.628484 1.94498 0
M  V30 12760 C 1210.69 -0.820337 1.73593 0
M  V30 12761 O 1211.89 -1.26376 2.37239 0
M  V30 12762 C 1210.16 0.986119 3.43527 0
M  V30 12763 S 1211.72 0.766324 4.32057 0
M  V30 12764 H 1208.54 0.230758 0.672511 0
M  V30 12765 H 1211.14 1.23769 1.51332 0
M  V30 12766 H 1209.84 2.03756 3.56247 0
M  V30 12767 H 1209.38 0.367454 3.9168 0
M  V30 12768 H 1211.39 -0.359227 4.94898 0
M  V30 12769 N 1210.56 -1.39601 0.731392 0
M  V30 12770 C 1211.97 -1.83424 0.348194 0
M  V30 12771 C 1212.33 -1.61106 -1.11979 0
M  V30 12772 O 1211.45 -1.1003 -1.86339 0
M  V30 12773 C 1212.05 -3.32982 0.6252 0
M  V30 12774 C 1210.6 -3.75238 0.295536 0
M  V30 12775 C 1209.75 -2.62642 0.88964 0
M  V30 12776 H 1212.7 -1.28644 0.929318 0
M  V30 12777 H 1212.72 -3.80357 -0.104254 0
M  V30 12778 H 1212.24 -3.49193 1.69368 0
M  V30 12779 H 1210.34 -3.64615 -0.767254 0
M  V30 12780 H 1210.45 -4.72781 0.775576 0
M  V30 12781 H 1208.81 -2.52726 0.316529 0
M  V30 12782 H 1209.6 -2.81661 1.96271 0
M  V30 12783 N 1212.04 -0.478751 -1.50152 0
M  V30 12784 C 1212.98 0.357584 -2.25381 0
M  V30 12785 C 1213.95 0.98965 -1.29014 0
M  V30 12786 O 1215.14 1.02409 -1.58255 0
M  V30 12787 C 1212.26 1.50167 -3.03591 0
M  V30 12788 C 1211.31 0.986215 -4.14941 0
M  V30 12789 S 1212.14 -0.105239 -5.35397 0
M  V30 12790 C 1213.3 1.04254 -6.17156 0
M  V30 12791 H 1213.53 -0.280985 -2.95969 0
M  V30 12792 H 1211.07 -0.263734 -1.52131 0
M  V30 12793 H 1213.02 2.15733 -3.49241 0
M  V30 12794 H 1211.68 2.11178 -2.32514 0
M  V30 12795 H 1210.88 1.84295 -4.69096 0
M  V30 12796 H 1210.48 0.408141 -3.71766 0
M  V30 12797 H 1212.77 1.95255 -6.48754 0
M  V30 12798 H 1213.71 0.540083 -7.06037 0
M  V30 12799 H 1214.12 1.29983 -5.49331 0
M  V30 12800 N 1213.52 1.56172 -0.211661 0
M  V30 12801 C 1214.77 1.98332 0.423332 0
M  V30 12802 C 1215.1 1.09895 1.60115 0
M  V30 12803 O 1214.37 0.154477 1.93886 0
M  V30 12804 C 1214.66 3.49495 0.86747 0
M  V30 12805 C 1214.51 4.48708 -0.313302 0
M  V30 12806 C 1215.83 4.04793 1.72716 0
M  V30 12807 H 1212.95 0.72107 0.152402 0
M  V30 12808 H 1215.59 1.87521 -0.305912 0
M  V30 12809 H 1213.74 3.58839 1.48885 0
M  V30 12810 H 1215.41 4.51385 -0.951291 0
M  V30 12811 H 1213.66 4.2299 -0.96238 0
M  V30 12812 H 1214.33 5.51985 0.0402402 0
M  V30 12813 H 1216.8 3.98332 1.20296 0
M  V30 12814 H 1215.68 5.10898 2.00684 0
M  V30 12815 H 1215.94 3.51067 2.68709 0
M  V30 12816 N 1215 -0.0618163 1.57479 0
M  V30 12817 C 1216.41 -0.612461 1.76368 0
M  V30 12818 C 1216.76 -1.77381 0.838466 0
M  V30 12819 O 1215.89 -2.16386 0.0250211 0
M  V30 12820 C 1216.48 -1.11782 3.19829 0
M  V30 12821 C 1215.04 -1.61424 3.40028 0
M  V30 12822 C 1214.19 -0.53795 2.72032 0
M  V30 12823 H 1217.14 0.164382 1.57846 0
M  V30 12824 H 1217.16 -1.98634 3.24538 0
M  V30 12825 H 1216.67 -0.272353 3.87143 0
M  V30 12826 H 1214.77 -2.48263 2.77842 0
M  V30 12827 H 1214.88 -1.68431 4.48517 0
M  V30 12828 H 1213.25 -0.985355 2.34868 0
M  V30 12829 H 1214.03 0.297495 3.42009 0
M  V30 12830 N 1216.48 -1.54033 -0.333429 0
M  V30 12831 C 1217.42 -1.82729 -1.40992 0
M  V30 12832 C 1218.39 -0.673677 -1.51825 0
M  V30 12833 O 1219.58 -0.919126 -1.67203 0
M  V30 12834 C 1216.72 -2.05155 -2.77498 0
M  V30 12835 C 1215.83 -3.32854 -2.75376 0
M  V30 12836 C 1214.97 -3.45294 -4.03665 0
M  V30 12837 C 1214.01 -4.66905 -3.95811 0
M  V30 12838 N 1213.14 -4.76323 -5.1581 0
M  V30 12839 H 1217.98 -2.74572 -1.15821 0
M  V30 12840 H 1215.52 -1.35988 -0.560859 0
M  V30 12841 H 1217.48 -2.16148 -3.56841 0
M  V30 12842 H 1216.11 -1.16615 -3.01 0
M  V30 12843 H 1215.16 -3.30651 -1.88081 0
M  V30 12844 H 1216.47 -4.22299 -2.65453 0
M  V30 12845 H 1215.63 -3.55775 -4.91436 0
M  V30 12846 H 1214.36 -2.53924 -4.16382 0
M  V30 12847 H 1213.37 -4.56491 -3.06425 0
M  V30 12848 H 1214.59 -5.59649 -3.84668 0
M  V30 12849 H 1212.54 -3.87866 -5.29052 0
M  V30 12850 H 1212.46 -5.59719 -5.08184 0
M  V30 12851 H 1213.73 -4.91125 -6.05324 0
M  V30 12852 N 1217.95 0.594978 -1.45938 0
M  V30 12853 C 1219.23 1.35477 -1.41086 0
M  V30 12854 C 1219.61 2.10917 -0.0879512 0
M  V30 12855 O 1218.96 2.08704 0.930323 0
M  V30 12856 C 1219.17 2.29106 -2.63271 0
M  V30 12857 C 1220.52 2.9132 -3.08898 0
M  V30 12858 O 1221.54 2.39423 -2.63733 0
M  V30 12859 O 1220.4 3.85553 -3.87313 0
M  V30 12860 H 1217.49 0.6081 -0.560485 0
M  V30 12861 H 1220.04 0.617016 -1.58085 0
M  V30 12862 H 1218.81 1.72707 -3.51124 0
M  V30 12863 H 1218.44 3.10241 -2.48669 0
M  V30 12864 N 1219.43 1.33438 0.838571 0
M  V30 12865 C 1220.36 1.26344 1.96365 0
M  V30 12866 C 1221.34 0.143956 1.6949 0
M  V30 12867 O 1222.53 0.333779 1.9131 0
M  V30 12868 C 1219.66 1.0022 3.32526 0
M  V30 12869 C 1218.61 2.08466 3.73799 0
M  V30 12870 C 1217.94 1.67555 5.07769 0
M  V30 12871 C 1219.24 3.50144 3.87552 0
M  V30 12872 H 1220.93 2.20478 2.02558 0
M  V30 12873 H 1218.48 1.06139 0.973168 0
M  V30 12874 H 1220.43 0.939068 4.10803 0
M  V30 12875 H 1219.16 0.0252514 3.2659 0
M  V30 12876 H 1217.81 2.13822 2.97785 0
M  V30 12877 H 1217.46 0.685619 4.98305 0
M  V30 12878 H 1217.16 2.39993 5.36356 0
M  V30 12879 H 1218.69 1.62708 5.88522 0
M  V30 12880 H 1220.1 3.47287 4.56141 0
M  V30 12881 H 1218.5 4.21069 4.27575 0
M  V30 12882 H 1219.57 3.88628 2.89994 0
M  V30 12883 N 1220.91 -1.05686 1.16912 0
M  V30 12884 C 1222.16 -1.78244 0.95254 0
M  V30 12885 C 1222.48 -1.87924 -0.520525 0
M  V30 12886 O 1221.75 -1.39239 -1.37802 0
M  V30 12887 H 1220.33 -0.660228 0.349439 0
M  V30 12888 H 1222.99 -1.27634 1.47294 0
M  V30 12889 H 1222.09 -2.80102 1.37657 0
M  V30 12890 N 1222.39 -0.968567 -1.24324 0
M  V30 12891 C 1223.34 -0.498817 -2.25345 0
M  V30 12892 C 1224.31 0.456082 -1.59716 0
M  V30 12893 O 1225.49 0.366254 -1.87252 0
M  V30 12894 C 1222.63 0.204027 -3.44496 0
M  V30 12895 C 1221.74 -0.789741 -4.2472 0
M  V30 12896 C 1220.88 -0.0629156 -5.31163 0
M  V30 12897 C 1219.92 -1.04669 -6.03084 0
M  V30 12898 N 1219.05 -0.349812 -7.01228 0
M  V30 12899 H 1223.89 -1.36511 -2.64894 0
M  V30 12900 H 1221.43 -0.684288 -1.30215 0
M  V30 12901 H 1223.39 0.628223 -4.12443 0
M  V30 12902 H 1222.02 1.03426 -3.05782 0
M  V30 12903 H 1221.07 -1.33237 -3.56303 0
M  V30 12904 H 1222.38 -1.53988 -4.74436 0
M  V30 12905 H 1221.54 0.419233 -6.0525 0
M  V30 12906 H 1220.28 0.719915 -4.82357 0
M  V30 12907 H 1219.28 -1.53971 -5.278 0
M  V30 12908 H 1220.51 -1.82998 -6.53979 0
M  V30 12909 H 1218.45 0.414026 -6.54692 0
M  V30 12910 H 1218.37 -1.03881 -7.48829 0
M  V30 12911 H 1219.64 0.11034 -7.79422 0
M  V30 12912 N 1223.87 1.39211 -0.738786 0
M  V30 12913 C 1225.09 2.05256 -0.297421 0
M  V30 12914 C 1225.52 1.55341 1.06069 0
M  V30 12915 O 1224.87 0.698823 1.67291 0
M  V30 12916 C 1224.92 3.59239 -0.312969 0
M  V30 12917 O 1224.03 4.06448 0.698112 0
M  V30 12918 H 1223.37 0.650245 -0.134454 0
M  V30 12919 H 1225.9 1.78173 -1.00577 0
M  V30 12920 H 1225.91 4.07691 -0.158675 0
M  V30 12921 H 1224.58 3.94931 -1.30394 0
M  V30 12922 H 1223.16 3.69401 0.509643 0
M  V30 12923 N 1225.34 0.486708 1.49896 0
M  V30 12924 C 1226.27 -0.288898 2.31706 0
M  V30 12925 C 1227.26 -0.975901 1.3932 0
M  V30 12926 O 1228.44 -0.970065 1.68236 0
M  V30 12927 C 1225.57 -1.36218 3.19471 0
M  V30 12928 C 1224.52 -0.795884 4.20535 0
M  V30 12929 C 1223.85 -1.96862 4.97141 0
M  V30 12930 C 1225.15 0.203421 5.21904 0
M  V30 12931 H 1226.84 0.393934 2.96797 0
M  V30 12932 H 1224.39 0.190894 1.42729 0
M  V30 12933 H 1226.34 -1.91238 3.75508 0
M  V30 12934 H 1225.07 -2.074 2.52295 0
M  V30 12935 H 1223.73 -0.267538 3.65622 0
M  V30 12936 H 1223.37 -2.66779 4.26425 0
M  V30 12937 H 1223.07 -1.59585 5.65514 0
M  V30 12938 H 1224.6 -2.52343 5.56017 0
M  V30 12939 H 1226.01 -0.258144 5.72719 0
M  V30 12940 H 1224.41 0.491273 5.98086 0
M  V30 12941 H 1225.48 1.12414 4.7169 0
M  V30 12942 N 1226.82 -1.56058 0.219941 0
M  V30 12943 C 1228.05 -2.031 -0.42014 0
M  V30 12944 C 1228.47 -1.09875 -1.52673 0
M  V30 12945 O 1227.83 -0.0866458 -1.81093 0
M  V30 12946 C 1227.88 -3.48389 -0.93047 0
M  V30 12947 O 1226.98 -3.583 -2.04192 0
M  V30 12948 H 1226.32 -0.657129 -0.0952772 0
M  V30 12949 H 1228.85 -2.01787 0.338105 0
M  V30 12950 H 1228.86 -3.88678 -1.2407 0
M  V30 12951 H 1227.54 -4.15725 -0.120539 0
M  V30 12952 H 1226.12 -3.29898 -1.73845 0
M  V30 12953 N 1228.3 0.053464 -1.57509 0
M  V30 12954 C 1229.55 0.750212 -1.88414 0
M  V30 12955 C 1229.88 1.76288 -0.814619 0
M  V30 12956 O 1229.16 1.93728 0.173136 0
M  V30 12957 C 1229.44 1.44176 -3.29978 0
M  V30 12958 C 1229.29 0.444263 -4.47601 0
M  V30 12959 C 1230.61 2.38207 -3.70061 0
M  V30 12960 H 1227.73 0.271266 -0.685262 0
M  V30 12961 H 1230.37 0.0131676 -1.89995 0
M  V30 12962 H 1228.52 2.07001 -3.2876 0
M  V30 12963 H 1230.19 -0.180182 -4.60948 0
M  V30 12964 H 1228.44 -0.238771 -4.33142 0
M  V30 12965 H 1229.11 0.966134 -5.43479 0
M  V30 12966 H 1231.58 1.85446 -3.7249 0
M  V30 12967 H 1230.46 2.83588 -4.69967 0
M  V30 12968 H 1230.72 3.23821 -3.00985 0
M  V30 12969 N 1229.78 1.54207 0.325255 0
M  V30 12970 C 1230.71 1.79812 1.42128 0
M  V30 12971 C 1231.72 0.68003 1.47917 0
M  V30 12972 O 1232.91 0.957107 1.50671 0
M  V30 12973 C 1230.01 1.89935 2.80674 0
M  V30 12974 C 1229.19 3.20078 2.98108 0
M  V30 12975 C 1228.25 3.20924 4.17006 0
M  V30 12976 O 1227.27 3.94571 4.10247 0
M  V30 12977 N 1228.47 2.44588 5.26457 0
M  V30 12978 H 1231.24 2.74396 1.20527 0
M  V30 12979 H 1228.8 1.53483 0.515233 0
M  V30 12980 H 1230.79 1.8793 3.58419 0
M  V30 12981 H 1229.36 1.02455 2.95333 0
M  V30 12982 H 1228.58 3.35057 2.07679 0
M  V30 12983 H 1229.87 4.06008 3.06651 0
M  V30 12984 H 1229.27 1.8434 5.34823 0
M  V30 12985 H 1227.82 2.48363 6.02627 0
M  V30 12986 N 1231.26 -0.58723 1.46251 0
M  V30 12987 C 1232.21 -1.71771 1.56836 0
M  V30 12988 C 1233.2 -1.63664 0.437096 0
M  V30 12989 O 1234.41 -1.69212 0.613797 0
M  V30 12990 H 1230.78 -0.567841 0.493012 0
M  V30 12991 H 1232.75 -1.59974 2.51895 0
M  V30 12992 C 1231.5 -3.10159 1.57152 0
M  V30 12993 H 1230.82 -3.17066 2.43535 0
M  V30 12994 H 1232.26 -3.89032 1.68613 0
M  V30 12995 C 1230.72 -3.35567 0.299374 0
M  V30 12996 O 1231.25 -3.97006 -0.612291 0
M  V30 12997 N 1229.46 -2.89987 0.188695 0
M  V30 12998 H 1229.01 -2.4017 0.93147 0
M  V30 12999 H 1228.96 -3.0736 -0.661612 0
M  V30 13000 N 1232.74 -1.33881 -0.831482 0
M  V30 13001 C 1233.67 -1.27384 -1.95693 0
M  V30 13002 C 1234.65 -0.152943 -1.69411 0
M  V30 13003 O 1235.83 -0.34392 -1.9113 0
M  V30 13004 C 1232.96 -1.01982 -3.31989 0
M  V30 13005 C 1231.92 -2.10445 -3.72689 0
M  V30 13006 C 1231.24 -1.70245 -5.06873 0
M  V30 13007 C 1232.54 -3.52194 -3.8569 0
M  V30 13008 H 1234.24 -2.21549 -2.01386 0
M  V30 13009 H 1231.78 -1.06653 -0.967526 0
M  V30 13010 H 1233.73 -0.960841 -4.103 0
M  V30 13011 H 1232.46 -0.0425709 -3.26572 0
M  V30 13012 H 1231.12 -2.15398 -2.96647 0
M  V30 13013 H 1230.77 -0.712036 -4.97935 0
M  V30 13014 H 1230.47 -2.42834 -5.35075 0
M  V30 13015 H 1231.99 -1.65827 -5.87651 0
M  V30 13016 H 1233.4 -3.49701 -4.54293 0
M  V30 13017 H 1231.8 -4.23331 -4.25336 0
M  V30 13018 H 1232.87 -3.9016 -2.87929 0
M  V30 13019 N 1234.21 1.05064 -1.1747 0
M  V30 13020 C 1235.46 1.77481 -0.958301 0
M  V30 13021 C 1235.78 1.88725 0.51401 0
M  V30 13022 O 1236.98 2.57895 0.848657 0
M  V30 13023 C 1235.44 3.19048 -1.66543 0
M  V30 13024 C 1235.05 3.1593 -3.17636 0
M  V30 13025 C 1236.79 3.95912 -1.53146 0
M  V30 13026 C 1234.7 4.52293 -3.81032 0
M  V30 13027 H 1233.63 0.665247 -0.354913 0
M  V30 13028 H 1236.28 1.17751 -1.40737 0
M  V30 13029 H 1234.66 3.79113 -1.1441 0
M  V30 13030 H 1235.83 2.65375 -3.76713 0
M  V30 13031 H 1234.15 2.52564 -3.31059 0
M  V30 13032 H 1236.75 4.96737 -1.9788 0
M  V30 13033 H 1237.09 4.13498 -0.482203 0
M  V30 13034 H 1237.62 3.42399 -2.02504 0
M  V30 13035 H 1234.36 4.39913 -4.8596 0
M  V30 13036 H 1233.88 5.02991 -3.26741 0
M  V30 13037 H 1235.56 5.2123 -3.83312 0
M  V30 13038 N 1235.69 0.975146 1.23809 0
M  V30 13039 C 1237.11 0.682899 1.44252 0
M  V30 13040 C 1237.31 -0.752739 1.86912 0
M  V30 13041 O 1236.36 -1.52579 2.01186 0
M  V30 13042 C 1237.68 1.67335 2.49839 0
M  V30 13043 C 1239.22 1.6868 2.63659 0
M  V30 13044 C 1239.7 2.66542 3.72451 0
M  V30 13045 N 1241.19 2.65028 3.79887 0
M  V30 13046 C 1241.93 3.37421 4.63611 0
M  V30 13047 N 1241.42 4.19355 5.51465 0
M  V30 13048 N 1243.21 3.2621 4.57759 0
M  V30 13049 H 1235.37 1.9026 0.94418 0
M  V30 13050 H 1237.63 0.819543 0.476502 0
M  V30 13051 H 1237.33 2.69978 2.25399 0
M  V30 13052 H 1237.21 1.45201 3.48133 0
M  V30 13053 H 1239.6 0.667438 2.87453 0
M  V30 13054 H 1239.68 1.94878 1.65699 0
M  V30 13055 H 1239.32 3.68617 3.49405 0
M  V30 13056 H 1239.25 2.3762 4.69941 0
M  V30 13057 H 1241.74 2.05562 3.171 0
M  V30 13058 H 1242.05 4.71461 6.12327 0
M  V30 13059 H 1240.4 4.23447 5.51106 0
M  V30 13060 H 1243.59 2.61656 3.88142 0
M  V30 13061 H 1243.76 3.82889 5.22781 0
M  V30 13062 N 1237.17 -1.38817 0.746158 0
M  V30 13063 C 1238.39 -2.05096 0.308302 0
M  V30 13064 C 1238.82 -1.55902 -1.05244 0
M  V30 13065 O 1238.18 -0.707685 -1.66918 0
M  V30 13066 C 1238.23 -3.59068 0.332016 0
M  V30 13067 O 1237.33 -4.06813 -0.676547 0
M  V30 13068 H 1236.67 -0.649523 0.1379 0
M  V30 13069 H 1239.2 -1.77637 1.0152 0
M  V30 13070 H 1239.21 -4.07601 0.180293 0
M  V30 13071 H 1237.89 -3.94234 1.32487 0
M  V30 13072 H 1236.46 -3.69666 -0.490046 0
M  V30 13073 N 1238.65 -0.49465 -1.49636 0
M  V30 13074 C 1239.88 0.0491129 -2.06842 0
M  V30 13075 C 1240.29 1.31395 -1.35576 0
M  V30 13076 O 1239.65 1.7731 -0.432135 0
M  V30 13077 C 1239.7 0.313171 -3.60141 0
M  V30 13078 O 1239.42 -0.90152 -4.28724 0
M  V30 13079 C 1240.92 0.901284 -4.34041 0
M  V30 13080 H 1238.14 -0.0176186 -0.670769 0
M  V30 13081 H 1240.68 -0.690188 -1.92501 0
M  V30 13082 H 1238.84 1.00244 -3.74206 0
M  V30 13083 H 1239.25 -0.660477 -5.20325 0
M  V30 13084 H 1240.73 1.03567 -5.42197 0
M  V30 13085 H 1241.2 1.89746 -3.96097 0
M  V30 13086 H 1241.81 0.249677 -4.24566 0
M  V30 13087 N 1240.13 1.55939 -0.228214 0
M  V30 13088 C 1241.04 2.24213 0.690339 0
M  V30 13089 C 1242.05 1.25197 1.20838 0
M  V30 13090 O 1243.23 1.58026 1.24859 0
M  V30 13091 C 1240.29 2.91384 1.87873 0
M  V30 13092 C 1239.35 4.05761 1.40201 0
M  V30 13093 C 1238.59 4.6972 2.53376 0
M  V30 13094 O 1238.81 4.32687 3.71669 0
M  V30 13095 O 1237.74 5.58587 2.24198 0
M  V30 13096 H 1241.57 3.03383 0.138692 0
M  V30 13097 H 1239.15 1.494 0.00251504 0
M  V30 13098 H 1241.04 3.33758 2.57262 0
M  V30 13099 H 1239.71 2.15168 2.41835 0
M  V30 13100 H 1238.62 3.67943 0.675945 0
M  V30 13101 H 1239.95 4.83739 0.908691 0
M  V30 13102 N 1241.6 -0.0451101 1.57535 0
M  V30 13103 C 1242.51 -1.06796 2.08882 0
M  V30 13104 C 1243.53 -1.40682 1.02394 0
M  V30 13105 O 1244.71 -1.50324 1.34033 0
M  V30 13106 C 1241.77 -2.35467 2.54472 0
M  V30 13107 C 1240.83 -2.0831 3.75374 0
M  V30 13108 C 1240.07 -3.30846 4.1878 0
M  V30 13109 O 1240.29 -4.40945 3.61834 0
M  V30 13110 O 1239.22 -3.17488 5.11356 0
M  V30 13111 H 1243.05 -0.661658 2.96405 0
M  V30 13112 H 1240.63 -0.26104 1.47102 0
M  V30 13113 H 1242.52 -3.11143 2.84198 0
M  V30 13114 H 1241.19 -2.75425 1.70068 0
M  V30 13115 H 1240.1 -1.30254 3.50692 0
M  V30 13116 H 1241.43 -1.73218 4.60713 0
M  V30 13117 N 1243.08 -1.54377 -0.317073 0
M  V30 13118 C 1244.01 -1.8721 -1.39552 0
M  V30 13119 C 1244.99 -0.729483 -1.53664 0
M  V30 13120 O 1246.18 -0.983799 -1.67437 0
M  V30 13121 C 1243.31 -2.1052 -2.76222 0
M  V30 13122 C 1242.26 -3.26366 -2.76892 0
M  V30 13123 C 1241.59 -3.35061 -4.16699 0
M  V30 13124 C 1242.89 -4.63862 -2.40061 0
M  V30 13125 H 1244.58 -2.77532 -1.12323 0
M  V30 13126 H 1242.13 -1.33536 -0.538897 0
M  V30 13127 H 1244.08 -2.32073 -3.51739 0
M  V30 13128 H 1242.81 -1.16953 -3.04942 0
M  V30 13129 H 1241.46 -3.0471 -2.03831 0
M  V30 13130 H 1241.11 -2.39041 -4.4257 0
M  V30 13131 H 1240.81 -4.12923 -4.18053 0
M  V30 13132 H 1242.34 -3.58856 -4.94019 0
M  V30 13133 H 1243.75 -4.85252 -3.05292 0
M  V30 13134 H 1242.15 -5.44321 -2.52655 0
M  V30 13135 H 1243.22 -4.6567 -1.35202 0
M  V30 13136 N 1244.56 0.579466 -1.4656 0
M  V30 13137 C 1245.51 1.70937 -1.57744 0
M  V30 13138 C 1246.5 1.6343 -0.44577 0
M  V30 13139 O 1247.71 1.68884 -0.622762 0
M  V30 13140 H 1244.08 0.565218 -0.496017 0
M  V30 13141 H 1246.05 1.58636 -2.52739 0
M  V30 13142 C 1244.8 3.09321 -1.58794 0
M  V30 13143 H 1244.13 3.1577 -2.45213 0
M  V30 13144 H 1245.57 3.88132 -1.70674 0
M  V30 13145 C 1244.03 3.35404 -0.317165 0
M  V30 13146 O 1244.56 3.97325 0.591228 0
M  V30 13147 N 1242.76 2.89883 -0.204071 0
M  V30 13148 H 1242.31 2.39672 -0.944194 0
M  V30 13149 H 1242.27 3.07706 0.645303 0
M  V30 13150 N 1246.04 1.3432 0.824371 0
M  V30 13151 C 1247.29 1.25938 1.57552 0
M  V30 13152 C 1247.6 -0.169298 1.94866 0
M  V30 13153 O 1248.81 -0.375262 2.68894 0
M  V30 13154 C 1247.26 2.20757 2.84244 0
M  V30 13155 C 1246.87 3.68873 2.54237 0
M  V30 13156 C 1248.61 2.21279 3.62265 0
M  V30 13157 C 1246.52 4.55566 3.77113 0
M  V30 13158 H 1245.45 0.467832 0.591311 0
M  V30 13159 H 1248.1 1.59476 0.907724 0
M  V30 13160 H 1246.48 1.80168 3.52641 0
M  V30 13161 H 1247.66 4.17991 1.93959 0
M  V30 13162 H 1245.97 3.70784 1.89494 0
M  V30 13163 H 1248.57 2.83272 4.53499 0
M  V30 13164 H 1248.91 1.2117 3.98276 0
M  V30 13165 H 1249.45 2.60305 3.00809 0
M  V30 13166 H 1246.19 5.56605 3.46223 0
M  V30 13167 H 1245.71 4.11184 4.36678 0
M  V30 13168 H 1247.38 4.701 4.44539 0
M  V30 13169 N 1247.52 -1.0444 1.18026 0
M  V30 13170 C 1248.45 -2.12388 0.86162 0
M  V30 13171 C 1249.46 -1.62204 -0.139196 0
M  V30 13172 O 1250.65 -1.78282 0.0881334 0
M  V30 13173 C 1247.75 -3.37859 0.265407 0
M  V30 13174 C 1246.92 -4.17292 1.31096 0
M  V30 13175 C 1245.98 -5.21096 0.731121 0
M  V30 13176 O 1245.01 -5.5159 1.40488 0
M  V30 13177 N 1246.21 -5.78568 -0.473194 0
M  V30 13178 H 1248.98 -2.40317 1.79074 0
M  V30 13179 H 1246.54 -1.20601 1.08014 0
M  V30 13180 H 1248.53 -4.04472 -0.135976 0
M  V30 13181 H 1247.1 -3.07403 -0.567658 0
M  V30 13182 H 1246.32 -3.46057 1.8878 0
M  V30 13183 H 1247.61 -4.67158 2.01596 0
M  V30 13184 H 1247 -5.56088 -1.03839 0
M  V30 13185 H 1245.56 -6.46665 -0.816545 0
M  V30 13186 N 1248.99 -0.981699 -1.2329 0
M  V30 13187 C 1249.92 -0.542441 -2.27112 0
M  V30 13188 C 1250.91 0.425034 -1.64704 0
M  V30 13189 O 1252.09 0.318114 -1.91577 0
M  V30 13190 C 1249.22 0.154668 -3.46955 0
M  V30 13191 C 1248.17 -0.73022 -4.21725 0
M  V30 13192 C 1247.5 0.0991766 -5.34608 0
M  V30 13193 C 1248.8 -2.02166 -4.81587 0
M  V30 13194 H 1250.49 -1.41024 -2.64107 0
M  V30 13195 H 1248.04 -0.679544 -1.26957 0
M  V30 13196 H 1249.99 0.473281 -4.18734 0
M  V30 13197 H 1248.72 1.05693 -3.09025 0
M  V30 13198 H 1247.38 -1.03231 -3.51765 0
M  V30 13199 H 1247.02 1.00201 -4.92919 0
M  V30 13200 H 1246.72 -0.489788 -5.85555 0
M  V30 13201 H 1248.25 0.412141 -6.09207 0
M  V30 13202 H 1249.66 -1.76773 -5.45366 0
M  V30 13203 H 1248.06 -2.55851 -5.42826 0
M  V30 13204 H 1249.13 -2.70766 -4.02261 0
M  V30 13205 N 1250.47 1.3842 -0.753509 0
M  V30 13206 C 1251.7 2.04929 -0.319174 0
M  V30 13207 C 1252.12 1.56457 1.04416 0
M  V30 13208 O 1251.48 0.716527 1.6654 0
M  V30 13209 C 1251.53 3.58887 -0.351054 0
M  V30 13210 O 1250.63 4.07166 0.654963 0
M  V30 13211 H 1249.97 0.648782 -0.141343 0
M  V30 13212 H 1252.5 1.77096 -1.02461 0
M  V30 13213 H 1252.51 4.075 -0.201907 0
M  V30 13214 H 1251.19 3.93525 -1.34576 0
M  V30 13215 H 1249.77 3.69921 0.470435 0
M  V30 13216 N 1251.95 0.502579 1.49372 0
M  V30 13217 C 1253.2 -0.0412993 2.02058 0
M  V30 13218 C 1253.52 -1.37338 1.38431 0
M  V30 13219 O 1252.79 -1.88305 0.540175 0
M  V30 13220 H 1251.37 -0.0182522 0.746777 0
M  V30 13221 H 1254.03 0.660179 1.83378 0
M  V30 13222 H 1253.13 -0.169812 3.11638 0
M  V30 13223 N 1253.43 -1.55816 0.23648 0
M  V30 13224 C 1254.65 -2.03534 -0.398575 0
M  V30 13225 C 1255.08 -1.11488 -1.51499 0
M  V30 13226 O 1254.44 -0.105848 -1.80991 0
M  V30 13227 C 1254.48 -3.49356 -0.893467 0
M  V30 13228 O 1253.59 -3.60446 -2.00381 0
M  V30 13229 H 1252.93 -0.658102 -0.0883021 0
M  V30 13230 H 1255.46 -2.01417 0.359488 0
M  V30 13231 H 1255.47 -3.89972 -1.19941 0
M  V30 13232 H 1254.14 -4.1583 -0.0764388 0
M  V30 13233 H 1252.72 -3.31723 -1.70336 0
M  V30 13234 N 1254.91 0.036755 -1.57557 0
M  V30 13235 C 1255.82 1.05687 -2.09446 0
M  V30 13236 C 1256.83 1.40137 -1.03139 0
M  V30 13237 O 1258.01 1.49611 -1.34828 0
M  V30 13238 C 1255.07 2.34114 -2.55717 0
M  V30 13239 C 1254.13 2.06316 -3.76473 0
M  V30 13240 C 1253.37 3.2862 -4.20529 0
M  V30 13241 O 1253.59 4.3902 -3.64167 0
M  V30 13242 O 1252.52 3.14772 -5.13033 0
M  V30 13243 H 1256.35 0.64593 -2.96751 0
M  V30 13244 H 1253.94 0.253235 -1.47238 0
M  V30 13245 H 1255.82 3.09631 -2.85844 0
M  V30 13246 H 1254.49 2.74519 -1.71526 0
M  V30 13247 H 1253.4 1.28392 -3.51378 0
M  V30 13248 H 1254.73 1.70772 -4.61625 0
M  V30 13249 N 1256.39 1.54543 0.308881 0
M  V30 13250 C 1257.61 1.77753 1.06857 0
M  V30 13251 C 1258.04 0.531616 1.80431 0
M  V30 13252 O 1257.39 -0.517513 1.73757 0
M  V30 13253 C 1257.44 2.97968 2.03094 0
M  V30 13254 O 1256.55 2.70541 3.11257 0
M  V30 13255 H 1255.89 0.588576 0.307368 0
M  V30 13256 H 1258.42 2.01607 0.348703 0
M  V30 13257 H 1258.43 3.25722 2.45702 0
M  V30 13258 H 1257.1 3.88314 1.48948 0
M  V30 13259 H 1255.68 2.53781 2.7322 0
M  V30 13260 N 1257.86 -0.571685 1.46866 0
M  V30 13261 C 1259.09 -1.36008 1.56578 0
M  V30 13262 C 1259.51 -1.86909 0.211326 0
M  V30 13263 O 1258.87 -1.62179 -0.810421 0
M  V30 13264 C 1258.92 -2.51598 2.58323 0
M  V30 13265 O 1258.02 -3.53383 2.1259 0
M  V30 13266 H 1257.36 -0.404593 0.526498 0
M  V30 13267 H 1259.89 -0.692357 1.92529 0
M  V30 13268 H 1259.9 -2.98366 2.78283 0
M  V30 13269 H 1258.58 -2.13904 3.56676 0
M  V30 13270 H 1257.16 -3.13019 2.02666 0
M  V30 13271 N 1259.34 -1.34755 -0.817236 0
M  V30 13272 C 1260.59 -1.2718 -1.57066 0
M  V30 13273 C 1260.91 0.156531 -1.94371 0
M  V30 13274 O 1260.18 1.09049 -1.62742 0
M  V30 13275 H 1258.76 -0.467755 -0.582421 0
M  V30 13276 H 1261.42 -1.68734 -0.975438 0
M  V30 13277 H 1260.52 -1.88043 -2.49091 0
M  V30 13278 N 1260.82 1.03812 -1.18578 0
M  V30 13279 C 1262.04 1.8124 -1.00831 0
M  V30 13280 C 1262.47 1.82917 0.43853 0
M  V30 13281 O 1261.83 1.24835 1.31476 0
M  V30 13282 C 1261.88 3.24592 -1.57075 0
M  V30 13283 O 1260.98 4.04688 -0.793824 0
M  V30 13284 H 1260.32 0.559846 -0.357028 0
M  V30 13285 H 1262.85 1.30724 -1.57393 0
M  V30 13286 H 1262.86 3.75363 -1.59896 0
M  V30 13287 H 1261.54 3.22686 -2.62387 0
M  V30 13288 H 1260.11 3.63359 -0.838134 0
M  V30 13289 N 1262.3 0.988223 1.22768 0
M  V30 13290 C 1263.71 0.69816 1.4352 0
M  V30 13291 C 1263.91 -0.732872 1.877 0
M  V30 13292 O 1262.97 -1.50436 2.02793 0
M  V30 13293 C 1264.28 1.69975 2.4805 0
M  V30 13294 C 1265.83 1.71467 2.61855 0
M  V30 13295 C 1266.31 2.70477 3.69603 0
M  V30 13296 N 1267.8 2.69043 3.77055 0
M  V30 13297 C 1268.53 3.42319 4.60006 0
M  V30 13298 N 1268.03 4.2518 5.46986 0
M  V30 13299 N 1269.82 3.31047 4.54274 0
M  V30 13300 H 1261.97 1.91251 0.923948 0
M  V30 13301 H 1264.23 0.82455 0.467783 0
M  V30 13302 H 1263.94 2.72354 2.22523 0
M  V30 13303 H 1263.81 1.48885 3.46573 0
M  V30 13304 H 1266.2 0.697889 2.86729 0
M  V30 13305 H 1266.28 1.96625 1.63622 0
M  V30 13306 H 1265.93 3.72302 3.45476 0
M  V30 13307 H 1265.86 2.42591 4.67394 0
M  V30 13308 H 1268.35 2.08914 3.14902 0
M  V30 13309 H 1268.66 4.77929 6.07292 0
M  V30 13310 H 1267.01 4.29268 5.46584 0
M  V30 13311 H 1270.2 2.65758 3.85345 0
M  V30 13312 H 1270.37 3.88413 5.1869 0
M  V30 13313 N 1263.78 -1.38018 0.760839 0
M  V30 13314 C 1265.02 -1.99557 0.319609 0
M  V30 13315 C 1265.34 -1.60699 -1.10457 0
M  V30 13316 O 1264.61 -0.867248 -1.75658 0
M  V30 13317 H 1263.19 -0.738066 0.115182 0
M  V30 13318 H 1265.86 -1.6867 0.976544 0
M  V30 13319 H 1264.95 -3.09672 0.388523 0
M  V30 13320 N 1265.25 -0.510493 -1.49103 0
M  V30 13321 C 1266.48 0.0293113 -2.07379 0
M  V30 13322 C 1266.9 1.29195 -1.36713 0
M  V30 13323 O 1266.26 1.76204 -0.426838 0
M  V30 13324 C 1266.31 0.25629 -3.59688 0
M  V30 13325 O 1265.41 1.32907 -3.90397 0
M  V30 13326 H 1264.75 -0.0304449 -0.663302 0
M  V30 13327 H 1267.28 -0.712832 -1.91781 0
M  V30 13328 H 1267.29 0.484915 -4.05108 0
M  V30 13329 H 1265.97 -0.666163 -4.1053 0
M  V30 13330 H 1264.55 1.08464 -3.56777 0
M  V30 13331 N 1266.73 1.55688 -0.24474 0
M  V30 13332 C 1267.66 2.18616 0.68844 0
M  V30 13333 C 1268.68 1.16185 1.14039 0
M  V30 13334 O 1269.87 1.43059 1.06754 0
M  V30 13335 C 1266.97 2.77375 1.94721 0
M  V30 13336 C 1266.14 4.05204 1.64706 0
M  V30 13337 C 1265.2 4.48302 2.75521 0
M  V30 13338 O 1264.22 5.14723 2.42999 0
M  V30 13339 N 1265.43 4.15907 4.04971 0
M  V30 13340 H 1268.19 2.99324 0.150018 0
M  V30 13341 H 1265.75 1.61771 -0.0646183 0
M  V30 13342 H 1267.74 3.03165 2.68091 0
M  V30 13343 H 1266.31 2.00837 2.39548 0
M  V30 13344 H 1265.53 3.87026 0.74865 0
M  V30 13345 H 1266.82 4.8855 1.42114 0
M  V30 13346 H 1266.22 3.62579 4.34227 0
M  V30 13347 H 1264.78 4.46538 4.74813 0
M  V30 13348 N 1268.21 -0.0283989 1.57574 0
M  V30 13349 C 1269.49 -0.754527 1.80461 0
M  V30 13350 C 1269.87 -1.93539 0.842966 0
M  V30 13351 O 1269.21 -2.28212 -0.114714 0
M  V30 13352 C 1269.42 -1.18694 3.28196 0
M  V30 13353 C 1270.77 -1.60257 3.93196 0
M  V30 13354 O 1271.8 -1.2815 3.32349 0
M  V30 13355 O 1270.66 -2.19853 5.00327 0
M  V30 13356 H 1267.75 -0.364936 0.742126 0
M  V30 13357 H 1270.3 -0.00512589 1.69699 0
M  V30 13358 H 1269.07 -0.34398 3.89785 0
M  V30 13359 H 1268.69 -1.99633 3.43849 0
M  V30 13360 N 1269.69 -1.54705 -0.300681 0
M  V30 13361 C 1270.93 -1.74001 -1.03585 0
M  V30 13362 C 1271.26 -0.525972 -1.87253 0
M  V30 13363 O 1270.52 0.492068 -1.89413 0
M  V30 13364 C 1270.82 -2.98173 -1.97047 0
M  V30 13365 C 1270.48 -4.31948 -1.29352 0
M  V30 13366 C 1269.14 -4.68312 -1.10623 0
M  V30 13367 C 1271.5 -5.14874 -0.809594 0
M  V30 13368 C 1268.82 -5.85181 -0.42185 0
M  V30 13369 C 1271.18 -6.32447 -0.138935 0
M  V30 13370 C 1269.84 -6.67473 0.0603129 0
M  V30 13371 H 1269.11 -0.636716 -0.379044 0
M  V30 13372 H 1271.76 -1.88963 -0.310697 0
M  V30 13373 H 1270.06 -2.77994 -2.76091 0
M  V30 13374 H 1271.76 -3.10297 -2.54001 0
M  V30 13375 H 1268.35 -4.0335 -1.44937 0
M  V30 13376 H 1272.53 -4.87278 -0.942006 0
M  V30 13377 H 1267.79 -6.10862 -0.256494 0
M  V30 13378 H 1271.96 -6.95973 0.243939 0
M  V30 13379 H 1269.59 -7.57887 0.592626 0
M  V30 13380 N 1271.17 0.563888 -1.47167 0
M  V30 13381 C 1272.4 1.34498 -1.56825 0
M  V30 13382 C 1272.8 1.87974 -0.215011 0
M  V30 13383 O 1272.15 1.65323 0.80087 0
M  V30 13384 C 1272.21 2.55602 -2.528 0
M  V30 13385 C 1271.87 2.23459 -3.98642 0
M  V30 13386 C 1272.87 1.81155 -4.87318 0
M  V30 13387 C 1270.56 2.35024 -4.43925 0
M  V30 13388 C 1272.55 1.50835 -6.19296 0
M  V30 13389 C 1270.24 2.04317 -5.75932 0
M  V30 13390 C 1271.23 1.6229 -6.63439 0
M  V30 13391 O 1270.92 1.31969 -7.92994 0
M  V30 13392 H 1270.65 0.416551 -0.532411 0
M  V30 13393 H 1273.21 0.690611 -1.93442 0
M  V30 13394 H 1271.44 3.23907 -2.11237 0
M  V30 13395 H 1273.13 3.17677 -2.52659 0
M  V30 13396 H 1273.89 1.71719 -4.53583 0
M  V30 13397 H 1269.77 2.66696 -3.76024 0
M  V30 13398 H 1273.32 1.17958 -6.87555 0
M  V30 13399 H 1269.21 2.13383 -6.09211 0
M  V30 13400 H 1269.98 1.45656 -8.05436 0
M  V30 13401 N 1272.64 1.35187 0.810078 0
M  V30 13402 C 1274.06 1.25329 1.38381 0
M  V30 13403 C 1274.41 -0.115799 1.95858 0
M  V30 13404 O 1273.53 -1.01663 1.91033 0
M  V30 13405 C 1274.13 2.2693 2.51572 0
M  V30 13406 C 1272.69 2.20824 3.04818 0
M  V30 13407 C 1271.83 2.1283 1.7776 0
M  V30 13408 H 1274.78 1.46366 0.613402 0
M  V30 13409 H 1274.8 1.89375 3.30026 0
M  V30 13410 H 1274.32 3.26563 2.09709 0
M  V30 13411 H 1272.42 1.24589 3.51153 0
M  V30 13412 H 1272.53 3.12637 3.63036 0
M  V30 13413 H 1270.89 1.58752 1.99173 0
M  V30 13414 H 1271.68 3.14318 1.38054 0
M  V30 13415 N 1274.12 -1.03182 1.19127 0
M  V30 13416 C 1275.07 -2.11394 0.926339 0
M  V30 13417 C 1276.04 -1.65528 -0.137703 0
M  V30 13418 O 1277.22 -1.908 0.00381804 0
M  V30 13419 C 1274.36 -3.41913 0.467894 0
M  V30 13420 C 1273.48 -4.01343 1.59837 0
M  V30 13421 C 1272.61 -5.1986 1.09175 0
M  V30 13422 C 1271.65 -5.71339 2.19632 0
M  V30 13423 N 1270.79 -6.81133 1.703 0
M  V30 13424 H 1275.63 -2.33393 1.85288 0
M  V30 13425 H 1273.17 -1.14473 0.923811 0
M  V30 13426 H 1275.12 -4.16796 0.183513 0
M  V30 13427 H 1273.75 -3.20034 -0.421656 0
M  V30 13428 H 1272.81 -3.23702 1.99803 0
M  V30 13429 H 1274.12 -4.35568 2.43068 0
M  V30 13430 H 1273.27 -6.0189 0.762427 0
M  V30 13431 H 1272.01 -4.87161 0.22914 0
M  V30 13432 H 1271.02 -4.87923 2.53399 0
M  V30 13433 H 1272.24 -6.06078 3.06344 0
M  V30 13434 H 1270.19 -6.50293 0.863415 0
M  V30 13435 H 1270.1 -7.1447 2.47122 0
M  V30 13436 H 1271.37 -7.66766 1.40321 0
M  V30 13437 N 1275.6 -0.99472 -1.22242 0
M  V30 13438 C 1276.85 -0.682256 -1.91616 0
M  V30 13439 C 1277.2 0.777397 -1.75995 0
M  V30 13440 O 1276.49 1.55509 -1.11926 0
M  V30 13441 C 1276.69 -1.02561 -3.42368 0
M  V30 13442 C 1276.52 -2.5171 -3.72656 0
M  V30 13443 C 1275.29 -3.18144 -3.92571 0
M  V30 13444 C 1277.49 -3.49835 -3.76988 0
M  V30 13445 N 1275.47 -4.5675 -4.10186 0
M  V30 13446 C 1276.84 -4.73907 -3.99765 0
M  V30 13447 C 1278.89 -3.44116 -3.59845 0
M  V30 13448 C 1277.6 -5.92957 -4.07179 0
M  V30 13449 C 1279.62 -4.62545 -3.68519 0
M  V30 13450 C 1278.98 -5.85417 -3.91748 0
M  V30 13451 H 1275.08 -0.300961 -0.721766 0
M  V30 13452 H 1277.67 -1.2751 -1.47137 0
M  V30 13453 H 1275.84 -0.461327 -3.85651 0
M  V30 13454 H 1277.57 -0.66895 -3.99133 0
M  V30 13455 H 1274.33 -2.68608 -3.9006 0
M  V30 13456 H 1274.75 -5.28649 -4.22917 0
M  V30 13457 H 1279.39 -2.50134 -3.40871 0
M  V30 13458 H 1277.11 -6.87341 -4.24956 0
M  V30 13459 H 1280.7 -4.59711 -3.56591 0
M  V30 13460 H 1279.58 -6.75525 -3.98291 0
M  V30 13461 N 1277.08 1.37613 -0.768148 0
M  V30 13462 C 1278.49 1.53202 -0.44737 0
M  V30 13463 C 1278.69 1.72736 1.03752 0
M  V30 13464 O 1277.75 1.74667 1.8234 0
M  V30 13465 C 1279.06 2.7306 -1.25931 0
M  V30 13466 C 1280.61 2.8692 -1.25084 0
M  V30 13467 C 1281.09 4.09757 -2.04605 0
M  V30 13468 N 1282.58 4.16862 -2.0194 0
M  V30 13469 C 1283.31 5.10936 -2.60254 0
M  V30 13470 N 1282.81 6.1059 -3.27341 0
M  V30 13471 N 1284.6 5.03393 -2.50104 0
M  V30 13472 H 1276.75 1.23184 -1.7303 0
M  V30 13473 H 1279.02 0.599541 -0.73434 0
M  V30 13474 H 1278.72 2.65078 -2.31141 0
M  V30 13475 H 1278.6 3.66646 -0.886036 0
M  V30 13476 H 1280.98 2.94375 -0.206736 0
M  V30 13477 H 1281.06 1.94303 -1.66373 0
M  V30 13478 H 1280.71 4.03063 -3.09035 0
M  V30 13479 H 1280.64 5.01481 -1.60701 0
M  V30 13480 H 1283.13 3.455 -1.53096 0
M  V30 13481 H 1283.44 6.78893 -3.6922 0
M  V30 13482 H 1281.79 6.10879 -3.31439 0
M  V30 13483 H 1284.98 4.24483 -1.9731 0
M  V30 13484 H 1285.15 5.76524 -2.95844 0
M  V30 13485 N 1278.56 0.518393 1.4883 0
M  V30 13486 C 1279.47 -0.254811 2.33212 0
M  V30 13487 C 1280.48 -0.950401 1.45751 0
M  V30 13488 O 1281.66 -0.927932 1.78749 0
M  V30 13489 C 1278.72 -1.29509 3.21603 0
M  V30 13490 C 1277.78 -0.611086 4.24928 0
M  V30 13491 C 1277.02 -1.6018 5.09095 0
M  V30 13492 O 1277.24 -2.83336 4.95052 0
M  V30 13493 O 1276.17 -1.14756 5.90859 0
M  V30 13494 H 1280 0.436329 3.00549 0
M  V30 13495 H 1277.59 0.27947 1.46763 0
M  V30 13496 H 1279.47 -1.89654 3.7631 0
M  V30 13497 H 1278.14 -1.96884 2.5694 0
M  V30 13498 H 1277.05 0.0305638 3.74088 0
M  V30 13499 H 1278.38 0.0205249 4.92196 0
M  V30 13500 N 1280.03 -1.55556 0.252993 0
M  V30 13501 C 1281.26 -2.03945 -0.376965 0
M  V30 13502 C 1281.68 -1.13089 -1.50308 0
M  V30 13503 O 1281.04 -0.125039 -1.80868 0
M  V30 13504 C 1281.09 -3.50284 -0.856363 0
M  V30 13505 O 1280.19 -3.62551 -1.96546 0
M  V30 13506 H 1279.54 -0.659002 -0.081317 0
M  V30 13507 H 1282.07 -2.01024 0.380831 0
M  V30 13508 H 1282.08 -3.91222 -1.15798 0
M  V30 13509 H 1280.75 -4.15887 -0.0323302 0
M  V30 13510 H 1279.33 -3.33511 -1.66808 0
M  V30 13511 N 1281.51 0.0200419 -1.57587 0
M  V30 13512 C 1282.46 1.01784 -2.07144 0
M  V30 13513 C 1283.43 1.3537 -0.962501 0
M  V30 13514 O 1284.61 1.45553 -1.23365 0
M  V30 13515 C 1281.75 2.31091 -2.56302 0
M  V30 13516 C 1280.87 2.03584 -3.81022 0
M  V30 13517 C 1280 3.26827 -4.18757 0
M  V30 13518 C 1279.04 2.94915 -5.36369 0
M  V30 13519 N 1278.18 4.10636 -5.69493 0
M  V30 13520 H 1283.02 0.588288 -2.92136 0
M  V30 13521 H 1280.56 0.278848 -1.44433 0
M  V30 13522 H 1282.51 3.06656 -2.82874 0
M  V30 13523 H 1281.14 2.71752 -1.74215 0
M  V30 13524 H 1280.2 1.18475 -3.6148 0
M  V30 13525 H 1281.51 1.76049 -4.66699 0
M  V30 13526 H 1280.66 4.10753 -4.46505 0
M  V30 13527 H 1279.4 3.57483 -3.31749 0
M  V30 13528 H 1278.41 2.09392 -5.08365 0
M  V30 13529 H 1279.63 2.65528 -6.25037 0
M  V30 13530 H 1277.58 4.41226 -4.85444 0
M  V30 13531 H 1277.49 3.86556 -6.497 0
M  V30 13532 H 1278.76 4.95409 -6.01822 0
M  V30 13533 N 1282.99 1.54862 0.292472 0
M  V30 13534 C 1283.92 1.89406 1.36556 0
M  V30 13535 C 1284.9 0.753838 1.52484 0
M  V30 13536 O 1286.09 1.01031 1.6585 0
M  V30 13537 C 1283.22 2.14888 2.72838 0
M  V30 13538 C 1282.17 3.3073 2.71665 0
M  V30 13539 C 1281.5 3.41648 4.11316 0
M  V30 13540 C 1282.8 4.67622 2.32651 0
M  V30 13541 H 1284.49 2.79284 1.07894 0
M  V30 13542 H 1282.04 1.34377 0.517585 0
M  V30 13543 H 1283.99 2.3764 3.48002 0
M  V30 13544 H 1282.71 1.2179 3.03042 0
M  V30 13545 H 1281.37 3.07915 1.98958 0
M  V30 13546 H 1281.02 2.46051 4.38711 0
M  V30 13547 H 1280.72 4.19522 4.11431 0
M  V30 13548 H 1282.24 3.6667 4.88248 0
M  V30 13549 H 1283.66 4.90048 2.97533 0
M  V30 13550 H 1282.06 5.48272 2.43963 0
M  V30 13551 H 1283.13 4.67762 1.27777 0
M  V30 13552 N 1284.47 -0.556076 1.47464 0
M  V30 13553 C 1285.72 -1.3132 1.54147 0
M  V30 13554 C 1286.04 -1.93425 0.204221 0
M  V30 13555 O 1285.3 -1.78467 -0.803002 0
M  V30 13556 C 1285.6 -2.44298 2.6087 0
M  V30 13557 C 1285.26 -2.00016 4.04109 0
M  V30 13558 C 1283.93 -1.87656 4.43101 0
M  V30 13559 C 1286.28 -1.66228 4.93981 0
M  V30 13560 C 1283.61 -1.39805 5.698 0
M  V30 13561 C 1285.96 -1.19848 6.21144 0
M  V30 13562 C 1284.62 -1.06084 6.59016 0
M  V30 13563 H 1283.89 -0.480534 0.564064 0
M  V30 13564 H 1286.54 -0.623449 1.81067 0
M  V30 13565 H 1284.84 -3.18834 2.27711 0
M  V30 13566 H 1286.54 -3.02479 2.63263 0
M  V30 13567 H 1283.13 -2.1058 3.73302 0
M  V30 13568 H 1287.31 -1.7465 4.64555 0
M  V30 13569 H 1282.57 -1.27814 5.97891 0
M  V30 13570 H 1286.74 -0.927657 6.90194 0
M  V30 13571 H 1284.37 -0.687834 7.57082 0
M  V30 13572 N 1285.95 -1.35615 -0.802897 0
M  V30 13573 C 1287.2 -1.28428 -1.55528 0
M  V30 13574 C 1287.51 0.138275 -1.95111 0
M  V30 13575 O 1288.72 0.332435 -2.69457 0
M  V30 13576 C 1287.17 -2.25251 -2.80696 0
M  V30 13577 C 1286.78 -3.72871 -2.48336 0
M  V30 13578 C 1288.52 -2.27014 -3.58699 0
M  V30 13579 C 1286.43 -4.61507 -3.69817 0
M  V30 13580 H 1285.36 -0.47718 -0.583794 0
M  V30 13581 H 1288.01 -1.609 -0.882238 0
M  V30 13582 H 1286.39 -1.85755 -3.4973 0
M  V30 13583 H 1287.57 -4.21024 -1.87285 0
M  V30 13584 H 1285.88 -3.73752 -1.83571 0
M  V30 13585 H 1288.48 -2.90451 -4.48935 0
M  V30 13586 H 1288.82 -1.27491 -3.96298 0
M  V30 13587 H 1289.36 -2.65058 -2.9663 0
M  V30 13588 H 1286.09 -5.62043 -3.37324 0
M  V30 13589 H 1285.61 -4.18079 -4.30081 0
M  V30 13590 H 1287.29 -4.77113 -4.37004 0
M  V30 13591 N 1287.43 1.02549 -1.19673 0
M  V30 13592 C 1288.65 1.79623 -1.0268 0
M  V30 13593 C 1289.07 1.83969 0.424345 0
M  V30 13594 O 1288.43 1.28621 1.29472 0
M  V30 13595 C 1288.48 3.24514 -1.59289 0
M  V30 13596 O 1288.2 3.20462 -2.98723 0
M  V30 13597 C 1289.7 4.18173 -1.47126 0
M  V30 13598 H 1286.92 0.565167 -0.3617 0
M  V30 13599 H 1289.46 1.29143 -1.58564 0
M  V30 13600 H 1287.62 3.72173 -1.07546 0
M  V30 13601 H 1288.03 4.11341 -3.25421 0
M  V30 13602 H 1289.51 5.17714 -1.9151 0
M  V30 13603 H 1289.98 4.37165 -0.422315 0
M  V30 13604 H 1290.59 3.7639 -1.98017 0
M  V30 13605 N 1288.9 1.00119 1.21713 0
M  V30 13606 C 1290.18 0.597366 1.86255 0
M  V30 13607 C 1290.56 -0.925124 1.89749 0
M  V30 13608 O 1289.91 -1.8105 1.39402 0
M  V30 13609 C 1290.12 1.22735 3.26707 0
M  V30 13610 C 1291.47 1.33307 4.03131 0
M  V30 13611 O 1292.49 1.18237 3.36003 0
M  V30 13612 O 1291.35 1.57509 5.2331 0
M  V30 13613 H 1288.44 0.204091 0.801421 0
M  V30 13614 H 1290.99 1.09759 1.29426 0
M  V30 13615 H 1289.76 2.26837 3.18843 0
M  V30 13616 H 1289.38 0.713232 3.91151 0
M  V30 13617 N 1290.38 -1.37203 0.775435 0
M  V30 13618 C 1291.29 -2.34019 0.165062 0
M  V30 13619 C 1292.31 -1.6036 -0.675316 0
M  V30 13620 O 1293.48 -1.9243 -0.594375 0
M  V30 13621 C 1290.55 -3.3954 -0.700957 0
M  V30 13622 C 1289.61 -4.29015 0.156304 0
M  V30 13623 C 1288.84 -5.29497 -0.668476 0
M  V30 13624 O 1289.07 -5.37636 -1.90535 0
M  V30 13625 O 1288 -6.01852 -0.0757351 0
M  V30 13626 H 1291.83 -2.87955 0.965184 0
M  V30 13627 H 1289.41 -1.39429 0.536654 0
M  V30 13628 H 1291.29 -4.04094 -1.19524 0
M  V30 13629 H 1289.97 -2.87926 -1.4792 0
M  V30 13630 H 1288.87 -3.67549 0.69703 0
M  V30 13631 H 1290.21 -4.83944 0.897725 0
M  V30 13632 N 1291.86 -0.526279 -1.48553 0
M  V30 13633 C 1292.77 0.24244 -2.33344 0
M  V30 13634 C 1293.79 0.942658 -1.46253 0
M  V30 13635 O 1294.96 0.91844 -1.79239 0
M  V30 13636 C 1292.03 1.27801 -3.22285 0
M  V30 13637 C 1291.09 0.588543 -4.25247 0
M  V30 13638 C 1290.32 1.57478 -5.09938 0
M  V30 13639 O 1290.54 2.80707 -4.96548 0
M  V30 13640 O 1289.48 1.11621 -5.9146 0
M  V30 13641 H 1293.3 -0.452262 -3.00314 0
M  V30 13642 H 1290.89 -0.287249 -1.46613 0
M  V30 13643 H 1292.77 1.87656 -3.7731 0
M  V30 13644 H 1291.45 1.95519 -2.57981 0
M  V30 13645 H 1290.35 -0.0504022 -3.74066 0
M  V30 13646 H 1291.69 -0.046627 -4.92178 0
M  V30 13647 N 1293.34 1.5542 -0.261239 0
M  V30 13648 C 1294.58 1.99579 0.36002 0
M  V30 13649 C 1294.92 1.14933 1.56538 0
M  V30 13650 O 1294.19 0.216082 1.93296 0
M  V30 13651 C 1294.47 3.52078 0.755842 0
M  V30 13652 C 1294.33 4.47484 -0.455896 0
M  V30 13653 C 1295.65 4.10083 1.5975 0
M  V30 13654 H 1292.77 0.725554 0.129385 0
M  V30 13655 H 1295.41 1.86453 -0.365415 0
M  V30 13656 H 1293.56 3.63394 1.37393 0
M  V30 13657 H 1295.23 4.4813 -1.09441 0
M  V30 13658 H 1293.47 4.19714 -1.09646 0
M  V30 13659 H 1294.14 5.51834 -0.13539 0
M  V30 13660 H 1296.62 4.01957 1.07562 0
M  V30 13661 H 1295.5 5.17024 1.84329 0
M  V30 13662 H 1295.76 3.59438 2.57404 0
M  V30 13663 N 1294.82 -0.0116844 1.57596 0
M  V30 13664 C 1296.06 -0.697577 1.89679 0
M  V30 13665 C 1296.38 -1.74956 0.861122 0
M  V30 13666 O 1295.65 -1.95629 -0.103031 0
M  V30 13667 H 1294.23 -0.26064 0.700054 0
M  V30 13668 H 1296.9 0.0264782 1.94882 0
M  V30 13669 H 1295.99 -1.17621 2.89088 0
M  V30 13670 N 1296.29 -1.55015 -0.284256 0
M  V30 13671 C 1297.7 -1.65915 -0.856104 0
M  V30 13672 C 1298.06 -0.578758 -1.8747 0
M  V30 13673 O 1297.18 0.281733 -2.14558 0
M  V30 13674 C 1297.78 -3.0077 -1.55957 0
M  V30 13675 C 1296.33 -3.13735 -2.0796 0
M  V30 13676 C 1295.48 -2.61669 -0.917849 0
M  V30 13677 H 1298.43 -1.58583 -0.0608587 0
M  V30 13678 H 1298.45 -2.9313 -2.42601 0
M  V30 13679 H 1297.97 -3.79382 -0.81798 0
M  V30 13680 H 1296.07 -2.39875 -2.85115 0
M  V30 13681 H 1296.18 -4.20138 -2.30263 0
M  V30 13682 H 1294.54 -2.18542 -1.3081 0
M  V30 13683 H 1295.33 -3.42774 -0.189946 0
M  V30 13684 N 1297.77 0.548248 -1.47757 0
M  V30 13685 C 1298.68 1.68178 -1.63565 0
M  V30 13686 C 1299.7 1.661 -0.518351 0
M  V30 13687 O 1300.87 1.85384 -0.787061 0
M  V30 13688 C 1297.94 3.04673 -1.65454 0
M  V30 13689 C 1297 3.17749 -2.88677 0
M  V30 13690 C 1296.23 4.47733 -2.90466 0
M  V30 13691 O 1296.46 5.33736 -2.01201 0
M  V30 13692 O 1295.39 4.64789 -3.82433 0
M  V30 13693 H 1299.22 1.57781 -2.59497 0
M  V30 13694 H 1296.8 0.719277 -1.30946 0
M  V30 13695 H 1298.68 3.85885 -1.69324 0
M  V30 13696 H 1297.36 3.15433 -0.726912 0
M  V30 13697 H 1296.26 2.359 -2.90348 0
M  V30 13698 H 1297.6 3.11897 -3.80763 0
M  V30 13699 N 1299.25 1.36039 0.795694 0
M  V30 13700 C 1300.16 1.31991 1.93948 0
M  V30 13701 C 1301.18 0.223064 1.72564 0
M  V30 13702 O 1302.35 0.454344 1.96208 0
M  V30 13703 C 1299.42 1.10228 3.28711 0
M  V30 13704 C 1298.48 2.29328 3.62914 0
M  V30 13705 C 1297.71 2.08595 4.91247 0
M  V30 13706 O 1297.93 1.05793 5.60503 0
M  V30 13707 O 1296.87 2.96222 5.23962 0
M  V30 13708 H 1300.69 2.28274 2.00311 0
M  V30 13709 H 1298.28 1.16521 0.935048 0
M  V30 13710 H 1300.16 0.999842 4.09367 0
M  V30 13711 H 1298.84 0.17003 3.23253 0
M  V30 13712 H 1297.74 2.4514 2.8259 0
M  V30 13713 H 1299.08 3.21038 3.73089 0
M  V30 13714 N 1300.73 -1.01913 1.20215 0
M  V30 13715 C 1301.96 -1.79076 1.03631 0
M  V30 13716 C 1302.37 -1.84192 -0.414583 0
M  V30 13717 O 1301.73 -1.29306 -1.28788 0
M  V30 13718 C 1301.78 -3.23665 1.61008 0
M  V30 13719 O 1301.5 -3.18873 3.00419 0
M  V30 13720 C 1303 -4.17387 1.49342 0
M  V30 13721 H 1300.22 -0.563241 0.364692 0
M  V30 13722 H 1302.77 -1.283 1.59246 0
M  V30 13723 H 1300.92 -3.71597 1.09518 0
M  V30 13724 H 1301.33 -4.09609 3.27598 0
M  V30 13725 H 1302.81 -5.16691 1.94253 0
M  V30 13726 H 1303.29 -4.36935 0.445493 0
M  V30 13727 H 1303.89 -3.75335 2.0001 0
M  V30 13728 N 1302.21 -1.00763 -1.2118 0
M  V30 13729 C 1303.12 -0.579646 -2.27326 0
M  V30 13730 C 1304.13 0.378592 -1.69831 0
M  V30 13731 O 1305.31 0.241772 -1.99944 0
M  V30 13732 C 1302.37 0.0843648 -3.46597 0
M  V30 13733 C 1301.43 -0.918685 -4.19355 0
M  V30 13734 C 1300.67 -0.286267 -5.32932 0
M  V30 13735 O 1300.89 0.916274 -5.62993 0
M  V30 13736 O 1299.82 -0.998513 -5.9356 0
M  V30 13737 H 1303.65 -1.46311 -2.66133 0
M  V30 13738 H 1301.24 -0.776641 -1.27627 0
M  V30 13739 H 1303.12 0.455636 -4.18929 0
M  V30 13740 H 1301.79 0.942166 -3.09685 0
M  V30 13741 H 1300.7 -1.34116 -3.49233 0
M  V30 13742 H 1302.03 -1.74616 -4.60185 0
M  V30 13743 N 1303.68 1.3679 -0.7827 0
M  V30 13744 C 1304.91 2.03678 -0.363734 0
M  V30 13745 C 1305.33 1.59024 1.01768 0
M  V30 13746 O 1304.68 0.776541 1.65155 0
M  V30 13747 C 1304.74 3.59165 -0.410213 0
M  V30 13748 O 1304.46 4.02188 -1.73714 0
M  V30 13749 C 1305.96 4.43296 0.018972 0
M  V30 13750 H 1303.18 0.653828 -0.150829 0
M  V30 13751 H 1305.72 1.74903 -1.05968 0
M  V30 13752 H 1303.88 3.86673 0.237249 0
M  V30 13753 H 1304.29 4.96754 -1.68332 0
M  V30 13754 H 1305.76 5.51962 -0.0646943 0
M  V30 13755 H 1306.24 4.25948 1.07076 0
M  V30 13756 H 1306.85 4.21036 -0.600721 0
M  V30 13757 N 1305.16 0.53415 1.48272 0
M  V30 13758 C 1306.44 -0.0630181 1.95498 0
M  V30 13759 C 1306.82 -1.50877 1.47646 0
M  V30 13760 O 1306.17 -2.17358 0.704829 0
M  V30 13761 C 1306.38 0.0585475 3.48951 0
M  V30 13762 C 1307.73 -0.0985978 4.24486 0
M  V30 13763 O 1308.75 -0.0150438 3.56197 0
M  V30 13764 O 1307.61 -0.274356 5.45811 0
M  V30 13765 H 1304.7 -0.0769841 0.823409 0
M  V30 13766 H 1307.25 0.599043 1.58775 0
M  V30 13767 H 1306.02 1.06549 3.76514 0
M  V30 13768 H 1305.64 -0.642175 3.9238 0
M  V30 13769 N 1306.64 -1.55279 0.269478 0
M  V30 13770 C 1307.87 -2.03876 -0.352418 0
M  V30 13771 C 1308.28 -1.14804 -1.49885 0
M  V30 13772 O 1307.64 -0.166989 -1.81734 0
M  V30 13773 C 1307.69 -3.51634 -0.838799 0
M  V30 13774 O 1307.41 -4.37316 0.261972 0
M  V30 13775 C 1308.91 -4.16094 -1.52909 0
M  V30 13776 H 1306.13 -0.66608 -0.0811043 0
M  V30 13777 H 1308.68 -2.00551 0.399929 0
M  V30 13778 H 1306.83 -3.55421 -1.54125 0
M  V30 13779 H 1307.25 -5.24383 -0.111013 0
M  V30 13780 H 1308.72 -5.21102 -1.82089 0
M  V30 13781 H 1309.2 -3.63928 -2.45872 0
M  V30 13782 H 1309.8 -4.16293 -0.87063 0
M  V30 13783 N 1308.12 0.00332656 -1.576 0
M  V30 13784 C 1309.37 0.688869 -1.90423 0
M  V30 13785 C 1309.69 1.73963 -0.869896 0
M  V30 13786 O 1308.95 1.95295 0.125777 0
M  V30 13787 C 1309.25 1.37237 -3.30001 0
M  V30 13788 C 1308.91 0.455132 -4.48597 0
M  V30 13789 C 1307.58 0.202577 -4.80773 0
M  V30 13790 C 1309.93 -0.176597 -5.20901 0
M  V30 13791 C 1307.26 -0.690055 -5.82628 0
M  V30 13792 C 1309.61 -1.05708 -6.23705 0
M  V30 13793 C 1308.27 -1.31885 -6.54341 0
M  V30 13794 H 1307.54 0.252075 -0.696806 0
M  V30 13795 H 1310.19 -0.0514867 -1.91431 0
M  V30 13796 H 1308.49 2.18669 -3.25102 0
M  V30 13797 H 1310.19 1.9088 -3.52656 0
M  V30 13798 H 1306.78 0.662142 -4.23454 0
M  V30 13799 H 1310.96 0.0055127 -4.963 0
M  V30 13800 H 1306.22 -0.900902 -6.04726 0
M  V30 13801 H 1310.39 -1.55296 -6.78864 0
M  V30 13802 H 1308.02 -2.01222 -7.33085 0
M  V30 13803 N 1309.6 1.55164 0.276031 0
M  V30 13804 C 1310.87 1.66338 1.02913 0
M  V30 13805 C 1311.25 0.527876 2.04393 0
M  V30 13806 O 1310.6 -0.472437 2.23563 0
M  V30 13807 C 1310.81 3.05427 1.68865 0
M  V30 13808 C 1312.16 3.63075 2.2014 0
M  V30 13809 O 1313.18 3.0804 1.78857 0
M  V30 13810 O 1312.04 4.59492 2.95854 0
M  V30 13811 H 1309.14 0.675446 0.477181 0
M  V30 13812 H 1311.68 1.67504 0.272129 0
M  V30 13813 H 1310.45 3.79514 0.953125 0
M  V30 13814 H 1310.08 3.08147 2.5126 0
M  V30 13815 N 1311.07 -0.540404 1.48045 0
M  V30 13816 C 1312.04 -1.62813 1.61322 0
M  V30 13817 C 1313.04 -1.53243 0.487161 0
M  V30 13818 O 1314.23 -1.571 0.752684 0
M  V30 13819 C 1311.36 -3.02408 1.5736 0
M  V30 13820 H 1312.55 -1.52385 2.583 0
M  V30 13821 H 1310.11 -0.761654 1.36486 0
M  V30 13822 H 1310.84 -3.18353 0.618195 0
M  V30 13823 H 1310.63 -3.10763 2.39099 0
M  V30 13824 H 1312.12 -3.8151 1.69822 0
M  V30 13825 N 1312.55 -1.36459 -0.788468 0
M  V30 13826 C 1313.52 -1.3071 -1.88275 0
M  V30 13827 C 1314.52 -0.214596 -1.59362 0
M  V30 13828 O 1315.71 -0.469437 -1.67756 0
M  V30 13829 C 1312.84 -1.02648 -3.25079 0
M  V30 13830 H 1314.03 -2.28029 -1.94788 0
M  V30 13831 H 1311.58 -1.21245 -0.986375 0
M  V30 13832 H 1312.32 -0.0578992 -3.24248 0
M  V30 13833 H 1312.1 -1.81708 -3.47454 0
M  V30 13834 H 1313.59 -1.01233 -4.05144 0
M  V30 13835 N 1314.03 1.01274 -1.20754 0
M  V30 13836 C 1315.44 1.56381 -1.0199 0
M  V30 13837 C 1315.79 1.91595 0.422591 0
M  V30 13838 O 1314.92 1.72653 1.3046 0
M  V30 13839 C 1315.51 2.8415 -1.8451 0
M  V30 13840 C 1314.07 3.35772 -1.70101 0
M  V30 13841 C 1313.22 2.0904 -1.82202 0
M  V30 13842 H 1316.17 0.836105 -1.34889 0
M  V30 13843 H 1316.19 3.55717 -1.35076 0
M  V30 13844 H 1315.7 2.5849 -2.8949 0
M  V30 13845 H 1313.8 3.66384 -0.677732 0
M  V30 13846 H 1313.92 4.07714 -2.51607 0
M  V30 13847 H 1312.28 2.21675 -1.25429 0
M  V30 13848 H 1313.06 1.858 -2.88675 0
M  V30 13849 N 1315.51 1.01404 1.20644 0
M  V30 13850 C 1316.44 0.540288 2.22741 0
M  V30 13851 C 1317.45 -0.375953 1.584 0
M  V30 13852 O 1318.64 -0.174708 1.77643 0
M  V30 13853 C 1315.74 -0.233766 3.38093 0
M  V30 13854 C 1314.92 0.683759 4.32023 0
M  V30 13855 C 1313.98 -0.0422681 5.26183 0
M  V30 13856 O 1313 0.579392 5.66243 0
M  V30 13857 N 1314.2 -1.31794 5.65341 0
M  V30 13858 H 1316.97 1.41831 2.64015 0
M  V30 13859 H 1314.53 0.891265 1.35159 0
M  V30 13860 H 1316.52 -0.728645 3.98087 0
M  V30 13861 H 1315.09 -1.01306 2.9573 0
M  V30 13862 H 1314.31 1.35899 3.70034 0
M  V30 13863 H 1315.6 1.30786 4.91704 0
M  V30 13864 H 1315 -1.84399 5.34802 0
M  V30 13865 H 1313.55 -1.7576 6.27656 0
M  V30 13866 N 1316.99 -1.36373 0.789944 0
M  V30 13867 C 1318.4 -1.81783 0.425677 0
M  V30 13868 C 1318.75 -1.65711 -1.05045 0
M  V30 13869 O 1317.87 -1.17835 -1.81505 0
M  V30 13870 C 1318.47 -3.3003 0.765866 0
M  V30 13871 C 1317.03 -3.73647 0.454421 0
M  V30 13872 C 1316.18 -2.58632 1.00023 0
M  V30 13873 H 1319.13 -1.24587 0.983044 0
M  V30 13874 H 1319.15 -3.80457 0.0571624 0
M  V30 13875 H 1318.66 -3.41696 1.84026 0
M  V30 13876 H 1316.76 -3.67541 -0.611918 0
M  V30 13877 H 1316.87 -4.69066 0.975401 0
M  V30 13878 H 1315.24 -2.51156 0.423434 0
M  V30 13879 H 1316.02 -2.73083 2.0804 0
M  V30 13880 N 1318.47 -0.542005 -1.47987 0
M  V30 13881 C 1319.43 0.203537 -2.28294 0
M  V30 13882 C 1320.43 0.856762 -1.36074 0
M  V30 13883 O 1321.62 0.71496 -1.58852 0
M  V30 13884 C 1318.75 1.29581 -3.15312 0
M  V30 13885 H 1319.94 -0.501701 -2.95674 0
M  V30 13886 H 1317.5 -0.298378 -1.53426 0
M  V30 13887 H 1318.23 2.03393 -2.5259 0
M  V30 13888 H 1318.02 0.832398 -3.83163 0
M  V30 13889 H 1319.51 1.81988 -3.75859 0
M  V30 13890 N 1319.94 1.55134 -0.277709 0
M  V30 13891 C 1321.36 1.59417 0.0763615 0
M  V30 13892 C 1321.56 1.29491 1.54384 0
M  V30 13893 O 1320.62 1.05703 2.2931 0
M  V30 13894 C 1321.93 2.99194 -0.300607 0
M  V30 13895 C 1323.48 3.1202 -0.247438 0
M  V30 13896 C 1323.95 4.54068 -0.598884 0
M  V30 13897 N 1325.44 4.59917 -0.550534 0
M  V30 13898 C 1326.18 5.67859 -0.795235 0
M  V30 13899 N 1325.67 6.83936 -1.10469 0
M  V30 13900 N 1327.47 5.5742 -0.723859 0
M  V30 13901 H 1319.62 1.72851 -1.23435 0
M  V30 13902 H 1321.88 0.806137 -0.498846 0
M  V30 13903 H 1321.59 3.25937 -1.32129 0
M  V30 13904 H 1321.46 3.75504 0.35729 0
M  V30 13905 H 1323.85 2.8504 0.763959 0
M  V30 13906 H 1323.93 2.37917 -0.939629 0
M  V30 13907 H 1323.57 4.81774 -1.60798 0
M  V30 13908 H 1323.5 5.26474 0.115126 0
M  V30 13909 H 1325.99 3.76531 -0.321341 0
M  V30 13910 H 1326.31 7.62159 -1.278 0
M  V30 13911 H 1324.65 6.85545 -1.14249 0
M  V30 13912 H 1327.84 4.65613 -0.481925 0
M  V30 13913 H 1328.02 6.41465 -0.917944 0
M  V30 13914 N 1321.42 0.00503138 1.57599 0
M  V30 13915 C 1322.33 -1.00097 2.12174 0
M  V30 13916 C 1323.35 -1.37353 1.06818 0
M  V30 13917 O 1324.52 -1.45984 1.38747 0
M  V30 13918 C 1321.59 -2.27252 2.61835 0
M  V30 13919 C 1320.65 -1.96262 3.81811 0
M  V30 13920 C 1319.88 -3.17355 4.29094 0
M  V30 13921 O 1320.11 -4.2921 3.75679 0
M  V30 13922 O 1319.04 -3.01059 5.21198 0
M  V30 13923 H 1322.87 -0.567024 2.9836 0
M  V30 13924 H 1320.45 -0.214109 1.47858 0
M  V30 13925 H 1322.33 -3.01944 2.93952 0
M  V30 13926 H 1321.01 -2.69875 1.78744 0
M  V30 13927 H 1319.91 -1.19031 3.54658 0
M  V30 13928 H 1321.25 -1.58473 4.65991 0
M  V30 13929 N 1322.9 -1.55308 -0.267798 0
M  V30 13930 C 1323.86 -1.87765 -1.31442 0
M  V30 13931 C 1324.86 -0.752571 -1.42102 0
M  V30 13932 O 1326.05 -1.02072 -1.41163 0
M  V30 13933 C 1323.18 -2.08754 -2.69508 0
M  V30 13934 H 1324.38 -2.8133 -1.03891 0
M  V30 13935 H 1321.93 -1.47879 -0.506111 0
M  V30 13936 H 1322.67 -1.17588 -3.02231 0
M  V30 13937 H 1322.45 -2.90674 -2.63156 0
M  V30 13938 H 1323.94 -2.3512 -3.4512 0
M  V30 13939 N 1324.38 0.532545 -1.4833 0
M  V30 13940 C 1325.34 1.61955 -1.62183 0
M  V30 13941 C 1326.34 1.52982 -0.495281 0
M  V30 13942 O 1327.53 1.56698 -0.761005 0
M  V30 13943 C 1324.66 3.0157 -1.58961 0
M  V30 13944 H 1325.86 1.51013 -2.59105 0
M  V30 13945 H 1323.41 0.754405 -1.36888 0
M  V30 13946 H 1324.14 3.18021 -0.635069 0
M  V30 13947 H 1323.93 3.09491 -2.40744 0
M  V30 13948 H 1325.42 3.80604 -1.71843 0
M  V30 13949 N 1325.86 1.36875 0.78122 0
M  V30 13950 C 1327.1 1.31559 1.53943 0
M  V30 13951 C 1327.43 -0.10273 1.94229 0
M  V30 13952 O 1326.69 -1.07386 1.63605 0
M  V30 13953 C 1326.98 2.19173 2.82309 0
M  V30 13954 C 1326.65 3.67595 2.61121 0
M  V30 13955 C 1325.31 4.08047 2.55051 0
M  V30 13956 C 1327.66 4.61665 2.41898 0
M  V30 13957 C 1324.99 5.40697 2.27736 0
M  V30 13958 C 1327.34 5.94542 2.16108 0
M  V30 13959 C 1326.01 6.34109 2.08476 0
M  V30 13960 H 1325.28 0.48141 0.563317 0
M  V30 13961 H 1327.93 1.68999 0.900638 0
M  V30 13962 H 1326.23 1.74696 3.50697 0
M  V30 13963 H 1327.93 2.12379 3.40141 0
M  V30 13964 H 1324.52 3.35509 2.66705 0
M  V30 13965 H 1328.7 4.3128 2.45584 0
M  V30 13966 H 1323.96 5.70325 2.20315 0
M  V30 13967 H 1328.13 6.66994 2.0023 0
M  V30 13968 H 1325.76 7.36823 1.87073 0
M  V30 13969 N 1327.33 -1.00632 1.21289 0
M  V30 13970 C 1328.3 -2.07543 0.972548 0
M  V30 13971 C 1329.3 -1.60703 -0.0559244 0
M  V30 13972 O 1330.49 -1.73255 0.181213 0
M  V30 13973 C 1327.62 -3.37696 0.466297 0
M  V30 13974 H 1328.81 -2.30298 1.92101 0
M  V30 13975 H 1326.36 -1.17588 1.02969 0
M  V30 13976 H 1327.1 -3.2062 -0.487148 0
M  V30 13977 H 1326.88 -3.73024 1.20813 0
M  V30 13978 H 1328.37 -4.16388 0.317962 0
M  V30 13979 N 1328.81 -1.02043 -1.20104 0
M  V30 13980 C 1330.04 -0.731142 -1.94085 0
M  V30 13981 C 1330.46 0.702467 -1.74491 0
M  V30 13982 O 1329.82 1.48387 -1.04168 0
M  V30 13983 C 1329.87 -1.07691 -3.44144 0
M  V30 13984 O 1328.97 -0.190751 -4.11959 0
M  V30 13985 H 1328.31 -0.270917 -0.606218 0
M  V30 13986 H 1330.84 -1.36483 -1.52426 0
M  V30 13987 H 1330.85 -1.03023 -3.94779 0
M  V30 13988 H 1329.53 -2.1214 -3.57728 0
M  V30 13989 H 1328.1 -0.29529 -3.71729 0
M  V30 13990 N 1330.29 1.35952 -0.797165 0
M  V30 13991 C 1331.57 1.93335 -0.2968 0
M  V30 13992 C 1331.95 1.72825 1.21222 0
M  V30 13993 O 1331.3 1.09172 2.00733 0
M  V30 13994 C 1331.51 3.41951 -0.697894 0
M  V30 13995 C 1332.85 4.19087 -0.682026 0
M  V30 13996 O 1333.88 3.50424 -0.638849 0
M  V30 13997 O 1332.74 5.41577 -0.73189 0
M  V30 13998 H 1329.83 0.823554 -0.0754223 0
M  V30 13999 H 1332.38 1.45086 -0.88023 0
M  V30 14000 H 1331.15 3.50569 -1.73831 0
M  V30 14001 H 1330.77 3.97501 -0.088764 0
M  V30 14002 N 1331.77 0.549846 1.47697 0
M  V30 14003 C 1332.99 0.0256819 2.07384 0
M  V30 14004 C 1333.42 -1.25525 1.4009 0
M  V30 14005 O 1332.78 -1.7501 0.473406 0
M  V30 14006 C 1332.82 -0.160835 3.60241 0
M  V30 14007 O 1331.93 -1.22509 3.93783 0
M  V30 14008 H 1331.27 0.0480204 0.662261 0
M  V30 14009 H 1333.8 0.763429 1.89823 0
M  V30 14010 H 1333.81 -0.377337 4.06251 0
M  V30 14011 H 1332.48 0.774774 4.0862 0
M  V30 14012 H 1331.06 -0.98967 3.59527 0
M  V30 14013 N 1333.25 -1.54984 0.285932 0
M  V30 14014 C 1334.18 -2.25916 -0.590259 0
M  V30 14015 C 1335.16 -1.25319 -1.15018 0
M  V30 14016 O 1336.34 -1.54062 -1.18231 0
M  V30 14017 C 1333.47 -2.98849 -1.76936 0
M  V30 14018 C 1332.43 -4.06466 -1.3405 0
M  V30 14019 C 1331.75 -4.67032 -2.60356 0
M  V30 14020 C 1333.05 -5.20064 -0.482754 0
M  V30 14021 H 1334.75 -2.994 0.00131571 0
M  V30 14022 H 1332.29 -1.44 0.00207281 0
M  V30 14023 H 1334.25 -3.47186 -2.3883 0
M  V30 14024 H 1332.97 -2.22918 -2.38694 0
M  V30 14025 H 1331.63 -3.58957 -0.7447 0
M  V30 14026 H 1331.28 -3.87757 -3.20396 0
M  V30 14027 H 1330.98 -5.39703 -2.32368 0
M  V30 14028 H 1332.5 -5.18124 -3.23079 0
M  V30 14029 H 1333.91 -5.64387 -1.00697 0
M  V30 14030 H 1332.31 -5.99363 -0.297291 0
M  V30 14031 H 1333.38 -4.82358 0.495861 0
M  V30 14032 N 1334.72 -0.0133892 -1.57594 0
M  V30 14033 C 1336.14 0.342848 -1.55874 0
M  V30 14034 C 1336.34 1.73928 -1.01742 0
M  V30 14035 O 1335.4 2.43798 -0.657158 0
M  V30 14036 C 1336.71 0.205831 -2.99995 0
M  V30 14037 C 1338.26 0.279774 -3.11747 0
M  V30 14038 C 1338.73 0.171729 -4.57678 0
M  V30 14039 N 1340.22 0.22921 -4.62633 0
M  V30 14040 C 1340.96 0.169153 -5.7315 0
M  V30 14041 N 1340.45 0.0589166 -6.92775 0
M  V30 14042 N 1342.25 0.221995 -5.61661 0
M  V30 14043 H 1334.4 -0.926727 -1.91117 0
M  V30 14044 H 1336.66 -0.356466 -0.878428 0
M  V30 14045 H 1336.37 -0.755482 -3.4349 0
M  V30 14046 H 1336.24 0.982476 -3.6418 0
M  V30 14047 H 1338.63 1.23154 -2.68174 0
M  V30 14048 H 1338.71 -0.526974 -2.50313 0
M  V30 14049 H 1338.35 -0.776547 -5.01928 0
M  V30 14050 H 1338.28 0.997138 -5.17073 0
M  V30 14051 H 1340.77 0.315196 -3.76583 0
M  V30 14052 H 1341.09 0.0193526 -7.72798 0
M  V30 14053 H 1339.43 0.0243543 -6.94996 0
M  V30 14054 H 1342.62 0.306406 -4.67096 0
M  V30 14055 H 1342.8 0.171727 -6.47772 0
M  V30 14056 N 1336.2 1.55448 0.259558 0
M  V30 14057 C 1337.43 1.80727 1.00723 0
M  V30 14058 C 1337.85 0.587354 1.79431 0
M  V30 14059 O 1337.2 -0.443819 1.77021 0
M  V30 14060 C 1337.25 3.04064 1.95517 0
M  V30 14061 O 1336.97 4.21346 1.19996 0
M  V30 14062 C 1338.48 3.42049 2.81988 0
M  V30 14063 H 1335.7 0.601713 0.296956 0
M  V30 14064 H 1338.24 2.02486 0.286273 0
M  V30 14065 H 1336.39 2.84392 2.63058 0
M  V30 14066 H 1336.81 4.91164 1.84006 0
M  V30 14067 H 1338.28 4.31485 3.44274 0
M  V30 14068 H 1338.76 2.62059 3.52451 0
M  V30 14069 H 1339.37 3.64027 2.19918 0
M  V30 14070 N 1337.68 -0.524672 1.4861 0
M  V30 14071 C 1338.93 -1.27768 1.56588 0
M  V30 14072 C 1339.25 -1.93469 0.243899 0
M  V30 14073 O 1338.52 -1.8159 -0.734985 0
M  V30 14074 H 1337.1 -0.474566 0.576885 0
M  V30 14075 H 1339.76 -0.610114 1.85104 0
M  V30 14076 H 1338.86 -2.05416 2.34969 0
M  V30 14077 N 1339.16 -1.37287 -0.77395 0
M  V30 14078 C 1340.57 -1.18039 -1.0742 0
M  V30 14079 C 1340.77 -0.0150339 -2.01494 0
M  V30 14080 O 1339.83 0.645562 -2.44108 0
M  V30 14081 C 1341.14 -2.49808 -1.67382 0
M  V30 14082 C 1342.69 -2.5631 -1.7965 0
M  V30 14083 C 1343.17 -3.88204 -2.43025 0
M  V30 14084 N 1344.66 -3.89634 -2.50478 0
M  V30 14085 C 1345.39 -4.88437 -3.00361 0
M  V30 14086 N 1344.89 -5.97635 -3.50434 0
M  V30 14087 N 1346.68 -4.75843 -2.99215 0
M  V30 14088 H 1338.83 -2.11875 -0.149269 0
M  V30 14089 H 1341.1 -0.939203 -0.128846 0
M  V30 14090 H 1340.8 -3.35433 -1.05726 0
M  V30 14091 H 1340.68 -2.66737 -2.66704 0
M  V30 14092 H 1343.06 -1.71094 -2.40439 0
M  V30 14093 H 1343.14 -2.43266 -0.790894 0
M  V30 14094 H 1342.79 -4.73834 -1.82876 0
M  V30 14095 H 1342.72 -3.98551 -3.44187 0
M  V30 14096 H 1345.21 -3.10751 -2.15039 0
M  V30 14097 H 1345.52 -6.6898 -3.86893 0
M  V30 14098 H 1343.87 -6.01283 -3.48545 0
M  V30 14099 H 1347.06 -3.89656 -2.59395 0
M  V30 14100 H 1347.23 -5.52999 -3.37781 0
M  V30 14101 N 1340.64 0.999871 -1.21821 0
M  V30 14102 C 1341.86 1.7794 -1.06546 0
M  V30 14103 C 1342.29 1.84219 0.380115 0
M  V30 14104 O 1341.64 1.28955 1.27438 0
M  V30 14105 C 1341.69 3.1943 -1.67322 0
M  V30 14106 O 1340.8 4.01957 -0.922171 0
M  V30 14107 H 1340.14 0.548204 -0.374658 0
M  V30 14108 H 1342.67 1.2565 -1.61472 0
M  V30 14109 H 1342.68 3.70086 -1.71757 0
M  V30 14110 H 1341.35 3.14175 -2.7252 0
M  V30 14111 H 1339.93 3.60509 -0.95331 0
M  V30 14112 N 1342.11 1.02678 1.19562 0
M  V30 14113 C 1343.53 0.743467 1.41226 0
M  V30 14114 C 1343.73 -0.672786 1.89936 0
M  V30 14115 O 1342.79 -1.43908 2.07477 0
M  V30 14116 C 1344.1 1.77781 2.42517 0
M  V30 14117 C 1345.65 1.79711 2.56267 0
M  V30 14118 C 1346.12 2.82099 3.60811 0
M  V30 14119 N 1347.61 2.80902 3.68304 0
M  V30 14120 C 1348.35 3.5678 4.48882 0
M  V30 14121 N 1347.84 4.42367 5.33182 0
M  V30 14122 N 1349.64 3.45331 4.43512 0
M  V30 14123 H 1341.79 1.94094 0.862635 0
M  V30 14124 H 1344.05 0.839015 0.441313 0
M  V30 14125 H 1343.76 2.79295 2.13745 0
M  V30 14126 H 1343.63 1.59836 3.41661 0
M  V30 14127 H 1346.02 0.788756 2.84364 0
M  V30 14128 H 1346.1 2.01731 1.57284 0
M  V30 14129 H 1345.74 3.83104 3.33457 0
M  V30 14130 H 1345.67 2.57338 4.5944 0
M  V30 14131 H 1348.16 2.18826 3.08097 0
M  V30 14132 H 1348.48 4.97008 5.9178 0
M  V30 14133 H 1346.82 4.4644 5.3265 0
M  V30 14134 H 1350.01 2.77883 3.76695 0
M  V30 14135 H 1350.19 4.04718 5.06071 0
M  V30 14136 N 1343.59 -1.35528 0.804364 0
M  V30 14137 C 1344.82 -2.03604 0.395013 0
M  V30 14138 C 1345.24 -1.60225 -0.985371 0
M  V30 14139 O 1344.6 -0.777844 -1.63766 0
M  V30 14140 C 1344.65 -3.57337 0.484011 0
M  V30 14141 O 1343.75 -4.09316 -0.503395 0
M  V30 14142 H 1343.09 -0.643089 0.165325 0
M  V30 14143 H 1345.62 -1.73171 1.08963 0
M  V30 14144 H 1345.63 -4.0647 0.353009 0
M  V30 14145 H 1344.31 -3.8826 1.49088 0
M  V30 14146 H 1342.89 -3.71412 -0.332817 0
M  V30 14147 N 1345.07 -0.557671 -1.47404 0
M  V30 14148 C 1346.3 -0.0366797 -2.07368 0
M  V30 14149 C 1346.72 1.2478 -1.40754 0
M  V30 14150 O 1346.08 1.74757 -0.48268 0
M  V30 14151 C 1346.13 0.141728 -3.60321 0
M  V30 14152 O 1345.23 1.20419 -3.94427 0
M  V30 14153 H 1344.57 -0.0515319 -0.661997 0
M  V30 14154 H 1347.1 -0.773485 -1.89416 0
M  V30 14155 H 1347.11 0.355787 -4.06446 0
M  V30 14156 H 1345.79 -0.796433 -4.08203 0
M  V30 14157 H 1344.36 0.970589 -3.60047 0
M  V30 14158 N 1346.55 1.54831 -0.294147 0
M  V30 14159 C 1347.48 2.20696 0.61854 0
M  V30 14160 C 1348.49 1.19754 1.10285 0
M  V30 14161 O 1349.68 1.46383 1.02148 0
M  V30 14162 C 1346.78 2.83429 1.85798 0
M  V30 14163 C 1345.96 4.10239 1.51731 0
M  V30 14164 C 1345.02 4.56841 2.61119 0
M  V30 14165 O 1344.04 5.22194 2.26501 0
M  V30 14166 N 1345.24 4.2858 3.91534 0
M  V30 14167 H 1348.01 2.9965 0.054714 0
M  V30 14168 H 1345.57 1.61484 -0.116052 0
M  V30 14169 H 1347.56 3.11541 2.5831 0
M  V30 14170 H 1346.13 2.08356 2.33038 0
M  V30 14171 H 1345.35 3.89212 0.625142 0
M  V30 14172 H 1346.64 4.92824 1.26499 0
M  V30 14173 H 1346.04 3.7621 4.22472 0
M  V30 14174 H 1344.59 4.61418 4.60366 0
M  V30 14175 N 1348.03 0.0217466 1.57585 0
M  V30 14176 C 1349.25 -0.67246 1.96196 0
M  V30 14177 C 1349.68 -1.6529 0.897827 0
M  V30 14178 O 1349.04 -1.80743 -0.142002 0
M  V30 14179 C 1349.08 -1.36162 3.33905 0
M  V30 14180 O 1348.19 -2.47671 3.29747 0
M  V30 14181 H 1347.53 -0.177238 0.639908 0
M  V30 14182 H 1350.06 0.0814073 2.04438 0
M  V30 14183 H 1350.07 -1.7201 3.69968 0
M  V30 14184 H 1348.74 -0.642893 4.10901 0
M  V30 14185 H 1347.32 -2.13989 3.0539 0
M  V30 14186 N 1349.51 -1.55583 -0.251311 0
M  V30 14187 C 1350.75 -1.76411 -0.977859 0
M  V30 14188 C 1351.07 -0.584857 -1.86651 0
M  V30 14189 O 1352.27 -0.676046 -2.62948 0
M  V30 14190 C 1350.73 -3.12302 -1.78872 0
M  V30 14191 C 1350.34 -4.37862 -0.947674 0
M  V30 14192 C 1352.08 -3.42471 -2.50827 0
M  V30 14193 C 1349.99 -5.64786 -1.75417 0
M  V30 14194 H 1348.92 -0.657628 -0.368839 0
M  V30 14195 H 1351.57 -1.82019 -0.232682 0
M  V30 14196 H 1349.95 -3.0079 -2.57569 0
M  V30 14197 H 1351.13 -4.60351 -0.203352 0
M  V30 14198 H 1349.44 -4.14996 -0.341666 0
M  V30 14199 H 1352.04 -4.34514 -3.11612 0
M  V30 14200 H 1352.38 -2.63592 -3.22219 0
M  V30 14201 H 1352.91 -3.55179 -1.79145 0
M  V30 14202 H 1349.65 -6.46474 -1.08407 0
M  V30 14203 H 1349.17 -5.46405 -2.47389 0
M  V30 14204 H 1350.85 -6.03881 -2.32242 0
M  V30 14205 N 1350.98 0.516783 -1.48886 0
M  V30 14206 C 1352.22 1.28221 -1.59181 0
M  V30 14207 C 1352.59 1.90156 -0.265466 0
M  V30 14208 O 1353.79 2.67695 -0.243489 0
M  V30 14209 C 1352.06 2.3326 -2.70785 0
M  V30 14210 S 1353.62 3.19353 -3.00931 0
M  V30 14211 H 1350.44 0.435976 -0.561646 0
M  V30 14212 H 1353.04 0.587238 -1.86472 0
M  V30 14213 H 1351.74 1.86263 -3.65697 0
M  V30 14214 H 1351.27 3.07447 -2.45438 0
M  V30 14215 H 1353.29 4.3361 -2.4124 0
M  V30 14216 N 1352.46 1.37696 0.766659 0
M  V30 14217 C 1353.41 1.33871 1.88009 0
M  V30 14218 C 1354.38 0.2034 1.6485 0
M  V30 14219 O 1355.56 0.393569 1.86697 0
M  V30 14220 C 1352.7 1.1566 3.25141 0
M  V30 14221 C 1351.82 2.38465 3.6022 0
M  V30 14222 C 1350.95 2.13087 4.86587 0
M  V30 14223 C 1349.99 3.31732 5.14413 0
M  V30 14224 N 1349.13 3.05872 6.3197 0
M  V30 14225 H 1353.97 2.29065 1.90613 0
M  V30 14226 H 1351.5 1.13821 0.931837 0
M  V30 14227 H 1353.46 1.03122 4.04255 0
M  V30 14228 H 1352.09 0.241115 3.21898 0
M  V30 14229 H 1351.14 2.61725 2.76051 0
M  V30 14230 H 1352.46 3.26933 3.76718 0
M  V30 14231 H 1351.61 1.97609 5.73616 0
M  V30 14232 H 1350.35 1.21965 4.72203 0
M  V30 14233 H 1349.35 3.47743 4.25858 0
M  V30 14234 H 1350.58 4.23712 5.30702 0
M  V30 14235 H 1348.53 2.17384 6.18935 0
M  V30 14236 H 1348.44 3.87885 6.48908 0
M  V30 14237 H 1349.71 2.94023 7.21922 0
M  V30 14238 N 1353.94 -0.993397 1.22349 0
M  V30 14239 C 1354.9 -2.065 0.994506 0
M  V30 14240 C 1355.9 -1.60753 -0.0388766 0
M  V30 14241 O 1357.09 -1.73053 0.199578 0
M  V30 14242 C 1354.22 -3.37182 0.502088 0
M  V30 14243 H 1355.42 -2.28248 1.94533 0
M  V30 14244 H 1352.97 -1.16489 1.04211 0
M  V30 14245 H 1353.71 -3.21119 -0.453114 0
M  V30 14246 H 1353.49 -3.71721 1.24763 0
M  V30 14247 H 1354.98 -4.16027 0.362108 0
M  V30 14248 N 1355.42 -1.03311 -1.19015 0
M  V30 14249 C 1356.67 -0.730593 -1.88432 0
M  V30 14250 C 1356.99 0.743392 -1.80274 0
M  V30 14251 O 1356.26 1.5359 -1.21601 0
M  V30 14252 H 1354.84 -0.267253 -0.697556 0
M  V30 14253 H 1357.5 -1.30824 -1.44468 0
M  V30 14254 H 1356.59 -1.02867 -2.9466 0
M  V30 14255 N 1356.9 1.35099 -0.81154 0
M  V30 14256 C 1357.81 2.33499 -0.22705 0
M  V30 14257 C 1358.82 1.62095 0.632562 0
M  V30 14258 O 1360 1.93938 0.543147 0
M  V30 14259 C 1357.06 3.41279 0.610687 0
M  V30 14260 C 1356.12 4.2845 -0.269994 0
M  V30 14261 C 1355.36 5.31083 0.527854 0
M  V30 14262 O 1355.58 5.42499 1.76213 0
M  V30 14263 O 1354.51 6.01842 -0.083862 0
M  V30 14264 H 1358.34 2.85294 -1.04119 0
M  V30 14265 H 1355.92 1.37957 -0.573432 0
M  V30 14266 H 1357.81 4.07121 1.08768 0
M  V30 14267 H 1356.48 2.91746 1.40235 0
M  V30 14268 H 1355.39 3.65572 -0.794234 0
M  V30 14269 H 1356.72 4.81394 -1.02572 0
M  V30 14270 N 1358.37 0.56548 1.47106 0
M  V30 14271 C 1359.6 0.0476763 2.07345 0
M  V30 14272 C 1360.02 -1.24032 1.41413 0
M  V30 14273 O 1359.38 -1.74498 0.491941 0
M  V30 14274 C 1359.43 -0.122618 3.60391 0
M  V30 14275 O 1358.53 -1.18326 3.9506 0
M  V30 14276 H 1357.87 0.0550419 0.661715 0
M  V30 14277 H 1360.4 0.78352 1.89003 0
M  V30 14278 H 1360.41 -0.334227 4.06629 0
M  V30 14279 H 1359.09 0.81807 4.07775 0
M  V30 14280 H 1357.67 -0.951481 3.60557 0
M  V30 14281 N 1359.85 -1.54672 0.302354 0
M  V30 14282 C 1361.08 -2.04578 -0.309093 0
M  V30 14283 C 1361.5 -1.17957 -1.47416 0
M  V30 14284 O 1360.85 -0.2055 -1.81339 0
M  V30 14285 C 1360.9 -3.53334 -0.764023 0
M  V30 14286 O 1360.62 -4.36662 0.354674 0
M  V30 14287 C 1362.13 -4.19243 -1.44048 0
M  V30 14288 H 1359.35 -0.667651 -0.0669575 0
M  V30 14289 H 1361.89 -1.99658 0.442379 0
M  V30 14290 H 1360.04 -3.5861 -1.46552 0
M  V30 14291 H 1360.46 -5.245 0.000241188 0
M  V30 14292 H 1361.93 -5.24847 -1.70995 0
M  V30 14293 H 1362.41 -3.69061 -2.38098 0
M  V30 14294 H 1363.02 -4.18046 -0.782132 0
M  V30 14295 N 1361.33 -0.0301034 -1.57571 0
M  V30 14296 C 1362.61 0.68703 -1.83137 0
M  V30 14297 C 1362.99 1.90277 -0.914216 0
M  V30 14298 O 1362.34 2.2848 0.0299358 0
M  V30 14299 C 1362.55 1.06431 -3.32375 0
M  V30 14300 C 1363.89 1.45554 -3.98873 0
M  V30 14301 O 1364.92 1.15727 -3.36877 0
M  V30 14302 O 1363.78 2.01133 -5.08142 0
M  V30 14303 H 1360.87 0.337141 -0.755159 0
M  V30 14304 H 1363.42 -0.0578604 -1.69601 0
M  V30 14305 H 1362.19 0.199077 -3.90793 0
M  V30 14306 H 1361.81 1.86734 -3.51022 0
M  V30 14307 N 1362.81 1.55714 0.243056 0
M  V30 14308 C 1363.77 1.89832 1.28438 0
M  V30 14309 C 1364.77 0.775083 1.40887 0
M  V30 14310 O 1365.96 1.04304 1.39521 0
M  V30 14311 C 1363.09 2.13016 2.66153 0
M  V30 14312 H 1364.29 2.82947 0.994022 0
M  V30 14313 H 1361.84 1.48665 0.482521 0
M  V30 14314 H 1362.57 1.22381 3.00322 0
M  V30 14315 H 1362.36 2.94824 2.58498 0
M  V30 14316 H 1363.85 2.40581 3.41336 0
M  V30 14317 N 1364.29 -0.50888 1.49158 0
M  V30 14318 C 1365.22 -1.62008 1.68154 0
M  V30 14319 C 1366.2 -1.61624 0.53025 0
M  V30 14320 O 1367.38 -1.78489 0.765205 0
M  V30 14321 C 1364.51 -3.00525 1.74075 0
M  V30 14322 C 1363.47 -3.15773 2.88915 0
M  V30 14323 C 1362.79 -4.55562 2.79942 0
M  V30 14324 C 1364.09 -2.96542 4.29953 0
M  V30 14325 H 1365.79 -1.46365 2.61185 0
M  V30 14326 H 1363.33 -0.702705 1.2569 0
M  V30 14327 H 1365.29 -3.78154 1.8595 0
M  V30 14328 H 1364.01 -3.17238 0.776373 0
M  V30 14329 H 1362.67 -2.40567 2.76628 0
M  V30 14330 H 1362.32 -4.6914 1.81429 0
M  V30 14331 H 1362.02 -4.66706 3.57015 0
M  V30 14332 H 1363.54 -5.35262 2.93814 0
M  V30 14333 H 1364.95 -3.63947 4.42963 0
M  V30 14334 H 1363.35 -3.19164 5.08187 0
M  V30 14335 H 1364.42 -1.92745 4.44946 0
M  V30 14336 N 1365.76 -1.381 -0.759346 0
M  V30 14337 C 1366.99 -1.37389 -1.55367 0
M  V30 14338 C 1367.41 0.0356097 -1.88066 0
M  V30 14339 O 1366.77 1.0161 -1.5015 0
M  V30 14340 C 1366.82 -2.23098 -2.83302 0
M  V30 14341 O 1365.92 -1.64412 -3.7821 0
M  V30 14342 H 1365.27 -0.468894 -0.470143 0
M  V30 14343 H 1367.8 -1.81787 -0.938858 0
M  V30 14344 H 1367.81 -2.36753 -3.32283 0
M  V30 14345 H 1366.48 -3.25544 -2.58831 0
M  V30 14346 H 1365.06 -1.59867 -3.36893 0
M  V30 14347 N 1367.24 0.986894 -1.22875 0
M  V30 14348 C 1368.17 2.09628 -1.0285 0
M  V30 14349 C 1369.15 1.70019 0.0525118 0
M  V30 14350 O 1370.34 1.93883 -0.110874 0
M  V30 14351 C 1367.47 3.41866 -0.61194 0
M  V30 14352 C 1366.42 3.95351 -1.63956 0
M  V30 14353 C 1365.75 5.23707 -1.07865 0
M  V30 14354 C 1367.05 4.25354 -3.03102 0
M  V30 14355 H 1368.74 2.26639 -1.95641 0
M  V30 14356 H 1366.29 1.0891 -0.942048 0
M  V30 14357 H 1368.24 4.18893 -0.458936 0
M  V30 14358 H 1366.97 3.24701 0.35164 0
M  V30 14359 H 1365.62 3.20462 -1.78045 0
M  V30 14360 H 1365.27 5.02888 -0.106246 0
M  V30 14361 H 1364.97 5.60459 -1.76522 0
M  V30 14362 H 1366.5 6.03362 -0.937359 0
M  V30 14363 H 1367.91 4.93156 -2.92353 0
M  V30 14364 H 1366.31 4.73292 -3.68938 0
M  V30 14365 H 1367.38 3.32887 -3.52583 0
M  V30 14366 N 1368.72 1.0394 1.18466 0
M  V30 14367 C 1370.13 0.77011 1.70077 0
M  V30 14368 C 1370.48 -0.70916 1.82935 0
M  V30 14369 O 1369.61 -1.55209 1.50795 0
M  V30 14370 C 1370.2 1.39132 3.08914 0
M  V30 14371 C 1368.76 1.17037 3.57742 0
M  V30 14372 C 1367.91 1.48279 2.34326 0
M  V30 14373 H 1370.86 1.20598 1.03159 0
M  V30 14374 H 1370.88 0.793861 3.72126 0
M  V30 14375 H 1370.39 2.46795 2.99523 0
M  V30 14376 H 1368.49 0.112435 3.7243 0
M  V30 14377 H 1368.61 1.8665 4.41247 0
M  V30 14378 H 1366.97 0.902438 2.38177 0
M  V30 14379 H 1367.75 2.57047 2.27556 0
M  V30 14380 N 1370.2 -1.34667 0.818693 0
M  V30 14381 C 1371.15 -2.27031 0.210001 0
M  V30 14382 C 1372.13 -1.48338 -0.623258 0
M  V30 14383 O 1373.32 -1.70409 -0.478531 0
M  V30 14384 C 1370.45 -3.37457 -0.63069 0
M  V30 14385 C 1369.54 -4.23565 0.212964 0
M  V30 14386 N 1369.93 -4.89286 1.28191 0
M  V30 14387 C 1368.23 -4.46 -0.00340477 0
M  V30 14388 C 1368.93 -5.53216 1.79798 0
M  V30 14389 N 1367.91 -5.32302 1.10253 0
M  V30 14390 H 1371.71 -2.75345 1.02773 0
M  V30 14391 H 1369.22 -1.48336 0.661071 0
M  V30 14392 H 1371.22 -4.0259 -1.0829 0
M  V30 14393 H 1369.88 -2.90694 -1.44663 0
M  V30 14394 H 1370.89 -4.90417 1.66467 0
M  V30 14395 H 1367.57 -4.10005 -0.787516 0
M  V30 14396 H 1368.96 -6.15613 2.69203 0
M  V30 14397 N 1371.68 -0.573274 -1.46804 0
M  V30 14398 C 1372.92 -0.0553432 -2.02724 0
M  V30 14399 C 1373.26 1.29753 -1.44492 0
M  V30 14400 O 1372.53 1.84804 -0.606455 0
M  V30 14401 C 1372.81 0.0205511 -3.60094 0
M  V30 14402 C 1372.67 -1.36055 -4.2873 0
M  V30 14403 C 1373.99 0.725944 -4.34071 0
M  V30 14404 H 1371.1 -0.0215858 -0.736684 0
M  V30 14405 H 1373.75 -0.738657 -1.75054 0
M  V30 14406 H 1371.9 0.602481 -3.838 0
M  V30 14407 H 1373.57 -1.98692 -4.16316 0
M  V30 14408 H 1371.81 -1.93087 -3.88458 0
M  V30 14409 H 1372.48 -1.26001 -5.37427 0
M  V30 14410 H 1374.96 0.231677 -4.15455 0
M  V30 14411 H 1373.83 0.74805 -5.43779 0
M  V30 14412 H 1374.1 1.78536 -4.04447 0
M  V30 14413 N 1373.15 1.5451 -0.310553 0
M  V30 14414 C 1374.1 2.23871 0.561277 0
M  V30 14415 C 1375.07 1.22475 1.12202 0
M  V30 14416 O 1376.26 1.51121 1.16477 0
M  V30 14417 C 1373.4 2.99029 1.72267 0
M  V30 14418 C 1372.51 4.15218 1.19241 0
M  V30 14419 C 1371.64 4.77935 2.31843 0
M  V30 14420 C 1370.68 5.86251 1.75999 0
M  V30 14421 N 1369.82 6.42885 2.82212 0
M  V30 14422 H 1374.66 2.97977 -0.0367998 0
M  V30 14423 H 1372.2 1.4707 -0.0299317 0
M  V30 14424 H 1374.16 3.40842 2.40588 0
M  V30 14425 H 1372.79 2.27281 2.29223 0
M  V30 14426 H 1371.84 3.78279 0.401148 0
M  V30 14427 H 1373.15 4.93225 0.743675 0
M  V30 14428 H 1372.3 5.2265 3.08094 0
M  V30 14429 H 1371.04 3.99281 2.80047 0
M  V30 14430 H 1370.05 5.40952 0.982415 0
M  V30 14431 H 1371.27 6.66795 1.28688 0
M  V30 14432 H 1369.22 5.67109 3.29732 0
M  V30 14433 H 1369.14 7.16267 2.41864 0
M  V30 14434 H 1370.4 6.92256 3.58332 0
M  V30 14435 N 1374.63 0.0384594 1.57553 0
M  V30 14436 C 1375.56 -0.938444 2.13812 0
M  V30 14437 C 1376.54 -1.33307 1.05657 0
M  V30 14438 O 1377.73 -1.41003 1.33535 0
M  V30 14439 C 1374.86 -2.21764 2.67279 0
M  V30 14440 C 1373.81 -1.96347 3.80305 0
M  V30 14441 C 1373.14 -3.30612 4.20238 0
M  V30 14442 C 1374.44 -1.2952 5.05986 0
M  V30 14443 H 1376.13 -0.469887 2.9569 0
M  V30 14444 H 1373.68 -0.224576 1.42238 0
M  V30 14445 H 1375.63 -2.90493 3.05273 0
M  V30 14446 H 1374.36 -2.70802 1.82576 0
M  V30 14447 H 1373.02 -1.30033 3.42764 0
M  V30 14448 H 1372.66 -3.77427 3.32502 0
M  V30 14449 H 1372.36 -3.14409 4.96408 0
M  V30 14450 H 1373.89 -4.00594 4.60822 0
M  V30 14451 H 1375.3 -1.88264 5.41507 0
M  V30 14452 H 1373.7 -1.23685 5.87216 0
M  V30 14453 H 1374.77 -0.269439 4.84151 0
M  V30 14454 N 1376.11 -1.55841 -0.234795 0
M  V30 14455 C 1377.06 -1.91326 -1.29086 0
M  V30 14456 C 1378.03 -0.768868 -1.47233 0
M  V30 14457 O 1379.21 -1.0236 -1.61019 0
M  V30 14458 C 1376.35 -2.22388 -2.6389 0
M  V30 14459 C 1375.47 -3.49693 -2.5365 0
M  V30 14460 C 1374.6 -3.70267 -3.80889 0
M  V30 14461 C 1373.64 -4.91132 -3.65317 0
M  V30 14462 N 1372.78 -5.08163 -4.84474 0
M  V30 14463 H 1377.62 -2.81382 -0.981246 0
M  V30 14464 H 1375.15 -1.3928 -0.47324 0
M  V30 14465 H 1377.11 -2.38404 -3.42373 0
M  V30 14466 H 1375.74 -1.35521 -2.92974 0
M  V30 14467 H 1374.79 -3.41943 -1.66672 0
M  V30 14468 H 1376.11 -4.38326 -2.38059 0
M  V30 14469 H 1375.26 -3.86308 -4.67815 0
M  V30 14470 H 1374 -2.7989 -3.9939 0
M  V30 14471 H 1373 -4.75054 -2.76774 0
M  V30 14472 H 1374.23 -5.8298 -3.48298 0
M  V30 14473 H 1372.18 -4.20726 -5.03314 0
M  V30 14474 H 1372.09 -5.90904 -4.71559 0
M  V30 14475 H 1373.36 -5.28627 -5.72865 0
M  V30 14476 O 1377.63 0.380346 -1.56957 0
M  V30 14477 H 1378.32 1.03176 -1.63934 0
M  V30 END ATOM
M  V30 BEGIN BOND
M  V30 END BOND
M  V30 END CTAB
M  END
$$$$
