drugbank_target|Q9KKU4 Organic hydroperoxide resistance protein, putative (DB02032)
 OpenBabel12092120483D

  0  0  0     0  0            999 V3000
M  V30 BEGIN CTAB
M  V30 COUNTS 2115 2129 0 0 0
M  V30 BEGIN ATOM
M  V30 1 H -0.908 1.98254 -0.117106 0
M  V30 2 N 0 1.576 0 0
M  V30 3 C 0.933 2.03868 1.02534 0
M  V30 4 C 1.911 0.928543 1.3348 0
M  V30 5 O 3.095 1.19667 1.45644 0
M  V30 6 C 0.222 2.43627 2.35294 0
M  V30 7 C -0.732 3.65373 2.2001 0
M  V30 8 S 0.101 5.13292 1.52614 0
M  V30 9 C 1.257 5.56322 2.86805 0
M  V30 10 H 1.49 2.90518 0.631377 0
M  V30 11 H -0.977 1.52953 0.210867 0
M  V30 12 H 0.981 2.67203 3.11629 0
M  V30 13 H -0.358 1.57376 2.7183 0
M  V30 14 H -1.165 3.90944 3.18086 0
M  V30 15 H -1.563 3.418 1.51819 0
M  V30 16 H 0.729 5.58782 3.83104 0
M  V30 17 H 1.672 6.56266 2.65933 0
M  V30 18 H 2.08 4.83886 2.90714 0
M  V30 19 N 1.4781 -0.272755 1.55222 0
M  V30 20 C 2.8941 -0.619959 1.47067 0
M  V30 21 C 3.0941 -1.895 0.684978 0
M  V30 22 O 2.1501 -2.51675 0.203931 0
M  V30 23 C 3.4631 -0.746693 2.91282 0
M  V30 24 C 5.0111 -0.840731 3.01497 0
M  V30 25 C 5.4861 -0.99924 4.46967 0
M  V30 26 N 6.9771 -1.06476 4.50796 0
M  V30 27 C 7.7121 -1.20621 5.6057 0
M  V30 28 N 7.2081 -1.31483 6.80209 0
M  V30 29 N 9.0011 -1.23733 5.48312 0
M  V30 30 H 1.1521 0.564606 2.04758 0
M  V30 31 H 3.4151 0.191177 0.928523 0
M  V30 32 H 3.1211 0.119753 3.51496 0
M  V30 33 H 2.9951 -1.6269 3.40311 0
M  V30 34 H 5.3821 -1.69764 2.41379 0
M  V30 35 H 5.4631 0.0640874 2.5572 0
M  V30 36 H 5.1071 -0.146984 5.07687 0
M  V30 37 H 5.0371 -1.91871 4.90401 0
M  V30 38 H 7.5281 -0.993196 3.64615 0
M  V30 39 H 7.8411 -1.42111 7.59621 0
M  V30 40 H 6.1861 -1.28487 6.8302 0
M  V30 41 H 9.3771 -1.14877 4.53785 0
M  V30 42 H 9.5501 -1.34412 6.33906 0
M  V30 43 N 2.9562 -1.48159 -0.537278 0
M  V30 44 C 3.9042 -1.62573 -1.66352 0
M  V30 45 C 4.8982 -0.492366 -1.62087 0
M  V30 46 O 6.1042 -0.670847 -1.67032 0
M  V30 47 H 2.4792 -0.511992 -0.550789 0
M  V30 48 H 4.4502 -2.57176 -1.51337 0
M  V30 49 C 3.1992 -1.67583 -3.04649 0
M  V30 50 H 2.5222 -2.54151 -3.08622 0
M  V30 51 H 3.9622 -1.81713 -3.83088 0
M  V30 52 C 2.4212 -0.413039 -3.34358 0
M  V30 53 O 2.9512 0.477259 -3.98855 0
M  V30 54 N 1.1572 -0.286961 -2.8918 0
M  V30 55 H 0.7042 -1.01241 -2.36871 0
M  V30 56 H 0.6622 0.556963 -3.09427 0
M  V30 57 N 4.4343 0.785586 -1.36625 0
M  V30 58 C 5.3813 1.89838 -1.31264 0
M  V30 59 C 6.3513 1.65115 -0.180633 0
M  V30 60 O 7.5363 1.87222 -0.36777 0
M  V30 61 C 4.6763 3.26706 -1.11163 0
M  V30 62 C 3.7893 3.63476 -2.33472 0
M  V30 63 C 2.9243 4.89481 -2.06353 0
M  V30 64 C 1.9633 5.18941 -3.24602 0
M  V30 65 N 1.1003 6.36131 -2.97123 0
M  V30 66 H 5.9403 1.93756 -2.26413 0
M  V30 67 H 3.4773 0.947454 -1.12524 0
M  V30 68 H 5.4353 4.05639 -0.975337 0
M  V30 69 H 4.0653 3.222 -0.196674 0
M  V30 70 H 3.1173 2.79636 -2.57891 0
M  V30 71 H 4.4293 3.81193 -3.21704 0
M  V30 72 H 3.5833 5.76288 -1.89675 0
M  V30 73 H 2.3223 4.73841 -1.15437 0
M  V30 74 H 1.3273 4.30615 -3.41834 0
M  V30 75 H 2.5523 5.36498 -4.16349 0
M  V30 76 H 0.4983 6.21875 -2.08823 0
M  V30 77 H 0.4153 6.54198 -3.78894 0
M  V30 78 H 1.6833 7.2591 -2.84033 0
M  V30 79 N 5.9124 1.20967 1.01018 0
M  V30 80 C 6.8604 0.961223 2.1181 0
M  V30 81 C 7.8544 -0.0897034 1.69162 0
M  V30 82 O 9.0604 0.0612271 1.79896 0
M  V30 83 H 5.4354 0.29355 0.692338 0
M  V30 84 H 7.4064 1.90178 2.29946 0
M  V30 85 C 6.1554 0.536854 3.4353 0
M  V30 86 H 5.4784 1.33713 3.76777 0
M  V30 87 H 6.9184 0.402286 4.22087 0
M  V30 88 C 5.3774 -0.751574 3.2841 0
M  V30 89 O 5.9074 -1.80841 3.58691 0
M  V30 90 N 4.1134 -0.716079 2.81639 0
M  V30 91 H 3.6604 0.144236 2.57196 0
M  V30 92 H 3.6184 -1.57847 2.71904 0
M  V30 93 N 7.3905 -1.2043 1.01659 0
M  V30 94 C 8.3235 -2.21924 0.531521 0
M  V30 95 C 9.3015 -1.57054 -0.421032 0
M  V30 96 O 10.4855 -1.85389 -0.341035 0
M  V30 97 C 7.6125 -3.37942 -0.226496 0
M  V30 98 C 6.6585 -4.21115 0.67561 0
M  V30 99 S 7.4915 -4.90674 2.14475 0
M  V30 100 C 8.6475 -6.10113 1.3969 0
M  V30 101 H 8.8805 -2.62725 1.3915 0
M  V30 102 H 6.4135 -1.30481 0.825479 0
M  V30 103 H 8.3715 -4.05196 -0.657738 0
M  V30 104 H 7.0325 -2.956 -1.06205 0
M  V30 105 H 6.2255 -5.03918 0.091108 0
M  V30 106 H 5.8275 -3.59115 1.04463 0
M  V30 107 H 8.1195 -6.7411 0.676897 0
M  V30 108 H 9.0625 -6.73022 2.20107 0
M  V30 109 H 9.4705 -5.57283 0.899786 0
M  V30 110 N 8.8686 -0.792821 -1.36206 0
M  V30 111 C 10.0936 -0.377701 -2.03932 0
M  V30 112 C 10.5186 0.998947 -1.59382 0
M  V30 113 O 9.8766 1.64421 -0.763903 0
M  V30 114 C 9.9246 -0.453635 -3.57735 0
M  V30 115 O 9.0286 0.538151 -4.08874 0
M  V30 116 H 8.3696 -0.159855 -0.644471 0
M  V30 117 H 10.8996 -1.07488 -1.7409 0
M  V30 118 H 10.9096 -0.318464 -4.06755 0
M  V30 119 H 9.5846 -1.45784 -3.89512 0
M  V30 120 H 8.1616 0.364359 -3.71116 0
M  V30 121 N 10.3467 1.47872 -0.545128 0
M  V30 122 C 11.5747 2.06889 -0.021084 0
M  V30 123 C 11.9897 1.39955 1.2672 0
M  V30 124 O 11.3467 0.492036 1.75742 0
M  V30 125 C 11.3977 3.60996 0.190817 0
M  V30 126 O 11.1187 4.25419 -1.04644 0
M  V30 127 C 12.6197 4.36849 0.753521 0
M  V30 128 H 9.8397 0.669785 -0.0403635 0
M  V30 129 H 12.3837 1.90049 -0.755095 0
M  V30 130 H 10.5387 3.77391 0.87492 0
M  V30 131 H 10.9527 5.17785 -0.836611 0
M  V30 132 H 12.4267 5.45399 0.851139 0
M  V30 133 H 12.9037 4.02306 1.762 0
M  V30 134 H 13.5097 4.25169 0.105503 0
M  V30 135 N 11.8248 0.280983 1.55075 0
M  V30 136 C 13.0738 -0.334784 1.98902 0
M  V30 137 C 13.3868 -1.56534 1.17288 0
M  V30 138 O 14.5928 -2.25443 1.51287 0
M  V30 139 C 13.0488 -0.646994 3.54037 0
M  V30 140 C 12.6568 0.564085 4.44435 0
M  V30 141 C 14.4008 -1.22506 4.06439 0
M  V30 142 C 12.3078 0.226137 5.90967 0
M  V30 143 H 11.2378 -0.128866 0.742906 0
M  V30 144 H 13.8888 0.386556 1.79382 0
M  V30 145 H 12.2708 -1.42739 3.6938 0
M  V30 146 H 13.4448 1.34082 4.40861 0
M  V30 147 H 11.7598 1.0594 4.02698 0
M  V30 148 H 14.3568 -1.49182 5.13468 0
M  V30 149 H 14.6998 -2.16085 3.55827 0
M  V30 150 H 15.2328 -0.50682 3.94558 0
M  V30 151 H 11.9718 1.12996 6.45687 0
M  V30 152 H 11.4918 -0.513717 5.97596 0
M  V30 153 H 13.1708 -0.179539 6.46751 0
M  V30 154 N 13.3029 -1.57598 0.00835791 0
M  V30 155 C 14.5329 -1.94931 -0.684496 0
M  V30 156 C 14.9409 -0.882233 -1.67372 0
M  V30 157 O 14.2839 0.146621 -1.83114 0
M  V30 158 C 14.3459 -3.283 -1.4649 0
M  V30 159 C 14.0099 -4.52548 -0.63634 0
M  V30 160 C 15.0069 -5.19839 0.0795586 0
M  V30 161 C 12.6919 -4.98942 -0.579849 0
M  V30 162 C 14.6859 -6.3183 0.840843 0
M  V30 163 C 12.3729 -6.10819 0.185155 0
M  V30 164 C 13.3709 -6.77121 0.894227 0
M  V30 165 O 13.0589 -7.86853 1.64673 0
M  V30 166 H 12.7909 -0.647249 -0.19505 0
M  V30 167 H 15.3449 -2.05318 0.0581272 0
M  V30 168 H 13.5749 -3.14345 -2.2522 0
M  V30 169 H 15.2639 -3.50685 -2.04389 0
M  V30 170 H 16.0299 -4.84979 0.0451202 0
M  V30 171 H 11.9089 -4.47155 -1.1213 0
M  V30 172 H 15.4529 -6.83513 1.39483 0
M  V30 173 H 11.3499 -6.4512 0.221384 0
M  V30 174 H 12.1179 -8.03412 1.56432 0
M  V30 175 N 14.781 0.264519 -1.55364 0
M  V30 176 C 15.713 1.34965 -1.85248 0
M  V30 177 C 16.726 1.45136 -0.737525 0
M  V30 178 O 17.915 1.46801 -1.01547 0
M  V30 179 C 15.015 2.73008 -2.00797 0
M  V30 180 C 14.188 2.85324 -3.31525 0
M  V30 181 C 13.247 4.04097 -3.37034 0
M  V30 182 O 12.273 3.94455 -4.10358 0
M  V30 183 N 13.475 5.16458 -2.65049 0
M  V30 184 H 16.24 1.09672 -2.78913 0
M  V30 185 H 13.801 0.454635 -1.55386 0
M  V30 186 H 15.793 3.50772 -2.01844 0
M  V30 187 H 14.363 2.91087 -1.1396 0
M  V30 188 H 13.583 1.94377 -3.42945 0
M  V30 189 H 14.871 2.9049 -4.17724 0
M  V30 190 H 14.269 5.27181 -2.05175 0
M  V30 191 H 12.826 5.92422 -2.71809 0
M  V30 192 N 16.2591 1.48442 0.529413 0
M  V30 193 C 17.4871 1.60151 1.30994 0
M  V30 194 C 17.9021 0.261985 1.86973 0
M  V30 195 O 17.2591 -0.748805 1.66431 0
M  V30 196 C 17.3101 2.64854 2.46038 0
M  V30 197 O 17.0311 3.93608 1.92365 0
M  V30 198 C 18.5321 2.87007 3.37849 0
M  V30 199 H 15.7521 0.539971 0.398338 0
M  V30 200 H 18.2961 1.94273 0.638597 0
M  V30 201 H 16.4511 2.33589 3.09055 0
M  V30 202 H 16.8651 4.51055 2.67675 0
M  V30 203 H 18.3391 3.64068 4.14919 0
M  V30 204 H 18.8161 1.95852 3.93114 0
M  V30 205 H 19.4221 3.19579 2.80623 0
M  V30 206 N 17.7372 -0.778329 1.37039 0
M  V30 207 C 18.9622 -1.57248 1.35233 0
M  V30 208 C 19.3872 -1.87999 -0.0615568 0
M  V30 209 O 18.7452 -1.48734 -1.03672 0
M  V30 210 C 18.7932 -2.86353 2.19167 0
M  V30 211 O 17.8972 -3.80442 1.59178 0
M  V30 212 H 17.2382 -0.476569 0.462362 0
M  V30 213 H 19.7682 -0.963853 1.80474 0
M  V30 214 H 19.7782 -3.35519 2.32145 0
M  V30 215 H 18.4532 -2.63299 3.21942 0
M  V30 216 H 17.0302 -3.39067 1.55203 0
M  V30 217 N 19.2153 -1.21501 -1.00376 0
M  V30 218 C 20.1783 -0.976927 -2.07337 0
M  V30 219 C 21.1783 0.0525322 -1.60714 0
M  V30 220 O 22.3683 -0.184869 -1.73216 0
M  V30 221 C 19.5003 -0.473423 -3.37597 0
M  V30 222 H 20.6933 -1.92587 -2.29892 0
M  V30 223 H 18.2463 -1.03217 -1.17371 0
M  V30 224 H 18.9813 0.480379 -3.20722 0
M  V30 225 H 18.7663 -1.216 -3.72768 0
M  V30 226 H 20.2563 -0.32675 -4.1632 0
M  V30 227 N 20.6934 1.19889 -1.02296 0
M  V30 228 C 21.9214 1.9339 -0.735399 0
M  V30 229 C 22.3364 1.75148 0.704887 0
M  V30 230 O 21.6934 1.06954 1.47875 0
M  V30 231 C 21.7444 3.45313 -1.06962 0
M  V30 232 O 21.4654 3.62964 -2.45334 0
M  V30 233 C 22.9664 4.35948 -0.804021 0
M  V30 234 H 20.1864 0.61448 -0.269546 0
M  V30 235 H 22.7304 1.522 -1.36585 0
M  V30 236 H 20.8854 3.84359 -0.484455 0
M  V30 237 H 21.2994 4.56886 -2.57595 0
M  V30 238 H 22.7734 5.41174 -1.0879 0
M  V30 239 H 23.2504 4.3842 0.261691 0
M  V30 240 H 23.8564 4.02574 -1.37164 0
M  V30 241 N 22.1715 0.800033 1.35784 0
M  V30 242 C 23.1345 0.211565 2.28221 0
M  V30 243 C 24.1345 -0.59728 1.49296 0
M  V30 244 O 25.3245 -0.416721 1.69142 0
M  V30 245 C 22.4565 -0.705846 3.33513 0
M  V30 246 H 23.6495 1.02677 2.81776 0
M  V30 247 H 21.2025 0.570211 1.45528 0
M  V30 248 H 21.9375 -1.54498 2.85133 0
M  V30 249 H 21.7225 -0.127655 3.91892 0
M  V30 250 H 23.2125 -1.11211 4.02519 0
M  V30 251 N 23.6496 -1.47581 0.552962 0
M  V30 252 C 24.8746 -2.07378 0.0300593 0
M  V30 253 C 25.2996 -1.40355 -1.25229 0
M  V30 254 O 24.6576 -0.477099 -1.7491 0
M  V30 255 C 24.7056 -3.60274 -0.153231 0
M  V30 256 O 23.8096 -3.94041 -1.21678 0
M  V30 257 H 23.1506 -0.662158 0.0494182 0
M  V30 258 H 25.6806 -1.89662 0.767434 0
M  V30 259 H 25.6906 -4.0633 -0.368761 0
M  V30 260 H 24.3656 -4.08455 0.783397 0
M  V30 261 H 22.9426 -3.59735 -0.982079 0
M  V30 262 N 25.1277 -0.289203 -1.54924 0
M  V30 263 C 26.0907 0.579144 -2.21762 0
M  V30 264 C 27.0907 1.07047 -1.1999 0
M  V30 265 O 28.2807 0.968384 -1.44803 0
M  V30 266 C 25.4127 1.80055 -2.8947 0
M  V30 267 H 26.6057 -0.00464908 -2.999 0
M  V30 268 H 24.1587 -0.0399306 -1.56249 0
M  V30 269 H 24.8937 2.42449 -2.15381 0
M  V30 270 H 24.6787 1.45602 -3.64064 0
M  V30 271 H 26.1687 2.41773 -3.40493 0
M  V30 272 N 26.6058 1.57591 -0.0167156 0
M  V30 273 C 27.8538 1.90906 0.663285 0
M  V30 274 C 28.1748 0.892509 1.73376 0
M  V30 275 O 27.4448 -0.0677623 1.95783 0
M  V30 276 H 26.0248 0.704637 0.247983 0
M  V30 277 H 28.6868 1.94803 -0.0615909 0
M  V30 278 H 27.7828 2.9116 1.12393 0
M  V30 279 N 28.0839 -0.256276 1.55502 0
M  V30 280 C 29.4999 -0.604325 1.47716 0
M  V30 281 C 29.6999 -1.88763 0.705039 0
M  V30 282 O 28.7559 -2.51445 0.230613 0
M  V30 283 C 30.0689 -0.715756 2.92057 0
M  V30 284 C 31.6169 -0.808706 3.02372 0
M  V30 285 C 32.0919 -0.951777 4.48001 0
M  V30 286 N 33.5829 -1.01688 4.519 0
M  V30 287 C 34.3179 -1.14668 5.61817 0
M  V30 288 N 33.8139 -1.24261 6.81565 0
M  V30 289 N 35.6069 -1.1791 5.49594 0
M  V30 290 H 27.7579 0.586291 2.04148 0
M  V30 291 H 30.0209 0.201015 0.926443 0
M  V30 292 H 29.7269 0.157027 3.51349 0
M  V30 293 H 29.6009 -1.59071 3.42018 0
M  V30 294 H 31.9879 -1.67195 2.43166 0
M  V30 295 H 32.0689 0.0912063 2.55637 0
M  V30 296 H 31.7129 -0.0931291 5.07815 0
M  V30 297 H 31.6429 -1.86659 4.92408 0
M  V30 298 H 34.1339 -0.954468 3.65648 0
M  V30 299 H 34.4469 -1.34046 7.61086 0
M  V30 300 H 32.7919 -1.21236 6.84344 0
M  V30 301 H 35.9829 -1.10057 4.54978 0
M  V30 302 H 36.1559 -1.27681 6.35296 0
M  V30 303 N 29.562 -1.4872 -0.521534 0
M  V30 304 C 30.51 -1.64328 -1.64618 0
M  V30 305 C 31.504 -0.50953 -1.61555 0
M  V30 306 O 32.71 -0.688525 -1.66311 0
M  V30 307 H 29.085 -0.517805 -0.545328 0
M  V30 308 H 31.056 -2.58767 -1.48601 0
M  V30 309 C 29.805 -1.70805 -3.02855 0
M  V30 310 H 29.128 -2.5741 -3.05909 0
M  V30 311 H 30.568 -1.85766 -3.81139 0
M  V30 312 C 29.027 -0.448479 -3.33902 0
M  V30 313 O 29.557 0.434928 -3.99339 0
M  V30 314 N 27.763 -0.317616 -2.88859 0
M  V30 315 H 27.31 -1.03748 -2.35784 0
M  V30 316 H 27.268 0.524113 -3.10001 0
M  V30 317 N 31.0401 0.771051 -1.3745 0
M  V30 318 C 32.2881 1.52661 -1.32435 0
M  V30 319 C 32.6091 1.9479 0.0905024 0
M  V30 320 O 31.8791 1.66348 1.03466 0
M  V30 321 H 30.4591 0.566218 -0.487244 0
M  V30 322 H 33.1211 0.917636 -1.71946 0
M  V30 323 H 32.2171 2.42568 -1.96385 0
M  V30 324 N 32.5182 1.22032 0.997298 0
M  V30 325 C 33.7642 1.04376 1.73878 0
M  V30 326 C 34.0972 -0.420716 1.89588 0
M  V30 327 O 33.3722 -1.31202 1.43583 0
M  V30 328 C 33.6552 1.75047 3.14691 0
M  V30 329 C 33.5082 3.29062 3.06656 0
M  V30 330 C 34.8272 1.49928 4.13775 0
M  V30 331 H 31.9462 0.380578 0.631133 0
M  V30 332 H 34.5882 1.50312 1.16217 0
M  V30 333 H 32.7382 1.35996 3.63919 0
M  V30 334 H 34.4102 3.7753 2.65083 0
M  V30 335 H 32.6532 3.58967 2.43568 0
M  V30 336 H 33.3242 3.73683 4.06282 0
M  V30 337 H 35.8002 1.83842 3.73285 0
M  V30 338 H 34.6762 2.01878 5.10428 0
M  V30 339 H 34.9372 0.430929 4.39995 0
M  V30 340 N 33.9963 -1.19345 1.0293 0
M  V30 341 C 35.2423 -1.89318 0.727083 0
M  V30 342 C 35.5753 -1.79446 -0.742483 0
M  V30 343 O 34.8503 -1.1871 -1.54072 0
M  V30 344 C 35.1333 -3.40238 1.17942 0
M  V30 345 C 34.9863 -3.58979 2.71024 0
M  V30 346 C 36.3053 -4.33479 0.760548 0
M  V30 347 H 33.4243 -0.687475 0.265606 0
M  V30 348 H 36.0663 -1.40477 1.2793 0
M  V30 349 H 34.2163 -3.81964 0.709608 0
M  V30 350 H 35.8883 -3.26421 3.25955 0
M  V30 351 H 34.1313 -3.02018 3.11396 0
M  V30 352 H 34.8023 -4.64823 2.9773 0
M  V30 353 H 37.2783 -3.99469 1.16464 0
M  V30 354 H 36.1543 -5.37664 1.10493 0
M  V30 355 H 36.4153 -4.40813 -0.337063 0
M  V30 356 N 35.4744 -0.807222 -1.35358 0
M  V30 357 C 36.6994 -0.399309 -2.0352 0
M  V30 358 C 37.1244 0.981986 -1.60433 0
M  V30 359 O 36.4824 1.63601 -0.781299 0
M  V30 360 C 36.5304 -0.491552 -3.57234 0
M  V30 361 O 35.6344 0.494754 -4.09421 0
M  V30 362 H 34.9754 -0.166682 -0.642739 0
M  V30 363 H 37.5054 -1.09328 -1.72941 0
M  V30 364 H 37.5154 -0.361588 -4.06395 0
M  V30 365 H 36.1904 -1.49907 -3.87944 0
M  V30 366 H 34.7674 0.324977 -3.71481 0
M  V30 367 N 36.9525 1.47285 -0.560781 0
M  V30 368 C 38.1805 2.06855 -0.0430262 0
M  V30 369 C 38.5955 1.41291 1.25229 0
M  V30 370 O 37.9525 0.510648 1.7521 0
M  V30 371 C 38.0035 3.61178 0.152518 0
M  V30 372 O 37.7245 4.24285 -1.0915 0
M  V30 373 C 39.2255 4.37624 0.707145 0
M  V30 374 H 36.4455 0.669319 -0.0474652 0
M  V30 375 H 38.9895 1.89237 -0.77521 0
M  V30 376 H 37.1445 3.78298 0.834843 0
M  V30 377 H 37.5585 5.16868 -0.891482 0
M  V30 378 H 39.0325 5.46271 0.793244 0
M  V30 379 H 39.5095 4.04152 1.71923 0
M  V30 380 H 40.1155 4.25257 0.0604027 0
M  V30 381 N 38.4306 0.297415 1.54768 0
M  V30 382 C 39.3406 -0.58983 2.27064 0
M  V30 383 C 40.3566 -1.15144 1.30453 0
M  V30 384 O 41.5326 -1.17699 1.63428 0
M  V30 385 C 38.5976 -1.74714 2.9946 0
M  V30 386 C 37.6586 -1.21997 4.11601 0
M  V30 387 C 36.8916 -2.32212 4.80535 0
M  V30 388 O 37.1146 -3.52036 4.48806 0
M  V30 389 O 36.0486 -1.99106 5.68014 0
M  V30 390 H 39.8746 -0.00348199 3.037 0
M  V30 391 H 37.4596 0.0640035 1.49263 0
M  V30 392 H 39.3416 -2.42147 3.44881 0
M  V30 393 H 38.0166 -2.32016 2.25722 0
M  V30 394 H 36.9236 -0.511458 3.70587 0
M  V30 395 H 38.2566 -0.692419 4.87305 0
M  V30 396 N 39.9087 -1.5758 0.0250728 0
M  V30 397 C 41.1857 -1.82917 -0.692873 0
M  V30 398 C 41.5657 -0.908137 -1.90568 0
M  V30 399 O 40.9137 0.0372298 -2.2847 0
M  V30 400 C 41.1237 -3.32034 -1.07492 0
M  V30 401 C 42.4717 -3.98406 -1.46826 0
M  V30 402 O 43.4957 -3.36505 -1.16801 0
M  V30 403 O 42.3547 -5.07497 -2.02754 0
M  V30 404 H 39.4487 -0.754079 -0.33955 0
M  V30 405 H 41.9947 -1.69619 0.0524456 0
M  V30 406 H 40.7667 -3.90728 -0.211552 0
M  V30 407 H 40.3897 -3.50424 -1.87854 0
M  V30 408 N 41.3868 0.248026 -1.55636 0
M  V30 409 C 42.3338 1.30707 -1.90222 0
M  V30 410 C 43.3038 1.47881 -0.756332 0
M  V30 411 O 44.4888 1.61883 -1.00988 0
M  V30 412 C 41.6288 2.65769 -2.20138 0
M  V30 413 C 40.7418 2.56612 -3.47526 0
M  V30 414 C 39.8768 3.8402 -3.67017 0
M  V30 415 C 38.9158 3.69476 -4.8801 0
M  V30 416 N 38.0528 4.88774 -5.04029 0
M  V30 417 H 42.8928 1.00512 -2.80538 0
M  V30 418 H 40.4298 0.485055 -1.38873 0
M  V30 419 H 42.3878 3.44386 -2.35487 0
M  V30 420 H 41.0178 2.94115 -1.33027 0
M  V30 421 H 40.0698 1.69571 -3.40514 0
M  V30 422 H 41.3818 2.41774 -4.36287 0
M  V30 423 H 40.5358 4.7108 -3.8232 0
M  V30 424 H 39.2748 4.01754 -2.76487 0
M  V30 425 H 38.2798 2.80799 -4.72686 0
M  V30 426 H 39.5048 3.53238 -5.8 0
M  V30 427 H 37.4508 5.0687 -4.16435 0
M  V30 428 H 37.3678 4.76562 -5.86877 0
M  V30 429 H 38.6358 5.77335 -5.23741 0
M  V30 430 N 42.8649 1.48995 0.513639 0
M  V30 431 C 43.7949 1.67636 1.62544 0
M  V30 432 C 44.7759 0.525087 1.61793 0
M  V30 433 O 45.9609 0.759502 1.78732 0
M  V30 434 C 43.0909 1.73114 3.01079 0
M  V30 435 C 42.0449 2.87905 3.16693 0
M  V30 436 C 41.3709 2.78486 4.56453 0
M  V30 437 C 42.6709 4.29005 2.97913 0
M  V30 438 H 44.3649 2.60716 1.47198 0
M  V30 439 H 41.9109 1.25465 0.706714 0
M  V30 440 H 43.8639 1.84742 3.78746 0
M  V30 441 H 42.5879 0.766241 3.17484 0
M  V30 442 H 41.2469 2.75859 2.41448 0
M  V30 443 H 40.8949 1.7993 4.69717 0
M  V30 444 H 40.5949 3.55523 4.67843 0
M  V30 445 H 42.1189 2.92104 5.36197 0
M  V30 446 H 43.5329 4.41798 3.65359 0
M  V30 447 H 41.9299 5.07166 3.20785 0
M  V30 448 H 42.9999 4.44329 1.94165 0
M  V30 449 N 44.343 -0.763751 1.37857 0
M  V30 450 C 45.273 -1.89103 1.36975 0
M  V30 451 C 46.254 -1.68439 0.237152 0
M  V30 452 O 47.439 -1.8918 0.438713 0
M  V30 453 C 44.569 -3.26496 1.18395 0
M  V30 454 C 43.523 -3.61741 2.28751 0
M  V30 455 C 42.849 -4.97762 1.95286 0
M  V30 456 C 44.149 -3.67665 3.70972 0
M  V30 457 H 45.843 -1.90099 2.31307 0
M  V30 458 H 43.389 -0.91319 1.11341 0
M  V30 459 H 45.342 -4.05003 1.16406 0
M  V30 460 H 44.066 -3.25955 0.205215 0
M  V30 461 H 42.725 -2.85547 2.29909 0
M  V30 462 H 42.373 -4.93769 0.959221 0
M  V30 463 H 42.073 -5.22313 2.69189 0
M  V30 464 H 43.597 -5.7866 1.94898 0
M  V30 465 H 45.011 -4.36307 3.719 0
M  V30 466 H 43.408 -4.03718 4.43995 0
M  V30 467 H 44.478 -2.68134 4.0402 0
M  V30 468 N 45.8211 -1.22559 -0.990812 0
M  V30 469 C 46.7311 -1.01394 -2.11557 0
M  V30 470 C 47.7471 0.0383962 -1.73958 0
M  V30 471 O 48.9231 -0.154787 -2.00804 0
M  V30 472 C 45.9881 -0.596569 -3.41529 0
M  V30 473 C 45.0491 -1.72276 -3.93217 0
M  V30 474 C 44.2821 -1.32521 -5.16985 0
M  V30 475 O 44.5051 -0.204909 -5.70032 0
M  V30 476 O 43.4391 -2.14247 -5.62478 0
M  V30 477 H 47.2651 -1.95633 -2.32296 0
M  V30 478 H 44.8501 -1.01172 -1.0993 0
M  V30 479 H 46.7321 -0.374263 -4.19735 0
M  V30 480 H 45.4071 0.316939 -3.22145 0
M  V30 481 H 44.3141 -1.99961 -3.16174 0
M  V30 482 H 45.6471 -2.61421 -4.17037 0
M  V30 483 N 47.2992 1.18797 -1.03562 0
M  V30 484 C 48.2292 2.24472 -0.643019 0
M  V30 485 C 49.2102 1.66433 0.351283 0
M  V30 486 O 50.3952 1.92803 0.232505 0
M  V30 487 C 47.5252 3.473 4.24935e-05 0
M  V30 488 C 46.4792 4.18055 -0.917257 0
M  V30 489 C 45.8052 5.34519 -0.138941 0
M  V30 490 C 47.1052 4.72109 -2.23407 0
M  V30 491 H 48.7992 2.57566 -1.52643 0
M  V30 492 H 46.3452 1.23806 -0.735394 0
M  V30 493 H 48.2982 4.20426 0.286383 0
M  V30 494 H 47.0222 3.13424 0.918299 0
M  V30 495 H 45.6812 3.46821 -1.1879 0
M  V30 496 H 45.3292 4.96891 0.781562 0
M  V30 497 H 45.0292 5.82794 -0.750005 0
M  V30 498 H 46.5532 6.10438 0.1405 0
M  V30 499 H 47.9672 5.36955 -2.00879 0
M  V30 500 H 46.3642 5.30897 -2.79765 0
M  V30 501 H 47.4342 3.89807 -2.88407 0
M  V30 502 N 48.7773 0.814389 1.34928 0
M  V30 503 C 49.7253 0.218424 2.31572 0
M  V30 504 C 50.7193 -0.636128 1.57002 0
M  V30 505 O 51.9253 -0.52842 1.72069 0
M  V30 506 H 48.3003 0.0518799 0.750208 0
M  V30 507 H 50.2713 1.04852 2.79372 0
M  V30 508 C 49.0203 -0.61207 3.4227 0
M  V30 509 H 48.3433 0.0361578 3.99784 0
M  V30 510 H 49.7833 -0.995317 4.12152 0
M  V30 511 C 48.2423 -1.78087 2.85984 0
M  V30 512 O 48.7723 -2.8787 2.80168 0
M  V30 513 N 46.9783 -1.59488 2.42924 0
M  V30 514 H 46.5253 -0.701874 2.47854 0
M  V30 515 H 46.4833 -2.37846 2.05613 0
M  V30 516 N 50.2554 -1.46986 0.568584 0
M  V30 517 C 51.1854 -2.32946 -0.160753 0
M  V30 518 C 52.1664 -1.44487 -0.897631 0
M  V30 519 O 53.3514 -1.73327 -0.875867 0
M  V30 520 C 50.4814 -3.26494 -1.18403 0
M  V30 521 C 49.4354 -4.24282 -0.562895 0
M  V30 522 C 48.7614 -5.07236 -1.69163 0
M  V30 523 C 50.0614 -5.19989 0.490761 0
M  V30 524 H 51.7554 -2.94175 0.556916 0
M  V30 525 H 49.3014 -1.4146 0.26927 0
M  V30 526 H 51.2544 -3.85477 -1.70251 0
M  V30 527 H 49.9784 -2.63343 -1.93179 0
M  V30 528 H 48.6374 -3.66541 -0.0656164 0
M  V30 529 H 48.2854 -4.4048 -2.42871 0
M  V30 530 H 47.9854 -5.7345 -1.28174 0
M  V30 531 H 49.5094 -5.6908 -2.21314 0
M  V30 532 H 50.9234 -5.73271 0.0579047 0
M  V30 533 H 49.3204 -5.94469 0.820165 0
M  V30 534 H 50.3904 -4.64777 1.3824 0
M  V30 535 N 51.7335 -0.305618 -1.54608 0
M  V30 536 C 52.9585 0.307562 -2.05107 0
M  V30 537 C 53.3835 1.46385 -1.18123 0
M  V30 538 O 52.7415 1.8034 -0.186324 0
M  V30 539 C 52.7895 0.73704 -3.52987 0
M  V30 540 O 51.8935 1.84134 -3.6901 0
M  V30 541 H 51.2345 0.0589143 -0.661381 0
M  V30 542 H 53.7645 -0.448807 -1.99617 0
M  V30 543 H 53.7745 1.02459 -3.94925 0
M  V30 544 H 52.4495 -0.108773 -4.15758 0
M  V30 545 H 51.0265 1.55398 -3.38978 0
M  V30 546 N 53.2116 1.57565 -0.0334293 0
M  V30 547 C 54.4416 1.95996 0.653398 0
M  V30 548 C 54.8496 0.908749 1.65947 0
M  V30 549 O 54.1926 -0.117471 1.83324 0
M  V30 550 C 54.2546 3.30589 1.41249 0
M  V30 551 C 53.9186 4.53503 0.564263 0
M  V30 552 C 54.9156 5.19647 -0.16225 0
M  V30 553 C 52.6006 4.99801 0.500398 0
M  V30 554 C 54.5946 6.30412 -0.941255 0
M  V30 555 C 52.2816 6.10448 -0.282308 0
M  V30 556 C 53.2796 6.75612 -1.00184 0
M  V30 557 O 52.9676 7.84134 -1.77171 0
M  V30 558 H 52.6996 0.65027 0.184728 0
M  V30 559 H 55.2536 2.05199 -0.0907841 0
M  V30 560 H 53.4836 3.17888 2.20191 0
M  V30 561 H 55.1726 3.53892 1.98784 0
M  V30 562 H 55.9386 4.84846 -0.12227 0
M  V30 563 H 51.8176 4.48883 1.05002 0
M  V30 564 H 55.3616 6.81208 -1.50339 0
M  V30 565 H 51.2586 6.44686 -0.323989 0
M  V30 566 H 52.0266 8.00822 -1.69194 0
M  V30 567 N 54.6897 -0.239769 1.55765 0
M  V30 568 C 56.1007 -0.808263 1.68297 0
M  V30 569 C 56.4517 -1.85736 0.632181 0
M  V30 570 O 55.5767 -2.15277 -0.220204 0
M  V30 571 C 56.1717 -1.47284 3.05111 0
M  V30 572 C 54.7307 -1.98895 3.19559 0
M  V30 573 C 53.8777 -0.842575 2.64189 0
M  V30 574 H 56.8287 -0.0154422 1.58692 0
M  V30 575 H 56.8497 -2.34111 2.99954 0
M  V30 576 H 56.3617 -0.709053 3.81568 0
M  V30 577 H 54.4627 -2.78132 2.47938 0
M  V30 578 H 54.5757 -2.18143 4.26556 0
M  V30 579 H 52.9397 -1.24501 2.22197 0
M  V30 580 H 53.7227 -0.0917552 3.43177 0
M  V30 581 N 56.1678 -1.49265 -0.50573 0
M  V30 582 C 57.1148 -1.65585 -1.6078 0
M  V30 583 C 58.0848 -0.497396 -1.58478 0
M  V30 584 O 59.2698 -0.72385 -1.76536 0
M  V30 585 C 56.4098 -1.72408 -2.98948 0
M  V30 586 C 55.5228 -2.99525 -3.11301 0
M  V30 587 C 54.6578 -2.97356 -4.40174 0
M  V30 588 C 53.6968 -4.19074 -4.46143 0
M  V30 589 N 52.8338 -4.14841 -5.66437 0
M  V30 590 H 57.6738 -2.59688 -1.46172 0
M  V30 591 H 55.2108 -1.28761 -0.711261 0
M  V30 592 H 57.1688 -1.74344 -3.79025 0
M  V30 593 H 55.7988 -0.817753 -3.1227 0
M  V30 594 H 54.8508 -3.07222 -2.24318 0
M  V30 595 H 56.1628 -3.89518 -3.11572 0
M  V30 596 H 55.3168 -2.97829 -5.28567 0
M  V30 597 H 54.0558 -2.05133 -4.42461 0
M  V30 598 H 53.0608 -4.1885 -3.56153 0
M  V30 599 H 54.2858 -5.12483 -4.45575 0
M  V30 600 H 52.2318 -3.25453 -5.69575 0
M  V30 601 H 52.1488 -4.98564 -5.68304 0
M  V30 602 H 53.4168 -4.1941 -6.57051 0
M  V30 603 N 57.6459 0.756429 -1.3826 0
M  V30 604 C 58.5559 1.9009 -1.37488 0
M  V30 605 C 59.5719 1.71855 -0.272366 0
M  V30 606 O 60.7479 1.94827 -0.510318 0
M  V30 607 C 57.8129 3.25421 -1.19592 0
M  V30 608 C 56.8739 3.56202 -2.39622 0
M  V30 609 C 56.1069 4.85075 -2.2257 0
M  V30 610 O 56.3299 5.57246 -1.21793 0
M  V30 611 O 55.2639 5.15269 -3.11098 0
M  V30 612 H 59.0899 1.93695 -2.33914 0
M  V30 613 H 56.6749 0.901313 -1.1915 0
M  V30 614 H 58.5569 4.06337 -1.11661 0
M  V30 615 H 57.2319 3.22634 -0.262486 0
M  V30 616 H 56.1389 2.75458 -2.53128 0
M  V30 617 H 57.4719 3.63747 -3.31586 0
M  V30 618 N 59.124 1.23083 0.984299 0
M  V30 619 C 60.057 0.951786 2.07404 0
M  V30 620 C 61.035 -0.10848 1.62238 0
M  V30 621 O 62.219 0.0249467 1.88483 0
M  V30 622 C 59.346 0.433142 3.35919 0
M  V30 623 C 58.392 1.47941 4.0002 0
M  V30 624 S 59.225 3.05556 4.39768 0
M  V30 625 C 60.381 2.55351 5.71442 0
M  V30 626 H 60.614 1.87456 2.30754 0
M  V30 627 H 58.147 1.06284 1.11996 0
M  V30 628 H 60.105 0.140506 4.10259 0
M  V30 629 H 58.766 -0.468656 3.10584 0
M  V30 630 H 57.959 1.06658 4.92585 0
M  V30 631 H 57.561 1.7212 3.3204 0
M  V30 632 H 59.853 1.97128 6.48187 0
M  V30 633 H 60.796 3.46441 6.17563 0
M  V30 634 H 61.204 1.96339 5.29255 0
M  V30 635 N 60.6021 -1.18246 1.0419 0
M  V30 636 C 61.8501 -1.87886 0.744543 0
M  V30 637 C 62.1711 -1.8082 -0.730006 0
M  V30 638 O 61.4411 -1.22736 -1.52685 0
M  V30 639 H 60.0211 -0.695556 0.272417 0
M  V30 640 H 62.6831 -1.43494 1.31892 0
M  V30 641 H 61.7791 -2.9389 1.05049 0
M  V30 642 N 62.0802 -0.821533 -1.34494 0
M  V30 643 C 63.3282 -0.408139 -1.97936 0
M  V30 644 C 63.6492 1.03193 -1.65457 0
M  V30 645 O 62.9192 1.71622 -0.944595 0
M  V30 646 H 61.4992 -0.147928 -0.732206 0
M  V30 647 H 64.1612 -1.05067 -1.64155 0
M  V30 648 H 63.2572 -0.52601 -3.07635 0
M  V30 649 N 63.5583 1.46682 -0.576371 0
M  V30 650 C 64.7833 2.07304 -0.0630475 0
M  V30 651 C 65.2083 1.42329 1.2298 0
M  V30 652 O 64.5663 0.504865 1.74129 0
M  V30 653 C 64.6143 3.60472 0.095895 0
M  V30 654 O 63.7183 3.95927 1.15394 0
M  V30 655 H 63.0593 0.661288 -0.0599463 0
M  V30 656 H 65.5893 1.88417 -0.797511 0
M  V30 657 H 65.5993 4.06865 0.304071 0
M  V30 658 H 64.2743 4.07157 -0.84828 0
M  V30 659 H 62.8513 3.61252 0.924724 0
M  V30 660 N 65.0364 0.313813 1.54444 0
M  V30 661 C 66.2844 -0.291099 1.99993 0
M  V30 662 C 66.6054 -1.53418 1.20366 0
M  V30 663 O 65.8754 -1.93544 0.302927 0
M  V30 664 H 64.4554 -0.110552 0.738774 0
M  V30 665 H 67.1174 0.428106 1.9014 0
M  V30 666 H 66.2134 -0.554268 3.07139 0
M  V30 667 N 66.5145 -1.57545 0.0417849 0
M  V30 668 C 67.7425 -1.96624 -0.643928 0
M  V30 669 C 68.1575 -0.918897 -1.64929 0
M  V30 670 O 67.5145 0.0979323 -1.82237 0
M  V30 671 C 67.5655 -3.35781 -1.33914 0
M  V30 672 O 67.2865 -4.365 -0.374048 0
M  V30 673 C 68.7875 -3.89566 -2.1155 0
M  V30 674 H 66.0075 -0.647316 -0.176702 0
M  V30 675 H 68.5515 -2.04229 0.105304 0
M  V30 676 H 66.7065 -3.29357 -2.03968 0
M  V30 677 H 67.1205 -5.17248 -0.869179 0
M  V30 678 H 68.5945 -4.89242 -2.55628 0
M  V30 679 H 69.0715 -3.24488 -2.9598 0
M  V30 680 H 69.6775 -3.99298 -1.46427 0
M  V30 681 N 67.9926 0.231505 -1.5589 0
M  V30 682 C 68.9556 1.27028 -1.90779 0
M  V30 683 C 69.9556 1.40308 -0.785507 0
M  V30 684 O 71.1456 1.38744 -1.05336 0
M  V30 685 C 68.2776 2.64566 -2.14983 0
M  V30 686 H 69.4706 0.973017 -2.83677 0
M  V30 687 H 67.0236 0.471486 -1.49019 0
M  V30 688 H 67.7586 2.99406 -1.24604 0
M  V30 689 H 67.5436 2.56305 -2.96732 0
M  V30 690 H 69.0336 3.39543 -2.43105 0
M  V30 691 N 69.4707 1.49531 0.497807 0
M  V30 692 C 70.6987 1.62893 1.27567 0
M  V30 693 C 71.1137 0.301585 1.86376 0
M  V30 694 O 70.4707 -0.713335 1.67982 0
M  V30 695 C 70.5217 2.70013 2.40364 0
M  V30 696 O 70.2427 3.976 1.83972 0
M  V30 697 C 71.7437 2.94109 3.31685 0
M  V30 698 H 68.9637 0.548298 0.386794 0
M  V30 699 H 71.5077 1.95584 0.597245 0
M  V30 700 H 69.6627 2.40092 3.04031 0
M  V30 701 H 70.0767 4.56631 2.58047 0
M  V30 702 H 71.5507 3.72788 4.07104 0
M  V30 703 H 72.0277 2.04147 3.88871 0
M  V30 704 H 72.6337 3.2546 2.73781 0
M  V30 705 N 70.9488 -0.749086 1.3866 0
M  V30 706 C 71.8968 -1.88428 1.36373 0
M  V30 707 C 72.8908 -1.67561 0.248929 0
M  V30 708 O 74.0968 -1.75074 0.41821 0
M  V30 709 H 70.4718 -0.620023 0.42553 0
M  V30 710 H 72.4428 -1.87473 2.32156 0
M  V30 711 C 71.1918 -3.25961 1.21014 0
M  V30 712 H 70.5148 -3.42607 2.06059 0
M  V30 713 H 71.9548 -4.05625 1.23469 0
M  V30 714 C 70.4138 -3.36799 -0.0825941 0
M  V30 715 O 70.9438 -3.87517 -1.05797 0
M  V30 716 N 69.1498 -2.90258 -0.140939 0
M  V30 717 H 68.6968 -2.49174 0.653477 0
M  V30 718 H 68.6548 -2.97889 -1.00545 0
M  V30 719 N 72.4269 -1.23603 -0.977757 0
M  V30 720 C 73.8379 -1.06424 -1.53398 0
M  V30 721 C 74.1889 0.367578 -1.92726 0
M  V30 722 O 73.3139 1.25465 -1.76316 0
M  V30 723 C 73.9089 -1.92568 -2.78753 0
M  V30 724 C 72.4679 -1.79642 -3.30765 0
M  V30 725 C 71.6149 -1.88111 -2.03739 0
M  V30 726 H 74.5659 -1.37227 -0.797152 0
M  V30 727 H 74.5869 -1.45203 -3.51705 0
M  V30 728 H 74.0989 -2.96771 -2.50098 0
M  V30 729 H 72.1999 -0.782325 -3.64294 0
M  V30 730 H 72.3129 -2.63174 -4.00345 0
M  V30 731 H 70.6769 -1.31723 -2.17994 0
M  V30 732 H 71.4599 -2.93875 -1.77461 0
M  V30 733 N 73.905 1.17692 -1.04816 0
M  V30 734 C 74.815 2.25229 -0.65643 0
M  V30 735 C 75.831 1.71018 0.320761 0
M  V30 736 O 77.007 2.00649 0.173805 0
M  V30 737 C 74.072 3.46684 -0.0332629 0
M  V30 738 C 73.133 4.15997 -1.06042 0
M  V30 739 C 72.366 5.31654 -0.466893 0
M  V30 740 O 72.589 5.65777 0.724758 0
M  V30 741 O 71.523 5.89831 -1.1993 0
M  V30 742 H 75.349 2.61016 -1.55255 0
M  V30 743 H 72.934 1.24919 -0.81949 0
M  V30 744 H 74.816 4.20234 0.313256 0
M  V30 745 H 73.491 3.12703 0.836566 0
M  V30 746 H 72.398 3.44482 -1.45886 0
M  V30 747 H 73.731 4.53996 -1.90127 0
M  V30 748 N 75.3831 0.828654 1.34056 0
M  V30 749 C 76.3151 0.212052 2.28217 0
M  V30 750 C 77.3281 -0.601362 1.51286 0
M  V30 751 O 78.5171 -0.430104 1.73241 0
M  V30 752 C 75.6171 -0.72088 3.31144 0
M  V30 753 C 74.7901 0.0509587 4.3737 0
M  V30 754 C 73.8491 -0.803766 5.20025 0
M  V30 755 O 72.8751 -0.246667 5.68665 0
M  V30 756 N 74.0771 -2.1227 5.40298 0
M  V30 757 H 76.8421 1.02105 2.81771 0
M  V30 758 H 74.4031 0.686153 1.46641 0
M  V30 759 H 76.3951 -1.29742 3.8334 0
M  V30 760 H 74.9651 -1.43061 2.77943 0
M  V30 761 H 74.1851 0.808831 3.85813 0
M  V30 762 H 75.4731 0.582065 5.0546 0
M  V30 763 H 74.8711 -2.59898 5.02464 0
M  V30 764 H 73.4281 -2.64796 5.95589 0
M  V30 765 N 76.8612 -1.46375 0.584142 0
M  V30 766 C 77.7912 -2.33103 -0.136037 0
M  V30 767 C 78.7722 -1.45431 -0.882255 0
M  V30 768 O 79.9572 -1.74246 -0.857434 0
M  V30 769 C 77.0872 -3.27731 -1.14933 0
M  V30 770 C 76.0412 -4.24855 -0.517862 0
M  V30 771 C 75.3672 -5.09001 -1.63773 0
M  V30 772 C 76.6672 -5.19439 0.545886 0
M  V30 773 H 78.3612 -2.93568 0.588086 0
M  V30 774 H 75.9072 -1.41166 0.284259 0
M  V30 775 H 77.8602 -3.87261 -1.66153 0
M  V30 776 H 76.5842 -2.65377 -1.90375 0
M  V30 777 H 75.2432 -3.6659 -0.0267361 0
M  V30 778 H 74.8912 -4.43031 -2.38185 0
M  V30 779 H 74.5912 -5.74777 -1.22085 0
M  V30 780 H 76.1152 -5.71396 -2.15266 0
M  V30 781 H 77.5292 -5.73177 0.118704 0
M  V30 782 H 75.9262 -5.93566 0.88317 0
M  V30 783 H 76.9962 -4.63285 1.43162 0
M  V30 784 N 78.3393 -0.321999 -1.54275 0
M  V30 785 C 79.5863 0.281044 -2.0054 0
M  V30 786 C 79.9143 1.52265 -1.21019 0
M  V30 787 O 79.1693 1.93687 -0.279982 0
M  V30 788 C 79.4683 0.661769 -3.5122 0
M  V30 789 C 79.1343 -0.480482 -4.48333 0
M  V30 790 C 77.7963 -0.794005 -4.74604 0
M  V30 791 C 80.1483 -1.24783 -5.06042 0
M  V30 792 C 77.4763 -1.87763 -5.55844 0
M  V30 793 C 79.8283 -2.32153 -5.88462 0
M  V30 794 C 78.4923 -2.64089 -6.13036 0
M  V30 795 H 77.7623 0.102841 -0.733829 0
M  V30 796 H 80.4093 -0.445453 -1.86247 0
M  V30 797 H 78.7143 1.46867 -3.63232 0
M  V30 798 H 80.4113 1.13989 -3.84457 0
M  V30 799 H 77.0013 -0.226039 -4.28004 0
M  V30 800 H 81.1853 -1.01887 -4.85729 0
M  V30 801 H 76.4413 -2.12954 -5.73115 0
M  V30 802 H 80.6153 -2.92057 -6.32199 0
M  V30 803 H 78.2423 -3.48185 -6.75775 0
M  V30 804 N 79.8174 1.5752 -0.0501392 0
M  V30 805 C 80.7804 2.1037 0.909786 0
M  V30 806 C 81.7804 1.02308 1.24056 0
M  V30 807 O 82.9704 1.28385 1.17741 0
M  V30 808 C 80.1024 2.58708 2.21998 0
M  V30 809 H 81.2954 2.96479 0.451665 0
M  V30 810 H 78.8484 1.55038 0.198248 0
M  V30 811 H 79.5834 1.75989 2.72394 0
M  V30 812 H 79.3684 3.37675 1.99295 0
M  V30 813 H 80.8584 2.99747 2.9076 0
M  V30 814 N 81.2955 -0.223234 1.56011 0
M  V30 815 C 82.5415 -0.949279 1.79211 0
M  V30 816 C 82.8745 -1.84054 0.619494 0
M  V30 817 O 82.1495 -1.90726 -0.381317 0
M  V30 818 C 82.4325 -1.78965 3.12479 0
M  V30 819 C 82.2855 -0.924997 4.40186 0
M  V30 820 C 83.6045 -2.76774 3.42175 0
M  V30 821 H 80.7235 -0.343676 0.651963 0
M  V30 822 H 83.3655 -0.218253 1.88742 0
M  V30 823 H 81.5155 -2.41291 3.04485 0
M  V30 824 H 83.1875 -0.318615 4.60198 0
M  V30 825 H 81.4305 -0.230344 4.33188 0
M  V30 826 H 82.1015 -1.54735 5.29869 0
M  V30 827 H 84.5775 -2.24584 3.50287 0
M  V30 828 H 83.4535 -3.32678 4.36597 0
M  V30 829 H 83.7145 -3.54429 2.64258 0
M  V30 830 N 82.7736 -1.49793 -0.48987 0
M  V30 831 C 84.0216 -1.59525 -1.24081 0
M  V30 832 C 84.3426 -0.288953 -1.92847 0
M  V30 833 O 83.6126 0.692436 -1.83254 0
M  V30 834 H 82.1926 -0.587796 -0.460983 0
M  V30 835 H 84.8546 -1.86477 -0.566778 0
M  V30 836 H 83.9506 -2.39696 -1.99881 0
M  V30 837 N 84.2517 0.741722 -1.39055 0
M  V30 838 C 85.4817 1.52876 -1.3897 0
M  V30 839 C 85.8897 1.8919 0.0193266 0
M  V30 840 O 85.2327 1.54138 0.999356 0
M  V30 841 C 85.2947 2.84929 -2.19216 0
M  V30 842 C 84.9587 2.71086 -3.67915 0
M  V30 843 C 85.9557 2.40084 -4.61146 0
M  V30 844 C 83.6407 2.88168 -4.11418 0
M  V30 845 C 85.6347 2.26335 -5.95862 0
M  V30 846 C 83.3217 2.74037 -5.46211 0
M  V30 847 C 84.3197 2.43166 -6.38247 0
M  V30 848 O 84.0077 2.29115 -7.70559 0
M  V30 849 H 83.7397 0.479252 -0.476753 0
M  V30 850 H 86.2937 0.924751 -1.83405 0
M  V30 851 H 84.5237 3.47564 -1.69518 0
M  V30 852 H 86.2127 3.46509 -2.11392 0
M  V30 853 H 86.9787 2.26545 -4.28838 0
M  V30 854 H 82.8577 3.11191 -3.40119 0
M  V30 855 H 86.4017 2.0216 -6.67665 0
M  V30 856 H 82.2987 2.87153 -5.78112 0
M  V30 857 H 83.0667 2.44237 -7.81211 0
M  V30 858 N 85.7298 1.2412 0.971189 0
M  V30 859 C 86.6928 1.03156 2.04674 0
M  V30 860 C 87.6928 -0.00990322 1.60797 0
M  V30 861 O 88.8828 0.230729 1.72665 0
M  V30 862 C 86.0148 0.562765 3.36223 0
M  V30 863 H 87.2078 1.98614 2.24705 0
M  V30 864 H 84.7608 1.06293 1.14593 0
M  V30 865 H 85.4958 -0.395176 3.21883 0
M  V30 866 H 85.2808 1.31441 3.69413 0
M  V30 867 H 86.7708 0.437015 4.15307 0
M  V30 868 N 87.2079 -1.17134 1.05439 0
M  V30 869 C 88.1709 -2.19439 0.661764 0
M  V30 870 C 89.1709 -1.58199 -0.288042 0
M  V30 871 O 90.3609 -1.74053 -0.0715803 0
M  V30 872 C 87.4929 -3.40889 -0.0276209 0
M  V30 873 H 88.6859 -2.55688 1.56728 0
M  V30 874 H 86.2389 -1.31259 0.848567 0
M  V30 875 H 86.9739 -3.10187 -0.94629 0
M  V30 876 H 86.7589 -3.86586 0.655238 0
M  V30 877 H 88.2489 -4.16603 -0.288342 0
M  V30 878 N 88.686 -0.835752 -1.33615 0
M  V30 879 C 89.926 -0.43599 -1.99696 0
M  V30 880 C 90.29 0.98557 -1.64774 0
M  V30 881 O 91.491 1.48889 -2.23798 0
M  V30 882 C 89.762 -0.646721 -3.515 0
M  V30 883 S 91.321 -0.341715 -4.37467 0
M  V30 884 H 88.139 -0.164136 -0.691795 0
M  V30 885 H 90.741 -1.08436 -1.62671 0
M  V30 886 H 89.445 -1.68077 -3.74404 0
M  V30 887 H 88.976 0.0159173 -3.93397 0
M  V30 888 H 90.991 0.839708 -4.89043 0
M  V30 889 N 90.1641 1.46063 -0.591896 0
M  V30 890 C 91.4111 2.02338 -0.0809991 0
M  V30 891 C 91.7391 1.46228 1.28249 0
M  V30 892 O 90.9941 0.620818 1.85592 0
M  V30 893 C 91.2931 3.57391 0.0249813 0
M  V30 894 C 90.9591 4.32583 -1.27211 0
M  V30 895 C 89.6211 4.52844 -1.62745 0
M  V30 896 C 91.9731 4.75687 -2.13005 0
M  V30 897 C 89.3011 5.13462 -2.83855 0
M  V30 898 C 91.6531 5.37644 -3.3335 0
M  V30 899 C 90.3171 5.5613 -3.69155 0
M  V30 900 H 89.5871 0.740407 -0.0296397 0
M  V30 901 H 92.2341 1.75321 -0.770374 0
M  V30 902 H 90.5391 3.83597 0.797537 0
M  V30 903 H 92.2361 3.98621 0.436184 0
M  V30 904 H 88.8261 4.17116 -0.985499 0
M  V30 905 H 93.0101 4.59782 -1.86855 0
M  V30 906 H 88.2661 5.25965 -3.11722 0
M  V30 907 H 92.4401 5.7 -4.00092 0
M  V30 908 H 90.0671 6.0287 -4.63089 0
M  V30 909 N 91.6422 0.330177 1.54103 0
M  V30 910 C 92.8672 -0.274893 2.0557 0
M  V30 911 C 93.2922 -1.44487 1.20437 0
M  V30 912 O 92.6502 -1.80021 0.214991 0
M  V30 913 C 92.6982 -0.68079 3.54115 0
M  V30 914 O 91.8022 -1.7824 3.71893 0
M  V30 915 H 91.1432 -0.0483849 0.662235 0
M  V30 916 H 93.6732 0.480508 1.98878 0
M  V30 917 H 93.6832 -0.961635 3.96505 0
M  V30 918 H 92.3582 0.174903 4.15532 0
M  V30 919 H 90.9352 -1.49985 3.41407 0
M  V30 920 N 93.1203 -1.57491 0.0584922 0
M  V30 921 C 94.0683 -2.13148 -0.931168 0
M  V30 922 C 95.0623 -1.06507 -1.31729 0
M  V30 923 O 96.2683 -1.24906 -1.29609 0
M  V30 924 H 92.6433 -0.68137 -0.31818 0
M  V30 925 H 94.6143 -2.95187 -0.436707 0
M  V30 926 C 93.3633 -2.69732 -2.19408 0
M  V30 927 H 92.6863 -3.51454 -1.90578 0
M  V30 928 H 94.1263 -3.12287 -2.86798 0
M  V30 929 C 92.5853 -1.63855 -2.94369 0
M  V30 930 O 93.1153 -1.05565 -3.87581 0
M  V30 931 N 91.3213 -1.35202 -2.57233 0
M  V30 932 H 90.8683 -1.82791 -1.81508 0
M  V30 933 H 90.8263 -0.645922 -3.07693 0
M  V30 934 N 94.5984 0.214957 -1.56127 0
M  V30 935 C 95.5614 1.24997 -1.92116 0
M  V30 936 C 96.5614 1.39467 -0.800344 0
M  V30 937 O 97.7514 1.37619 -1.06802 0
M  V30 938 C 94.8834 2.62271 -2.17777 0
M  V30 939 H 96.0764 0.942875 -2.84693 0
M  V30 940 H 93.6294 0.455654 -1.49511 0
M  V30 941 H 94.3644 2.98068 -1.27773 0
M  V30 942 H 94.1494 2.53143 -2.99434 0
M  V30 943 H 95.6394 3.36946 -2.46693 0
M  V30 944 N 96.0765 1.50051 0.48192 0
M  V30 945 C 97.3255 1.59741 1.23149 0
M  V30 946 C 97.6385 0.298163 1.93314 0
M  V30 947 O 98.8445 0.273835 2.70116 0
M  V30 948 C 97.3005 2.81926 2.23708 0
M  V30 949 C 96.9085 4.18685 1.59396 0
M  V30 950 C 98.6525 3.00956 2.99375 0
M  V30 951 C 96.5595 5.3207 2.58178 0
M  V30 952 H 95.4895 0.594838 0.46334 0
M  V30 953 H 98.1405 1.76467 0.503169 0
M  V30 954 H 96.5225 2.58736 2.99786 0
M  V30 955 H 97.6965 4.52088 0.891811 0
M  V30 956 H 96.0115 4.05171 0.960503 0
M  V30 957 H 98.6085 3.82836 3.73283 0
M  V30 958 H 98.9515 2.12258 3.58123 0
M  V30 959 H 99.4845 3.24277 2.30411 0
M  V30 960 H 96.2235 6.22888 2.04184 0
M  V30 961 H 95.7435 5.03098 3.26577 0
M  V30 962 H 97.4225 5.62196 3.20225 0
M  V30 963 N 97.5546 -0.734337 1.39446 0
M  V30 964 C 98.4846 -1.86155 1.40955 0
M  V30 965 C 99.4656 -1.67898 0.272827 0
M  V30 966 O 100.651 -1.88207 0.478743 0
M  V30 967 C 97.7806 -3.23912 1.25294 0
M  V30 968 C 96.7346 -3.56808 2.36373 0
M  V30 969 C 96.0606 -4.93508 2.058 0
M  V30 970 C 97.3606 -3.59713 3.78687 0
M  V30 971 H 99.0546 -1.8515 2.35287 0
M  V30 972 H 96.6006 -0.889367 1.13253 0
M  V30 973 H 98.5536 -4.02443 1.2497 0
M  V30 974 H 97.2776 -3.25446 0.274308 0
M  V30 975 H 95.9366 -2.80606 2.35914 0
M  V30 976 H 95.5846 -4.91623 1.06374 0
M  V30 977 H 95.2846 -5.16486 2.80208 0
M  V30 978 H 96.8086 -5.74396 2.07128 0
M  V30 979 H 98.2226 -4.2832 3.81071 0
M  V30 980 H 96.6196 -3.94209 4.52459 0
M  V30 981 H 97.6896 -2.59504 4.09617 0
M  V30 982 N 99.0327 -1.24633 -0.964593 0
M  V30 983 C 99.9827 -1.00841 -2.04487 0
M  V30 984 C 100.967 0.0512468 -1.60818 0
M  V30 985 O 102.159 -0.162865 -1.76249 0
M  V30 986 C 99.2877 -0.618474 -3.37683 0
M  V30 987 C 98.3737 -1.71437 -3.87905 0
M  V30 988 N 98.7647 -2.9477 -4.11029 0
M  V30 989 C 97.0627 -1.5926 -4.16596 0
M  V30 990 C 97.7637 -3.65834 -4.52261 0
M  V30 991 N 96.7397 -2.9341 -4.57615 0
M  V30 992 H 100.542 -1.94487 -2.20345 0
M  V30 993 H 98.0557 -1.14805 -1.14863 0
M  V30 994 H 100.053 -0.429247 -4.14684 0
M  V30 995 H 98.7127 0.310766 -3.23209 0
M  V30 996 H 99.7237 -3.30917 -3.9839 0
M  V30 997 H 96.4007 -0.731606 -4.1104 0
M  V30 998 H 97.7907 -4.71646 -4.78539 0
M  V30 999 N 100.511 1.16574 -1.06058 0
M  V30 1000 C 101.757 1.87324 -0.777022 0
M  V30 1001 C 102.09 1.81351 0.694645 0
M  V30 1002 O 101.365 1.22753 1.50871 0
M  V30 1003 C 101.648 3.36991 -1.26922 0
M  V30 1004 C 101.501 3.51667 -2.80447 0
M  V30 1005 C 102.82 4.3131 -0.87521 0
M  V30 1006 H 99.9388 0.680191 -0.28374 0
M  V30 1007 H 102.581 1.37036 -1.3161 0
M  V30 1008 H 100.731 3.79949 -0.81063 0
M  V30 1009 H 102.403 3.17664 -3.34495 0
M  V30 1010 H 100.646 2.93656 -3.19294 0
M  V30 1011 H 101.317 4.56766 -3.0995 0
M  V30 1012 H 103.793 3.9624 -1.27014 0
M  V30 1013 H 102.669 5.34545 -1.2471 0
M  V30 1014 H 102.93 4.41552 0.220071 0
M  V30 1015 N 101.989 0.842826 1.3317 0
M  V30 1016 C 102.952 0.284065 2.27433 0
M  V30 1017 C 103.952 -0.54948 1.5112 0
M  V30 1018 O 105.142 -0.362699 1.70382 0
M  V30 1019 C 102.274 -0.599384 3.35589 0
M  V30 1020 H 103.467 1.11589 2.78366 0
M  V30 1021 H 101.02 0.616221 1.4364 0
M  V30 1022 H 101.755 -1.45349 2.89904 0
M  V30 1023 H 101.54 -0.00291266 3.921 0
M  V30 1024 H 103.03 -0.983488 4.05854 0
M  V30 1025 N 103.467 -1.45747 0.599634 0
M  V30 1026 C 104.883 -1.57424 0.26264 0
M  V30 1027 C 105.083 -1.59222 -1.23493 0
M  V30 1028 O 104.139 -1.51825 -2.01756 0
M  V30 1029 C 105.452 -2.86061 0.926795 0
M  V30 1030 C 107 -2.99722 0.901967 0
M  V30 1031 C 107.475 -4.31119 1.54598 0
M  V30 1032 N 108.966 -4.37858 1.5111 0
M  V30 1033 C 109.701 -5.3818 1.97863 0
M  V30 1034 N 109.197 -6.45083 2.52666 0
M  V30 1035 N 110.99 -5.29487 1.88679 0
M  V30 1036 H 103.141 -1.42823 1.57211 0
M  V30 1037 H 105.404 -0.68235 0.658105 0
M  V30 1038 H 105.11 -2.90605 1.98095 0
M  V30 1039 H 104.984 -3.74563 0.445238 0
M  V30 1040 H 107.371 -2.9475 -0.143617 0
M  V30 1041 H 107.452 -2.12652 1.42171 0
M  V30 1042 H 107.096 -4.36849 2.59085 0
M  V30 1043 H 107.026 -5.16992 1.00132 0
M  V30 1044 H 109.517 -3.61209 1.11068 0
M  V30 1045 H 109.83 -7.17869 2.86155 0
M  V30 1046 H 108.175 -6.45856 2.56701 0
M  V30 1047 H 111.366 -4.44877 1.4561 0
M  V30 1048 H 111.539 -6.07524 2.25429 0
M  V30 1049 N 104.945 -0.338344 -1.53925 0
M  V30 1050 C 105.855 0.529421 -2.28548 0
M  V30 1051 C 106.871 1.11645 -1.3346 0
M  V30 1052 O 108.047 1.13325 -1.66492 0
M  V30 1053 C 105.112 1.66713 -3.03987 0
M  V30 1054 C 104.173 1.11041 -4.14691 0
M  V30 1055 C 103.406 2.19389 -4.86522 0
M  V30 1056 O 103.629 3.40013 -4.57982 0
M  V30 1057 O 102.563 1.83976 -5.73094 0
M  V30 1058 H 106.389 -0.0770399 -3.03602 0
M  V30 1059 H 103.974 -0.103555 -1.49041 0
M  V30 1060 H 105.856 2.32918 -3.5118 0
M  V30 1061 H 104.531 2.25949 -2.31794 0
M  V30 1062 H 103.438 0.413024 -3.71813 0
M  V30 1063 H 104.771 0.562975 -4.8897 0
M  V30 1064 N 106.423 1.57458 -0.0668435 0
M  V30 1065 C 107.386 2.11323 0.887422 0
M  V30 1066 C 108.386 1.03618 1.22964 0
M  V30 1067 O 109.576 1.29626 1.16373 0
M  V30 1068 C 106.708 2.61048 2.19242 0
M  V30 1069 H 107.901 2.96942 0.420194 0
M  V30 1070 H 105.454 1.55239 0.181793 0
M  V30 1071 H 106.189 1.78868 2.70512 0
M  V30 1072 H 105.974 3.39769 1.95702 0
M  V30 1073 H 107.464 3.02814 2.87565 0
M  V30 1074 N 107.901 -0.206675 1.56239 0
M  V30 1075 C 108.848 -1.25617 1.93621 0
M  V30 1076 C 109.818 -1.45824 0.795274 0
M  V30 1077 O 111.003 -1.59148 1.05245 0
M  V30 1078 C 108.143 -2.59839 2.27107 0
M  V30 1079 C 107.256 -2.47308 3.54207 0
M  V30 1080 C 106.391 -3.74155 3.7707 0
M  V30 1081 C 105.43 -3.56407 4.97635 0
M  V30 1082 N 104.567 -4.75238 5.1681 0
M  V30 1083 H 109.407 -0.930383 2.83104 0
M  V30 1084 H 106.944 -0.448065 1.4011 0
M  V30 1085 H 108.902 -3.38021 2.44535 0
M  V30 1086 H 107.532 -2.90485 1.40778 0
M  V30 1087 H 106.584 -1.60483 3.4489 0
M  V30 1088 H 107.896 -2.30122 4.42544 0
M  V30 1089 H 107.05 -4.60778 3.94675 0
M  V30 1090 H 105.789 -3.94282 2.87042 0
M  V30 1091 H 104.794 -2.68168 4.79964 0
M  V30 1092 H 106.019 -3.37736 5.89161 0
M  V30 1093 H 103.965 -4.95651 4.29728 0
M  V30 1094 H 103.882 -4.60835 5.99306 0
M  V30 1095 H 105.15 -5.63246 5.38864 0
M  V30 1096 N 109.379 -1.50304 -0.473955 0
M  V30 1097 C 110.625 -1.61389 -1.22806 0
M  V30 1098 C 110.958 -0.311955 -1.91678 0
M  V30 1099 O 110.233 0.686384 -1.81986 0
M  V30 1100 C 110.516 -2.79219 -2.27396 0
M  V30 1101 C 110.369 -4.19286 -1.62848 0
M  V30 1102 C 111.688 -2.92614 -3.28732 0
M  V30 1103 H 108.807 -0.587399 -0.445119 0
M  V30 1104 H 111.449 -1.82681 -0.522265 0
M  V30 1105 H 109.599 -2.61195 -2.87592 0
M  V30 1106 H 111.271 -4.48892 -1.06271 0
M  V30 1107 H 109.514 -4.23677 -0.931693 0
M  V30 1108 H 110.185 -4.97655 -2.38838 0
M  V30 1109 H 112.661 -3.09105 -2.78556 0
M  V30 1110 H 111.537 -3.76688 -3.99246 0
M  V30 1111 H 111.798 -2.03107 -3.92683 0
M  V30 1112 N 110.857 0.726932 -1.39834 0
M  V30 1113 C 111.82 1.82269 -1.38962 0
M  V30 1114 C 112.82 1.58248 -0.285334 0
M  V30 1115 O 114.01 1.65499 -0.54366 0
M  V30 1116 C 111.142 3.20186 -1.17019 0
M  V30 1117 H 112.335 1.84443 -2.36476 0
M  V30 1118 H 109.888 0.931416 -1.25516 0
M  V30 1119 H 110.623 3.23669 -0.202204 0
M  V30 1120 H 110.408 3.3902 -1.96998 0
M  V30 1121 H 111.898 4.00235 -1.1917 0
M  V30 1122 N 112.336 1.25143 0.95797 0
M  V30 1123 C 113.266 1.07711 2.07173 0
M  V30 1124 C 114.247 -0.0128462 1.70095 0
M  V30 1125 O 115.432 0.156061 1.93572 0
M  V30 1126 C 112.562 0.691503 3.40346 0
M  V30 1127 C 111.516 1.73132 3.9142 0
M  V30 1128 C 110.842 1.20049 5.21049 0
M  V30 1129 C 112.142 3.1294 4.1817 0
M  V30 1130 H 113.836 2.00873 2.22014 0
M  V30 1131 H 111.382 0.967191 1.06684 0
M  V30 1132 H 113.335 0.556505 4.17709 0
M  V30 1133 H 112.059 -0.275819 3.25433 0
M  V30 1134 H 110.718 1.8547 3.16222 0
M  V30 1135 H 110.366 0.223499 5.02503 0
M  V30 1136 H 110.066 1.89545 5.56189 0
M  V30 1137 H 111.59 1.07782 6.01012 0
M  V30 1138 H 113.004 3.03775 4.86203 0
M  V30 1139 H 111.401 3.79875 4.64559 0
M  V30 1140 H 112.471 3.6025 3.24573 0
M  V30 1141 N 113.814 -1.1601 1.06675 0
M  V30 1142 C 114.761 -2.20525 0.680967 0
M  V30 1143 C 115.731 -1.62904 -0.324283 0
M  V30 1144 O 116.916 -1.89615 -0.212294 0
M  V30 1145 C 114.056 -3.45013 0.0776551 0
M  V30 1146 C 113.169 -4.16863 1.13355 0
M  V30 1147 C 112.304 -5.2888 0.49597 0
M  V30 1148 C 111.343 -5.92537 1.53513 0
M  V30 1149 N 110.48 -6.96038 0.920631 0
M  V30 1150 H 115.32 -2.52876 1.57663 0
M  V30 1151 H 112.857 -1.24199 0.788223 0
M  V30 1152 H 114.815 -4.16193 -0.289704 0
M  V30 1153 H 113.445 -3.132 -0.781393 0
M  V30 1154 H 112.497 -3.44248 1.61857 0
M  V30 1155 H 113.809 -4.60294 1.92174 0
M  V30 1156 H 112.963 -6.06653 0.0758604 0
M  V30 1157 H 111.702 -4.86622 -0.324062 0
M  V30 1158 H 110.707 -5.13482 1.9651 0
M  V30 1159 H 111.932 -6.36873 2.35733 0
M  V30 1160 H 109.878 -6.55888 0.12138 0
M  V30 1161 H 109.795 -7.3786 1.64616 0
M  V30 1162 H 111.063 -7.77725 0.525795 0
M  V30 1163 N 115.292 -0.849877 -1.32721 0
M  V30 1164 C 116.202 -0.293791 -2.32753 0
M  V30 1165 C 117.218 0.585906 -1.63839 0
M  V30 1166 O 118.394 0.487413 -1.95413 0
M  V30 1167 C 115.459 0.512752 -3.42887 0
M  V30 1168 C 114.52 -0.39252 -4.27502 0
M  V30 1169 C 113.753 0.375625 -5.32377 0
M  V30 1170 O 113.976 1.60613 -5.4732 0
M  V30 1171 O 112.91 -0.256094 -6.01355 0
M  V30 1172 H 116.736 -1.12242 -2.82197 0
M  V30 1173 H 114.321 -0.612685 -1.36259 0
M  V30 1174 H 116.203 0.970704 -4.10067 0
M  V30 1175 H 114.878 1.31826 -2.95641 0
M  V30 1176 H 113.785 -0.898547 -3.63149 0
M  V30 1177 H 115.118 -1.16309 -4.7826 0
M  V30 1178 N 116.77 1.45427 -0.607355 0
M  V30 1179 C 117.733 2.28974 0.101693 0
M  V30 1180 C 118.733 1.39754 0.795329 0
M  V30 1181 O 119.923 1.61878 0.643527 0
M  V30 1182 C 117.055 3.20768 1.15414 0
M  V30 1183 H 118.248 2.93147 -0.632844 0
M  V30 1184 H 115.801 1.51945 -0.366391 0
M  V30 1185 H 116.536 2.61395 1.91945 0
M  V30 1186 H 116.321 3.86489 0.66098 0
M  V30 1187 H 117.811 3.83589 1.65073 0
M  V30 1188 N 118.248 0.346503 1.53744 0
M  V30 1189 C 119.659 -0.136779 1.86198 0
M  V30 1190 C 120.01 -1.49749 1.26766 0
M  V30 1191 O 119.135 -2.08417 0.582355 0
M  V30 1192 C 119.73 -0.254966 3.37839 0
M  V30 1193 C 118.289 -0.682482 3.70161 0
M  V30 1194 C 117.436 0.181981 2.76702 0
M  V30 1195 H 120.387 0.565994 1.48264 0
M  V30 1196 H 120.408 -1.08195 3.64793 0
M  V30 1197 H 119.92 0.735526 3.81066 0
M  V30 1198 H 118.021 -1.68189 3.3248 0
M  V30 1199 H 118.134 -0.470326 4.76786 0
M  V30 1200 H 116.498 -0.34615 2.52337 0
M  V30 1201 H 117.281 1.16966 3.2276 0
M  V30 1202 N 119.726 -1.57421 0.075193 0
M  V30 1203 C 120.972 -1.93905 -0.594025 0
M  V30 1204 C 121.305 -0.955701 -1.69056 0
M  V30 1205 O 120.58 0.0145373 -1.94495 0
M  V30 1206 C 120.863 -3.40638 -1.1678 0
M  V30 1207 C 120.716 -4.49733 -0.0776792 0
M  V30 1208 C 122.035 -3.88259 -2.07228 0
M  V30 1209 H 119.154 -0.705105 -0.214466 0
M  V30 1210 H 121.796 -1.8947 0.141854 0
M  V30 1211 H 119.946 -3.44549 -1.79494 0
M  V30 1212 H 121.618 -4.57942 0.555573 0
M  V30 1213 H 119.861 -4.29751 0.591286 0
M  V30 1214 H 120.532 -5.49549 -0.519603 0
M  V30 1215 H 123.008 -3.86376 -1.54445 0
M  V30 1216 H 121.884 -4.91533 -2.44308 0
M  V30 1217 H 122.145 -3.26396 -2.98191 0
M  V30 1218 N 121.204 0.198386 -1.56346 0
M  V30 1219 C 122.432 0.935572 -1.84539 0
M  V30 1220 C 122.847 1.76989 -0.657281 0
M  V30 1221 O 122.204 1.78626 0.374043 0
M  V30 1222 C 122.255 1.8344 -3.11499 0
M  V30 1223 O 121.976 1.03377 -4.25728 0
M  V30 1224 C 123.477 2.68355 -3.52846 0
M  V30 1225 H 120.697 0.273126 -0.612897 0
M  V30 1226 H 123.241 0.20663 -2.03453 0
M  V30 1227 H 121.396 2.51701 -2.94492 0
M  V30 1228 H 121.81 1.64599 -4.98003 0
M  V30 1229 H 123.284 3.27085 -4.44657 0
M  V30 1230 H 123.761 3.41901 -2.75681 0
M  V30 1231 H 124.367 2.05471 -3.72373 0
M  V30 1232 N 122.682 1.50554 0.465978 0
M  V30 1233 C 123.645 1.69233 1.54574 0
M  V30 1234 C 124.645 0.562901 1.50626 0
M  V30 1235 O 125.835 0.830016 1.53155 0
M  V30 1236 C 122.967 1.7223 2.94193 0
M  V30 1237 H 124.16 2.65571 1.39327 0
M  V30 1238 H 121.713 1.40111 0.692711 0
M  V30 1239 H 122.448 0.77603 3.14878 0
M  V30 1240 H 122.233 2.54285 2.98466 0
M  V30 1241 H 123.723 1.88618 3.72576 0
M  V30 1242 N 124.16 -0.719506 1.40217 0
M  V30 1243 C 125.388 -1.50864 1.41589 0
M  V30 1244 C 125.803 -1.88794 0.0145275 0
M  V30 1245 O 125.16 -1.55174 -0.960594 0
M  V30 1246 C 125.211 -2.78646 2.30302 0
M  V30 1247 O 124.932 -2.42321 3.64983 0
M  V30 1248 C 126.433 -3.72569 2.40224 0
M  V30 1249 H 123.653 -0.465709 0.48307 0
M  V30 1250 H 126.197 -0.88785 1.84221 0
M  V30 1251 H 124.352 -3.37019 1.91042 0
M  V30 1252 H 124.766 -3.24514 4.12057 0
M  V30 1253 H 126.24 -4.5908 3.06512 0
M  V30 1254 H 126.717 -4.15403 1.42608 0
M  V30 1255 H 127.323 -3.20109 2.80019 0
M  V30 1256 N 125.638 -1.25649 -0.95132 0
M  V30 1257 C 126.884 -1.10757 -1.69884 0
M  V30 1258 C 127.217 0.350061 -1.91019 0
M  V30 1259 O 126.492 1.25783 -1.48354 0
M  V30 1260 C 126.775 -1.86606 -3.07978 0
M  V30 1261 C 126.628 -3.40217 -2.94232 0
M  V30 1262 C 127.947 -1.65182 -4.07925 0
M  V30 1263 H 125.066 -0.40374 -0.616574 0
M  V30 1264 H 127.708 -1.54521 -1.10558 0
M  V30 1265 H 125.858 -1.49409 -3.58621 0
M  V30 1266 H 127.53 -3.87108 -2.50889 0
M  V30 1267 H 125.773 -3.67759 -2.30078 0
M  V30 1268 H 126.444 -3.88505 -3.92133 0
M  V30 1269 H 128.92 -1.9757 -3.66204 0
M  V30 1270 H 127.796 -2.20683 -5.02583 0
M  V30 1271 H 128.057 -0.593933 -4.38092 0
M  V30 1272 N 127.117 1.15442 -1.07289 0
M  V30 1273 C 128.365 1.85845 -0.794096 0
M  V30 1274 C 128.686 1.82692 0.681809 0
M  V30 1275 O 127.956 1.26741 1.49377 0
M  V30 1276 H 126.536 0.688089 -0.290763 0
M  V30 1277 H 129.198 1.39947 -1.3565 0
M  V30 1278 H 128.294 2.91001 -1.12804 0
M  V30 1279 N 128.595 0.856903 1.32268 0
M  V30 1280 C 129.844 0.457599 1.96441 0
M  V30 1281 C 130.157 -0.992426 1.68553 0
M  V30 1282 O 131.363 -1.49727 2.26482 0
M  V30 1283 C 129.819 0.767358 3.51624 0
M  V30 1284 C 129.427 2.23326 3.88367 0
M  V30 1285 C 131.171 0.435887 4.22256 0
M  V30 1286 C 129.078 2.48613 5.36606 0
M  V30 1287 H 128.008 0.167387 0.735185 0
M  V30 1288 H 130.659 1.048 1.5063 0
M  V30 1289 H 129.041 0.106367 3.95857 0
M  V30 1290 H 130.215 2.93623 3.55137 0
M  V30 1291 H 128.53 2.52948 3.30766 0
M  V30 1292 H 131.127 0.602202 5.31298 0
M  V30 1293 H 131.47 -0.622672 4.11617 0
M  V30 1294 H 132.003 1.05286 3.83614 0
M  V30 1295 H 128.742 3.53101 5.52268 0
M  V30 1296 H 128.262 1.82896 5.71235 0
M  V30 1297 H 129.941 2.32676 6.03714 0
M  V30 1298 N 130.073 -1.45103 0.615059 0
M  V30 1299 C 131.321 -2.01784 0.112955 0
M  V30 1300 C 131.642 -1.48504 -1.26378 0
M  V30 1301 O 130.912 -0.682245 -1.83636 0
M  V30 1302 H 129.492 -0.745993 0.0387668 0
M  V30 1303 H 132.154 -1.77808 0.798141 0
M  V30 1304 H 131.25 -3.12025 0.0684069 0
M  V30 1305 N 131.551 -0.354651 -1.53558 0
M  V30 1306 C 132.962 0.126902 -1.86268 0
M  V30 1307 C 133.313 1.49075 -1.27558 0
M  V30 1308 O 132.438 2.08105 -0.5934 0
M  V30 1309 C 133.033 0.237046 -3.3797 0
M  V30 1310 C 131.592 0.662842 -3.70518 0
M  V30 1311 C 130.739 -0.196652 -2.76602 0
M  V30 1312 H 133.69 -0.573849 -1.47962 0
M  V30 1313 H 133.711 1.06259 -3.65362 0
M  V30 1314 H 133.223 -0.755725 -3.80671 0
M  V30 1315 H 131.324 1.66424 -3.33367 0
M  V30 1316 H 131.437 0.445034 -4.77029 0
M  V30 1317 H 129.801 0.332763 -2.52517 0
M  V30 1318 H 130.584 -1.18676 -3.22135 0
M  V30 1319 N 133.029 1.57378 -0.0835403 0
M  V30 1320 C 133.977 2.14602 0.89714 0
M  V30 1321 C 134.971 1.08589 1.30018 0
M  V30 1322 O 136.177 1.26952 1.27606 0
M  V30 1323 H 132.552 0.686346 0.3073 0
M  V30 1324 H 134.523 2.95845 0.38969 0
M  V30 1325 C 133.272 2.73188 2.15089 0
M  V30 1326 H 132.595 3.54442 1.84962 0
M  V30 1327 H 134.035 3.1681 2.81793 0
M  V30 1328 C 132.494 1.68517 2.91725 0
M  V30 1329 O 133.024 1.11718 3.85852 0
M  V30 1330 N 131.23 1.39277 2.55049 0
M  V30 1331 H 130.777 1.85655 1.78577 0
M  V30 1332 H 130.735 0.694791 3.06627 0
M  V30 1333 N 134.507 -0.190092 1.56449 0
M  V30 1334 C 135.755 -0.907908 1.80559 0
M  V30 1335 C 136.076 -1.83583 0.657438 0
M  V30 1336 O 135.346 -1.93203 -0.323924 0
M  V30 1337 H 133.926 -0.338247 0.666032 0
M  V30 1338 H 136.588 -0.194403 1.93928 0
M  V30 1339 H 135.684 -1.49604 2.73907 0
M  V30 1340 N 135.985 -1.50799 -0.457987 0
M  V30 1341 C 136.917 -1.66786 -1.57211 0
M  V30 1342 C 137.93 -0.548962 -1.53265 0
M  V30 1343 O 139.119 -0.8226 -1.58416 0
M  V30 1344 C 136.219 -1.64834 -2.96113 0
M  V30 1345 C 135.392 -2.92971 -3.24787 0
M  V30 1346 C 134.451 -2.83485 -4.43309 0
M  V30 1347 O 133.477 -3.5744 -4.42973 0
M  V30 1348 N 134.679 -1.97929 -5.45714 0
M  V30 1349 H 137.444 -2.62889 -1.43909 0
M  V30 1350 H 135.005 -1.48427 -0.646617 0
M  V30 1351 H 136.997 -1.56084 -3.7339 0
M  V30 1352 H 135.567 -0.764118 -3.03117 0
M  V30 1353 H 134.787 -3.15749 -2.36 0
M  V30 1354 H 136.075 -3.77834 -3.40762 0
M  V30 1355 H 135.473 -1.37182 -5.48815 0
M  V30 1356 H 134.03 -1.95073 -6.21924 0
M  V30 1357 N 137.463 0.71206 -1.40597 0
M  V30 1358 C 138.711 1.46907 -1.38791 0
M  V30 1359 C 139.032 1.94998 0.00780391 0
M  V30 1360 O 138.302 1.70587 0.963174 0
M  V30 1361 H 136.882 0.545043 -0.51082 0
M  V30 1362 H 139.544 0.843882 -1.75683 0
M  V30 1363 H 138.64 2.34021 -2.06496 0
M  V30 1364 N 138.941 1.26152 0.944643 0
M  V30 1365 C 140.189 1.11271 1.6871 0
M  V30 1366 C 140.51 -0.345166 1.91921 0
M  V30 1367 O 139.78 -1.24387 1.51343 0
M  V30 1368 H 138.36 0.408783 0.625224 0
M  V30 1369 H 141.022 1.58427 1.1352 0
M  V30 1370 H 140.118 1.62879 2.66227 0
M  V30 1371 N 140.419 -1.14872 1.07899 0
M  V30 1372 C 141.666 -1.85789 0.805532 0
M  V30 1373 C 141.994 -1.82649 -0.668561 0
M  V30 1374 O 141.249 -1.24858 -1.50695 0
M  V30 1375 C 141.548 -3.34223 1.26609 0
M  V30 1376 C 141.214 -3.57555 2.74709 0
M  V30 1377 C 139.876 -3.63631 3.1516 0
M  V30 1378 C 142.228 -3.66803 3.70277 0
M  V30 1379 C 139.556 -3.76473 4.49983 0
M  V30 1380 C 141.908 -3.8117 5.04869 0
M  V30 1381 C 140.572 -3.85494 5.44932 0
M  V30 1382 H 139.842 -0.679849 0.294765 0
M  V30 1383 H 142.489 -1.3572 1.35101 0
M  V30 1384 H 140.794 -3.86536 0.640103 0
M  V30 1385 H 142.491 -3.87511 1.03132 0
M  V30 1386 H 139.081 -3.5347 2.42398 0
M  V30 1387 H 143.265 -3.61404 3.40149 0
M  V30 1388 H 138.521 -3.7808 4.80484 0
M  V30 1389 H 142.695 -3.87268 5.78789 0
M  V30 1390 H 140.322 -3.95197 6.49403 0
M  V30 1391 N 141.898 -0.863906 -1.31812 0
M  V30 1392 C 142.861 -0.320212 -2.26952 0
M  V30 1393 C 143.861 0.525369 -1.51975 0
M  V30 1394 O 145.051 0.335547 -1.70938 0
M  V30 1395 C 142.183 0.545919 -3.365 0
M  V30 1396 H 143.376 -1.16004 -2.76556 0
M  V30 1397 H 140.929 -0.638995 -1.42641 0
M  V30 1398 H 141.664 1.40718 -2.92179 0
M  V30 1399 H 141.449 -0.0594674 -3.92055 0
M  V30 1400 H 142.939 0.918796 -4.07367 0
M  V30 1401 N 143.376 1.44774 -0.622745 0
M  V30 1402 C 144.306 2.33382 0.0741861 0
M  V30 1403 C 145.287 1.47719 0.843387 0
M  V30 1404 O 146.472 1.76458 0.810934 0
M  V30 1405 C 143.602 3.30663 1.06204 0
M  V30 1406 C 142.556 4.26079 0.405037 0
M  V30 1407 C 141.882 5.13165 1.5022 0
M  V30 1408 C 143.182 5.1781 -0.683414 0
M  V30 1409 H 144.876 2.91905 -0.665713 0
M  V30 1410 H 142.422 1.40363 -0.321587 0
M  V30 1411 H 144.375 3.9153 1.55827 0
M  V30 1412 H 143.099 2.70331 1.83272 0
M  V30 1413 H 141.758 3.66532 -0.0704683 0
M  V30 1414 H 141.406 4.49191 2.26355 0
M  V30 1415 H 141.106 5.77812 1.06803 0
M  V30 1416 H 142.63 5.76902 2.00041 0
M  V30 1417 H 144.044 5.72661 -0.270631 0
M  V30 1418 H 142.441 5.91015 -1.04023 0
M  V30 1419 H 143.511 4.59326 -1.55395 0
M  V30 1420 N 144.854 0.36279 1.53368 0
M  V30 1421 C 146.079 -0.231226 2.06107 0
M  V30 1422 C 146.504 -1.419 1.23474 0
M  V30 1423 O 145.862 -1.79524 0.253128 0
M  V30 1424 C 145.91 -0.605523 3.5548 0
M  V30 1425 O 145.014 -1.70312 3.7559 0
M  V30 1426 H 144.355 -0.034327 0.663112 0
M  V30 1427 H 146.885 0.522584 1.97814 0
M  V30 1428 H 146.895 -0.877314 3.98456 0
M  V30 1429 H 145.57 0.263004 4.15068 0
M  V30 1430 H 144.147 -1.4271 3.44512 0
M  V30 1431 N 146.332 -1.57332 0.0918853 0
M  V30 1432 C 147.578 -1.94524 -0.573425 0
M  V30 1433 C 147.911 -0.973578 -1.68033 0
M  V30 1434 O 147.186 -0.00609226 -1.94499 0
M  V30 1435 C 147.469 -3.41858 -1.13161 0
M  V30 1436 C 147.322 -4.4979 -0.0299747 0
M  V30 1437 C 148.641 -3.90435 -2.03098 0
M  V30 1438 H 145.76 -0.70734 -0.206975 0
M  V30 1439 H 148.402 -1.89309 0.161942 0
M  V30 1440 H 146.552 -3.46433 -1.7583 0
M  V30 1441 H 148.224 -4.57327 0.604112 0
M  V30 1442 H 146.467 -4.291 0.636833 0
M  V30 1443 H 147.138 -5.50069 -0.461287 0
M  V30 1444 H 149.614 -3.87992 -1.50338 0
M  V30 1445 H 148.49 -4.94097 -2.39081 0
M  V30 1446 H 148.751 -3.29541 -2.94712 0
M  V30 1447 N 147.81 0.181792 -1.56548 0
M  V30 1448 C 148.773 1.20894 -1.94724 0
M  V30 1449 C 149.773 1.37738 -0.829747 0
M  V30 1450 O 150.963 1.35323 -1.09697 0
M  V30 1451 C 148.095 2.57593 -2.23291 0
M  V30 1452 H 149.288 0.882275 -2.86629 0
M  V30 1453 H 146.841 0.423838 -1.50444 0
M  V30 1454 H 147.576 2.95291 -1.34067 0
M  V30 1455 H 147.361 2.46735 -3.04736 0
M  V30 1456 H 148.851 3.31637 -2.53785 0
M  V30 1457 N 149.288 1.51039 0.449983 0
M  V30 1458 C 150.218 1.74379 1.55288 0
M  V30 1459 C 151.199 0.593236 1.5942 0
M  V30 1460 O 152.384 0.834625 1.7535 0
M  V30 1461 C 149.514 1.85728 2.93466 0
M  V30 1462 C 148.468 3.01078 3.04197 0
M  V30 1463 C 147.794 2.97595 4.44231 0
M  V30 1464 C 149.094 4.41254 2.7945 0
M  V30 1465 H 150.788 2.66725 1.36008 0
M  V30 1466 H 148.334 1.2835 0.652864 0
M  V30 1467 H 150.287 2.0064 3.70569 0
M  V30 1468 H 149.011 0.900207 3.13949 0
M  V30 1469 H 147.67 2.85851 2.29531 0
M  V30 1470 H 147.318 1.99691 4.61663 0
M  V30 1471 H 147.018 3.75046 4.52343 0
M  V30 1472 H 148.542 3.14583 5.23326 0
M  V30 1473 H 149.956 4.56897 3.46292 0
M  V30 1474 H 148.353 5.20315 2.98985 0
M  V30 1475 H 149.423 4.52164 1.75144 0
M  V30 1476 N 150.766 -0.704594 1.40972 0
M  V30 1477 C 151.729 -1.80035 1.41845 0
M  V30 1478 C 152.729 -1.57774 0.310474 0
M  V30 1479 O 153.919 -1.64613 0.56992 0
M  V30 1480 C 151.051 -3.18284 1.22098 0
M  V30 1481 H 152.244 -1.80658 2.3938 0
M  V30 1482 H 149.797 -0.911329 1.26982 0
M  V30 1483 H 150.532 -3.23306 0.253672 0
M  V30 1484 H 150.317 -3.35843 2.02366 0
M  V30 1485 H 151.807 -3.98289 1.25522 0
M  V30 1486 N 152.244 -1.26651 -0.937939 0
M  V30 1487 C 153.207 -1.08546 -2.01867 0
M  V30 1488 C 154.207 -0.0327327 -1.60767 0
M  V30 1489 O 155.397 -0.276427 -1.71993 0
M  V30 1490 C 152.529 -0.651711 -3.34613 0
M  V30 1491 H 153.722 -2.04502 -2.1936 0
M  V30 1492 H 151.275 -1.09294 -1.11734 0
M  V30 1493 H 152.01 0.309696 -3.22818 0
M  V30 1494 H 151.795 -1.41189 -3.65798 0
M  V30 1495 H 153.285 -0.546973 -4.14002 0
M  V30 1496 N 153.722 1.14298 -1.08507 0
M  V30 1497 C 154.672 2.17449 -0.685569 0
M  V30 1498 C 155.656 1.58167 0.295315 0
M  V30 1499 O 156.848 1.76675 0.107172 0
M  V30 1500 C 153.977 3.43161 -0.0975318 0
M  V30 1501 C 153.063 4.09471 -1.10426 0
M  V30 1502 N 153.454 4.51089 -2.28806 0
M  V30 1503 C 151.752 4.35976 -0.940258 0
M  V30 1504 C 152.453 5.02654 -2.9277 0
M  V30 1505 N 151.429 4.96927 -2.20374 0
M  V30 1506 H 155.231 2.47369 -1.587 0
M  V30 1507 H 152.745 1.30992 -0.959936 0
M  V30 1508 H 154.742 4.16388 0.20664 0
M  V30 1509 H 153.402 3.14719 0.798872 0
M  V30 1510 H 154.413 4.44097 -2.66455 0
M  V30 1511 H 151.09 4.17386 -0.0977441 0
M  V30 1512 H 152.48 5.44723 -3.93352 0
M  V30 1513 N 155.201 0.870884 1.31352 0
M  V30 1514 C 156.45 0.478408 1.95944 0
M  V30 1515 C 156.763 -0.974493 1.69597 0
M  V30 1516 O 157.969 -1.47316 2.28058 0
M  V30 1517 C 156.425 0.804609 3.50791 0
M  V30 1518 C 156.033 2.27433 3.85977 0
M  V30 1519 C 157.777 0.480648 4.2177 0
M  V30 1520 C 155.684 2.5429 5.33939 0
M  V30 1521 H 154.614 0.175175 0.733369 0
M  V30 1522 H 157.265 1.06391 1.4951 0
M  V30 1523 H 155.647 0.148347 3.95722 0
M  V30 1524 H 156.821 2.97373 3.52002 0
M  V30 1525 H 155.136 2.56442 3.28065 0
M  V30 1526 H 157.733 0.658519 5.30629 0
M  V30 1527 H 158.076 -0.578979 4.12254 0
M  V30 1528 H 158.609 1.09349 3.82476 0
M  V30 1529 H 155.348 3.58939 5.48491 0
M  V30 1530 H 154.868 1.88945 5.69263 0
M  V30 1531 H 156.547 2.39066 6.01212 0
M  V30 1532 N 156.679 -1.44442 0.630414 0
M  V30 1533 C 157.642 -2.29107 -0.0652523 0
M  V30 1534 C 158.642 -1.41002 -0.772995 0
M  V30 1535 O 159.832 -1.62881 -0.617692 0
M  V30 1536 C 156.964 -3.22564 -1.10296 0
M  V30 1537 H 158.157 -2.92103 0.679401 0
M  V30 1538 H 155.71 -1.51343 0.390517 0
M  V30 1539 H 156.445 -2.64416 -1.87762 0
M  V30 1540 H 156.23 -3.87491 -0.59941 0
M  V30 1541 H 157.72 -3.86167 -1.5895 0
M  V30 1542 N 158.157 -0.370918 -1.53173 0
M  V30 1543 C 159.087 0.464847 -2.28826 0
M  V30 1544 C 160.068 1.07936 -1.31468 0
M  V30 1545 O 161.253 1.0956 -1.60344 0
M  V30 1546 C 158.383 1.60196 -3.08147 0
M  V30 1547 C 157.337 1.11443 -4.13237 0
M  V30 1548 C 156.663 2.3422 -4.80672 0
M  V30 1549 C 157.963 0.195384 -5.21934 0
M  V30 1550 H 159.657 -0.166329 -2.98938 0
M  V30 1551 H 157.203 -0.0814359 -1.4377 0
M  V30 1552 H 159.156 2.19332 -3.59822 0
M  V30 1553 H 157.88 2.26045 -2.35735 0
M  V30 1554 H 156.539 0.545727 -3.62515 0
M  V30 1555 H 156.187 2.98537 -4.04827 0
M  V30 1556 H 155.887 2.02269 -5.51689 0
M  V30 1557 H 157.411 2.94032 -5.35143 0
M  V30 1558 H 158.825 0.694375 -5.69079 0
M  V30 1559 H 157.222 -0.0335027 -6.00091 0
M  V30 1560 H 158.292 -0.760961 -4.78892 0
M  V30 1561 N 159.635 1.57281 -0.100228 0
M  V30 1562 C 160.545 2.17833 0.870965 0
M  V30 1563 C 161.561 1.14921 1.30649 0
M  V30 1564 O 162.737 1.47313 1.37335 0
M  V30 1565 C 159.802 2.75085 2.1102 0
M  V30 1566 C 158.863 3.9297 1.72838 0
M  V30 1567 C 158.096 4.47482 2.90854 0
M  V30 1568 O 158.319 4.00922 4.05731 0
M  V30 1569 O 157.253 5.38433 2.69023 0
M  V30 1570 H 161.079 3.0124 0.38575 0
M  V30 1571 H 158.664 1.48881 0.124397 0
M  V30 1572 H 160.546 3.11656 2.83634 0
M  V30 1573 H 159.221 1.94721 2.58584 0
M  V30 1574 H 158.128 3.61201 0.973883 0
M  V30 1575 H 159.461 4.74713 1.30033 0
M  V30 1576 N 161.113 -0.173488 1.56642 0
M  V30 1577 C 162.39 -0.917617 1.7274 0
M  V30 1578 C 162.77 -2.00484 0.661027 0
M  V30 1579 O 162.118 -2.26184 -0.32453 0
M  V30 1580 C 162.328 -1.48433 3.15862 0
M  V30 1581 C 163.676 -1.95809 3.76754 0
M  V30 1582 O 164.7 -1.58231 3.19126 0
M  V30 1583 O 163.559 -2.65024 4.77938 0
M  V30 1584 H 160.653 -0.431772 0.705338 0
M  V30 1585 H 163.199 -0.161487 1.6893 0
M  V30 1586 H 161.971 -0.701715 3.84957 0
M  V30 1587 H 161.594 -2.30471 3.23989 0
M  V30 1588 N 162.591 -1.51276 -0.441967 0
M  V30 1589 C 163.501 -1.75092 -1.56141 0
M  V30 1590 C 164.517 -0.634963 -1.62001 0
M  V30 1591 O 165.693 -0.916686 -1.79329 0
M  V30 1592 C 162.758 -1.86666 -2.92158 0
M  V30 1593 C 161.819 -3.10506 -2.96453 0
M  V30 1594 C 161.052 -3.21519 -4.25982 0
M  V30 1595 O 161.275 -2.38586 -5.18105 0
M  V30 1596 O 160.209 -4.14465 -4.36466 0
M  V30 1597 H 164.035 -2.70044 -1.38961 0
M  V30 1598 H 161.62 -1.35722 -0.624499 0
M  V30 1599 H 163.502 -1.96292 -3.72891 0
M  V30 1600 H 162.177 -0.949014 -3.09476 0
M  V30 1601 H 161.084 -3.06363 -2.14692 0
M  V30 1602 H 162.417 -4.01945 -2.84079 0
M  V30 1603 N 164.069 0.697108 -1.41344 0
M  V30 1604 C 165.001 1.8224 -1.39001 0
M  V30 1605 C 166.014 1.60152 -0.292428 0
M  V30 1606 O 167.203 1.69684 -0.554048 0
M  V30 1607 C 164.303 3.18976 -1.14489 0
M  V30 1608 C 163.476 3.68105 -2.36258 0
M  V30 1609 C 162.535 4.83506 -2.07625 0
M  V30 1610 O 161.561 4.95201 -2.8065 0
M  V30 1611 N 162.763 5.70637 -1.06555 0
M  V30 1612 H 165.528 1.84742 -2.35988 0
M  V30 1613 H 163.089 0.87937 -1.35936 0
M  V30 1614 H 165.081 3.93801 -0.932885 0
M  V30 1615 H 163.651 3.11508 -0.261043 0
M  V30 1616 H 162.871 2.84204 -2.7317 0
M  V30 1617 H 164.159 3.97667 -3.17393 0
M  V30 1618 H 163.557 5.63817 -0.461125 0
M  V30 1619 H 162.114 6.45368 -0.913444 0
M  V30 1620 N 165.547 1.27147 0.931209 0
M  V30 1621 C 166.51 1.09615 2.01289 0
M  V30 1622 C 167.51 0.0412581 1.60747 0
M  V30 1623 O 168.7 0.285545 1.71844 0
M  V30 1624 C 165.832 0.669447 3.34262 0
M  V30 1625 H 167.025 2.05662 2.18273 0
M  V30 1626 H 164.578 1.09885 1.11153 0
M  V30 1627 H 165.313 -0.292572 3.22978 0
M  V30 1628 H 165.098 1.43127 3.65044 0
M  V30 1629 H 166.588 0.568921 4.13706 0
M  V30 1630 N 167.025 -1.13721 1.09112 0
M  V30 1631 C 168.441 -1.36914 0.820174 0
M  V30 1632 C 168.641 -1.93356 -0.567079 0
M  V30 1633 O 167.697 -2.15093 -1.32255 0
M  V30 1634 C 169.01 -2.3235 1.90877 0
M  V30 1635 C 170.558 -2.45973 1.93562 0
M  V30 1636 C 171.033 -3.44714 3.01556 0
M  V30 1637 N 172.524 -3.52263 3.00775 0
M  V30 1638 C 173.259 -4.28536 3.80978 0
M  V30 1639 N 172.755 -5.07991 4.71081 0
M  V30 1640 N 174.548 -4.23804 3.69251 0
M  V30 1641 H 166.699 -0.754348 1.98553 0
M  V30 1642 H 168.962 -0.3944 0.862063 0
M  V30 1643 H 168.668 -1.98027 2.90651 0
M  V30 1644 H 168.542 -3.32332 1.78424 0
M  V30 1645 H 170.929 -2.79584 0.944286 0
M  V30 1646 H 171.01 -1.45926 2.10093 0
M  V30 1647 H 170.654 -3.11835 4.00901 0
M  V30 1648 H 170.584 -4.44558 2.82269 0
M  V30 1649 H 173.075 -2.95567 2.35475 0
M  V30 1650 H 173.388 -5.63487 5.28869 0
M  V30 1651 H 171.733 -5.07235 4.75119 0
M  V30 1652 H 174.924 -3.60806 2.98222 0
M  V30 1653 H 175.097 -4.82995 4.31995 0
M  V30 1654 N 168.503 -0.877838 -1.30888 0
M  V30 1655 C 169.435 -0.296607 -2.27273 0
M  V30 1656 C 170.448 0.544799 -1.53414 0
M  V30 1657 O 171.637 0.365511 -1.74718 0
M  V30 1658 C 168.737 0.597481 -3.33592 0
M  V30 1659 C 167.91 -0.213251 -4.3688 0
M  V30 1660 C 166.969 0.610208 -5.2265 0
M  V30 1661 O 165.995 0.035441 -5.69189 0
M  V30 1662 N 167.197 1.92071 -5.47804 0
M  V30 1663 H 169.962 -1.12492 -2.77787 0
M  V30 1664 H 167.523 -0.740105 -1.43993 0
M  V30 1665 H 169.515 1.15425 -3.87891 0
M  V30 1666 H 168.085 1.32647 -2.83061 0
M  V30 1667 H 167.305 -0.951466 -3.82545 0
M  V30 1668 H 168.593 -0.769262 -5.02951 0
M  V30 1669 H 167.991 2.4107 -5.11763 0
M  V30 1670 H 166.548 2.42508 -6.05007 0
M  V30 1671 N 169.982 1.44106 -0.638065 0
M  V30 1672 C 170.912 2.33448 0.0494287 0
M  V30 1673 C 171.893 1.48606 0.827672 0
M  V30 1674 O 173.078 1.77308 0.792173 0
M  V30 1675 C 170.208 3.31771 1.02691 0
M  V30 1676 C 169.162 4.26485 0.359823 0
M  V30 1677 C 168.488 5.14729 1.44769 0
M  V30 1678 C 169.788 5.17056 -0.738296 0
M  V30 1679 H 171.482 2.91183 -0.696636 0
M  V30 1680 H 169.028 1.40014 -0.336456 0
M  V30 1681 H 170.981 3.93161 1.51666 0
M  V30 1682 H 169.705 2.7226 1.80395 0
M  V30 1683 H 168.364 3.66437 -0.10934 0
M  V30 1684 H 168.012 4.51566 2.21578 0
M  V30 1685 H 167.712 5.78913 1.00668 0
M  V30 1686 H 169.236 5.78991 1.93911 0
M  V30 1687 H 170.65 5.72342 -0.331354 0
M  V30 1688 H 169.047 5.89879 -1.10286 0
M  V30 1689 H 170.117 4.57652 -1.60258 0
M  V30 1690 N 171.46 0.379036 1.52974 0
M  V30 1691 C 172.706 -0.206727 2.01744 0
M  V30 1692 C 173.039 -1.47314 1.26539 0
M  V30 1693 O 172.314 -1.91084 0.362903 0
M  V30 1694 C 172.597 -0.485066 3.56818 0
M  V30 1695 C 172.45 0.795919 4.42702 0
M  V30 1696 C 173.769 -1.28003 4.21074 0
M  V30 1697 H 170.888 -0.0736607 0.73331 0
M  V30 1698 H 173.53 0.506581 1.83122 0
M  V30 1699 H 171.68 -1.09272 3.72816 0
M  V30 1700 H 173.352 1.43307 4.38476 0
M  V30 1701 H 171.595 1.41344 4.10127 0
M  V30 1702 H 172.266 0.555947 5.49193 0
M  V30 1703 H 174.742 -0.765867 4.08991 0
M  V30 1704 H 173.618 -1.44352 5.29579 0
M  V30 1705 H 173.879 -2.29236 3.78026 0
M  V30 1706 N 172.938 -1.57226 0.108567 0
M  V30 1707 C 174.166 -1.99179 -0.559954 0
M  V30 1708 C 174.581 -0.988022 -1.60884 0
M  V30 1709 O 173.938 0.0205512 -1.82488 0
M  V30 1710 C 173.989 -3.41159 -1.19552 0
M  V30 1711 O 173.71 -4.37694 -0.188577 0
M  V30 1712 C 175.211 -3.98188 -1.94837 0
M  V30 1713 H 172.431 -0.654228 -0.149088 0
M  V30 1714 H 174.975 -2.03598 0.19183 0
M  V30 1715 H 173.13 -3.37711 -1.89815 0
M  V30 1716 H 173.544 -5.20469 -0.649014 0
M  V30 1717 H 175.018 -4.99644 -2.34648 0
M  V30 1718 H 175.495 -3.3675 -2.81951 0
M  V30 1719 H 176.101 -4.0515 -1.2936 0
M  V30 1720 N 174.416 0.165178 -1.56732 0
M  V30 1721 C 175.662 0.882112 -1.82611 0
M  V30 1722 C 175.995 1.81628 -0.687378 0
M  V30 1723 O 175.27 1.92009 0.310267 0
M  V30 1724 C 175.553 1.67245 -3.18906 0
M  V30 1725 C 175.406 0.760987 -4.43316 0
M  V30 1726 C 176.725 2.63884 -3.52212 0
M  V30 1727 H 173.844 0.319242 -0.664269 0
M  V30 1728 H 176.486 0.148052 -1.89422 0
M  V30 1729 H 174.636 2.29824 -3.1323 0
M  V30 1730 H 176.308 0.147596 -4.61064 0
M  V30 1731 H 174.551 0.0694102 -4.33744 0
M  V30 1732 H 175.222 1.34962 -5.35247 0
M  V30 1733 H 177.698 2.11429 -3.58381 0
M  V30 1734 H 176.574 3.16245 -4.48643 0
M  V30 1735 H 176.835 3.44377 -2.77231 0
M  V30 1736 N 175.894 1.51508 0.433938 0
M  V30 1737 C 176.857 1.72473 1.50949 0
M  V30 1738 C 177.857 0.594725 1.49398 0
M  V30 1739 O 179.047 0.862315 1.5136 0
M  V30 1740 C 176.179 1.78431 2.90474 0
M  V30 1741 H 177.372 2.68467 1.33662 0
M  V30 1742 H 174.925 1.41549 0.662836 0
M  V30 1743 H 175.66 0.842645 3.13161 0
M  V30 1744 H 175.445 2.60558 2.93005 0
M  V30 1745 H 176.935 1.96479 3.68491 0
M  V30 1746 N 177.372 -0.689602 1.41712 0
M  V30 1747 C 178.322 -1.79571 1.40493 0
M  V30 1748 C 179.306 -1.58473 0.278409 0
M  V30 1749 O 180.498 -1.69204 0.519532 0
M  V30 1750 C 177.627 -3.17923 1.29536 0
M  V30 1751 C 176.713 -3.44695 2.47075 0
M  V30 1752 N 177.104 -3.42132 3.72531 0
M  V30 1753 C 175.402 -3.75269 2.41017 0
M  V30 1754 C 176.103 -3.67976 4.50521 0
M  V30 1755 N 175.079 -3.88014 3.80718 0
M  V30 1756 H 178.881 -1.75961 2.35404 0
M  V30 1757 H 176.395 -0.889839 1.35851 0
M  V30 1758 H 178.392 -3.97167 1.26745 0
M  V30 1759 H 177.052 -3.22741 0.356153 0
M  V30 1760 H 178.063 -3.22375 4.05333 0
M  V30 1761 H 174.74 -3.87421 1.55599 0
M  V30 1762 H 176.13 -3.7208 5.59469 0
M  V30 1763 N 178.85 -1.27639 -0.924453 0
M  V30 1764 C 179.782 -1.06442 -2.02985 0
M  V30 1765 C 180.795 -0.0194771 -1.62788 0
M  V30 1766 O 181.984 -0.261388 -1.76576 0
M  V30 1767 C 179.084 -0.59327 -3.33667 0
M  V30 1768 C 178.257 -1.71123 -4.02537 0
M  V30 1769 C 177.316 -1.23527 -5.11495 0
M  V30 1770 O 176.342 -1.93553 -5.35281 0
M  V30 1771 N 177.544 -0.0926678 -5.80426 0
M  V30 1772 H 180.309 -2.01633 -2.2173 0
M  V30 1773 H 177.87 -1.19248 -1.09505 0
M  V30 1774 H 179.862 -0.258686 -4.03872 0
M  V30 1775 H 178.432 0.265502 -3.1147 0
M  V30 1776 H 177.652 -2.21593 -3.26022 0
M  V30 1777 H 178.94 -2.46145 -4.45298 0
M  V30 1778 H 178.338 0.491741 -5.63559 0
M  V30 1779 H 176.895 0.182714 -6.51544 0
M  V30 1780 N 180.328 1.1314 -1.09713 0
M  V30 1781 C 181.574 1.84757 -0.836224 0
M  V30 1782 C 181.907 1.8347 0.636598 0
M  V30 1783 O 181.182 1.27491 1.46889 0
M  V30 1784 C 181.465 3.32782 -1.37578 0
M  V30 1785 C 181.318 3.42567 -2.91493 0
M  V30 1786 C 182.637 4.28307 -1.01198 0
M  V30 1787 H 179.756 0.67082 -0.305236 0
M  V30 1788 H 182.398 1.3278 -1.35903 0
M  V30 1789 H 180.548 3.77177 -0.931097 0
M  V30 1790 H 182.22 3.06862 -3.44432 0
M  V30 1791 H 180.463 2.83349 -3.28475 0
M  V30 1792 H 181.134 4.46674 -3.24324 0
M  V30 1793 H 183.61 3.91999 -1.39556 0
M  V30 1794 H 182.486 5.30307 -1.41653 0
M  V30 1795 H 182.747 4.42029 0.0794833 0
M  V30 1796 N 181.806 0.884767 1.30421 0
M  V30 1797 C 183.046 0.509806 1.9794 0
M  V30 1798 C 183.41 -0.923736 1.68319 0
M  V30 1799 O 184.611 -1.40481 2.29169 0
M  V30 1800 C 182.882 0.776732 3.48858 0
M  V30 1801 S 184.441 0.503843 4.35898 0
M  V30 1802 H 181.259 0.189699 0.685227 0
M  V30 1803 H 183.861 1.14399 1.58535 0
M  V30 1804 H 182.565 1.81857 3.67908 0
M  V30 1805 H 182.096 0.1301 3.93185 0
M  V30 1806 H 184.111 -0.657625 4.91823 0
M  V30 1807 N 183.284 -1.43765 0.645699 0
M  V30 1808 C 184.695 -1.85193 0.236719 0
M  V30 1809 C 185.046 -1.54045 -1.21509 0
M  V30 1810 O 184.171 -0.985694 -1.92647 0
M  V30 1811 C 184.766 -3.36151 0.422845 0
M  V30 1812 C 183.325 -3.76338 0.0682492 0
M  V30 1813 C 182.472 -2.67538 0.729306 0
M  V30 1814 H 185.423 -1.34025 0.849883 0
M  V30 1815 H 185.444 -3.79032 -0.333904 0
M  V30 1816 H 184.956 -3.5879 1.47958 0
M  V30 1817 H 183.057 -3.59312 -0.986179 0
M  V30 1818 H 183.17 -4.76603 0.488469 0
M  V30 1819 H 181.534 -2.54176 0.163235 0
M  V30 1820 H 182.317 -2.93006 1.78892 0
M  V30 1821 N 184.763 -0.387143 -1.52771 0
M  V30 1822 C 185.993 0.195585 -2.05672 0
M  V30 1823 C 186.401 1.41241 -1.25887 0
M  V30 1824 O 185.744 1.81265 -0.298081 0
M  V30 1825 C 185.806 0.632327 -3.53895 0
M  V30 1826 C 185.47 -0.470739 -4.54569 0
M  V30 1827 C 186.467 -1.32746 -5.02667 0
M  V30 1828 C 184.152 -0.637151 -4.98243 0
M  V30 1829 C 186.146 -2.33574 -5.93061 0
M  V30 1830 C 183.833 -1.64877 -5.88438 0
M  V30 1831 C 184.831 -2.49649 -6.35739 0
M  V30 1832 O 184.519 -3.49082 -7.24153 0
M  V30 1833 H 184.251 0.033658 -0.675162 0
M  V30 1834 H 186.805 -0.550221 -1.97893 0
M  V30 1835 H 185.035 1.43008 -3.59285 0
M  V30 1836 H 186.724 1.14048 -3.89548 0
M  V30 1837 H 187.49 -1.21019 -4.69659 0
M  V30 1838 H 183.369 0.0129567 -4.60998 0
M  V30 1839 H 186.913 -2.99777 -6.29904 0
M  V30 1840 H 182.81 -1.76643 -6.2086 0
M  V30 1841 H 183.578 -3.45065 -7.42208 0
M  V30 1842 N 186.241 1.57166 -0.116904 0
M  V30 1843 C 187.466 1.999 0.55271 0
M  V30 1844 C 187.891 0.996039 1.59564 0
M  V30 1845 O 187.249 -0.032556 1.81271 0
M  V30 1846 C 187.297 3.4152 1.15742 0
M  V30 1847 O 186.401 3.44106 2.27299 0
M  V30 1848 H 185.742 0.649447 0.138258 0
M  V30 1849 H 188.272 2.03573 -0.204759 0
M  V30 1850 H 188.282 3.79684 1.49346 0
M  V30 1851 H 186.957 4.14034 0.393493 0
M  V30 1852 H 185.534 3.17759 1.9515 0
M  V30 1853 N 187.719 -0.156864 1.56817 0
M  V30 1854 C 188.667 -1.21319 1.98455 0
M  V30 1855 C 189.661 -1.45025 0.875444 0
M  V30 1856 O 190.867 -1.45435 1.0606 0
M  V30 1857 H 187.242 -0.408142 0.631605 0
M  V30 1858 H 189.213 -0.835244 2.86472 0
M  V30 1859 C 187.962 -2.54148 2.37285 0
M  V30 1860 H 187.285 -2.36733 3.22176 0
M  V30 1861 H 188.725 -3.26712 2.70251 0
M  V30 1862 C 187.184 -3.13967 1.22173 0
M  V30 1863 O 187.714 -3.98357 0.517149 0
M  V30 1864 N 185.92 -2.7327 0.988536 0
M  V30 1865 H 185.467 -2.04744 1.56326 0
M  V30 1866 H 185.425 -3.13628 0.220209 0
M  V30 1867 N 189.197 -1.51736 -0.425897 0
M  V30 1868 C 190.16 -1.73271 -1.50032 0
M  V30 1869 C 191.16 -0.602639 -1.4908 0
M  V30 1870 O 192.35 -0.87033 -1.509 0
M  V30 1871 C 189.482 -1.79969 -2.89523 0
M  V30 1872 H 190.675 -2.69172 -1.32237 0
M  V30 1873 H 188.228 -1.41899 -0.65532 0
M  V30 1874 H 188.963 -0.859241 -3.1271 0
M  V30 1875 H 188.748 -2.62109 -2.91619 0
M  V30 1876 H 190.238 -1.9843 -3.67444 0
M  V30 1877 N 190.675 0.682077 -1.42076 0
M  V30 1878 C 191.921 1.44428 -1.42367 0
M  V30 1879 C 192.254 1.94164 -0.0373056 0
M  V30 1880 O 191.529 1.70429 0.937239 0
M  V30 1881 C 191.812 2.64654 -2.44194 0
M  V30 1882 C 191.665 2.20596 -3.91991 0
M  V30 1883 C 192.984 3.66865 -2.431 0
M  V30 1884 H 190.103 0.523834 -0.518428 0
M  V30 1885 H 192.745 0.77576 -1.73442 0
M  V30 1886 H 190.895 3.2169 -2.17826 0
M  V30 1887 H 192.567 1.68783 -4.29313 0
M  V30 1888 H 190.81 1.52242 -4.06208 0
M  V30 1889 H 191.481 3.06921 -4.58807 0
M  V30 1890 H 193.957 3.19531 -2.66532 0
M  V30 1891 H 192.833 4.48577 -3.16339 0
M  V30 1892 H 193.094 4.17493 -1.45437 0
M  V30 1893 N 192.153 1.28127 0.917671 0
M  V30 1894 C 193.569 1.05749 1.19538 0
M  V30 1895 C 193.769 -0.202633 2.00479 0
M  V30 1896 O 192.825 -0.905382 2.3571 0
M  V30 1897 C 194.138 2.30273 1.93378 0
M  V30 1898 C 195.686 2.35412 2.06277 0
M  V30 1899 C 196.161 3.59692 2.83524 0
M  V30 1900 N 197.652 3.60309 2.91087 0
M  V30 1901 C 198.387 4.53147 3.51348 0
M  V30 1902 N 197.883 5.563 4.12919 0
M  V30 1903 N 199.676 4.40751 3.48849 0
M  V30 1904 H 191.827 2.09024 0.377184 0
M  V30 1905 H 194.09 0.919798 0.22951 0
M  V30 1906 H 193.796 3.22055 1.41328 0
M  V30 1907 H 193.67 2.36378 2.93947 0
M  V30 1908 H 196.057 1.4413 2.57508 0
M  V30 1909 H 196.138 2.33304 1.04895 0
M  V30 1910 H 195.782 4.51316 2.32973 0
M  V30 1911 H 195.712 3.59054 3.85211 0
M  V30 1912 H 198.203 2.85714 2.47338 0
M  V30 1913 H 198.516 6.2329 4.56869 0
M  V30 1914 H 196.861 5.60131 4.11435 0
M  V30 1915 H 200.052 3.59367 2.99955 0
M  V30 1916 H 200.225 5.13291 3.9552 0
M  V30 1917 N 193.631 -1.12557 1.10312 0
M  V30 1918 C 194.879 -1.83675 0.843091 0
M  V30 1919 C 195.2 -1.84435 -0.633131 0
M  V30 1920 O 194.47 -1.30657 -1.45964 0
M  V30 1921 H 193.05 -0.680138 0.308904 0
M  V30 1922 H 195.712 -1.36301 1.39313 0
M  V30 1923 H 194.808 -2.87908 1.2048 0
M  V30 1924 N 195.109 -0.891671 -1.2995 0
M  V30 1925 C 196.057 -0.353066 -2.29905 0
M  V30 1926 C 197.051 0.543509 -1.60444 0
M  V30 1927 O 198.257 0.4272 -1.74857 0
M  V30 1928 H 194.632 -0.095531 -0.745907 0
M  V30 1929 H 196.603 -1.20961 -2.72784 0
M  V30 1930 C 195.352 0.411475 -3.45257 0
M  V30 1931 H 194.675 -0.269182 -3.98893 0
M  V30 1932 H 196.115 0.753328 -4.17254 0
M  V30 1933 C 194.574 1.6111 -2.9588 0
M  V30 1934 O 195.104 2.71045 -2.96475 0
M  V30 1935 N 193.31 1.45054 -2.51809 0
M  V30 1936 H 192.857 0.556175 -2.51524 0
M  V30 1937 H 192.815 2.25453 -2.1913 0
M  V30 1938 N 196.587 1.43421 -0.653314 0
M  V30 1939 C 197.836 2.01032 -0.164076 0
M  V30 1940 C 198.149 1.52147 1.22926 0
M  V30 1941 O 199.355 2.02031 1.81371 0
M  V30 1942 C 197.811 3.59082 -0.24252 0
M  V30 1943 C 197.419 4.1696 -1.63855 0
M  V30 1944 C 199.163 4.24079 0.18911 0
M  V30 1945 C 197.07 5.67304 -1.67092 0
M  V30 1946 H 196 0.751798 -0.0575769 0
M  V30 1947 H 198.651 1.6439 -0.815362 0
M  V30 1948 H 197.033 3.93125 0.476276 0
M  V30 1949 H 198.207 3.94416 -2.38271 0
M  V30 1950 H 196.522 3.64335 -2.01616 0
M  V30 1951 H 199.119 5.34381 0.184775 0
M  V30 1952 H 199.462 3.98005 1.22056 0
M  V30 1953 H 199.995 3.94918 -0.477938 0
M  V30 1954 H 196.734 5.98145 -2.68146 0
M  V30 1955 H 196.254 5.91904 -0.970014 0
M  V30 1956 H 197.933 6.31344 -1.4147 0
M  V30 1957 N 198.065 0.39524 1.52563 0
M  V30 1958 C 199.342 -0.242908 1.94086 0
M  V30 1959 C 199.722 -1.63841 1.33114 0
M  V30 1960 O 199.07 -2.22928 0.501529 0
M  V30 1961 C 199.28 -0.26327 3.48006 0
M  V30 1962 C 200.628 -0.489354 4.21771 0
M  V30 1963 O 201.652 -0.343226 3.54543 0
M  V30 1964 O 200.511 -0.776169 5.4096 0
M  V30 1965 H 197.605 -0.152536 0.812811 0
M  V30 1966 H 200.151 0.450178 1.6362 0
M  V30 1967 H 198.923 0.713985 3.84731 0
M  V30 1968 H 198.546 -1.00103 3.84792 0
M  V30 1969 N 199.544 -1.57102 0.125237 0
M  V30 1970 C 200.79 -1.95697 -0.532035 0
M  V30 1971 C 201.123 -1.009 -1.6593 0
M  V30 1972 O 200.398 -0.047347 -1.94442 0
M  V30 1973 C 200.681 -3.44181 -1.05884 0
M  V30 1974 C 200.534 -4.49752 0.0654392 0
M  V30 1975 C 201.853 -3.94655 -1.9477 0
M  V30 1976 H 198.972 -0.711571 -0.191925 0
M  V30 1977 H 201.614 -1.88923 0.20206 0
M  V30 1978 H 199.764 -3.50085 -1.68442 0
M  V30 1979 H 201.436 -4.55943 0.700982 0
M  V30 1980 H 199.679 -4.27653 0.727709 0
M  V30 1981 H 200.35 -5.50924 -0.344505 0
M  V30 1982 H 202.826 -3.91094 -1.42074 0
M  V30 1983 H 201.702 -4.99057 -2.28546 0
M  V30 1984 H 201.963 -3.35718 -2.87656 0
M  V30 1985 N 201.022 0.148545 -1.56898 0
M  V30 1986 C 201.954 1.20852 -1.9475 0
M  V30 1987 C 202.967 1.39265 -0.843152 0
M  V30 1988 O 204.156 1.38864 -1.12156 0
M  V30 1989 C 201.256 2.57362 -2.20495 0
M  V30 1990 C 200.429 2.59947 -3.51776 0
M  V30 1991 C 199.488 3.77984 -3.6608 0
M  V30 1992 O 198.514 3.62929 -4.38487 0
M  V30 1993 N 199.716 4.95375 -3.02629 0
M  V30 1994 H 202.481 0.886804 -2.86279 0
M  V30 1995 H 200.042 0.338121 -1.5833 0
M  V30 1996 H 202.034 3.34833 -2.27307 0
M  V30 1997 H 200.604 2.81832 -1.35238 0
M  V30 1998 H 199.824 1.68403 -3.56419 0
M  V30 1999 H 201.112 2.58704 -4.38121 0
M  V30 2000 H 200.51 5.10509 -2.43715 0
M  V30 2001 H 199.067 5.70627 -3.15004 0
M  V30 2002 N 202.5 1.5196 0.417844 0
M  V30 2003 C 203.746 1.65836 1.16732 0
M  V30 2004 C 204.079 0.382881 1.90388 0
M  V30 2005 O 203.354 -0.618368 1.84408 0
M  V30 2006 C 203.637 2.87466 2.16876 0
M  V30 2007 C 203.49 4.25041 1.47174 0
M  V30 2008 C 204.809 3.04613 3.17646 0
M  V30 2009 H 201.928 0.603515 0.423011 0
M  V30 2010 H 204.57 1.84494 0.454105 0
M  V30 2011 H 202.72 2.71689 2.777 0
M  V30 2012 H 204.392 4.52527 0.895376 0
M  V30 2013 H 202.635 4.26843 0.773806 0
M  V30 2014 H 203.306 5.06176 2.20204 0
M  V30 2015 H 205.782 3.1923 2.66892 0
M  V30 2016 H 204.658 3.91247 3.8499 0
M  V30 2017 H 204.919 2.17541 3.84874 0
M  V30 2018 N 203.978 -0.674533 1.42435 0
M  V30 2019 C 205.203 -1.46784 1.46524 0
M  V30 2020 C 205.628 -1.87938 0.078066 0
M  V30 2021 O 204.986 -1.56014 -0.92354 0
M  V30 2022 C 205.034 -2.69307 2.39805 0
M  V30 2023 O 204.138 -3.67587 1.86959 0
M  V30 2024 H 203.479 -0.440959 0.496439 0
M  V30 2025 H 206.009 -0.827326 1.87127 0
M  V30 2026 H 206.019 -3.17374 2.56393 0
M  V30 2027 H 204.694 -2.38692 3.40586 0
M  V30 2028 H 203.271 -3.2662 1.79927 0
M  V30 2029 N 205.456 -1.28612 -0.910864 0
M  V30 2030 C 206.702 -1.16106 -1.66274 0
M  V30 2031 C 207.035 0.289113 -1.92036 0
M  V30 2032 O 206.31 1.21 -1.52281 0
M  V30 2033 C 206.593 -1.96309 -3.01885 0
M  V30 2034 C 206.446 -3.49405 -2.8326 0
M  V30 2035 C 207.765 -1.78076 -4.02463 0
M  V30 2036 H 204.884 -0.423152 -0.603417 0
M  V30 2037 H 207.526 -1.57961 -1.05586 0
M  V30 2038 H 205.676 -1.60742 -3.53687 0
M  V30 2039 H 207.348 -3.94894 -2.38446 0
M  V30 2040 H 205.591 -3.74893 -2.18261 0
M  V30 2041 H 206.262 -4.00784 -3.79574 0
M  V30 2042 H 208.738 -2.0912 -3.59733 0
M  V30 2043 H 207.614 -2.36561 -4.95308 0
M  V30 2044 H 207.875 -0.733008 -4.35981 0
M  V30 2045 N 206.934 1.1197 -1.10907 0
M  V30 2046 C 207.882 2.19927 -0.757303 0
M  V30 2047 C 208.876 1.67564 0.248747 0
M  V30 2048 O 210.082 1.79672 0.108605 0
M  V30 2049 H 206.457 0.716925 -0.226987 0
M  V30 2050 H 208.428 2.46847 -1.67658 0
M  V30 2051 C 207.177 3.47061 -0.210671 0
M  V30 2052 H 206.5 3.87703 -0.976049 0
M  V30 2053 H 207.94 4.24 -0.0026584 0
M  V30 2054 C 206.399 3.19864 1.05777 0
M  V30 2055 O 206.929 3.40049 2.13845 0
M  V30 2056 N 205.135 2.73636 0.978349 0
M  V30 2057 H 204.682 2.5741 0.0988246 0
M  V30 2058 H 204.64 2.55815 1.82773 0
M  V30 2059 N 208.412 0.89855 1.29475 0
M  V30 2060 C 209.66 0.522847 1.9522 0
M  V30 2061 C 209.981 -0.93371 1.71192 0
M  V30 2062 O 209.251 -1.65823 1.04305 0
M  V30 2063 H 207.831 0.190366 0.722336 0
M  V30 2064 H 210.493 1.14459 1.5775 0
M  V30 2065 H 209.589 0.704476 3.04045 0
M  V30 2066 N 209.89 -1.43072 0.660911 0
M  V30 2067 C 210.82 -2.33497 -0.0122829 0
M  V30 2068 C 211.801 -1.49903 -0.803925 0
M  V30 2069 O 212.986 -1.78546 -0.763864 0
M  V30 2070 C 210.116 -3.33363 -0.973994 0
M  V30 2071 C 209.07 -4.27003 -0.291928 0
M  V30 2072 C 208.396 -5.16967 -1.36562 0
M  V30 2073 C 209.696 -5.15816 0.820462 0
M  V30 2074 H 211.39 -2.90038 0.742873 0
M  V30 2075 H 208.936 -1.39461 0.358688 0
M  V30 2076 H 210.889 -3.95524 -1.45392 0
M  V30 2077 H 209.613 -2.75095 -1.7604 0
M  V30 2078 H 208.272 -3.66217 0.167623 0
M  V30 2079 H 207.92 -4.55034 -2.14366 0
M  V30 2080 H 207.62 -5.80441 -0.914454 0
M  V30 2081 H 209.144 -5.82003 -1.84675 0
M  V30 2082 H 210.558 -5.71742 0.422366 0
M  V30 2083 H 208.955 -5.8805 1.19656 0
M  V30 2084 H 210.025 -4.55045 1.67518 0
M  V30 2085 N 211.368 -0.403325 -1.52352 0
M  V30 2086 C 212.331 0.413051 -2.25447 0
M  V30 2087 C 213.331 0.978513 -1.276 0
M  V30 2088 O 214.521 0.858305 -1.51587 0
M  V30 2089 C 211.653 1.58087 -3.02029 0
M  V30 2090 H 212.846 -0.227094 -2.99039 0
M  V30 2091 H 210.399 -0.155722 -1.55522 0
M  V30 2092 H 211.134 2.25804 -2.32772 0
M  V30 2093 H 210.919 1.18195 -3.73861 0
M  V30 2094 H 212.409 2.1585 -3.57489 0
M  V30 2095 N 212.846 1.57033 -0.133567 0
M  V30 2096 C 213.776 2.1909 0.807567 0
M  V30 2097 C 214.757 1.13517 1.26681 0
M  V30 2098 O 215.942 1.41809 1.32679 0
M  V30 2099 C 213.072 2.80188 2.05212 0
M  V30 2100 C 212.026 3.91471 1.73015 0
M  V30 2101 C 211.352 4.39443 3.04622 0
M  V30 2102 C 212.652 5.12886 0.987168 0
M  V30 2103 H 214.346 2.97988 0.290403 0
M  V30 2104 H 211.892 1.43335 0.138239 0
M  V30 2105 H 213.845 3.22264 2.71521 0
M  V30 2106 H 212.569 1.98601 2.59278 0
M  V30 2107 H 211.228 3.49993 1.0909 0
M  V30 2108 H 210.876 3.54695 3.56651 0
M  V30 2109 H 210.576 5.14495 2.83847 0
M  V30 2110 H 212.1 4.8418 3.72024 0
M  V30 2111 H 213.514 5.51891 1.55208 0
M  V30 2112 H 211.911 5.93615 0.87985 0
M  V30 2113 H 212.981 4.84894 -0.0235286 0
M  V30 2114 O 214.363 -0.00541248 1.61499 0
M  V30 2115 H 215.054 -0.622816 1.83414 0
M  V30 END ATOM
M  V30 BEGIN BOND
M  V30 END BOND
M  V30 END CTAB
M  END
$$$$
