drugbank_target|O60568 Procollagen-lysine,2-oxoglutarate 5-dioxygenase 3 (DB00126)
 OpenBabel12092120073D

  0  0  0     0  0            999 V3000
M  V30 BEGIN CTAB
M  V30 COUNTS 11792 11967 0 0 0
M  V30 BEGIN ATOM
M  V30 1 H -0.908 1.98254 -0.117106 0
M  V30 2 N 0 1.576 0 0
M  V30 3 C 0.933 2.03868 1.02534 0
M  V30 4 C 1.911 0.928543 1.3348 0
M  V30 5 O 3.095 1.19667 1.45644 0
M  V30 6 C 0.222 2.43627 2.35294 0
M  V30 7 C -0.732 3.65373 2.2001 0
M  V30 8 S 0.101 5.13292 1.52614 0
M  V30 9 C 1.257 5.56322 2.86805 0
M  V30 10 H 1.49 2.90518 0.631377 0
M  V30 11 H -0.977 1.52953 0.210867 0
M  V30 12 H 0.981 2.67203 3.11629 0
M  V30 13 H -0.358 1.57376 2.7183 0
M  V30 14 H -1.165 3.90944 3.18086 0
M  V30 15 H -1.563 3.418 1.51819 0
M  V30 16 H 0.729 5.58782 3.83104 0
M  V30 17 H 1.672 6.56266 2.65933 0
M  V30 18 H 2.08 4.83886 2.90714 0
M  V30 19 N 1.4781 -0.272755 1.55222 0
M  V30 20 C 2.7061 -1.02255 1.79865 0
M  V30 21 C 3.1211 -1.79924 0.572088 0
M  V30 22 O 2.4781 -1.76638 -0.458842 0
M  V30 23 C 2.5291 -1.98094 3.02392 0
M  V30 24 O 2.2501 -1.23572 4.20311 0
M  V30 25 C 3.7511 -2.84884 3.39641 0
M  V30 26 H 0.9711 -0.302057 0.599168 0
M  V30 27 H 3.5151 -0.303465 2.02236 0
M  V30 28 H 1.6701 -2.65465 2.82147 0
M  V30 29 H 2.0841 -1.88172 4.89583 0
M  V30 30 H 3.5581 -3.47927 4.28545 0
M  V30 31 H 4.0351 -3.54665 2.59055 0
M  V30 32 H 4.6411 -2.23003 3.62146 0
M  V30 33 N 2.9562 -1.48159 -0.537278 0
M  V30 34 C 4.1812 -1.59707 -1.32319 0
M  V30 35 C 4.6062 -0.254859 -1.86365 0
M  V30 36 O 3.9642 0.772378 -1.64024 0
M  V30 37 C 4.0122 -2.6412 -2.45505 0
M  V30 38 O 3.1162 -2.20774 -3.48328 0
M  V30 39 H 2.4572 -0.535791 -0.392204 0
M  V30 40 H 4.9872 -1.94092 -0.647268 0
M  V30 41 H 4.9972 -2.85166 -2.91795 0
M  V30 42 H 3.6722 -3.61567 -2.05528 0
M  V30 43 H 2.2492 -2.09911 -3.08207 0
M  V30 44 N 4.4343 0.785586 -1.36625 0
M  V30 45 C 5.6593 1.57963 -1.34397 0
M  V30 46 C 6.0843 1.87964 0.071526 0
M  V30 47 O 5.4423 1.48182 1.0446 0
M  V30 48 C 5.4903 2.87511 -2.17646 0
M  V30 49 O 4.5943 3.81281 -1.57158 0
M  V30 50 H 3.9353 0.479014 -0.459828 0
M  V30 51 H 6.4653 0.973411 -1.79961 0
M  V30 52 H 6.4753 3.36745 -2.30362 0
M  V30 53 H 5.1503 2.65002 -3.20541 0
M  V30 54 H 3.7273 3.39885 -1.53403 0
M  V30 55 N 5.9124 1.20967 1.01018 0
M  V30 56 C 7.1604 1.02172 1.74371 0
M  V30 57 C 7.4814 -0.446414 1.89821 0
M  V30 58 O 6.7514 -1.32234 1.44537 0
M  V30 59 H 5.3314 0.375066 0.646014 0
M  V30 60 H 7.9934 1.52187 1.21758 0
M  V30 61 H 7.0894 1.48538 2.74487 0
M  V30 62 N 7.3905 -1.2043 1.01659 0
M  V30 63 C 8.8015 -1.71517 0.737482 0
M  V30 64 C 9.1525 -1.81547 -0.743973 0
M  V30 65 O 8.2775 -1.47803 -1.58061 0
M  V30 66 C 8.8725 -3.11515 1.33206 0
M  V30 67 C 7.4315 -3.59912 1.10183 0
M  V30 68 C 6.5785 -2.37116 1.43776 0
M  V30 69 H 9.5295 -1.05444 1.18606 0
M  V30 70 H 9.5505 -3.73575 0.722636 0
M  V30 71 H 9.0625 -3.04182 2.41028 0
M  V30 72 H 7.1635 -3.72577 0.0412756 0
M  V30 73 H 7.2765 -4.44731 1.78188 0
M  V30 74 H 5.6405 -2.39857 0.856778 0
M  V30 75 H 6.4235 -2.32424 2.52654 0
M  V30 76 N 8.8686 -0.792821 -1.36206 0
M  V30 77 C 10.1166 -0.366062 -1.98757 0
M  V30 78 C 10.4376 1.0668 -1.63231 0
M  V30 79 O 9.7076 1.73587 -0.907978 0
M  V30 80 H 8.2876 -0.132364 -0.735179 0
M  V30 81 H 10.9496 -1.01562 -1.66347 0
M  V30 82 H 10.0456 -0.460638 -3.08682 0
M  V30 83 N 10.3467 1.47872 -0.545128 0
M  V30 84 C 11.7577 1.86384 -0.108581 0
M  V30 85 C 12.1087 1.45309 1.31832 0
M  V30 86 O 11.2337 0.850641 1.9898 0
M  V30 87 C 11.8287 3.38265 -0.190274 0
M  V30 88 C 10.3877 3.75914 0.191164 0
M  V30 89 C 9.5347 2.71926 -0.543273 0
M  V30 90 H 12.4857 1.39561 -0.755537 0
M  V30 91 H 12.5067 3.75831 0.594217 0
M  V30 92 H 12.0187 3.6813 -1.2289 0
M  V30 93 H 10.1197 3.51665 1.23136 0
M  V30 94 H 10.2327 4.78836 -0.158987 0
M  V30 95 H 8.5967 2.54697 0.0122495 0
M  V30 96 H 9.3797 3.04634 -1.58282 0
M  V30 97 N 11.8248 0.280983 1.55075 0
M  V30 98 C 13.2408 -0.0729964 1.59433 0
M  V30 99 C 13.4408 -1.5411 1.29817 0
M  V30 100 O 12.4968 -2.29086 1.06187 0
M  V30 101 C 13.8098 0.306921 2.9913 0
M  V30 102 C 15.3578 0.254023 3.11968 0
M  V30 103 C 15.8328 0.608467 4.5394 0
M  V30 104 N 17.3238 0.560241 4.59799 0
M  V30 105 C 18.0588 0.80722 5.6769 0
M  V30 106 N 17.5548 1.11912 6.83701 0
M  V30 107 N 19.3478 0.735623 5.57266 0
M  V30 108 H 11.4988 1.238 1.7259 0
M  V30 109 H 13.7618 0.500547 0.805082 0
M  V30 110 H 13.4678 1.32816 3.25657 0
M  V30 111 H 13.3418 -0.349363 3.75579 0
M  V30 112 H 15.7288 -0.75794 2.852 0
M  V30 113 H 15.8098 0.944649 2.37718 0
M  V30 114 H 15.4538 1.61814 4.81434 0
M  V30 115 H 15.3838 -0.104013 5.26497 0
M  V30 116 H 17.8748 0.329288 3.76463 0
M  V30 117 H 18.1878 1.29409 7.61888 0
M  V30 118 H 16.5328 1.15695 6.85303 0
M  V30 119 H 19.7238 0.491752 4.6551 0
M  V30 120 H 19.8968 0.931482 6.4127 0
M  V30 121 N 13.3029 -1.57598 0.00835791 0
M  V30 122 C 14.5499 -1.90928 -0.674732 0
M  V30 123 C 14.8779 -0.88277 -1.73313 0
M  V30 124 O 14.1329 0.111294 -1.95383 0
M  V30 125 C 14.4319 -3.3101 -1.34787 0
M  V30 126 C 14.0979 -4.48922 -0.421861 0
M  V30 127 C 12.7599 -4.8091 -0.166927 0
M  V30 128 C 15.1119 -5.20755 0.215211 0
M  V30 129 C 12.4399 -5.821 0.733232 0
M  V30 130 C 14.7919 -6.22905 1.1033 0
M  V30 131 C 13.4559 -6.53346 1.36733 0
M  V30 132 H 12.7259 -0.698656 -0.246902 0
M  V30 133 H 15.3729 -1.91387 0.0656779 0
M  V30 134 H 13.6779 -3.26714 -2.16253 0
M  V30 135 H 15.3749 -3.54061 -1.8826 0
M  V30 136 H 11.9649 -4.23934 -0.630729 0
M  V30 137 H 16.1489 -4.9629 0.0312829 0
M  V30 138 H 11.4049 -6.04042 0.945712 0
M  V30 139 H 15.5789 -6.77694 1.60325 0
M  V30 140 H 13.2059 -7.31573 2.06652 0
M  V30 141 N 14.781 0.264519 -1.55364 0
M  V30 142 C 15.711 1.33121 -1.91836 0
M  V30 143 C 16.692 1.51101 -0.781192 0
M  V30 144 O 17.877 1.64003 -1.04003 0
M  V30 145 C 15.007 2.68921 -2.19769 0
M  V30 146 C 13.961 2.65661 -3.35571 0
M  V30 147 C 13.287 4.05093 -3.49004 0
M  V30 148 C 14.587 2.24187 -4.71739 0
M  V30 149 H 16.281 1.02844 -2.81182 0
M  V30 150 H 13.827 0.493286 -1.35287 0
M  V30 151 H 15.78 3.43663 -2.43872 0
M  V30 152 H 14.504 3.00799 -1.27231 0
M  V30 153 H 13.163 1.93377 -3.1145 0
M  V30 154 H 12.811 4.34206 -2.53917 0
M  V30 155 H 12.511 4.03804 -4.26868 0
M  V30 156 H 14.035 4.81561 -3.75408 0
M  V30 157 H 15.449 2.88654 -4.9533 0
M  V30 158 H 13.846 2.34044 -5.52579 0
M  V30 159 H 14.916 1.19327 -4.69988 0
M  V30 160 N 16.2591 1.48442 0.529413 0
M  V30 161 C 17.1891 1.65902 1.64313 0
M  V30 162 C 18.1701 0.507897 1.6234 0
M  V30 163 O 19.3551 0.740503 1.79528 0
M  V30 164 C 16.4851 1.69911 3.02898 0
M  V30 165 C 15.4391 2.8453 3.19729 0
M  V30 166 C 14.7651 2.73629 4.59381 0
M  V30 167 C 16.0651 4.25821 3.02447 0
M  V30 168 H 17.7591 2.5914 1.49955 0
M  V30 169 H 15.3051 1.24709 0.719982 0
M  V30 170 H 17.2581 1.80715 3.80684 0
M  V30 171 H 15.9821 0.732524 3.18279 0
M  V30 172 H 14.6411 2.73283 2.44361 0
M  V30 173 H 14.2891 1.74938 4.71599 0
M  V30 174 H 13.9891 3.50541 4.71588 0
M  V30 175 H 15.5131 2.86401 5.39265 0
M  V30 176 H 16.9271 4.37898 3.70024 0
M  V30 177 H 15.3241 5.03735 3.26146 0
M  V30 178 H 16.3941 4.42244 1.98867 0
M  V30 179 N 17.7372 -0.778329 1.37039 0
M  V30 180 C 18.6672 -1.90546 1.34962 0
M  V30 181 C 19.6482 -1.68681 0.219274 0
M  V30 182 O 20.8332 -1.89634 0.418624 0
M  V30 183 C 17.9632 -3.27734 1.14925 0
M  V30 184 C 16.9172 -3.64147 2.24902 0
M  V30 185 C 16.2432 -4.99806 1.89996 0
M  V30 186 C 17.5432 -3.71579 3.67051 0
M  V30 187 H 19.2372 -1.92541 2.29277 0
M  V30 188 H 16.7832 -0.924948 1.10366 0
M  V30 189 H 18.7362 -4.06215 1.12104 0
M  V30 190 H 17.4602 -3.26154 0.170631 0
M  V30 191 H 16.1192 -2.8797 2.26868 0
M  V30 192 H 15.7672 -4.94759 0.906796 0
M  V30 193 H 15.4672 -5.25139 2.63634 0
M  V30 194 H 16.9912 -5.80694 1.88749 0
M  V30 195 H 18.4052 -4.40227 3.67251 0
M  V30 196 H 16.8022 -4.08405 4.39688 0
M  V30 197 H 17.8722 -2.72404 4.01154 0
M  V30 198 N 19.2153 -1.21501 -1.00376 0
M  V30 199 C 20.1453 -0.999478 -2.11028 0
M  V30 200 C 21.1263 0.0759671 -1.6993 0
M  V30 201 O 22.3113 -0.0841106 -1.94018 0
M  V30 202 C 19.4413 -0.564709 -3.42678 0
M  V30 203 C 18.3953 -1.58486 -3.97576 0
M  V30 204 C 17.7213 -1.00628 -5.25146 0
M  V30 205 C 19.0213 -2.97204 -4.29496 0
M  V30 206 H 20.7153 -1.92495 -2.29317 0
M  V30 207 H 18.2613 -0.92693 -1.102 0
M  V30 208 H 20.2143 -0.401091 -4.19487 0
M  V30 209 H 18.9383 0.396411 -3.24185 0
M  V30 210 H 17.5973 -1.73606 -3.22888 0
M  V30 211 H 17.2453 -0.0368439 -5.02987 0
M  V30 212 H 16.9453 -1.68771 -5.62841 0
M  V30 213 H 18.4693 -0.854015 -6.04598 0
M  V30 214 H 19.8833 -2.8552 -4.97143 0
M  V30 215 H 18.2803 -3.62372 -4.78338 0
M  V30 216 H 19.3503 -3.47956 -3.3772 0
M  V30 217 N 20.6934 1.19889 -1.02296 0
M  V30 218 C 22.1044 1.71124 -0.746568 0
M  V30 219 C 22.4554 1.81939 0.734335 0
M  V30 220 O 21.5804 1.48639 1.57275 0
M  V30 221 C 22.1754 3.10804 -1.34857 0
M  V30 222 C 20.7344 3.59323 -1.1209 0
M  V30 223 C 19.8814 2.3635 -1.45031 0
M  V30 224 H 22.8324 1.04813 -1.19163 0
M  V30 225 H 22.8534 3.73186 -0.742437 0
M  V30 226 H 22.3654 3.029 -2.42638 0
M  V30 227 H 20.4664 3.7255 -0.0610337 0
M  V30 228 H 20.5794 4.4378 -1.80544 0
M  V30 229 H 18.9434 2.39399 -0.869487 0
M  V30 230 H 19.7264 2.31081 -2.53883 0
M  V30 231 N 22.1715 0.800033 1.35784 0
M  V30 232 C 23.1015 0.220184 2.3246 0
M  V30 233 C 24.0825 -0.65073 1.57161 0
M  V30 234 O 25.2675 -0.582359 1.85263 0
M  V30 235 C 22.3975 -0.637353 3.41402 0
M  V30 236 C 21.3515 0.134531 4.27789 0
M  V30 237 C 20.6775 -0.844285 5.27992 0
M  V30 238 C 21.9775 1.32979 5.05088 0
M  V30 239 H 23.6715 1.02787 2.81203 0
M  V30 240 H 21.2175 0.495717 1.35199 0
M  V30 241 H 23.1705 -1.05302 4.08031 0
M  V30 242 H 21.8945 -1.47785 2.91251 0
M  V30 243 H 20.5535 0.531296 3.6273 0
M  V30 244 H 20.2015 -1.68011 4.74111 0
M  V30 245 H 19.9015 -0.332184 5.8666 0
M  V30 246 H 21.4255 -1.2583 5.97494 0
M  V30 247 H 22.8395 0.98934 5.64699 0
M  V30 248 H 21.2365 1.77593 5.7322 0
M  V30 249 H 22.3065 2.11978 4.36111 0
M  V30 250 N 23.6496 -1.47581 0.552962 0
M  V30 251 C 24.5796 -2.32762 -0.185451 0
M  V30 252 C 25.5606 -1.43527 -0.912905 0
M  V30 253 O 26.7456 -1.72388 -0.894201 0
M  V30 254 C 23.8756 -3.25219 -1.21859 0
M  V30 255 C 22.8296 -4.23661 -0.607864 0
M  V30 256 C 22.1556 -5.05413 -1.74533 0
M  V30 257 C 23.4556 -5.20481 0.435582 0
M  V30 258 H 25.1496 -2.94749 0.525684 0
M  V30 259 H 22.6956 -1.41738 0.254251 0
M  V30 260 H 24.6486 -3.8365 -1.7433 0
M  V30 261 H 23.3726 -2.61279 -1.95961 0
M  V30 262 H 22.0316 -3.66451 -0.104489 0
M  V30 263 H 21.6796 -4.3788 -2.47529 0
M  V30 264 H 21.3796 -5.72059 -1.34249 0
M  V30 265 H 22.9036 -5.66701 -2.27338 0
M  V30 266 H 24.3176 -5.733 -0.00290157 0
M  V30 267 H 22.7146 -5.95305 0.757067 0
M  V30 268 H 23.7846 -4.66217 1.33303 0
M  V30 269 N 25.1277 -0.289203 -1.54924 0
M  V30 270 C 26.0577 0.58549 -2.2604 0
M  V30 271 C 27.0387 1.14753 -1.25562 0
M  V30 272 O 28.2237 1.17906 -1.54311 0
M  V30 273 C 25.3537 1.76305 -2.99222 0
M  V30 274 C 24.3077 1.33191 -4.06748 0
M  V30 275 C 23.6337 2.5937 -4.6758 0
M  V30 276 C 24.9337 0.471775 -5.20165 0
M  V30 277 H 26.6277 -0.00763532 -2.99399 0
M  V30 278 H 24.1737 -0.00511229 -1.43999 0
M  V30 279 H 26.1267 2.38097 -3.47689 0
M  V30 280 H 24.8507 2.38223 -2.23422 0
M  V30 281 H 23.5097 0.737121 -3.59113 0
M  V30 282 H 23.1577 3.19576 -3.88433 0
M  V30 283 H 22.8577 2.31228 -5.40192 0
M  V30 284 H 24.3817 3.21985 -5.18804 0
M  V30 285 H 25.7957 0.995056 -5.64599 0
M  V30 286 H 24.1927 0.284639 -5.99425 0
M  V30 287 H 25.2627 -0.506041 -4.82252 0
M  V30 288 N 26.6058 1.57591 -0.0167156 0
M  V30 289 C 28.0168 1.79201 0.523834 0
M  V30 290 C 28.3678 0.925796 1.72984 0
M  V30 291 O 27.4928 0.132792 2.15992 0
M  V30 292 C 28.0878 3.25 0.957091 0
M  V30 293 C 26.6468 3.47648 1.44283 0
M  V30 294 C 25.7938 2.74374 0.401757 0
M  V30 295 H 28.7448 1.56831 -0.242816 0
M  V30 296 H 28.7658 3.34031 1.82219 0
M  V30 297 H 28.2778 3.88019 0.0791415 0
M  V30 298 H 26.3788 2.89866 2.34113 0
M  V30 299 H 26.4918 4.56352 1.45877 0
M  V30 300 H 24.8558 2.39485 0.867121 0
M  V30 301 H 25.6388 3.40102 -0.467513 0
M  V30 302 N 28.0839 -0.256276 1.55502 0
M  V30 303 C 29.4949 -0.826068 1.67431 0
M  V30 304 C 29.8459 -1.86396 0.612446 0
M  V30 305 O 28.9709 -2.15031 -0.243025 0
M  V30 306 C 29.5659 -1.50512 3.03532 0
M  V30 307 C 28.1249 -2.02273 3.17431 0
M  V30 308 C 27.2719 -0.870548 2.63281 0
M  V30 309 H 30.2229 -0.0322728 1.58667 0
M  V30 310 H 30.2439 -2.37279 2.97454 0
M  V30 311 H 29.7559 -0.749484 3.80794 0
M  V30 312 H 27.8569 -2.80746 2.44974 0
M  V30 313 H 27.9699 -2.22655 4.24219 0
M  V30 314 H 26.3339 -1.26851 2.20864 0
M  V30 315 H 27.1169 -0.128149 3.43061 0
M  V30 316 N 29.562 -1.4872 -0.521534 0
M  V30 317 C 30.525 -1.63379 -1.60748 0
M  V30 318 C 31.525 -0.50661 -1.52611 0
M  V30 319 O 32.715 -0.772601 -1.5613 0
M  V30 320 C 29.847 -1.61192 -3.00383 0
M  V30 321 H 31.04 -2.60217 -1.49087 0
M  V30 322 H 28.593 -1.37444 -0.744235 0
M  V30 323 H 29.328 -0.65863 -3.17541 0
M  V30 324 H 29.113 -2.43032 -3.07698 0
M  V30 325 H 30.603 -1.7466 -3.7932 0
M  V30 326 N 31.0401 0.771051 -1.3745 0
M  V30 327 C 32.0031 1.86598 -1.33093 0
M  V30 328 C 33.0031 1.59076 -0.234845 0
M  V30 329 O 34.1931 1.67145 -0.490732 0
M  V30 330 C 31.3251 3.23747 -1.06773 0
M  V30 331 H 32.5181 1.91873 -2.30488 0
M  V30 332 H 30.0711 0.970876 -1.2249 0
M  V30 333 H 30.8061 3.24148 -0.099129 0
M  V30 334 H 30.5911 3.45115 -1.86112 0
M  V30 335 H 32.0811 4.03824 -1.06377 0
M  V30 336 N 32.5182 1.22032 0.997298 0
M  V30 337 C 33.7432 1.06921 1.77715 0
M  V30 338 C 34.1682 -0.376226 1.84299 0
M  V30 339 O 33.5262 -1.27165 1.29223 0
M  V30 340 C 33.5742 1.67996 3.19076 0
M  V30 341 O 32.6782 0.930653 4.01762 0
M  V30 342 H 32.0192 0.375814 0.547412 0
M  V30 343 H 34.5492 1.61737 1.25309 0
M  V30 344 H 34.5592 1.72538 3.69723 0
M  V30 345 H 33.2342 2.73182 3.13599 0
M  V30 346 H 31.8112 0.960917 3.60307 0
M  V30 347 N 33.9963 -1.19345 1.0293 0
M  V30 348 C 34.9593 -2.20793 0.615069 0
M  V30 349 C 35.9593 -1.57553 -0.321533 0
M  V30 350 O 37.1493 -1.73862 -0.108483 0
M  V30 351 C 34.2813 -3.40754 -0.0999222 0
M  V30 352 H 35.4743 -2.58955 1.51269 0
M  V30 353 H 33.0273 -1.3303 0.820534 0
M  V30 354 H 33.7623 -3.0811 -1.01187 0
M  V30 355 H 33.5473 -3.87889 0.57309 0
M  V30 356 H 35.0373 -4.15898 -0.376645 0
M  V30 357 N 35.4744 -0.807222 -1.35358 0
M  V30 358 C 36.6994 -0.399309 -2.0352 0
M  V30 359 C 37.1244 0.981986 -1.60433 0
M  V30 360 O 36.4824 1.63601 -0.781299 0
M  V30 361 C 36.5304 -0.491552 -3.57234 0
M  V30 362 O 35.6344 0.494754 -4.09421 0
M  V30 363 H 34.9754 -0.166682 -0.642739 0
M  V30 364 H 37.5054 -1.09328 -1.72941 0
M  V30 365 H 37.5154 -0.361588 -4.06395 0
M  V30 366 H 36.1904 -1.49907 -3.87944 0
M  V30 367 H 34.7674 0.324977 -3.71481 0
M  V30 368 N 36.9525 1.47285 -0.560781 0
M  V30 369 C 38.2295 1.9558 0.0277798 0
M  V30 370 C 38.6095 1.5034 1.48192 0
M  V30 371 O 37.9575 0.743882 2.16052 0
M  V30 372 C 38.1675 3.48789 -0.121418 0
M  V30 373 C 39.5155 4.24594 0.0220912 0
M  V30 374 O 40.5395 3.56166 -0.0491439 0
M  V30 375 O 39.3985 5.46217 0.175958 0
M  V30 376 H 36.4925 0.824663 0.0621342 0
M  V30 377 H 39.0385 1.5767 -0.627556 0
M  V30 378 H 37.8105 3.74533 -1.13316 0
M  V30 379 H 37.4335 3.93473 0.571366 0
M  V30 380 N 38.4306 0.297415 1.54768 0
M  V30 381 C 39.8466 -0.0560823 1.59501 0
M  V30 382 C 40.0466 -1.52725 1.31444 0
M  V30 383 O 39.1026 -2.27947 1.08611 0
M  V30 384 C 40.4156 0.338631 2.98787 0
M  V30 385 C 41.9636 0.287097 3.11681 0
M  V30 386 C 42.4386 0.656579 4.53269 0
M  V30 387 N 43.9296 0.608977 4.59179 0
M  V30 388 C 44.6646 0.867385 5.66802 0
M  V30 389 N 44.1606 1.19157 6.82476 0
M  V30 390 N 45.9536 0.794687 5.56454 0
M  V30 391 H 38.1046 1.25624 1.71267 0
M  V30 392 H 40.3676 0.509057 0.799728 0
M  V30 393 H 40.0736 1.36263 3.2423 0
M  V30 394 H 39.9476 -0.309508 3.75928 0
M  V30 395 H 42.3346 -0.727649 2.85988 0
M  V30 396 H 42.4156 0.969809 2.36703 0
M  V30 397 H 42.0596 1.66912 4.7969 0
M  V30 398 H 41.9896 -0.0481649 5.26578 0
M  V30 399 H 44.4806 0.369198 3.76092 0
M  V30 400 H 44.7936 1.37482 7.60473 0
M  V30 401 H 43.1386 1.22958 6.84037 0
M  V30 402 H 46.3296 0.541098 4.64962 0
M  V30 403 H 46.5026 0.999445 6.40246 0
M  V30 404 N 39.9087 -1.5758 0.0250728 0
M  V30 405 C 41.3197 -1.79476 -0.514323 0
M  V30 406 C 41.6707 -0.934956 -1.72491 0
M  V30 407 O 40.7957 -0.144245 -2.15919 0
M  V30 408 C 41.3907 -3.25503 -0.939842 0
M  V30 409 C 39.9497 -3.48408 -1.42438 0
M  V30 410 C 39.0967 -2.74583 -0.387201 0
M  V30 411 H 42.0477 -1.567 0.25113 0
M  V30 412 H 42.0687 -3.34992 -1.80445 0
M  V30 413 H 41.5807 -3.88056 -0.0585628 0
M  V30 414 H 39.6817 -2.91103 -2.32572 0
M  V30 415 H 39.7947 -4.57119 -1.43455 0
M  V30 416 H 38.1587 -2.39942 -0.854409 0
M  V30 417 H 38.9417 -3.39849 0.485543 0
M  V30 418 N 41.3868 0.248026 -1.55636 0
M  V30 419 C 42.8028 0.596483 -1.48035 0
M  V30 420 C 43.0028 1.88386 -0.715039 0
M  V30 421 O 42.0588 2.51319 -0.243944 0
M  V30 422 C 43.3718 0.700258 -2.92433 0
M  V30 423 C 44.9198 0.792659 -3.02797 0
M  V30 424 C 45.3948 0.928005 -4.485 0
M  V30 425 N 46.8858 0.992903 -4.52433 0
M  V30 426 C 47.6208 1.11687 -5.62418 0
M  V30 427 N 47.1168 1.20645 -6.82214 0
M  V30 428 N 48.9098 1.14994 -5.50212 0
M  V30 429 H 41.0608 -0.597109 -2.03834 0
M  V30 430 H 43.3238 -0.205925 -0.925364 0
M  V30 431 H 43.0298 -0.175658 -3.51261 0
M  V30 432 H 42.9038 1.57255 -3.42857 0
M  V30 433 H 45.2908 1.65903 -2.4405 0
M  V30 434 H 45.3718 -0.104762 -2.55585 0
M  V30 435 H 45.0158 0.0661971 -5.07857 0
M  V30 436 H 44.9458 1.84045 -4.93391 0
M  V30 437 H 47.4368 0.935064 -3.66149 0
M  V30 438 H 47.7498 1.30008 -7.61786 0
M  V30 439 H 46.0948 1.17605 -6.84977 0
M  V30 440 H 49.2858 1.07643 -4.55555 0
M  V30 441 H 49.4588 1.24311 -6.35965 0
M  V30 442 N 42.8649 1.48995 0.513639 0
M  V30 443 C 44.1129 1.57531 1.26604 0
M  V30 444 C 44.4339 0.258236 1.93283 0
M  V30 445 O 43.7039 -0.721502 1.8213 0
M  V30 446 H 42.2839 0.580387 0.470276 0
M  V30 447 H 44.9459 1.85552 0.596373 0
M  V30 448 H 44.0419 2.36486 2.03669 0
M  V30 449 N 44.343 -0.763751 1.37857 0
M  V30 450 C 45.759 -1.06542 1.18832 0
M  V30 451 C 45.959 -2.01478 0.0299722 0
M  V30 452 O 45.015 -2.4458 -0.627447 0
M  V30 453 C 46.328 -1.65525 2.51042 0
M  V30 454 C 47.876 -1.77745 2.57635 0
M  V30 455 C 48.351 -2.4014 3.89996 0
M  V30 456 N 49.842 -2.47582 3.91481 0
M  V30 457 C 50.577 -2.96732 4.9065 0
M  V30 458 N 50.073 -3.45993 6.00217 0
M  V30 459 N 51.866 -2.95679 4.78048 0
M  V30 460 H 44.017 -0.133556 2.1198 0
M  V30 461 H 46.28 -0.121879 0.940133 0
M  V30 462 H 45.986 -1.03236 3.36207 0
M  V30 463 H 45.86 -2.64719 2.68707 0
M  V30 464 H 48.247 -2.39164 1.72872 0
M  V30 465 H 48.328 -0.772836 2.43846 0
M  V30 466 H 47.972 -1.79358 4.75177 0
M  V30 467 H 47.902 -3.41223 4.01092 0
M  V30 468 H 50.393 -2.1273 3.12337 0
M  V30 469 H 50.706 -3.81922 6.7183 0
M  V30 470 H 49.051 -3.44077 6.03851 0
M  V30 471 H 52.242 -2.56499 3.91568 0
M  V30 472 H 52.415 -3.33672 5.55488 0
M  V30 473 N 45.8211 -1.22559 -0.990812 0
M  V30 474 C 47.0981 -0.959875 -1.70428 0
M  V30 475 C 47.4781 0.524455 -2.04481 0
M  V30 476 O 46.8261 1.49302 -1.72977 0
M  V30 477 C 47.0361 -1.85955 -2.95333 0
M  V30 478 C 48.3841 -2.11687 -3.68068 0
M  V30 479 O 49.4081 -1.8342 -3.05345 0
M  V30 480 O 48.2671 -2.59572 -4.80921 0
M  V30 481 H 45.3611 -0.361154 -0.743974 0
M  V30 482 H 47.9071 -1.33554 -1.04697 0
M  V30 483 H 46.6791 -2.86346 -2.66687 0
M  V30 484 H 46.3021 -1.4856 -3.68803 0
M  V30 485 N 47.2992 1.18797 -1.03562 0
M  V30 486 C 48.7102 1.70322 -0.764676 0
M  V30 487 C 49.0612 1.82708 0.714996 0
M  V30 488 O 48.1862 1.50299 1.55689 0
M  V30 489 C 48.7812 3.09356 -1.38145 0
M  V30 490 C 47.3402 3.58114 -1.15895 0
M  V30 491 C 46.4872 2.34798 -1.4753 0
M  V30 492 H 49.4382 1.03543 -1.20268 0
M  V30 493 H 49.4592 3.72378 -0.781977 0
M  V30 494 H 48.9712 3.00309 -2.45837 0
M  V30 495 H 47.0722 3.72464 -0.100544 0
M  V30 496 H 47.1852 4.4184 -1.8524 0
M  V30 497 H 45.5492 2.38464 -0.894829 0
M  V30 498 H 46.3322 2.28375 -2.56319 0
M  V30 499 N 48.7773 0.814389 1.34928 0
M  V30 500 C 50.0233 0.399013 1.98836 0
M  V30 501 C 50.3563 -1.03314 1.64438 0
M  V30 502 O 49.6313 -1.71811 0.911659 0
M  V30 503 C 49.9143 0.591629 3.55207 0
M  V30 504 C 49.7673 2.06928 3.99376 0
M  V30 505 C 51.0863 0.022199 4.40094 0
M  V30 506 H 48.2053 0.146451 0.722303 0
M  V30 507 H 50.8473 1.02537 1.59957 0
M  V30 508 H 48.9973 0.0584441 3.88456 0
M  V30 509 H 50.6693 2.66544 3.76499 0
M  V30 510 H 48.9123 2.56287 3.49999 0
M  V30 511 H 49.5833 2.1549 5.08201 0
M  V30 512 H 52.0593 0.477643 4.13349 0
M  V30 513 H 50.9353 0.186832 5.48582 0
M  V30 514 H 51.1963 -1.07215 4.28902 0
M  V30 515 N 50.2554 -1.46986 0.568584 0
M  V30 516 C 51.2034 -2.31858 -0.185649 0
M  V30 517 C 52.1974 -1.43624 -0.898249 0
M  V30 518 O 53.4034 -1.60327 -0.818242 0
M  V30 519 H 49.7784 -0.747866 -0.0787399 0
M  V30 520 H 51.7494 -2.93303 0.549191 0
M  V30 521 C 50.4984 -3.26513 -1.19519 0
M  V30 522 H 49.8214 -3.94377 -0.656285 0
M  V30 523 H 51.2614 -3.88707 -1.6936 0
M  V30 524 C 49.7204 -2.50847 -2.24894 0
M  V30 525 O 50.2504 -2.26119 -3.32014 0
M  V30 526 N 48.4564 -2.11656 -1.99124 0
M  V30 527 H 48.0034 -2.31966 -1.12024 0
M  V30 528 H 47.9614 -1.61347 -2.69842 0
M  V30 529 N 51.7335 -0.305618 -1.54608 0
M  V30 530 C 53.1445 0.186098 -1.8577 0
M  V30 531 C 53.4955 1.53058 -1.22751 0
M  V30 532 O 52.6205 2.09888 -0.526893 0
M  V30 533 C 53.2155 0.344449 -3.37044 0
M  V30 534 C 51.7745 0.780384 -3.68221 0
M  V30 535 C 50.9215 -0.108554 -2.77087 0
M  V30 536 H 53.8725 -0.526485 -1.49712 0
M  V30 537 H 53.8935 1.17828 -3.61796 0
M  V30 538 H 53.4055 -0.634235 -3.82883 0
M  V30 539 H 51.5065 1.76945 -3.27904 0
M  V30 540 H 51.6195 0.596572 -4.75371 0
M  V30 541 H 49.9835 0.412931 -2.5133 0
M  V30 542 H 50.7665 -1.08368 -3.25747 0
M  V30 543 N 53.2116 1.57565 -0.0334293 0
M  V30 544 C 54.1216 2.13943 0.962572 0
M  V30 545 C 55.1376 1.09276 1.35406 0
M  V30 546 O 56.3136 1.41355 1.4346 0
M  V30 547 C 53.3786 2.65887 2.22497 0
M  V30 548 C 52.4396 3.85286 1.8935 0
M  V30 549 C 51.6726 4.34743 3.09571 0
M  V30 550 O 51.8956 3.83352 4.22371 0
M  V30 551 O 50.8296 5.26538 2.91618 0
M  V30 552 H 54.6556 2.99333 0.513169 0
M  V30 553 H 52.2406 1.4822 0.18743 0
M  V30 554 H 54.1226 2.99346 2.96598 0
M  V30 555 H 52.7976 1.83578 2.6661 0
M  V30 556 H 51.7046 3.56746 1.1262 0
M  V30 557 H 53.0376 4.68771 1.5005 0
M  V30 558 N 54.6897 -0.239769 1.55765 0
M  V30 559 C 55.6367 -1.29696 1.90913 0
M  V30 560 C 56.6067 -1.47478 0.764164 0
M  V30 561 O 57.7917 -1.61345 1.01845 0
M  V30 562 C 54.9317 -2.64598 2.21544 0
M  V30 563 C 54.0447 -2.54765 3.48882 0
M  V30 564 C 53.1797 -3.82069 3.69049 0
M  V30 565 C 52.2187 -3.66883 4.89963 0
M  V30 566 N 51.3557 -4.86094 5.06614 0
M  V30 567 H 56.1957 -0.990224 2.81067 0
M  V30 568 H 53.7327 -0.477684 1.39128 0
M  V30 569 H 55.6907 -3.43132 2.3731 0
M  V30 570 H 54.3207 -2.93405 1.34585 0
M  V30 571 H 53.3727 -1.67763 3.41409 0
M  V30 572 H 54.6847 -2.39457 4.37563 0
M  V30 573 H 53.8387 -4.69046 3.84812 0
M  V30 574 H 52.5777 -4.00282 2.78614 0
M  V30 575 H 51.5827 -2.78289 4.74168 0
M  V30 576 H 52.8077 -3.50157 5.81865 0
M  V30 577 H 50.7537 -5.04655 4.19117 0
M  V30 578 H 50.6707 -4.73443 5.89396 0
M  V30 579 H 51.9387 -5.74549 5.26795 0
M  V30 580 N 56.1678 -1.49265 -0.50573 0
M  V30 581 C 57.0978 -1.68495 -1.61653 0
M  V30 582 C 58.0788 -0.53366 -1.61512 0
M  V30 583 O 59.2638 -0.76897 -1.78327 0
M  V30 584 C 56.3938 -1.74709 -3.00157 0
M  V30 585 C 55.3478 -2.89581 -3.15162 0
M  V30 586 C 54.6738 -2.80903 -4.5497 0
M  V30 587 C 55.9738 -4.30578 -2.95634 0
M  V30 588 H 57.6678 -2.61493 -1.45814 0
M  V30 589 H 55.2138 -1.25838 -0.70005 0
M  V30 590 H 57.1668 -1.86748 -3.77761 0
M  V30 591 H 55.8908 -0.783067 -3.17074 0
M  V30 592 H 54.5498 -2.77136 -2.39982 0
M  V30 593 H 54.1978 -1.82419 -4.68756 0
M  V30 594 H 53.8978 -3.57999 -4.65951 0
M  V30 595 H 55.4218 -2.94944 -5.34641 0
M  V30 596 H 56.8358 -4.4373 -3.63011 0
M  V30 597 H 55.2328 -5.0886 -3.18091 0
M  V30 598 H 56.3028 -4.45352 -1.91806 0
M  V30 599 N 57.6459 0.756429 -1.3826 0
M  V30 600 C 58.5759 1.88374 -1.37976 0
M  V30 601 C 59.5569 1.68311 -0.246082 0
M  V30 602 O 60.7419 1.88944 -0.44874 0
M  V30 603 C 57.8719 3.25864 -1.20125 0
M  V30 604 C 56.8259 3.60523 -2.30666 0
M  V30 605 C 56.1519 4.9672 -1.97923 0
M  V30 606 C 57.4519 3.65692 -3.72916 0
M  V30 607 H 59.1459 1.88869 -2.32312 0
M  V30 608 H 56.6919 0.907272 -1.11824 0
M  V30 609 H 58.6449 4.0438 -1.18552 0
M  V30 610 H 57.3689 3.25841 -0.222498 0
M  V30 611 H 56.0279 2.84324 -2.3142 0
M  V30 612 H 55.6759 4.93253 -0.985393 0
M  V30 613 H 55.3759 5.20878 -2.71955 0
M  V30 614 H 56.8999 5.77618 -1.97964 0
M  V30 615 H 58.3139 4.34328 -3.74208 0
M  V30 616 H 56.7109 4.01358 -4.4613 0
M  V30 617 H 57.7809 2.65987 -4.05436 0
M  V30 618 N 59.124 1.23083 0.984299 0
M  V30 619 C 60.37 1.06214 1.72761 0
M  V30 620 C 60.703 -0.400584 1.90024 0
M  V30 621 O 59.978 -1.29672 1.44967 0
M  V30 622 C 60.261 1.78375 3.12817 0
M  V30 623 C 60.114 3.32296 3.03149 0
M  V30 624 C 61.433 1.54309 4.12161 0
M  V30 625 H 58.552 0.387251 0.627061 0
M  V30 626 H 61.194 1.51536 1.14616 0
M  V30 627 H 59.344 1.39848 3.62457 0
M  V30 628 H 61.016 3.8032 2.61064 0
M  V30 629 H 59.259 3.6153 2.39747 0
M  V30 630 H 59.93 3.77972 4.02295 0
M  V30 631 H 62.406 1.87791 3.71314 0
M  V30 632 H 61.282 2.07281 5.08258 0
M  V30 633 H 61.543 0.477572 4.39513 0
M  V30 634 N 60.6021 -1.18246 1.0419 0
M  V30 635 C 61.8511 -1.87588 0.741194 0
M  V30 636 C 62.1641 -1.81303 -0.734066 0
M  V30 637 O 63.3701 -2.46019 -1.14834 0
M  V30 638 C 61.8261 -3.36538 1.27555 0
M  V30 639 C 61.4341 -3.51349 2.77953 0
M  V30 640 C 63.1781 -4.11273 1.05143 0
M  V30 641 C 61.0851 -4.94265 3.2474 0
M  V30 642 H 60.0151 -0.702622 0.273565 0
M  V30 643 H 62.6661 -1.33601 1.25789 0
M  V30 644 H 61.0481 -3.9 0.686703 0
M  V30 645 H 62.2221 -3.08153 3.42605 0
M  V30 646 H 60.5371 -2.90022 2.98791 0
M  V30 647 H 63.1341 -5.16689 1.37611 0
M  V30 648 H 63.4771 -4.16298 -0.0112774 0
M  V30 649 H 64.0101 -3.63987 1.60495 0
M  V30 650 H 60.7491 -4.94408 4.30396 0
M  V30 651 H 60.2691 -5.38172 2.64823 0
M  V30 652 H 61.9481 -5.62987 3.18834 0
M  V30 653 N 62.0802 -0.821533 -1.34494 0
M  V30 654 C 63.3082 -0.421884 -2.02553 0
M  V30 655 C 63.7232 0.971745 -1.61872 0
M  V30 656 O 63.0802 1.62864 -0.823496 0
M  V30 657 C 63.1312 -0.51285 -3.57844 0
M  V30 658 O 62.8522 -1.85155 -3.97051 0
M  V30 659 C 64.3532 -0.107921 -4.43169 0
M  V30 660 H 61.5732 -0.169482 -0.649243 0
M  V30 661 H 64.1172 -1.1093 -1.71798 0
M  V30 662 H 62.2722 0.126474 -3.87193 0
M  V30 663 H 62.6862 -1.82482 -4.91732 0
M  V30 664 H 64.1602 -0.222657 -5.51551 0
M  V30 665 H 64.6372 0.948401 -4.28838 0
M  V30 666 H 65.2432 -0.720989 -4.19144 0
M  V30 667 N 63.5583 1.46682 -0.576371 0
M  V30 668 C 64.8043 2.02712 -0.0596221 0
M  V30 669 C 65.1373 1.44765 1.29448 0
M  V30 670 O 64.4123 0.610355 1.84675 0
M  V30 671 C 64.6953 3.60098 0.0129503 0
M  V30 672 C 64.5483 4.28441 -1.3696 0
M  V30 673 C 65.8673 4.34224 0.71678 0
M  V30 674 H 62.9863 0.736637 -0.0231407 0
M  V30 675 H 65.6283 1.74898 -0.742351 0
M  V30 676 H 63.7783 3.83926 0.594378 0
M  V30 677 H 65.4503 4.15896 -1.9957 0
M  V30 678 H 63.6933 3.8805 -1.93907 0
M  V30 679 H 64.3643 5.3716 -1.27135 0
M  V30 680 H 66.8403 4.15503 0.222908 0
M  V30 681 H 65.7163 5.43936 0.73657 0
M  V30 682 H 65.9773 4.04823 1.77682 0
M  V30 683 N 65.0364 0.313813 1.54444 0
M  V30 684 C 65.9994 -0.54379 2.22656 0
M  V30 685 C 66.9994 -1.05124 1.21678 0
M  V30 686 O 68.1894 -0.945225 1.46325 0
M  V30 687 C 65.3214 -1.75427 2.92298 0
M  V30 688 H 66.5144 0.0523599 2.99854 0
M  V30 689 H 64.0674 0.0647834 1.56166 0
M  V30 690 H 64.8024 -2.38991 2.19211 0
M  V30 691 H 64.5874 -1.39791 3.66334 0
M  V30 692 H 66.0774 -2.36325 3.44297 0
M  V30 693 N 66.5145 -1.57545 0.0417849 0
M  V30 694 C 67.7425 -1.96624 -0.643928 0
M  V30 695 C 68.1575 -0.918897 -1.64929 0
M  V30 696 O 67.5145 0.0979323 -1.82237 0
M  V30 697 C 67.5655 -3.35781 -1.33914 0
M  V30 698 O 67.2865 -4.365 -0.374048 0
M  V30 699 C 68.7875 -3.89566 -2.1155 0
M  V30 700 H 66.0075 -0.647316 -0.176702 0
M  V30 701 H 68.5515 -2.04229 0.105304 0
M  V30 702 H 66.7065 -3.29357 -2.03968 0
M  V30 703 H 67.1205 -5.17248 -0.869179 0
M  V30 704 H 68.5945 -4.89242 -2.55628 0
M  V30 705 H 69.0715 -3.24488 -2.9598 0
M  V30 706 H 69.6775 -3.99298 -1.46427 0
M  V30 707 N 67.9926 0.231505 -1.5589 0
M  V30 708 C 68.9556 1.27028 -1.90779 0
M  V30 709 C 69.9556 1.40308 -0.785507 0
M  V30 710 O 71.1456 1.38744 -1.05336 0
M  V30 711 C 68.2776 2.64566 -2.14983 0
M  V30 712 H 69.4706 0.973017 -2.83677 0
M  V30 713 H 67.0236 0.471486 -1.49019 0
M  V30 714 H 67.7586 2.99406 -1.24604 0
M  V30 715 H 67.5436 2.56305 -2.96732 0
M  V30 716 H 69.0336 3.39543 -2.43105 0
M  V30 717 N 69.4707 1.49531 0.497807 0
M  V30 718 C 70.3807 1.69176 1.62532 0
M  V30 719 C 71.3967 0.5744 1.64246 0
M  V30 720 O 72.5727 0.849497 1.82608 0
M  V30 721 C 69.6377 1.75695 2.98885 0
M  V30 722 C 68.6987 2.9929 3.07773 0
M  V30 723 C 67.9317 3.05488 4.37622 0
M  V30 724 O 68.1547 2.19192 5.26603 0
M  V30 725 O 67.0887 3.9798 4.51548 0
M  V30 726 H 70.9147 2.647 1.48887 0
M  V30 727 H 68.4997 1.3331 0.674441 0
M  V30 728 H 70.3817 1.82317 3.79919 0
M  V30 729 H 69.0567 0.8335 3.12785 0
M  V30 730 H 67.9637 2.98183 2.25915 0
M  V30 731 H 69.2967 3.91125 2.98801 0
M  V30 732 N 70.9488 -0.749086 1.3866 0
M  V30 733 C 72.1768 -1.53834 1.38358 0
M  V30 734 C 72.5918 -1.88783 -0.0255219 0
M  V30 735 O 71.9488 -1.53101 -0.993292 0
M  V30 736 C 71.9998 -2.83468 2.2434 0
M  V30 737 O 71.7208 -2.50008 3.5976 0
M  V30 738 C 73.2218 -3.7758 2.32267 0
M  V30 739 H 70.4418 -0.47585 0.473083 0
M  V30 740 H 72.9858 -0.926726 1.82297 0
M  V30 741 H 71.1408 -3.40995 1.83851 0
M  V30 742 H 71.5548 -3.33182 4.05081 0
M  V30 743 H 73.0288 -4.65478 2.96706 0
M  V30 744 H 73.5058 -4.18334 1.33765 0
M  V30 745 H 74.1118 -3.25976 2.73166 0
M  V30 746 N 72.4269 -1.23603 -0.977757 0
M  V30 747 C 73.3369 -1.03632 -2.1047 0
M  V30 748 C 74.3529 0.0199435 -1.73989 0
M  V30 749 O 75.5289 -0.176076 -2.00629 0
M  V30 750 C 72.5939 -0.63276 -3.40877 0
M  V30 751 C 71.6549 -1.76437 -3.91367 0
M  V30 752 C 70.8879 -1.37997 -5.15551 0
M  V30 753 O 71.1109 -0.265357 -5.69782 0
M  V30 754 O 70.0449 -2.20201 -5.60174 0
M  V30 755 H 73.8709 -1.98086 -2.30208 0
M  V30 756 H 71.4559 -1.02332 -1.08851 0
M  V30 757 H 73.3379 -0.418761 -4.19314 0
M  V30 758 H 72.0129 0.282754 -3.22463 0
M  V30 759 H 70.9199 -2.03304 -3.14036 0
M  V30 760 H 72.2529 -2.6583 -4.14241 0
M  V30 761 N 73.905 1.17692 -1.04816 0
M  V30 762 C 75.153 1.87488 -0.754497 0
M  V30 763 C 75.474 1.81205 0.720407 0
M  V30 764 O 74.744 1.23544 1.52032 0
M  V30 765 H 73.324 0.694101 -0.276102 0
M  V30 766 H 75.986 1.42793 -1.32651 0
M  V30 767 H 75.082 2.93328 -1.06606 0
M  V30 768 N 75.3831 0.828654 1.34056 0
M  V30 769 C 76.6131 0.431993 2.02033 0
M  V30 770 C 77.0211 -0.96844 1.62536 0
M  V30 771 O 76.3641 -1.6391 0.829408 0
M  V30 772 C 76.4261 0.461224 3.56529 0
M  V30 773 C 76.0901 1.81599 4.1937 0
M  V30 774 C 77.0871 2.7777 4.39477 0
M  V30 775 C 74.7721 2.10604 4.56017 0
M  V30 776 C 76.7661 4.01115 4.95364 0
M  V30 777 C 74.4531 3.34207 5.11614 0
M  V30 778 C 75.4511 4.2928 5.31232 0
M  V30 779 O 75.1391 5.50699 5.8565 0
M  V30 780 H 74.8711 0.170943 0.654029 0
M  V30 781 H 77.4251 1.11988 1.72185 0
M  V30 782 H 75.6551 -0.283388 3.8566 0
M  V30 783 H 77.3441 0.0838149 4.05813 0
M  V30 784 H 78.1101 2.56659 4.11523 0
M  V30 785 H 73.9891 1.37402 4.40047 0
M  V30 786 H 77.5331 4.75333 5.10592 0
M  V30 787 H 73.4301 3.55179 5.38997 0
M  V30 788 H 74.1981 5.52298 6.04077 0
M  V30 789 N 76.8612 -1.46375 0.584142 0
M  V30 790 C 77.7912 -2.33103 -0.136037 0
M  V30 791 C 78.7722 -1.45431 -0.882255 0
M  V30 792 O 79.9572 -1.74246 -0.857434 0
M  V30 793 C 77.0872 -3.27731 -1.14933 0
M  V30 794 C 76.0412 -4.24855 -0.517862 0
M  V30 795 C 75.3672 -5.09001 -1.63773 0
M  V30 796 C 76.6672 -5.19439 0.545886 0
M  V30 797 H 78.3612 -2.93568 0.588086 0
M  V30 798 H 75.9072 -1.41166 0.284259 0
M  V30 799 H 77.8602 -3.87261 -1.66153 0
M  V30 800 H 76.5842 -2.65377 -1.90375 0
M  V30 801 H 75.2432 -3.6659 -0.0267361 0
M  V30 802 H 74.8912 -4.43031 -2.38185 0
M  V30 803 H 74.5912 -5.74777 -1.22085 0
M  V30 804 H 76.1152 -5.71396 -2.15266 0
M  V30 805 H 77.5292 -5.73177 0.118704 0
M  V30 806 H 75.9262 -5.93566 0.88317 0
M  V30 807 H 76.9962 -4.63285 1.43162 0
M  V30 808 N 78.3393 -0.321999 -1.54275 0
M  V30 809 C 79.7553 0.0306999 -1.5957 0
M  V30 810 C 79.9553 1.50614 -1.33857 0
M  V30 811 O 79.0113 2.2619 -1.12223 0
M  V30 812 C 80.3243 -0.386122 -2.98211 0
M  V30 813 C 81.8723 -0.336647 -3.11184 0
M  V30 814 C 82.3473 -0.728607 -4.52167 0
M  V30 815 N 83.8383 -0.681952 -4.58152 0
M  V30 816 C 84.5733 -0.957449 -5.6535 0
M  V30 817 N 84.0693 -1.3 -6.80494 0
M  V30 818 N 85.8623 -0.883113 -5.55119 0
M  V30 819 H 78.0133 -1.28332 -1.69247 0
M  V30 820 H 80.2763 -0.521716 -0.791528 0
M  V30 821 H 79.9823 -1.41404 -3.22022 0
M  V30 822 H 79.8563 0.249662 -3.76373 0
M  V30 823 H 82.2433 0.682058 -2.8711 0
M  V30 824 H 82.3243 -1.00734 -2.3513 0
M  V30 825 H 81.9683 -1.74522 -4.76974 0
M  V30 826 H 81.8983 -0.0356152 -5.26588 0
M  V30 827 H 84.3893 -0.428985 -3.75457 0
M  V30 828 H 84.7023 -1.49563 -7.58189 0
M  V30 829 H 83.0473 -1.33824 -6.81994 0
M  V30 830 H 86.2383 -0.615001 -4.64042 0
M  V30 831 H 86.4113 -1.10118 -6.38575 0
M  V30 832 N 79.8174 1.5752 -0.0501392 0
M  V30 833 C 81.0644 1.9265 0.623874 0
M  V30 834 C 81.3924 0.928411 1.70912 0
M  V30 835 O 80.6474 -0.0594525 1.9561 0
M  V30 836 C 80.9464 3.34467 1.25963 0
M  V30 837 C 80.6124 4.49883 0.302689 0
M  V30 838 C 79.2744 4.81184 0.0393636 0
M  V30 839 C 81.6264 5.20002 -0.353205 0
M  V30 840 C 78.9544 5.79951 -0.887308 0
M  V30 841 C 81.3064 6.1976 -1.26806 0
M  V30 842 C 79.9704 6.49491 -1.54007 0
M  V30 843 H 79.2404 0.704957 0.228292 0
M  V30 844 H 81.8874 1.91146 -0.116398 0
M  V30 845 H 80.1924 3.32333 2.07514 0
M  V30 846 H 81.8894 3.58928 1.78806 0
M  V30 847 H 78.4794 4.25457 0.518109 0
M  V30 848 H 82.6634 4.96033 -0.162854 0
M  V30 849 H 77.9194 6.01322 -1.10553 0
M  V30 850 H 82.0934 6.73205 -1.78236 0
M  V30 851 H 79.7204 7.25837 -2.25976 0
M  V30 852 N 81.2955 -0.223234 1.56011 0
M  V30 853 C 82.2255 -1.27988 1.95298 0
M  V30 854 C 83.2065 -1.48976 0.820979 0
M  V30 855 O 84.3915 -1.61188 1.08315 0
M  V30 856 C 81.5215 -2.63 2.26822 0
M  V30 857 C 80.4755 -2.56671 3.42497 0
M  V30 858 C 79.8015 -3.95697 3.59622 0
M  V30 859 C 81.1015 -2.11601 4.77517 0
M  V30 860 H 82.7955 -0.953525 2.8381 0
M  V30 861 H 80.3415 -0.457244 1.36548 0
M  V30 862 H 82.2945 -3.37077 2.52898 0
M  V30 863 H 81.0185 -2.9732 1.35161 0
M  V30 864 H 79.6775 -1.85051 3.16467 0
M  V30 865 H 79.3255 -4.27322 2.6534 0
M  V30 866 H 79.0255 -3.92345 4.37424 0
M  V30 867 H 80.5495 -4.71438 3.88044 0
M  V30 868 H 81.9635 -2.7542 5.02809 0
M  V30 869 H 80.3605 -2.19311 5.5859 0
M  V30 870 H 81.4305 -1.06824 4.72987 0
M  V30 871 N 82.7736 -1.49793 -0.48987 0
M  V30 872 C 84.1896 -1.36803 -0.822022 0
M  V30 873 C 84.3896 -0.409652 -1.97292 0
M  V30 874 O 83.4456 0.154614 -2.52026 0
M  V30 875 C 84.7586 -2.77768 -1.15175 0
M  V30 876 C 86.3066 -2.86549 -1.25931 0
M  V30 877 C 86.7816 -4.28306 -1.62228 0
M  V30 878 N 88.2726 -4.31169 -1.69256 0
M  V30 879 C 89.0076 -5.37832 -1.98807 0
M  V30 880 N 88.5036 -6.54726 -2.26507 0
M  V30 881 N 90.2966 -5.25258 -2.00152 0
M  V30 882 H 82.4476 -2.10691 0.268881 0
M  V30 883 H 84.7106 -0.946241 0.057728 0
M  V30 884 H 84.4166 -3.49648 -0.379335 0
M  V30 885 H 84.2906 -3.13836 -2.09253 0
M  V30 886 H 86.6776 -2.14899 -2.02243 0
M  V30 887 H 86.7586 -2.54049 -0.298776 0
M  V30 888 H 86.4026 -5.00486 -0.864622 0
M  V30 889 H 86.3326 -4.58279 -2.594 0
M  V30 890 H 88.8236 -3.4687 -1.49965 0
M  V30 891 H 89.1366 -7.31833 -2.48276 0
M  V30 892 H 87.4816 -6.57933 -2.23939 0
M  V30 893 H 90.6726 -4.32938 -1.77996 0
M  V30 894 H 90.8456 -6.08476 -2.22848 0
M  V30 895 N 84.2517 0.741722 -1.39055 0
M  V30 896 C 85.4767 1.53607 -1.39354 0
M  V30 897 C 85.9017 1.88096 0.0116905 0
M  V30 898 O 85.2597 1.5143 0.996924 0
M  V30 899 C 85.3077 2.80441 -2.26682 0
M  V30 900 O 84.4117 3.76088 -1.69208 0
M  V30 901 H 83.7527 0.464142 -0.474835 0
M  V30 902 H 86.2827 0.915665 -1.82967 0
M  V30 903 H 86.2927 3.29246 -2.40959 0
M  V30 904 H 84.9677 2.5467 -3.2881 0
M  V30 905 H 83.5447 3.34833 -1.64138 0
M  V30 906 N 85.7298 1.2412 0.971189 0
M  V30 907 C 86.6928 1.03156 2.04674 0
M  V30 908 C 87.6928 -0.00990322 1.60797 0
M  V30 909 O 88.8828 0.230729 1.72665 0
M  V30 910 C 86.0148 0.562765 3.36223 0
M  V30 911 H 87.2078 1.98614 2.24705 0
M  V30 912 H 84.7608 1.06293 1.14593 0
M  V30 913 H 85.4958 -0.395176 3.21883 0
M  V30 914 H 85.2808 1.31441 3.69413 0
M  V30 915 H 86.7708 0.437015 4.15307 0
M  V30 916 N 87.2079 -1.17134 1.05439 0
M  V30 917 C 88.1179 -2.24878 0.668365 0
M  V30 918 C 89.1339 -1.71186 -0.311687 0
M  V30 919 O 90.3099 -2.00738 -0.163161 0
M  V30 920 C 87.3749 -3.46662 0.051648 0
M  V30 921 C 86.4359 -4.15429 1.08246 0
M  V30 922 C 85.6689 -5.31399 0.495082 0
M  V30 923 O 85.8919 -5.66153 -0.694743 0
M  V30 924 O 84.8259 -5.89187 1.23056 0
M  V30 925 H 88.6519 -2.60189 1.56637 0
M  V30 926 H 86.2369 -1.24482 0.826104 0
M  V30 927 H 88.1189 -4.20394 -0.290966 0
M  V30 928 H 86.7939 -3.13142 -0.819971 0
M  V30 929 H 85.7009 -3.43704 1.47711 0
M  V30 930 H 87.0339 -4.52982 1.92532 0
M  V30 931 N 88.686 -0.835752 -1.33615 0
M  V30 932 C 89.933 -0.429959 -1.97883 0
M  V30 933 C 90.261 1.01006 -1.66217 0
M  V30 934 O 89.516 1.72047 -0.93265 0
M  V30 935 C 89.815 -0.593925 -3.52431 0
M  V30 936 C 89.481 -2.00158 -4.04039 0
M  V30 937 C 88.143 -2.38662 -4.17844 0
M  V30 938 C 90.495 -2.92117 -4.31644 0
M  V30 939 C 87.823 -3.68435 -4.56588 0
M  V30 940 C 90.175 -4.21368 -4.71838 0
M  V30 941 C 88.839 -4.59833 -4.83849 0
M  V30 942 H 88.109 -0.157333 -0.724104 0
M  V30 943 H 90.756 -1.06217 -1.59343 0
M  V30 944 H 89.061 0.121619 -3.91611 0
M  V30 945 H 90.758 -0.260282 -4.00154 0
M  V30 946 H 87.348 -1.69252 -3.93766 0
M  V30 947 H 91.532 -2.63608 -4.20505 0
M  V30 948 H 86.788 -3.98046 -4.64079 0
M  V30 949 H 90.962 -4.92703 -4.92155 0
M  V30 950 H 88.589 -5.60438 -5.13627 0
M  V30 951 N 90.1641 1.46063 -0.591896 0
M  V30 952 C 91.4111 2.02338 -0.0809991 0
M  V30 953 C 91.7391 1.46228 1.28249 0
M  V30 954 O 90.9941 0.620818 1.85592 0
M  V30 955 C 91.2931 3.57391 0.0249813 0
M  V30 956 C 90.9591 4.32583 -1.27211 0
M  V30 957 C 89.6211 4.52844 -1.62745 0
M  V30 958 C 91.9731 4.75687 -2.13005 0
M  V30 959 C 89.3011 5.13462 -2.83855 0
M  V30 960 C 91.6531 5.37644 -3.3335 0
M  V30 961 C 90.3171 5.5613 -3.69155 0
M  V30 962 H 89.5871 0.740407 -0.0296397 0
M  V30 963 H 92.2341 1.75321 -0.770374 0
M  V30 964 H 90.5391 3.83597 0.797537 0
M  V30 965 H 92.2361 3.98621 0.436184 0
M  V30 966 H 88.8261 4.17116 -0.985499 0
M  V30 967 H 93.0101 4.59782 -1.86855 0
M  V30 968 H 88.2661 5.25965 -3.11722 0
M  V30 969 H 92.4401 5.7 -4.00092 0
M  V30 970 H 90.0671 6.0287 -4.63089 0
M  V30 971 N 91.6422 0.330177 1.54103 0
M  V30 972 C 92.5902 -0.548226 2.26047 0
M  V30 973 C 93.5842 -1.11309 1.27698 0
M  V30 974 O 94.7902 -1.06036 1.45452 0
M  V30 975 H 91.1652 -0.195456 0.726155 0
M  V30 976 H 93.1362 0.0807567 2.98291 0
M  V30 977 C 91.8852 -1.69415 3.03634 0
M  V30 978 H 91.2082 -1.26876 3.79134 0
M  V30 979 H 92.6482 -2.28423 3.5721 0
M  V30 980 C 91.1072 -2.61569 2.12328 0
M  V30 981 O 91.6372 -3.63462 1.7105 0
M  V30 982 N 89.8432 -2.29952 1.77681 0
M  V30 983 H 89.3902 -1.47134 2.11446 0
M  V30 984 H 89.3482 -2.91871 1.16869 0
M  V30 985 N 93.1203 -1.57491 0.0584922 0
M  V30 986 C 94.3503 -1.9701 -0.622134 0
M  V30 987 C 94.7583 -0.935034 -1.6448 0
M  V30 988 O 94.1013 0.0882904 -1.83488 0
M  V30 989 C 94.1633 -3.32794 -1.35972 0
M  V30 990 C 93.8273 -4.54343 -0.492043 0
M  V30 991 C 94.8243 -5.19323 0.244901 0
M  V30 992 C 92.5093 -5.00534 -0.420821 0
M  V30 993 C 94.5033 -6.28835 1.04143 0
M  V30 994 C 92.1903 -6.09921 0.379389 0
M  V30 995 C 93.1883 -6.73933 1.10919 0
M  V30 996 O 92.8763 -7.81216 1.89623 0
M  V30 997 H 92.6083 -0.653127 -0.174359 0
M  V30 998 H 95.1623 -2.05029 0.123418 0
M  V30 999 H 93.3923 -3.21351 -2.15105 0
M  V30 1000 H 95.0813 -3.5701 -1.93129 0
M  V30 1001 H 95.8473 -4.8459 0.19939 0
M  V30 1002 H 91.7263 -4.50496 -0.978474 0
M  V30 1003 H 95.2703 -6.7873 1.61157 0
M  V30 1004 H 91.1673 -6.44089 0.426512 0
M  V30 1005 H 91.9353 -7.98029 1.81913 0
M  V30 1006 N 94.5984 0.214957 -1.56127 0
M  V30 1007 C 95.8264 0.955092 -1.83536 0
M  V30 1008 C 96.2414 1.77677 -0.638472 0
M  V30 1009 O 95.5984 1.78219 0.392968 0
M  V30 1010 C 95.6494 1.86734 -3.09536 0
M  V30 1011 O 95.3704 1.07887 -4.24608 0
M  V30 1012 C 96.8714 2.72082 -3.4998 0
M  V30 1013 H 94.0914 0.279611 -0.609966 0
M  V30 1014 H 96.6354 0.228197 -2.03223 0
M  V30 1015 H 94.7904 2.5481 -2.91806 0
M  V30 1016 H 95.2044 1.69872 -4.9623 0
M  V30 1017 H 96.6784 3.31782 -4.41163 0
M  V30 1018 H 97.1554 3.44806 -2.7204 0
M  V30 1019 H 97.7614 2.09409 -3.70173 0
M  V30 1020 N 96.0765 1.50051 0.48192 0
M  V30 1021 C 97.3225 1.60736 1.2366 0
M  V30 1022 C 97.6555 0.301786 1.91841 0
M  V30 1023 O 96.9305 -0.696025 1.8162 0
M  V30 1024 C 97.2135 2.78009 2.28874 0
M  V30 1025 C 97.0665 4.18416 1.65069 0
M  V30 1026 C 98.3855 2.90867 3.30279 0
M  V30 1027 H 95.5045 0.585031 0.448228 0
M  V30 1028 H 98.1465 1.82402 0.531946 0
M  V30 1029 H 96.2965 2.59667 2.88973 0
M  V30 1030 H 97.9685 4.48322 1.0865 0
M  V30 1031 H 96.2115 4.23177 0.954148 0
M  V30 1032 H 96.8825 4.96381 2.41474 0
M  V30 1033 H 99.3585 3.07623 2.80191 0
M  V30 1034 H 98.2345 3.74566 4.01238 0
M  V30 1035 H 98.4955 2.01021 3.93755 0
M  V30 1036 N 97.5546 -0.734337 1.39446 0
M  V30 1037 C 98.9706 -1.03997 1.21065 0
M  V30 1038 C 99.1706 -2.01369 0.0727019 0
M  V30 1039 O 98.2266 -2.45856 -0.575426 0
M  V30 1040 C 99.5396 -1.60163 2.54496 0
M  V30 1041 C 101.088 -1.7224 2.61347 0
M  V30 1042 C 101.563 -2.31814 3.95002 0
M  V30 1043 N 103.054 -2.39223 3.96644 0
M  V30 1044 C 103.789 -2.86258 4.96834 0
M  V30 1045 N 103.285 -3.33184 6.07421 0
M  V30 1046 N 105.078 -2.85473 4.84213 0
M  V30 1047 H 97.2286 -0.0885624 2.12215 0
M  V30 1048 H 99.4916 -0.10191 0.942506 0
M  V30 1049 H 99.1976 -0.960811 3.38321 0
M  V30 1050 H 99.0716 -2.5896 2.74262 0
M  V30 1051 H 101.459 -2.35443 1.77906 0
M  V30 1052 H 101.54 -0.720939 2.4543 0
M  V30 1053 H 101.184 -1.69238 4.78875 0
M  V30 1054 H 101.114 -3.32638 4.08239 0
M  V30 1055 H 103.605 -2.06057 3.16779 0
M  V30 1056 H 103.918 -3.67586 6.7978 0
M  V30 1057 H 102.263 -3.31191 6.11013 0
M  V30 1058 H 105.454 -2.48136 3.96921 0
M  V30 1059 H 105.627 -3.21814 5.62441 0
M  V30 1060 N 99.0327 -1.24633 -0.964593 0
M  V30 1061 C 100.261 -1.11501 -1.74285 0
M  V30 1062 C 100.676 0.332165 -1.85855 0
M  V30 1063 O 100.033 1.22903 -1.34911 0
M  V30 1064 C 100.084 -1.75258 -3.16175 0
M  V30 1065 O 99.8047 -3.14318 -3.05182 0
M  V30 1066 C 101.306 -1.67776 -4.10324 0
M  V30 1067 H 98.5257 -0.389407 -0.546446 0
M  V30 1068 H 101.07 -1.64801 -1.21083 0
M  V30 1069 H 99.2247 -1.25954 -3.66353 0
M  V30 1070 H 99.6387 -3.4551 -3.94618 0
M  V30 1071 H 101.113 -2.17064 -5.0753 0
M  V30 1072 H 101.59 -0.639584 -4.34518 0
M  V30 1073 H 102.196 -2.16522 -3.66058 0
M  V30 1074 N 100.511 1.16574 -1.06058 0
M  V30 1075 C 101.441 2.23057 -0.690488 0
M  V30 1076 C 102.422 1.67141 0.315901 0
M  V30 1077 O 103.607 1.93253 0.191556 0
M  V30 1078 C 100.737 3.47222 -0.073625 0
M  V30 1079 C 99.6908 4.16016 -1.00573 0
M  V30 1080 C 99.0168 5.34104 -0.252289 0
M  V30 1081 C 100.317 4.67264 -2.33371 0
M  V30 1082 H 102.011 2.54271 -1.58072 0
M  V30 1083 H 99.5568 1.22218 -0.76149 0
M  V30 1084 H 101.51 4.20939 0.19714 0
M  V30 1085 H 100.234 3.15302 0.85161 0
M  V30 1086 H 98.8928 3.44223 -1.2612 0
M  V30 1087 H 98.5408 4.98437 0.675988 0
M  V30 1088 H 98.2408 5.81072 -0.873455 0
M  V30 1089 H 99.7648 6.10599 0.0109857 0
M  V30 1090 H 101.179 5.32573 -2.12223 0
M  V30 1091 H 99.5758 5.24843 -2.90963 0
M  V30 1092 H 100.646 3.83602 -2.96611 0
M  V30 1093 N 101.989 0.842826 1.3317 0
M  V30 1094 C 103.237 0.439577 1.97262 0
M  V30 1095 C 103.558 -1.00548 1.67078 0
M  V30 1096 O 102.828 -1.70098 0.971779 0
M  V30 1097 H 101.408 0.159558 0.72976 0
M  V30 1098 H 104.07 1.07665 1.62463 0
M  V30 1099 H 103.166 0.574886 3.0676 0
M  V30 1100 N 103.467 -1.45747 0.599634 0
M  V30 1101 C 104.397 -2.33235 -0.111306 0
M  V30 1102 C 105.378 -1.46359 -0.866781 0
M  V30 1103 O 106.563 -1.75146 -0.838904 0
M  V30 1104 C 103.693 -3.28932 -1.11451 0
M  V30 1105 C 102.647 -4.25381 -0.472772 0
M  V30 1106 C 101.973 -5.1071 -1.58365 0
M  V30 1107 C 103.273 -5.18831 0.600948 0
M  V30 1108 H 104.967 -2.92927 0.61919 0
M  V30 1109 H 102.513 -1.40857 0.299215 0
M  V30 1110 H 104.466 -3.89002 -1.62036 0
M  V30 1111 H 103.19 -2.67381 -1.8755 0
M  V30 1112 H 101.849 -3.66598 0.0121472 0
M  V30 1113 H 101.497 -4.45533 -2.33473 0
M  V30 1114 H 101.197 -5.7604 -1.15982 0
M  V30 1115 H 102.721 -5.73647 -2.09194 0
M  V30 1116 H 104.135 -5.73019 0.179491 0
M  V30 1117 H 102.532 -5.92595 0.946076 0
M  V30 1118 H 103.602 -4.6174 1.48068 0
M  V30 1119 N 104.945 -0.338344 -1.53925 0
M  V30 1120 C 106.193 0.259245 -2.0043 0
M  V30 1121 C 106.514 1.51484 -1.22791 0
M  V30 1122 O 105.784 1.93037 -0.33368 0
M  V30 1123 H 104.364 0.0987845 -0.740439 0
M  V30 1124 H 107.026 -0.458302 -1.89435 0
M  V30 1125 H 106.122 0.505334 -3.07982 0
M  V30 1126 N 106.423 1.57458 -0.0668435 0
M  V30 1127 C 107.333 2.15937 0.916975 0
M  V30 1128 C 108.349 1.12123 1.33058 0
M  V30 1129 O 109.525 1.44366 1.40429 0
M  V30 1130 C 106.59 2.70547 2.16807 0
M  V30 1131 C 105.651 3.89215 1.81135 0
M  V30 1132 C 104.884 4.41211 3.0028 0
M  V30 1133 O 105.107 3.92225 4.14144 0
M  V30 1134 O 104.041 5.32605 2.80384 0
M  V30 1135 H 107.867 3.00354 0.449561 0
M  V30 1136 H 105.452 1.48584 0.155949 0
M  V30 1137 H 107.334 3.0557 2.90181 0
M  V30 1138 H 106.009 1.89192 2.62656 0
M  V30 1139 H 104.916 3.59054 1.05028 0
M  V30 1140 H 106.249 4.71848 1.40073 0
M  V30 1141 N 107.901 -0.206675 1.56239 0
M  V30 1142 C 108.811 -1.27686 1.96808 0
M  V30 1143 C 109.827 -1.50455 0.874035 0
M  V30 1144 O 111.003 -1.63295 1.17884 0
M  V30 1145 C 108.068 -2.60358 2.28942 0
M  V30 1146 C 107.129 -2.45762 3.51994 0
M  V30 1147 C 106.362 -3.72108 3.82585 0
M  V30 1148 O 106.585 -4.75776 3.14631 0
M  V30 1149 O 105.519 -3.6833 4.76043 0
M  V30 1150 H 109.345 -0.962593 2.88041 0
M  V30 1151 H 106.93 -0.410746 1.43643 0
M  V30 1152 H 108.812 -3.38687 2.50737 0
M  V30 1153 H 107.487 -2.91435 1.4088 0
M  V30 1154 H 106.394 -1.65584 3.35459 0
M  V30 1155 H 107.727 -2.19621 4.40486 0
M  V30 1156 N 109.379 -1.50304 -0.473955 0
M  V30 1157 C 110.625 -1.62358 -1.22521 0
M  V30 1158 C 110.98 -0.318555 -1.89745 0
M  V30 1159 O 110.273 0.683315 -1.79001 0
M  V30 1160 C 110.467 -2.73938 -2.29549 0
M  V30 1161 C 110.296 -4.15165 -1.72825 0
M  V30 1162 C 109.066 -4.81604 -1.52924 0
M  V30 1163 C 111.264 -4.99503 -1.22481 0
M  V30 1164 N 109.246 -6.07056 -0.91413 0
M  V30 1165 C 110.617 -6.15655 -0.732743 0
M  V30 1166 C 112.672 -4.85299 -1.11308 0
M  V30 1167 C 111.375 -7.19164 -0.139976 0
M  V30 1168 C 113.401 -5.88982 -0.534258 0
M  V30 1169 C 112.763 -7.0438 -0.0525562 0
M  V30 1170 H 108.862 -0.648286 -0.437321 0
M  V30 1171 H 111.446 -1.87413 -0.527692 0
M  V30 1172 H 109.617 -2.50611 -2.9673 0
M  V30 1173 H 111.349 -2.75366 -2.96573 0
M  V30 1174 H 108.104 -4.3885 -1.78067 0
M  V30 1175 H 108.528 -6.74108 -0.625071 0
M  V30 1176 H 113.17 -3.96369 -1.47144 0
M  V30 1177 H 110.888 -8.07771 0.230591 0
M  V30 1178 H 114.474 -5.80055 -0.450219 0
M  V30 1179 H 113.354 -7.83238 0.388324 0
M  V30 1180 N 110.857 0.726932 -1.39834 0
M  V30 1181 C 112.273 1.03354 -1.21615 0
M  V30 1182 C 112.473 2.01327 -0.08338 0
M  V30 1183 O 111.529 2.46158 0.56238 0
M  V30 1184 C 112.842 1.58811 -2.55342 0
M  V30 1185 C 114.39 1.70851 -2.62257 0
M  V30 1186 C 114.865 2.29716 -3.96225 0
M  V30 1187 N 116.356 2.37116 -3.97907 0
M  V30 1188 C 117.091 2.83619 -4.98345 0
M  V30 1189 N 116.587 3.29958 -6.09179 0
M  V30 1190 N 118.38 2.82901 -4.8572 0
M  V30 1191 H 110.531 0.0773069 -2.12259 0
M  V30 1192 H 112.794 0.0969102 -0.943034 0
M  V30 1193 H 112.5 0.942855 -3.38826 0
M  V30 1194 H 112.374 2.57502 -2.75632 0
M  V30 1195 H 114.761 2.34497 -1.79152 0
M  V30 1196 H 114.842 0.707913 -2.45809 0
M  V30 1197 H 114.486 1.66696 -4.79765 0
M  V30 1198 H 114.416 3.30469 -4.09997 0
M  V30 1199 H 116.907 2.04374 -3.17868 0
M  V30 1200 H 117.22 3.63976 -6.8172 0
M  V30 1201 H 115.565 3.27946 -6.12761 0
M  V30 1202 H 118.756 2.46027 -3.98231 0
M  V30 1203 H 118.929 3.18827 -5.6414 0
M  V30 1204 N 112.336 1.25143 0.95797 0
M  V30 1205 C 113.584 1.09476 1.69881 0
M  V30 1206 C 113.905 -0.365502 1.91544 0
M  V30 1207 O 113.175 -1.25985 1.50015 0
M  V30 1208 H 111.755 0.402128 0.629525 0
M  V30 1209 H 114.417 1.57214 1.15194 0
M  V30 1210 H 113.513 1.60046 2.6794 0
M  V30 1211 N 113.814 -1.1601 1.06675 0
M  V30 1212 C 115.062 -1.86264 0.784229 0
M  V30 1213 C 115.383 -1.82328 -0.691488 0
M  V30 1214 O 114.653 -1.25947 -1.50047 0
M  V30 1215 H 113.233 -0.689621 0.28711 0
M  V30 1216 H 115.895 -1.40664 1.34906 0
M  V30 1217 H 114.991 -2.91595 1.11259 0
M  V30 1218 N 115.292 -0.849877 -1.32721 0
M  V30 1219 C 116.569 -0.372405 -1.92022 0
M  V30 1220 C 116.949 1.1435 -1.77447 0
M  V30 1221 O 116.297 1.96296 -1.16962 0
M  V30 1222 C 116.507 -0.831482 -3.3895 0
M  V30 1223 C 117.855 -0.845882 -4.16089 0
M  V30 1224 O 118.879 -0.775806 -3.47649 0
M  V30 1225 O 117.738 -0.943753 -5.38289 0
M  V30 1226 H 114.832 -0.107667 -0.819961 0
M  V30 1227 H 117.378 -0.93646 -1.41522 0
M  V30 1228 H 116.15 -1.87448 -3.4348 0
M  V30 1229 H 115.773 -0.24461 -3.96847 0
M  V30 1230 N 116.77 1.45427 -0.607355 0
M  V30 1231 C 118.016 2.0254 -0.102607 0
M  V30 1232 C 118.349 1.47478 1.26348 0
M  V30 1233 O 117.624 0.64939 1.83339 0
M  V30 1234 C 117.907 3.60044 -0.0634347 0
M  V30 1235 C 117.76 4.2544 -1.46017 0
M  V30 1236 C 119.079 4.35646 0.624514 0
M  V30 1237 H 116.198 0.73598 -0.0387607 0
M  V30 1238 H 118.84 1.73284 -0.779282 0
M  V30 1239 H 116.99 3.85101 0.512808 0
M  V30 1240 H 118.662 4.11569 -2.08347 0
M  V30 1241 H 116.905 3.83849 -2.02094 0
M  V30 1242 H 117.576 5.34342 -1.385 0
M  V30 1243 H 120.052 4.15882 0.134723 0
M  V30 1244 H 118.928 5.45376 0.621028 0
M  V30 1245 H 119.189 4.08501 1.69055 0
M  V30 1246 N 118.248 0.346503 1.53744 0
M  V30 1247 C 119.211 -0.496439 2.23759 0
M  V30 1248 C 120.211 -1.0252 1.2388 0
M  V30 1249 O 121.401 -0.913974 1.48297 0
M  V30 1250 C 118.533 -1.69187 2.95954 0
M  V30 1251 H 119.726 0.115952 2.99676 0
M  V30 1252 H 117.279 0.0978939 1.55993 0
M  V30 1253 H 118.014 -2.34288 2.24231 0
M  V30 1254 H 117.799 -1.31989 3.69217 0
M  V30 1255 H 119.289 -2.28969 3.49232 0
M  V30 1256 N 119.726 -1.57421 0.075193 0
M  V30 1257 C 121.142 -1.57099 -0.281444 0
M  V30 1258 C 121.342 -1.08486 -1.69803 0
M  V30 1259 O 120.398 -0.752279 -2.41033 0
M  V30 1260 C 121.711 -3.00571 -0.0880041 0
M  V30 1261 C 123.259 -3.12605 -0.157281 0
M  V30 1262 C 123.734 -4.57999 0.0079207 0
M  V30 1263 N 125.225 -4.63176 -0.0475725 0
M  V30 1264 C 125.96 -5.73373 0.0557876 0
M  V30 1265 N 125.456 -6.92473 0.21286 0
M  V30 1266 N 127.249 -5.621 -0.00152098 0
M  V30 1267 H 119.4 -1.87335 1.00098 0
M  V30 1268 H 121.663 -0.86377 0.390646 0
M  V30 1269 H 121.369 -3.40262 0.889629 0
M  V30 1270 H 121.243 -3.67754 -0.838875 0
M  V30 1271 H 123.63 -2.72798 -1.1254 0
M  V30 1272 H 123.711 -2.48053 0.62475 0
M  V30 1273 H 123.355 -4.98496 0.972824 0
M  V30 1274 H 123.285 -5.20586 -0.793556 0
M  V30 1275 H 125.776 -3.7753 -0.167244 0
M  V30 1276 H 126.089 -7.72279 0.283781 0
M  V30 1277 H 124.434 -6.94556 0.248267 0
M  V30 1278 H 127.625 -4.67938 -0.122958 0
M  V30 1279 H 127.798 -6.47948 0.0824844 0
M  V30 1280 N 121.204 0.198386 -1.56346 0
M  V30 1281 C 122.432 0.935572 -1.84539 0
M  V30 1282 C 122.847 1.76989 -0.657281 0
M  V30 1283 O 122.204 1.78626 0.374043 0
M  V30 1284 C 122.255 1.8344 -3.11499 0
M  V30 1285 O 121.976 1.03377 -4.25728 0
M  V30 1286 C 123.477 2.68355 -3.52846 0
M  V30 1287 H 120.697 0.273126 -0.612897 0
M  V30 1288 H 123.241 0.20663 -2.03453 0
M  V30 1289 H 121.396 2.51701 -2.94492 0
M  V30 1290 H 121.81 1.64599 -4.98003 0
M  V30 1291 H 123.284 3.27085 -4.44657 0
M  V30 1292 H 123.761 3.41901 -2.75681 0
M  V30 1293 H 124.367 2.05471 -3.72373 0
M  V30 1294 N 122.682 1.50554 0.465978 0
M  V30 1295 C 123.928 1.62038 1.21949 0
M  V30 1296 C 124.261 0.322116 1.9151 0
M  V30 1297 O 123.536 -0.676723 1.82348 0
M  V30 1298 C 123.819 2.80421 2.25912 0
M  V30 1299 C 123.672 4.20144 1.60622 0
M  V30 1300 C 124.991 2.94354 3.27176 0
M  V30 1301 H 122.11 0.589752 0.441998 0
M  V30 1302 H 124.752 1.82956 0.51257 0
M  V30 1303 H 122.902 2.62717 2.86203 0
M  V30 1304 H 124.574 4.49449 1.03889 0
M  V30 1305 H 122.817 4.24165 0.909211 0
M  V30 1306 H 123.488 4.98914 2.36196 0
M  V30 1307 H 125.964 3.10578 2.76913 0
M  V30 1308 H 124.84 3.788 3.97242 0
M  V30 1309 H 125.101 2.05186 3.916 0
M  V30 1310 N 124.16 -0.719506 1.40217 0
M  V30 1311 C 125.408 -1.47641 1.3801 0
M  V30 1312 C 125.729 -1.94992 -0.018145 0
M  V30 1313 O 124.999 -1.70073 -0.972207 0
M  V30 1314 H 123.579 -0.547744 0.507923 0
M  V30 1315 H 126.241 -0.853187 1.75233 0
M  V30 1316 H 125.337 -2.35112 2.05253 0
M  V30 1317 N 125.638 -1.25649 -0.95132 0
M  V30 1318 C 126.886 -1.10375 -1.69298 0
M  V30 1319 C 127.207 0.355339 -1.91735 0
M  V30 1320 O 126.477 1.25188 -1.50681 0
M  V30 1321 H 125.057 -0.405461 -0.627384 0
M  V30 1322 H 127.719 -1.57823 -1.14358 0
M  V30 1323 H 126.815 -1.61465 -2.67087 0
M  V30 1324 N 127.117 1.15442 -1.07289 0
M  V30 1325 C 128.365 1.85845 -0.794096 0
M  V30 1326 C 128.686 1.82692 0.681809 0
M  V30 1327 O 127.956 1.26741 1.49377 0
M  V30 1328 H 126.536 0.688089 -0.290763 0
M  V30 1329 H 129.198 1.39947 -1.3565 0
M  V30 1330 H 128.294 2.91001 -1.12804 0
M  V30 1331 N 128.595 0.856903 1.32268 0
M  V30 1332 C 129.527 0.260412 2.27716 0
M  V30 1333 C 130.54 -0.569137 1.52528 0
M  V30 1334 O 131.729 -0.39326 1.74114 0
M  V30 1335 C 128.829 -0.650477 3.32599 0
M  V30 1336 C 128.002 0.14372 4.37164 0
M  V30 1337 C 127.061 -0.69328 5.21613 0
M  V30 1338 O 126.087 -0.12599 5.69061 0
M  V30 1339 N 127.289 -2.00761 5.44679 0
M  V30 1340 H 130.054 1.08059 2.79541 0
M  V30 1341 H 127.615 0.717103 1.45152 0
M  V30 1342 H 129.607 -1.21581 3.86005 0
M  V30 1343 H 128.177 -1.37133 2.80915 0
M  V30 1344 H 127.397 0.890486 3.8401 0
M  V30 1345 H 128.685 0.68915 5.04111 0
M  V30 1346 H 128.083 -2.49181 5.07863 0
M  V30 1347 H 126.64 -2.52103 6.01072 0
M  V30 1348 N 130.073 -1.45103 0.615059 0
M  V30 1349 C 131.02 -2.30586 -0.0993978 0
M  V30 1350 C 131.99 -1.42544 -0.852669 0
M  V30 1351 O 133.175 -1.71465 -0.836917 0
M  V30 1352 C 130.315 -3.27572 -1.08583 0
M  V30 1353 C 129.428 -4.30717 -0.332656 0
M  V30 1354 C 128.563 -5.14807 -1.30947 0
M  V30 1355 C 127.602 -6.09673 -0.544538 0
M  V30 1356 N 126.739 -6.86517 -1.47101 0
M  V30 1357 H 131.579 -2.91144 0.635542 0
M  V30 1358 H 129.116 -1.4346 0.325206 0
M  V30 1359 H 131.074 -3.82276 -1.67095 0
M  V30 1360 H 129.704 -2.68751 -1.78809 0
M  V30 1361 H 128.756 -3.78615 0.368107 0
M  V30 1362 H 130.068 -4.98102 0.263842 0
M  V30 1363 H 129.222 -5.73948 -1.96643 0
M  V30 1364 H 127.961 -4.47458 -1.9399 0
M  V30 1365 H 126.966 -5.49656 0.126003 0
M  V30 1366 H 128.191 -6.79052 0.080947 0
M  V30 1367 H 126.137 -6.21851 -2.08895 0
M  V30 1368 H 126.054 -7.50281 -0.928137 0
M  V30 1369 H 127.322 -7.50194 -2.11731 0
M  V30 1370 N 131.551 -0.354651 -1.53558 0
M  V30 1371 C 132.797 0.238797 -2.01389 0
M  V30 1372 C 133.13 1.49309 -1.2418 0
M  V30 1373 O 132.405 1.91638 -0.332457 0
M  V30 1374 C 132.688 0.541771 -3.56001 0
M  V30 1375 C 132.541 -0.725388 -4.43912 0
M  V30 1376 C 133.86 1.34685 -4.18984 0
M  V30 1377 H 130.979 0.0853177 -0.732045 0
M  V30 1378 H 133.621 -0.477384 -1.83905 0
M  V30 1379 H 131.771 1.15189 -3.71031 0
M  V30 1380 H 133.443 -1.36313 -4.407 0
M  V30 1381 H 131.686 -1.34801 -4.12324 0
M  V30 1382 H 132.357 -0.468505 -5.50008 0
M  V30 1383 H 134.833 0.830837 -4.07721 0
M  V30 1384 H 133.709 1.52759 -5.27215 0
M  V30 1385 H 133.97 2.35221 -3.74331 0
M  V30 1386 N 133.029 1.57378 -0.0835403 0
M  V30 1387 C 134.445 1.57246 0.273109 0
M  V30 1388 C 134.645 1.09385 1.69225 0
M  V30 1389 O 133.701 0.765051 2.40631 0
M  V30 1390 C 135.014 3.00614 0.0720628 0
M  V30 1391 C 136.562 3.12684 0.1407 0
M  V30 1392 C 137.037 4.57989 -0.0322094 0
M  V30 1393 N 138.528 4.63194 0.0230085 0
M  V30 1394 C 139.263 5.73335 -0.0861941 0
M  V30 1395 N 138.759 6.9235 -0.24958 0
M  V30 1396 N 140.552 5.62093 -0.0282886 0
M  V30 1397 H 132.703 1.86801 -1.0109 0
M  V30 1398 H 134.966 0.861687 -0.395222 0
M  V30 1399 H 134.672 3.39786 -0.907662 0
M  V30 1400 H 134.546 3.68193 0.81936 0
M  V30 1401 H 136.933 2.73391 1.11092 0
M  V30 1402 H 137.014 2.47719 -0.637896 0
M  V30 1403 H 136.658 4.97973 -0.999247 0
M  V30 1404 H 136.588 5.21 0.765937 0
M  V30 1405 H 139.079 3.77613 0.14722 0
M  V30 1406 H 139.392 7.72117 -0.324733 0
M  V30 1407 H 137.737 6.94415 -0.285097 0
M  V30 1408 H 140.928 4.67997 0.0981408 0
M  V30 1409 H 141.101 6.47895 -0.116845 0
M  V30 1410 N 134.507 -0.190092 1.56449 0
M  V30 1411 C 135.753 -0.906472 1.82084 0
M  V30 1412 C 136.108 -1.80677 0.661335 0
M  V30 1413 O 135.401 -1.88501 -0.343237 0
M  V30 1414 C 135.595 -1.75382 3.1141 0
M  V30 1415 C 135.424 -0.937053 4.39829 0
M  V30 1416 C 134.194 -0.619507 5.01488 0
M  V30 1417 C 136.392 -0.2874 5.13496 0
M  V30 1418 N 134.374 0.215367 6.13522 0
M  V30 1419 C 135.745 0.409454 6.18646 0
M  V30 1420 C 137.8 -0.203639 4.97483 0
M  V30 1421 C 136.503 1.1821 7.0952 0
M  V30 1422 C 138.529 0.555622 5.88784 0
M  V30 1423 C 137.891 1.24091 6.93384 0
M  V30 1424 H 133.99 -0.310931 0.717528 0
M  V30 1425 H 136.574 -0.174821 1.93914 0
M  V30 1426 H 134.745 -2.45703 3.00806 0
M  V30 1427 H 136.477 -2.41006 3.25112 0
M  V30 1428 H 133.232 -0.945126 4.64074 0
M  V30 1429 H 133.656 0.622562 6.74131 0
M  V30 1430 H 138.298 -0.719099 4.1664 0
M  V30 1431 H 136.016 1.70897 7.89823 0
M  V30 1432 H 139.602 0.621854 5.78467 0
M  V30 1433 H 138.482 1.81901 7.62812 0
M  V30 1434 N 135.985 -1.50799 -0.457987 0
M  V30 1435 C 136.915 -1.73553 -1.5621 0
M  V30 1436 C 137.896 -0.584774 -1.59732 0
M  V30 1437 O 139.081 -0.825314 -1.7579 0
M  V30 1438 C 136.211 -1.84169 -2.94447 0
M  V30 1439 C 135.165 -2.99461 -3.0579 0
M  V30 1440 C 134.491 -2.95235 -4.45803 0
M  V30 1441 C 135.791 -4.39766 -2.81786 0
M  V30 1442 H 137.485 -2.66 -1.37421 0
M  V30 1443 H 135.031 -1.28002 -0.659662 0
M  V30 1444 H 136.984 -1.98672 -3.71628 0
M  V30 1445 H 135.708 -0.883545 -3.14422 0
M  V30 1446 H 134.367 -2.8463 -2.31044 0
M  V30 1447 H 134.015 -1.97239 -4.62715 0
M  V30 1448 H 133.715 -3.72642 -4.54326 0
M  V30 1449 H 135.239 -3.11803 -5.24987 0
M  V30 1450 H 136.653 -4.55054 -3.4871 0
M  V30 1451 H 135.05 -5.18722 -3.0174 0
M  V30 1452 H 136.12 -4.51229 -1.7754 0
M  V30 1453 N 137.463 0.71206 -1.40597 0
M  V30 1454 C 138.41 1.82613 -1.41142 0
M  V30 1455 C 139.38 1.63925 -0.267903 0
M  V30 1456 O 140.565 1.85009 -0.466495 0
M  V30 1457 C 137.705 3.20354 -1.28324 0
M  V30 1458 C 136.818 3.50589 -2.52411 0
M  V30 1459 C 135.953 4.77855 -2.32009 0
M  V30 1460 C 134.992 5.01005 -3.51654 0
M  V30 1461 N 134.129 6.19487 -3.30425 0
M  V30 1462 H 138.969 1.81482 -2.36365 0
M  V30 1463 H 136.506 0.886475 -1.17388 0
M  V30 1464 H 138.464 3.99899 -1.18899 0
M  V30 1465 H 137.094 3.20705 -0.367189 0
M  V30 1466 H 136.146 2.65573 -2.72351 0
M  V30 1467 H 137.458 3.63604 -3.41458 0
M  V30 1468 H 136.612 5.65424 -2.19956 0
M  V30 1469 H 135.351 4.67056 -1.40392 0
M  V30 1470 H 134.356 4.1189 -3.64179 0
M  V30 1471 H 135.581 5.13674 -4.44202 0
M  V30 1472 H 133.527 6.09932 -2.41494 0
M  V30 1473 H 133.444 6.33194 -4.13039 0
M  V30 1474 H 134.712 7.09834 -3.22113 0
M  V30 1475 N 138.941 1.26152 0.944643 0
M  V30 1476 C 139.888 1.07408 2.04285 0
M  V30 1477 C 140.858 -0.0198413 1.66088 0
M  V30 1478 O 142.043 0.139264 1.90291 0
M  V30 1479 C 139.183 0.70945 3.37729 0
M  V30 1480 C 138.296 1.87926 3.88983 0
M  V30 1481 C 137.431 1.45807 5.10797 0
M  V30 1482 C 136.47 2.5964 5.54305 0
M  V30 1483 N 135.607 2.18226 6.67324 0
M  V30 1484 H 140.447 2.01389 2.1965 0
M  V30 1485 H 137.984 1.00275 1.07626 0
M  V30 1486 H 139.942 0.478948 4.14442 0
M  V30 1487 H 138.572 -0.193389 3.2222 0
M  V30 1488 H 137.624 2.22279 3.08701 0
M  V30 1489 H 138.936 2.73377 4.17213 0
M  V30 1490 H 138.09 1.18781 5.94959 0
M  V30 1491 H 136.829 0.574414 4.84305 0
M  V30 1492 H 135.834 2.87399 4.68702 0
M  V30 1493 H 137.059 3.48599 5.828 0
M  V30 1494 H 135.005 1.3229 6.42523 0
M  V30 1495 H 134.922 2.97221 6.95123 0
M  V30 1496 H 136.19 1.94403 7.54869 0
M  V30 1497 N 140.419 -1.14872 1.07899 0
M  V30 1498 C 141.329 -2.2341 0.715915 0
M  V30 1499 C 142.345 -1.71808 -0.275306 0
M  V30 1500 O 143.521 -2.01039 -0.120545 0
M  V30 1501 C 140.586 -3.46474 0.125168 0
M  V30 1502 C 139.647 -4.13039 1.17034 0
M  V30 1503 C 138.88 -5.30229 0.607688 0
M  V30 1504 O 139.103 -5.675 -0.574497 0
M  V30 1505 O 138.037 -5.86444 1.35526 0
M  V30 1506 H 141.863 -2.56808 1.62121 0
M  V30 1507 H 139.448 -1.22702 0.852322 0
M  V30 1508 H 141.33 -4.20917 -0.201729 0
M  V30 1509 H 140.005 -3.14811 -0.753364 0
M  V30 1510 H 138.912 -3.40493 1.54968 0
M  V30 1511 H 140.245 -4.48796 2.02097 0
M  V30 1512 N 141.898 -0.863906 -1.31812 0
M  V30 1513 C 142.831 -0.259963 -2.26714 0
M  V30 1514 C 143.809 0.607392 -1.50829 0
M  V30 1515 O 144.993 0.562155 -1.79922 0
M  V30 1516 C 142.12 0.632456 -3.32743 0
M  V30 1517 C 141.166 -0.162743 -4.26189 0
M  V30 1518 S 141.999 -1.53726 -5.12961 0
M  V30 1519 C 143.155 -0.650803 -6.22507 0
M  V30 1520 H 143.388 -1.06445 -2.77591 0
M  V30 1521 H 140.921 -0.662071 -1.39485 0
M  V30 1522 H 142.879 1.14167 -3.94305 0
M  V30 1523 H 141.54 1.41083 -2.80632 0
M  V30 1524 H 140.733 0.517366 -5.01338 0
M  V30 1525 H 140.335 -0.60385 -3.69093 0
M  V30 1526 H 142.627 0.141134 -6.77353 0
M  V30 1527 H 143.57 -1.37322 -6.94657 0
M  V30 1528 H 143.978 -0.221041 -5.64067 0
M  V30 1529 N 143.376 1.44774 -0.622745 0
M  V30 1530 C 144.286 2.34433 0.0886031 0
M  V30 1531 C 145.302 1.52131 0.844529 0
M  V30 1532 O 146.478 1.84886 0.798691 0
M  V30 1533 C 143.543 3.29986 1.0635 0
M  V30 1534 C 142.604 4.28195 0.307873 0
M  V30 1535 C 141.837 5.19183 1.23633 0
M  V30 1536 O 142.06 5.13918 2.47476 0
M  V30 1537 O 140.994 5.97515 0.725189 0
M  V30 1538 H 144.82 2.96693 -0.648599 0
M  V30 1539 H 142.405 1.44408 -0.382957 0
M  V30 1540 H 144.287 3.88825 1.6246 0
M  V30 1541 H 142.962 2.70269 1.78146 0
M  V30 1542 H 141.869 3.72927 -0.296064 0
M  V30 1543 H 143.202 4.90808 -0.3699 0
M  V30 1544 N 144.854 0.36279 1.53368 0
M  V30 1545 C 145.801 -0.485008 2.25646 0
M  V30 1546 C 146.771 -1.07982 1.2621 0
M  V30 1547 O 147.956 -1.11284 1.54986 0
M  V30 1548 C 145.096 -1.62023 3.04701 0
M  V30 1549 C 144.209 -1.05086 4.19024 0
M  V30 1550 C 143.344 -2.15496 4.85525 0
M  V30 1551 C 142.383 -1.5601 5.91884 0
M  V30 1552 N 141.52 -2.60241 6.52088 0
M  V30 1553 H 146.36 0.137864 2.97681 0
M  V30 1554 H 143.897 0.0798061 1.46883 0
M  V30 1555 H 145.855 -2.28887 3.48807 0
M  V30 1556 H 144.485 -2.2138 2.34927 0
M  V30 1557 H 143.537 -0.27259 3.79422 0
M  V30 1558 H 144.849 -0.575926 4.95464 0
M  V30 1559 H 144.003 -2.90186 5.32801 0
M  V30 1560 H 142.742 -2.66341 4.08551 0
M  V30 1561 H 141.747 -0.798338 5.43973 0
M  V30 1562 H 142.972 -1.05994 6.70777 0
M  V30 1563 H 140.918 -3.10304 5.77968 0
M  V30 1564 H 140.835 -2.17426 7.24059 0
M  V30 1565 H 142.103 -3.34641 7.04014 0
M  V30 1566 N 146.332 -1.57332 0.0918853 0
M  V30 1567 C 147.562 -1.98286 -0.580205 0
M  V30 1568 C 147.97 -0.969713 -1.6246 0
M  V30 1569 O 147.313 0.0493501 -1.83634 0
M  V30 1570 C 147.375 -3.35603 -1.28882 0
M  V30 1571 C 147.039 -4.55285 -0.395559 0
M  V30 1572 C 148.036 -5.18687 0.355002 0
M  V30 1573 C 145.721 -5.01314 -0.314556 0
M  V30 1574 C 147.715 -6.26484 1.17458 0
M  V30 1575 C 145.402 -6.08979 0.508677 0
M  V30 1576 C 146.4 -6.71429 1.2519 0
M  V30 1577 O 146.088 -7.77018 2.06151 0
M  V30 1578 H 145.82 -0.656678 -0.160466 0
M  V30 1579 H 148.374 -2.04721 0.16688 0
M  V30 1580 H 146.604 -3.25842 -2.08241 0
M  V30 1581 H 148.293 -3.61026 -1.85512 0
M  V30 1582 H 149.059 -4.84058 0.302134 0
M  V30 1583 H 144.938 -4.5247 -0.882697 0
M  V30 1584 H 148.482 -6.75159 1.75518 0
M  V30 1585 H 144.379 -6.4304 0.563037 0
M  V30 1586 H 145.147 -7.93991 1.98799 0
M  V30 1587 N 147.81 0.181792 -1.56548 0
M  V30 1588 C 148.773 1.20894 -1.94724 0
M  V30 1589 C 149.773 1.37738 -0.829747 0
M  V30 1590 O 150.963 1.35323 -1.09697 0
M  V30 1591 C 148.095 2.57593 -2.23291 0
M  V30 1592 H 149.288 0.882275 -2.86629 0
M  V30 1593 H 146.841 0.423838 -1.50444 0
M  V30 1594 H 147.576 2.95291 -1.34067 0
M  V30 1595 H 147.361 2.46735 -3.04736 0
M  V30 1596 H 148.851 3.31637 -2.53785 0
M  V30 1597 N 149.288 1.51039 0.449983 0
M  V30 1598 C 150.565 1.53612 1.21089 0
M  V30 1599 C 150.945 0.292997 2.09057 0
M  V30 1600 O 150.293 -0.72259 2.16774 0
M  V30 1601 C 150.503 2.84337 2.0237 0
M  V30 1602 C 151.851 3.35807 2.59843 0
M  V30 1603 O 152.875 2.85802 2.12593 0
M  V30 1604 O 151.734 4.23029 3.45989 0
M  V30 1605 H 148.828 0.617057 0.550608 0
M  V30 1606 H 151.374 1.63344 0.460082 0
M  V30 1607 H 150.146 3.66278 1.37681 0
M  V30 1608 H 149.769 2.77708 2.84542 0
M  V30 1609 N 150.766 -0.704594 1.40972 0
M  V30 1610 C 152.182 -1.01406 1.23244 0
M  V30 1611 C 152.382 -2.01169 0.115399 0
M  V30 1612 O 151.438 -2.47021 -0.523147 0
M  V30 1613 C 152.751 -1.54728 2.57836 0
M  V30 1614 C 154.299 -1.66658 2.64942 0
M  V30 1615 C 154.774 -2.23383 3.9983 0
M  V30 1616 N 156.265 -2.30756 4.01629 0
M  V30 1617 C 157 -2.75655 5.02794 0
M  V30 1618 N 156.496 -3.20225 6.14352 0
M  V30 1619 N 158.289 -2.75138 4.90159 0
M  V30 1620 H 150.44 -0.0435285 2.12355 0
M  V30 1621 H 152.703 -0.0818951 0.944456 0
M  V30 1622 H 152.409 -0.888832 3.40283 0
M  V30 1623 H 152.283 -2.53084 2.79693 0
M  V30 1624 H 154.67 -2.31617 1.8286 0
M  V30 1625 H 154.751 -0.668717 2.46904 0
M  V30 1626 H 154.395 -1.59043 4.82357 0
M  V30 1627 H 154.325 -3.23904 4.15203 0
M  V30 1628 H 156.816 -1.99291 3.21079 0
M  V30 1629 H 157.129 -3.53084 6.87424 0
M  V30 1630 H 155.474 -3.18156 6.17901 0
M  V30 1631 H 158.665 -2.39661 4.02095 0
M  V30 1632 H 158.838 -3.09812 5.6914 0
M  V30 1633 N 152.244 -1.26651 -0.937939 0
M  V30 1634 C 153.154 -1.10276 -2.07066 0
M  V30 1635 C 154.17 -0.0354197 -1.73964 0
M  V30 1636 O 155.346 -0.239816 -1.99967 0
M  V30 1637 C 152.411 -0.740887 -3.38691 0
M  V30 1638 C 151.472 -1.88799 -3.85556 0
M  V30 1639 C 150.705 -1.54329 -5.10899 0
M  V30 1640 O 150.928 -0.446494 -5.6865 0
M  V30 1641 O 149.862 -2.37911 -5.52885 0
M  V30 1642 H 153.688 -2.05309 -2.23789 0
M  V30 1643 H 151.273 -1.05743 -1.0554 0
M  V30 1644 H 153.155 -0.55195 -4.1777 0
M  V30 1645 H 151.83 0.180022 -3.23199 0
M  V30 1646 H 150.737 -2.13191 -3.07409 0
M  V30 1647 H 152.07 -2.78874 -4.05574 0
M  V30 1648 N 153.722 1.14298 -1.08507 0
M  V30 1649 C 154.999 1.81544 -0.728088 0
M  V30 1650 C 155.379 1.95838 0.78808 0
M  V30 1651 O 154.727 1.51904 1.70697 0
M  V30 1652 C 154.937 3.17169 -1.45619 0
M  V30 1653 C 156.285 3.9265 -1.61591 0
M  V30 1654 O 157.309 3.26762 -1.41793 0
M  V30 1655 O 156.168 5.10807 -1.94263 0
M  V30 1656 H 153.262 0.78491 -0.260471 0
M  V30 1657 H 155.808 1.21307 -1.18671 0
M  V30 1658 H 154.58 3.01934 -2.489 0
M  V30 1659 H 154.203 3.851 -0.989124 0
M  V30 1660 N 155.201 0.870884 1.31352 0
M  V30 1661 C 156.134 0.271983 2.26573 0
M  V30 1662 C 157.112 -0.599385 1.51149 0
M  V30 1663 O 158.296 -0.552605 1.80218 0
M  V30 1664 C 155.423 -0.614801 3.33073 0
M  V30 1665 C 154.469 0.185342 4.26097 0
M  V30 1666 S 155.302 1.56444 5.12138 0
M  V30 1667 C 156.458 0.683807 6.22153 0
M  V30 1668 H 156.691 1.07916 2.77023 0
M  V30 1669 H 154.224 0.669459 1.39132 0
M  V30 1670 H 156.182 -1.12074 3.94905 0
M  V30 1671 H 154.843 -1.39593 2.81376 0
M  V30 1672 H 154.036 -0.490771 5.01605 0
M  V30 1673 H 153.638 0.623415 3.68768 0
M  V30 1674 H 155.93 -0.10521 6.77418 0
M  V30 1675 H 156.873 1.41004 6.93919 0
M  V30 1676 H 157.281 0.250952 5.63942 0
M  V30 1677 N 156.679 -1.44442 0.630414 0
M  V30 1678 C 157.928 -2.01267 0.132073 0
M  V30 1679 C 158.241 -1.50172 -1.25331 0
M  V30 1680 O 159.447 -1.9912 -1.84562 0
M  V30 1681 C 157.903 -3.59422 0.185362 0
M  V30 1682 C 157.511 -4.19514 1.57201 0
M  V30 1683 C 159.255 -4.23724 -0.256553 0
M  V30 1684 C 157.162 -5.69891 1.58045 0
M  V30 1685 H 156.092 -0.752619 0.0456092 0
M  V30 1686 H 158.743 -1.65666 0.789106 0
M  V30 1687 H 157.125 -3.92318 -0.538759 0
M  V30 1688 H 158.299 -3.98156 2.31966 0
M  V30 1689 H 156.614 -3.67496 1.95795 0
M  V30 1690 H 159.211 -5.34019 -0.269767 0
M  V30 1691 H 159.554 -3.96013 -1.28372 0
M  V30 1692 H 160.087 -3.95629 0.41505 0
M  V30 1693 H 156.826 -6.02336 2.58597 0
M  V30 1694 H 156.346 -5.93373 0.875725 0
M  V30 1695 H 158.025 -6.33515 1.31408 0
M  V30 1696 N 158.157 -0.370918 -1.53173 0
M  V30 1697 C 159.406 0.218249 -2.00516 0
M  V30 1698 C 159.719 1.49429 -1.26215 0
M  V30 1699 O 160.925 2.16239 -1.64174 0
M  V30 1700 C 159.381 0.43948 -3.57207 0
M  V30 1701 C 158.989 -0.822244 -4.4039 0
M  V30 1702 C 160.733 0.986012 -4.1289 0
M  V30 1703 C 158.64 -0.570304 -5.88644 0
M  V30 1704 H 157.57 0.0853333 -0.749156 0
M  V30 1705 H 160.221 -0.490483 -1.76823 0
M  V30 1706 H 158.603 1.20961 -3.77074 0
M  V30 1707 H 159.777 -1.59557 -4.32294 0
M  V30 1708 H 158.092 -1.29238 -3.95836 0
M  V30 1709 H 160.689 1.18991 -5.21292 0
M  V30 1710 H 161.032 1.94972 -3.6782 0
M  V30 1711 H 161.565 0.27592 -3.96842 0
M  V30 1712 H 158.304 -1.50449 -6.38001 0
M  V30 1713 H 157.824 0.164427 -5.99575 0
M  V30 1714 H 159.503 -0.19784 -6.46697 0
M  V30 1715 N 159.635 1.57281 -0.100228 0
M  V30 1716 C 160.568 2.09976 0.893612 0
M  V30 1717 C 161.546 1.01155 1.27304 0
M  V30 1718 O 162.73 1.28687 1.37739 0
M  V30 1719 C 159.857 2.58098 2.19324 0
M  V30 1720 C 158.903 3.78626 1.96328 0
M  V30 1721 S 159.736 5.21959 1.19662 0
M  V30 1722 C 160.892 5.73435 2.50844 0
M  V30 1723 H 161.125 2.93946 0.44534 0
M  V30 1724 H 158.658 1.53985 0.113167 0
M  V30 1725 H 160.616 2.8648 2.94005 0
M  V30 1726 H 159.277 1.74344 2.61272 0
M  V30 1727 H 158.47 4.10382 2.92579 0
M  V30 1728 H 158.072 3.50763 1.29775 0
M  V30 1729 H 160.364 5.82015 3.46792 0
M  V30 1730 H 161.307 6.7185 2.23659 0
M  V30 1731 H 161.715 5.01395 2.59352 0
M  V30 1732 N 161.113 -0.173488 1.56642 0
M  V30 1733 C 162.36 -0.890465 1.81871 0
M  V30 1734 C 162.688 -1.82339 0.67696 0
M  V30 1735 O 161.943 -1.92795 -0.335926 0
M  V30 1736 C 162.242 -1.72069 3.13252 0
M  V30 1737 C 161.908 -0.936878 4.41059 0
M  V30 1738 C 160.57 -0.720545 4.75775 0
M  V30 1739 C 162.922 -0.386919 5.19762 0
M  V30 1740 C 160.25 0.0568829 5.86672 0
M  V30 1741 C 162.602 0.37741 6.31473 0
M  V30 1742 C 161.266 0.604563 6.64757 0
M  V30 1743 H 160.536 -0.325844 0.665512 0
M  V30 1744 H 163.183 -0.155527 1.90867 0
M  V30 1745 H 161.488 -2.52496 2.99588 0
M  V30 1746 H 163.185 -2.27844 3.29982 0
M  V30 1747 H 159.775 -1.11553 4.13828 0
M  V30 1748 H 163.959 -0.541398 4.93338 0
M  V30 1749 H 159.215 0.242635 6.10918 0
M  V30 1750 H 163.389 0.810825 6.91664 0
M  V30 1751 H 161.016 1.20885 7.50527 0
M  V30 1752 N 162.591 -1.51276 -0.441967 0
M  V30 1753 C 163.837 -1.63958 -1.19355 0
M  V30 1754 C 164.17 -0.352543 -1.90973 0
M  V30 1755 O 163.445 0.647627 -1.83401 0
M  V30 1756 C 163.728 -2.83979 -2.21422 0
M  V30 1757 C 163.581 -4.22646 -1.53918 0
M  V30 1758 C 164.9 -2.99521 -3.22451 0
M  V30 1759 H 162.019 -0.596709 -0.432559 0
M  V30 1760 H 164.661 -1.83748 -0.483398 0
M  V30 1761 H 162.811 -2.67237 -2.81987 0
M  V30 1762 H 164.483 -4.51045 -0.967256 0
M  V30 1763 H 162.726 -4.25558 -0.841615 0
M  V30 1764 H 163.397 -5.02609 -2.28229 0
M  V30 1765 H 165.873 -3.14944 -2.71937 0
M  V30 1766 H 164.749 -3.85072 -3.91166 0
M  V30 1767 H 165.01 -2.11391 -3.88287 0
M  V30 1768 N 164.069 0.697108 -1.41344 0
M  V30 1769 C 165.346 1.45154 -1.31109 0
M  V30 1770 C 165.726 2.11009 0.0620449 0
M  V30 1771 O 165.074 2.01571 1.07618 0
M  V30 1772 C 165.284 2.47223 -2.46337 0
M  V30 1773 C 166.632 3.1252 -2.87431 0
M  V30 1774 O 167.656 2.57547 -2.46065 0
M  V30 1775 O 166.515 4.12083 -3.58957 0
M  V30 1776 H 163.609 0.646365 -0.515889 0
M  V30 1777 H 166.155 0.727716 -1.53305 0
M  V30 1778 H 164.927 1.97204 -3.37974 0
M  V30 1779 H 164.55 3.27116 -2.2601 0
M  V30 1780 N 165.547 1.27147 0.931209 0
M  V30 1781 C 166.772 1.16191 1.71797 0
M  V30 1782 C 167.197 -0.278004 1.86034 0
M  V30 1783 O 166.555 -1.20137 1.35782 0
M  V30 1784 C 166.603 1.84673 3.09723 0
M  V30 1785 O 165.707 1.14231 3.96264 0
M  V30 1786 H 165.048 0.404303 0.526721 0
M  V30 1787 H 167.578 1.68152 1.1656 0
M  V30 1788 H 167.588 1.91893 3.60057 0
M  V30 1789 H 166.263 2.89421 2.98677 0
M  V30 1790 H 164.84 1.15056 3.54706 0
M  V30 1791 N 167.025 -1.13721 1.09112 0
M  V30 1792 C 168.255 -1.88499 0.845671 0
M  V30 1793 C 168.663 -1.79218 -0.606432 0
M  V30 1794 O 168.006 -1.1544 -1.42896 0
M  V30 1795 C 168.068 -3.38954 1.19793 0
M  V30 1796 C 167.732 -3.72018 2.65428 0
M  V30 1797 C 168.729 -3.7153 3.63677 0
M  V30 1798 C 166.414 -4.01775 3.01467 0
M  V30 1799 C 168.408 -4.00336 4.95994 0
M  V30 1800 C 166.095 -4.30243 4.33975 0
M  V30 1801 C 167.093 -4.29508 5.31048 0
M  V30 1802 O 166.781 -4.5728 6.61173 0
M  V30 1803 H 166.513 -0.603702 0.304171 0
M  V30 1804 H 169.067 -1.44903 1.45576 0
M  V30 1805 H 167.297 -3.83039 0.530871 0
M  V30 1806 H 168.986 -3.95052 0.932146 0
M  V30 1807 H 169.752 -3.4862 3.37179 0
M  V30 1808 H 165.631 -4.01496 2.26544 0
M  V30 1809 H 169.175 -3.99678 5.71755 0
M  V30 1810 H 165.072 -4.52625 4.60219 0
M  V30 1811 H 165.84 -4.74964 6.66597 0
M  V30 1812 N 168.503 -0.877838 -1.30888 0
M  V30 1813 C 169.78 -0.413052 -1.91189 0
M  V30 1814 C 170.16 1.1056 -1.79832 0
M  V30 1815 O 169.508 1.93771 -1.21099 0
M  V30 1816 C 169.718 -0.903191 -3.3711 0
M  V30 1817 C 171.066 -0.93395 -4.14201 0
M  V30 1818 O 172.09 -0.849373 -3.45925 0
M  V30 1819 O 170.949 -1.05772 -5.36167 0
M  V30 1820 H 168.043 -0.125035 -0.817493 0
M  V30 1821 H 170.589 -0.966269 -1.39504 0
M  V30 1822 H 169.361 -1.94692 -3.39427 0
M  V30 1823 H 168.984 -0.328732 -3.96239 0
M  V30 1824 N 169.982 1.44106 -0.638065 0
M  V30 1825 C 171.228 2.02277 -0.145546 0
M  V30 1826 C 171.561 1.50125 1.23191 0
M  V30 1827 O 170.836 0.688133 1.8192 0
M  V30 1828 C 171.119 3.59829 -0.139791 0
M  V30 1829 C 170.972 4.22247 -1.55008 0
M  V30 1830 C 172.291 4.36873 0.531966 0
M  V30 1831 H 169.41 0.734992 -0.0543632 0
M  V30 1832 H 172.052 1.71592 -0.815863 0
M  V30 1833 H 170.202 3.86102 0.431007 0
M  V30 1834 H 171.874 4.07057 -2.1703 0
M  V30 1835 H 170.117 3.79476 -2.10191 0
M  V30 1836 H 170.788 5.31284 -1.49804 0
M  V30 1837 H 173.264 4.16074 0.0464781 0
M  V30 1838 H 172.14 5.4657 0.505206 0
M  V30 1839 H 172.401 4.11995 1.60352 0
M  V30 1840 N 171.46 0.379036 1.52974 0
M  V30 1841 C 172.709 -0.207612 2.00629 0
M  V30 1842 C 173.022 -1.48758 1.27006 0
M  V30 1843 O 174.228 -2.15365 1.65318 0
M  V30 1844 C 172.684 -0.42053 3.57435 0
M  V30 1845 C 172.292 0.845587 4.39948 0
M  V30 1846 C 174.036 -0.964102 4.13407 0
M  V30 1847 C 171.943 0.601513 5.88333 0
M  V30 1848 H 170.873 -0.0813591 0.749598 0
M  V30 1849 H 173.524 0.499853 1.76561 0
M  V30 1850 H 171.906 -1.18959 3.7771 0
M  V30 1851 H 173.08 1.61848 4.31442 0
M  V30 1852 H 171.395 1.31336 3.95145 0
M  V30 1853 H 173.992 -1.16225 5.21916 0
M  V30 1854 H 174.335 -1.93019 3.68849 0
M  V30 1855 H 174.868 -0.25487 3.96983 0
M  V30 1856 H 171.607 1.53831 6.37194 0
M  V30 1857 H 171.127 -0.132628 5.99653 0
M  V30 1858 H 172.806 0.232134 6.46583 0
M  V30 1859 N 172.938 -1.57226 0.108567 0
M  V30 1860 C 173.868 -2.17778 -0.84232 0
M  V30 1861 C 174.849 -1.11487 -1.2847 0
M  V30 1862 O 176.034 -1.39681 -1.34918 0
M  V30 1863 C 173.164 -2.76888 -2.09644 0
M  V30 1864 C 172.118 -3.88669 -1.79221 0
M  V30 1865 C 171.444 -4.34541 -3.11574 0
M  V30 1866 C 172.744 -5.11251 -1.06864 0
M  V30 1867 H 174.438 -2.97489 -0.337774 0
M  V30 1868 H 171.984 -1.43097 -0.161025 0
M  V30 1869 H 173.937 -3.17904 -2.76614 0
M  V30 1870 H 172.661 -1.94451 -2.62405 0
M  V30 1871 H 171.32 -3.48213 -1.14644 0
M  V30 1872 H 170.968 -3.48977 -3.62249 0
M  V30 1873 H 170.668 -5.09914 -2.91996 0
M  V30 1874 H 172.192 -4.782 -3.7968 0
M  V30 1875 H 173.606 -5.49352 -1.63968 0
M  V30 1876 H 172.003 -5.9214 -0.974178 0
M  V30 1877 H 173.073 -4.8487 -0.0536168 0
M  V30 1878 N 174.416 0.165178 -1.56732 0
M  V30 1879 C 175.379 1.18822 -1.95995 0
M  V30 1880 C 176.379 1.3685 -0.84431 0
M  V30 1881 O 177.569 1.34152 -1.11126 0
M  V30 1882 C 174.701 2.5521 -2.26011 0
M  V30 1883 H 175.894 0.851825 -2.87548 0
M  V30 1884 H 173.447 0.407857 -1.50885 0
M  V30 1885 H 174.182 2.93852 -1.37191 0
M  V30 1886 H 173.967 2.43489 -3.07336 0
M  V30 1887 H 175.457 3.28927 -2.57288 0
M  V30 1888 N 175.894 1.51508 0.433938 0
M  V30 1889 C 177.142 1.6402 1.18075 0
M  V30 1890 C 177.463 0.360328 1.91642 0
M  V30 1891 O 176.733 -0.623945 1.85698 0
M  V30 1892 H 175.313 0.6045 0.43885 0
M  V30 1893 H 177.975 1.88452 0.497178 0
M  V30 1894 H 177.071 2.46949 1.90847 0
M  V30 1895 N 177.372 -0.689602 1.41712 0
M  V30 1896 C 178.597 -1.48329 1.44959 0
M  V30 1897 C 179.022 -1.8801 0.0581283 0
M  V30 1898 O 178.38 -1.55026 -0.940035 0
M  V30 1899 C 178.428 -2.71835 2.36935 0
M  V30 1900 O 177.532 -3.69549 1.8305 0
M  V30 1901 H 176.873 -0.446199 0.491734 0
M  V30 1902 H 179.403 -0.847127 1.86239 0
M  V30 1903 H 179.413 -3.20076 2.53013 0
M  V30 1904 H 178.088 -2.42291 3.38035 0
M  V30 1905 H 176.665 -3.2851 1.76452 0
M  V30 1906 N 178.85 -1.27639 -0.924453 0
M  V30 1907 C 180.261 -1.12834 -1.48746 0
M  V30 1908 C 180.612 0.285505 -1.94112 0
M  V30 1909 O 179.737 1.17874 -1.81479 0
M  V30 1910 C 180.332 -2.04217 -2.70334 0
M  V30 1911 C 178.891 -1.93509 -3.22848 0
M  V30 1912 C 178.038 -1.96583 -1.95577 0
M  V30 1913 H 180.989 -1.40484 -0.738233 0
M  V30 1914 H 181.01 -1.59989 -3.4523 0
M  V30 1915 H 180.522 -3.07111 -2.37285 0
M  V30 1916 H 178.623 -0.936131 -3.60649 0
M  V30 1917 H 178.736 -2.79917 -3.88823 0
M  V30 1918 H 177.1 -1.4085 -2.12211 0
M  V30 1919 H 177.883 -3.01137 -1.64837 0
M  V30 1920 N 180.328 1.1314 -1.09713 0
M  V30 1921 C 181.556 1.88321 -0.856898 0
M  V30 1922 C 181.971 1.79276 0.592073 0
M  V30 1923 O 181.328 1.16142 1.40774 0
M  V30 1924 C 181.379 3.37812 -1.28706 0
M  V30 1925 O 181.1 3.46627 -2.67921 0
M  V30 1926 C 182.601 4.29952 -1.07964 0
M  V30 1927 H 179.821 0.596094 -0.308079 0
M  V30 1928 H 182.365 1.43205 -1.45988 0
M  V30 1929 H 180.52 3.805 -0.727912 0
M  V30 1930 H 180.934 4.39579 -2.8613 0
M  V30 1931 H 182.408 5.33159 -1.42986 0
M  V30 1932 H 182.885 4.39196 -0.0176577 0
M  V30 1933 H 183.491 3.93036 -1.62489 0
M  V30 1934 N 181.806 0.884767 1.30421 0
M  V30 1935 C 182.716 0.355398 2.31892 0
M  V30 1936 C 183.732 -0.542261 1.65335 0
M  V30 1937 O 184.908 -0.435432 1.96637 0
M  V30 1938 C 181.973 -0.421661 3.44126 0
M  V30 1939 C 181.034 0.505727 4.26311 0
M  V30 1940 C 180.267 -0.234343 5.33185 0
M  V30 1941 O 180.49 -1.46045 5.51386 0
M  V30 1942 O 179.424 0.415443 6.00465 0
M  V30 1943 H 183.25 1.19685 2.79122 0
M  V30 1944 H 180.835 0.648596 1.34587 0
M  V30 1945 H 182.717 -0.861641 4.12497 0
M  V30 1946 H 181.392 -1.23942 2.99032 0
M  V30 1947 H 180.299 0.994513 3.60639 0
M  V30 1948 H 181.632 1.28948 4.75009 0
M  V30 1949 N 183.284 -1.43765 0.645699 0
M  V30 1950 C 184.214 -2.33471 -0.0370477 0
M  V30 1951 C 185.195 -1.49042 -0.819779 0
M  V30 1952 O 186.38 -1.77726 -0.782758 0
M  V30 1953 C 183.51 -3.32311 -1.0093 0
M  V30 1954 C 182.464 -4.2667 -0.337201 0
M  V30 1955 C 181.79 -5.1549 -1.42037 0
M  V30 1956 C 183.09 -5.16657 0.765706 0
M  V30 1957 H 184.784 -2.90809 0.712069 0
M  V30 1958 H 182.33 -1.39834 0.343876 0
M  V30 1959 H 184.283 -3.9396 -1.49578 0
M  V30 1960 H 183.007 -2.73213 -1.78948 0
M  V30 1961 H 181.666 -3.66374 0.128771 0
M  V30 1962 H 181.314 -4.52735 -2.1918 0
M  V30 1963 H 181.014 -5.79438 -0.975966 0
M  V30 1964 H 182.538 -5.80012 -1.90838 0
M  V30 1965 H 183.952 -5.72158 0.361702 0
M  V30 1966 H 182.349 -5.89286 1.13413 0
M  V30 1967 H 183.419 -4.56796 1.62683 0
M  V30 1968 N 184.763 -0.387143 -1.52771 0
M  V30 1969 C 185.693 0.440551 -2.29306 0
M  V30 1970 C 186.674 1.06535 -1.32606 0
M  V30 1971 O 187.859 1.07853 -1.61497 0
M  V30 1972 C 184.989 1.56919 -3.09829 0
M  V30 1973 C 183.943 1.07054 -4.14395 0
M  V30 1974 C 183.269 2.29109 -4.83129 0
M  V30 1975 C 184.569 0.140015 -5.22112 0
M  V30 1976 H 186.263 -0.198026 -2.98744 0
M  V30 1977 H 183.809 -0.09668 -1.43675 0
M  V30 1978 H 185.762 2.15503 -3.62128 0
M  V30 1979 H 184.486 2.23532 -2.3812 0
M  V30 1980 H 183.145 0.507247 -3.63074 0
M  V30 1981 H 182.793 2.94227 -4.0797 0
M  V30 1982 H 182.493 1.96406 -5.53804 0
M  V30 1983 H 184.017 2.88339 -5.38231 0
M  V30 1984 H 185.431 0.633978 -5.69784 0
M  V30 1985 H 183.828 -0.0971485 -6.00021 0
M  V30 1986 H 184.898 -0.811711 -4.78058 0
M  V30 1987 N 186.241 1.57166 -0.116904 0
M  V30 1988 C 187.188 2.15202 0.83408 0
M  V30 1989 C 188.158 1.07644 1.26499 0
M  V30 1990 O 189.343 1.35541 1.34288 0
M  V30 1991 C 186.483 2.75405 2.07957 0
M  V30 1992 C 185.596 3.97264 1.69721 0
M  V30 1993 C 184.731 4.45561 2.89221 0
M  V30 1994 C 183.77 5.59956 2.47215 0
M  V30 1995 N 182.907 6.03006 3.59622 0
M  V30 1996 H 187.747 2.96141 0.332335 0
M  V30 1997 H 185.284 1.46309 0.152349 0
M  V30 1998 H 187.242 3.08439 2.80929 0
M  V30 1999 H 185.872 1.97159 2.55594 0
M  V30 2000 H 184.924 3.70404 0.866316 0
M  V30 2001 H 186.236 4.80226 1.34849 0
M  V30 2002 H 185.39 4.80493 3.7042 0
M  V30 2003 H 184.129 3.61544 3.27318 0
M  V30 2004 H 183.134 5.2463 1.64448 0
M  V30 2005 H 184.359 6.45738 2.10238 0
M  V30 2006 H 182.305 5.21931 3.97396 0
M  V30 2007 H 182.222 6.80819 3.28667 0
M  V30 2008 H 183.49 6.42576 4.41267 0
M  V30 2009 N 187.719 -0.156864 1.56817 0
M  V30 2010 C 188.666 -1.19394 1.97519 0
M  V30 2011 C 189.636 -1.4322 0.841265 0
M  V30 2012 O 190.821 -1.55719 1.10255 0
M  V30 2013 C 187.961 -2.52483 2.35258 0
M  V30 2014 C 187.074 -2.35914 3.61896 0
M  V30 2015 C 186.209 -3.61969 3.88782 0
M  V30 2016 C 185.248 -3.40395 5.08722 0
M  V30 2017 N 184.385 -4.58556 5.31668 0
M  V30 2018 H 189.225 -0.839845 2.85921 0
M  V30 2019 H 186.762 -0.403264 1.41464 0
M  V30 2020 H 188.72 -3.30071 2.55165 0
M  V30 2021 H 187.35 -2.85859 1.49949 0
M  V30 2022 H 186.402 -1.49429 3.49821 0
M  V30 2023 H 187.714 -2.15926 4.49641 0
M  V30 2024 H 186.868 -4.47989 4.09135 0
M  V30 2025 H 185.607 -3.84951 2.9944 0
M  V30 2026 H 184.612 -2.52763 4.88253 0
M  V30 2027 H 185.837 -3.18822 5.99608 0
M  V30 2028 H 183.783 -4.81729 4.45279 0
M  V30 2029 H 183.7 -4.41535 6.13664 0
M  V30 2030 H 184.968 -5.45817 5.5651 0
M  V30 2031 N 189.197 -1.51736 -0.425897 0
M  V30 2032 C 190.444 -1.6497 -1.17436 0
M  V30 2033 C 190.772 -0.371445 -1.9092 0
M  V30 2034 O 190.027 0.644963 -1.84767 0
M  V30 2035 C 190.326 -2.81103 -2.20717 0
M  V30 2036 C 189.992 -4.19954 -1.64162 0
M  V30 2037 C 188.654 -4.57725 -1.48462 0
M  V30 2038 C 191.006 -5.06552 -1.22696 0
M  V30 2039 C 188.334 -5.79789 -0.897873 0
M  V30 2040 C 190.686 -6.29205 -0.654464 0
M  V30 2041 C 189.35 -6.6574 -0.484456 0
M  V30 2042 H 188.62 -0.603668 -0.429727 0
M  V30 2043 H 191.267 -1.85798 -0.463829 0
M  V30 2044 H 189.572 -2.54542 -2.97852 0
M  V30 2045 H 191.269 -2.8854 -2.78471 0
M  V30 2046 H 187.859 -3.90181 -1.77361 0
M  V30 2047 H 192.043 -4.77968 -1.33642 0
M  V30 2048 H 187.299 -6.06733 -0.75402 0
M  V30 2049 H 191.473 -6.95643 -0.324694 0
M  V30 2050 H 189.1 -7.60195 -0.0276833 0
M  V30 2051 N 190.675 0.682077 -1.42076 0
M  V30 2052 C 191.921 1.44428 -1.42367 0
M  V30 2053 C 192.254 1.94164 -0.0373056 0
M  V30 2054 O 191.529 1.70429 0.937239 0
M  V30 2055 C 191.812 2.64654 -2.44194 0
M  V30 2056 C 191.665 2.20596 -3.91991 0
M  V30 2057 C 192.984 3.66865 -2.431 0
M  V30 2058 H 190.103 0.523834 -0.518428 0
M  V30 2059 H 192.745 0.77576 -1.73442 0
M  V30 2060 H 190.895 3.2169 -2.17826 0
M  V30 2061 H 192.567 1.68783 -4.29313 0
M  V30 2062 H 190.81 1.52242 -4.06208 0
M  V30 2063 H 191.481 3.06921 -4.58807 0
M  V30 2064 H 193.957 3.19531 -2.66532 0
M  V30 2065 H 192.833 4.48577 -3.16339 0
M  V30 2066 H 193.094 4.17493 -1.45437 0
M  V30 2067 N 192.153 1.28127 0.917671 0
M  V30 2068 C 193.085 1.07517 2.02417 0
M  V30 2069 C 194.098 0.0281099 1.62776 0
M  V30 2070 O 195.287 0.270748 1.76435 0
M  V30 2071 C 192.387 0.610957 3.33347 0
M  V30 2072 C 191.56 1.73255 4.01624 0
M  V30 2073 C 190.619 1.26238 5.10833 0
M  V30 2074 O 189.645 1.96389 5.34247 0
M  V30 2075 N 190.847 0.123448 5.80369 0
M  V30 2076 H 193.612 2.02806 2.20658 0
M  V30 2077 H 191.173 1.19827 1.08871 0
M  V30 2078 H 193.165 0.280101 4.0373 0
M  V30 2079 H 191.735 -0.24898 3.11607 0
M  V30 2080 H 190.955 2.23319 3.24842 0
M  V30 2081 H 192.243 2.48503 4.43986 0
M  V30 2082 H 191.641 -0.461847 5.63812 0
M  V30 2083 H 190.198 -0.148158 6.51632 0
M  V30 2084 N 193.631 -1.12557 1.10312 0
M  V30 2085 C 194.856 -1.88405 0.867085 0
M  V30 2086 C 195.281 -1.79038 -0.576817 0
M  V30 2087 O 194.639 -1.14439 -1.40618 0
M  V30 2088 C 194.687 -3.3563 1.31851 0
M  V30 2089 O 193.791 -4.09565 0.482734 0
M  V30 2090 H 193.132 -0.585455 0.313271 0
M  V30 2091 H 195.662 -1.42352 1.4696 0
M  V30 2092 H 195.672 -3.86469 1.3079 0
M  V30 2093 H 194.347 -3.41765 2.37001 0
M  V30 2094 H 192.924 -3.68695 0.558448 0
M  V30 2095 N 195.109 -0.891671 -1.2995 0
M  V30 2096 C 196.357 -0.512486 -1.95494 0
M  V30 2097 C 196.678 0.942776 -1.70695 0
M  V30 2098 O 195.948 1.66374 -1.03424 0
M  V30 2099 H 194.528 -0.186533 -0.723336 0
M  V30 2100 H 197.19 -1.13621 -1.58355 0
M  V30 2101 H 196.286 -0.688342 -3.04415 0
M  V30 2102 N 196.587 1.43421 -0.653314 0
M  V30 2103 C 197.812 2.06678 -0.172846 0
M  V30 2104 C 198.237 1.48648 1.15262 0
M  V30 2105 O 197.595 0.596457 1.71208 0
M  V30 2106 C 197.643 3.60474 -0.0953184 0
M  V30 2107 O 196.747 4.01487 0.942442 0
M  V30 2108 H 196.088 0.657181 -0.0949155 0
M  V30 2109 H 198.618 1.83925 -0.896265 0
M  V30 2110 H 198.628 4.07905 0.0879728 0
M  V30 2111 H 197.303 4.02088 -1.06291 0
M  V30 2112 H 195.88 3.65646 0.731932 0
M  V30 2113 N 198.065 0.39524 1.52563 0
M  V30 2114 C 199.481 0.0454682 1.59535 0
M  V30 2115 C 199.681 -1.44056 1.4089 0
M  V30 2116 O 198.737 -2.20579 1.22888 0
M  V30 2117 C 200.05 0.527963 2.96029 0
M  V30 2118 C 201.598 0.484733 3.09224 0
M  V30 2119 C 202.073 0.943512 4.48176 0
M  V30 2120 N 203.564 0.899765 4.54377 0
M  V30 2121 C 204.299 1.22609 5.60138 0
M  V30 2122 N 203.795 1.62319 6.73516 0
M  V30 2123 N 205.588 1.14696 5.50274 0
M  V30 2124 H 197.739 1.36261 1.62931 0
M  V30 2125 H 200.002 0.558887 0.765735 0
M  V30 2126 H 199.708 1.56607 3.14908 0
M  V30 2127 H 199.582 -0.0698056 3.77135 0
M  V30 2128 H 201.969 -0.544298 2.90037 0
M  V30 2129 H 202.05 1.11838 2.30056 0
M  V30 2130 H 201.694 1.9708 4.68104 0
M  V30 2131 H 201.624 0.286817 5.25818 0
M  V30 2132 H 204.115 0.607632 3.72983 0
M  V30 2133 H 204.428 1.85567 7.5019 0
M  V30 2134 H 202.773 1.66211 6.74833 0
M  V30 2135 H 205.964 0.835701 4.6058 0
M  V30 2136 H 206.137 1.40459 6.32594 0
M  V30 2137 N 199.544 -1.57102 0.125237 0
M  V30 2138 C 200.474 -2.18659 -0.819174 0
M  V30 2139 C 201.455 -1.12843 -1.27281 0
M  V30 2140 O 202.64 -1.41104 -1.33429 0
M  V30 2141 C 199.77 -2.79096 -2.06695 0
M  V30 2142 C 198.724 -3.90548 -1.75088 0
M  V30 2143 C 198.05 -4.37821 -3.06948 0
M  V30 2144 C 199.35 -5.12356 -1.01435 0
M  V30 2145 H 201.044 -2.9783 -0.306202 0
M  V30 2146 H 198.59 -1.4326 -0.145839 0
M  V30 2147 H 200.543 -3.2082 -2.73226 0
M  V30 2148 H 199.267 -1.97223 -2.60328 0
M  V30 2149 H 197.926 -3.49409 -1.10944 0
M  V30 2150 H 197.574 -3.52799 -3.58527 0
M  V30 2151 H 197.274 -5.12982 -2.86571 0
M  V30 2152 H 198.798 -4.822 -3.74587 0
M  V30 2153 H 200.212 -5.5106 -1.58132 0
M  V30 2154 H 198.609 -5.9314 -0.911319 0
M  V30 2155 H 199.679 -4.849 -0.00218681 0
M  V30 2156 N 201.022 0.148545 -1.56898 0
M  V30 2157 C 201.952 1.18524 -2.01182 0
M  V30 2158 C 202.933 1.4489 -0.891123 0
M  V30 2159 O 204.118 1.55836 -1.15882 0
M  V30 2160 C 201.248 2.51879 -2.39112 0
M  V30 2161 C 200.202 2.40038 -3.54353 0
M  V30 2162 C 199.528 3.78089 -3.78091 0
M  V30 2163 C 200.828 1.88577 -4.87069 0
M  V30 2164 H 202.522 0.817029 -2.88036 0
M  V30 2165 H 200.068 0.391575 -1.38574 0
M  V30 2166 H 202.021 3.24627 -2.68692 0
M  V30 2167 H 200.745 2.90532 -1.49193 0
M  V30 2168 H 199.404 1.69742 -3.24936 0
M  V30 2169 H 199.052 4.14175 -2.85426 0
M  V30 2170 H 198.752 3.71028 -4.55645 0
M  V30 2171 H 200.276 4.52387 -4.10095 0
M  V30 2172 H 201.69 2.51117 -5.15377 0
M  V30 2173 H 200.087 1.9241 -5.68417 0
M  V30 2174 H 201.157 0.84136 -4.77545 0
M  V30 2175 N 202.5 1.5196 0.417844 0
M  V30 2176 C 203.747 1.65591 1.16559 0
M  V30 2177 C 204.075 0.381565 1.90721 0
M  V30 2178 O 203.33 -0.635156 1.85106 0
M  V30 2179 C 203.629 2.82269 2.19223 0
M  V30 2180 C 203.295 4.20819 1.61933 0
M  V30 2181 C 201.957 4.58506 1.46033 0
M  V30 2182 C 204.309 5.07196 1.20008 0
M  V30 2183 C 201.637 5.80257 0.867113 0
M  V30 2184 C 203.989 6.29544 0.621086 0
M  V30 2185 C 202.653 6.65987 0.449144 0
M  V30 2186 H 201.923 0.605939 0.42652 0
M  V30 2187 H 204.57 1.86041 0.45397 0
M  V30 2188 H 202.875 2.56118 2.96498 0
M  V30 2189 H 204.572 2.90012 2.76936 0
M  V30 2190 H 201.162 3.91116 1.7529 0
M  V30 2191 H 205.346 4.7867 1.31105 0
M  V30 2192 H 200.602 6.07124 0.721833 0
M  V30 2193 H 204.776 6.95805 0.287798 0
M  V30 2194 H 202.403 7.60199 -0.012632 0
M  V30 2195 N 203.978 -0.674533 1.42435 0
M  V30 2196 C 205.203 -1.46784 1.46524 0
M  V30 2197 C 205.628 -1.87938 0.078066 0
M  V30 2198 O 204.986 -1.56014 -0.92354 0
M  V30 2199 C 205.034 -2.69307 2.39805 0
M  V30 2200 O 204.138 -3.67587 1.86959 0
M  V30 2201 H 203.479 -0.440959 0.496439 0
M  V30 2202 H 206.009 -0.827326 1.87127 0
M  V30 2203 H 206.019 -3.17374 2.56393 0
M  V30 2204 H 204.694 -2.38692 3.40586 0
M  V30 2205 H 203.271 -3.2662 1.79927 0
M  V30 2206 N 205.456 -1.28612 -0.910864 0
M  V30 2207 C 206.419 -1.12803 -1.9952 0
M  V30 2208 C 207.419 -0.0668264 -1.60661 0
M  V30 2209 O 208.609 -0.312847 -1.71368 0
M  V30 2210 C 205.741 -0.72254 -3.33155 0
M  V30 2211 H 206.934 -2.09109 -2.14973 0
M  V30 2212 H 204.487 -1.11639 -1.09391 0
M  V30 2213 H 205.222 0.241152 -3.23402 0
M  V30 2214 H 205.007 -1.48916 -3.62721 0
M  V30 2215 H 206.497 -0.634666 -4.12749 0
M  V30 2216 N 206.934 1.1197 -1.10907 0
M  V30 2217 C 207.844 2.21433 -0.774896 0
M  V30 2218 C 208.86 1.72478 0.229657 0
M  V30 2219 O 210.036 2.01288 0.0672008 0
M  V30 2220 C 207.101 3.4602 -0.216986 0
M  V30 2221 C 206.162 4.09791 -1.27944 0
M  V30 2222 C 205.395 5.28431 -0.748055 0
M  V30 2223 O 205.618 5.68823 0.423833 0
M  V30 2224 O 204.552 5.82644 -1.51027 0
M  V30 2225 H 208.378 2.5242 -1.68873 0
M  V30 2226 H 205.963 1.20399 -0.884555 0
M  V30 2227 H 207.845 4.21304 0.090059 0
M  V30 2228 H 206.52 3.16698 0.669633 0
M  V30 2229 H 205.427 3.36265 -1.63941 0
M  V30 2230 H 206.76 4.4328 -2.13925 0
M  V30 2231 N 208.412 0.89855 1.29475 0
M  V30 2232 C 209.637 0.538561 2.00285 0
M  V30 2233 C 210.062 -0.869135 1.66816 0
M  V30 2234 O 209.42 -1.57831 0.892145 0
M  V30 2235 C 209.468 0.736475 3.52999 0
M  V30 2236 O 208.572 -0.211537 4.11857 0
M  V30 2237 H 207.913 0.210563 0.62973 0
M  V30 2238 H 210.443 1.20982 1.64998 0
M  V30 2239 H 210.453 0.640685 4.02938 0
M  V30 2240 H 209.128 1.76276 3.76696 0
M  V30 2241 H 207.705 -0.0682991 3.72837 0
M  V30 2242 N 209.89 -1.43072 0.660911 0
M  V30 2243 C 211.137 -2.01721 0.177445 0
M  V30 2244 C 211.465 -1.5218 -1.21126 0
M  V30 2245 O 210.72 -0.708659 -1.82419 0
M  V30 2246 C 211.019 -3.57103 0.145563 0
M  V30 2247 C 210.685 -4.26021 1.47705 0
M  V30 2248 C 209.347 -4.44563 1.84165 0
M  V30 2249 C 211.699 -4.64983 2.35458 0
M  V30 2250 C 209.027 -4.99334 3.0803 0
M  V30 2251 C 211.379 -5.21127 3.58622 0
M  V30 2252 C 210.043 -5.37884 3.95268 0
M  V30 2253 H 209.313 -0.73815 0.0649317 0
M  V30 2254 H 211.96 -1.71446 0.853144 0
M  V30 2255 H 210.265 -3.86965 -0.61361 0
M  V30 2256 H 211.962 -4.00248 -0.2455 0
M  V30 2257 H 208.552 -4.11939 1.18339 0
M  V30 2258 H 212.736 -4.50343 2.08579 0
M  V30 2259 H 207.992 -5.10493 3.36462 0
M  V30 2260 H 212.166 -5.50262 4.26831 0
M  V30 2261 H 209.793 -5.80089 4.91325 0
M  V30 2262 N 211.368 -0.403325 -1.52352 0
M  V30 2263 C 212.608 0.173946 -2.03659 0
M  V30 2264 C 212.972 1.42869 -1.28267 0
M  V30 2265 O 214.173 2.08403 -1.69769 0
M  V30 2266 C 212.444 0.421478 -3.54906 0
M  V30 2267 S 214.003 0.967027 -4.28012 0
M  V30 2268 H 210.821 0.0477461 -0.709395 0
M  V30 2269 H 213.423 -0.554906 -1.87459 0
M  V30 2270 H 212.127 -0.498616 -4.0736 0
M  V30 2271 H 211.658 1.17837 -3.75337 0
M  V30 2272 H 213.673 2.24812 -4.4235 0
M  V30 2273 N 212.846 1.57033 -0.133567 0
M  V30 2274 C 214.092 1.96764 0.515326 0
M  V30 2275 C 214.447 1.01653 1.63353 0
M  V30 2276 O 213.74 0.0491374 1.91537 0
M  V30 2277 C 213.934 3.40674 1.08057 0
M  V30 2278 C 213.763 4.49696 0.0186522 0
M  V30 2279 C 212.533 5.03567 -0.418174 0
M  V30 2280 C 214.731 5.08536 -0.767809 0
M  V30 2281 N 212.713 5.9618 -1.46434 0
M  V30 2282 C 214.084 5.97231 -1.6648 0
M  V30 2283 C 216.139 4.9115 -0.817087 0
M  V30 2284 C 214.842 6.70401 -2.60681 0
M  V30 2285 C 216.868 5.65012 -1.74687 0
M  V30 2286 C 216.23 6.53403 -2.63141 0
M  V30 2287 H 212.329 0.765919 0.157771 0
M  V30 2288 H 214.913 1.93395 -0.22506 0
M  V30 2289 H 213.084 3.44662 1.79061 0
M  V30 2290 H 214.816 3.67495 1.69497 0
M  V30 2291 H 211.571 4.73594 -0.0229803 0
M  V30 2292 H 211.995 6.47191 -1.98678 0
M  V30 2293 H 216.637 4.22543 -0.147326 0
M  V30 2294 H 214.355 7.38245 -3.28664 0
M  V30 2295 H 217.941 5.53559 -1.79063 0
M  V30 2296 H 216.821 7.09556 -3.33917 0
M  V30 2297 N 214.325 -0.140222 1.56975 0
M  V30 2298 C 215.736 -0.699596 1.73097 0
M  V30 2299 C 216.087 -1.8134 0.749022 0
M  V30 2300 O 215.212 -2.16241 -0.0828503 0
M  V30 2301 C 215.807 -1.27582 3.1386 0
M  V30 2302 C 214.366 -1.78169 3.31561 0
M  V30 2303 C 213.513 -0.672855 2.69013 0
M  V30 2304 H 216.464 0.0855115 1.58469 0
M  V30 2305 H 216.485 -2.14561 3.14235 0
M  V30 2306 H 215.997 -0.464955 3.85305 0
M  V30 2307 H 214.098 -2.61801 2.65124 0
M  V30 2308 H 214.211 -1.90574 4.39566 0
M  V30 2309 H 212.575 -1.10118 2.29665 0
M  V30 2310 H 213.358 0.126679 3.43066 0
M  V30 2311 N 215.803 -1.52179 -0.40978 0
M  V30 2312 C 216.713 -1.78364 -1.52392 0
M  V30 2313 C 217.729 -0.669183 -1.60617 0
M  V30 2314 O 218.905 -0.954518 -1.77344 0
M  V30 2315 C 215.97 -1.92822 -2.88133 0
M  V30 2316 C 215.031 -3.16725 -2.898 0
M  V30 2317 C 214.264 -3.30483 -4.19067 0
M  V30 2318 O 214.487 -2.49522 -5.12928 0
M  V30 2319 O 213.421 -4.2363 -4.27576 0
M  V30 2320 H 217.247 -2.72931 -1.33201 0
M  V30 2321 H 214.832 -1.37016 -0.59557 0
M  V30 2322 H 216.714 -2.04157 -3.68643 0
M  V30 2323 H 215.389 -1.01444 -3.07393 0
M  V30 2324 H 214.296 -3.10848 -2.08146 0
M  V30 2325 H 215.629 -4.07881 -2.75489 0
M  V30 2326 N 217.281 0.66697 -1.42791 0
M  V30 2327 C 218.527 1.42754 -1.44889 0
M  V30 2328 C 218.882 1.92283 -0.0669755 0
M  V30 2329 O 218.175 1.68494 0.912154 0
M  V30 2330 C 218.369 2.6349 -2.4147 0
M  V30 2331 C 218.198 2.25776 -3.88915 0
M  V30 2332 C 216.968 2.1476 -4.57391 0
M  V30 2333 C 219.166 1.86927 -4.79127 0
M  V30 2334 N 217.148 1.70232 -5.89826 0
M  V30 2335 C 218.519 1.53378 -6.00729 0
M  V30 2336 C 220.574 1.73989 -4.66511 0
M  V30 2337 C 219.277 1.08187 -7.11117 0
M  V30 2338 C 221.303 1.30203 -5.76889 0
M  V30 2339 C 220.665 0.975818 -6.97608 0
M  V30 2340 H 216.764 0.518559 -0.585338 0
M  V30 2341 H 219.348 0.768906 -1.78874 0
M  V30 2342 H 217.519 3.27033 -2.09533 0
M  V30 2343 H 219.251 3.30123 -2.34096 0
M  V30 2344 H 216.006 2.3408 -4.11708 0
M  V30 2345 H 216.43 1.50369 -6.6009 0
M  V30 2346 H 221.072 1.97853 -3.7365 0
M  V30 2347 H 218.79 0.830701 -8.03819 0
M  V30 2348 H 222.376 1.20701 -5.69142 0
M  V30 2349 H 221.256 0.642157 -7.81566 0
M  V30 2350 N 218.759 1.29093 0.90403 0
M  V30 2351 C 220.007 1.16583 1.65085 0
M  V30 2352 C 220.328 -0.283933 1.92922 0
M  V30 2353 O 219.598 -1.19509 1.55224 0
M  V30 2354 H 218.178 0.428467 0.611903 0
M  V30 2355 H 220.84 1.61959 1.08422 0
M  V30 2356 H 219.936 1.71266 2.6091 0
M  V30 2357 N 220.237 -1.11381 1.11499 0
M  V30 2358 C 221.167 -2.19509 0.796125 0
M  V30 2359 C 222.148 -1.68458 -0.235796 0
M  V30 2360 O 223.333 -1.93947 -0.0991344 0
M  V30 2361 C 220.463 -3.46475 0.239205 0
M  V30 2362 C 219.417 -4.10744 1.20307 0
M  V30 2363 C 218.743 -5.32293 0.50683 0
M  V30 2364 C 220.043 -4.55597 2.55399 0
M  V30 2365 H 221.737 -2.46439 1.70024 0
M  V30 2366 H 219.283 -1.18446 0.818935 0
M  V30 2367 H 221.236 -4.214 0.00392006 0
M  V30 2368 H 219.96 -3.19006 -0.700206 0
M  V30 2369 H 218.619 -3.37813 1.42399 0
M  V30 2370 H 218.267 -5.01095 -0.437408 0
M  V30 2371 H 217.967 -5.76243 1.1497 0
M  V30 2372 H 219.491 -6.09956 0.280351 0
M  V30 2373 H 220.905 -5.21841 2.37391 0
M  V30 2374 H 219.302 -5.10363 3.15673 0
M  V30 2375 H 220.372 -3.69013 3.14575 0
M  V30 2376 N 221.715 -0.905404 -1.28997 0
M  V30 2377 C 222.678 -0.392253 -2.25819 0
M  V30 2378 C 223.678 0.476753 -1.5357 0
M  V30 2379 O 224.868 0.280994 -1.71919 0
M  V30 2380 C 222 0.438588 -3.38067 0
M  V30 2381 H 223.193 -1.24743 -2.72725 0
M  V30 2382 H 220.746 -0.684051 -1.40536 0
M  V30 2383 H 221.481 1.31352 -2.96508 0
M  V30 2384 H 221.266 -0.184167 -3.91667 0
M  V30 2385 H 222.756 0.78873 -4.10084 0
M  V30 2386 N 223.193 1.4272 -0.668489 0
M  V30 2387 C 224.103 2.34596 0.0139753 0
M  V30 2388 C 225.119 1.5474 0.795703 0
M  V30 2389 O 226.295 1.87334 0.739466 0
M  V30 2390 C 223.36 3.33202 0.957982 0
M  V30 2391 C 222.421 4.28957 0.17149 0
M  V30 2392 C 221.654 5.22853 1.07053 0
M  V30 2393 O 221.877 5.21531 2.31001 0
M  V30 2394 O 220.811 5.9952 0.534727 0
M  V30 2395 H 224.637 2.9448 -0.742661 0
M  V30 2396 H 222.222 1.43117 -0.428705 0
M  V30 2397 H 224.104 3.93796 1.50008 0
M  V30 2398 H 222.779 2.758 1.69458 0
M  V30 2399 H 221.686 3.71796 -0.414558 0
M  V30 2400 H 223.019 4.89383 -0.52586 0
M  V30 2401 N 224.671 0.411399 1.52136 0
M  V30 2402 C 225.603 -0.448386 2.24771 0
M  V30 2403 C 226.616 -1.00828 1.27818 0
M  V30 2404 O 227.805 -0.906841 1.53749 0
M  V30 2405 C 224.905 -1.63636 2.96777 0
M  V30 2406 C 224.078 -1.19995 4.20618 0
M  V30 2407 C 223.137 -2.25509 4.75428 0
M  V30 2408 O 222.163 -1.86007 5.3795 0
M  V30 2409 N 223.365 -3.577 4.57199 0
M  V30 2410 H 226.13 0.174025 2.99194 0
M  V30 2411 H 223.691 0.238897 1.60128 0
M  V30 2412 H 225.683 -2.33793 3.30338 0
M  V30 2413 H 224.253 -2.16465 2.25526 0
M  V30 2414 H 223.473 -0.326421 3.92846 0
M  V30 2415 H 224.761 -0.885365 5.01038 0
M  V30 2416 H 224.159 -3.92543 4.07341 0
M  V30 2417 H 222.716 -4.23827 4.95191 0
M  V30 2418 N 226.149 -1.5696 0.141893 0
M  V30 2419 C 227.379 -2.00031 -0.516828 0
M  V30 2420 C 227.787 -1.02091 -1.59293 0
M  V30 2421 O 227.13 -0.00909657 -1.83698 0
M  V30 2422 C 227.192 -3.39534 -1.1814 0
M  V30 2423 C 226.856 -4.56313 -0.250513 0
M  V30 2424 C 227.853 -5.17295 0.519839 0
M  V30 2425 C 225.538 -5.02061 -0.154907 0
M  V30 2426 C 227.532 -6.2243 1.3733 0
M  V30 2427 C 225.219 -6.07053 0.702161 0
M  V30 2428 C 226.217 -6.67106 1.46487 0
M  V30 2429 O 225.905 -7.70066 2.30767 0
M  V30 2430 H 225.637 -0.661451 -0.139493 0
M  V30 2431 H 228.191 -2.04086 0.231926 0
M  V30 2432 H 226.421 -3.32302 -1.97769 0
M  V30 2433 H 228.11 -3.66745 -1.73933 0
M  V30 2434 H 228.876 -4.82852 0.45598 0
M  V30 2435 H 224.755 -4.5505 -0.7383 0
M  V30 2436 H 228.299 -6.69233 1.96909 0
M  V30 2437 H 224.196 -6.40923 0.76733 0
M  V30 2438 H 224.964 -7.87264 2.23959 0
M  V30 2439 N 227.627 0.131896 -1.57047 0
M  V30 2440 C 229.038 0.690407 -1.73465 0
M  V30 2441 C 229.389 1.8094 -0.758629 0
M  V30 2442 O 228.514 2.16282 0.0713813 0
M  V30 2443 C 229.109 1.25916 -3.14532 0
M  V30 2444 C 227.668 1.76409 -3.32501 0
M  V30 2445 C 226.815 0.658579 -2.69366 0
M  V30 2446 H 229.766 -0.0939144 -1.58422 0
M  V30 2447 H 229.787 2.12892 -3.15369 0
M  V30 2448 H 229.299 0.444515 -3.85546 0
M  V30 2449 H 227.4 2.60391 -2.66509 0
M  V30 2450 H 227.513 1.88241 -4.4057 0
M  V30 2451 H 225.877 1.08899 -2.30246 0
M  V30 2452 H 226.66 -0.14487 -3.42994 0
M  V30 2453 N 229.106 1.52395 0.401703 0
M  V30 2454 C 230.016 1.7917 1.51444 0
M  V30 2455 C 231.032 0.677691 1.6026 0
M  V30 2456 O 232.208 0.963909 1.76835 0
M  V30 2457 C 229.273 1.94347 2.87107 0
M  V30 2458 C 228.334 3.18257 2.88116 0
M  V30 2459 C 227.567 3.32701 4.17308 0
M  V30 2460 O 227.79 2.52238 5.11598 0
M  V30 2461 O 226.724 4.25891 4.25324 0
M  V30 2462 H 230.55 2.73633 1.31752 0
M  V30 2463 H 228.135 1.3733 0.588296 0
M  V30 2464 H 230.017 2.06109 3.67555 0
M  V30 2465 H 228.692 1.03073 3.06851 0
M  V30 2466 H 227.599 3.11947 2.06494 0
M  V30 2467 H 228.932 4.09336 2.73322 0
M  V30 2468 N 230.584 -0.659388 1.43143 0
M  V30 2469 C 231.83 -1.42145 1.44647 0
M  V30 2470 C 232.163 -1.9408 0.0681907 0
M  V30 2471 O 231.438 -1.71899 -0.910007 0
M  V30 2472 C 231.721 -2.60735 2.48373 0
M  V30 2473 C 231.574 -2.14332 3.95451 0
M  V30 2474 C 232.893 -3.62951 2.48906 0
M  V30 2475 H 230.012 -0.51552 0.526696 0
M  V30 2476 H 232.654 -0.748069 1.74654 0
M  V30 2477 H 230.804 -3.18184 2.22916 0
M  V30 2478 H 232.476 -1.61932 4.31944 0
M  V30 2479 H 230.719 -1.4576 4.08578 0
M  V30 2480 H 231.39 -2.99583 4.63631 0
M  V30 2481 H 233.866 -3.1525 2.71582 0
M  V30 2482 H 232.742 -4.43487 3.23435 0
M  V30 2483 H 233.003 -4.15126 1.52061 0
M  V30 2484 N 232.062 -1.29571 -0.897171 0
M  V30 2485 C 233.31 -1.17456 -1.64464 0
M  V30 2486 C 233.631 0.273698 -1.9307 0
M  V30 2487 O 232.901 1.18684 -1.55855 0
M  V30 2488 H 231.481 -0.431706 -0.609622 0
M  V30 2489 H 234.143 -1.62531 -1.07562 0
M  V30 2490 H 233.239 -1.72648 -2.59998 0
M  V30 2491 N 233.54 1.10788 -1.12088 0
M  V30 2492 C 234.768 1.86461 -0.896651 0
M  V30 2493 C 235.183 1.80492 0.553912 0
M  V30 2494 O 234.54 1.19102 1.38278 0
M  V30 2495 C 234.591 3.35006 -1.35843 0
M  V30 2496 O 234.312 3.40866 -2.75213 0
M  V30 2497 C 235.813 4.27565 -1.1706 0
M  V30 2498 H 233.033 0.589425 -0.320654 0
M  V30 2499 H 235.577 1.40076 -1.48993 0
M  V30 2500 H 233.732 3.7887 -0.808458 0
M  V30 2501 H 234.146 4.33411 -2.9539 0
M  V30 2502 H 235.62 5.30007 -1.54263 0
M  V30 2503 H 236.097 4.3906 -0.110814 0
M  V30 2504 H 236.703 3.89501 -1.70789 0
M  V30 2505 N 235.018 0.912232 1.28515 0
M  V30 2506 C 236.266 0.543523 1.94654 0
M  V30 2507 C 236.587 -0.9155 1.72173 0
M  V30 2508 O 235.857 -1.64708 1.06058 0
M  V30 2509 H 234.437 0.198017 0.720277 0
M  V30 2510 H 237.099 1.16126 1.56527 0
M  V30 2511 H 236.195 0.736684 3.03281 0
M  V30 2512 N 236.496 -1.42363 0.676048 0
M  V30 2513 C 237.443 -2.308 -0.00150904 0
M  V30 2514 C 238.413 -1.46032 -0.791444 0
M  V30 2515 O 239.598 -1.74861 -0.76344 0
M  V30 2516 C 236.738 -3.31883 -0.945919 0
M  V30 2517 C 235.851 -4.31741 -0.149675 0
M  V30 2518 C 234.986 -5.19898 -1.08995 0
M  V30 2519 C 234.025 -6.11434 -0.285465 0
M  V30 2520 N 233.162 -6.92138 -1.17851 0
M  V30 2521 H 238.002 -2.88187 0.758455 0
M  V30 2522 H 235.539 -1.41952 0.38576 0
M  V30 2523 H 237.497 -3.89019 -1.50731 0
M  V30 2524 H 236.127 -2.76093 -1.6725 0
M  V30 2525 H 235.179 -3.76713 0.528359 0
M  V30 2526 H 236.491 -4.96534 0.474866 0
M  V30 2527 H 235.645 -5.81772 -1.72123 0
M  V30 2528 H 234.384 -4.55284 -1.74837 0
M  V30 2529 H 233.389 -5.48627 0.359018 0
M  V30 2530 H 234.614 -6.78097 0.368883 0
M  V30 2531 H 232.56 -6.30152 -1.82332 0
M  V30 2532 H 232.477 -7.53542 -0.609082 0
M  V30 2533 H 233.745 -7.58499 -1.79722 0
M  V30 2534 N 237.974 -0.419461 -1.51915 0
M  V30 2535 C 239.39 -0.0708431 -1.59443 0
M  V30 2536 C 239.59 1.41796 -1.43164 0
M  V30 2537 O 238.646 2.18596 -1.26381 0
M  V30 2538 C 239.959 -0.574991 -2.95151 0
M  V30 2539 C 241.507 -0.533867 -3.08413 0
M  V30 2540 C 241.982 -1.01469 -4.46618 0
M  V30 2541 N 243.473 -0.971939 -4.52888 0
M  V30 2542 C 244.208 -1.31505 -5.58116 0
M  V30 2543 N 243.704 -1.73014 -6.70849 0
M  V30 2544 N 245.497 -1.23436 -5.48379 0
M  V30 2545 H 237.648 -1.38836 -1.60743 0
M  V30 2546 H 239.911 -0.570998 -0.756747 0
M  V30 2547 H 239.617 -1.61597 -3.12377 0
M  V30 2548 H 239.491 0.00979777 -3.77199 0
M  V30 2549 H 241.878 0.498086 -2.90866 0
M  V30 2550 H 241.959 -1.15484 -2.28248 0
M  V30 2551 H 241.603 -2.04502 -4.6491 0
M  V30 2552 H 241.533 -0.370433 -5.25295 0
M  V30 2553 H 244.024 -0.666893 -3.71969 0
M  V30 2554 H 244.337 -1.97479 -7.47143 0
M  V30 2555 H 242.682 -1.76926 -6.72103 0
M  V30 2556 H 245.873 -0.908869 -4.59192 0
M  V30 2557 H 246.046 -1.50506 -6.30279 0
M  V30 2558 N 239.452 1.56882 -0.150215 0
M  V30 2559 C 240.699 1.96228 0.500093 0
M  V30 2560 C 241.027 1.03522 1.64661 0
M  V30 2561 O 240.282 0.0650683 1.95592 0
M  V30 2562 C 240.581 3.41801 1.04437 0
M  V30 2563 C 240.247 4.50897 0.0159671 0
M  V30 2564 C 238.909 4.8046 -0.266731 0
M  V30 2565 C 241.261 5.16703 -0.683192 0
M  V30 2566 C 238.589 5.73135 -1.25434 0
M  V30 2567 C 240.941 6.10441 -1.65964 0
M  V30 2568 C 239.605 6.38382 -1.95 0
M  V30 2569 H 238.875 0.718048 0.182997 0
M  V30 2570 H 241.522 1.90019 -0.237724 0
M  V30 2571 H 239.827 3.44857 1.85959 0
M  V30 2572 H 241.524 3.69573 1.55618 0
M  V30 2573 H 238.114 4.27891 0.246485 0
M  V30 2574 H 242.298 4.93993 -0.477983 0
M  V30 2575 H 237.554 5.93074 -1.48571 0
M  V30 2576 H 241.728 6.60507 -2.20689 0
M  V30 2577 H 239.355 7.09996 -2.71679 0
M  V30 2578 N 240.93 -0.123565 1.57115 0
M  V30 2579 C 241.86 -1.15309 2.03042 0
M  V30 2580 C 242.841 -1.43454 0.914061 0
M  V30 2581 O 244.026 -1.53973 1.18347 0
M  V30 2582 C 241.156 -2.48043 2.43089 0
M  V30 2583 C 240.11 -2.3437 3.58127 0
M  V30 2584 C 239.436 -3.72026 3.84059 0
M  V30 2585 C 240.736 -1.80804 4.90007 0
M  V30 2586 H 242.43 -0.771102 2.893 0
M  V30 2587 H 239.976 -0.369479 1.39179 0
M  V30 2588 H 241.929 -3.20311 2.73823 0
M  V30 2589 H 240.653 -2.88122 1.53796 0
M  V30 2590 H 239.312 -1.64551 3.27595 0
M  V30 2591 H 238.96 -4.09582 2.91979 0
M  V30 2592 H 238.66 -3.63732 4.6149 0
M  V30 2593 H 240.184 -4.45806 4.1724 0
M  V30 2594 H 241.598 -2.42886 5.19307 0
M  V30 2595 H 239.995 -1.83343 5.71407 0
M  V30 2596 H 241.065 -0.76528 4.78823 0
M  V30 2597 N 242.408 -1.52605 -0.393616 0
M  V30 2598 C 243.356 -1.77688 -1.50099 0
M  V30 2599 C 244.35 -0.644615 -1.56656 0
M  V30 2600 O 245.556 -0.826997 -1.59877 0
M  V30 2601 H 241.931 -0.562159 -0.499481 0
M  V30 2602 H 243.902 -2.7043 -1.26135 0
M  V30 2603 C 242.651 -1.95858 -2.87289 0
M  V30 2604 H 241.974 -2.8241 -2.82992 0
M  V30 2605 H 243.414 -2.174 -3.64024 0
M  V30 2606 C 241.873 -0.729848 -3.28899 0
M  V30 2607 O 242.403 0.0949217 -4.01588 0
M  V30 2608 N 240.609 -0.561283 -2.85128 0
M  V30 2609 H 240.156 -1.23357 -2.26143 0
M  V30 2610 H 240.114 0.2595 -3.13327 0
M  V30 2611 N 243.887 0.651787 -1.4349 0
M  V30 2612 C 245.112 1.44434 -1.48841 0
M  V30 2613 C 245.537 1.8779 -0.107955 0
M  V30 2614 O 244.895 1.57464 0.898602 0
M  V30 2615 C 244.943 2.65458 -2.44059 0
M  V30 2616 O 244.047 3.64566 -1.92784 0
M  V30 2617 H 243.388 0.433005 -0.503391 0
M  V30 2618 H 245.918 0.797451 -1.88419 0
M  V30 2619 H 245.928 3.13255 -2.6141 0
M  V30 2620 H 244.603 2.33244 -3.4434 0
M  V30 2621 H 243.18 3.23716 -1.851 0
M  V30 2622 N 245.365 1.30045 0.890287 0
M  V30 2623 C 246.613 1.18327 1.63839 0
M  V30 2624 C 246.934 -0.263455 1.93212 0
M  V30 2625 O 246.204 -1.17856 1.56482 0
M  V30 2626 H 244.784 0.434933 0.607324 0
M  V30 2627 H 247.446 1.631 1.06698 0
M  V30 2628 H 246.542 1.74024 2.59079 0
M  V30 2629 N 246.843 -1.10192 1.12674 0
M  V30 2630 C 248.091 -1.81845 0.881861 0
M  V30 2631 C 248.412 -1.85737 -0.593867 0
M  V30 2632 O 247.682 -1.33724 -1.4316 0
M  V30 2633 H 246.262 -0.673432 0.323261 0
M  V30 2634 H 248.924 -1.33316 1.42172 0
M  V30 2635 H 248.02 -2.85288 1.2656 0
M  V30 2636 N 248.321 -0.919034 -1.28029 0
M  V30 2637 C 249.568 -0.554934 -1.94748 0
M  V30 2638 C 249.896 0.90231 -1.72304 0
M  V30 2639 O 249.151 1.65767 -1.04018 0
M  V30 2640 C 249.45 -0.816855 -3.4794 0
M  V30 2641 C 249.116 -2.25448 -3.90492 0
M  V30 2642 C 247.778 -2.64752 -4.01821 0
M  V30 2643 C 250.13 -3.18977 -4.12193 0
M  V30 2644 C 247.458 -3.96727 -4.32232 0
M  V30 2645 C 249.81 -4.50523 -4.44086 0
M  V30 2646 C 248.474 -4.89673 -4.53626 0
M  V30 2647 H 247.744 -0.203065 -0.712633 0
M  V30 2648 H 250.391 -1.16136 -1.52265 0
M  V30 2649 H 248.696 -0.127677 -3.91592 0
M  V30 2650 H 250.393 -0.514238 -3.97689 0
M  V30 2651 H 246.983 -1.93952 -3.82205 0
M  V30 2652 H 251.167 -2.89817 -4.02889 0
M  V30 2653 H 246.423 -4.26754 -4.37825 0
M  V30 2654 H 250.597 -5.23005 -4.59825 0
M  V30 2655 H 248.224 -5.91969 -4.76946 0
M  V30 2656 N 249.799 1.42003 -0.683588 0
M  V30 2657 C 251.048 2.00638 -0.206681 0
M  V30 2658 C 251.361 1.5472 1.19671 0
M  V30 2659 O 252.567 2.05833 1.77045 0
M  V30 2660 C 251.023 3.58487 -0.318632 0
M  V30 2661 C 250.631 4.1339 -1.72663 0
M  V30 2662 C 252.375 4.24384 0.0991141 0
M  V30 2663 C 250.282 5.63633 -1.79087 0
M  V30 2664 H 249.212 0.750408 -0.0735107 0
M  V30 2665 H 251.863 1.62624 -0.850048 0
M  V30 2666 H 250.245 3.94047 0.392781 0
M  V30 2667 H 251.419 3.89273 -2.46583 0
M  V30 2668 H 249.734 3.59976 -2.09299 0
M  V30 2669 H 252.331 5.34652 0.0713833 0
M  V30 2670 H 252.674 4.00505 1.13586 0
M  V30 2671 H 253.207 3.93816 -0.561599 0
M  V30 2672 H 249.946 5.92323 -2.80774 0
M  V30 2673 H 249.466 5.89714 -1.09535 0
M  V30 2674 H 251.145 6.28201 -1.5483 0
M  V30 2675 N 251.277 0.427512 1.51691 0
M  V30 2676 C 252.525 -0.141948 2.01601 0
M  V30 2677 C 252.846 -1.44067 1.31414 0
M  V30 2678 O 252.116 -1.90763 0.445658 0
M  V30 2679 H 250.696 -0.0554468 0.744939 0
M  V30 2680 H 253.358 0.567968 1.86441 0
M  V30 2681 H 252.454 -0.324913 3.10404 0
M  V30 2682 N 252.755 -1.56801 0.158532 0
M  V30 2683 C 254.002 -1.9649 -0.489679 0
M  V30 2684 C 254.33 -1.04394 -1.6411 0
M  V30 2685 O 253.585 -0.0754401 -1.95555 0
M  V30 2686 C 253.884 -3.4235 -1.02623 0
M  V30 2687 C 253.55 -4.50899 0.00794526 0
M  V30 2688 C 252.212 -4.80312 0.292207 0
M  V30 2689 C 254.564 -5.16333 0.710584 0
M  V30 2690 C 251.892 -5.72461 1.28472 0
M  V30 2691 C 254.244 -6.09553 1.69199 0
M  V30 2692 C 252.908 -6.37339 1.98383 0
M  V30 2693 H 252.178 -0.719009 -0.179186 0
M  V30 2694 H 254.825 -1.8989 0.247798 0
M  V30 2695 H 253.13 -3.45838 -1.84128 0
M  V30 2696 H 254.827 -3.70393 -1.53656 0
M  V30 2697 H 251.417 -4.28015 -0.22379 0
M  V30 2698 H 255.601 -4.93732 0.504174 0
M  V30 2699 H 250.857 -5.92278 1.51714 0
M  V30 2700 H 255.031 -6.59327 2.24189 0
M  V30 2701 H 252.658 -7.08546 2.7544 0
M  V30 2702 N 254.233 0.115231 -1.57178 0
M  V30 2703 C 255.196 1.12526 -1.99676 0
M  V30 2704 C 256.196 1.34095 -0.88742 0
M  V30 2705 O 257.386 1.30548 -1.15337 0
M  V30 2706 C 254.518 2.4789 -2.34015 0
M  V30 2707 H 255.711 0.759912 -2.90113 0
M  V30 2708 H 253.264 0.359648 -1.52106 0
M  V30 2709 H 253.999 2.89339 -1.4647 0
M  V30 2710 H 253.784 2.33588 -3.14927 0
M  V30 2711 H 255.274 3.20575 -2.67622 0
M  V30 2712 N 255.711 1.52812 0.385517 0
M  V30 2713 C 256.939 1.71907 1.15133 0
M  V30 2714 C 257.354 0.439004 1.83625 0
M  V30 2715 O 256.711 -0.586765 1.7281 0
M  V30 2716 C 256.762 2.87099 2.19673 0
M  V30 2717 O 256.483 4.10151 1.53973 0
M  V30 2718 C 257.984 3.17902 3.08955 0
M  V30 2719 H 255.204 0.575479 0.345057 0
M  V30 2720 H 257.748 1.99476 0.45052 0
M  V30 2721 H 255.903 2.61982 2.85384 0
M  V30 2722 H 256.317 4.74514 2.23465 0
M  V30 2723 H 257.791 4.01959 3.7833 0
M  V30 2724 H 258.268 2.3243 3.72657 0
M  V30 2725 H 258.874 3.44871 2.48885 0
M  V30 2726 N 257.189 -0.644168 1.43834 0
M  V30 2727 C 258.417 -1.43147 1.49387 0
M  V30 2728 C 258.832 -1.88452 0.114583 0
M  V30 2729 O 258.189 -1.60047 -0.876989 0
M  V30 2730 C 258.24 -2.66046 2.44748 0
M  V30 2731 O 257.961 -2.22633 3.77314 0
M  V30 2732 C 259.462 -3.59311 2.59635 0
M  V30 2733 H 256.682 -0.439447 0.507077 0
M  V30 2734 H 259.226 -0.78895 1.88669 0
M  V30 2735 H 257.381 -3.26418 2.08638 0
M  V30 2736 H 257.795 -3.02216 4.28679 0
M  V30 2737 H 259.269 -4.42187 3.30416 0
M  V30 2738 H 259.746 -4.07259 1.64427 0
M  V30 2739 H 260.352 -3.04816 2.96593 0
M  V30 2740 N 258.668 -1.30515 -0.883378 0
M  V30 2741 C 259.917 -1.18795 -1.63005 0
M  V30 2742 C 260.23 0.255923 -1.93919 0
M  V30 2743 O 261.436 0.494654 -2.66956 0
M  V30 2744 C 259.892 -2.07878 -2.93794 0
M  V30 2745 C 259.5 -3.57184 -2.70414 0
M  V30 2746 C 261.244 -2.04924 -3.71761 0
M  V30 2747 C 259.151 -4.38317 -3.97029 0
M  V30 2748 H 258.081 -0.441031 -0.611562 0
M  V30 2749 H 260.732 -1.55275 -0.977854 0
M  V30 2750 H 259.114 -1.64283 -3.60315 0
M  V30 2751 H 260.288 -4.08937 -2.12384 0
M  V30 2752 H 258.603 -3.61976 -2.0582 0
M  V30 2753 H 261.2 -2.62792 -4.65665 0
M  V30 2754 H 261.543 -1.0331 -4.03277 0
M  V30 2755 H 262.076 -2.46649 -3.12104 0
M  V30 2756 H 258.815 -5.40632 -3.70671 0
M  V30 2757 H 258.335 -3.91326 -4.54559 0
M  V30 2758 H 260.014 -4.49834 -4.65036 0
M  V30 2759 N 260.146 1.09593 -1.13257 0
M  V30 2760 C 261.096 2.14345 -0.777179 0
M  V30 2761 C 262.08 1.59277 0.227966 0
M  V30 2762 O 263.272 1.76971 0.0321413 0
M  V30 2763 C 260.401 3.42439 -0.242991 0
M  V30 2764 C 259.487 4.04419 -1.27694 0
M  V30 2765 N 259.878 4.40979 -2.47732 0
M  V30 2766 C 258.176 4.31596 -1.12432 0
M  V30 2767 C 258.877 4.89784 -3.13826 0
M  V30 2768 N 257.853 4.87133 -2.41252 0
M  V30 2769 H 261.655 2.40415 -1.69049 0
M  V30 2770 H 259.169 1.26803 -1.01463 0
M  V30 2771 H 261.166 4.16889 0.0298496 0
M  V30 2772 H 259.826 3.17824 0.66467 0
M  V30 2773 H 260.837 4.32396 -2.85051 0
M  V30 2774 H 257.514 4.16595 -0.274684 0
M  V30 2775 H 258.904 5.2755 -4.16102 0
M  V30 2776 N 261.624 0.925811 1.2754 0
M  V30 2777 C 262.556 0.380753 2.26015 0
M  V30 2778 C 263.569 -0.487485 1.5533 0
M  V30 2779 O 264.758 -0.300413 1.75954 0
M  V30 2780 C 261.858 -0.473259 3.35579 0
M  V30 2781 C 261.031 0.375249 4.35787 0
M  V30 2782 C 260.09 -0.415809 5.24555 0
M  V30 2783 O 259.116 0.175834 5.68928 0
M  V30 2784 N 260.318 -1.71607 5.54555 0
M  V30 2785 H 263.083 1.22725 2.73421 0
M  V30 2786 H 260.644 0.793037 1.41147 0
M  V30 2787 H 262.636 -1.00949 3.91907 0
M  V30 2788 H 261.206 -1.2205 2.87789 0
M  V30 2789 H 260.426 1.09279 3.7875 0
M  V30 2790 H 261.714 0.955399 4.99749 0
M  V30 2791 H 261.112 -2.2191 5.20358 0
M  V30 2792 H 259.669 -2.19887 6.1359 0
M  V30 2793 N 263.102 -1.41638 0.69111 0
M  V30 2794 C 264.351 -2.00526 0.217318 0
M  V30 2795 C 264.664 -1.55353 -1.18848 0
M  V30 2796 O 265.87 -2.06769 -1.75951 0
M  V30 2797 C 264.326 -3.58313 0.337639 0
M  V30 2798 C 263.934 -4.12469 1.74852 0
M  V30 2799 C 265.678 -4.24431 -0.0766066 0
M  V30 2800 C 263.585 -5.62675 1.82074 0
M  V30 2801 H 262.515 -0.750008 0.0774893 0
M  V30 2802 H 265.166 -1.6217 0.858661 0
M  V30 2803 H 263.548 -3.9425 -0.371879 0
M  V30 2804 H 264.722 -3.8796 2.48644 0
M  V30 2805 H 263.037 -3.58861 2.11205 0
M  V30 2806 H 265.634 -5.34683 -0.0430284 0
M  V30 2807 H 265.977 -4.01101 -1.1146 0
M  V30 2808 H 266.51 -3.93512 0.582476 0
M  V30 2809 H 263.249 -5.90826 2.83911 0
M  V30 2810 H 262.769 -5.89124 1.12661 0
M  V30 2811 H 264.448 -6.27371 1.58159 0
M  V30 2812 N 264.58 -0.43555 -1.51462 0
M  V30 2813 C 265.826 0.131709 -2.02372 0
M  V30 2814 C 266.159 1.42516 -1.3192 0
M  V30 2815 O 265.434 1.89606 -0.433573 0
M  V30 2816 C 265.717 0.352301 -3.58373 0
M  V30 2817 C 265.57 -0.959676 -4.39443 0
M  V30 2818 C 266.889 1.12286 -4.25535 0
M  V30 2819 H 264.008 0.0463936 -0.735538 0
M  V30 2820 H 266.65 -0.574197 -1.81116 0
M  V30 2821 H 264.8 0.9536 -3.76615 0
M  V30 2822 H 266.472 -1.59482 -4.32855 0
M  V30 2823 H 264.715 -1.56468 -4.04599 0
M  V30 2824 H 265.386 -0.759394 -5.46752 0
M  V30 2825 H 267.862 0.613545 -4.11552 0
M  V30 2826 H 266.738 1.24598 -5.34571 0
M  V30 2827 H 266.999 2.15048 -3.86273 0
M  V30 2828 N 266.058 1.56714 -0.166846 0
M  V30 2829 C 267.474 1.58473 0.189372 0
M  V30 2830 C 267.674 1.18201 1.63189 0
M  V30 2831 O 266.73 0.891528 2.36237 0
M  V30 2832 C 268.043 3.00573 -0.0873872 0
M  V30 2833 C 269.591 3.1299 -0.0252443 0
M  V30 2834 C 270.066 4.57174 -0.274934 0
M  V30 2835 N 271.557 4.62665 -0.222553 0
M  V30 2836 C 272.292 5.72072 -0.389985 0
M  V30 2837 N 271.788 6.90054 -0.616229 0
M  V30 2838 N 273.581 5.61153 -0.326202 0
M  V30 2839 H 265.732 1.8118 -1.10849 0
M  V30 2840 H 267.995 0.839525 -0.440342 0
M  V30 2841 H 267.701 3.34497 -1.0865 0
M  V30 2842 H 267.575 3.72019 0.623037 0
M  V30 2843 H 269.962 2.78895 0.96444 0
M  V30 2844 H 270.043 2.43989 -0.768309 0
M  V30 2845 H 269.687 4.91976 -1.26181 0
M  V30 2846 H 269.617 5.24328 0.48869 0
M  V30 2847 H 272.108 3.77863 -0.0531512 0
M  V30 2848 H 272.421 7.69311 -0.733559 0
M  V30 2849 H 270.766 6.91927 -0.652791 0
M  V30 2850 H 273.957 4.67859 -0.150072 0
M  V30 2851 H 274.13 6.46364 -0.460116 0
M  V30 2852 N 267.536 -0.106894 1.57237 0
M  V30 2853 C 268.468 -1.15646 1.97885 0
M  V30 2854 C 269.481 -1.36981 0.879779 0
M  V30 2855 O 270.67 -1.35841 1.15799 0
M  V30 2856 C 267.77 -2.51425 2.27241 0
M  V30 2857 C 266.943 -2.50529 3.58545 0
M  V30 2858 C 266.002 -3.68145 3.75973 0
M  V30 2859 O 265.028 -3.51176 4.47956 0
M  V30 2860 N 266.23 -4.87177 3.15656 0
M  V30 2861 H 268.995 -0.81059 2.8853 0
M  V30 2862 H 266.556 -0.296024 1.59171 0
M  V30 2863 H 268.548 -3.28689 2.36105 0
M  V30 2864 H 267.118 -2.78147 1.42663 0
M  V30 2865 H 266.338 -1.58894 3.60758 0
M  V30 2866 H 267.626 -2.46997 4.44826 0
M  V30 2867 H 267.024 -5.03868 2.57165 0
M  V30 2868 H 265.581 -5.62075 3.30023 0
M  V30 2869 N 269.014 -1.53014 -0.377408 0
M  V30 2870 C 270.26 -1.69821 -1.11948 0
M  V30 2871 C 270.615 -0.438581 -1.87335 0
M  V30 2872 O 269.908 0.568094 -1.82984 0
M  V30 2873 C 270.102 -2.87982 -2.11663 0
M  V30 2874 C 269.931 -4.25315 -1.46072 0
M  V30 2875 C 268.701 -4.90354 -1.21986 0
M  V30 2876 C 270.899 -5.06281 -0.904664 0
M  V30 2877 N 268.881 -6.11641 -0.526215 0
M  V30 2878 C 270.252 -6.19069 -0.339726 0
M  V30 2879 C 272.307 -4.91395 -0.8022 0
M  V30 2880 C 271.01 -7.18598 0.317669 0
M  V30 2881 C 273.036 -5.91187 -0.158606 0
M  V30 2882 C 272.398 -7.03289 0.39551 0
M  V30 2883 H 268.497 -0.674785 -0.395207 0
M  V30 2884 H 271.081 -1.90389 -0.407437 0
M  V30 2885 H 269.252 -2.68974 -2.80192 0
M  V30 2886 H 270.984 -2.93669 -2.78461 0
M  V30 2887 H 267.739 -4.49286 -1.49798 0
M  V30 2888 H 268.163 -6.76719 -0.195098 0
M  V30 2889 H 272.805 -4.04925 -1.21639 0
M  V30 2890 H 270.523 -8.04669 0.743836 0
M  V30 2891 H 274.109 -5.81744 -0.0804138 0
M  V30 2892 H 272.989 -7.79183 0.885648 0
M  V30 2893 N 270.492 0.636531 -1.44174 0
M  V30 2894 C 271.439 1.74875 -1.50624 0
M  V30 2895 C 272.409 1.62275 -0.35442 0
M  V30 2896 O 273.594 1.82276 -0.563908 0
M  V30 2897 C 270.734 3.13102 -1.45125 0
M  V30 2898 C 269.847 3.36717 -2.7064 0
M  V30 2899 C 268.982 4.64885 -2.57013 0
M  V30 2900 C 268.021 4.8166 -3.77717 0
M  V30 2901 N 267.158 6.01101 -3.62798 0
M  V30 2902 H 271.998 1.68697 -2.45653 0
M  V30 2903 H 269.535 0.823004 -1.21922 0
M  V30 2904 H 271.493 3.93034 -1.39929 0
M  V30 2905 H 270.123 3.18308 -0.536671 0
M  V30 2906 H 269.175 2.50763 -2.86046 0
M  V30 2907 H 270.487 3.44993 -3.60252 0
M  V30 2908 H 269.641 5.52969 -2.49619 0
M  V30 2909 H 268.38 4.58957 -1.64953 0
M  V30 2910 H 267.385 3.92007 -3.85501 0
M  V30 2911 H 268.61 4.89406 -4.70807 0
M  V30 2912 H 266.556 5.96273 -2.73486 0
M  V30 2913 H 266.473 6.10409 -4.46023 0
M  V30 2914 H 267.741 6.91761 -3.59286 0
M  V30 2915 N 271.97 1.30982 0.876444 0
M  V30 2916 C 273.2 1.23063 1.65949 0
M  V30 2917 C 273.608 -0.207537 1.88058 0
M  V30 2918 O 272.951 -1.14781 1.43426 0
M  V30 2919 C 273.013 1.89768 3.05333 0
M  V30 2920 C 272.677 3.39106 3.0636 0
M  V30 2921 C 273.674 4.3496 2.84791 0
M  V30 2922 C 271.359 3.80693 3.27686 0
M  V30 2923 C 273.353 5.70375 2.84519 0
M  V30 2924 C 271.04 5.16223 3.27043 0
M  V30 2925 C 272.038 6.10875 3.05485 0
M  V30 2926 O 271.726 7.43928 3.04674 0
M  V30 2927 H 271.458 0.426685 0.524324 0
M  V30 2928 H 274.012 1.7329 1.10271 0
M  V30 2929 H 272.242 1.34082 3.6271 0
M  V30 2930 H 273.931 1.75853 3.65829 0
M  V30 2931 H 274.697 4.0416 2.68103 0
M  V30 2932 H 270.576 3.07457 3.43499 0
M  V30 2933 H 274.12 6.44228 2.67611 0
M  V30 2934 H 270.017 5.4666 3.43269 0
M  V30 2935 H 270.785 7.53022 3.2078 0
M  V30 2936 N 273.449 -1.08991 1.13837 0
M  V30 2937 C 274.396 -2.15748 0.819835 0
M  V30 2938 C 275.366 -1.64636 -0.220026 0
M  V30 2939 O 276.551 -1.90582 -0.0912757 0
M  V30 2940 C 273.691 -3.4382 0.296913 0
M  V30 2941 C 272.804 -4.0881 1.39636 0
M  V30 2942 C 271.939 -5.24655 0.831314 0
M  V30 2943 C 270.978 -5.81575 1.90886 0
M  V30 2944 N 270.115 -6.88774 1.36142 0
M  V30 2945 H 274.955 -2.42338 1.73426 0
M  V30 2946 H 272.492 -1.18935 0.865613 0
M  V30 2947 H 274.45 -4.17193 -0.0244339 0
M  V30 2948 H 273.08 -3.17535 -0.580628 0
M  V30 2949 H 272.132 -3.33258 1.83422 0
M  V30 2950 H 273.444 -4.47141 2.21058 0
M  V30 2951 H 272.598 -6.04942 0.461515 0
M  V30 2952 H 271.337 -4.87698 -0.013932 0
M  V30 2953 H 270.342 -4.99946 2.28767 0
M  V30 2954 H 271.567 -6.20592 2.75758 0
M  V30 2955 H 269.513 -6.53788 0.538254 0
M  V30 2956 H 269.43 -7.25898 2.11208 0
M  V30 2957 H 270.698 -7.72806 1.01933 0
M  V30 2958 N 274.927 -0.932562 -1.27047 0
M  V30 2959 C 276.204 -0.49377 -1.89265 0
M  V30 2960 C 276.584 1.02833 -1.8436 0
M  V30 2961 O 275.932 1.88461 -1.29209 0
M  V30 2962 C 276.142 -1.04536 -3.32976 0
M  V30 2963 C 277.49 -1.10879 -4.09867 0
M  V30 2964 O 278.514 -0.995327 -3.42011 0
M  V30 2965 O 277.373 -1.28417 -5.31198 0
M  V30 2966 H 274.467 -0.159596 -0.811454 0
M  V30 2967 H 277.013 -1.02457 -1.3528 0
M  V30 2968 H 275.785 -2.08913 -3.30864 0
M  V30 2969 H 275.408 -0.496494 -3.94488 0
M  V30 2970 N 276.405 1.4127 -0.698611 0
M  V30 2971 C 277.682 1.94955 -0.158762 0
M  V30 2972 C 278.062 1.63781 1.33188 0
M  V30 2973 O 277.41 0.946423 2.07979 0
M  V30 2974 C 277.62 3.46044 -0.453309 0
M  V30 2975 C 278.968 4.22872 -0.382707 0
M  V30 2976 O 279.992 3.54076 -0.388396 0
M  V30 2977 O 278.851 5.45407 -0.345463 0
M  V30 2978 H 275.945 0.82683 -0.0167505 0
M  V30 2979 H 278.491 1.50971 -0.77498 0
M  V30 2980 H 277.263 3.62028 -1.48498 0
M  V30 2981 H 276.886 3.97128 0.19373 0
M  V30 2982 N 277.883 0.443576 1.51229 0
M  V30 2983 C 279.16 -0.181038 1.9476 0
M  V30 2984 C 279.54 -1.59523 1.38259 0
M  V30 2985 O 278.888 -2.2122 0.572198 0
M  V30 2986 C 279.098 -0.152422 3.48667 0
M  V30 2987 C 280.446 -0.354923 4.23114 0
M  V30 2988 O 281.47 -0.230257 3.55455 0
M  V30 2989 O 280.329 -0.603674 5.43156 0
M  V30 2990 H 277.423 -0.1266 0.817252 0
M  V30 2991 H 279.969 0.502004 1.62105 0
M  V30 2992 H 278.741 0.836022 3.82265 0
M  V30 2993 H 278.364 -0.878107 3.87782 0
M  V30 2994 N 279.361 -1.56624 0.175154 0
M  V30 2995 C 280.638 -1.88688 -0.515373 0
M  V30 2996 C 281.018 -1.08564 -1.81044 0
M  V30 2997 O 280.366 -0.180703 -2.27784 0
M  V30 2998 C 280.576 -3.40768 -0.753552 0
M  V30 2999 C 281.924 -4.10587 -1.08184 0
M  V30 3000 O 282.948 -3.46106 -0.841961 0
M  V30 3001 O 281.807 -5.24512 -1.53459 0
M  V30 3002 H 278.901 -0.78301 -0.26613 0
M  V30 3003 H 281.447 -1.68347 0.213877 0
M  V30 3004 H 280.219 -3.90965 0.161829 0
M  V30 3005 H 279.842 -3.66733 -1.53598 0
M  V30 3006 N 280.839 0.0985539 -1.57292 0
M  V30 3007 C 282.116 0.834155 -1.76921 0
M  V30 3008 C 282.496 1.97101 -0.755928 0
M  V30 3009 O 281.844 2.27474 0.216245 0
M  V30 3010 C 282.054 1.33194 -3.22584 0
M  V30 3011 C 283.402 1.77611 -3.85668 0
M  V30 3012 O 284.426 1.42825 -3.26312 0
M  V30 3013 O 283.285 2.4192 -4.90038 0
M  V30 3014 H 280.379 0.397628 -0.725135 0
M  V30 3015 H 282.925 0.0807044 -1.69508 0
M  V30 3016 H 281.697 0.517248 -3.87866 0
M  V30 3017 H 281.32 2.1475 -3.34616 0
M  V30 3018 N 282.317 1.53212 0.369288 0
M  V30 3019 C 283.249 1.75668 1.47219 0
M  V30 3020 C 284.262 0.637387 1.49804 0
M  V30 3021 O 285.451 0.913561 1.5335 0
M  V30 3022 C 282.551 1.81818 2.85999 0
M  V30 3023 C 281.724 3.11409 3.07153 0
M  V30 3024 C 280.783 3.08849 4.26026 0
M  V30 3025 O 279.809 3.82659 4.2138 0
M  V30 3026 N 281.011 2.29409 5.33246 0
M  V30 3027 H 283.776 2.70832 1.28337 0
M  V30 3028 H 281.337 1.51944 0.55898 0
M  V30 3029 H 283.329 1.77588 3.63655 0
M  V30 3030 H 281.899 0.939544 2.98146 0
M  V30 3031 H 281.119 3.28971 2.1719 0
M  V30 3032 H 282.407 3.97059 3.18154 0
M  V30 3033 H 281.805 1.68946 5.39883 0
M  V30 3034 H 280.362 2.31001 6.09493 0
M  V30 3035 N 283.795 -0.628877 1.44509 0
M  V30 3036 C 284.725 -1.75187 1.54376 0
M  V30 3037 C 285.706 -1.65411 0.396618 0
M  V30 3038 O 286.891 -1.84137 0.617031 0
M  V30 3039 C 284.021 -3.13725 1.48976 0
M  V30 3040 C 282.975 -3.38291 2.62189 0
M  V30 3041 C 282.301 -4.76883 2.41841 0
M  V30 3042 C 283.601 -3.30632 4.04326 0
M  V30 3043 H 285.295 -1.67187 2.48373 0
M  V30 3044 H 282.841 -0.802909 1.19538 0
M  V30 3045 H 284.794 -3.92064 1.54478 0
M  V30 3046 H 283.518 -3.22515 0.514961 0
M  V30 3047 H 282.177 -2.62334 2.56079 0
M  V30 3048 H 281.825 -4.82378 1.42548 0
M  V30 3049 H 281.525 -4.94278 3.17747 0
M  V30 3050 H 283.049 -5.57449 2.49165 0
M  V30 3051 H 284.463 -3.98873 4.11793 0
M  V30 3052 H 282.86 -3.59561 4.80454 0
M  V30 3053 H 283.93 -2.28404 4.27738 0
M  V30 3054 N 285.273 -1.31445 -0.869486 0
M  V30 3055 C 286.52 -1.21158 -1.62256 0
M  V30 3056 C 286.848 0.230155 -1.93133 0
M  V30 3057 O 286.103 1.17906 -1.56194 0
M  V30 3058 C 286.402 -2.00145 -2.96102 0
M  V30 3059 C 286.068 -3.4964 -2.84715 0
M  V30 3060 C 284.73 -3.90403 -2.81317 0
M  V30 3061 C 287.082 -4.44769 -2.71716 0
M  V30 3062 C 284.41 -5.24561 -2.62778 0
M  V30 3063 C 286.762 -5.79054 -2.54714 0
M  V30 3064 C 285.426 -6.19037 -2.49699 0
M  V30 3065 H 284.696 -0.443348 -0.593737 0
M  V30 3066 H 287.343 -1.62715 -1.00976 0
M  V30 3067 H 285.648 -1.5127 -3.6142 0
M  V30 3068 H 287.345 -1.89566 -3.53363 0
M  V30 3069 H 283.935 -3.17256 -2.88178 0
M  V30 3070 H 288.119 -4.14208 -2.73397 0
M  V30 3071 H 283.375 -5.54613 -2.57321 0
M  V30 3072 H 287.549 -6.52393 -2.43632 0
M  V30 3073 H 285.176 -7.22935 -2.35093 0
M  V30 3074 N 286.751 1.08385 -1.14413 0
M  V30 3075 C 287.981 1.8425 -0.934644 0
M  V30 3076 C 288.389 1.81907 0.520234 0
M  V30 3077 O 287.732 1.22126 1.37226 0
M  V30 3078 C 287.794 3.32853 -1.35828 0
M  V30 3079 C 287.458 3.5893 -2.82875 0
M  V30 3080 C 288.455 3.53756 -3.80989 0
M  V30 3081 C 286.14 3.86934 -3.20293 0
M  V30 3082 C 288.134 3.76216 -5.14529 0
M  V30 3083 C 285.821 4.09047 -4.54008 0
M  V30 3084 C 286.819 4.03682 -5.50936 0
M  V30 3085 O 286.507 4.25214 -6.82238 0
M  V30 3086 H 286.239 0.588502 -0.332628 0
M  V30 3087 H 288.793 1.37792 -1.52324 0
M  V30 3088 H 287.023 3.8007 -0.713019 0
M  V30 3089 H 288.712 3.90154 -1.11957 0
M  V30 3090 H 289.478 3.32135 -3.53428 0
M  V30 3091 H 285.357 3.9023 -2.45442 0
M  V30 3092 H 288.901 3.71943 -5.90173 0
M  V30 3093 H 284.798 4.30151 -4.8129 0
M  V30 3094 H 285.566 4.42619 -6.88499 0
M  V30 3095 N 288.23 0.939286 1.26551 0
M  V30 3096 C 289.458 0.602536 1.97932 0
M  V30 3097 C 289.873 -0.82206 1.69964 0
M  V30 3098 O 289.23 -1.54789 0.966784 0
M  V30 3099 C 289.281 0.832946 3.51773 0
M  V30 3100 O 289.002 2.20151 3.78768 0
M  V30 3101 C 290.503 0.506483 4.40397 0
M  V30 3102 H 287.723 0.227248 0.631347 0
M  V30 3103 H 290.267 1.25948 1.61113 0
M  V30 3104 H 288.422 0.222644 3.8676 0
M  V30 3105 H 288.836 2.26013 4.73306 0
M  V30 3106 H 290.31 0.718333 5.47306 0
M  V30 3107 H 290.787 -0.558451 4.35635 0
M  V30 3108 H 291.393 1.09543 4.10951 0
M  V30 3109 N 289.708 -1.40897 0.706093 0
M  V30 3110 C 291.124 -1.55042 0.37869 0
M  V30 3111 C 291.324 -1.67944 -1.11342 0
M  V30 3112 O 290.38 -1.66372 -1.89938 0
M  V30 3113 C 291.693 -2.78398 1.13643 0
M  V30 3114 C 293.241 -2.92206 1.12181 0
M  V30 3115 C 293.716 -4.18463 1.86152 0
M  V30 3116 N 295.207 -4.25443 1.83173 0
M  V30 3117 C 295.942 -5.2202 2.37239 0
M  V30 3118 N 295.438 -6.24563 2.99821 0
M  V30 3119 N 297.231 -5.14033 2.27435 0
M  V30 3120 H 289.382 -1.30769 1.67372 0
M  V30 3121 H 291.645 -0.631653 0.706907 0
M  V30 3122 H 291.351 -2.7511 2.19106 0
M  V30 3123 H 291.225 -3.70228 0.721853 0
M  V30 3124 H 293.612 -2.95004 0.0754171 0
M  V30 3125 H 293.693 -2.01521 1.57554 0
M  V30 3126 H 293.337 -4.16427 2.90776 0
M  V30 3127 H 293.267 -5.08141 1.38206 0
M  V30 3128 H 295.758 -3.51976 1.37556 0
M  V30 3129 H 296.071 -6.94665 3.38616 0
M  V30 3130 H 294.416 -6.25035 3.03902 0
M  V30 3131 H 297.607 -4.3285 1.78208 0
M  V30 3132 H 297.78 -5.89129 2.69873 0
M  V30 3133 N 291.186 -0.45159 -1.50991 0
M  V30 3134 C 292.116 0.342898 -2.30969 0
M  V30 3135 C 293.097 1.00815 -1.37005 0
M  V30 3136 O 294.282 1.00907 -1.65926 0
M  V30 3137 C 291.412 1.43637 -3.16205 0
M  V30 3138 C 290.366 0.893818 -4.18563 0
M  V30 3139 C 289.692 2.08411 -4.92411 0
M  V30 3140 C 290.992 -0.0815568 -5.22236 0
M  V30 3141 H 292.686 -0.324556 -2.97636 0
M  V30 3142 H 290.232 -0.157531 -1.43136 0
M  V30 3143 H 292.185 1.9995 -3.70942 0
M  V30 3144 H 290.909 2.13232 -2.47386 0
M  V30 3145 H 289.568 0.352798 -3.64898 0
M  V30 3146 H 289.216 2.76658 -4.20082 0
M  V30 3147 H 288.916 1.72741 -5.61636 0
M  V30 3148 H 290.44 2.65251 -5.49976 0
M  V30 3149 H 291.854 0.391742 -5.7196 0
M  V30 3150 H 290.251 -0.351551 -5.99069 0
M  V30 3151 H 291.321 -1.01374 -4.74185 0
M  V30 3152 N 292.664 1.56529 -0.183458 0
M  V30 3153 C 293.894 2.01331 0.463612 0
M  V30 3154 C 294.302 1.06278 1.5653 0
M  V30 3155 O 293.645 0.0577976 1.83609 0
M  V30 3156 C 293.707 3.42547 1.09096 0
M  V30 3157 C 293.371 4.56817 0.129442 0
M  V30 3158 C 294.368 5.15734 -0.656807 0
M  V30 3159 C 292.053 5.02295 0.02174 0
M  V30 3160 C 294.047 6.1857 -1.53784 0
M  V30 3161 C 291.734 6.04978 -0.862864 0
M  V30 3162 C 292.732 6.62988 -1.64123 0
M  V30 3163 O 292.42 7.63677 -2.51103 0
M  V30 3164 H 292.152 0.664917 0.121907 0
M  V30 3165 H 294.706 2.034 -0.285954 0
M  V30 3166 H 292.936 3.37428 1.88889 0
M  V30 3167 H 294.625 3.71228 1.64148 0
M  V30 3168 H 295.391 4.81473 -0.583839 0
M  V30 3169 H 291.27 4.56847 0.617392 0
M  V30 3170 H 294.814 6.63777 -2.14583 0
M  V30 3171 H 290.711 6.38663 -0.93699 0
M  V30 3172 H 291.479 7.81049 -2.44753 0
M  V30 3173 N 294.142 -0.090211 1.57342 0
M  V30 3174 C 295.072 -1.10976 2.05443 0
M  V30 3175 C 296.053 -1.41482 0.944284 0
M  V30 3176 O 297.238 -1.51428 1.21586 0
M  V30 3177 C 294.368 -2.42831 2.48295 0
M  V30 3178 C 293.322 -2.26721 3.63018 0
M  V30 3179 C 292.648 -3.63796 3.91863 0
M  V30 3180 C 293.948 -1.7037 4.93732 0
M  V30 3181 H 295.642 -0.709564 2.9087 0
M  V30 3182 H 293.188 -0.339874 1.39932 0
M  V30 3183 H 295.141 -3.14431 2.80555 0
M  V30 3184 H 293.865 -2.84795 1.59873 0
M  V30 3185 H 292.524 -1.57565 3.31012 0
M  V30 3186 H 292.172 -4.03297 3.00601 0
M  V30 3187 H 291.872 -3.53861 4.69101 0
M  V30 3188 H 293.396 -4.36855 4.26603 0
M  V30 3189 H 294.81 -2.31816 5.24342 0
M  V30 3190 H 293.207 -1.71181 5.75167 0
M  V30 3191 H 294.277 -0.663542 4.80339 0
M  V30 3192 N 295.62 -1.53406 -0.361157 0
M  V30 3193 C 296.897 -1.60411 -1.11927 0
M  V30 3194 C 297.277 -0.414385 -2.06993 0
M  V30 3195 O 296.625 0.594976 -2.20618 0
M  V30 3196 C 296.835 -2.95652 -1.85448 0
M  V30 3197 C 298.183 -3.50386 -2.39823 0
M  V30 3198 O 299.207 -2.97711 -1.95568 0
M  V30 3199 O 298.066 -4.42482 -3.20737 0
M  V30 3200 H 295.16 -0.64811 -0.513695 0
M  V30 3201 H 297.706 -1.65749 -0.364065 0
M  V30 3202 H 296.478 -3.73682 -1.16091 0
M  V30 3203 H 296.101 -2.93825 -2.67866 0
M  V30 3204 N 297.098 0.621204 -1.44841 0
M  V30 3205 C 298.509 1.20298 -1.42777 0
M  V30 3206 C 298.86 1.95639 -0.148259 0
M  V30 3207 O 297.985 2.02955 0.750892 0
M  V30 3208 C 298.58 2.1882 -2.58657 0
M  V30 3209 C 297.139 2.72403 -2.59756 0
M  V30 3210 C 296.286 1.4757 -2.34773 0
M  V30 3211 H 299.237 0.411297 -1.53278 0
M  V30 3212 H 299.258 3.01607 -2.31977 0
M  V30 3213 H 298.77 1.63957 -3.51766 0
M  V30 3214 H 296.871 3.31242 -1.70615 0
M  V30 3215 H 296.984 3.17765 -3.58556 0
M  V30 3216 H 295.348 1.76051 -1.8406 0
M  V30 3217 H 296.131 0.945954 -3.3001 0
M  V30 3218 N 298.576 1.31904 0.862503 0
M  V30 3219 C 299.824 1.21776 1.61292 0
M  V30 3220 C 300.145 -0.222413 1.93727 0
M  V30 3221 O 299.415 -1.1451 1.58947 0
M  V30 3222 H 297.995 0.447717 0.597962 0
M  V30 3223 H 300.657 1.65326 1.03215 0
M  V30 3224 H 299.753 1.7948 2.5533 0
M  V30 3225 N 300.054 -1.07777 1.14986 0
M  V30 3226 C 300.984 -2.16865 0.865557 0
M  V30 3227 C 301.965 -1.69123 -0.182083 0
M  V30 3228 O 303.15 -1.94164 -0.0373815 0
M  V30 3229 C 300.28 -3.45539 0.349313 0
M  V30 3230 C 299.234 -4.06708 1.33313 0
M  V30 3231 C 298.56 -5.30411 0.675918 0
M  V30 3232 C 299.86 -4.47241 2.69764 0
M  V30 3233 H 301.554 -2.40905 1.77778 0
M  V30 3234 H 299.1 -1.15781 0.856203 0
M  V30 3235 H 301.053 -4.21174 0.137983 0
M  V30 3236 H 299.777 -3.21072 -0.598362 0
M  V30 3237 H 298.436 -3.33112 1.53075 0
M  V30 3238 H 298.084 -5.02232 -0.277767 0
M  V30 3239 H 297.784 -5.72293 1.33244 0
M  V30 3240 H 299.308 -6.08755 0.474262 0
M  V30 3241 H 300.722 -5.14025 2.53873 0
M  V30 3242 H 299.119 -5.00062 3.3175 0
M  V30 3243 H 300.189 -3.58818 3.26156 0
M  V30 3244 N 301.532 -0.945985 -1.26051 0
M  V30 3245 C 302.948 -0.649045 -1.45807 0
M  V30 3246 C 303.148 0.796158 -1.85104 0
M  V30 3247 O 302.204 1.57233 -1.97571 0
M  V30 3248 C 303.517 -1.61458 -2.53677 0
M  V30 3249 C 305.065 -1.62481 -2.67524 0
M  V30 3250 C 305.54 -2.57776 -3.7857 0
M  V30 3251 N 307.031 -2.5609 -3.85969 0
M  V30 3252 C 307.766 -3.26508 -4.7136 0
M  V30 3253 N 307.262 -4.0637 -5.61102 0
M  V30 3254 N 309.055 -3.15437 -4.65248 0
M  V30 3255 H 301.206 -1.88005 -0.988328 0
M  V30 3256 H 303.469 -0.808198 -0.4955 0
M  V30 3257 H 303.175 -2.64644 -2.31638 0
M  V30 3258 H 303.049 -1.37036 -3.51427 0
M  V30 3259 H 305.436 -0.600167 -2.88933 0
M  V30 3260 H 305.517 -1.90958 -1.70202 0
M  V30 3261 H 305.161 -3.60361 -3.57913 0
M  V30 3262 H 305.091 -2.26587 -4.75359 0
M  V30 3263 H 307.582 -1.98105 -3.21812 0
M  V30 3264 H 307.895 -4.57042 -6.23164 0
M  V30 3265 H 306.24 -4.10469 -5.60839 0
M  V30 3266 H 309.431 -2.52525 -3.94143 0
M  V30 3267 H 309.604 -3.70584 -5.31575 0
M  V30 3268 N 303.011 1.40521 -0.713556 0
M  V30 3269 C 303.921 2.34522 -0.0606667 0
M  V30 3270 C 304.937 1.57193 0.74607 0
M  V30 3271 O 306.113 1.89591 0.679493 0
M  V30 3272 C 303.178 3.36081 0.851491 0
M  V30 3273 C 302.239 4.29286 0.0349339 0
M  V30 3274 C 301.472 5.25994 0.903649 0
M  V30 3275 O 301.695 5.28616 2.14292 0
M  V30 3276 O 300.629 6.00918 0.343723 0
M  V30 3277 H 304.455 2.91968 -0.835972 0
M  V30 3278 H 302.04 1.41681 -0.47402 0
M  V30 3279 H 303.922 3.98369 1.37404 0
M  V30 3280 H 302.597 2.81052 1.60598 0
M  V30 3281 H 301.504 3.70289 -0.532633 0
M  V30 3282 H 302.837 4.87462 -0.681287 0
M  V30 3283 N 304.489 0.459591 1.5075 0
M  V30 3284 C 305.436 -0.340524 2.28274 0
M  V30 3285 C 306.406 -0.997371 1.32822 0
M  V30 3286 O 307.591 -1.01202 1.61749 0
M  V30 3287 C 304.731 -1.42317 3.14388 0
M  V30 3288 C 303.844 -0.782251 4.24859 0
M  V30 3289 C 302.979 -1.84182 4.98247 0
M  V30 3290 C 302.018 -1.18053 6.00608 0
M  V30 3291 N 301.155 -2.18244 6.67319 0
M  V30 3292 H 305.995 0.326899 2.96202 0
M  V30 3293 H 303.532 0.173057 1.46078 0
M  V30 3294 H 305.49 -2.06241 3.62658 0
M  V30 3295 H 304.12 -2.05992 2.4853 0
M  V30 3296 H 303.172 -0.0307404 3.80388 0
M  V30 3297 H 304.484 -0.259663 4.98124 0
M  V30 3298 H 303.638 -2.55714 5.50177 0
M  V30 3299 H 302.377 -2.39819 4.24662 0
M  V30 3300 H 301.382 -0.450776 5.47949 0
M  V30 3301 H 302.607 -0.631202 6.7616 0
M  V30 3302 H 300.553 -2.72919 5.96533 0
M  V30 3303 H 300.47 -1.70938 7.36421 0
M  V30 3304 H 301.738 -2.89191 7.23871 0
M  V30 3305 N 305.967 -1.56429 0.191757 0
M  V30 3306 C 306.897 -2.21937 -0.725696 0
M  V30 3307 C 307.878 -1.1814 -1.2238 0
M  V30 3308 O 309.063 -1.46636 -1.27325 0
M  V30 3309 C 306.193 -2.87611 -1.94672 0
M  V30 3310 C 305.147 -3.97623 -1.58366 0
M  V30 3311 C 304.473 -4.50446 -2.88102 0
M  V30 3312 C 305.773 -5.16197 -0.796133 0
M  V30 3313 H 307.467 -2.98861 -0.179606 0
M  V30 3314 H 305.013 -1.43749 -0.0849464 0
M  V30 3315 H 306.966 -3.3212 -2.59373 0
M  V30 3316 H 305.69 -2.08087 -2.51728 0
M  V30 3317 H 304.349 -3.53801 -0.960247 0
M  V30 3318 H 303.997 -3.67688 -3.43241 0
M  V30 3319 H 303.697 -5.24675 -2.64556 0
M  V30 3320 H 305.221 -4.97654 -3.53798 0
M  V30 3321 H 306.635 -5.57271 -1.34618 0
M  V30 3322 H 305.032 -5.96471 -0.658928 0
M  V30 3323 H 306.102 -4.84473 0.203478 0
M  V30 3324 N 307.445 0.0818655 -1.57387 0
M  V30 3325 C 308.67 0.799946 -1.91352 0
M  V30 3326 C 309.095 1.70833 -0.787258 0
M  V30 3327 O 308.453 1.79419 0.26048 0
M  V30 3328 C 308.501 1.57812 -3.24234 0
M  V30 3329 O 307.605 2.68806 -3.12757 0
M  V30 3330 H 306.946 0.21891 -0.626877 0
M  V30 3331 H 309.476 0.0531256 -2.04531 0
M  V30 3332 H 309.486 1.95952 -3.57864 0
M  V30 3333 H 308.161 0.911548 -4.05788 0
M  V30 3334 H 306.738 2.33597 -2.90666 0
M  V30 3335 N 308.923 1.53595 0.353017 0
M  V30 3336 C 309.853 1.83902 1.43883 0
M  V30 3337 C 310.834 0.693421 1.55324 0
M  V30 3338 O 312.019 0.944452 1.69687 0
M  V30 3339 C 309.149 2.04016 2.8106 0
M  V30 3340 C 308.103 3.19814 2.84434 0
M  V30 3341 C 307.429 3.25244 4.24406 0
M  V30 3342 C 308.729 4.58133 2.50822 0
M  V30 3343 H 310.423 2.74835 1.1877 0
M  V30 3344 H 307.969 1.32242 0.569917 0
M  V30 3345 H 309.922 2.238 3.57059 0
M  V30 3346 H 308.646 1.09804 3.07588 0
M  V30 3347 H 307.305 2.9987 2.10887 0
M  V30 3348 H 306.953 2.28646 4.48029 0
M  V30 3349 H 306.653 4.03054 4.27576 0
M  V30 3350 H 308.177 3.47228 5.0226 0
M  V30 3351 H 309.591 4.77995 3.16534 0
M  V30 3352 H 307.988 5.38276 2.6529 0
M  V30 3353 H 309.058 4.62387 1.46034 0
M  V30 3354 N 310.401 -0.613514 1.45168 0
M  V30 3355 C 311.349 -1.74572 1.53712 0
M  V30 3356 C 312.343 -1.64426 0.407505 0
M  V30 3357 O 313.549 -1.70291 0.583176 0
M  V30 3358 H 309.924 -0.576641 0.48269 0
M  V30 3359 H 311.895 -1.64492 2.48968 0
M  V30 3360 C 310.644 -3.12943 1.51532 0
M  V30 3361 H 309.967 -3.21407 2.37776 0
M  V30 3362 H 311.407 -3.9201 1.61569 0
M  V30 3363 C 309.866 -3.36053 0.238798 0
M  V30 3364 O 310.396 -3.95837 -0.6838 0
M  V30 3365 N 308.602 -2.9028 0.136359 0
M  V30 3366 H 308.149 -2.41811 0.887999 0
M  V30 3367 H 308.107 -3.06116 -0.716944 0
M  V30 3368 N 311.879 -1.3236 -0.855495 0
M  V30 3369 C 312.809 -1.23833 -1.97958 0
M  V30 3370 C 313.79 -0.122361 -1.69659 0
M  V30 3371 O 314.975 -0.30939 -1.9172 0
M  V30 3372 C 312.105 -0.959772 -3.33775 0
M  V30 3373 C 311.059 -2.03689 -3.76424 0
M  V30 3374 C 310.385 -1.61075 -5.09862 0
M  V30 3375 C 311.685 -3.4518 -3.9198 0
M  V30 3376 H 313.379 -2.1788 -2.0535 0
M  V30 3377 H 310.925 -1.04891 -0.986605 0
M  V30 3378 H 312.878 -0.886678 -4.11966 0
M  V30 3379 H 311.602 0.0163404 -3.26596 0
M  V30 3380 H 310.261 -2.10012 -3.00484 0
M  V30 3381 H 309.909 -0.622107 -4.99138 0
M  V30 3382 H 309.609 -2.33143 -5.39368 0
M  V30 3383 H 311.133 -1.55201 -5.90546 0
M  V30 3384 H 312.547 -3.4145 -4.60526 0
M  V30 3385 H 310.944 -4.1559 -4.32903 0
M  V30 3386 H 312.014 -3.84903 -2.94919 0
M  V30 3387 N 313.357 1.07166 -1.15556 0
M  V30 3388 C 314.634 1.76546 -0.842069 0
M  V30 3389 C 315.014 2.00453 0.661939 0
M  V30 3390 O 314.362 1.62452 1.60691 0
M  V30 3391 C 314.572 3.07266 -1.65495 0
M  V30 3392 C 315.92 3.81578 -1.86234 0
M  V30 3393 O 316.944 3.17083 -1.62287 0
M  V30 3394 O 315.803 4.97419 -2.26355 0
M  V30 3395 H 312.897 0.766756 -0.309862 0
M  V30 3396 H 315.443 1.13514 -1.26145 0
M  V30 3397 H 314.215 2.85494 -2.67598 0
M  V30 3398 H 313.838 3.7803 -1.23203 0
M  V30 3399 N 314.835 0.952656 1.25548 0
M  V30 3400 C 315.785 0.442033 2.23674 0
M  V30 3401 C 316.769 -0.467632 1.53955 0
M  V30 3402 O 317.961 -0.301006 1.74422 0
M  V30 3403 C 315.09 -0.280816 3.4215 0
M  V30 3404 C 314.176 0.646803 4.19139 0
M  V30 3405 N 314.567 1.77759 4.73535 0
M  V30 3406 C 312.865 0.454617 4.43677 0
M  V30 3407 C 313.566 2.35658 5.31827 0
M  V30 3408 N 312.542 1.64333 5.18166 0
M  V30 3409 H 316.344 1.30505 2.63336 0
M  V30 3410 H 313.858 0.809904 1.40763 0
M  V30 3411 H 315.855 -0.663747 4.11582 0
M  V30 3412 H 314.515 -1.14046 3.04012 0
M  V30 3413 H 315.526 2.15949 4.7073 0
M  V30 3414 H 312.203 -0.362312 4.15925 0
M  V30 3415 H 313.593 3.30998 5.84713 0
M  V30 3416 N 316.313 -1.40141 0.720998 0
M  V30 3417 C 317.26 -2.30688 0.071919 0
M  V30 3418 C 318.23 -1.48476 -0.744584 0
M  V30 3419 O 319.415 -1.77201 -0.707423 0
M  V30 3420 C 316.555 -3.34724 -0.839855 0
M  V30 3421 C 315.668 -4.31998 -0.0122438 0
M  V30 3422 C 314.803 -5.23102 -0.923995 0
M  V30 3423 C 313.842 -6.12033 -0.0907969 0
M  V30 3424 N 312.979 -6.95537 -0.957718 0
M  V30 3425 H 317.819 -2.85628 0.849755 0
M  V30 3426 H 315.356 -1.40653 0.430726 0
M  V30 3427 H 317.314 -3.93618 -1.38279 0
M  V30 3428 H 315.944 -2.81274 -1.58381 0
M  V30 3429 H 314.996 -3.74841 0.64794 0
M  V30 3430 H 316.308 -4.94772 0.632595 0
M  V30 3431 H 315.462 -5.86953 -1.53527 0
M  V30 3432 H 314.201 -4.60615 -1.60264 0
M  V30 3433 H 313.206 -5.47207 0.533377 0
M  V30 3434 H 314.431 -6.76581 0.584428 0
M  V30 3435 H 312.377 -6.35633 -1.62192 0
M  V30 3436 H 312.294 -7.55099 -0.36904 0
M  V30 3437 H 313.562 -7.63832 -1.555 0
M  V30 3438 N 317.792 -0.46758 -1.50504 0
M  V30 3439 C 319.017 0.0886943 -2.0721 0
M  V30 3440 C 319.442 1.33057 -1.32956 0
M  V30 3441 O 318.8 1.77354 -0.376197 0
M  V30 3442 C 318.848 0.359202 -3.58806 0
M  V30 3443 O 317.952 1.44034 -3.8643 0
M  V30 3444 H 317.293 -0.0114349 -0.663902 0
M  V30 3445 H 319.823 -0.657613 -1.93744 0
M  V30 3446 H 319.833 0.600742 -4.03553 0
M  V30 3447 H 318.508 -0.548311 -4.1227 0
M  V30 3448 H 317.085 1.18638 -3.53524 0
M  V30 3449 N 319.27 1.56325 -0.20005 0
M  V30 3450 C 320.686 1.58839 0.155716 0
M  V30 3451 C 320.886 1.21636 1.60645 0
M  V30 3452 O 319.942 0.941437 2.34293 0
M  V30 3453 C 321.255 3.0032 -0.151124 0
M  V30 3454 C 322.803 3.12866 -0.0916284 0
M  V30 3455 C 323.278 4.56488 -0.371845 0
M  V30 3456 N 324.769 4.62089 -0.320641 0
M  V30 3457 C 325.504 5.71116 -0.511243 0
M  V30 3458 N 325 6.88592 -0.762461 0
M  V30 3459 N 326.793 5.60335 -0.445157 0
M  V30 3460 H 318.944 1.78788 -1.14668 0
M  V30 3461 H 321.207 0.829996 -0.458051 0
M  V30 3462 H 320.913 3.32117 -1.15721 0
M  V30 3463 H 320.787 3.73257 0.543986 0
M  V30 3464 H 323.174 2.80878 0.905065 0
M  V30 3465 H 323.255 2.42304 -0.81989 0
M  V30 3466 H 322.899 4.89189 -1.36588 0
M  V30 3467 H 322.829 5.25246 0.377362 0
M  V30 3468 H 325.32 3.77665 -0.13329 0
M  V30 3469 H 325.633 7.67581 -0.896576 0
M  V30 3470 H 323.978 6.90387 -0.799412 0
M  V30 3471 H 327.169 4.67436 -0.249278 0
M  V30 3472 H 327.342 6.45243 -0.597116 0
M  V30 3473 N 320.748 -0.0735177 1.57428 0
M  V30 3474 C 321.997 -0.771809 1.86349 0
M  V30 3475 C 322.31 -1.78828 0.792452 0
M  V30 3476 O 323.516 -2.53602 0.96945 0
M  V30 3477 C 321.972 -1.42358 3.30548 0
M  V30 3478 C 321.58 -0.445761 4.45777 0
M  V30 3479 C 323.324 -2.10434 3.6867 0
M  V30 3480 C 321.231 -1.10335 5.81016 0
M  V30 3481 H 320.161 -0.291999 0.695164 0
M  V30 3482 H 322.812 -0.0250749 1.83483 0
M  V30 3483 H 321.194 -2.21852 3.28021 0
M  V30 3484 H 322.368 0.319239 4.59693 0
M  V30 3485 H 320.683 0.130457 4.16196 0
M  V30 3486 H 323.28 -2.60405 4.67004 0
M  V30 3487 H 323.623 -2.90298 2.98383 0
M  V30 3488 H 324.156 -1.37773 3.7318 0
M  V30 3489 H 320.895 -0.345061 6.54591 0
M  V30 3490 H 320.415 -1.83925 5.70904 0
M  V30 3491 H 322.094 -1.62367 6.26295 0
M  V30 3492 N 322.226 -1.5378 -0.344866 0
M  V30 3493 C 323.473 -1.70963 -1.08526 0
M  V30 3494 C 323.801 -0.472126 -1.88683 0
M  V30 3495 O 323.056 0.546116 -1.87926 0
M  V30 3496 C 323.355 -2.92407 -2.05506 0
M  V30 3497 C 323.021 -4.28066 -1.41671 0
M  V30 3498 C 321.683 -4.64951 -1.2399 0
M  V30 3499 C 324.035 -5.12344 -0.956726 0
M  V30 3500 C 321.363 -5.83733 -0.589277 0
M  V30 3501 C 323.715 -6.3179 -0.320015 0
M  V30 3502 C 322.379 -6.67372 -0.130881 0
M  V30 3503 H 321.649 -0.625598 -0.397124 0
M  V30 3504 H 324.296 -1.87995 -0.36469 0
M  V30 3505 H 322.601 -2.69973 -2.8394 0
M  V30 3506 H 324.298 -3.02895 -2.62784 0
M  V30 3507 H 320.888 -3.99034 -1.56429 0
M  V30 3508 H 325.072 -4.8438 -1.08118 0
M  V30 3509 H 320.328 -6.09877 -0.431344 0
M  V30 3510 H 324.502 -6.96386 0.0445072 0
M  V30 3511 H 322.129 -7.59273 0.375318 0
M  V30 3512 N 323.704 0.605807 -1.45491 0
M  V30 3513 C 324.636 1.73031 -1.5031 0
M  V30 3514 C 325.649 1.57968 -0.393687 0
M  V30 3515 O 326.838 1.65817 -0.660839 0
M  V30 3516 C 323.938 3.11049 -1.34543 0
M  V30 3517 C 323.111 3.52334 -2.59189 0
M  V30 3518 C 322.17 4.69323 -2.37954 0
M  V30 3519 O 321.196 4.7635 -3.11575 0
M  V30 3520 N 322.398 5.62705 -1.4263 0
M  V30 3521 H 325.163 1.6936 -2.4726 0
M  V30 3522 H 322.724 0.79114 -1.41254 0
M  V30 3523 H 324.716 3.87071 -1.18144 0
M  V30 3524 H 323.286 3.09217 -0.458623 0
M  V30 3525 H 322.506 2.66256 -2.90691 0
M  V30 3526 H 323.794 3.76677 -3.42041 0
M  V30 3527 H 323.192 5.59744 -0.818758 0
M  V30 3528 H 321.749 6.38252 -1.32202 0
M  V30 3529 N 325.182 1.32811 0.848464 0
M  V30 3530 C 326.13 1.22231 1.97895 0
M  V30 3531 C 327.124 0.125749 1.68933 0
M  V30 3532 O 328.33 0.289083 1.77663 0
M  V30 3533 H 324.705 0.379058 0.649476 0
M  V30 3534 H 326.676 2.17828 2.03945 0
M  V30 3535 C 325.425 0.968572 3.33937 0
M  V30 3536 H 324.748 1.80458 3.56756 0
M  V30 3537 H 326.188 0.934808 4.13567 0
M  V30 3538 C 324.647 -0.328628 3.35293 0
M  V30 3539 O 325.177 -1.33848 3.78745 0
M  V30 3540 N 323.383 -0.352788 2.88451 0
M  V30 3541 H 322.93 0.469541 2.53285 0
M  V30 3542 H 322.888 -1.22057 2.89741 0
M  V30 3543 N 326.66 -1.06551 1.16123 0
M  V30 3544 C 327.59 -2.15935 0.88851 0
M  V30 3545 C 328.571 -1.69306 -0.164135 0
M  V30 3546 O 329.756 -1.94193 -0.0167857 0
M  V30 3547 C 326.886 -3.45149 0.385942 0
M  V30 3548 C 325.84 -4.05271 1.3762 0
M  V30 3549 C 325.166 -5.29664 0.732137 0
M  V30 3550 C 326.466 -4.44355 2.74493 0
M  V30 3551 H 328.16 -2.39006 1.80323 0
M  V30 3552 H 325.706 -1.14866 0.868435 0
M  V30 3553 H 327.659 -4.21004 0.182647 0
M  V30 3554 H 326.383 -3.21689 -0.564274 0
M  V30 3555 H 325.042 -3.3147 1.56599 0
M  V30 3556 H 324.69 -5.02499 -0.224483 0
M  V30 3557 H 324.39 -5.70848 1.39307 0
M  V30 3558 H 325.914 -6.08218 0.538802 0
M  V30 3559 H 327.328 -5.11303 2.59311 0
M  V30 3560 H 325.725 -4.96515 3.37035 0
M  V30 3561 H 326.795 -3.55339 3.29943 0
M  V30 3562 N 328.138 -0.959301 -1.25041 0
M  V30 3563 C 329.086 -0.474437 -2.2771 0
M  V30 3564 C 330.08 0.457697 -1.631 0
M  V30 3565 O 331.286 0.333912 -1.76876 0
M  V30 3566 H 327.661 -0.134936 -0.739795 0
M  V30 3567 H 329.632 -1.35251 -2.65988 0
M  V30 3568 C 328.381 0.227884 -3.46952 0
M  V30 3569 H 327.704 -0.480248 -3.96905 0
M  V30 3570 H 329.144 0.531091 -4.20661 0
M  V30 3571 C 327.603 1.452 -3.04004 0
M  V30 3572 O 328.133 2.54949 -3.10426 0
M  V30 3573 N 326.339 1.31502 -2.59144 0
M  V30 3574 H 325.886 0.422065 -2.54119 0
M  V30 3575 H 325.844 2.13521 -2.30773 0
M  V30 3576 N 329.616 1.39756 -0.72842 0
M  V30 3577 C 330.864 2.00248 -0.272946 0
M  V30 3578 C 331.185 1.58077 1.14178 0
M  V30 3579 O 330.455 0.826014 1.77634 0
M  V30 3580 H 329.035 0.740554 -0.0979247 0
M  V30 3581 H 331.697 1.70903 -0.936912 0
M  V30 3582 H 330.793 3.10495 -0.316142 0
M  V30 3583 N 331.094 0.475555 1.50254 0
M  V30 3584 C 332.057 -0.305016 2.27161 0
M  V30 3585 C 333.057 -0.916519 1.32123 0
M  V30 3586 O 334.247 -0.785003 1.5551 0
M  V30 3587 C 331.379 -1.43496 3.09227 0
M  V30 3588 H 332.572 0.369511 2.97615 0
M  V30 3589 H 330.125 0.229747 1.54602 0
M  V30 3590 H 330.86 -2.14441 2.43281 0
M  V30 3591 H 330.645 -1.00223 3.79075 0
M  V30 3592 H 332.135 -1.98548 3.67381 0
M  V30 3593 N 332.573 -1.56217 0.208337 0
M  V30 3594 C 333.503 -2.22694 -0.702116 0
M  V30 3595 C 334.484 -1.19432 -1.2112 0
M  V30 3596 O 335.669 -1.47978 -1.25762 0
M  V30 3597 C 332.799 -2.8966 -1.9161 0
M  V30 3598 C 331.753 -3.9928 -1.5414 0
M  V30 3599 C 331.079 -4.53476 -2.83308 0
M  V30 3600 C 332.379 -5.17012 -0.741339 0
M  V30 3601 H 334.073 -2.99034 -0.147898 0
M  V30 3602 H 331.619 -1.43831 -0.0696951 0
M  V30 3603 H 333.572 -3.34852 -2.55836 0
M  V30 3604 H 332.296 -2.10746 -2.49507 0
M  V30 3605 H 330.955 -3.54799 -0.922668 0
M  V30 3606 H 330.603 -3.71308 -3.39322 0
M  V30 3607 H 330.303 -5.27451 -2.58976 0
M  V30 3608 H 331.827 -5.01378 -3.485 0
M  V30 3609 H 333.241 -5.58667 -1.28699 0
M  V30 3610 H 331.638 -5.97137 -0.595627 0
M  V30 3611 H 332.708 -4.8423 0.254851 0
M  V30 3612 N 334.051 0.0651679 -1.57465 0
M  V30 3613 C 335.328 0.79644 -1.78651 0
M  V30 3614 C 335.708 1.95454 -0.797566 0
M  V30 3615 O 335.056 2.27882 0.167946 0
M  V30 3616 C 335.266 1.26322 -3.25337 0
M  V30 3617 C 336.614 1.6939 -3.89348 0
M  V30 3618 O 337.638 1.35872 -3.29268 0
M  V30 3619 O 336.497 2.31471 -4.95059 0
M  V30 3620 H 333.591 0.382157 -0.733407 0
M  V30 3621 H 336.137 0.0447311 -1.69641 0
M  V30 3622 H 334.909 0.434859 -3.88876 0
M  V30 3623 H 334.532 2.07604 -3.39096 0
M  V30 3624 N 335.529 1.53961 0.336706 0
M  V30 3625 C 336.439 1.85432 1.43708 0
M  V30 3626 C 337.455 0.745053 1.57242 0
M  V30 3627 O 338.631 1.03804 1.72588 0
M  V30 3628 C 335.696 2.06349 2.78605 0
M  V30 3629 C 334.757 3.30191 2.74358 0
M  V30 3630 C 333.99 3.50101 4.02822 0
M  V30 3631 O 334.213 2.7371 5.00439 0
M  V30 3632 O 333.147 4.43547 4.06878 0
M  V30 3633 H 336.973 2.78975 1.20028 0
M  V30 3634 H 334.558 1.39701 0.52952 0
M  V30 3635 H 336.44 2.21513 3.58483 0
M  V30 3636 H 335.115 1.15995 3.02203 0
M  V30 3637 H 334.022 3.20425 1.93078 0
M  V30 3638 H 335.355 4.2056 2.55715 0
M  V30 3639 N 337.007 -0.598083 1.45811 0
M  V30 3640 C 338.253 -1.35882 1.50545 0
M  V30 3641 C 338.586 -1.93616 0.150445 0
M  V30 3642 O 337.861 -1.75604 -0.83628 0
M  V30 3643 C 338.144 -2.49966 2.59208 0
M  V30 3644 C 337.997 -1.97367 4.04186 0
M  V30 3645 C 339.316 -3.52068 2.64076 0
M  V30 3646 H 336.435 -0.492717 0.548087 0
M  V30 3647 H 339.077 -0.673319 1.77669 0
M  V30 3648 H 337.227 -3.08443 2.3621 0
M  V30 3649 H 338.899 -1.43466 4.38423 0
M  V30 3650 H 337.142 -1.283 4.14393 0
M  V30 3651 H 337.813 -2.79649 4.75921 0
M  V30 3652 H 340.289 -3.03448 2.84708 0
M  V30 3653 H 339.165 -4.2937 3.41954 0
M  V30 3654 H 339.426 -4.08304 1.69531 0
M  V30 3655 N 338.485 -1.33259 -0.841409 0
M  V30 3656 C 339.731 -1.24757 -1.59886 0
M  V30 3657 C 340.064 0.186913 -1.93298 0
M  V30 3658 O 339.339 1.12757 -1.5848 0
M  V30 3659 C 339.622 -2.12036 -2.91055 0
M  V30 3660 C 339.475 -3.63929 -2.6434 0
M  V30 3661 C 340.794 -1.9916 -3.92458 0
M  V30 3662 H 337.913 -0.454542 -0.580138 0
M  V30 3663 H 340.555 -1.63335 -0.970647 0
M  V30 3664 H 338.705 -1.79265 -3.44669 0
M  V30 3665 H 340.377 -4.06978 -2.17178 0
M  V30 3666 H 338.62 -3.85935 -1.98082 0
M  V30 3667 H 339.291 -4.20341 -3.57796 0
M  V30 3668 H 341.767 -2.27895 -3.48143 0
M  V30 3669 H 340.643 -2.62484 -4.82072 0
M  V30 3670 H 340.904 -0.963082 -4.31482 0
M  V30 3671 N 339.963 1.05934 -1.16686 0
M  V30 3672 C 340.893 2.1546 -0.899949 0
M  V30 3673 C 341.874 1.69391 0.155154 0
M  V30 3674 O 343.059 1.94199 0.00648693 0
M  V30 3675 C 340.189 3.44939 -0.404241 0
M  V30 3676 C 339.143 4.04536 -1.39767 0
M  V30 3677 C 338.469 5.29268 -0.760216 0
M  V30 3678 C 339.769 4.42893 -2.76845 0
M  V30 3679 H 341.463 2.38046 -1.81588 0
M  V30 3680 H 339.009 1.14404 -0.874514 0
M  V30 3681 H 340.962 4.20901 -0.204971 0
M  V30 3682 H 339.686 3.21983 0.547206 0
M  V30 3683 H 338.345 3.30635 -1.58355 0
M  V30 3684 H 337.993 5.02611 0.197831 0
M  V30 3685 H 337.693 5.70101 -1.42332 0
M  V30 3686 H 339.217 6.07924 -0.57105 0
M  V30 3687 H 340.631 5.09921 -2.62019 0
M  V30 3688 H 339.028 4.94721 -3.39663 0
M  V30 3689 H 340.098 3.53584 -3.31823 0
M  V30 3690 N 341.441 0.965919 1.2453 0
M  V30 3691 C 342.388 0.49402 2.25451 0
M  V30 3692 C 343.358 -0.45948 1.59618 0
M  V30 3693 O 344.543 -0.370238 1.87173 0
M  V30 3694 C 341.683 -0.211359 3.44452 0
M  V30 3695 C 340.796 0.7807 4.24887 0
M  V30 3696 C 339.931 0.0516105 5.31175 0
M  V30 3697 C 338.97 1.03385 6.03306 0
M  V30 3698 N 338.107 0.334887 7.01301 0
M  V30 3699 H 342.947 1.35946 2.65184 0
M  V30 3700 H 340.484 0.681515 1.3036 0
M  V30 3701 H 342.442 -0.637 4.12308 0
M  V30 3702 H 341.072 -1.04077 3.05562 0
M  V30 3703 H 340.124 1.32479 3.56586 0
M  V30 3704 H 341.436 1.52978 4.74762 0
M  V30 3705 H 340.59 -0.432114 6.05159 0
M  V30 3706 H 339.329 -0.730179 4.82203 0
M  V30 3707 H 338.334 1.52847 5.28127 0
M  V30 3708 H 339.559 1.81606 6.54367 0
M  V30 3709 H 337.505 -0.427959 6.54603 0
M  V30 3710 H 337.422 1.02287 7.49048 0
M  V30 3711 H 338.69 -0.126928 7.79397 0
M  V30 3712 N 342.919 -1.39368 0.735821 0
M  V30 3713 C 344.166 -2.00497 0.284123 0
M  V30 3714 C 344.494 -1.58387 -1.12889 0
M  V30 3715 O 343.749 -0.804359 -1.78406 0
M  V30 3716 C 344.048 -3.5583 0.334651 0
M  V30 3717 C 343.714 -4.17593 1.7008 0
M  V30 3718 C 342.376 -4.34176 2.07472 0
M  V30 3719 C 344.728 -4.51848 2.59775 0
M  V30 3720 C 342.056 -4.82304 3.34065 0
M  V30 3721 C 344.408 -5.01384 3.85741 0
M  V30 3722 C 343.072 -5.16175 4.23225 0
M  V30 3723 H 342.342 -0.73367 0.103968 0
M  V30 3724 H 344.989 -1.66683 0.942825 0
M  V30 3725 H 343.294 -3.89674 -0.407625 0
M  V30 3726 H 344.991 -4.00986 -0.0329927 0
M  V30 3727 H 341.581 -4.05087 1.40008 0
M  V30 3728 H 345.765 -4.38653 2.32157 0
M  V30 3729 H 341.021 -4.91941 3.63049 0
M  V30 3730 H 345.195 -5.26863 4.55399 0
M  V30 3731 H 342.822 -5.5323 5.21384 0
M  V30 3732 N 344.397 -0.483516 -1.5 0
M  V30 3733 C 345.674 0.129337 -1.95172 0
M  V30 3734 C 346.054 1.55802 -1.4244 0
M  V30 3735 O 345.402 2.19625 -0.630649 0
M  V30 3736 C 345.612 0.0599251 -3.48949 0
M  V30 3737 C 346.96 0.242617 -4.23906 0
M  V30 3738 O 347.984 0.135933 -3.55941 0
M  V30 3739 O 346.843 0.459454 -5.44565 0
M  V30 3740 H 343.937 0.104887 -0.820322 0
M  V30 3741 H 346.483 -0.544807 -1.60717 0
M  V30 3742 H 345.255 -0.937079 -3.79914 0
M  V30 3743 H 344.878 0.774984 -3.89974 0
M  V30 3744 N 345.875 1.56104 -0.216619 0
M  V30 3745 C 347.291 1.58995 0.13886 0
M  V30 3746 C 347.491 1.23333 1.59346 0
M  V30 3747 O 346.547 0.966234 2.33281 0
M  V30 3748 C 347.86 3.00143 -0.182968 0
M  V30 3749 C 349.408 3.12751 -0.124807 0
M  V30 3750 C 349.883 4.56068 -0.420241 0
M  V30 3751 N 351.374 4.61723 -0.369634 0
M  V30 3752 C 352.109 5.70542 -0.571789 0
M  V30 3753 N 351.605 6.87744 -0.835453 0
M  V30 3754 N 353.398 5.59831 -0.504563 0
M  V30 3755 H 345.549 1.77562 -1.16557 0
M  V30 3756 H 347.812 0.825091 -0.466828 0
M  V30 3757 H 347.518 3.30871 -1.19237 0
M  V30 3758 H 347.392 3.73813 0.504367 0
M  V30 3759 H 349.779 2.81822 0.875223 0
M  V30 3760 H 349.86 2.41421 -0.845544 0
M  V30 3761 H 349.504 4.87713 -1.41769 0
M  V30 3762 H 349.434 5.25617 0.321631 0
M  V30 3763 H 351.925 3.77502 -0.173338 0
M  V30 3764 H 352.238 7.66587 -0.977938 0
M  V30 3765 H 350.583 6.895 -0.872592 0
M  V30 3766 H 353.774 4.67145 -0.298842 0
M  V30 3767 H 353.947 6.44573 -0.665519 0
M  V30 3768 N 347.353 -0.0568162 1.57498 0
M  V30 3769 C 348.301 -1.08452 2.05769 0
M  V30 3770 C 349.295 -1.39164 0.965903 0
M  V30 3771 O 350.501 -1.38395 1.15095 0
M  V30 3772 H 346.876 -0.367148 0.656282 0
M  V30 3773 H 348.847 -0.651368 2.91204 0
M  V30 3774 C 347.596 -2.38543 2.52968 0
M  V30 3775 H 346.919 -2.15765 3.36579 0
M  V30 3776 H 348.359 -3.08863 2.90481 0
M  V30 3777 C 346.818 -3.05562 1.41893 0
M  V30 3778 O 347.348 -3.94262 0.769442 0
M  V30 3779 N 345.554 -2.6643 1.16032 0
M  V30 3780 H 345.101 -1.94387 1.6903 0
M  V30 3781 H 345.059 -3.11593 0.419219 0
M  V30 3782 N 348.832 -1.54138 -0.328536 0
M  V30 3783 C 350.248 -1.44736 -0.672574 0
M  V30 3784 C 350.448 -0.616217 -1.91846 0
M  V30 3785 O 349.504 -0.113067 -2.52247 0
M  V30 3786 C 350.817 -2.884 -0.851217 0
M  V30 3787 C 352.365 -2.98271 -0.948877 0
M  V30 3788 C 352.84 -4.43074 -1.15973 0
M  V30 3789 N 354.331 -4.46665 -1.22658 0
M  V30 3790 C 355.066 -5.55857 -1.40751 0
M  V30 3791 N 354.562 -6.75026 -1.5592 0
M  V30 3792 N 356.355 -5.43495 -1.4342 0
M  V30 3793 H 348.506 -2.06661 0.490421 0
M  V30 3794 H 350.769 -0.934812 0.157579 0
M  V30 3795 H 350.475 -3.51699 -0.00704236 0
M  V30 3796 H 350.349 -3.34225 -1.74853 0
M  V30 3797 H 352.736 -2.35102 -1.78356 0
M  V30 3798 H 352.817 -2.55785 -0.0281435 0
M  V30 3799 H 352.461 -5.06827 -0.329915 0
M  V30 3800 H 352.391 -4.83165 -2.09426 0
M  V30 3801 H 354.882 -3.60797 -1.124 0
M  V30 3802 H 355.195 -7.54004 -1.69404 0
M  V30 3803 H 353.54 -6.77944 -1.53027 0
M  V30 3804 H 356.731 -4.49349 -1.31162 0
M  V30 3805 H 356.904 -6.28649 -1.57178 0
M  V30 3806 N 350.31 0.590341 -1.46126 0
M  V30 3807 C 351.556 1.35082 -1.51264 0
M  V30 3808 C 351.889 1.93534 -0.160711 0
M  V30 3809 O 351.164 1.76045 0.826956 0
M  V30 3810 C 351.447 2.48588 -2.6053 0
M  V30 3811 C 351.3 1.95221 -4.05227 0
M  V30 3812 C 352.619 3.50662 -2.6594 0
M  V30 3813 H 349.738 0.489803 -0.550692 0
M  V30 3814 H 352.38 0.663887 -1.78024 0
M  V30 3815 H 350.53 3.07186 -2.37843 0
M  V30 3816 H 352.202 1.41139 -4.39178 0
M  V30 3817 H 350.445 1.26101 -4.15068 0
M  V30 3818 H 351.116 2.77121 -4.77397 0
M  V30 3819 H 353.592 3.01934 -2.86313 0
M  V30 3820 H 352.468 4.27551 -3.44226 0
M  V30 3821 H 352.729 4.07399 -1.71694 0
M  V30 3822 N 351.788 1.33704 0.83433 0
M  V30 3823 C 353.204 1.13137 1.12571 0
M  V30 3824 C 353.404 -0.0747261 2.01361 0
M  V30 3825 O 352.46 -0.753647 2.4099 0
M  V30 3826 C 353.773 2.42105 1.78342 0
M  V30 3827 C 355.321 2.48054 1.90888 0
M  V30 3828 C 355.796 3.76995 2.60075 0
M  V30 3829 N 357.287 3.78092 2.67584 0
M  V30 3830 C 358.022 4.74574 3.21818 0
M  V30 3831 N 357.518 5.81434 3.76705 0
M  V30 3832 N 359.311 4.62044 3.20112 0
M  V30 3833 H 351.462 2.11 0.243489 0
M  V30 3834 H 353.725 0.932532 0.17055 0
M  V30 3835 H 353.431 3.30391 1.20561 0
M  V30 3836 H 353.305 2.54594 2.7832 0
M  V30 3837 H 355.692 1.60215 2.47821 0
M  V30 3838 H 355.773 2.39502 0.898459 0
M  V30 3839 H 355.417 4.65219 2.03799 0
M  V30 3840 H 355.347 3.82825 3.61597 0
M  V30 3841 H 357.838 3.00865 2.28667 0
M  V30 3842 H 358.151 6.51084 4.16305 0
M  V30 3843 H 356.496 5.85163 3.7498 0
M  V30 3844 H 359.687 3.77716 2.76493 0
M  V30 3845 H 359.86 5.37406 3.62076 0
M  V30 3846 N 353.266 -1.05314 1.17247 0
M  V30 3847 C 354.515 -1.77685 0.954521 0
M  V30 3848 C 354.828 -1.88616 -0.518025 0
M  V30 3849 O 356.034 -2.57714 -0.854144 0
M  V30 3850 C 354.49 -3.19402 1.65863 0
M  V30 3851 C 354.098 -3.16605 3.16963 0
M  V30 3852 C 355.842 -3.96237 1.52303 0
M  V30 3853 C 353.749 -4.53103 3.80068 0
M  V30 3854 H 352.679 -0.666 0.353496 0
M  V30 3855 H 355.33 -1.1805 1.40486 0
M  V30 3856 H 353.712 -3.79355 1.13602 0
M  V30 3857 H 354.886 -2.66176 3.76148 0
M  V30 3858 H 353.201 -2.53268 3.30521 0
M  V30 3859 H 355.798 -4.97157 1.96822 0
M  V30 3860 H 356.141 -4.136 0.473401 0
M  V30 3861 H 356.674 -3.42829 2.01775 0
M  V30 3862 H 353.413 -4.40946 4.85023 0
M  V30 3863 H 352.933 -5.03686 3.2567 0
M  V30 3864 H 354.612 -5.22045 3.82202 0
M  V30 3865 N 354.744 -0.972509 -1.24016 0
M  V30 3866 C 356.16 -0.679827 -1.44397 0
M  V30 3867 C 356.36 0.756716 -1.86751 0
M  V30 3868 O 355.416 1.53007 -2.00861 0
M  V30 3869 C 356.729 -1.66803 -2.50195 0
M  V30 3870 C 358.277 -1.68119 -2.64017 0
M  V30 3871 C 358.752 -2.65748 -3.73017 0
M  V30 3872 N 360.243 -2.64219 -3.8045 0
M  V30 3873 C 360.978 -3.36433 -4.64328 0
M  V30 3874 N 360.474 -4.1818 -5.52356 0
M  V30 3875 N 362.267 -3.25235 -4.58453 0
M  V30 3876 H 354.418 -1.90059 -0.948228 0
M  V30 3877 H 356.681 -0.818527 -0.478245 0
M  V30 3878 H 356.387 -2.69498 -2.25973 0
M  V30 3879 H 356.261 -1.4446 -3.48441 0
M  V30 3880 H 358.648 -0.661319 -2.87594 0
M  V30 3881 H 358.729 -1.94525 -1.66113 0
M  V30 3882 H 358.373 -3.67872 -3.50189 0
M  V30 3883 H 358.303 -2.36619 -4.70446 0
M  V30 3884 H 360.794 -2.04887 -3.17537 0
M  V30 3885 H 361.107 -4.70157 -6.13329 0
M  V30 3886 H 359.452 -4.22273 -5.52006 0
M  V30 3887 H 362.643 -2.60829 -3.88698 0
M  V30 3888 H 362.816 -3.81776 -5.23594 0
M  V30 3889 N 356.222 1.38976 -0.743202 0
M  V30 3890 C 357.17 2.32394 -0.0978389 0
M  V30 3891 C 358.164 1.53486 0.716824 0
M  V30 3892 O 359.37 1.69092 0.617088 0
M  V30 3893 H 355.745 0.75189 -0.0128402 0
M  V30 3894 H 357.716 2.84441 -0.901981 0
M  V30 3895 C 356.465 3.38629 0.789036 0
M  V30 3896 H 355.788 3.99432 0.171559 0
M  V30 3897 H 357.228 4.06426 1.20807 0
M  V30 3898 C 355.687 2.76347 1.92702 0
M  V30 3899 O 356.217 2.64836 3.02034 0
M  V30 3900 N 354.423 2.34311 1.71891 0
M  V30 3901 H 353.97 2.43873 0.829675 0
M  V30 3902 H 353.928 1.9298 2.48205 0
M  V30 3903 N 357.7 0.491464 1.49741 0
M  V30 3904 C 358.946 -0.0565092 2.02721 0
M  V30 3905 C 359.279 -1.37522 1.37118 0
M  V30 3906 O 358.554 -1.87866 0.503645 0
M  V30 3907 C 358.837 -0.219051 3.59433 0
M  V30 3908 C 358.69 1.12211 4.35579 0
M  V30 3909 C 360.009 -0.964157 4.29409 0
M  V30 3910 H 357.128 -0.0190627 0.736753 0
M  V30 3911 H 359.77 0.641021 1.7886 0
M  V30 3912 H 357.92 -0.813165 3.79895 0
M  V30 3913 H 359.592 1.75437 4.26637 0
M  V30 3914 H 357.835 1.71377 3.98513 0
M  V30 3915 H 358.506 0.961794 5.43556 0
M  V30 3916 H 360.982 -0.460378 4.13545 0
M  V30 3917 H 359.858 -1.04671 5.38828 0
M  V30 3918 H 360.119 -2.00563 3.93988 0
M  V30 3919 N 359.178 -1.55987 0.224894 0
M  V30 3920 C 360.141 -2.19178 -0.670348 0
M  V30 3921 C 361.141 -1.15461 -1.11917 0
M  V30 3922 O 362.331 -1.40675 -1.02743 0
M  V30 3923 C 359.463 -2.81777 -1.9187 0
M  V30 3924 H 360.656 -2.99662 -0.119364 0
M  V30 3925 H 358.209 -1.5628 -0.0247128 0
M  V30 3926 H 358.944 -2.05172 -2.51147 0
M  V30 3927 H 358.729 -3.57732 -1.60531 0
M  V30 3928 H 360.219 -3.30205 -2.55645 0
M  V30 3929 N 360.656 0.0484629 -1.57525 0
M  V30 3930 C 361.886 0.754326 -1.92337 0
M  V30 3931 C 362.294 1.70443 -0.82132 0
M  V30 3932 O 361.637 1.82466 0.21254 0
M  V30 3933 C 361.699 1.58231 -3.22805 0
M  V30 3934 C 361.363 0.799074 -4.4996 0
M  V30 3935 C 362.36 0.1079 -5.19788 0
M  V30 3936 C 360.045 0.759345 -4.96527 0
M  V30 3937 C 362.039 -0.612516 -6.3445 0
M  V30 3938 C 359.726 0.0351713 -6.1109 0
M  V30 3939 C 360.724 -0.649537 -6.79904 0
M  V30 3940 O 360.412 -1.36199 -7.92278 0
M  V30 3941 H 360.144 0.218257 -0.639797 0
M  V30 3942 H 362.698 0.0159295 -2.05394 0
M  V30 3943 H 360.928 2.36406 -3.06021 0
M  V30 3944 H 362.617 2.16898 -3.43089 0
M  V30 3945 H 363.383 0.129748 -4.84826 0
M  V30 3946 H 359.262 1.28177 -4.42822 0
M  V30 3947 H 362.806 -1.14751 -6.88097 0
M  V30 3948 H 358.703 0.0113314 -6.45499 0
M  V30 3949 H 359.471 -1.27366 -8.0853 0
M  V30 3950 N 362.134 1.5431 0.320358 0
M  V30 3951 C 363.411 1.63322 1.07635 0
M  V30 3952 C 363.791 0.46912 2.05821 0
M  V30 3953 O 363.139 -0.536274 2.22118 0
M  V30 3954 C 363.349 3.00465 1.77544 0
M  V30 3955 C 364.697 3.56621 2.30449 0
M  V30 3956 O 365.721 3.02791 1.87606 0
M  V30 3957 O 364.58 4.5083 3.08892 0
M  V30 3958 H 361.674 0.661502 0.496331 0
M  V30 3959 H 364.22 1.66656 0.319992 0
M  V30 3960 H 362.992 3.76629 1.06143 0
M  V30 3961 H 362.615 3.00824 2.59982 0
M  V30 3962 N 363.613 -0.582584 1.46437 0
M  V30 3963 C 364.841 -1.36682 1.55324 0
M  V30 3964 C 365.256 -1.87796 0.194409 0
M  V30 3965 O 364.613 -1.63623 -0.808318 0
M  V30 3966 C 364.664 -2.55426 2.55812 0
M  V30 3967 O 364.385 -2.0643 3.86417 0
M  V30 3968 C 365.886 -3.47976 2.74641 0
M  V30 3969 H 363.106 -0.417545 0.525259 0
M  V30 3970 H 365.65 -0.708219 1.91845 0
M  V30 3971 H 363.805 -3.17275 2.22295 0
M  V30 3972 H 364.219 -2.83762 4.41111 0
M  V30 3973 H 365.693 -4.27775 3.48874 0
M  V30 3974 H 366.17 -3.99919 1.81553 0
M  V30 3975 H 366.776 -2.91962 3.09255 0
M  V30 3976 N 365.091 -1.34144 -0.827227 0
M  V30 3977 C 366.021 -1.28005 -1.95287 0
M  V30 3978 C 367.002 -0.158321 -1.69362 0
M  V30 3979 O 368.187 -0.349987 -1.9102 0
M  V30 3980 C 365.317 -1.03036 -3.31664 0
M  V30 3981 C 364.271 -2.11628 -3.72019 0
M  V30 3982 C 363.597 -1.71854 -5.0633 0
M  V30 3983 C 364.897 -3.53417 -3.8457 0
M  V30 3984 H 366.591 -2.22187 -2.00682 0
M  V30 3985 H 364.137 -1.0696 -0.964135 0
M  V30 3986 H 366.09 -0.973863 -4.09993 0
M  V30 3987 H 364.814 -0.0529391 -3.26557 0
M  V30 3988 H 363.473 -2.16339 -2.95961 0
M  V30 3989 H 363.121 -0.727841 -4.97706 0
M  V30 3990 H 362.821 -2.44531 -5.34302 0
M  V30 3991 H 364.345 -1.67692 -5.87122 0
M  V30 3992 H 365.759 -3.51142 -4.5318 0
M  V30 3993 H 364.156 -4.24679 -4.2399 0
M  V30 3994 H 365.226 -3.91072 -2.86689 0
M  V30 3995 N 366.569 1.04691 -1.17803 0
M  V30 3996 C 367.98 1.59238 -0.974689 0
M  V30 3997 C 368.331 1.90306 0.477292 0
M  V30 3998 O 367.456 1.68846 1.35352 0
M  V30 3999 C 368.051 2.89318 -1.76296 0
M  V30 4000 C 366.61 3.40506 -1.60414 0
M  V30 4001 C 365.757 2.14172 -1.76141 0
M  V30 4002 H 368.708 0.874395 -1.32439 0
M  V30 4003 H 368.729 3.5944 -1.24833 0
M  V30 4004 H 368.241 2.66675 -2.81968 0
M  V30 4005 H 366.342 3.68175 -0.572519 0
M  V30 4006 H 366.455 4.14753 -2.39827 0
M  V30 4007 H 364.819 2.25176 -1.19028 0
M  V30 4008 H 365.602 1.93992 -2.83235 0
M  V30 4009 N 368.047 0.979072 1.23499 0
M  V30 4010 C 369.296 0.642751 1.91185 0
M  V30 4011 C 369.609 -0.827253 1.77245 0
M  V30 4012 O 370.815 -1.27458 2.39722 0
M  V30 4013 C 369.271 1.09901 3.42709 0
M  V30 4014 C 368.879 2.59327 3.65313 0
M  V30 4015 C 370.623 0.836371 4.16179 0
M  V30 4016 C 368.53 2.98627 5.10467 0
M  V30 4017 H 367.46 0.236698 0.715884 0
M  V30 4018 H 370.111 1.1868 1.39955 0
M  V30 4019 H 368.493 0.48319 3.93041 0
M  V30 4020 H 369.667 3.26136 3.25533 0
M  V30 4021 H 367.982 2.83323 3.05151 0
M  V30 4022 H 370.579 1.10586 5.23139 0
M  V30 4023 H 370.922 -0.227509 4.15678 0
M  V30 4024 H 371.455 1.41371 3.71832 0
M  V30 4025 H 368.194 4.04133 5.16098 0
M  V30 4026 H 367.714 2.3651 5.51201 0
M  V30 4027 H 369.393 2.89159 5.78788 0
M  V30 4028 N 369.525 -1.3858 0.750561 0
M  V30 4029 C 370.771 -2.00481 0.305825 0
M  V30 4030 C 371.104 -1.5944 -1.10872 0
M  V30 4031 O 370.379 -0.83052 -1.75877 0
M  V30 4032 C 370.662 -3.5758 0.425287 0
M  V30 4033 C 370.515 -4.08594 1.88072 0
M  V30 4034 C 371.834 -4.39719 -0.183122 0
M  V30 4035 H 368.953 -0.728348 0.112598 0
M  V30 4036 H 371.595 -1.64566 0.949638 0
M  V30 4037 H 369.745 -3.88306 -0.122828 0
M  V30 4038 H 371.417 -3.88523 2.48691 0
M  V30 4039 H 369.66 -3.61574 2.39681 0
M  V30 4040 H 370.331 -5.177 1.91548 0
M  V30 4041 H 372.807 -4.15128 0.284303 0
M  V30 4042 H 371.683 -5.48856 -0.0692757 0
M  V30 4043 H 371.944 -4.23434 -1.27106 0
M  V30 4044 N 371.003 -0.499398 -1.49478 0
M  V30 4045 C 372.249 0.0457576 -2.02748 0
M  V30 4046 C 372.582 1.36793 -1.37846 0
M  V30 4047 O 371.857 1.87596 -0.513601 0
M  V30 4048 C 372.14 0.199986 -3.59544 0
M  V30 4049 C 371.993 -1.1452 -4.34977 0
M  V30 4050 C 373.312 0.94137 -4.29914 0
M  V30 4051 H 370.431 0.0151552 -0.736844 0
M  V30 4052 H 373.073 -0.650498 -1.78518 0
M  V30 4053 H 371.223 0.793007 -3.8032 0
M  V30 4054 H 372.895 -1.77697 -4.25701 0
M  V30 4055 H 371.138 -1.73488 -3.97598 0
M  V30 4056 H 371.809 -0.990607 -5.43039 0
M  V30 4057 H 374.285 0.43844 -4.13784 0
M  V30 4058 H 373.161 1.01812 -5.39375 0
M  V30 4059 H 373.422 1.98471 -3.95046 0
M  V30 4060 N 372.481 1.55866 -0.233164 0
M  V30 4061 C 373.431 2.17442 0.685774 0
M  V30 4062 C 374.415 1.12617 1.14918 0
M  V30 4063 O 375.607 1.3857 1.10124 0
M  V30 4064 C 372.736 2.86685 1.88856 0
M  V30 4065 C 371.822 3.98749 1.4443 0
M  V30 4066 N 372.213 5.00744 0.713364 0
M  V30 4067 C 370.511 4.11052 1.73068 0
M  V30 4068 C 371.212 5.79673 0.485205 0
M  V30 4069 N 370.188 5.33454 1.04536 0
M  V30 4070 H 373.99 2.93659 0.119022 0
M  V30 4071 H 371.504 1.62362 -0.0348995 0
M  V30 4072 H 373.501 3.29218 2.55776 0
M  V30 4073 H 372.161 2.11967 2.45967 0
M  V30 4074 H 373.172 5.16613 0.364861 0
M  V30 4075 H 369.849 3.47495 2.31416 0
M  V30 4076 H 371.239 6.71829 -0.097365 0
M  V30 4077 N 373.959 -0.0401083 1.57549 0
M  V30 4078 C 375.207 -0.731677 1.8839 0
M  V30 4079 C 375.528 -1.76481 0.829425 0
M  V30 4080 O 374.798 -1.95411 -0.1383 0
M  V30 4081 H 373.378 -0.273225 0.695239 0
M  V30 4082 H 376.04 -0.00867725 1.94898 0
M  V30 4083 H 375.136 -1.22816 2.86919 0
M  V30 4084 N 375.437 -1.54477 -0.31217 0
M  V30 4085 C 376.385 -1.85395 -1.40469 0
M  V30 4086 C 377.379 -0.726749 -1.53019 0
M  V30 4087 O 378.585 -0.910582 -1.55269 0
M  V30 4088 H 374.96 -0.587845 -0.46898 0
M  V30 4089 H 376.931 -2.76736 -1.11623 0
M  V30 4090 C 375.68 -2.10811 -2.76503 0
M  V30 4091 H 375.003 -2.97014 -2.67625 0
M  V30 4092 H 376.443 -2.3639 -3.51988 0
M  V30 4093 C 374.902 -0.903165 -3.24568 0
M  V30 4094 O 375.432 -0.118085 -4.01526 0
M  V30 4095 N 373.638 -0.711634 -2.81752 0
M  V30 4096 H 373.185 -1.35171 -2.19286 0
M  V30 4097 H 373.143 0.0930473 -3.14262 0
M  V30 4098 N 376.915 0.57481 -1.46744 0
M  V30 4099 C 378.163 1.33009 -1.52161 0
M  V30 4100 C 378.484 1.94185 -0.178092 0
M  V30 4101 O 377.754 1.7899 0.796196 0
M  V30 4102 H 376.334 0.493873 -0.560445 0
M  V30 4103 H 378.996 0.672589 -1.82927 0
M  V30 4104 H 378.092 2.13273 -2.27862 0
M  V30 4105 N 378.394 1.34581 0.820102 0
M  V30 4106 C 379.805 1.24298 1.39309 0
M  V30 4107 C 380.156 -0.130351 1.95767 0
M  V30 4108 O 379.281 -1.0308 1.90272 0
M  V30 4109 C 379.876 2.25054 2.53251 0
M  V30 4110 C 378.435 2.18552 3.0645 0
M  V30 4111 C 377.582 2.11503 1.79337 0
M  V30 4112 H 380.533 1.45906 0.624262 0
M  V30 4113 H 380.554 1.86917 3.31425 0
M  V30 4114 H 380.066 3.24996 2.1213 0
M  V30 4115 H 378.167 1.21976 3.52069 0
M  V30 4116 H 378.28 3.0993 3.65349 0
M  V30 4117 H 376.644 1.57268 2.00347 0
M  V30 4118 H 377.427 3.13284 1.40386 0
M  V30 4119 N 379.872 -1.04064 1.18357 0
M  V30 4120 C 381.1 -1.80916 1.00384 0
M  V30 4121 C 381.515 -1.83414 -0.447738 0
M  V30 4122 O 380.872 -1.26962 -1.31099 0
M  V30 4123 C 380.923 -3.26516 1.55144 0
M  V30 4124 O 380.644 -3.2424 2.94618 0
M  V30 4125 C 382.145 -4.20013 1.41789 0
M  V30 4126 H 379.365 -0.569728 0.354474 0
M  V30 4127 H 381.909 -1.31151 1.56906 0
M  V30 4128 H 380.064 -3.73512 1.02798 0
M  V30 4129 H 380.478 -4.15452 3.20156 0
M  V30 4130 H 381.952 -5.20111 1.84901 0
M  V30 4131 H 382.429 -4.37667 0.36661 0
M  V30 4132 H 383.035 -3.78881 1.93207 0
M  V30 4133 N 381.35 -0.985608 -1.22978 0
M  V30 4134 C 382.297 -0.529825 -2.24636 0
M  V30 4135 C 383.267 0.434028 -1.60329 0
M  V30 4136 O 384.452 0.340414 -1.87739 0
M  V30 4137 C 381.592 0.156533 -3.44745 0
M  V30 4138 C 380.705 -0.848197 -4.23591 0
M  V30 4139 C 379.84 -0.136109 -5.31026 0
M  V30 4140 C 378.879 -1.1297 -6.01585 0
M  V30 4141 N 378.016 -0.446415 -7.00679 0
M  V30 4142 H 382.856 -1.40148 -2.62988 0
M  V30 4143 H 380.393 -0.702168 -1.29259 0
M  V30 4144 H 382.351 0.571324 -4.1327 0
M  V30 4145 H 380.981 0.992025 -3.07179 0
M  V30 4146 H 380.033 -1.38135 -3.54433 0
M  V30 4147 H 381.345 -1.60512 -4.72268 0
M  V30 4148 H 380.499 0.335784 -6.0577 0
M  V30 4149 H 379.238 0.653373 -4.83304 0
M  V30 4150 H 378.243 -1.6123 -5.25628 0
M  V30 4151 H 379.468 -1.91993 -6.51395 0
M  V30 4152 H 377.414 0.323763 -6.55201 0
M  V30 4153 H 377.331 -1.1419 -7.47326 0
M  V30 4154 H 378.599 0.00291697 -7.795 0
M  V30 4155 N 382.828 1.3818 -0.7579 0
M  V30 4156 C 383.758 2.33027 -0.148597 0
M  V30 4157 C 384.739 1.55085 0.69875 0
M  V30 4158 O 385.924 1.83384 0.639053 0
M  V30 4159 C 383.054 3.3928 0.742034 0
M  V30 4160 C 382.008 4.28 -0.00291946 0
M  V30 4161 C 381.334 5.25146 1.00625 0
M  V30 4162 C 382.634 5.08938 -1.17385 0
M  V30 4163 H 384.328 2.84231 -0.940909 0
M  V30 4164 H 381.874 1.36659 -0.453908 0
M  V30 4165 H 383.827 4.046 1.17799 0
M  V30 4166 H 382.551 2.86569 1.56671 0
M  V30 4167 H 381.21 3.64192 -0.419504 0
M  V30 4168 H 380.858 4.68721 1.8251 0
M  V30 4169 H 380.558 5.85361 0.512428 0
M  V30 4170 H 382.082 5.93342 1.44143 0
M  V30 4171 H 383.496 5.67474 -0.815224 0
M  V30 4172 H 381.893 5.7841 -1.59882 0
M  V30 4173 H 382.963 4.42424 -1.98468 0
M  V30 4174 N 384.306 0.507319 1.49211 0
M  V30 4175 C 385.238 -0.304532 2.27168 0
M  V30 4176 C 386.251 -0.924956 1.33972 0
M  V30 4177 O 387.44 -0.807227 1.59205 0
M  V30 4178 C 384.54 -1.44431 3.06583 0
M  V30 4179 C 383.713 -0.930026 4.27398 0
M  V30 4180 C 382.772 -1.94817 4.88807 0
M  V30 4181 O 381.798 -1.51418 5.4869 0
M  V30 4182 N 383 -3.279 4.79022 0
M  V30 4183 H 385.765 0.36395 2.97482 0
M  V30 4184 H 383.326 0.340249 1.58284 0
M  V30 4185 H 385.318 -2.12311 3.44537 0
M  V30 4186 H 383.888 -2.01684 2.38835 0
M  V30 4187 H 383.108 -0.0759244 3.94127 0
M  V30 4188 H 384.396 -0.564932 5.05654 0
M  V30 4189 H 383.794 -3.65843 4.3148 0
M  V30 4190 H 382.351 -3.91476 5.21142 0
M  V30 4191 N 385.784 -1.5574 0.241426 0
M  V30 4192 C 386.714 -2.24133 -0.654722 0
M  V30 4193 C 387.695 -1.21974 -1.1856 0
M  V30 4194 O 388.88 -1.50612 -1.22595 0
M  V30 4195 C 386.01 -2.93659 -1.85423 0
M  V30 4196 C 384.964 -4.0246 -1.45636 0
M  V30 4197 C 384.29 -4.59383 -2.73626 0
M  V30 4198 C 385.59 -5.18468 -0.631506 0
M  V30 4199 H 387.284 -2.99281 -0.0844353 0
M  V30 4200 H 384.83 -1.43947 -0.0391707 0
M  V30 4201 H 386.783 -3.40203 -2.48676 0
M  V30 4202 H 385.507 -2.15991 -2.44981 0
M  V30 4203 H 384.166 -3.56676 -0.847202 0
M  V30 4204 H 383.814 -3.78422 -3.3137 0
M  V30 4205 H 383.514 -5.32826 -2.4773 0
M  V30 4206 H 385.038 -5.08658 -3.37786 0
M  V30 4207 H 386.452 -5.61272 -1.1682 0
M  V30 4208 H 384.849 -5.98266 -0.468831 0
M  V30 4209 H 385.919 -4.8358 0.357506 0
M  V30 4210 N 387.262 0.0317525 -1.57568 0
M  V30 4211 C 388.21 1.05165 -2.07468 0
M  V30 4212 C 389.204 1.3761 -0.98792 0
M  V30 4213 O 390.41 1.36546 -1.17282 0
M  V30 4214 H 386.785 0.35666 -0.66204 0
M  V30 4215 H 388.756 0.604958 -2.92203 0
M  V30 4216 C 387.505 2.34488 -2.56731 0
M  V30 4217 H 386.828 2.10383 -3.39969 0
M  V30 4218 H 388.268 3.04203 -2.95358 0
M  V30 4219 C 386.727 3.03266 -1.46736 0
M  V30 4220 O 387.257 3.92988 -0.832069 0
M  V30 4221 N 385.463 2.6455 -1.20256 0
M  V30 4222 H 385.01 1.91674 -1.72102 0
M  V30 4223 H 384.968 3.10886 -0.468737 0
M  V30 4224 N 388.74 1.54641 0.303973 0
M  V30 4225 C 389.97 1.77511 1.05705 0
M  V30 4226 C 390.378 0.533228 1.81531 0
M  V30 4227 O 389.721 -0.506423 1.76582 0
M  V30 4228 C 389.783 2.92779 2.08617 0
M  V30 4229 C 389.447 4.30977 1.52013 0
M  V30 4230 C 390.444 5.11115 0.9517 0
M  V30 4231 C 388.129 4.77571 1.55665 0
M  V30 4232 C 390.123 6.35966 0.427327 0
M  V30 4233 C 387.81 6.02384 1.02841 0
M  V30 4234 C 388.808 6.81417 0.464713 0
M  V30 4235 O 388.496 8.03881 -0.0555283 0
M  V30 4236 H 388.228 0.59579 0.319391 0
M  V30 4237 H 390.782 2.02401 0.349712 0
M  V30 4238 H 389.012 2.63506 2.83022 0
M  V30 4239 H 390.701 3.03252 2.69802 0
M  V30 4240 H 391.467 4.76264 0.916407 0
M  V30 4241 H 387.346 4.16085 1.9848 0
M  V30 4242 H 390.89 6.97599 -0.0133062 0
M  V30 4243 H 386.787 6.36723 1.06084 0
M  V30 4244 H 387.555 8.18479 0.0580522 0
M  V30 4245 N 390.218 -0.567019 1.47046 0
M  V30 4246 C 391.148 -1.68482 1.61667 0
M  V30 4247 C 392.129 -1.6358 0.466418 0
M  V30 4248 O 393.314 -1.81354 0.694574 0
M  V30 4249 C 390.444 -3.07124 1.62148 0
M  V30 4250 C 389.398 -3.26867 2.76301 0
M  V30 4251 C 388.724 -4.66196 2.61849 0
M  V30 4252 C 390.024 -3.13186 4.17986 0
M  V30 4253 H 391.718 -1.56502 2.5524 0
M  V30 4254 H 389.264 -0.751486 1.22836 0
M  V30 4255 H 391.217 -3.8516 1.70968 0
M  V30 4256 H 389.941 -3.2004 0.651287 0
M  V30 4257 H 388.6 -2.51237 2.66975 0
M  V30 4258 H 388.248 -4.75898 1.62879 0
M  V30 4259 H 387.948 -4.80356 3.38425 0
M  V30 4260 H 389.472 -5.46379 2.72584 0
M  V30 4261 H 390.886 -3.81049 4.2834 0
M  V30 4262 H 389.283 -3.3886 4.95272 0
M  V30 4263 H 390.353 -2.10057 4.3704 0
M  V30 4264 N 391.696 -1.35014 -0.812953 0
M  V30 4265 C 392.944 -1.27678 -1.56661 0
M  V30 4266 C 393.265 0.150359 -1.94419 0
M  V30 4267 O 392.535 1.08532 -1.63088 0
M  V30 4268 H 391.115 -0.469602 -0.580933 0
M  V30 4269 H 393.777 -1.69043 -0.970076 0
M  V30 4270 H 392.873 -1.88833 -2.48492 0
M  V30 4271 N 393.175 1.03435 -1.18907 0
M  V30 4272 C 394.123 2.13703 -0.918353 0
M  V30 4273 C 395.117 1.68947 0.123767 0
M  V30 4274 O 396.323 1.79983 -0.0249701 0
M  V30 4275 H 392.698 0.698112 -0.279542 0
M  V30 4276 H 394.669 2.33731 -1.85506 0
M  V30 4277 C 393.418 3.44542 -0.467532 0
M  V30 4278 H 392.741 3.79394 -1.26095 0
M  V30 4279 H 394.181 4.22812 -0.317164 0
M  V30 4280 C 392.64 3.26829 0.817588 0
M  V30 4281 O 393.17 3.54975 1.88031 0
M  V30 4282 N 391.376 2.80139 0.772677 0
M  V30 4283 H 390.923 2.57434 -0.0923883 0
M  V30 4284 H 390.881 2.68668 1.63294 0
M  V30 4285 N 394.653 0.992116 1.22453 0
M  V30 4286 C 395.883 0.684949 1.94915 0
M  V30 4287 C 396.291 -0.754292 1.73514 0
M  V30 4288 O 395.634 -1.52056 1.03076 0
M  V30 4289 C 395.696 0.910054 3.47791 0
M  V30 4290 C 395.36 2.33363 3.92926 0
M  V30 4291 C 396.357 3.31308 4.00663 0
M  V30 4292 C 394.042 2.66785 4.25595 0
M  V30 4293 C 396.036 4.6075 4.40441 0
M  V30 4294 C 393.723 3.96446 4.65053 0
M  V30 4295 C 394.721 4.9324 4.72444 0
M  V30 4296 O 394.409 6.20584 5.1101 0
M  V30 4297 H 394.141 0.25258 0.62704 0
M  V30 4298 H 396.695 1.32939 1.56577 0
M  V30 4299 H 394.925 0.208443 3.86138 0
M  V30 4300 H 396.614 0.598257 4.01467 0
M  V30 4301 H 397.38 3.0682 3.75615 0
M  V30 4302 H 393.259 1.92148 4.19047 0
M  V30 4303 H 396.803 5.363 4.46126 0
M  V30 4304 H 392.7 4.20724 4.89552 0
M  V30 4305 H 393.468 6.24509 5.29085 0
M  V30 4306 N 396.131 -1.37776 0.765217 0
M  V30 4307 C 397.377 -2.00145 0.327072 0
M  V30 4308 C 397.71 -1.60607 -1.09175 0
M  V30 4309 O 396.985 -0.849127 -1.74986 0
M  V30 4310 C 397.268 -3.57109 0.46319 0
M  V30 4311 C 397.121 -4.06576 1.92395 0
M  V30 4312 C 398.44 -4.39888 -0.136473 0
M  V30 4313 H 395.559 -0.727113 0.120316 0
M  V30 4314 H 398.201 -1.63549 0.967039 0
M  V30 4315 H 396.351 -3.88414 -0.0816358 0
M  V30 4316 H 398.023 -3.85864 2.52798 0
M  V30 4317 H 396.266 -3.59011 2.43503 0
M  V30 4318 H 396.937 -5.15639 1.97028 0
M  V30 4319 H 399.413 -4.14803 0.328317 0
M  V30 4320 H 398.289 -5.48899 -0.0110582 0
M  V30 4321 H 398.55 -4.24758 -1.22608 0
M  V30 4322 N 397.609 -0.515225 -1.4894 0
M  V30 4323 C 399.02 -0.0710067 -1.86565 0
M  V30 4324 C 399.371 1.34733 -1.42623 0
M  V30 4325 O 398.496 2.00653 -0.810379 0
M  V30 4326 C 399.091 -0.122083 -3.3858 0
M  V30 4327 C 397.65 0.266863 -3.75453 0
M  V30 4328 C 396.797 -0.488376 -2.72966 0
M  V30 4329 H 399.748 -0.727266 -1.41055 0
M  V30 4330 H 399.769 0.669818 -3.74558 0
M  V30 4331 H 399.281 -1.15448 -3.70531 0
M  V30 4332 H 397.382 1.30196 -3.49113 0
M  V30 4333 H 397.495 -0.0624811 -4.79059 0
M  V30 4334 H 395.859 0.0635622 -2.54621 0
M  V30 4335 H 396.642 -1.52113 -3.07761 0
M  V30 4336 N 399.087 1.5561 -0.249682 0
M  V30 4337 C 400.035 2.22894 0.664906 0
M  V30 4338 C 401.029 1.21743 1.17792 0
M  V30 4339 O 402.235 1.39748 1.13449 0
M  V30 4340 H 398.61 0.715022 0.232912 0
M  V30 4341 H 400.581 2.98307 0.0742998 0
M  V30 4342 C 399.33 2.94424 1.84959 0
M  V30 4343 H 398.653 3.72031 1.46399 0
M  V30 4344 H 400.093 3.44862 2.4667 0
M  V30 4345 C 398.552 1.98454 2.72245 0
M  V30 4346 O 399.082 1.51939 3.71857 0
M  V30 4347 N 397.288 1.65496 2.38871 0
M  V30 4348 H 396.835 2.03517 1.57919 0
M  V30 4349 H 396.793 1.0155 2.97548 0
M  V30 4350 N 400.565 -0.0233959 1.57583 0
M  V30 4351 C 401.813 -0.711654 1.89156 0
M  V30 4352 C 402.134 -1.75591 0.848096 0
M  V30 4353 O 401.404 -1.95547 -0.117566 0
M  V30 4354 H 399.984 -0.265835 0.698098 0
M  V30 4355 H 402.646 0.0119948 1.94896 0
M  V30 4356 H 401.742 -1.19766 2.88206 0
M  V30 4357 N 402.043 -1.548 -0.295768 0
M  V30 4358 C 403.289 -1.75517 -1.02789 0
M  V30 4359 C 403.644 -0.537266 -1.84746 0
M  V30 4360 O 402.937 0.470299 -1.85738 0
M  V30 4361 C 403.131 -2.98797 -1.961 0
M  V30 4362 C 402.96 -4.3246 -1.23321 0
M  V30 4363 C 401.73 -4.96131 -0.95822 0
M  V30 4364 C 403.928 -5.10365 -0.635024 0
M  V30 4365 N 401.91 -6.1357 -0.201257 0
M  V30 4366 C 403.281 -6.19999 -0.0110937 0
M  V30 4367 C 405.336 -4.94957 -0.540594 0
M  V30 4368 C 404.039 -7.15904 0.698136 0
M  V30 4369 C 406.065 -5.91197 0.154992 0
M  V30 4370 C 405.427 -7.00203 0.767752 0
M  V30 4371 H 401.526 -0.694786 -0.358882 0
M  V30 4372 H 404.11 -1.92281 -0.305943 0
M  V30 4373 H 402.281 -2.83448 -2.6554 0
M  V30 4374 H 404.013 -3.08017 -2.62502 0
M  V30 4375 H 400.768 -4.56595 -1.25771 0
M  V30 4376 H 401.192 -6.76802 0.16389 0
M  V30 4377 H 405.834 -4.10803 -1.00003 0
M  V30 4378 H 403.552 -7.99595 1.16933 0
M  V30 4379 H 407.138 -5.81353 0.228069 0
M  V30 4380 H 406.018 -7.73393 1.29743 0
M  V30 4381 N 403.521 0.559213 -1.47345 0
M  V30 4382 C 404.749 1.34194 -1.57479 0
M  V30 4383 C 405.164 1.87463 -0.224261 0
M  V30 4384 O 404.521 1.64888 0.782185 0
M  V30 4385 C 404.572 2.51324 -2.59843 0
M  V30 4386 O 404.293 2.00256 -3.89653 0
M  V30 4387 C 405.794 3.43563 -2.80142 0
M  V30 4388 H 403.014 0.409136 -0.531835 0
M  V30 4389 H 405.558 0.677609 -1.92947 0
M  V30 4390 H 403.713 3.13699 -2.27314 0
M  V30 4391 H 404.127 2.76708 -4.4557 0
M  V30 4392 H 405.601 4.2217 -3.55635 0
M  V30 4393 H 406.078 3.9698 -1.87892 0
M  V30 4394 H 406.684 2.87005 -3.1386 0
M  V30 4395 N 404.999 1.35443 0.805782 0
M  V30 4396 C 406.41 1.25768 1.37983 0
M  V30 4397 C 406.761 -0.10958 1.95894 0
M  V30 4398 O 405.886 -1.01056 1.91355 0
M  V30 4399 C 406.481 2.27727 2.5085 0
M  V30 4400 C 405.04 2.2179 3.04115 0
M  V30 4401 C 404.187 2.13393 1.77084 0
M  V30 4402 H 407.138 1.4656 0.608752 0
M  V30 4403 H 407.159 1.90422 3.29424 0
M  V30 4404 H 406.671 3.27227 2.08671 0
M  V30 4405 H 404.772 1.25703 3.50756 0
M  V30 4406 H 404.885 3.13788 3.62042 0
M  V30 4407 H 403.249 1.59384 1.98668 0
M  V30 4408 H 404.032 3.14755 1.37056 0
M  V30 4409 N 406.477 -1.02803 1.19454 0
M  V30 4410 C 407.387 -2.14575 0.948408 0
M  V30 4411 C 408.403 -1.73757 -0.091871 0
M  V30 4412 O 409.579 -2.01185 0.0929654 0
M  V30 4413 C 406.644 -3.43202 0.491265 0
M  V30 4414 C 405.705 -3.98328 1.60103 0
M  V30 4415 C 404.938 -5.20816 1.16561 0
M  V30 4416 O 405.161 -5.70392 0.0295238 0
M  V30 4417 O 404.095 -5.68801 1.96849 0
M  V30 4418 H 407.921 -2.38202 1.88397 0
M  V30 4419 H 405.506 -1.12989 0.977433 0
M  V30 4420 H 407.388 -4.20687 0.245015 0
M  V30 4421 H 406.063 -3.21018 -0.415851 0
M  V30 4422 H 404.97 -3.22174 1.90144 0
M  V30 4423 H 406.303 -4.24879 2.48473 0
M  V30 4424 N 407.956 -0.998596 -1.21925 0
M  V30 4425 C 409.204 -0.676325 -1.90448 0
M  V30 4426 C 409.525 0.794719 -1.78071 0
M  V30 4427 O 408.795 1.5701 -1.17152 0
M  V30 4428 H 407.375 -0.247165 -0.704925 0
M  V30 4429 H 410.037 -1.26633 -1.48156 0
M  V30 4430 H 409.133 -0.943858 -2.97486 0
M  V30 4431 N 409.434 1.37368 -0.772513 0
M  V30 4432 C 410.682 1.99279 -0.336516 0
M  V30 4433 C 411.003 1.6163 1.09091 0
M  V30 4434 O 410.273 0.882109 1.74916 0
M  V30 4435 H 408.853 0.737063 -0.121435 0
M  V30 4436 H 411.515 1.67836 -0.990809 0
M  V30 4437 H 410.611 3.09332 -0.414763 0
M  V30 4438 N 410.912 0.523116 1.48665 0
M  V30 4439 C 412.152 -0.0115588 2.04397 0
M  V30 4440 C 412.516 -1.32225 1.39214 0
M  V30 4441 O 413.717 -1.94253 1.85793 0
M  V30 4442 C 411.988 -0.138119 3.57133 0
M  V30 4443 S 413.547 -0.623849 4.34343 0
M  V30 4444 H 410.365 0.00877706 0.710946 0
M  V30 4445 H 412.967 0.702116 1.82457 0
M  V30 4446 H 411.671 0.820748 4.02109 0
M  V30 4447 H 411.202 -0.876377 3.83514 0
M  V30 4448 H 413.217 -1.8895 4.58816 0
M  V30 4449 N 412.39 -1.55475 0.257931 0
M  V30 4450 C 413.638 -1.98813 -0.363009 0
M  V30 4451 C 413.959 -1.14757 -1.57657 0
M  V30 4452 O 413.229 -0.232956 -1.9451 0
M  V30 4453 H 411.809 -0.734308 -0.137113 0
M  V30 4454 H 414.471 -1.9156 0.359281 0
M  V30 4455 H 413.567 -3.04941 -0.664634 0
M  V30 4456 N 413.868 0.0150385 -1.57593 0
M  V30 4457 C 415.115 0.703001 -1.89906 0
M  V30 4458 C 415.443 1.74604 -0.856944 0
M  V30 4459 O 414.698 1.95197 0.140287 0
M  V30 4460 C 414.997 1.39686 -3.28972 0
M  V30 4461 C 414.663 0.488457 -4.48246 0
M  V30 4462 C 413.325 0.2383 -4.8061 0
M  V30 4463 C 415.677 -0.137881 -5.21018 0
M  V30 4464 C 413.005 -0.646738 -5.83125 0
M  V30 4465 C 415.357 -1.0107 -6.24474 0
M  V30 4466 C 414.021 -1.27019 -6.55303 0
M  V30 4467 H 413.291 0.257246 -0.694914 0
M  V30 4468 H 415.938 -0.037259 -1.91464 0
M  V30 4469 H 414.243 2.21079 -3.23468 0
M  V30 4470 H 415.94 1.93495 -3.51227 0
M  V30 4471 H 412.53 0.693593 -4.22951 0
M  V30 4472 H 416.714 0.0423953 -4.96282 0
M  V30 4473 H 411.97 -0.855937 -6.05379 0
M  V30 4474 H 416.144 -1.50247 -6.79999 0
M  V30 4475 H 413.771 -1.95769 -7.3456 0
M  V30 4476 N 415.346 1.54954 0.287554 0
M  V30 4477 C 416.586 1.76617 1.02887 0
M  V30 4478 C 416.95 0.547759 1.84021 0
M  V30 4479 O 418.151 0.642365 2.61012 0
M  V30 4480 C 416.422 3.02717 1.89993 0
M  V30 4481 S 417.981 3.45438 2.70588 0
M  V30 4482 H 414.799 0.6207 0.346775 0
M  V30 4483 H 417.401 1.93172 0.30082 0
M  V30 4484 H 416.105 3.89503 1.29287 0
M  V30 4485 H 415.636 2.88787 2.67144 0
M  V30 4486 H 417.651 3.03566 3.92508 0
M  V30 4487 N 416.824 -0.551391 1.4764 0
M  V30 4488 C 417.772 -1.67896 1.60978 0
M  V30 4489 C 418.766 -1.62549 0.476877 0
M  V30 4490 O 419.972 -1.67664 0.654878 0
M  V30 4491 H 416.347 -0.555649 0.506713 0
M  V30 4492 H 418.318 -1.53784 2.55721 0
M  V30 4493 C 417.067 -3.06234 1.64669 0
M  V30 4494 H 416.39 -3.11033 2.51194 0
M  V30 4495 H 417.83 -3.84804 1.7805 0
M  V30 4496 C 416.289 -3.34737 0.381115 0
M  V30 4497 O 416.819 -3.98381 -0.515297 0
M  V30 4498 N 415.025 -2.8944 0.259354 0
M  V30 4499 H 414.572 -2.37827 0.98976 0
M  V30 4500 H 414.53 -3.08882 -0.586464 0
M  V30 4501 N 418.302 -1.35869 -0.798587 0
M  V30 4502 C 419.234 -1.25305 -1.91915 0
M  V30 4503 C 420.247 -0.174548 -1.61862 0
M  V30 4504 O 421.436 -0.428499 -1.73281 0
M  V30 4505 C 418.536 -0.9086 -3.26493 0
M  V30 4506 C 417.709 -2.08711 -3.84394 0
M  V30 4507 C 416.768 -1.71717 -4.97393 0
M  V30 4508 O 415.794 -2.43692 -5.14396 0
M  V30 4509 N 416.996 -0.645473 -5.769 0
M  V30 4510 H 419.761 -2.21849 -2.01502 0
M  V30 4511 H 417.322 -1.29143 -0.976408 0
M  V30 4512 H 419.314 -0.642455 -3.99568 0
M  V30 4513 H 417.884 -0.0325815 -3.12583 0
M  V30 4514 H 417.104 -2.51659 -3.03416 0
M  V30 4515 H 418.392 -2.87468 -4.19809 0
M  V30 4516 H 417.79 -0.047648 -5.6568 0
M  V30 4517 H 416.347 -0.43913 -6.50319 0
M  V30 4518 N 419.78 1.02168 -1.19998 0
M  V30 4519 C 421.057 1.72816 -0.916191 0
M  V30 4520 C 421.437 2.03081 0.576325 0
M  V30 4521 O 420.785 1.69122 1.53656 0
M  V30 4522 C 420.995 2.9997 -1.78378 0
M  V30 4523 C 422.343 3.73336 -2.02251 0
M  V30 4524 O 423.367 3.09914 -1.75589 0
M  V30 4525 O 422.226 4.87371 -2.47249 0
M  V30 4526 H 419.32 0.752924 -0.342103 0
M  V30 4527 H 421.866 1.08062 -1.30846 0
M  V30 4528 H 420.638 2.73888 -2.79466 0
M  V30 4529 H 420.261 3.72464 -1.39126 0
M  V30 4530 N 421.258 1.00505 1.21394 0
M  V30 4531 C 422.674 0.717873 1.42544 0
M  V30 4532 C 422.874 -0.706936 1.88692 0
M  V30 4533 O 421.93 -1.47627 2.04847 0
M  V30 4534 C 423.243 1.73377 2.45684 0
M  V30 4535 C 424.791 1.75059 2.59467 0
M  V30 4536 C 425.266 2.75545 3.6584 0
M  V30 4537 N 426.757 2.74213 3.73311 0
M  V30 4538 C 427.492 3.48626 4.55245 0
M  V30 4539 N 426.988 4.32678 5.41075 0
M  V30 4540 N 428.781 3.37276 4.49668 0
M  V30 4541 H 420.932 1.92506 0.897503 0
M  V30 4542 H 423.195 0.830919 0.456375 0
M  V30 4543 H 422.901 2.75395 2.18748 0
M  V30 4544 H 422.775 1.53647 3.44489 0
M  V30 4545 H 425.162 0.737337 2.8574 0
M  V30 4546 H 425.243 1.98861 1.60897 0
M  V30 4547 H 424.887 3.77028 3.40313 0
M  V30 4548 H 424.817 2.49009 4.64007 0
M  V30 4549 H 427.308 2.13234 3.11993 0
M  V30 4550 H 427.621 4.86253 6.00648 0
M  V30 4551 H 425.966 4.3676 5.40616 0
M  V30 4552 H 429.157 2.71043 3.81646 0
M  V30 4553 H 429.33 3.95524 5.13288 0
M  V30 4554 N 422.737 -1.36956 0.779787 0
M  V30 4555 C 424.153 -1.52817 0.460342 0
M  V30 4556 C 424.353 -1.7361 -1.02283 0
M  V30 4557 O 423.409 -1.76207 -1.80852 0
M  V30 4558 C 424.722 -2.71983 1.28241 0
M  V30 4559 C 426.27 -2.85849 1.27512 0
M  V30 4560 C 426.745 -4.08008 2.08072 0
M  V30 4561 N 428.236 -4.15135 2.05467 0
M  V30 4562 C 428.971 -5.08711 2.64577 0
M  V30 4563 N 428.467 -6.07792 3.32506 0
M  V30 4564 N 430.26 -5.01254 2.54363 0
M  V30 4565 H 422.411 -1.21713 1.74068 0
M  V30 4566 H 424.674 -0.593294 0.739396 0
M  V30 4567 H 424.38 -2.63109 2.33381 0
M  V30 4568 H 424.254 -3.65882 0.917088 0
M  V30 4569 H 426.641 -2.94189 0.231686 0
M  V30 4570 H 426.722 -1.92886 1.68014 0
M  V30 4571 H 426.366 -4.00429 3.12441 0
M  V30 4572 H 426.296 -5.001 1.64947 0
M  V30 4573 H 428.787 -3.44189 1.5602 0
M  V30 4574 H 429.1 -6.75739 3.74963 0
M  V30 4575 H 427.445 -6.08047 3.36606 0
M  V30 4576 H 430.636 -4.22795 2.00902 0
M  V30 4577 H 430.809 -5.73995 3.00722 0
M  V30 4578 N 424.215 -0.530993 -1.48385 0
M  V30 4579 C 425.443 -0.00134122 -2.069 0
M  V30 4580 C 425.858 1.2805 -1.3874 0
M  V30 4581 O 425.215 1.76204 -0.475244 0
M  V30 4582 C 425.266 0.225256 -3.60798 0
M  V30 4583 O 424.987 -1.0058 -4.26398 0
M  V30 4584 C 426.488 0.795172 -4.3611 0
M  V30 4585 H 423.708 -0.0339704 -0.67014 0
M  V30 4586 H 426.252 -0.736926 -1.90761 0
M  V30 4587 H 424.407 0.910891 -3.76539 0
M  V30 4588 H 424.821 -0.787165 -5.1856 0
M  V30 4589 H 426.295 0.903143 -5.44562 0
M  V30 4590 H 426.772 1.80031 -4.00606 0
M  V30 4591 H 427.378 0.146069 -4.25049 0
M  V30 4592 N 425.693 1.55336 -0.266172 0
M  V30 4593 C 426.623 2.25146 0.618981 0
M  V30 4594 C 427.604 1.23845 1.16604 0
M  V30 4595 O 428.789 1.52544 1.20183 0
M  V30 4596 C 425.919 2.96572 1.80728 0
M  V30 4597 C 424.873 4.04726 1.39215 0
M  V30 4598 C 424.199 4.63678 2.66283 0
M  V30 4599 C 425.499 5.19407 0.548942 0
M  V30 4600 H 427.193 2.99377 0.0368116 0
M  V30 4601 H 424.739 1.43991 0.0162651 0
M  V30 4602 H 426.692 3.44116 2.43232 0
M  V30 4603 H 425.416 2.19861 2.41514 0
M  V30 4604 H 424.075 3.57979 0.790351 0
M  V30 4605 H 423.723 3.83646 3.25308 0
M  V30 4606 H 423.423 5.367 2.39222 0
M  V30 4607 H 424.947 5.13967 3.29651 0
M  V30 4608 H 426.361 5.63059 1.07876 0
M  V30 4609 H 424.758 5.98936 0.373593 0
M  V30 4610 H 425.828 4.8295 -0.434394 0
M  V30 4611 N 427.171 -0.0066808 1.57599 0
M  V30 4612 C 428.582 -0.550379 1.78403 0
M  V30 4613 C 428.933 -1.74339 0.900014 0
M  V30 4614 O 428.058 -2.16166 0.100713 0
M  V30 4615 C 428.653 -1.00523 3.23544 0
M  V30 4616 C 427.212 -1.49428 3.45468 0
M  V30 4617 C 426.359 -0.442444 2.73748 0
M  V30 4618 H 429.31 0.219508 1.57175 0
M  V30 4619 H 429.331 -1.87157 3.31289 0
M  V30 4620 H 428.843 -0.136735 3.87859 0
M  V30 4621 H 426.944 -2.3839 2.86358 0
M  V30 4622 H 427.057 -1.52635 4.54136 0
M  V30 4623 H 425.421 -0.902578 2.38171 0
M  V30 4624 H 426.204 0.416973 3.40758 0
M  V30 4625 N 428.649 -1.55105 -0.279332 0
M  V30 4626 C 429.897 -1.75066 -1.00977 0
M  V30 4627 C 430.218 -0.551276 -1.87045 0
M  V30 4628 O 429.488 0.433984 -1.91032 0
M  V30 4629 H 428.068 -0.645578 -0.375816 0
M  V30 4630 H 430.73 -1.92497 -0.305089 0
M  V30 4631 H 429.826 -2.64894 -1.65038 0
M  V30 4632 N 430.127 0.543554 -1.4793 0
M  V30 4633 C 431.375 1.29752 -1.54948 0
M  V30 4634 C 431.696 1.93764 -0.219242 0
M  V30 4635 O 430.966 1.80639 0.75805 0
M  V30 4636 H 429.546 0.481874 -0.570795 0
M  V30 4637 H 432.208 0.633636 -1.84312 0
M  V30 4638 H 431.304 2.08392 -2.32334 0
M  V30 4639 N 431.605 1.3629 0.791371 0
M  V30 4640 C 432.537 1.26321 1.91248 0
M  V30 4641 C 433.55 0.18313 1.61767 0
M  V30 4642 O 434.739 0.437682 1.73051 0
M  V30 4643 C 431.839 0.925901 3.26007 0
M  V30 4644 C 431.012 2.10746 3.83281 0
M  V30 4645 C 430.071 1.74352 4.96475 0
M  V30 4646 O 429.097 2.46416 5.13096 0
M  V30 4647 N 430.299 0.676058 5.7655 0
M  V30 4648 H 433.064 2.22915 2.00323 0
M  V30 4649 H 430.625 1.29659 0.969546 0
M  V30 4650 H 432.617 0.663636 3.99222 0
M  V30 4651 H 431.187 0.0491581 3.12561 0
M  V30 4652 H 430.407 2.53264 3.02077 0
M  V30 4653 H 431.695 2.8969 4.18279 0
M  V30 4654 H 431.093 0.0776467 5.65647 0
M  V30 4655 H 429.65 0.473612 6.50077 0
M  V30 4656 N 433.083 -1.0153 1.20538 0
M  V30 4657 C 434.494 -1.56598 1.01657 0
M  V30 4658 C 434.845 -1.91505 -0.426668 0
M  V30 4659 O 433.97 -1.72375 -1.30827 0
M  V30 4660 C 434.565 -2.84542 1.83905 0
M  V30 4661 C 433.124 -3.36133 1.69386 0
M  V30 4662 C 432.271 -2.09427 1.81757 0
M  V30 4663 H 435.222 -0.838974 1.34711 0
M  V30 4664 H 435.243 -3.56004 1.34319 0
M  V30 4665 H 434.755 -2.59105 2.8894 0
M  V30 4666 H 432.856 -3.66528 0.669933 0
M  V30 4667 H 432.969 -4.08248 2.50739 0
M  V30 4668 H 431.333 -2.21941 1.24957 0
M  V30 4669 H 432.116 -1.86414 2.88279 0
M  V30 4670 N 434.561 -1.01147 -1.20859 0
M  V30 4671 C 435.972 -0.730205 -1.71828 0
M  V30 4672 C 436.323 0.751662 -1.8123 0
M  V30 4673 O 435.448 1.58686 -1.47132 0
M  V30 4674 C 436.043 -1.31885 -3.12077 0
M  V30 4675 C 434.602 -1.08656 -3.60376 0
M  V30 4676 C 433.749 -1.42769 -2.37723 0
M  V30 4677 H 436.7 -1.18158 -1.05945 0
M  V30 4678 H 436.721 -0.706793 -3.73878 0
M  V30 4679 H 436.233 -2.39737 -3.05201 0
M  V30 4680 H 434.334 -0.0254814 -3.72591 0
M  V30 4681 H 434.447 -1.76301 -4.45483 0
M  V30 4682 H 432.811 -0.846603 -2.40218 0
M  V30 4683 H 433.594 -2.51666 -2.33493 0
M  V30 4684 N 436.039 1.36541 -0.78704 0
M  V30 4685 C 437.45 1.81873 -0.421807 0
M  V30 4686 C 437.801 1.65487 1.05397 0
M  V30 4687 O 436.926 1.17448 1.81755 0
M  V30 4688 C 437.521 3.30192 -0.758841 0
M  V30 4689 C 436.08 3.73743 -0.446468 0
M  V30 4690 C 435.227 2.58844 -0.994728 0
M  V30 4691 H 438.178 1.24796 -0.98039 0
M  V30 4692 H 438.199 3.80468 -0.0490648 0
M  V30 4693 H 437.711 3.42087 -1.83299 0
M  V30 4694 H 435.812 3.6741 0.619739 0
M  V30 4695 H 435.925 4.69272 -0.965415 0
M  V30 4696 H 434.289 2.51245 -0.418087 0
M  V30 4697 H 435.072 2.73525 -2.07458 0
M  V30 4698 N 437.518 0.538854 1.48102 0
M  V30 4699 C 438.934 0.19732 1.58376 0
M  V30 4700 C 439.134 -1.29971 1.5398 0
M  V30 4701 O 438.19 -2.07861 1.43352 0
M  V30 4702 C 439.503 0.807716 2.89649 0
M  V30 4703 C 441.051 0.77726 3.03196 0
M  V30 4704 C 441.526 1.36639 4.37143 0
M  V30 4705 N 443.017 1.32875 4.43732 0
M  V30 4706 C 443.752 1.7544 5.45901 0
M  V30 4707 N 443.248 2.25776 6.54979 0
M  V30 4708 N 445.041 1.66623 5.36836 0
M  V30 4709 H 437.192 1.5117 1.49202 0
M  V30 4710 H 439.455 0.629327 0.708979 0
M  V30 4711 H 439.161 1.85909 2.98548 0
M  V30 4712 H 439.035 0.289975 3.76084 0
M  V30 4713 H 441.422 -0.265374 2.93904 0
M  V30 4714 H 441.503 1.33256 2.18349 0
M  V30 4715 H 441.147 2.408 4.47189 0
M  V30 4716 H 441.077 0.786689 5.20691 0
M  V30 4717 H 443.568 0.96037 3.65493 0
M  V30 4718 H 443.881 2.56226 7.29087 0
M  V30 4719 H 442.226 2.29775 6.55918 0
M  V30 4720 H 445.417 1.27089 4.50517 0
M  V30 4721 H 445.59 2.00115 6.16326 0
M  V30 4722 N 438.996 -1.55193 0.274407 0
M  V30 4723 C 440.242 -1.99877 -0.343086 0
M  V30 4724 C 440.575 -1.16256 -1.55558 0
M  V30 4725 O 439.85 -0.232462 -1.93106 0
M  V30 4726 C 440.133 -3.52706 -0.725965 0
M  V30 4727 C 439.986 -4.47081 0.493818 0
M  V30 4728 C 441.305 -4.11422 -1.56268 0
M  V30 4729 H 438.424 -0.726625 -0.123229 0
M  V30 4730 H 441.066 -1.86136 0.38121 0
M  V30 4731 H 439.216 -3.64546 -1.34307 0
M  V30 4732 H 440.888 -4.47186 1.13237 0
M  V30 4733 H 439.131 -4.1877 1.13201 0
M  V30 4734 H 439.802 -5.51699 0.18217 0
M  V30 4735 H 442.278 -4.02855 -1.04151 0
M  V30 4736 H 441.154 -5.18568 -1.79939 0
M  V30 4737 H 441.415 -3.61607 -2.54348 0
M  V30 4738 N 440.474 -0.00167713 -1.576 0
M  V30 4739 C 441.721 0.68282 -1.90641 0
M  V30 4740 C 442.049 1.73686 -0.875415 0
M  V30 4741 O 441.304 1.95334 0.119575 0
M  V30 4742 C 441.603 1.36189 -3.30435 0
M  V30 4743 C 441.269 0.440887 -4.48739 0
M  V30 4744 C 439.931 0.187312 -4.80835 0
M  V30 4745 C 442.283 -0.193134 -5.20842 0
M  V30 4746 C 439.611 -0.70855 -5.82406 0
M  V30 4747 C 441.963 -1.07688 -6.23367 0
M  V30 4748 C 440.627 -1.33962 -6.53919 0
M  V30 4749 H 439.897 0.249862 -0.697603 0
M  V30 4750 H 442.544 -0.0575642 -1.91413 0
M  V30 4751 H 440.849 2.17636 -3.25794 0
M  V30 4752 H 442.546 1.89759 -3.5326 0
M  V30 4753 H 439.136 0.648694 -4.23663 0
M  V30 4754 H 443.32 -0.0102445 -4.96299 0
M  V30 4755 H 438.576 -0.920097 -6.04437 0
M  V30 4756 H 442.75 -1.57451 -6.78367 0
M  V30 4757 H 440.377 -2.03549 -7.32442 0
M  V30 4758 N 441.952 1.55251 0.271103 0
M  V30 4759 C 442.882 1.9127 1.33933 0
M  V30 4760 C 443.863 0.77478 1.5143 0
M  V30 4761 O 445.048 1.03307 1.64442 0
M  V30 4762 C 442.178 2.18627 2.69851 0
M  V30 4763 C 441.132 3.34442 2.67081 0
M  V30 4764 C 440.458 3.47284 4.06569 0
M  V30 4765 C 441.758 4.70784 2.26185 0
M  V30 4766 H 443.452 2.80744 1.04035 0
M  V30 4767 H 440.998 1.35077 0.499017 0
M  V30 4768 H 442.951 2.42413 3.44694 0
M  V30 4769 H 441.675 1.25955 3.01335 0
M  V30 4770 H 440.334 3.10627 1.94695 0
M  V30 4771 H 439.982 2.52074 4.35279 0
M  V30 4772 H 439.682 4.25152 4.0561 0
M  V30 4773 H 441.206 3.73363 4.83148 0
M  V30 4774 H 442.62 4.94102 2.90751 0
M  V30 4775 H 441.017 5.51582 2.36384 0
M  V30 4776 H 442.087 4.69478 1.21319 0
M  V30 4777 N 443.43 -0.535701 1.48216 0
M  V30 4778 C 444.393 -1.623 1.61838 0
M  V30 4779 C 445.393 -1.53087 0.492024 0
M  V30 4780 O 446.583 -1.5686 0.757668 0
M  V30 4781 C 443.715 -3.01907 1.58319 0
M  V30 4782 H 444.908 -1.51564 2.58783 0
M  V30 4783 H 442.461 -0.757317 1.36727 0
M  V30 4784 H 443.196 -3.18155 0.628299 0
M  V30 4785 H 442.981 -3.10003 2.40085 0
M  V30 4786 H 444.471 -3.80969 1.71033 0
M  V30 4787 N 444.908 -1.36708 -0.784132 0
M  V30 4788 C 446.154 -1.31426 -1.54451 0
M  V30 4789 C 446.487 0.10476 -1.93917 0
M  V30 4790 O 445.762 1.05934 -1.6312 0
M  V30 4791 C 446.045 -2.24189 -2.818 0
M  V30 4792 C 445.898 -3.74813 -2.48667 0
M  V30 4793 C 447.217 -2.15626 -3.83658 0
M  V30 4794 H 444.336 -0.478739 -0.560337 0
M  V30 4795 H 446.978 -1.67305 -0.900498 0
M  V30 4796 H 445.128 -1.93722 -3.36755 0
M  V30 4797 H 446.8 -4.15823 -1.99722 0
M  V30 4798 H 445.043 -3.93989 -1.81535 0
M  V30 4799 H 445.714 -4.35138 -3.39646 0
M  V30 4800 H 448.19 -2.42456 -3.38163 0
M  V30 4801 H 447.066 -2.82694 -4.70506 0
M  V30 4802 H 447.327 -1.14522 -4.27009 0
M  V30 4803 N 446.386 1.0089 -1.21074 0
M  V30 4804 C 447.633 1.74607 -1.0256 0
M  V30 4805 C 447.961 1.89426 0.44136 0
M  V30 4806 O 447.216 1.42266 1.34384 0
M  V30 4807 C 447.515 3.16335 -1.66334 0
M  V30 4808 C 447.181 3.21474 -3.16173 0
M  V30 4809 C 445.843 3.22583 -3.57062 0
M  V30 4810 C 448.195 3.19025 -4.12156 0
M  V30 4811 C 445.523 3.18925 -4.92446 0
M  V30 4812 C 447.875 3.16909 -5.47496 0
M  V30 4813 C 446.539 3.16326 -5.87787 0
M  V30 4814 H 445.809 0.638933 -0.375294 0
M  V30 4815 H 448.456 1.18274 -1.50611 0
M  V30 4816 H 446.761 3.75876 -1.10566 0
M  V30 4817 H 448.458 3.72083 -1.49516 0
M  V30 4818 H 445.048 3.2135 -2.83605 0
M  V30 4819 H 449.232 3.17332 -3.81595 0
M  V30 4820 H 444.488 3.16809 -5.22917 0
M  V30 4821 H 448.662 3.13968 -6.21609 0
M  V30 4822 H 446.289 3.13246 -6.92662 0
M  V30 4823 N 447.864 1.01787 1.20321 0
M  V30 4824 C 449.11 0.708985 1.90003 0
M  V30 4825 C 449.443 -0.759572 1.78729 0
M  V30 4826 O 448.718 -1.55198 1.17234 0
M  V30 4827 C 449.001 1.1469 3.41348 0
M  V30 4828 C 448.854 2.67586 3.61549 0
M  V30 4829 C 450.173 0.71915 4.34185 0
M  V30 4830 H 447.292 0.259034 0.689978 0
M  V30 4831 H 449.934 1.26584 1.41692 0
M  V30 4832 H 448.084 0.673128 3.82624 0
M  V30 4833 H 449.756 3.22826 3.29517 0
M  V30 4834 H 447.999 3.085 3.04976 0
M  V30 4835 H 448.67 2.93281 4.67643 0
M  V30 4836 H 451.146 1.12647 4.00562 0
M  V30 4837 H 450.022 1.05358 5.38694 0
M  V30 4838 H 450.283 -0.379111 4.40472 0
M  V30 4839 N 449.342 -1.36122 0.79427 0
M  V30 4840 C 450.252 -2.33769 0.197296 0
M  V30 4841 C 451.268 -1.61276 -0.653153 0
M  V30 4842 O 452.444 -1.9323 -0.5678 0
M  V30 4843 C 449.509 -3.40474 -0.654098 0
M  V30 4844 C 448.57 -4.28759 0.215411 0
M  V30 4845 C 447.803 -5.30368 -0.595443 0
M  V30 4846 O 448.026 -5.40211 -1.83107 0
M  V30 4847 O 446.96 -6.019 0.00721351 0
M  V30 4848 H 450.786 -2.86597 1.00478 0
M  V30 4849 H 448.371 -1.38676 0.555818 0
M  V30 4850 H 450.253 -4.05703 -1.13944 0
M  V30 4851 H 448.928 -2.89937 -1.43938 0
M  V30 4852 H 447.835 -3.66554 0.747615 0
M  V30 4853 H 449.168 -4.82661 0.964332 0
M  V30 4854 N 450.82 -0.546701 -1.47814 0
M  V30 4855 C 451.752 0.244196 -2.27895 0
M  V30 4856 C 452.765 0.88911 -1.36377 0
M  V30 4857 O 453.954 0.764733 -1.61289 0
M  V30 4858 C 451.054 1.36252 -3.10304 0
M  V30 4859 C 450.227 0.816382 -4.29714 0
M  V30 4860 C 449.286 1.81789 -4.93801 0
M  V30 4861 O 448.312 1.36818 -5.52512 0
M  V30 4862 N 449.514 3.15085 -4.87547 0
M  V30 4863 H 452.279 -0.442694 -2.96412 0
M  V30 4864 H 449.84 -0.382095 -1.57327 0
M  V30 4865 H 451.832 2.03102 -3.50045 0
M  V30 4866 H 450.402 1.95281 -2.44099 0
M  V30 4867 H 449.622 -0.0285981 -3.9419 0
M  V30 4868 H 450.91 0.430668 -5.06974 0
M  V30 4869 H 450.308 3.54275 -4.41028 0
M  V30 4870 H 448.865 3.77522 -5.31339 0
M  V30 4871 N 452.299 1.55045 -0.282633 0
M  V30 4872 C 453.71 1.85473 0.213655 0
M  V30 4873 C 454.061 1.20465 1.54863 0
M  V30 4874 O 453.186 0.495676 2.10647 0
M  V30 4875 C 453.781 3.36496 0.394445 0
M  V30 4876 C 452.34 3.67022 0.834961 0
M  V30 4877 C 451.487 2.77218 -0.0674081 0
M  V30 4878 H 454.438 1.50478 -0.504202 0
M  V30 4879 H 454.459 3.60007 1.23186 0
M  V30 4880 H 453.971 3.83782 -0.577326 0
M  V30 4881 H 452.072 3.25241 1.81794 0
M  V30 4882 H 452.185 4.74433 0.667075 0
M  V30 4883 H 450.549 2.5069 0.450196 0
M  V30 4884 H 451.332 3.2732 -1.0352 0
M  V30 4885 N 453.777 0.010035 1.57597 0
M  V30 4886 C 455.005 -0.683413 1.95287 0
M  V30 4887 C 455.42 -1.66747 0.885481 0
M  V30 4888 O 454.777 -1.82003 -0.134629 0
M  V30 4889 C 454.828 -1.40652 3.33015 0
M  V30 4890 O 454.549 -0.461916 4.35658 0
M  V30 4891 C 456.05 -2.19356 3.85225 0
M  V30 4892 H 453.27 -0.189708 0.643624 0
M  V30 4893 H 455.814 0.0641359 2.04399 0
M  V30 4894 H 453.969 -2.10562 3.2518 0
M  V30 4895 H 454.383 -0.973215 5.15392 0
M  V30 4896 H 455.857 -2.65433 4.83993 0
M  V30 4897 H 456.334 -3.02457 3.18459 0
M  V30 4898 H 456.94 -1.54442 3.96267 0
M  V30 4899 N 455.255 -1.55392 -0.262866 0
M  V30 4900 C 456.666 -1.67079 -0.833158 0
M  V30 4901 C 457.017 -0.604539 -1.86654 0
M  V30 4902 O 456.142 0.252138 -2.14926 0
M  V30 4903 C 456.737 -3.02891 -1.51797 0
M  V30 4904 C 455.296 -3.16571 -2.03617 0
M  V30 4905 C 454.443 -2.62909 -0.881701 0
M  V30 4906 H 457.394 -1.58652 -0.0389986 0
M  V30 4907 H 457.415 -2.96445 -2.38538 0
M  V30 4908 H 456.927 -3.80473 -0.765619 0
M  V30 4909 H 455.028 -2.43782 -2.81782 0
M  V30 4910 H 455.141 -4.23271 -2.24452 0
M  V30 4911 H 453.505 -2.20324 -1.27786 0
M  V30 4912 H 454.288 -3.43003 -0.14269 0
M  V30 4913 N 456.733 0.527833 -1.48498 0
M  V30 4914 C 457.98 1.28354 -1.56625 0
M  V30 4915 C 458.308 1.93 -0.241096 0
M  V30 4916 O 457.563 1.79967 0.768798 0
M  V30 4917 C 457.862 2.39275 -2.65485 0
M  V30 4918 C 457.528 1.92268 -4.07853 0
M  V30 4919 C 456.19 1.79166 -4.46602 0
M  V30 4920 C 458.542 1.56771 -4.97064 0
M  V30 4921 C 455.87 1.28905 -5.72364 0
M  V30 4922 C 458.222 1.07972 -6.23318 0
M  V30 4923 C 456.886 0.934887 -6.60921 0
M  V30 4924 H 456.156 0.469682 -0.573131 0
M  V30 4925 H 458.803 0.588781 -1.82224 0
M  V30 4926 H 457.108 3.1443 -2.33754 0
M  V30 4927 H 458.805 2.974 -2.68988 0
M  V30 4928 H 455.395 2.03417 -3.77252 0
M  V30 4929 H 459.579 1.65753 -4.67803 0
M  V30 4930 H 454.835 1.16381 -6.00221 0
M  V30 4931 H 459.009 0.795775 -6.91838 0
M  V30 4932 H 456.636 0.543231 -7.58257 0
M  V30 4933 N 458.211 1.37122 0.776871 0
M  V30 4934 C 459.141 1.35164 1.90402 0
M  V30 4935 C 460.122 0.221069 1.68657 0
M  V30 4936 O 461.307 0.420642 1.8959 0
M  V30 4937 C 458.437 1.15274 3.27611 0
M  V30 4938 C 457.391 2.25289 3.63908 0
M  V30 4939 C 456.717 1.90527 4.99603 0
M  V30 4940 C 458.017 3.67446 3.71188 0
M  V30 4941 H 459.711 2.29482 1.92297 0
M  V30 4942 H 457.257 1.10465 0.923773 0
M  V30 4943 H 459.21 1.12536 4.06096 0
M  V30 4944 H 457.934 0.174102 3.26136 0
M  V30 4945 H 456.593 2.27174 2.87728 0
M  V30 4946 H 456.241 0.91206 4.94662 0
M  V30 4947 H 455.941 2.64193 5.24858 0
M  V30 4948 H 457.465 1.89367 5.80493 0
M  V30 4949 H 458.879 3.67719 4.39836 0
M  V30 4950 H 457.276 4.40123 4.07936 0
M  V30 4951 H 458.346 4.01443 2.71977 0
M  V30 4952 N 459.689 -1.00246 1.21608 0
M  V30 4953 C 461.1 -1.55511 1.03312 0
M  V30 4954 C 461.451 -1.91946 -0.406332 0
M  V30 4955 O 460.576 -1.73753 -1.28992 0
M  V30 4956 C 461.171 -2.82576 1.86913 0
M  V30 4957 C 459.73 -3.34318 1.72941 0
M  V30 4958 C 458.877 -2.07487 1.83968 0
M  V30 4959 H 461.828 -0.824638 1.35593 0
M  V30 4960 H 461.849 -3.54559 1.38087 0
M  V30 4961 H 461.361 -2.56026 2.91672 0
M  V30 4962 H 459.462 -3.65797 0.70877 0
M  V30 4963 H 459.575 -4.05566 2.55055 0
M  V30 4964 H 457.939 -2.20603 1.27304 0
M  V30 4965 H 458.722 -1.83346 2.9024 0
M  V30 4966 N 461.167 -1.02423 -1.1978 0
M  V30 4967 C 462.583 -0.740459 -1.41384 0
M  V30 4968 C 462.783 0.676827 -1.89793 0
M  V30 4969 O 461.839 1.4435 -2.0717 0
M  V30 4970 C 463.152 -1.77264 -2.42895 0
M  V30 4971 C 464.7 -1.79165 -2.56649 0
M  V30 4972 C 465.175 -2.8133 -3.6141 0
M  V30 4973 N 466.666 -2.80118 -3.68901 0
M  V30 4974 C 467.401 -3.55824 -4.49641 0
M  V30 4975 N 466.897 -4.41231 -5.34123 0
M  V30 4976 N 468.69 -3.44387 -4.44246 0
M  V30 4977 H 460.841 -1.9391 -0.866764 0
M  V30 4978 H 463.104 -0.838074 -0.443098 0
M  V30 4979 H 462.81 -2.7884 -2.14339 0
M  V30 4980 H 462.684 -1.59108 -3.42001 0
M  V30 4981 H 465.071 -0.782702 -2.84531 0
M  V30 4982 H 465.152 -2.01396 -1.57713 0
M  V30 4983 H 464.796 -3.82394 -3.34271 0
M  V30 4984 H 464.726 -2.56359 -4.59986 0
M  V30 4985 H 467.217 -2.1817 -3.08562 0
M  V30 4986 H 467.53 -4.95747 -5.92836 0
M  V30 4987 H 465.875 -4.45306 -5.33599 0
M  V30 4988 H 469.066 -2.7708 -3.77285 0
M  V30 4989 H 469.239 -4.0364 -5.06931 0
M  V30 4990 N 462.645 1.35699 -0.801477 0
M  V30 4991 C 463.892 1.98913 -0.379459 0
M  V30 4992 C 464.22 1.63592 1.05204 0
M  V30 4993 O 463.475 0.888563 1.74365 0
M  V30 4994 C 463.774 3.53828 -0.504041 0
M  V30 4995 C 463.44 4.09002 -1.8981 0
M  V30 4996 C 462.102 4.23783 -2.27951 0
M  V30 4997 C 464.454 4.38939 -2.81038 0
M  V30 4998 C 461.782 4.65816 -3.56696 0
M  V30 4999 C 464.134 4.82409 -4.09224 0
M  V30 5000 C 462.798 4.95395 -4.4737 0
M  V30 5001 H 462.068 0.727874 -0.138854 0
M  V30 5002 H 464.715 1.61994 -1.02128 0
M  V30 5003 H 463.02 3.91175 0.221242 0
M  V30 5004 H 464.717 4.00687 -0.158361 0
M  V30 5005 H 461.307 3.97946 -1.59176 0
M  V30 5006 H 465.491 4.27077 -2.52821 0
M  V30 5007 H 460.747 4.74059 -3.86106 0
M  V30 5008 H 464.921 5.04535 -4.80018 0
M  V30 5009 H 462.548 5.27724 -5.47185 0
M  V30 5010 N 464.123 0.554532 1.47522 0
M  V30 5011 C 465.053 -0.182974 2.32782 0
M  V30 5012 C 466.034 -0.911377 1.43624 0
M  V30 5013 O 467.219 -0.892366 1.72483 0
M  V30 5014 C 464.349 -1.21513 3.25349 0
M  V30 5015 C 463.303 -0.603355 4.23726 0
M  V30 5016 C 462.629 -1.73995 5.05598 0
M  V30 5017 C 463.929 0.441121 5.20434 0
M  V30 5018 H 465.623 0.52882 2.94693 0
M  V30 5019 H 463.169 0.255759 1.41711 0
M  V30 5020 H 465.122 -1.73922 3.83835 0
M  V30 5021 H 463.846 -1.95683 2.61487 0
M  V30 5022 H 462.505 -0.10059 3.66462 0
M  V30 5023 H 462.153 -2.47063 4.38143 0
M  V30 5024 H 461.853 -1.3364 5.72201 0
M  V30 5025 H 463.377 -2.26735 5.66942 0
M  V30 5026 H 464.791 0.00319931 5.733 0
M  V30 5027 H 463.188 0.763402 5.95224 0
M  V30 5028 H 464.258 1.33799 4.66075 0
M  V30 5029 N 465.601 -1.54893 0.290851 0
M  V30 5030 C 466.533 -2.20564 -0.623236 0
M  V30 5031 C 467.546 -1.19519 -1.1054 0
M  V30 5032 O 468.735 -1.46165 -1.02459 0
M  V30 5033 C 465.835 -2.83033 -1.86401 0
M  V30 5034 C 465.008 -4.09916 -1.52604 0
M  V30 5035 C 464.067 -4.56284 -2.62091 0
M  V30 5036 O 463.093 -5.2171 -2.27612 0
M  V30 5037 N 464.295 -4.27746 -3.92446 0
M  V30 5038 H 467.06 -2.99638 -0.0610915 0
M  V30 5039 H 464.621 -1.61508 0.112615 0
M  V30 5040 H 466.613 -3.1099 -2.58973 0
M  V30 5041 H 465.183 -2.0786 -2.33481 0
M  V30 5042 H 464.403 -3.89078 -0.633424 0
M  V30 5043 H 465.691 -4.92554 -1.27547 0
M  V30 5044 H 465.089 -3.7531 -4.23272 0
M  V30 5045 H 463.646 -4.60437 -4.61347 0
M  V30 5046 N 467.08 -0.0183926 -1.57589 0
M  V30 5047 C 468.496 0.337897 -1.55982 0
M  V30 5048 C 468.696 1.73604 -1.02294 0
M  V30 5049 O 467.752 2.43589 -0.664895 0
M  V30 5050 C 469.065 0.196305 -3.00059 0
M  V30 5051 C 470.613 0.269875 -3.11834 0
M  V30 5052 C 471.088 0.157197 -4.5773 0
M  V30 5053 N 472.579 0.214521 -4.62703 0
M  V30 5054 C 473.314 0.150955 -5.73201 0
M  V30 5055 N 472.81 0.0369212 -6.9279 0
M  V30 5056 N 474.603 0.204162 -5.61729 0
M  V30 5057 H 466.754 -0.93279 -1.90821 0
M  V30 5058 H 469.017 -0.359253 -0.877292 0
M  V30 5059 H 468.723 -0.766383 -3.43248 0
M  V30 5060 H 468.597 0.970908 -3.6449 0
M  V30 5061 H 470.984 1.22302 -2.68563 0
M  V30 5062 H 471.065 -0.534918 -2.50144 0
M  V30 5063 H 470.709 -0.792479 -5.01679 0
M  V30 5064 H 470.639 0.980717 -5.17387 0
M  V30 5065 H 473.13 0.303238 -3.76681 0
M  V30 5066 H 473.443 -0.00518321 -7.728 0
M  V30 5067 H 471.788 0.0022886 -6.95 0
M  V30 5068 H 474.979 0.291575 -4.67191 0
M  V30 5069 H 475.152 0.15116 -6.47824 0
M  V30 5070 N 468.558 1.5553 0.254621 0
M  V30 5071 C 469.488 1.9268 1.31897 0
M  V30 5072 C 470.469 0.790797 1.506 0
M  V30 5073 O 471.654 1.05045 1.63337 0
M  V30 5074 C 468.784 2.21477 2.67517 0
M  V30 5075 C 467.738 3.37256 2.63519 0
M  V30 5076 C 467.064 3.51576 4.02862 0
M  V30 5077 C 468.364 4.73157 2.21179 0
M  V30 5078 H 470.058 2.81832 1.01051 0
M  V30 5079 H 467.604 1.35599 0.484662 0
M  V30 5080 H 469.557 2.46055 3.42104 0
M  V30 5081 H 468.281 1.29144 2.99982 0
M  V30 5082 H 466.94 3.12675 1.9139 0
M  V30 5083 H 466.588 2.56676 4.32581 0
M  V30 5084 H 466.288 4.2943 4.01078 0
M  V30 5085 H 467.812 3.78467 4.79161 0
M  V30 5086 H 469.226 4.97158 2.85494 0
M  V30 5087 H 467.623 5.54058 2.30521 0
M  V30 5088 H 468.693 4.70739 1.16332 0
M  V30 5089 N 470.036 -0.519951 1.48776 0
M  V30 5090 C 470.966 -1.63253 1.66945 0
M  V30 5091 C 471.947 -1.62014 0.518224 0
M  V30 5092 O 473.132 -1.79053 0.751919 0
M  V30 5093 C 470.262 -3.0181 1.71836 0
M  V30 5094 C 469.216 -3.17911 2.8656 0
M  V30 5095 C 468.542 -4.5763 2.76548 0
M  V30 5096 C 469.842 -2.99729 4.27738 0
M  V30 5097 H 471.536 -1.48302 2.6009 0
M  V30 5098 H 469.082 -0.712026 1.25165 0
M  V30 5099 H 471.035 -3.79525 1.83135 0
M  V30 5100 H 469.759 -3.17806 0.752775 0
M  V30 5101 H 468.418 -2.42616 2.74833 0
M  V30 5102 H 468.066 -4.70476 1.77937 0
M  V30 5103 H 467.766 -4.69346 3.53536 0
M  V30 5104 H 469.29 -5.37431 2.89828 0
M  V30 5105 H 470.704 -3.67228 4.40246 0
M  V30 5106 H 469.101 -3.22932 5.05801 0
M  V30 5107 H 470.171 -1.96047 4.43502 0
M  V30 5108 N 471.514 -1.37532 -0.769588 0
M  V30 5109 C 472.444 -1.36172 -1.89682 0
M  V30 5110 C 473.425 -0.23001 -1.68538 0
M  V30 5111 O 474.61 -0.43069 -1.89364 0
M  V30 5112 C 471.74 -1.1701 -3.26995 0
M  V30 5113 C 470.694 -2.27216 -3.62708 0
M  V30 5114 C 470.02 -1.93174 -4.98586 0
M  V30 5115 C 471.32 -3.6941 -3.69234 0
M  V30 5116 H 473.014 -2.30499 -1.91078 0
M  V30 5117 H 470.56 -1.10953 -0.917902 0
M  V30 5118 H 472.513 -1.14688 -4.05493 0
M  V30 5119 H 471.237 -0.191395 -3.26039 0
M  V30 5120 H 469.896 -2.28697 -2.86519 0
M  V30 5121 H 469.544 -0.938281 -4.94171 0
M  V30 5122 H 469.244 -2.66973 -5.23449 0
M  V30 5123 H 470.768 -1.92443 -5.79481 0
M  V30 5124 H 472.182 -3.70047 -4.37879 0
M  V30 5125 H 470.579 -4.4228 -4.05597 0
M  V30 5126 H 471.649 -4.0288 -2.69844 0
M  V30 5127 N 472.992 0.995999 -1.22138 0
M  V30 5128 C 473.922 2.10387 -1.01289 0
M  V30 5129 C 474.903 1.69975 0.0651454 0
M  V30 5130 O 476.088 1.9396 -0.0964628 0
M  V30 5131 C 473.218 3.42312 -0.586517 0
M  V30 5132 C 472.172 3.96558 -1.61014 0
M  V30 5133 C 471.498 5.24494 -1.0397 0
M  V30 5134 C 472.798 4.27595 -2.99933 0
M  V30 5135 H 474.492 2.28086 -1.93951 0
M  V30 5136 H 472.038 1.09607 -0.933928 0
M  V30 5137 H 473.991 4.19223 -0.427793 0
M  V30 5138 H 472.715 3.24431 0.375761 0
M  V30 5139 H 471.374 3.21776 -1.75658 0
M  V30 5140 H 471.022 5.02953 -0.0688703 0
M  V30 5141 H 470.722 5.61755 -1.72352 0
M  V30 5142 H 472.246 6.04042 -0.892494 0
M  V30 5143 H 473.66 4.95315 -2.8868 0
M  V30 5144 H 472.057 4.76021 -3.6541 0
M  V30 5145 H 473.127 3.35498 -3.50099 0
M  V30 5146 N 474.47 1.03057 1.19235 0
M  V30 5147 C 475.747 0.642608 1.84743 0
M  V30 5148 C 476.127 -0.878577 1.91948 0
M  V30 5149 O 475.475 -1.77597 1.43776 0
M  V30 5150 C 475.685 1.30665 3.23616 0
M  V30 5151 C 477.033 1.43098 3.9976 0
M  V30 5152 O 478.057 1.26396 3.3302 0
M  V30 5153 O 476.916 1.70223 5.19313 0
M  V30 5154 H 474.01 0.223573 0.796206 0
M  V30 5155 H 476.556 1.12883 1.26711 0
M  V30 5156 H 475.328 2.34544 3.13217 0
M  V30 5157 H 474.951 0.808405 3.89295 0
M  V30 5158 N 475.948 -1.35272 0.808662 0
M  V30 5159 C 477.178 -2.02652 0.401953 0
M  V30 5160 C 477.586 -1.6108 -0.992462 0
M  V30 5161 O 476.929 -0.804984 -1.65123 0
M  V30 5162 C 476.991 -3.57174 0.408246 0
M  V30 5163 C 476.655 -4.22019 1.75353 0
M  V30 5164 C 477.652 -4.43552 2.71215 0
M  V30 5165 C 475.337 -4.59093 2.03811 0
M  V30 5166 C 477.331 -5.01264 3.93717 0
M  V30 5167 C 475.018 -5.16519 3.26576 0
M  V30 5168 C 476.016 -5.37546 4.21347 0
M  V30 5169 O 475.704 -5.93761 5.41944 0
M  V30 5170 H 475.436 -0.656495 0.161216 0
M  V30 5171 H 477.99 -1.73829 1.0942 0
M  V30 5172 H 476.22 -3.85197 -0.340608 0
M  V30 5173 H 477.909 -4.05893 0.0235623 0
M  V30 5174 H 478.675 -4.15288 2.50522 0
M  V30 5175 H 474.554 -4.42039 1.30854 0
M  V30 5176 H 478.098 -5.17592 4.67701 0
M  V30 5177 H 473.995 -5.4421 3.47139 0
M  V30 5178 H 474.763 -6.1221 5.43269 0
M  V30 5179 N 477.426 -0.562348 -1.47226 0
M  V30 5180 C 478.837 -0.130325 -1.86245 0
M  V30 5181 C 479.188 1.30128 -1.46838 0
M  V30 5182 O 478.313 1.97974 -0.873805 0
M  V30 5183 C 478.908 -0.229738 -3.3802 0
M  V30 5184 C 477.467 0.14728 -3.76112 0
M  V30 5185 C 476.614 -0.574971 -2.71274 0
M  V30 5186 H 479.565 -0.771773 -1.3867 0
M  V30 5187 H 479.586 0.550316 -3.76499 0
M  V30 5188 H 479.098 -1.27178 -3.66671 0
M  V30 5189 H 477.199 1.19023 -3.53078 0
M  V30 5190 H 477.312 -0.214858 -4.78618 0
M  V30 5191 H 475.676 -0.0174756 -2.54694 0
M  V30 5192 H 476.459 -1.61827 -3.02766 0
M  V30 5193 N 478.904 1.54736 -0.299062 0
M  V30 5194 C 480.315 1.8569 0.193971 0
M  V30 5195 C 480.666 1.22101 1.53577 0
M  V30 5196 O 479.791 0.51799 2.10109 0
M  V30 5197 C 480.386 3.36895 0.358733 0
M  V30 5198 C 478.945 3.67887 0.795986 0
M  V30 5199 C 478.092 2.77131 -0.096807 0
M  V30 5200 H 481.043 1.49934 -0.520134 0
M  V30 5201 H 481.064 3.61294 1.19361 0
M  V30 5202 H 480.576 3.83148 -0.617998 0
M  V30 5203 H 478.677 3.27151 1.78334 0
M  V30 5204 H 478.79 4.75114 0.616718 0
M  V30 5205 H 477.154 2.51153 0.423581 0
M  V30 5206 H 477.937 3.26204 -1.06986 0
M  V30 5207 N 480.382 0.0267497 1.57577 0
M  V30 5208 C 481.659 -0.690926 1.82991 0
M  V30 5209 C 482.039 -1.90471 0.910164 0
M  V30 5210 O 481.387 -2.28474 -0.0347985 0
M  V30 5211 C 481.597 -1.07139 3.32148 0
M  V30 5212 C 482.945 -1.46402 3.98562 0
M  V30 5213 O 483.969 -1.16443 3.36629 0
M  V30 5214 O 482.828 -2.02214 5.07712 0
M  V30 5215 H 479.922 -0.338747 0.75444 0
M  V30 5216 H 482.468 0.0542506 1.69613 0
M  V30 5217 H 481.24 -0.207394 3.9075 0
M  V30 5218 H 480.863 -1.87481 3.50623 0
M  V30 5219 N 481.861 -1.55662 -0.24637 0
M  V30 5220 C 483.277 -1.48098 -0.594907 0
M  V30 5221 C 483.477 -0.717044 -1.8831 0
M  V30 5222 O 482.533 -0.246618 -2.51293 0
M  V30 5223 C 483.846 -2.92507 -0.697146 0
M  V30 5224 C 485.394 -3.02881 -0.789436 0
M  V30 5225 C 485.869 -4.48598 -0.923232 0
M  V30 5226 N 487.36 -4.52538 -0.988088 0
M  V30 5227 C 488.095 -5.62536 -1.11089 0
M  V30 5228 N 487.591 -6.82342 -1.19919 0
M  V30 5229 N 489.384 -5.50334 -1.14408 0
M  V30 5230 H 481.535 -2.0377 0.599278 0
M  V30 5231 H 483.798 -0.925145 0.20691 0
M  V30 5232 H 483.504 -3.51242 0.179396 0
M  V30 5233 H 483.378 -3.43024 -1.5689 0
M  V30 5234 H 485.765 -2.44226 -1.65643 0
M  V30 5235 H 485.846 -2.55574 0.107482 0
M  V30 5236 H 485.49 -5.07864 -0.0607927 0
M  V30 5237 H 485.42 -4.93587 -1.8352 0
M  V30 5238 H 487.911 -3.66248 -0.931167 0
M  V30 5239 H 488.224 -7.61924 -1.29197 0
M  V30 5240 H 486.569 -6.85102 -1.16876 0
M  V30 5241 H 489.76 -4.5567 -1.07158 0
M  V30 5242 H 489.933 -6.36096 -1.23634 0
M  V30 5243 N 483.339 0.512053 -1.4905 0
M  V30 5244 C 484.585 1.26874 -1.58212 0
M  V30 5245 C 484.918 1.9241 -0.263073 0
M  V30 5246 O 484.193 1.80181 0.732476 0
M  V30 5247 C 484.476 2.34428 -2.73341 0
M  V30 5248 C 484.329 1.73466 -4.15006 0
M  V30 5249 C 485.648 3.36073 -2.84154 0
M  V30 5250 H 482.767 0.459924 -0.575881 0
M  V30 5251 H 485.409 0.568587 -1.81293 0
M  V30 5252 H 483.559 2.94146 -2.53792 0
M  V30 5253 H 485.231 1.17661 -4.46042 0
M  V30 5254 H 483.474 1.03921 -4.21168 0
M  V30 5255 H 484.145 2.51426 -4.91415 0
M  V30 5256 H 486.621 2.86332 -3.01916 0
M  V30 5257 H 485.497 4.08703 -3.66406 0
M  V30 5258 H 485.758 3.97725 -1.93048 0
M  V30 5259 N 484.817 1.37938 0.762283 0
M  V30 5260 C 486.045 1.36883 1.55147 0
M  V30 5261 C 486.46 -0.0435348 1.8875 0
M  V30 5262 O 485.817 -1.00786 1.52146 0
M  V30 5263 C 485.868 2.21624 2.85596 0
M  V30 5264 O 485.589 3.57358 2.5343 0
M  V30 5265 C 487.09 2.28653 3.7978 0
M  V30 5266 H 484.31 0.468521 0.480343 0
M  V30 5267 H 486.854 1.81404 0.944079 0
M  V30 5268 H 485.009 1.80588 3.42734 0
M  V30 5269 H 485.423 4.01883 3.37032 0
M  V30 5270 H 486.897 2.9225 4.68288 0
M  V30 5271 H 487.374 1.29767 4.19592 0
M  V30 5272 H 487.98 2.70043 3.28568 0
M  V30 5273 N 486.295 -0.989507 1.22664 0
M  V30 5274 C 487.225 -2.09847 1.02404 0
M  V30 5275 C 488.206 -1.70007 -0.0561303 0
M  V30 5276 O 489.391 -1.93906 0.106748 0
M  V30 5277 C 486.521 -3.41996 0.604663 0
M  V30 5278 C 485.475 -3.95699 1.63115 0
M  V30 5279 C 484.801 -5.23936 1.0675 0
M  V30 5280 C 486.101 -4.25999 3.02196 0
M  V30 5281 H 487.795 -2.27054 1.95158 0
M  V30 5282 H 485.341 -1.09111 0.939727 0
M  V30 5283 H 487.294 -4.1899 0.45002 0
M  V30 5284 H 486.018 -3.24626 -0.35855 0
M  V30 5285 H 484.677 -3.2084 1.77362 0
M  V30 5286 H 484.325 -5.02909 0.0955422 0
M  V30 5287 H 484.025 -5.60833 1.75328 0
M  V30 5288 H 485.549 -6.0356 0.924516 0
M  V30 5289 H 486.963 -4.93777 2.91303 0
M  V30 5290 H 485.36 -4.74076 3.67929 0
M  V30 5291 H 486.43 -3.33636 3.51873 0
M  V30 5292 N 487.773 -1.03688 -1.18687 0
M  V30 5293 C 489.02 -0.73803 -1.88572 0
M  V30 5294 C 489.348 0.733973 -1.8012 0
M  V30 5295 O 488.603 1.55098 -1.19344 0
M  V30 5296 C 488.902 -1.14477 -3.3857 0
M  V30 5297 C 488.568 -2.61641 -3.67226 0
M  V30 5298 C 487.23 -3.01846 -3.74757 0
M  V30 5299 C 489.582 -3.56812 -3.79914 0
M  V30 5300 C 486.91 -4.36118 -3.92451 0
M  V30 5301 C 489.262 -4.90799 -3.99123 0
M  V30 5302 C 487.926 -5.3068 -4.04888 0
M  V30 5303 H 487.196 -0.270064 -0.690034 0
M  V30 5304 H 489.843 -1.3012 -1.40503 0
M  V30 5305 H 488.148 -0.500337 -3.88592 0
M  V30 5306 H 489.845 -0.89095 -3.90977 0
M  V30 5307 H 486.435 -2.29498 -3.61979 0
M  V30 5308 H 490.619 -3.26899 -3.73431 0
M  V30 5309 H 485.875 -4.66542 -3.95157 0
M  V30 5310 H 490.049 -5.64451 -4.07882 0
M  V30 5311 H 487.676 -6.34733 -4.18351 0
M  V30 5312 N 489.251 1.34841 -0.815825 0
M  V30 5313 C 490.181 2.32187 -0.247298 0
M  V30 5314 C 491.162 1.5791 0.632344 0
M  V30 5315 O 492.347 1.8593 0.560698 0
M  V30 5316 C 489.477 3.42122 0.597466 0
M  V30 5317 C 488.431 4.27602 -0.184446 0
M  V30 5318 C 487.757 5.28942 0.782609 0
M  V30 5319 C 489.057 5.03502 -1.38865 0
M  V30 5320 H 490.751 2.79985 -1.06061 0
M  V30 5321 H 488.297 1.34611 -0.511461 0
M  V30 5322 H 490.25 4.09232 1.00533 0
M  V30 5323 H 488.974 2.92956 1.44376 0
M  V30 5324 H 487.633 3.62085 -0.573592 0
M  V30 5325 H 487.281 4.7604 1.62466 0
M  V30 5326 H 486.981 5.87008 0.263695 0
M  V30 5327 H 488.505 5.98922 1.18848 0
M  V30 5328 H 489.919 5.63506 -1.05518 0
M  V30 5329 H 488.316 5.71108 -1.8427 0
M  V30 5330 H 489.386 4.33608 -2.17054 0
M  V30 5331 N 490.729 0.570148 1.46925 0
M  V30 5332 C 491.679 -0.190921 2.27199 0
M  V30 5333 C 492.663 -0.873457 1.35128 0
M  V30 5334 O 493.855 -0.769627 1.59392 0
M  V30 5335 C 490.984 -1.21204 3.21192 0
M  V30 5336 C 490.07 -0.532261 4.20747 0
M  V30 5337 N 490.461 0.405038 5.04176 0
M  V30 5338 C 488.759 -0.784582 4.39045 0
M  V30 5339 C 489.46 0.801149 5.76157 0
M  V30 5340 N 488.436 0.153082 5.43384 0
M  V30 5341 H 492.238 0.529535 2.8909 0
M  V30 5342 H 489.752 0.391019 1.57622 0
M  V30 5343 H 491.749 -1.77135 3.77398 0
M  V30 5344 H 490.409 -1.93345 2.6086 0
M  V30 5345 H 491.42 0.779903 5.11994 0
M  V30 5346 H 488.097 -1.49352 3.89872 0
M  V30 5347 H 489.487 1.57208 6.5325 0
M  V30 5348 N 492.207 -1.54576 0.307264 0
M  V30 5349 C 493.155 -2.25208 -0.581723 0
M  V30 5350 C 494.149 -1.26031 -1.13192 0
M  V30 5351 O 495.355 -1.43862 -1.08184 0
M  V30 5352 H 491.73 -0.723173 -0.206214 0
M  V30 5353 H 493.701 -2.98378 0.0364663 0
M  V30 5354 C 492.45 -3.01086 -1.73904 0
M  V30 5355 H 491.773 -3.77208 -1.32491 0
M  V30 5356 H 493.213 -3.5378 -2.33701 0
M  V30 5357 C 491.672 -2.08422 -2.64692 0
M  V30 5358 O 492.202 -1.65636 -3.65961 0
M  V30 5359 N 490.408 -1.74247 -2.32564 0
M  V30 5360 H 489.955 -2.09238 -1.50257 0
M  V30 5361 H 489.913 -1.12524 -2.93574 0
M  V30 5362 N 493.685 -0.035106 -1.57561 0
M  V30 5363 C 494.633 0.962707 -2.11742 0
M  V30 5364 C 495.627 1.33296 -1.0454 0
M  V30 5365 O 496.833 1.31449 -1.22968 0
M  V30 5366 H 493.208 0.32826 -0.676572 0
M  V30 5367 H 495.179 0.48048 -2.94506 0
M  V30 5368 C 493.928 2.23388 -2.66445 0
M  V30 5369 H 493.251 1.95774 -3.48587 0
M  V30 5370 H 494.691 2.91402 -3.07995 0
M  V30 5371 C 493.15 2.96769 -1.59467 0
M  V30 5372 O 493.68 3.89105 -0.998 0
M  V30 5373 N 491.886 2.59212 -1.31369 0
M  V30 5374 H 491.433 1.84202 -1.80076 0
M  V30 5375 H 491.391 3.08618 -0.600173 0
M  V30 5376 N 495.163 1.55791 0.238111 0
M  V30 5377 C 496.073 1.94196 1.31625 0
M  V30 5378 C 497.089 0.843545 1.52185 0
M  V30 5379 O 498.265 1.1457 1.65637 0
M  V30 5380 C 495.33 2.2365 2.64918 0
M  V30 5381 C 494.391 3.46971 2.52804 0
M  V30 5382 C 493.624 3.7501 3.79741 0
M  V30 5383 O 493.847 3.04982 4.82019 0
M  V30 5384 O 492.781 4.68525 3.77846 0
M  V30 5385 H 496.607 2.86044 1.02043 0
M  V30 5386 H 494.192 1.42786 0.439603 0
M  V30 5387 H 496.074 2.43863 3.4367 0
M  V30 5388 H 494.749 1.34979 2.94215 0
M  V30 5389 H 493.656 3.32055 1.72309 0
M  V30 5390 H 494.989 4.35971 2.28451 0
M  V30 5391 N 496.642 -0.504142 1.49319 0
M  V30 5392 C 497.888 -1.26033 1.58882 0
M  V30 5393 C 498.221 -1.92268 0.273274 0
M  V30 5394 O 497.496 -1.80567 -0.72291 0
M  V30 5395 C 497.779 -2.32976 2.7458 0
M  V30 5396 C 497.632 -1.71263 4.1592 0
M  V30 5397 C 498.951 -3.34561 2.85932 0
M  V30 5398 H 496.07 -0.456863 0.578312 0
M  V30 5399 H 498.712 -0.558965 1.81592 0
M  V30 5400 H 496.862 -2.92796 2.55348 0
M  V30 5401 H 498.534 -1.15294 4.4666 0
M  V30 5402 H 496.777 -1.01686 4.21714 0
M  V30 5403 H 497.448 -2.48816 4.92742 0
M  V30 5404 H 499.924 -2.84727 3.0343 0
M  V30 5405 H 498.8 -4.06754 3.68568 0
M  V30 5406 H 499.061 -3.96695 1.95154 0
M  V30 5407 N 498.12 -1.38341 -0.754957 0
M  V30 5408 C 499.367 -1.34473 -1.51404 0
M  V30 5409 C 499.695 0.0656458 -1.94389 0
M  V30 5410 O 498.95 1.04244 -1.65625 0
M  V30 5411 C 499.249 -2.2452 -2.78075 0
M  V30 5412 C 498.915 -3.72512 -2.54059 0
M  V30 5413 C 497.577 -4.1284 -2.47218 0
M  V30 5414 C 499.929 -4.66197 -2.33044 0
M  V30 5415 C 497.257 -5.44945 -2.17376 0
M  V30 5416 C 499.609 -5.98558 -2.04723 0
M  V30 5417 C 498.273 -6.37972 -1.96337 0
M  V30 5418 H 497.543 -0.492072 -0.554027 0
M  V30 5419 H 500.19 -1.70687 -0.868223 0
M  V30 5420 H 498.495 -1.81357 -3.473 0
M  V30 5421 H 500.192 -2.18832 -3.36026 0
M  V30 5422 H 496.782 -3.40538 -2.60253 0
M  V30 5423 H 500.966 -4.35888 -2.37309 0
M  V30 5424 H 496.222 -5.74426 -2.09391 0
M  V30 5425 H 500.396 -6.70693 -1.87465 0
M  V30 5426 H 498.023 -7.40258 -1.72978 0
M  V30 5427 N 499.598 0.982988 -1.23187 0
M  V30 5428 C 500.548 2.05962 -0.977942 0
M  V30 5429 C 501.532 1.60725 0.0751148 0
M  V30 5430 O 502.724 1.76471 -0.136683 0
M  V30 5431 C 499.853 3.38564 -0.568276 0
M  V30 5432 C 498.939 3.90407 -1.6566 0
M  V30 5433 N 499.33 4.15359 -2.88635 0
M  V30 5434 C 497.628 4.18915 -1.53058 0
M  V30 5435 C 498.329 4.57642 -3.5908 0
M  V30 5436 N 497.305 4.6192 -2.86584 0
M  V30 5437 H 501.107 2.23208 -1.91195 0
M  V30 5438 H 498.621 1.16555 -1.13087 0
M  V30 5439 H 500.618 4.15276 -0.36764 0
M  V30 5440 H 499.278 3.22712 0.358713 0
M  V30 5441 H 500.289 4.03258 -3.24966 0
M  V30 5442 H 496.966 4.12081 -0.670506 0
M  V30 5443 H 498.356 4.85488 -4.6449 0
M  V30 5444 N 501.076 1.04316 1.18135 0
M  V30 5445 C 501.986 0.646876 2.25505 0
M  V30 5446 C 503.002 -0.328008 1.7088 0
M  V30 5447 O 504.178 -0.182309 2.00573 0
M  V30 5448 C 501.243 0.0185664 3.46695 0
M  V30 5449 C 500.304 1.04277 4.16443 0
M  V30 5450 C 499.537 0.444352 5.31847 0
M  V30 5451 O 499.76 -0.748735 5.65465 0
M  V30 5452 O 498.694 1.17428 5.90334 0
M  V30 5453 H 502.52 1.54147 2.61672 0
M  V30 5454 H 500.105 0.814188 1.25265 0
M  V30 5455 H 501.987 -0.331068 4.20097 0
M  V30 5456 H 500.662 -0.849814 3.12346 0
M  V30 5457 H 499.569 1.44425 3.45098 0
M  V30 5458 H 500.902 1.882 4.54798 0
M  V30 5459 N 502.554 -1.34406 0.822964 0
M  V30 5460 C 503.965 -1.8069 0.469879 0
M  V30 5461 C 504.316 -1.68223 -1.00972 0
M  V30 5462 O 503.441 -1.22226 -1.78577 0
M  V30 5463 C 504.036 -3.28064 0.846118 0
M  V30 5464 C 502.595 -3.72428 0.545402 0
M  V30 5465 C 501.742 -2.56116 1.06301 0
M  V30 5466 H 504.693 -1.22153 1.01313 0
M  V30 5467 H 504.714 -3.80205 0.149922 0
M  V30 5468 H 504.226 -3.37107 1.92304 0
M  V30 5469 H 502.327 -3.68924 -0.522109 0
M  V30 5470 H 502.44 -4.66548 1.0895 0
M  V30 5471 H 500.804 -2.50048 0.484554 0
M  V30 5472 H 501.587 -2.67928 2.14638 0
M  V30 5473 N 504.032 -0.577932 -1.46621 0
M  V30 5474 C 504.982 0.178869 -2.27297 0
M  V30 5475 C 505.966 0.866279 -1.35589 0
M  V30 5476 O 507.158 0.761163 -1.59798 0
M  V30 5477 C 504.287 1.19499 -3.2183 0
M  V30 5478 C 503.373 0.50994 -4.21023 0
M  V30 5479 N 503.764 -0.43177 -5.03954 0
M  V30 5480 C 502.062 0.761287 -4.39455 0
M  V30 5481 C 502.763 -0.831693 -5.75724 0
M  V30 5482 N 501.739 -0.181897 -5.43296 0
M  V30 5483 H 505.541 -0.544859 -2.88805 0
M  V30 5484 H 503.055 -0.399373 -1.57413 0
M  V30 5485 H 505.052 1.75131 -3.78332 0
M  V30 5486 H 503.712 1.91959 -2.61881 0
M  V30 5487 H 504.723 -0.807045 -5.11573 0
M  V30 5488 H 501.4 1.47282 -3.90659 0
M  V30 5489 H 502.79 -1.6067 -6.52407 0
M  V30 5490 N 505.51 1.54411 -0.315457 0
M  V30 5491 C 506.759 1.99599 0.290395 0
M  V30 5492 C 507.072 1.20746 1.53882 0
M  V30 5493 O 508.278 1.56272 2.22017 0
M  V30 5494 C 506.734 3.5539 0.56797 0
M  V30 5495 C 506.342 4.43068 -0.662945 0
M  V30 5496 C 508.086 4.09067 1.13422 0
M  V30 5497 C 505.993 5.90317 -0.357722 0
M  V30 5498 H 504.923 0.745592 0.112286 0
M  V30 5499 H 507.574 1.78477 -0.426418 0
M  V30 5500 H 505.956 3.72468 1.34476 0
M  V30 5501 H 507.13 4.37765 -1.43869 0
M  V30 5502 H 505.445 4.00238 -1.14884 0
M  V30 5503 H 508.042 5.16663 1.37707 0
M  V30 5504 H 508.385 3.60552 2.08106 0
M  V30 5505 H 508.918 3.95589 0.418805 0
M  V30 5506 H 505.657 6.4301 -1.27351 0
M  V30 5507 H 505.177 5.98592 0.380472 0
M  V30 5508 H 506.856 6.4699 0.0354284 0
M  V30 5509 N 506.988 0.0434614 1.5754 0
M  V30 5510 C 507.951 -0.918696 2.09982 0
M  V30 5511 C 508.951 -1.24488 1.01781 0
M  V30 5512 O 510.141 -1.18284 1.27885 0
M  V30 5513 C 507.273 -2.23093 2.57764 0
M  V30 5514 H 508.466 -0.464229 2.96285 0
M  V30 5515 H 506.019 -0.204818 1.54952 0
M  V30 5516 H 506.754 -2.73137 1.74832 0
M  V30 5517 H 506.539 -2.00724 3.36827 0
M  V30 5518 H 508.029 -2.92028 2.98512 0
M  V30 5519 N 508.466 -1.55915 -0.229846 0
M  V30 5520 C 509.743 -1.6932 -0.979295 0
M  V30 5521 C 510.123 -0.588321 -2.02736 0
M  V30 5522 O 509.471 0.40586 -2.24867 0
M  V30 5523 C 509.681 -3.10305 -1.59724 0
M  V30 5524 C 511.029 -3.6945 -2.09264 0
M  V30 5525 O 512.053 -3.13214 -1.69633 0
M  V30 5526 O 510.912 -4.68072 -2.82082 0
M  V30 5527 H 508.006 -0.689314 -0.456919 0
M  V30 5528 H 510.552 -1.68238 -0.222283 0
M  V30 5529 H 509.324 -3.82177 -0.840039 0
M  V30 5530 H 508.947 -3.1547 -2.42001 0
M  V30 5531 N 509.944 0.496216 -1.49584 0
M  V30 5532 C 511.169 1.27865 -1.63295 0
M  V30 5533 C 511.594 1.85592 -0.306156 0
M  V30 5534 O 510.952 1.66092 0.726851 0
M  V30 5535 C 511 2.38128 -2.7079 0
M  V30 5536 O 510.104 3.42108 -2.30296 0
M  V30 5537 H 509.445 0.377279 -0.546403 0
M  V30 5538 H 511.975 0.593497 -1.95803 0
M  V30 5539 H 511.985 2.8382 -2.93104 0
M  V30 5540 H 510.66 1.95479 -3.67098 0
M  V30 5541 H 509.237 3.02301 -2.18331 0
M  V30 5542 N 511.423 1.38739 0.74761 0
M  V30 5543 C 512.669 1.3648 1.50814 0
M  V30 5544 C 513.024 -0.0431982 1.92351 0
M  V30 5545 O 512.317 -1.0071 1.62997 0
M  V30 5546 C 512.511 2.25992 2.7688 0
M  V30 5547 C 512.34 3.75354 2.47668 0
M  V30 5548 C 511.11 4.44348 2.40589 0
M  V30 5549 C 513.308 4.67642 2.14046 0
M  V30 5550 N 511.29 5.79114 2.03715 0
M  V30 5551 C 512.661 5.90965 1.87512 0
M  V30 5552 C 514.716 4.55787 2.00407 0
M  V30 5553 C 513.419 7.03759 1.48714 0
M  V30 5554 C 515.445 5.68491 1.63011 0
M  V30 5555 C 514.807 6.90879 1.37353 0
M  V30 5556 H 510.906 0.554695 0.551214 0
M  V30 5557 H 513.49 1.7418 0.870033 0
M  V30 5558 H 511.661 1.9047 3.3849 0
M  V30 5559 H 513.393 2.14815 3.42982 0
M  V30 5560 H 510.148 3.97634 2.57262 0
M  V30 5561 H 510.572 6.504 1.87906 0
M  V30 5562 H 515.214 3.61712 2.18916 0
M  V30 5563 H 512.932 7.97746 1.28945 0
M  V30 5564 H 516.518 5.613 1.53081 0
M  V30 5565 H 515.398 7.76609 1.08848 0
M  V30 5566 N 512.901 -0.976442 1.23707 0
M  V30 5567 C 514.312 -1.53284 1.06587 0
M  V30 5568 C 514.663 -1.92765 -0.365526 0
M  V30 5569 O 513.788 -1.7645 -1.25277 0
M  V30 5570 C 514.383 -2.78548 1.92864 0
M  V30 5571 C 512.942 -3.30574 1.79994 0
M  V30 5572 C 512.089 -2.03538 1.88328 0
M  V30 5573 H 515.04 -0.795692 1.37311 0
M  V30 5574 H 515.061 -3.5155 1.45577 0
M  V30 5575 H 514.573 -2.49782 2.97037 0
M  V30 5576 H 512.674 -3.64211 0.786202 0
M  V30 5577 H 512.787 -4.00065 2.636 0
M  V30 5578 H 511.151 -2.17853 1.31954 0
M  V30 5579 H 511.934 -1.77149 2.94063 0
M  V30 5580 N 514.379 -1.04941 -1.1758 0
M  V30 5581 C 515.311 -0.606174 -2.21039 0
M  V30 5582 C 516.324 0.328763 -1.59446 0
M  V30 5583 O 517.513 0.121895 -1.78083 0
M  V30 5584 C 514.613 0.133294 -3.38638 0
M  V30 5585 C 513.786 -0.811711 -4.29802 0
M  V30 5586 C 512.845 -0.113958 -5.26077 0
M  V30 5587 O 511.871 -0.747237 -5.64274 0
M  V30 5588 N 513.073 1.14953 -5.69004 0
M  V30 5589 H 515.838 -1.49606 -2.59689 0
M  V30 5590 H 513.399 -0.930997 -1.32454 0
M  V30 5591 H 515.391 0.610144 -4.00074 0
M  V30 5592 H 513.961 0.924816 -2.98607 0
M  V30 5593 H 513.181 -1.46824 -3.65837 0
M  V30 5594 H 514.469 -1.45326 -4.87604 0
M  V30 5595 H 513.867 1.68441 -5.40041 0
M  V30 5596 H 512.424 1.57049 -6.32597 0
M  V30 5597 N 515.857 1.33968 -0.830081 0
M  V30 5598 C 516.787 2.31911 -0.271911 0
M  V30 5599 C 517.768 1.58571 0.61556 0
M  V30 5600 O 518.953 1.86514 0.540946 0
M  V30 5601 C 516.083 3.42737 0.561146 0
M  V30 5602 C 515.037 4.27383 -0.229789 0
M  V30 5603 C 514.363 5.29742 0.726463 0
M  V30 5604 C 515.663 5.02 -1.44197 0
M  V30 5605 H 517.357 2.78844 -1.09025 0
M  V30 5606 H 514.903 1.34061 -0.52571 0
M  V30 5607 H 516.856 4.10276 0.961867 0
M  V30 5608 H 515.58 2.94471 1.41261 0
M  V30 5609 H 514.239 3.61456 -0.611964 0
M  V30 5610 H 513.887 4.77736 1.57408 0
M  V30 5611 H 513.587 5.87255 0.20142 0
M  V30 5612 H 515.111 6.00149 1.12489 0
M  V30 5613 H 516.525 5.62355 -1.11488 0
M  V30 5614 H 514.922 5.69122 -1.90317 0
M  V30 5615 H 515.992 4.31281 -2.2164 0
M  V30 5616 N 517.335 0.585699 1.46312 0
M  V30 5617 C 518.267 -0.183687 2.28463 0
M  V30 5618 C 519.28 -0.85264 1.38686 0
M  V30 5619 O 520.469 -0.721701 1.6326 0
M  V30 5620 C 517.569 -1.27977 3.13808 0
M  V30 5621 C 516.742 -0.702164 4.31727 0
M  V30 5622 C 515.801 -1.68633 4.98447 0
M  V30 5623 O 514.827 -1.22121 5.55945 0
M  V30 5624 N 516.029 -3.02047 4.95729 0
M  V30 5625 H 518.794 0.521127 2.95134 0
M  V30 5626 H 516.355 0.423673 1.56258 0
M  V30 5627 H 518.347 -1.9375 3.55307 0
M  V30 5628 H 516.917 -1.8874 2.4919 0
M  V30 5629 H 516.137 0.1331 3.93975 0
M  V30 5630 H 517.425 -0.296101 5.07938 0
M  V30 5631 H 516.823 -3.42457 4.50266 0
M  V30 5632 H 515.38 -3.63301 5.41161 0
M  V30 5633 N 518.813 -1.54241 0.323641 0
M  V30 5634 C 520.09 -1.92741 -0.333181 0
M  V30 5635 C 520.47 -1.25326 -1.69872 0
M  V30 5636 O 519.818 -0.396991 -2.25025 0
M  V30 5637 C 520.028 -3.46399 -0.425322 0
M  V30 5638 C 521.376 -4.19029 -0.68557 0
M  V30 5639 O 522.4 -3.52555 -0.50824 0
M  V30 5640 O 521.259 -5.36751 -1.02767 0
M  V30 5641 H 518.353 -0.804811 -0.190286 0
M  V30 5642 H 520.899 -1.65542 0.373361 0
M  V30 5643 H 519.671 -3.87643 0.533737 0
M  V30 5644 H 519.294 -3.79704 -1.17944 0
M  V30 5645 N 520.291 -0.0518155 -1.57515 0
M  V30 5646 C 521.241 0.932017 -2.0808 0
M  V30 5647 C 522.225 1.27141 -0.986098 0
M  V30 5648 O 523.417 1.25373 -1.24943 0
M  V30 5649 C 520.546 2.20665 -2.62986 0
M  V30 5650 C 519.632 1.89462 -3.79427 0
M  V30 5651 N 520.023 1.28621 -4.89173 0
M  V30 5652 C 518.321 2.19327 -3.88345 0
M  V30 5653 C 519.022 1.15062 -5.70207 0
M  V30 5654 N 517.998 1.65372 -5.17835 0
M  V30 5655 H 521.8 0.456964 -2.90326 0
M  V30 5656 H 519.314 0.152619 -1.61681 0
M  V30 5657 H 521.311 2.92044 -2.97516 0
M  V30 5658 H 519.971 2.68776 -1.8218 0
M  V30 5659 H 520.982 0.958341 -5.08956 0
M  V30 5660 H 517.659 2.69955 -3.18482 0
M  V30 5661 H 519.049 0.678243 -6.68468 0
M  V30 5662 N 521.769 1.56035 0.221574 0
M  V30 5663 C 523.016 1.79047 0.94597 0
M  V30 5664 C 523.344 0.62057 1.84334 0
M  V30 5665 O 522.599 -0.395053 1.91671 0
M  V30 5666 C 522.898 3.07813 1.8162 0
M  V30 5667 C 522.564 4.3797 1.07206 0
M  V30 5668 C 521.226 4.73334 0.866508 0
M  V30 5669 C 523.578 5.18326 0.546565 0
M  V30 5670 C 520.906 5.8657 0.123549 0
M  V30 5671 C 523.258 6.32335 -0.18305 0
M  V30 5672 C 521.922 6.66301 -0.399861 0
M  V30 5673 H 521.192 0.655178 0.346155 0
M  V30 5674 H 523.839 1.90299 0.214146 0
M  V30 5675 H 522.144 2.91682 2.61589 0
M  V30 5676 H 523.841 3.2282 2.37884 0
M  V30 5677 H 520.431 4.10202 1.24226 0
M  V30 5678 H 524.615 4.9144 0.692847 0
M  V30 5679 H 519.871 6.11376 -0.0546591 0
M  V30 5680 H 524.045 6.9383 -0.59775 0
M  V30 5681 H 521.672 7.53889 -0.977489 0
M  V30 5682 N 523.247 -0.488276 1.49845 0
M  V30 5683 C 524.472 -1.26997 1.63971 0
M  V30 5684 C 524.897 -1.85427 0.315994 0
M  V30 5685 O 524.255 -1.66475 -0.718032 0
M  V30 5686 C 524.303 -2.36689 2.72049 0
M  V30 5687 O 523.407 -3.40882 2.32107 0
M  V30 5688 H 522.748 -0.374376 0.548396 0
M  V30 5689 H 525.278 -0.583104 1.96115 0
M  V30 5690 H 525.288 -2.82262 2.94605 0
M  V30 5691 H 523.963 -1.93529 3.68129 0
M  V30 5692 H 522.54 -3.01139 2.19931 0
M  V30 5693 N 524.725 -1.39134 -0.740242 0
M  V30 5694 C 525.688 -1.37217 -1.83587 0
M  V30 5695 C 526.688 -0.270221 -1.58513 0
M  V30 5696 O 527.878 -0.527843 -1.6601 0
M  V30 5697 C 525.01 -1.13959 -3.21288 0
M  V30 5698 H 526.203 -2.34705 -1.86691 0
M  V30 5699 H 523.756 -1.24622 -0.94335 0
M  V30 5700 H 524.491 -0.17131 -3.23847 0
M  V30 5701 H 524.276 -1.93754 -3.40884 0
M  V30 5702 H 525.766 -1.15346 -4.01354 0
M  V30 5703 N 526.204 0.969867 -1.24223 0
M  V30 5704 C 527.45 1.7151 -1.08223 0
M  V30 5705 C 527.783 1.90478 0.37838 0
M  V30 5706 O 527.058 1.4647 1.27971 0
M  V30 5707 C 527.341 3.10714 -1.82013 0
M  V30 5708 C 527.194 2.9925 -3.35811 0
M  V30 5709 C 528.513 4.10332 -1.59108 0
M  V30 5710 H 525.632 0.622499 -0.394543 0
M  V30 5711 H 528.274 1.1284 -1.52863 0
M  V30 5712 H 526.424 3.608 -1.44068 0
M  V30 5713 H 528.096 2.56608 -3.83341 0
M  V30 5714 H 526.339 2.35512 -3.64303 0
M  V30 5715 H 527.01 3.97857 -3.82641 0
M  V30 5716 H 529.486 3.69097 -1.92111 0
M  V30 5717 H 528.362 5.05804 -2.13198 0
M  V30 5718 H 528.623 4.38926 -0.528832 0
M  V30 5719 N 527.682 1.05563 1.17022 0
M  V30 5720 C 528.629 0.659893 2.21165 0
M  V30 5721 C 529.599 -0.339813 1.62587 0
M  V30 5722 O 530.784 -0.230378 1.89404 0
M  V30 5723 C 527.924 0.0447297 3.45071 0
M  V30 5724 C 527.037 1.09372 4.17926 0
M  V30 5725 C 526.172 0.445481 5.29329 0
M  V30 5726 C 525.211 1.47852 5.93975 0
M  V30 5727 N 524.348 0.854172 6.96885 0
M  V30 5728 H 529.188 1.55243 2.54369 0
M  V30 5729 H 526.725 0.776336 1.24946 0
M  V30 5730 H 528.683 -0.329404 4.15898 0
M  V30 5731 H 527.313 -0.811244 3.1244 0
M  V30 5732 H 526.365 1.58564 3.45777 0
M  V30 5733 H 527.677 1.87773 4.62107 0
M  V30 5734 H 526.831 0.0179688 6.06697 0
M  V30 5735 H 525.57 -0.370481 4.86291 0
M  V30 5736 H 524.575 1.91601 5.15334 0
M  V30 5737 H 525.8 2.29645 6.39093 0
M  V30 5738 H 523.746 0.0587882 6.55974 0
M  V30 5739 H 523.663 1.57567 7.39397 0
M  V30 5740 H 524.931 0.451559 7.78191 0
M  V30 5741 N 529.16 -1.33526 0.837174 0
M  V30 5742 C 530.09 -2.31764 0.284206 0
M  V30 5743 C 531.071 -1.58896 -0.607142 0
M  V30 5744 O 532.256 -1.86798 -0.531047 0
M  V30 5745 C 529.386 -3.43029 -0.542962 0
M  V30 5746 C 528.34 -4.27255 0.252451 0
M  V30 5747 C 527.666 -5.3012 -0.69836 0
M  V30 5748 C 528.966 -5.01229 1.46858 0
M  V30 5749 H 530.66 -2.78262 1.10502 0
M  V30 5750 H 528.206 -1.3378 0.532812 0
M  V30 5751 H 530.159 -4.1078 -0.940096 0
M  V30 5752 H 528.883 -2.95216 -1.39697 0
M  V30 5753 H 527.542 -3.61127 0.631124 0
M  V30 5754 H 527.19 -4.78564 -1.54872 0
M  V30 5755 H 526.89 -5.87353 -0.170274 0
M  V30 5756 H 528.414 -6.00737 -1.09305 0
M  V30 5757 H 529.828 -5.61756 1.14469 0
M  V30 5758 H 528.225 -5.68104 1.93333 0
M  V30 5759 H 529.295 -4.301 2.23924 0
M  V30 5760 N 530.638 -0.59345 -1.46 0
M  V30 5761 C 531.884 -0.0832754 -2.02629 0
M  V30 5762 C 532.217 1.27749 -1.46266 0
M  V30 5763 O 531.492 1.8395 -0.631866 0
M  V30 5764 C 531.775 -0.0290756 -3.60088 0
M  V30 5765 C 531.628 -1.41951 -4.26814 0
M  V30 5766 C 532.947 0.666055 -4.35031 0
M  V30 5767 H 530.066 -0.031736 -0.736316 0
M  V30 5768 H 532.708 -0.762711 -1.74019 0
M  V30 5769 H 530.858 0.549532 -3.84594 0
M  V30 5770 H 532.53 -2.04411 -4.13538 0
M  V30 5771 H 530.773 -1.98422 -3.8576 0
M  V30 5772 H 531.444 -1.33395 -5.3564 0
M  V30 5773 H 533.92 0.174401 -4.15734 0
M  V30 5774 H 532.796 0.673041 -5.44758 0
M  V30 5775 H 533.057 1.72946 -4.06869 0
M  V30 5776 N 532.116 1.54067 -0.331816 0
M  V30 5777 C 533.364 2.00319 0.267739 0
M  V30 5778 C 533.685 1.22148 1.52003 0
M  V30 5779 O 532.955 0.325494 1.93177 0
M  V30 5780 H 531.535 0.740014 0.101922 0
M  V30 5781 H 534.197 1.89628 -0.450267 0
M  V30 5782 H 533.293 3.07765 0.518385 0
M  V30 5783 N 533.594 0.0601682 1.57485 0
M  V30 5784 C 535.005 -0.474217 1.80577 0
M  V30 5785 C 535.356 -1.70365 0.973147 0
M  V30 5786 O 534.481 -2.15544 0.192306 0
M  V30 5787 C 535.076 -0.867102 3.27516 0
M  V30 5788 C 533.635 -1.34642 3.51495 0
M  V30 5789 C 532.782 -0.32594 2.75378 0
M  V30 5790 H 535.733 0.285973 1.56102 0
M  V30 5791 H 535.754 -1.72938 3.38929 0
M  V30 5792 H 535.266 0.0278927 3.8809 0
M  V30 5793 H 533.367 -2.2603 2.96212 0
M  V30 5794 H 533.48 -1.33237 4.60201 0
M  V30 5795 H 531.844 -0.800749 2.41785 0
M  V30 5796 H 532.627 0.561125 3.38683 0
M  V30 5797 N 535.072 -1.5615 -0.213296 0
M  V30 5798 C 535.982 -1.96265 -1.28519 0
M  V30 5799 C 536.998 -0.86765 -1.50824 0
M  V30 5800 O 538.174 -1.17191 -1.63793 0
M  V30 5801 C 535.239 -2.27836 -2.61327 0
M  V30 5802 C 534.3 -3.50949 -2.47252 0
M  V30 5803 C 533.533 -3.81004 -3.73727 0
M  V30 5804 O 533.756 -3.12612 -4.77106 0
M  V30 5805 O 532.69 -4.74477 -3.70344 0
M  V30 5806 H 536.516 -2.87631 -0.974795 0
M  V30 5807 H 534.101 -1.43467 -0.416832 0
M  V30 5808 H 535.983 -2.49299 -3.39747 0
M  V30 5809 H 534.658 -1.39643 -2.9203 0
M  V30 5810 H 533.565 -3.34754 -1.67004 0
M  V30 5811 H 534.898 -4.39551 -2.21486 0
M  V30 5812 N 536.55 0.480323 -1.50102 0
M  V30 5813 C 537.46 1.60547 -1.71061 0
M  V30 5814 C 538.476 1.63564 -0.593529 0
M  V30 5815 O 539.652 1.81604 -0.870751 0
M  V30 5816 C 536.717 2.96814 -1.79171 0
M  V30 5817 C 535.778 3.04259 -3.02861 0
M  V30 5818 C 535.011 4.34027 -3.10574 0
M  V30 5819 O 535.234 5.24009 -2.25323 0
M  V30 5820 O 534.168 4.46873 -4.03223 0
M  V30 5821 H 537.994 1.45788 -2.6642 0
M  V30 5822 H 535.579 0.658838 -1.34088 0
M  V30 5823 H 537.461 3.77765 -1.86738 0
M  V30 5824 H 536.136 3.11791 -0.869947 0
M  V30 5825 H 535.043 2.22419 -3.008 0
M  V30 5826 H 536.376 2.94216 -3.94586 0
M  V30 5827 N 538.028 1.39524 0.732853 0
M  V30 5828 C 538.991 1.38189 1.82857 0
M  V30 5829 C 539.991 0.278624 1.58368 0
M  V30 5830 O 541.181 0.536639 1.65728 0
M  V30 5831 C 538.313 1.15661 3.2068 0
M  V30 5832 H 539.506 2.35692 1.85444 0
M  V30 5833 H 537.059 1.2512 0.936728 0
M  V30 5834 H 537.794 0.188482 3.23752 0
M  V30 5835 H 537.579 1.95559 3.39852 0
M  V30 5836 H 539.069 1.17472 4.00737 0
M  V30 5837 N 539.506 -0.963266 1.24736 0
M  V30 5838 C 540.436 -2.07628 1.06832 0
M  V30 5839 C 541.417 -1.70088 -0.0200566 0
M  V30 5840 O 542.602 -1.93636 0.147854 0
M  V30 5841 C 539.732 -3.40636 0.677069 0
M  V30 5842 C 538.686 -3.9215 1.71471 0
M  V30 5843 C 538.012 -5.21553 1.1784 0
M  V30 5844 C 539.312 -4.19493 3.11164 0
M  V30 5845 H 541.006 -2.22864 1.9993 0
M  V30 5846 H 538.552 -1.07093 0.96266 0
M  V30 5847 H 540.505 -4.17941 0.538792 0
M  V30 5848 H 539.229 -3.25313 -0.289612 0
M  V30 5849 H 537.888 -3.17005 1.84128 0
M  V30 5850 H 537.536 -5.02593 0.202195 0
M  V30 5851 H 537.236 -5.56988 1.87185 0
M  V30 5852 H 538.76 -6.01463 1.05233 0
M  V30 5853 H 540.174 -4.87487 3.01711 0
M  V30 5854 H 538.571 -4.66165 3.77902 0
M  V30 5855 H 539.641 -3.26097 3.58871 0
M  V30 5856 N 540.985 -1.06182 -1.16461 0
M  V30 5857 C 542.21 -0.798599 -1.91408 0
M  V30 5858 C 542.635 0.640987 -1.76842 0
M  V30 5859 O 541.993 1.44652 -1.09296 0
M  V30 5860 C 542.041 -1.19665 -3.40165 0
M  V30 5861 O 541.145 -0.334768 -4.11039 0
M  V30 5862 H 540.486 -0.291961 -0.596368 0
M  V30 5863 H 543.016 -1.41732 -1.47557 0
M  V30 5864 H 543.026 -1.16772 -3.90933 0
M  V30 5865 H 541.701 -2.24526 -3.50087 0
M  V30 5866 H 540.278 -0.425168 -3.70468 0
M  V30 5867 N 542.463 1.3308 -0.844243 0
M  V30 5868 C 543.874 1.7992 -0.498566 0
M  V30 5869 C 544.225 1.69808 0.982834 0
M  V30 5870 O 543.35 1.25051 1.7661 0
M  V30 5871 C 543.945 3.26677 -0.898204 0
M  V30 5872 C 542.504 3.71513 -0.604583 0
M  V30 5873 C 541.651 2.54393 -1.10362 0
M  V30 5874 H 544.602 1.20526 -1.03244 0
M  V30 5875 H 544.623 3.79918 -0.21039 0
M  V30 5876 H 544.135 3.34004 -1.97643 0
M  V30 5877 H 542.236 3.69708 0.46335 0
M  V30 5878 H 542.349 4.64755 -1.16358 0
M  V30 5879 H 540.713 2.49246 -0.524273 0
M  V30 5880 H 541.496 2.6448 -2.18873 0
M  V30 5881 N 543.941 0.601185 1.45683 0
M  V30 5882 C 545.189 0.0936957 2.01883 0
M  V30 5883 C 545.51 -1.2779 1.47291 0
M  V30 5884 O 544.78 -1.84279 0.664691 0
M  V30 5885 H 543.36 0.0316466 0.746329 0
M  V30 5886 H 546.022 0.781137 1.78562 0
M  V30 5887 H 545.118 0.0386297 3.12076 0
M  V30 5888 N 545.419 -1.53889 0.339982 0
M  V30 5889 C 546.329 -2.28604 -0.526988 0
M  V30 5890 C 547.345 -1.33578 -1.11503 0
M  V30 5891 O 548.521 -1.66612 -1.13148 0
M  V30 5892 C 545.586 -3.04164 -1.66389 0
M  V30 5893 C 544.647 -4.14809 -1.10599 0
M  V30 5894 C 543.88 -4.86756 -2.18871 0
M  V30 5895 O 544.103 -4.58343 -3.39526 0
M  V30 5896 O 543.037 -5.73289 -1.83366 0
M  V30 5897 H 546.863 -3.03594 0.0802707 0
M  V30 5898 H 544.448 -1.4903 0.105141 0
M  V30 5899 H 546.33 -3.51427 -2.32544 0
M  V30 5900 H 545.005 -2.32035 -2.25703 0
M  V30 5901 H 543.912 -3.71857 -0.409067 0
M  V30 5902 H 545.245 -4.89029 -0.557771 0
M  V30 5903 N 546.897 -0.0685191 -1.57451 0
M  V30 5904 C 547.86 0.885173 -2.11417 0
M  V30 5905 C 548.86 1.22853 -1.03748 0
M  V30 5906 O 550.05 1.16235 -1.2975 0
M  V30 5907 C 547.182 2.18964 -2.61281 0
M  V30 5908 H 548.375 0.417034 -2.96986 0
M  V30 5909 H 545.928 0.18014 -1.55258 0
M  V30 5910 H 546.663 2.70321 -1.79156 0
M  V30 5911 H 546.448 1.9534 -3.39977 0
M  V30 5912 H 547.938 2.87242 -3.0312 0
M  V30 5913 N 548.375 1.56261 0.205012 0
M  V30 5914 C 549.791 1.49623 0.555433 0
M  V30 5915 C 549.991 0.766719 1.86343 0
M  V30 5916 O 549.047 0.313158 2.50551 0
M  V30 5917 C 550.36 2.94253 0.619347 0
M  V30 5918 C 551.908 3.04868 0.708855 0
M  V30 5919 C 552.383 4.50888 0.803969 0
M  V30 5920 N 553.874 4.54999 0.867758 0
M  V30 5921 C 554.609 5.65284 0.96135 0
M  V30 5922 N 554.105 6.85282 1.01786 0
M  V30 5923 N 555.898 5.53174 0.997771 0
M  V30 5924 H 548.049 2.0211 -0.653094 0
M  V30 5925 H 550.312 0.919333 -0.231366 0
M  V30 5926 H 550.018 3.50643 -0.272458 0
M  V30 5927 H 549.892 3.47063 1.47741 0
M  V30 5928 H 552.279 2.48532 1.5911 0
M  V30 5929 H 552.36 2.55199 -0.175205 0
M  V30 5930 H 552.004 5.07846 -0.0738798 0
M  V30 5931 H 551.934 4.98279 1.70369 0
M  V30 5932 H 554.425 3.68588 0.833735 0
M  V30 5933 H 554.738 7.65081 1.08951 0
M  V30 5934 H 553.083 6.8796 0.986706 0
M  V30 5935 H 556.274 4.5835 0.950392 0
M  V30 5936 H 556.447 6.39151 1.06725 0
M  V30 5937 N 549.853 -0.472356 1.50355 0
M  V30 5938 C 551.13 -1.23356 1.51798 0
M  V30 5939 C 551.51 -2.09469 0.26193 0
M  V30 5940 O 550.858 -2.15677 -0.754691 0
M  V30 5941 C 551.068 -2.06568 2.81302 0
M  V30 5942 C 552.416 -2.648 3.31913 0
M  V30 5943 O 553.44 -2.16812 2.82614 0
M  V30 5944 O 552.299 -3.52231 4.17846 0
M  V30 5945 H 549.393 -0.559707 0.608816 0
M  V30 5946 H 551.939 -0.48428 1.62643 0
M  V30 5947 H 550.711 -1.43103 3.64194 0
M  V30 5948 H 550.334 -2.88633 2.73454 0
M  V30 5949 N 551.331 -1.39911 -0.725443 0
M  V30 5950 C 552.264 -1.33788 -1.84867 0
M  V30 5951 C 553.242 -0.209907 -1.61239 0
M  V30 5952 O 554.426 -0.391943 -1.8438 0
M  V30 5953 C 551.553 -1.07975 -3.21028 0
M  V30 5954 C 550.599 -2.23092 -3.635 0
M  V30 5955 S 551.432 -3.85431 -3.71757 0
M  V30 5956 C 552.588 -3.61862 -5.10692 0
M  V30 5957 H 552.821 -2.28848 -1.89779 0
M  V30 5958 H 550.354 -1.26079 -0.891254 0
M  V30 5959 H 552.312 -0.937669 -3.99647 0
M  V30 5960 H 550.973 -0.145865 -3.13761 0
M  V30 5961 H 550.166 -2.00647 -4.62338 0
M  V30 5962 H 549.768 -2.33553 -2.92112 0
M  V30 5963 H 552.06 -3.19719 -5.97316 0
M  V30 5964 H 553.003 -4.60196 -5.38169 0
M  V30 5965 H 553.411 -2.95757 -4.8082 0
M  V30 5966 N 552.809 0.956637 -1.25245 0
M  V30 5967 C 553.772 2.03457 -1.05537 0
M  V30 5968 C 554.772 1.60798 -0.00886317 0
M  V30 5969 O 555.962 1.72384 -0.250865 0
M  V30 5970 C 553.094 3.35543 -0.601965 0
M  V30 5971 H 554.287 2.22372 -2.01223 0
M  V30 5972 H 551.84 1.13344 -1.07623 0
M  V30 5973 H 552.575 3.22323 0.357584 0
M  V30 5974 H 552.36 3.67854 -1.35743 0
M  V30 5975 H 553.85 4.14769 -0.485454 0
M  V30 5976 N 554.287 1.06798 1.15896 0
M  V30 5977 C 555.22 0.627503 2.19403 0
M  V30 5978 C 556.198 -0.352352 1.58736 0
M  V30 5979 O 557.382 -0.260111 1.86697 0
M  V30 5980 C 554.509 -0.079356 3.38607 0
M  V30 5981 C 553.555 0.858057 4.17779 0
M  V30 5982 S 554.388 2.35605 4.80885 0
M  V30 5983 C 555.544 1.66083 6.03463 0
M  V30 5984 H 555.777 1.50441 2.56427 0
M  V30 5985 H 553.31 0.881427 1.26768 0
M  V30 5986 H 555.268 -0.48095 4.07673 0
M  V30 5987 H 553.929 -0.932524 2.99938 0
M  V30 5988 H 553.122 0.310108 5.03045 0
M  V30 5989 H 552.724 1.19977 3.54234 0
M  V30 5990 H 555.016 0.969337 6.7053 0
M  V30 5991 H 555.959 2.49159 6.62816 0
M  V30 5992 H 556.367 1.14122 5.52844 0
M  V30 5993 N 555.766 -1.3263 0.851289 0
M  V30 5994 C 557.043 -1.91982 0.374448 0
M  V30 5995 C 557.423 -1.77568 -1.14161 0
M  V30 5996 O 556.771 -1.1717 -1.96172 0
M  V30 5997 C 556.981 -3.38862 0.835088 0
M  V30 5998 C 558.329 -4.15999 0.850309 0
M  V30 5999 O 559.353 -3.47566 0.779505 0
M  V30 6000 O 558.212 -5.38189 0.949481 0
M  V30 6001 H 555.306 -0.819846 0.10854 0
M  V30 6002 H 557.852 -1.41422 0.937966 0
M  V30 6003 H 556.624 -3.43281 1.87814 0
M  V30 6004 H 556.247 -3.96821 0.248833 0
M  V30 6005 N 557.244 -0.608902 -1.45362 0
M  V30 6006 C 558.174 0.0964526 -2.33301 0
M  V30 6007 C 559.155 0.857444 -1.46908 0
M  V30 6008 O 560.34 0.827735 -1.75676 0
M  V30 6009 C 557.47 1.09354 -3.29635 0
M  V30 6010 C 556.424 0.445676 -4.25673 0
M  V30 6011 C 555.75 1.5511 -5.11708 0
M  V30 6012 C 557.05 -0.633972 -5.18438 0
M  V30 6013 H 558.744 -0.637829 -2.92527 0
M  V30 6014 H 556.29 -0.308178 -1.40664 0
M  V30 6015 H 558.243 1.59556 -3.90025 0
M  V30 6016 H 556.967 1.85843 -2.6857 0
M  V30 6017 H 555.626 -0.0354897 -3.66583 0
M  V30 6018 H 555.274 2.30631 -4.4701 0
M  V30 6019 H 554.974 1.12311 -5.76767 0
M  V30 6020 H 556.498 2.05537 -5.74967 0
M  V30 6021 H 557.912 -0.215974 -5.72893 0
M  V30 6022 H 556.309 -0.983789 -5.91981 0
M  V30 6023 H 557.379 -1.51005 -4.60788 0
M  V30 6024 N 558.722 1.53707 -0.348139 0
M  V30 6025 C 559.962 2.02899 0.247254 0
M  V30 6026 C 560.326 1.23033 1.47401 0
M  V30 6027 O 561.527 1.62146 2.14388 0
M  V30 6028 C 559.798 3.53156 0.549151 0
M  V30 6029 S 561.357 4.24247 1.1207 0
M  V30 6030 H 558.175 0.707213 0.0732894 0
M  V30 6031 H 560.777 1.89338 -0.486965 0
M  V30 6032 H 559.481 4.08893 -0.351435 0
M  V30 6033 H 559.012 3.70845 1.31291 0
M  V30 6034 H 561.027 4.33958 2.40613 0
M  V30 6035 N 560.2 0.0768682 1.57412 0
M  V30 6036 C 561.616 -0.279772 1.57129 0
M  V30 6037 C 561.816 -1.69688 1.08666 0
M  V30 6038 O 560.872 -2.40953 0.754843 0
M  V30 6039 C 562.185 -0.0848055 3.0058 0
M  V30 6040 C 563.733 -0.153954 3.12621 0
M  V30 6041 C 564.208 0.0127946 4.57998 0
M  V30 6042 N 565.699 -0.0426435 4.6318 0
M  V30 6043 C 566.434 0.0618892 5.73367 0
M  V30 6044 N 565.93 0.220229 6.9245 0
M  V30 6045 N 567.723 0.00446072 5.621 0
M  V30 6046 H 559.874 1.00297 1.87228 0
M  V30 6047 H 562.137 0.391565 0.863354 0
M  V30 6048 H 561.843 0.89325 3.40168 0
M  V30 6049 H 561.717 -0.834961 3.67843 0
M  V30 6050 H 564.104 -1.1225 2.72917 0
M  V30 6051 H 564.185 0.627389 2.47987 0
M  V30 6052 H 563.829 0.978128 4.98392 0
M  V30 6053 H 563.759 -0.788016 5.20671 0
M  V30 6054 H 566.25 -0.163226 3.77547 0
M  V30 6055 H 566.563 0.291999 7.72248 0
M  V30 6056 H 564.908 0.255658 6.9453 0
M  V30 6057 H 568.099 -0.117979 4.67951 0
M  V30 6058 H 568.272 0.0893796 6.47938 0
M  V30 6059 N 561.678 -1.56367 -0.196722 0
M  V30 6060 C 562.61 -1.90941 -1.26784 0
M  V30 6061 C 563.623 -0.799928 -1.41792 0
M  V30 6062 O 564.812 -1.07833 -1.42247 0
M  V30 6063 C 561.912 -2.12477 -2.6402 0
M  V30 6064 C 561.085 -3.43616 -2.70641 0
M  V30 6065 C 560.144 -3.54284 -3.89062 0
M  V30 6066 O 559.17 -4.2712 -3.76241 0
M  V30 6067 N 560.372 -2.87252 -5.04447 0
M  V30 6068 H 563.137 -2.83417 -0.974417 0
M  V30 6069 H 560.698 -1.57215 -0.386649 0
M  V30 6070 H 562.69 -2.16904 -3.41665 0
M  V30 6071 H 561.26 -1.26508 -2.85857 0
M  V30 6072 H 560.48 -3.51072 -1.79283 0
M  V30 6073 H 561.768 -4.29958 -2.72054 0
M  V30 6074 H 561.166 -2.27901 -5.17762 0
M  V30 6075 H 559.723 -2.97308 -5.80044 0
M  V30 6076 N 563.156 0.464375 -1.50603 0
M  V30 6077 C 564.433 1.22549 -1.5245 0
M  V30 6078 C 564.813 2.09327 -0.273035 0
M  V30 6079 O 564.161 2.16074 0.743242 0
M  V30 6080 C 564.371 2.05074 -2.82393 0
M  V30 6081 C 565.719 2.63036 -3.33313 0
M  V30 6082 O 566.743 2.1531 -2.8376 0
M  V30 6083 O 565.602 3.5001 -4.19709 0
M  V30 6084 H 562.696 0.556471 -0.611775 0
M  V30 6085 H 565.242 0.475648 -1.62898 0
M  V30 6086 H 564.014 1.41169 -3.64948 0
M  V30 6087 H 563.637 2.87179 -2.7498 0
M  V30 6088 N 564.634 1.40294 0.718013 0
M  V30 6089 C 566.045 1.34289 1.29705 0
M  V30 6090 C 566.396 0.0152228 1.96194 0
M  V30 6091 O 565.521 -0.88682 1.97394 0
M  V30 6092 C 566.116 2.43219 2.3586 0
M  V30 6093 C 564.675 2.40682 2.89394 0
M  V30 6094 C 563.822 2.24223 1.63154 0
M  V30 6095 H 566.773 1.50135 0.514312 0
M  V30 6096 H 566.794 2.10986 3.16647 0
M  V30 6097 H 566.306 3.39836 1.87439 0
M  V30 6098 H 564.407 1.47756 3.42051 0
M  V30 6099 H 564.52 3.36177 3.41353 0
M  V30 6100 H 562.884 1.71696 1.88129 0
M  V30 6101 H 563.667 3.22834 1.16761 0
M  V30 6102 N 566.112 -0.949982 1.2575 0
M  V30 6103 C 567.022 -2.08109 1.08295 0
M  V30 6104 C 568.038 -1.7399 0.0188181 0
M  V30 6105 O 569.214 -2.00187 0.220724 0
M  V30 6106 C 566.279 -3.39383 0.708534 0
M  V30 6107 C 565.34 -3.8734 1.85111 0
M  V30 6108 C 564.573 -5.12349 1.49447 0
M  V30 6109 O 564.796 -5.6905 0.392212 0
M  V30 6110 O 563.73 -5.5513 2.32624 0
M  V30 6111 H 567.556 -2.25738 2.03165 0
M  V30 6112 H 565.141 -1.06545 1.04731 0
M  V30 6113 H 567.023 -4.18277 0.512061 0
M  V30 6114 H 565.698 -3.23013 -0.210854 0
M  V30 6115 H 564.605 -3.09429 2.10248 0
M  V30 6116 H 565.938 -4.08216 2.74991 0
M  V30 6117 N 567.59 -1.07411 -1.15328 0
M  V30 6118 C 568.83 -0.807011 -1.87794 0
M  V30 6119 C 569.194 0.654987 -1.80482 0
M  V30 6120 O 570.395 1.03716 -2.47985 0
M  V30 6121 C 568.666 -1.30198 -3.32841 0
M  V30 6122 S 570.225 -1.16564 -4.23034 0
M  V30 6123 H 567.043 -0.292429 -0.648079 0
M  V30 6124 H 569.645 -1.37334 -1.39139 0
M  V30 6125 H 568.349 -2.3607 -3.35707 0
M  V30 6126 H 567.88 -0.730881 -3.86551 0
M  V30 6127 H 569.895 -0.103557 -4.96092 0
M  V30 6128 N 569.068 1.32177 -0.85831 0
M  V30 6129 C 569.978 2.32561 -0.308606 0
M  V30 6130 C 570.994 1.64209 0.575462 0
M  V30 6131 O 572.17 1.95719 0.474961 0
M  V30 6132 C 569.235 3.43207 0.490909 0
M  V30 6133 C 568.296 4.27243 -0.419733 0
M  V30 6134 C 567.529 5.32605 0.341719 0
M  V30 6135 O 567.752 5.48332 1.57125 0
M  V30 6136 O 566.686 6.0118 -0.294379 0
M  V30 6137 H 570.512 2.81477 -1.14037 0
M  V30 6138 H 568.097 1.35866 -0.621349 0
M  V30 6139 H 569.979 4.10677 0.944574 0
M  V30 6140 H 568.654 2.96474 1.29941 0
M  V30 6141 H 567.561 3.62569 -0.921652 0
M  V30 6142 H 568.894 4.7751 -1.19352 0
M  V30 6143 N 570.547 0.616602 1.45037 0
M  V30 6144 C 571.794 0.115331 2.02171 0
M  V30 6145 C 572.122 -1.25748 1.48383 0
M  V30 6146 O 571.377 -1.84511 0.652229 0
M  V30 6147 C 571.676 0.0356829 3.57382 0
M  V30 6148 C 571.342 1.34535 4.30362 0
M  V30 6149 C 570.004 1.70408 4.50016 0
M  V30 6150 C 572.356 2.21049 4.72003 0
M  V30 6151 C 569.684 2.92529 5.0857 0
M  V30 6152 C 572.036 3.42427 5.31908 0
M  V30 6153 C 570.7 3.78541 5.49784 0
M  V30 6154 H 569.97 0.0422024 0.739797 0
M  V30 6155 H 572.617 0.80002 1.73988 0
M  V30 6156 H 570.922 -0.732314 3.84895 0
M  V30 6157 H 572.619 -0.368463 3.99304 0
M  V30 6158 H 569.209 1.05615 4.15383 0
M  V30 6159 H 573.393 1.94632 4.56544 0
M  V30 6160 H 568.649 3.20605 5.20598 0
M  V30 6161 H 572.823 4.09709 5.63127 0
M  V30 6162 H 570.45 4.73255 5.94923 0
M  V30 6163 N 572.025 -1.5352 0.356285 0
M  V30 6164 C 573.255 -2.05236 -0.236983 0
M  V30 6165 C 573.663 -1.23016 -1.43749 0
M  V30 6166 O 573.006 -0.2615 -1.81829 0
M  V30 6167 C 573.068 -3.52549 -0.7035 0
M  V30 6168 C 572.732 -4.55425 0.379059 0
M  V30 6169 C 573.729 -5.0524 1.22592 0
M  V30 6170 C 571.414 -4.99425 0.536638 0
M  V30 6171 C 573.408 -5.97647 2.21578 0
M  V30 6172 C 571.095 -5.9164 1.52988 0
M  V30 6173 C 572.093 -6.4064 2.3679 0
M  V30 6174 O 571.781 -7.31039 3.34421 0
M  V30 6175 H 571.513 -0.674346 -0.047254 0
M  V30 6176 H 574.067 -1.98962 0.510238 0
M  V30 6177 H 572.297 -3.56331 -1.50217 0
M  V30 6178 H 573.986 -3.87171 -1.21873 0
M  V30 6179 H 574.752 -4.72002 1.11532 0
M  V30 6180 H 570.631 -4.60879 -0.105834 0
M  V30 6181 H 574.175 -6.35816 2.87025 0
M  V30 6182 H 570.072 -6.24293 1.64099 0
M  V30 6183 H 570.84 -7.49009 3.30041 0
M  V30 6184 N 573.503 -0.0852151 -1.57369 0
M  V30 6185 C 574.75 0.580806 -1.93992 0
M  V30 6186 C 575.078 1.68801 -0.966252 0
M  V30 6187 O 574.333 1.95694 0.0158649 0
M  V30 6188 C 574.632 1.18482 -3.3719 0
M  V30 6189 C 574.298 0.2024 -4.50446 0
M  V30 6190 C 572.96 -0.0678318 -4.81152 0
M  V30 6191 C 575.312 -0.46895 -5.19086 0
M  V30 6192 C 572.64 -1.01627 -5.77831 0
M  V30 6193 C 574.992 -1.4058 -6.16782 0
M  V30 6194 C 573.656 -1.68436 -6.45899 0
M  V30 6195 H 572.926 0.212532 -0.709867 0
M  V30 6196 H 575.573 -0.158947 -1.90839 0
M  V30 6197 H 573.878 2.0006 -3.36873 0
M  V30 6198 H 575.575 1.70767 -3.62822 0
M  V30 6199 H 572.165 0.423208 -4.26505 0
M  V30 6200 H 576.349 -0.273307 -4.95547 0
M  V30 6201 H 571.605 -1.2392 -5.9871 0
M  V30 6202 H 575.779 -1.93188 -6.69068 0
M  V30 6203 H 573.406 -2.42088 -7.20623 0
M  V30 6204 N 574.981 1.5647 0.188427 0
M  V30 6205 C 576.206 1.85486 0.927891 0
M  V30 6206 C 576.631 0.669575 1.75779 0
M  V30 6207 O 575.989 -0.381573 1.77239 0
M  V30 6208 C 576.037 3.12784 1.7944 0
M  V30 6209 O 575.141 2.93805 2.894 0
M  V30 6210 H 574.482 0.610585 0.260925 0
M  V30 6211 H 577.012 2.037 0.191729 0
M  V30 6212 H 577.022 3.43749 2.19774 0
M  V30 6213 H 575.697 3.98671 1.18468 0
M  V30 6214 H 574.274 2.74153 2.52774 0
M  V30 6215 N 576.459 -0.456382 1.50847 0
M  V30 6216 C 577.389 -1.56025 1.73719 0
M  V30 6217 C 578.37 -1.5967 0.586473 0
M  V30 6218 O 579.555 -1.75702 0.827185 0
M  V30 6219 C 576.685 -2.94251 1.84483 0
M  V30 6220 C 575.639 -3.05471 2.99786 0
M  V30 6221 C 574.965 -4.45489 2.95709 0
M  V30 6222 C 576.265 -2.81318 4.40065 0
M  V30 6223 H 577.959 -1.37138 2.66146 0
M  V30 6224 H 575.505 -0.658299 1.28072 0
M  V30 6225 H 577.458 -3.71417 1.99067 0
M  V30 6226 H 576.182 -3.14328 0.886891 0
M  V30 6227 H 574.841 -2.30741 2.84876 0
M  V30 6228 H 574.489 -4.62505 1.97732 0
M  V30 6229 H 574.189 -4.53929 3.73125 0
M  V30 6230 H 575.713 -5.24655 3.12362 0
M  V30 6231 H 577.127 -3.48226 4.55425 0
M  V30 6232 H 575.524 -3.01188 5.19043 0
M  V30 6233 H 576.594 -1.7706 4.51418 0
M  V30 6234 N 577.937 -1.40673 -0.710563 0
M  V30 6235 C 579.214 -1.29718 -1.46398 0
M  V30 6236 C 579.594 0.082177 -2.1094 0
M  V30 6237 O 578.942 1.09536 -2.00534 0
M  V30 6238 C 579.152 -2.43967 -2.49562 0
M  V30 6239 C 580.5 -2.84436 -3.15248 0
M  V30 6240 O 581.524 -2.43597 -2.59883 0
M  V30 6241 O 580.383 -3.55008 -4.1549 0
M  V30 6242 H 577.477 -0.509697 -0.651258 0
M  V30 6243 H 580.023 -1.52603 -0.742312 0
M  V30 6244 H 578.795 -3.36076 -2.0042 0
M  V30 6245 H 578.418 -2.22879 -3.29258 0
M  V30 6246 N 579.415 0.9433 -1.26252 0
M  V30 6247 C 580.378 2.02326 -1.07689 0
M  V30 6248 C 581.378 1.60779 -0.0259174 0
M  V30 6249 O 582.568 1.72108 -0.269134 0
M  V30 6250 C 579.7 3.34886 -0.63752 0
M  V30 6251 H 580.893 2.20225 -2.0357 0
M  V30 6252 H 578.446 1.12197 -1.08819 0
M  V30 6253 H 579.181 3.22684 0.323377 0
M  V30 6254 H 578.966 3.66393 -1.39637 0
M  V30 6255 H 580.456 4.14231 -0.529418 0
M  V30 6256 N 580.893 1.08022 1.14757 0
M  V30 6257 C 582.17 0.720386 1.81851 0
M  V30 6258 C 582.55 -0.796375 1.95502 0
M  V30 6259 O 581.898 -1.71339 1.51179 0
M  V30 6260 C 582.108 1.44273 3.17783 0
M  V30 6261 C 583.456 1.59925 3.93331 0
M  V30 6262 O 584.48 1.40407 3.2736 0
M  V30 6263 O 583.339 1.92096 5.11626 0
M  V30 6264 H 580.433 0.257142 0.786007 0
M  V30 6265 H 582.979 1.18155 1.21809 0
M  V30 6266 H 581.751 2.47618 3.02987 0
M  V30 6267 H 581.374 0.97279 3.85516 0
M  V30 6268 N 582.371 -1.3172 0.865308 0
M  V30 6269 C 583.334 -2.26918 0.322627 0
M  V30 6270 C 584.334 -1.52031 -0.523751 0
M  V30 6271 O 585.524 -1.70973 -0.333727 0
M  V30 6272 C 582.656 -3.36558 -0.542338 0
M  V30 6273 H 583.849 -2.76432 1.16298 0
M  V30 6274 H 581.402 -1.42573 0.640512 0
M  V30 6275 H 582.137 -2.92329 -1.40407 0
M  V30 6276 H 581.922 -3.92048 0.0636395 0
M  V30 6277 H 583.412 -4.07465 -0.91446 0
M  V30 6278 N 583.85 -0.624285 -1.44708 0
M  V30 6279 C 585.096 -0.126237 -2.02407 0
M  V30 6280 C 585.428 1.24618 -1.48943 0
M  V30 6281 O 584.704 1.82569 -0.670742 0
M  V30 6282 C 584.986 -0.105449 -3.59946 0
M  V30 6283 C 584.84 -1.50972 -4.23707 0
M  V30 6284 C 586.159 0.573629 -4.36346 0
M  V30 6285 H 583.278 -0.0473472 -0.735478 0
M  V30 6286 H 585.92 -0.799452 -1.72362 0
M  V30 6287 H 584.07 0.46783 -3.85673 0
M  V30 6288 H 585.742 -2.13136 -4.0911 0
M  V30 6289 H 583.985 -2.0656 -3.81465 0
M  V30 6290 H 584.656 -1.44727 -5.32689 0
M  V30 6291 H 587.132 0.0861787 -4.16011 0
M  V30 6292 H 586.008 0.557338 -5.46063 0
M  V30 6293 H 586.269 1.64276 -4.10446 0
M  V30 6294 N 585.328 1.53329 -0.364422 0
M  V30 6295 C 586.258 2.28627 0.474543 0
M  V30 6296 C 587.239 1.31009 1.08492 0
M  V30 6297 O 588.424 1.59878 1.10239 0
M  V30 6298 C 585.554 3.07465 1.61501 0
M  V30 6299 C 584.508 4.1276 1.13194 0
M  V30 6300 C 583.834 4.79674 2.36255 0
M  V30 6301 C 585.134 5.21847 0.217507 0
M  V30 6302 H 586.828 2.99005 -0.153656 0
M  V30 6303 H 584.374 1.43803 -0.0753406 0
M  V30 6304 H 586.327 3.58889 2.20855 0
M  V30 6305 H 585.051 2.34775 2.27042 0
M  V30 6306 H 583.71 3.62281 0.56109 0
M  V30 6307 H 583.358 4.03557 3.00251 0
M  V30 6308 H 583.058 5.50827 2.04606 0
M  V30 6309 H 584.582 5.33892 2.96297 0
M  V30 6310 H 585.996 5.6878 0.718493 0
M  V30 6311 H 584.393 6.00099 -0.00806408 0
M  V30 6312 H 585.463 4.7921 -0.740653 0
M  V30 6313 N 586.806 0.0935595 1.57322 0
M  V30 6314 C 588.034 -0.578934 1.98635 0
M  V30 6315 C 588.449 -1.61819 0.972626 0
M  V30 6316 O 587.806 -1.82461 -0.0379638 0
M  V30 6317 C 587.857 -1.22802 3.40003 0
M  V30 6318 O 587.578 -0.230334 4.37494 0
M  V30 6319 C 589.079 -1.98627 3.96311 0
M  V30 6320 H 586.299 -0.155324 0.652775 0
M  V30 6321 H 588.843 0.172393 2.03772 0
M  V30 6322 H 586.998 -1.93029 3.35885 0
M  V30 6323 H 587.412 -0.698649 5.19826 0
M  V30 6324 H 588.886 -2.39405 4.97382 0
M  V30 6325 H 589.363 -2.85151 3.34044 0
M  V30 6326 H 589.969 -1.3322 4.03897 0
M  V30 6327 N 588.284 -1.56567 -0.180126 0
M  V30 6328 C 589.232 -1.96632 -1.24251 0
M  V30 6329 C 590.226 -0.853818 -1.46309 0
M  V30 6330 O 591.432 -1.0389 -1.46993 0
M  V30 6331 H 587.807 -0.625476 -0.417473 0
M  V30 6332 H 589.778 -2.85201 -0.877679 0
M  V30 6333 C 588.527 -2.33486 -2.57642 0
M  V30 6334 H 587.85 -3.18626 -2.4149 0
M  V30 6335 H 589.29 -2.65371 -3.30688 0
M  V30 6336 C 587.749 -1.17499 -3.15746 0
M  V30 6337 O 588.279 -0.457956 -3.99081 0
M  V30 6338 N 586.485 -0.94786 -2.74707 0
M  V30 6339 H 586.032 -1.53269 -2.07042 0
M  V30 6340 H 585.99 -0.173626 -3.1392 0
M  V30 6341 N 589.762 0.448376 -1.51087 0
M  V30 6342 C 590.692 1.55102 -1.74544 0
M  V30 6343 C 591.673 1.59357 -0.594932 0
M  V30 6344 O 592.858 1.75261 -0.836491 0
M  V30 6345 C 589.988 2.93268 -1.86041 0
M  V30 6346 C 588.942 3.03877 -3.01402 0
M  V30 6347 C 588.268 4.43914 -2.98068 0
M  V30 6348 C 589.568 2.7898 -4.41551 0
M  V30 6349 H 591.262 1.35724 -2.66869 0
M  V30 6350 H 588.808 0.651498 -1.28419 0
M  V30 6351 H 590.761 3.70356 -2.01034 0
M  V30 6352 H 589.485 3.13853 -0.903548 0
M  V30 6353 H 588.144 2.29227 -2.86096 0
M  V30 6354 H 587.792 4.6145 -2.00182 0
M  V30 6355 H 587.492 4.51944 -3.75527 0
M  V30 6356 H 589.016 5.22991 -3.1514 0
M  V30 6357 H 590.43 3.45805 -4.57265 0
M  V30 6358 H 588.827 2.98431 -5.20633 0
M  V30 6359 H 589.897 1.74663 -4.5235 0
M  V30 6360 N 591.24 1.41047 0.703093 0
M  V30 6361 C 592.172 1.38228 1.82827 0
M  V30 6362 C 593.185 0.285637 1.60275 0
M  V30 6363 O 594.374 0.54685 1.69917 0
M  V30 6364 C 591.474 1.13136 3.19458 0
M  V30 6365 C 590.647 2.34695 3.69103 0
M  V30 6366 C 589.706 2.05574 4.84382 0
M  V30 6367 O 588.732 2.78549 4.96386 0
M  V30 6368 N 589.934 1.04135 5.71083 0
M  V30 6369 H 592.699 2.35203 1.85741 0
M  V30 6370 H 590.26 1.35562 0.885125 0
M  V30 6371 H 592.252 0.916183 3.94193 0
M  V30 6372 H 590.822 0.247836 3.11616 0
M  V30 6373 H 590.042 2.71963 2.85359 0
M  V30 6374 H 591.33 3.15705 3.99009 0
M  V30 6375 H 590.728 0.43722 5.64008 0
M  V30 6376 H 589.285 0.886078 6.45749 0
M  V30 6377 N 592.718 -0.936591 1.26751 0
M  V30 6378 C 593.946 -1.71758 1.15355 0
M  V30 6379 C 594.361 -1.86549 -0.290683 0
M  V30 6380 O 593.718 -1.37616 -1.19868 0
M  V30 6381 C 593.769 -3.12193 1.82258 0
M  V30 6382 O 593.49 -2.98105 3.21038 0
M  V30 6383 C 594.991 -4.06485 1.76875 0
M  V30 6384 H 592.211 -0.537636 0.401483 0
M  V30 6385 H 594.755 -1.17382 1.67457 0
M  V30 6386 H 592.91 -3.63456 1.34083 0
M  V30 6387 H 593.324 -3.86824 3.54214 0
M  V30 6388 H 594.798 -5.02569 2.28316 0
M  V30 6389 H 595.275 -4.32986 0.736216 0
M  V30 6390 H 595.881 -3.61144 2.24623 0
M  V30 6391 N 594.196 -1.08629 -1.14182 0
M  V30 6392 C 595.126 -0.740003 -2.21464 0
M  V30 6393 C 596.107 0.278591 -1.67803 0
M  V30 6394 O 597.292 0.148461 -1.93632 0
M  V30 6395 C 594.422 -0.150952 -3.46972 0
M  V30 6396 C 593.376 -1.09815 -4.13672 0
M  V30 6397 C 592.702 -0.3712 -5.3341 0
M  V30 6398 C 594.002 -2.43722 -4.61949 0
M  V30 6399 H 595.696 -1.63697 -2.50686 0
M  V30 6400 H 593.242 -0.788526 -1.20492 0
M  V30 6401 H 595.195 0.103325 -4.21273 0
M  V30 6402 H 593.919 0.781164 -3.1712 0
M  V30 6403 H 592.578 -1.33756 -3.41328 0
M  V30 6404 H 592.226 0.564792 -4.99819 0
M  V30 6405 H 591.926 -1.00267 -5.78982 0
M  V30 6406 H 593.45 -0.12503 -6.10472 0
M  V30 6407 H 594.864 -2.24034 -5.27714 0
M  V30 6408 H 593.261 -3.02582 -5.18232 0
M  V30 6409 H 594.331 -3.05082 -3.76899 0
M  V30 6410 N 595.674 1.31259 -0.872281 0
M  V30 6411 C 597.09 1.49283 -0.564521 0
M  V30 6412 C 597.29 1.80243 0.900807 0
M  V30 6413 O 596.346 1.88246 1.68284 0
M  V30 6414 C 597.659 2.62503 -1.46673 0
M  V30 6415 C 599.207 2.76386 -1.46901 0
M  V30 6416 C 599.682 3.92705 -2.35684 0
M  V30 6417 N 601.173 3.99995 -2.33577 0
M  V30 6418 C 601.908 4.89276 -2.98992 0
M  V30 6419 N 601.404 5.83443 -3.73585 0
M  V30 6420 N 603.197 4.82541 -2.88289 0
M  V30 6421 H 595.348 1.09432 -1.82039 0
M  V30 6422 H 597.611 0.540949 -0.77851 0
M  V30 6423 H 597.317 2.46407 -2.50951 0
M  V30 6424 H 597.191 3.58695 -1.16696 0
M  V30 6425 H 599.578 2.91894 -0.433796 0
M  V30 6426 H 599.659 1.80853 -1.80903 0
M  V30 6427 H 599.303 3.77954 -3.39283 0
M  V30 6428 H 599.233 4.87549 -1.99006 0
M  V30 6429 H 601.724 3.32624 -1.7936 0
M  V30 6430 H 602.037 6.48303 -4.20622 0
M  V30 6431 H 600.382 5.83415 -3.77694 0
M  V30 6432 H 603.573 4.07951 -2.2955 0
M  V30 6433 H 603.746 5.51916 -3.39549 0
M  V30 6434 N 597.152 0.631951 1.44375 0
M  V30 6435 C 598.401 0.134214 2.01253 0
M  V30 6436 C 598.714 -1.25171 1.50305 0
M  V30 6437 O 599.92 -1.8435 1.99317 0
M  V30 6438 C 598.376 0.189187 3.59402 0
M  V30 6439 C 597.984 1.57647 4.19346 0
M  V30 6440 C 599.728 -0.252044 4.23751 0
M  V30 6441 C 597.635 1.58651 5.69722 0
M  V30 6442 H 596.565 0.0464101 0.75257 0
M  V30 6443 H 599.216 0.790868 1.65582 0
M  V30 6444 H 597.598 -0.534584 3.92375 0
M  V30 6445 H 598.772 2.32389 3.97909 0
M  V30 6446 H 597.087 1.96186 3.67288 0
M  V30 6447 H 599.684 -0.264084 5.34047 0
M  V30 6448 H 600.027 -1.27951 3.96149 0
M  V30 6449 H 600.56 0.41926 3.95584 0
M  V30 6450 H 597.299 2.59237 6.0206 0
M  V30 6451 H 596.819 0.882039 5.93279 0
M  V30 6452 H 598.498 1.32082 6.33375 0
M  V30 6453 N 598.631 -1.53133 0.372548 0
M  V30 6454 C 599.561 -2.28876 -0.462412 0
M  V30 6455 C 600.542 -1.31583 -1.07796 0
M  V30 6456 O 601.727 -1.60461 -1.09389 0
M  V30 6457 C 598.857 -3.08317 -1.59868 0
M  V30 6458 C 597.811 -4.13355 -1.11003 0
M  V30 6459 C 597.137 -4.8092 -2.33708 0
M  V30 6460 C 598.437 -5.21955 -0.18983 0
M  V30 6461 H 600.131 -2.9892 0.169511 0
M  V30 6462 H 597.677 -1.43761 0.0829658 0
M  V30 6463 H 599.63 -3.60055 -2.18949 0
M  V30 6464 H 598.354 -2.35976 -2.25794 0
M  V30 6465 H 597.013 -3.62573 -0.541869 0
M  V30 6466 H 596.661 -4.05144 -2.98106 0
M  V30 6467 H 596.361 -5.51904 -2.01682 0
M  V30 6468 H 597.885 -5.35455 -2.93462 0
M  V30 6469 H 599.299 -5.69153 -0.688319 0
M  V30 6470 H 597.696 -6.00087 0.0398887 0
M  V30 6471 H 598.766 -4.78811 0.766057 0
M  V30 6472 N 600.109 -0.101901 -1.5727 0
M  V30 6473 C 601.358 0.559922 -1.93772 0
M  V30 6474 C 601.671 1.68913 -0.98629 0
M  V30 6475 O 602.877 2.41256 -1.24529 0
M  V30 6476 C 601.333 1.04739 -3.44322 0
M  V30 6477 C 600.941 -0.05243 -4.47969 0
M  V30 6478 C 602.685 1.68157 -3.89774 0
M  V30 6479 C 600.592 0.450781 -5.8968 0
M  V30 6480 H 599.522 0.212931 -0.723309 0
M  V30 6481 H 602.173 -0.179001 -1.82625 0
M  V30 6482 H 600.555 1.84021 -3.50645 0
M  V30 6483 H 601.729 -0.828157 -4.53297 0
M  V30 6484 H 600.044 -0.592202 -4.12167 0
M  V30 6485 H 602.641 2.0689 -4.93052 0
M  V30 6486 H 602.984 2.55338 -3.28798 0
M  V30 6487 H 603.517 0.954453 -3.8618 0
M  V30 6488 H 600.256 -0.38458 -6.54371 0
M  V30 6489 H 599.776 1.19336 -5.87809 0
M  V30 6490 H 601.455 0.917555 -6.40461 0
M  V30 6491 N 601.587 1.56661 0.17182 0
M  V30 6492 C 602.497 1.99604 1.2327 0
M  V30 6493 C 603.513 0.907333 1.4847 0
M  V30 6494 O 604.689 1.21492 1.60629 0
M  V30 6495 C 601.754 2.34685 2.55194 0
M  V30 6496 C 600.815 3.57381 2.3786 0
M  V30 6497 C 600.048 3.90779 3.63494 0
M  V30 6498 O 600.271 3.25152 4.6865 0
M  V30 6499 O 599.205 4.84129 3.57634 0
M  V30 6500 H 603.031 2.90114 0.898192 0
M  V30 6501 H 600.616 1.44522 0.378647 0
M  V30 6502 H 602.498 2.5822 3.33017 0
M  V30 6503 H 601.173 1.47336 2.88225 0
M  V30 6504 H 600.08 3.39064 1.5807 0
M  V30 6505 H 601.413 4.45268 2.09754 0
M  V30 6506 N 603.065 -0.440357 1.51323 0
M  V30 6507 C 603.975 -1.55955 1.75258 0
M  V30 6508 C 604.991 -1.61933 0.636687 0
M  V30 6509 O 606.167 -1.79231 0.918593 0
M  V30 6510 C 603.232 -2.9196 1.86977 0
M  V30 6511 C 602.293 -2.96122 3.10822 0
M  V30 6512 C 601.526 -4.2564 3.21973 0
M  V30 6513 O 601.749 -5.17851 2.39137 0
M  V30 6514 O 600.683 -4.36025 4.14929 0
M  V30 6515 H 604.509 -1.38673 2.70191 0
M  V30 6516 H 602.094 -0.623055 1.35788 0
M  V30 6517 H 603.976 -3.72682 1.96688 0
M  V30 6518 H 602.651 -3.09375 0.952307 0
M  V30 6519 H 601.558 -2.14366 3.06591 0
M  V30 6520 H 602.891 -2.83651 4.02247 0
M  V30 6521 N 604.543 -1.41418 -0.695603 0
M  V30 6522 C 605.491 -1.43467 -1.83084 0
M  V30 6523 C 606.485 -0.312719 -1.66489 0
M  V30 6524 O 607.691 -0.484744 -1.7335 0
M  V30 6525 H 604.066 -0.448891 -0.603325 0
M  V30 6526 H 606.037 -2.39144 -1.78473 0
M  V30 6527 C 604.786 -1.3337 -3.21104 0
M  V30 6528 H 604.109 -2.18989 -3.3449 0
M  V30 6529 H 605.549 -1.38865 -4.00615 0
M  V30 6530 C 604.008 -0.0460484 -3.36869 0
M  V30 6531 O 604.538 0.909258 -3.91274 0
M  V30 6532 N 602.744 0.0300222 -2.90584 0
M  V30 6533 H 602.291 -0.748129 -2.46497 0
M  V30 6534 H 602.249 0.890991 -3.01511 0
M  V30 6535 N 606.021 0.929856 -1.27246 0
M  V30 6536 C 607.437 1.20542 -1.04603 0
M  V30 6537 C 607.637 2.00276 0.221754 0
M  V30 6538 O 606.693 2.34835 0.927833 0
M  V30 6539 C 608.006 1.95566 -2.28417 0
M  V30 6540 C 609.554 2.08513 -2.33433 0
M  V30 6541 C 610.029 2.86943 -3.5697 0
M  V30 6542 N 611.52 2.94512 -3.57515 0
M  V30 6543 C 612.255 3.55656 -4.49774 0
M  V30 6544 N 611.751 4.18209 -5.52334 0
M  V30 6545 N 613.544 3.53038 -4.37402 0
M  V30 6546 H 605.695 0.397113 -2.08655 0
M  V30 6547 H 607.958 0.238277 -0.917566 0
M  V30 6548 H 607.664 1.44395 -3.20691 0
M  V30 6549 H 607.538 2.9619 -2.33563 0
M  V30 6550 H 609.925 2.58872 -1.41666 0
M  V30 6551 H 610.006 1.07117 -2.32292 0
M  V30 6552 H 609.65 2.37268 -4.49072 0
M  V30 6553 H 609.58 3.8862 -3.55362 0
M  V30 6554 H 612.071 2.50053 -2.83341 0
M  V30 6555 H 612.384 4.62796 -6.18902 0
M  V30 6556 H 610.729 4.16761 -5.56179 0
M  V30 6557 H 613.92 3.0337 -3.56489 0
M  V30 6558 H 614.093 4.004 -5.09493 0
M  V30 6559 N 607.499 1.09233 1.13605 0
M  V30 6560 C 608.446 0.729921 2.18954 0
M  V30 6561 C 609.416 -0.287916 1.63586 0
M  V30 6562 O 610.601 -0.170003 1.90041 0
M  V30 6563 C 607.741 0.154489 3.44754 0
M  V30 6564 C 606.854 1.22613 4.14234 0
M  V30 6565 C 605.989 0.613657 5.27644 0
M  V30 6566 C 605.028 1.66674 5.8897 0
M  V30 6567 N 604.165 1.07545 6.93814 0
M  V30 6568 H 609.005 1.63257 2.49302 0
M  V30 6569 H 606.542 0.815693 1.22413 0
M  V30 6570 H 608.5 -0.196923 4.16735 0
M  V30 6571 H 607.13 -0.711433 3.14863 0
M  V30 6572 H 606.182 1.69485 3.40557 0
M  V30 6573 H 607.494 2.0238 4.55899 0
M  V30 6574 H 606.648 0.210976 6.06333 0
M  V30 6575 H 605.387 -0.215584 4.87223 0
M  V30 6576 H 604.392 2.07899 5.08978 0
M  V30 6577 H 605.617 2.49861 6.31464 0
M  V30 6578 H 603.563 0.267451 6.55455 0
M  V30 6579 H 603.48 1.81011 7.3401 0
M  V30 6580 H 604.748 0.698906 7.7636 0
M  V30 6581 N 608.977 -1.30795 0.87923 0
M  V30 6582 C 610.223 -1.96653 0.495519 0
M  V30 6583 C 610.556 -1.69282 -0.951703 0
M  V30 6584 O 609.831 -0.994374 -1.6716 0
M  V30 6585 C 610.114 -3.51898 0.764174 0
M  V30 6586 C 609.967 -3.88808 2.2616 0
M  V30 6587 C 611.286 -4.39462 0.236825 0
M  V30 6588 H 608.405 -0.7143 0.181507 0
M  V30 6589 H 611.047 -1.54765 1.10217 0
M  V30 6590 H 609.197 -3.87709 0.247841 0
M  V30 6591 H 610.869 -3.63051 2.8459 0
M  V30 6592 H 609.112 -3.37082 2.73053 0
M  V30 6593 H 609.783 -4.97086 2.4002 0
M  V30 6594 H 612.259 -4.10528 0.678683 0
M  V30 6595 H 611.135 -5.47018 0.454176 0
M  V30 6596 H 611.396 -4.33621 -0.861683 0
M  V30 6597 N 610.455 -0.639598 -1.44038 0
M  V30 6598 C 611.704 -0.144885 -2.01179 0
M  V30 6599 C 612.017 1.24372 -1.50967 0
M  V30 6600 O 613.223 1.83291 -2.00292 0
M  V30 6601 C 611.679 -0.208244 -3.59297 0
M  V30 6602 C 611.287 -1.59869 -4.18504 0
M  V30 6603 C 613.031 0.229568 -4.23879 0
M  V30 6604 C 610.938 -1.61671 -5.68873 0
M  V30 6605 H 609.868 -0.0504005 -0.752314 0
M  V30 6606 H 612.519 -0.799639 -1.65161 0
M  V30 6607 H 610.901 0.513767 -3.92653 0
M  V30 6608 H 612.075 -2.34496 -3.96671 0
M  V30 6609 H 610.39 -1.98131 -3.66242 0
M  V30 6610 H 612.987 0.235758 -5.3418 0
M  V30 6611 H 613.33 1.25848 -3.96822 0
M  V30 6612 H 613.863 -0.440233 -3.95357 0
M  V30 6613 H 610.602 -2.62427 -6.00677 0
M  V30 6614 H 610.122 -0.913489 -5.92803 0
M  V30 6615 H 611.801 -1.35439 -6.32665 0
M  V30 6616 N 611.933 1.52934 -0.380664 0
M  V30 6617 C 612.896 2.24809 0.446473 0
M  V30 6618 C 613.896 1.26133 0.997347 0
M  V30 6619 O 615.086 1.50297 0.880714 0
M  V30 6620 C 612.218 2.99649 1.62553 0
M  V30 6621 H 613.411 2.99343 -0.182677 0
M  V30 6622 H 610.964 1.55736 -0.132618 0
M  V30 6623 H 611.699 2.29395 2.29235 0
M  V30 6624 H 611.484 3.72066 1.23732 0
M  V30 6625 H 612.974 3.54246 2.21133 0
M  V30 6626 N 613.412 0.11024 1.57214 0
M  V30 6627 C 614.823 -0.416527 1.81994 0
M  V30 6628 C 615.174 -1.67183 1.02686 0
M  V30 6629 O 614.299 -2.14823 0.260782 0
M  V30 6630 C 614.894 -0.762466 3.30109 0
M  V30 6631 C 613.453 -1.23391 3.556 0
M  V30 6632 C 612.6 -0.238166 2.76275 0
M  V30 6633 H 615.551 0.335491 1.55113 0
M  V30 6634 H 615.572 -1.62068 3.44259 0
M  V30 6635 H 615.084 0.151346 3.87805 0
M  V30 6636 H 613.185 -2.16492 3.03253 0
M  V30 6637 H 613.298 -1.18528 4.64207 0
M  V30 6638 H 611.662 -0.723421 2.4421 0
M  V30 6639 H 612.445 0.668591 3.36727 0
M  V30 6640 N 614.89 -1.56749 -0.16351 0
M  V30 6641 C 615.823 -1.9213 -1.23132 0
M  V30 6642 C 616.801 -0.785047 -1.42393 0
M  V30 6643 O 617.985 -1.0391 -1.57273 0
M  V30 6644 C 615.112 -2.17901 -2.59301 0
M  V30 6645 C 614.158 -3.40576 -2.5673 0
M  V30 6646 S 614.991 -4.94689 -2.05045 0
M  V30 6647 C 616.147 -5.23564 -3.42975 0
M  V30 6648 H 616.38 -2.824 -0.929383 0
M  V30 6649 H 613.913 -1.4994 -0.368418 0
M  V30 6650 H 615.871 -2.33429 -3.3767 0
M  V30 6651 H 614.532 -1.28324 -2.86691 0
M  V30 6652 H 613.725 -3.55833 -3.5693 0
M  V30 6653 H 613.327 -3.24204 -1.86462 0
M  V30 6654 H 615.619 -5.16019 -4.3901 0
M  V30 6655 H 616.562 -6.25134 -3.32586 0
M  V30 6656 H 616.97 -4.51113 -3.39348 0
M  V30 6657 N 616.368 0.432326 -1.51554 0
M  V30 6658 C 617.298 1.53242 -1.76179 0
M  V30 6659 C 618.279 1.58717 -0.611801 0
M  V30 6660 O 619.464 1.74364 -0.855033 0
M  V30 6661 C 616.594 2.91278 -1.89141 0
M  V30 6662 C 615.548 3.00663 -3.04608 0
M  V30 6663 C 614.874 4.40728 -3.02759 0
M  V30 6664 C 616.174 2.74281 -4.44485 0
M  V30 6665 H 617.868 1.32886 -2.68294 0
M  V30 6666 H 615.414 0.637841 -1.29103 0
M  V30 6667 H 617.367 3.68203 -2.04951 0
M  V30 6668 H 616.091 3.12877 -0.936785 0
M  V30 6669 H 614.75 2.26179 -2.88511 0
M  V30 6670 H 614.398 4.59301 -2.05065 0
M  V30 6671 H 614.098 4.47936 -3.80299 0
M  V30 6672 H 615.622 5.19619 -3.20669 0
M  V30 6673 H 617.036 3.40936 -4.60907 0
M  V30 6674 H 615.433 2.92893 -5.23769 0
M  V30 6675 H 616.503 1.69856 -4.54177 0
M  V30 6676 N 617.846 1.41785 0.688094 0
M  V30 6677 C 619.071 1.45117 1.48175 0
M  V30 6678 C 619.496 0.060129 1.88004 0
M  V30 6679 O 618.854 -0.938385 1.55126 0
M  V30 6680 C 618.902 2.37224 2.71583 0
M  V30 6681 O 618.006 1.83443 3.69354 0
M  V30 6682 H 617.347 0.492208 0.445676 0
M  V30 6683 H 619.877 1.86329 0.845145 0
M  V30 6684 H 619.887 2.53353 3.19806 0
M  V30 6685 H 618.562 3.38293 2.41931 0
M  V30 6686 H 617.139 1.76802 3.28322 0
M  V30 6687 N 619.324 -0.923095 1.27737 0
M  V30 6688 C 620.74 -1.19985 1.05241 0
M  V30 6689 C 620.94 -2.00391 -0.21113 0
M  V30 6690 O 619.996 -2.35324 -0.915366 0
M  V30 6691 C 621.309 -1.94352 2.29451 0
M  V30 6692 C 622.857 -2.07273 2.34536 0
M  V30 6693 C 623.332 -2.85046 3.58487 0
M  V30 6694 N 624.823 -2.92612 3.59072 0
M  V30 6695 C 625.558 -3.53266 4.51654 0
M  V30 6696 N 625.054 -4.15274 5.54545 0
M  V30 6697 N 626.847 -3.50714 4.39268 0
M  V30 6698 H 618.998 -0.386042 2.08862 0
M  V30 6699 H 621.261 -0.233407 0.918817 0
M  V30 6700 H 620.967 -1.42692 3.21453 0
M  V30 6701 H 620.841 -2.94947 2.3513 0
M  V30 6702 H 623.228 -2.58117 1.43037 0
M  V30 6703 H 623.309 -1.05884 2.32857 0
M  V30 6704 H 622.953 -2.34884 4.50324 0
M  V30 6705 H 622.883 -3.8673 3.57418 0
M  V30 6706 H 625.374 -2.48547 2.84663 0
M  V30 6707 H 625.687 -4.59507 6.21348 0
M  V30 6708 H 624.032 -4.13806 5.58382 0
M  V30 6709 H 627.223 -3.01475 3.58093 0
M  V30 6710 H 627.396 -3.97693 5.1161 0
M  V30 6711 N 620.802 -1.09834 -1.13024 0
M  V30 6712 C 621.752 -0.710899 -2.16634 0
M  V30 6713 C 622.736 0.276836 -1.58501 0
M  V30 6714 O 623.928 0.0865457 -1.76788 0
M  V30 6715 C 621.057 -0.137574 -3.43024 0
M  V30 6716 C 620.143 -1.15198 -4.08155 0
M  V30 6717 N 620.534 -2.34054 -4.48388 0
M  V30 6718 C 618.832 -0.991074 -4.34849 0
M  V30 6719 C 619.533 -2.98616 -4.99203 0
M  V30 6720 N 618.509 -2.26159 -4.94321 0
M  V30 6721 H 622.311 -1.61576 -2.455 0
M  V30 6722 H 619.825 -0.975158 -1.29863 0
M  V30 6723 H 621.822 0.158031 -4.166 0
M  V30 6724 H 620.482 0.762088 -3.1563 0
M  V30 6725 H 621.493 -2.7162 -4.40957 0
M  V30 6726 H 618.17 -0.146448 -4.17243 0
M  V30 6727 H 619.56 -3.99683 -5.40096 0
M  V30 6728 N 622.28 1.30327 -0.886154 0
M  V30 6729 C 623.528 1.9571 -0.504195 0
M  V30 6730 C 623.849 1.70294 0.950003 0
M  V30 6731 O 623.119 1.02718 1.66811 0
M  V30 6732 H 621.699 0.72412 -0.183465 0
M  V30 6733 H 624.361 1.58835 -1.12949 0
M  V30 6734 H 623.457 3.04704 -0.675431 0
M  V30 6735 N 623.758 0.647228 1.43697 0
M  V30 6736 C 624.705 -0.0480092 2.3075 0
M  V30 6737 C 625.675 -0.820705 1.44408 0
M  V30 6738 O 626.86 -0.798515 1.73287 0
M  V30 6739 C 624 -1.01259 3.2991 0
M  V30 6740 C 623.113 -0.236629 4.31351 0
M  V30 6741 C 622.248 -1.19447 5.17596 0
M  V30 6742 C 621.287 -0.408595 6.10735 0
M  V30 6743 N 620.424 -1.31772 6.89623 0
M  V30 6744 H 625.264 0.700238 2.89656 0
M  V30 6745 H 622.801 0.357082 1.427 0
M  V30 6746 H 624.759 -1.58538 3.85903 0
M  V30 6747 H 623.389 -1.72778 2.72667 0
M  V30 6748 H 622.441 0.452353 3.77701 0
M  V30 6749 H 623.753 0.374731 4.9739 0
M  V30 6750 H 622.907 -1.83809 5.78186 0
M  V30 6751 H 621.646 -1.83975 4.51669 0
M  V30 6752 H 620.651 0.24841 5.49239 0
M  V30 6753 H 621.876 0.232188 6.78703 0
M  V30 6754 H 619.822 -1.94991 6.2635 0
M  V30 6755 H 619.739 -0.760779 7.52162 0
M  V30 6756 H 621.007 -1.94967 7.54724 0
M  V30 6757 N 625.236 -1.5273 0.388769 0
M  V30 6758 C 626.166 -2.29353 -0.438111 0
M  V30 6759 C 627.147 -1.32719 -1.06394 0
M  V30 6760 O 628.332 -1.61612 -1.07681 0
M  V30 6761 C 625.462 -3.09995 -1.56589 0
M  V30 6762 C 624.416 -4.14509 -1.06613 0
M  V30 6763 C 623.742 -4.83372 -2.28594 0
M  V30 6764 C 625.042 -5.22127 -0.134459 0
M  V30 6765 H 626.736 -2.98723 0.201206 0
M  V30 6766 H 624.282 -1.43665 0.0982089 0
M  V30 6767 H 626.235 -3.62357 -2.15118 0
M  V30 6768 H 624.959 -2.38357 -2.23279 0
M  V30 6769 H 623.618 -3.63128 -0.503383 0
M  V30 6770 H 623.266 -4.08283 -2.93792 0
M  V30 6771 H 622.966 -5.54012 -1.95817 0
M  V30 6772 H 624.49 -5.38538 -2.87766 0
M  V30 6773 H 625.904 -5.69851 -0.627914 0
M  V30 6774 H 624.301 -6.00011 0.103534 0
M  V30 6775 H 625.371 -4.77971 0.816798 0
M  V30 6776 N 626.714 -0.118576 -1.57153 0
M  V30 6777 C 627.96 0.534078 -1.96263 0
M  V30 6778 C 628.315 1.64316 -1.0009 0
M  V30 6779 O 627.608 1.91575 -0.0308582 0
M  V30 6780 C 627.802 1.11303 -3.39627 0
M  V30 6781 C 627.631 0.0615624 -4.49658 0
M  V30 6782 C 626.401 -0.370103 -5.03943 0
M  V30 6783 C 628.599 -0.719249 -5.09246 0
M  V30 6784 N 626.581 -1.40738 -5.9755 0
M  V30 6785 C 627.952 -1.60774 -5.98792 0
M  V30 6786 C 630.007 -0.770183 -4.91907 0
M  V30 6787 C 628.71 -2.54272 -6.72858 0
M  V30 6788 C 630.736 -1.69288 -5.66653 0
M  V30 6789 C 630.098 -2.56894 -6.55885 0
M  V30 6790 H 626.197 0.165072 -0.764379 0
M  V30 6791 H 628.781 -0.206596 -1.93601 0
M  V30 6792 H 626.952 1.82342 -3.42937 0
M  V30 6793 H 628.684 1.72996 -3.65861 0
M  V30 6794 H 625.439 0.0222121 -4.73595 0
M  V30 6795 H 625.863 -1.92493 -6.49057 0
M  V30 6796 H 630.505 -0.106999 -4.22665 0
M  V30 6797 H 628.223 -3.21605 -7.41347 0
M  V30 6798 H 631.809 -1.73772 -5.55243 0
M  V30 6799 H 630.689 -3.27131 -7.1271 0
M  V30 6800 N 628.193 1.56834 0.155195 0
M  V30 6801 C 629.418 1.87412 0.888337 0
M  V30 6802 C 629.843 0.70671 1.74319 0
M  V30 6803 O 629.201 -0.343892 1.78009 0
M  V30 6804 C 629.249 3.1652 1.72765 0
M  V30 6805 O 628.353 2.99877 2.83103 0
M  V30 6806 H 627.694 0.615983 0.247914 0
M  V30 6807 H 630.224 2.04061 0.148478 0
M  V30 6808 H 630.234 3.48334 2.12433 0
M  V30 6809 H 628.909 4.01094 1.09985 0
M  V30 6810 H 627.486 2.79453 2.46902 0
M  V30 6811 N 629.671 -0.424282 1.51781 0
M  V30 6812 C 630.619 -1.53649 1.74628 0
M  V30 6813 C 631.613 -1.57923 0.612922 0
M  V30 6814 O 632.819 -1.61511 0.794618 0
M  V30 6815 H 629.194 -0.510706 0.551981 0
M  V30 6816 H 631.165 -1.31558 2.67834 0
M  V30 6817 C 629.914 -2.91177 1.9003 0
M  V30 6818 H 629.237 -2.88625 2.76651 0
M  V30 6819 H 630.677 -3.6833 2.10021 0
M  V30 6820 C 629.136 -3.30303 0.663435 0
M  V30 6821 O 629.666 -4.01315 -0.175812 0
M  V30 6822 N 627.872 -2.86201 0.503723 0
M  V30 6823 H 627.419 -2.28583 1.18776 0
M  V30 6824 H 627.377 -3.12741 -0.322575 0
M  V30 6825 N 631.149 -1.42148 -0.680565 0
M  V30 6826 C 632.396 -1.4231 -1.44063 0
M  V30 6827 C 632.724 -0.037488 -1.94464 0
M  V30 6828 O 631.979 0.953184 -1.70918 0
M  V30 6829 C 632.278 -2.38945 -2.65782 0
M  V30 6830 C 631.944 -3.85455 -2.33956 0
M  V30 6831 C 630.606 -4.25364 -2.24987 0
M  V30 6832 C 632.958 -4.77895 -2.08004 0
M  V30 6833 C 630.286 -5.55701 -1.88184 0
M  V30 6834 C 632.638 -6.08568 -1.72706 0
M  V30 6835 C 631.302 -6.47482 -1.62244 0
M  V30 6836 H 630.572 -0.520748 -0.527164 0
M  V30 6837 H 633.219 -1.7505 -0.776524 0
M  V30 6838 H 631.524 -1.99511 -3.37198 0
M  V30 6839 H 633.221 -2.36336 -3.23954 0
M  V30 6840 H 629.811 -3.53855 -2.41836 0
M  V30 6841 H 633.995 -4.47854 -2.1387 0
M  V30 6842 H 629.251 -5.84718 -1.78648 0
M  V30 6843 H 633.425 -6.79688 -1.5165 0
M  V30 6844 H 631.052 -7.48387 -1.33496 0
M  V30 6845 N 632.627 0.916307 -1.28225 0
M  V30 6846 C 633.873 1.66794 -1.1641 0
M  V30 6847 C 634.228 1.90278 0.284986 0
M  V30 6848 O 633.521 1.49023 1.20427 0
M  V30 6849 C 633.715 3.03125 -1.8934 0
M  V30 6850 C 633.544 2.92947 -3.41192 0
M  V30 6851 C 632.314 2.9461 -4.10528 0
M  V30 6852 C 634.512 2.7121 -4.36978 0
M  V30 6853 N 632.494 2.74993 -5.48864 0
M  V30 6854 C 633.865 2.60411 -5.6266 0
M  V30 6855 C 635.92 2.56187 -4.26934 0
M  V30 6856 C 634.623 2.3612 -6.79441 0
M  V30 6857 C 636.649 2.33275 -5.43449 0
M  V30 6858 C 636.011 2.23228 -6.68093 0
M  V30 6859 H 632.11 0.616654 -0.480896 0
M  V30 6860 H 634.694 1.08237 -1.61842 0
M  V30 6861 H 632.865 3.59774 -1.46346 0
M  V30 6862 H 634.597 3.67294 -1.69932 0
M  V30 6863 H 631.352 3.0527 -3.62087 0
M  V30 6864 H 631.776 2.68284 -6.21573 0
M  V30 6865 H 636.418 2.62707 -3.31278 0
M  V30 6866 H 634.136 2.28339 -7.75169 0
M  V30 6867 H 637.722 2.22519 -5.37565 0
M  V30 6868 H 636.602 2.05741 -7.5673 0
M  V30 6869 N 634.105 1.10431 1.1244 0
M  V30 6870 C 635.353 0.845045 1.83585 0
M  V30 6871 C 635.674 -0.631168 1.84503 0
M  V30 6872 O 634.944 -1.45825 1.30813 0
M  V30 6873 H 633.524 0.309628 0.679809 0
M  V30 6874 H 636.186 1.39458 1.36153 0
M  V30 6875 H 635.282 1.20786 2.8778 0
M  V30 6876 N 635.583 -1.29855 0.893053 0
M  V30 6877 C 636.546 -2.26183 0.370687 0
M  V30 6878 C 637.546 -1.53108 -0.491385 0
M  V30 6879 O 638.736 -1.71643 -0.297386 0
M  V30 6880 C 635.868 -3.37633 -0.470827 0
M  V30 6881 H 637.061 -2.73903 1.22135 0
M  V30 6882 H 634.614 -1.41183 0.67061 0
M  V30 6883 H 635.349 -2.95241 -1.34175 0
M  V30 6884 H 635.134 -3.91825 0.146784 0
M  V30 6885 H 636.624 -4.09313 -0.827825 0
M  V30 6886 N 637.061 -0.65484 -1.43351 0
M  V30 6887 C 637.991 0.0221809 -2.33489 0
M  V30 6888 C 638.972 0.810272 -1.49561 0
M  V30 6889 O 640.157 0.771426 -1.78221 0
M  V30 6890 C 637.287 0.988117 -3.32947 0
M  V30 6891 C 636.241 0.310026 -4.26876 0
M  V30 6892 C 635.567 1.38752 -5.16384 0
M  V30 6893 C 636.867 -0.798589 -5.16159 0
M  V30 6894 H 638.561 -0.730571 -2.9035 0
M  V30 6895 H 636.107 -0.352773 -1.39612 0
M  V30 6896 H 638.06 1.47067 -3.94904 0
M  V30 6897 H 636.784 1.77205 -2.74346 0
M  V30 6898 H 635.443 -0.152097 -3.66284 0
M  V30 6899 H 635.091 2.16293 -4.54121 0
M  V30 6900 H 634.791 0.939051 -5.80048 0
M  V30 6901 H 636.315 1.87141 -5.81215 0
M  V30 6902 H 637.729 -0.398126 -5.71916 0
M  V30 6903 H 636.126 -1.17163 -5.88552 0
M  V30 6904 H 637.196 -1.65588 -4.55751 0
M  V30 6905 N 638.539 1.52521 -0.396863 0
M  V30 6906 C 639.764 2.06571 0.185258 0
M  V30 6907 C 640.189 1.26605 1.39115 0
M  V30 6908 O 639.547 0.293055 1.78916 0
M  V30 6909 C 639.595 3.5674 0.526189 0
M  V30 6910 O 638.699 3.7929 1.61903 0
M  V30 6911 H 638.04 0.663712 0.0195474 0
M  V30 6912 H 640.57 1.966 -0.566519 0
M  V30 6913 H 640.58 4.00311 0.788338 0
M  V30 6914 H 639.255 4.14379 -0.355397 0
M  V30 6915 H 637.832 3.47605 1.35 0
M  V30 6916 N 640.017 0.126909 1.57088 0
M  V30 6917 C 641.428 -0.397201 1.82426 0
M  V30 6918 C 641.779 -1.66084 1.04453 0
M  V30 6919 O 640.904 -2.14534 0.283552 0
M  V30 6920 C 641.499 -0.727411 3.30899 0
M  V30 6921 C 640.058 -1.19612 3.56889 0
M  V30 6922 C 639.205 -0.20885 2.76512 0
M  V30 6923 H 642.156 0.351924 1.54749 0
M  V30 6924 H 642.177 -1.58407 3.45959 0
M  V30 6925 H 641.689 0.19247 3.87622 0
M  V30 6926 H 639.79 -2.13263 3.05532 0
M  V30 6927 H 639.903 -1.13598 4.65438 0
M  V30 6928 H 638.267 -0.697479 2.44964 0
M  V30 6929 H 639.05 0.704267 3.35998 0
M  V30 6930 N 641.495 -1.56914 -0.146875 0
M  V30 6931 C 642.772 -1.74273 -0.888165 0
M  V30 6932 C 643.152 -0.69496 -1.99333 0
M  V30 6933 O 642.5 0.286093 -2.26702 0
M  V30 6934 C 642.71 -3.18336 -1.43051 0
M  V30 6935 C 644.058 -3.80024 -1.89387 0
M  V30 6936 O 645.082 -3.21765 -1.52792 0
M  V30 6937 O 643.941 -4.82367 -2.56874 0
M  V30 6938 H 641.035 -0.712565 -0.419738 0
M  V30 6939 H 643.581 -1.6918 -0.132791 0
M  V30 6940 H 642.353 -3.86092 -0.636274 0
M  V30 6941 H 641.976 -3.27854 -2.24938 0
M  V30 6942 N 642.974 0.416227 -1.52004 0
M  V30 6943 C 643.884 1.53147 -1.77717 0
M  V30 6944 C 644.9 1.609 -0.662368 0
M  V30 6945 O 646.076 1.77747 -0.946991 0
M  V30 6946 C 643.141 2.88948 -1.91598 0
M  V30 6947 C 642.202 2.9114 -3.15493 0
M  V30 6948 C 641.435 4.20464 -3.28703 0
M  V30 6949 O 641.658 5.13981 -2.47345 0
M  V30 6950 O 640.592 4.29368 -4.21813 0
M  V30 6951 H 644.418 1.34357 -2.72363 0
M  V30 6952 H 642.003 0.601373 -1.36762 0
M  V30 6953 H 643.885 3.69505 -2.02593 0
M  V30 6954 H 642.56 3.07821 -1.00141 0
M  V30 6955 H 641.467 2.09461 -3.09962 0
M  V30 6956 H 642.8 2.77216 -4.06709 0
M  V30 6957 N 644.452 1.42507 0.673017 0
M  V30 6958 C 645.682 1.46261 1.45916 0
M  V30 6959 C 646.09 0.0729724 1.89059 0
M  V30 6960 O 645.433 -0.922987 1.58829 0
M  V30 6961 C 645.495 2.32853 2.73898 0
M  V30 6962 C 645.159 3.80699 2.52819 0
M  V30 6963 C 646.156 4.72307 2.17306 0
M  V30 6964 C 643.841 4.24983 2.67758 0
M  V30 6965 C 645.835 6.06192 1.97003 0
M  V30 6966 C 643.522 5.58927 2.4707 0
M  V30 6967 C 644.52 6.49348 2.11746 0
M  V30 6968 O 644.208 7.80817 1.91259 0
M  V30 6969 H 643.94 0.499561 0.455428 0
M  V30 6970 H 646.494 1.87697 0.834196 0
M  V30 6971 H 644.724 1.86268 3.38882 0
M  V30 6972 H 646.413 2.28041 3.35786 0
M  V30 6973 H 647.179 4.39378 2.05359 0
M  V30 6974 H 643.058 3.54893 2.94231 0
M  V30 6975 H 646.602 6.76731 1.69355 0
M  V30 6976 H 642.499 5.91429 2.58615 0
M  V30 6977 H 643.267 7.92194 2.05843 0
M  V30 6978 N 645.93 -0.909495 1.28709 0
M  V30 6979 C 647.16 -1.69027 1.188 0
M  V30 6980 C 647.568 -1.87469 -0.255329 0
M  V30 6981 O 646.911 -1.40458 -1.18394 0
M  V30 6982 C 646.973 -3.10064 1.81936 0
M  V30 6983 C 646.637 -3.14891 3.31199 0
M  V30 6984 C 647.634 -2.95768 4.27571 0
M  V30 6985 C 645.319 -3.37269 3.7223 0
M  V30 6986 C 647.313 -2.98942 5.6295 0
M  V30 6987 C 645 -3.40074 5.07733 0
M  V30 6988 C 645.998 -3.20932 6.02903 0
M  V30 6989 O 645.686 -3.23507 7.35934 0
M  V30 6990 H 645.418 -0.535014 0.413203 0
M  V30 6991 H 647.972 -1.14645 1.70428 0
M  V30 6992 H 646.202 -3.66005 1.24808 0
M  V30 6993 H 647.891 -3.70185 1.66486 0
M  V30 6994 H 648.657 -2.78302 3.97206 0
M  V30 6995 H 644.536 -3.51212 2.98615 0
M  V30 6996 H 648.08 -2.83919 6.37209 0
M  V30 6997 H 643.977 -3.5707 5.37747 0
M  V30 6998 H 644.745 -3.3984 7.44615 0
M  V30 6999 N 647.408 -1.11026 -1.11852 0
M  V30 7000 C 648.371 -0.768006 -2.1595 0
M  V30 7001 C 649.371 0.210538 -1.59416 0
M  V30 7002 O 650.561 -0.0133978 -1.74195 0
M  V30 7003 C 647.693 -0.138678 -3.40618 0
M  V30 7004 H 648.886 -1.69012 -2.4774 0
M  V30 7005 H 646.439 -0.911578 -1.26964 0
M  V30 7006 H 647.174 0.793872 -3.14433 0
M  V30 7007 H 646.959 -0.843012 -3.8293 0
M  V30 7008 H 648.449 0.0848039 -4.17514 0
M  V30 7009 N 648.886 1.2938 -0.899927 0
M  V30 7010 C 650.302 1.48052 -0.596059 0
M  V30 7011 C 650.502 1.82114 0.862372 0
M  V30 7012 O 649.558 1.91774 1.64253 0
M  V30 7013 C 650.871 2.59332 -1.52208 0
M  V30 7014 C 652.419 2.73208 -1.5273 0
M  V30 7015 C 652.894 3.87617 -2.43961 0
M  V30 7016 N 654.385 3.9495 -2.42009 0
M  V30 7017 C 655.12 4.82824 -3.09303 0
M  V30 7018 N 654.616 5.75387 -3.85877 0
M  V30 7019 N 656.409 4.76317 -2.98459 0
M  V30 7020 H 648.56 1.05546 -1.8432 0
M  V30 7021 H 650.823 0.524314 -0.78981 0
M  V30 7022 H 650.529 2.41029 -2.56121 0
M  V30 7023 H 650.403 3.56139 -1.24278 0
M  V30 7024 H 652.79 2.90908 -0.495614 0
M  V30 7025 H 652.871 1.76975 -1.84698 0
M  V30 7026 H 652.515 3.70672 -3.47224 0
M  V30 7027 H 652.445 4.83218 -2.09303 0
M  V30 7028 H 654.936 3.28744 -1.86375 0
M  V30 7029 H 655.249 6.39235 -4.34279 0
M  V30 7030 H 653.594 5.75272 -3.89984 0
M  V30 7031 H 656.785 4.0299 -2.38152 0
M  V30 7032 H 656.958 5.44589 -3.51179 0
M  V30 7033 N 650.364 0.662433 1.43002 0
M  V30 7034 C 651.589 0.186003 2.06564 0
M  V30 7035 C 652.014 -1.14314 1.49379 0
M  V30 7036 O 651.372 -1.70824 0.607346 0
M  V30 7037 C 651.42 0.118269 3.60406 0
M  V30 7038 O 650.524 -0.916859 4.02079 0
M  V30 7039 H 649.865 0.0990981 0.656563 0
M  V30 7040 H 652.395 0.907958 1.8335 0
M  V30 7041 H 652.405 -0.0619981 4.07953 0
M  V30 7042 H 651.08 1.08849 4.01403 0
M  V30 7043 H 649.657 -0.708635 3.66105 0
M  V30 7044 N 651.842 -1.52309 0.404946 0
M  V30 7045 C 652.752 -2.30634 -0.429555 0
M  V30 7046 C 653.768 -1.38187 -1.05737 0
M  V30 7047 O 654.944 -1.71261 -1.05979 0
M  V30 7048 C 652.009 -3.10947 -1.53339 0
M  V30 7049 C 651.07 -4.19126 -0.929065 0
M  V30 7050 C 650.303 -4.95601 -1.9803 0
M  V30 7051 O 650.526 -4.72331 -3.1978 0
M  V30 7052 O 649.46 -5.80551 -1.58886 0
M  V30 7053 H 653.286 -3.0298 0.208963 0
M  V30 7054 H 650.871 -1.4845 0.168255 0
M  V30 7055 H 652.753 -3.60974 -2.1743 0
M  V30 7056 H 651.428 -2.41399 -2.15658 0
M  V30 7057 H 650.335 -3.73257 -0.250982 0
M  V30 7058 H 651.668 -4.90955 -0.349855 0
M  V30 7059 N 653.32 -0.135238 -1.57019 0
M  V30 7060 C 654.597 0.563227 -1.87316 0
M  V30 7061 C 654.977 1.83749 -1.03921 0
M  V30 7062 O 654.325 2.2817 -0.122675 0
M  V30 7063 C 654.535 0.840031 -3.3874 0
M  V30 7064 C 655.883 1.18598 -4.077 0
M  V30 7065 O 656.907 0.92977 -3.43851 0
M  V30 7066 O 655.766 1.66758 -5.20436 0
M  V30 7067 H 652.86 0.285971 -0.775983 0
M  V30 7068 H 655.406 -0.170965 -1.68837 0
M  V30 7069 H 654.178 -0.0622785 -3.9125 0
M  V30 7070 H 653.801 1.62882 -3.62706 0
M  V30 7071 N 654.798 1.5699 0.138552 0
M  V30 7072 C 656.028 1.87704 0.863184 0
M  V30 7073 C 656.436 0.722411 1.74865 0
M  V30 7074 O 655.779 -0.316636 1.80951 0
M  V30 7075 C 655.841 3.13219 1.76449 0
M  V30 7076 C 655.505 4.44648 1.05532 0
M  V30 7077 C 656.502 5.18318 0.405252 0
M  V30 7078 C 654.187 4.91367 1.04231 0
M  V30 7079 C 656.181 6.36916 -0.24835 0
M  V30 7080 C 653.868 6.09887 0.384904 0
M  V30 7081 C 654.866 6.82508 -0.259292 0
M  V30 7082 O 654.554 7.98775 -0.906258 0
M  V30 7083 H 654.286 0.626255 0.254521 0
M  V30 7084 H 656.84 2.04966 0.133472 0
M  V30 7085 H 655.07 2.91988 2.53535 0
M  V30 7086 H 656.759 3.30111 2.36181 0
M  V30 7087 H 657.525 4.83289 0.407053 0
M  V30 7088 H 653.404 4.34759 1.53315 0
M  V30 7089 H 656.948 6.93538 -0.751755 0
M  V30 7090 H 652.845 6.44376 0.380799 0
M  V30 7091 H 653.613 8.14494 -0.80877 0
M  V30 7092 N 656.276 -0.40816 1.52223 0
M  V30 7093 C 657.522 -1.15673 1.66576 0
M  V30 7094 C 657.855 -1.90141 0.394996 0
M  V30 7095 O 657.13 -1.84798 -0.606613 0
M  V30 7096 C 657.413 -2.15042 2.88841 0
M  V30 7097 C 657.266 -1.44465 4.25969 0
M  V30 7098 C 658.585 -3.15699 3.0663 0
M  V30 7099 H 655.704 -0.41916 0.606196 0
M  V30 7100 H 658.346 -0.442348 1.84779 0
M  V30 7101 H 656.496 -2.75964 2.73452 0
M  V30 7102 H 658.168 -0.866544 4.53088 0
M  V30 7103 H 656.411 -0.746612 4.27327 0
M  V30 7104 H 657.082 -2.16976 5.07568 0
M  V30 7105 H 659.558 -2.64854 3.20923 0
M  V30 7106 H 658.434 -3.82491 3.9369 0
M  V30 7107 H 658.695 -3.83481 2.19987 0
M  V30 7108 N 657.755 -1.42862 -0.66545 0
M  V30 7109 C 658.665 -1.49491 -1.80803 0
M  V30 7110 C 659.681 -0.382914 -1.69734 0
M  V30 7111 O 660.857 -0.635223 -1.9112 0
M  V30 7112 C 657.922 -1.40383 -3.17007 0
M  V30 7113 C 656.983 -2.62152 -3.39963 0
M  V30 7114 C 656.216 -2.53469 -4.69669 0
M  V30 7115 O 656.439 -1.57568 -5.48205 0
M  V30 7116 O 655.373 -3.43763 -4.94075 0
M  V30 7117 H 659.199 -2.45949 -1.78165 0
M  V30 7118 H 656.784 -1.24728 -0.822387 0
M  V30 7119 H 658.666 -1.377 -3.98267 0
M  V30 7120 H 657.341 -0.470546 -3.20262 0
M  V30 7121 H 656.248 -2.70409 -2.58515 0
M  V30 7122 H 657.581 -3.54411 -3.41546 0
M  V30 7123 N 659.233 0.902656 -1.29189 0
M  V30 7124 C 660.163 2.02294 -1.16616 0
M  V30 7125 C 661.144 1.6999 -0.0611175 0
M  V30 7126 O 662.329 1.9271 -0.240072 0
M  V30 7127 C 659.459 3.37018 -0.83882 0
M  V30 7128 C 658.413 3.83522 -1.89986 0
M  V30 7129 C 657.739 5.15337 -1.42589 0
M  V30 7130 C 659.039 4.04169 -3.30824 0
M  V30 7131 H 660.733 2.13071 -2.10336 0
M  V30 7132 H 658.279 1.02378 -1.01266 0
M  V30 7133 H 660.232 4.14895 -0.737584 0
M  V30 7134 H 658.956 3.26325 0.134071 0
M  V30 7135 H 657.615 3.07859 -1.99043 0
M  V30 7136 H 657.263 5.01056 -0.441759 0
M  V30 7137 H 656.963 5.47423 -2.13547 0
M  V30 7138 H 658.487 5.95758 -1.3381 0
M  V30 7139 H 659.901 4.72537 -3.24626 0
M  V30 7140 H 658.298 4.47604 -3.99713 0
M  V30 7141 H 659.368 3.08604 -3.74021 0
M  V30 7142 N 660.711 1.11618 1.11262 0
M  V30 7143 C 661.957 0.867463 1.83311 0
M  V30 7144 C 662.29 -0.605366 1.84524 0
M  V30 7145 O 661.565 -1.44704 1.29965 0
M  V30 7146 C 661.848 1.43207 3.30399 0
M  V30 7147 C 661.701 2.97265 3.3757 0
M  V30 7148 C 663.02 1.08454 4.26528 0
M  V30 7149 H 660.139 0.316578 0.665543 0
M  V30 7150 H 662.781 1.38137 1.30454 0
M  V30 7151 H 660.931 0.994982 3.75543 0
M  V30 7152 H 662.603 3.49591 3.00971 0
M  V30 7153 H 660.846 3.33237 2.77733 0
M  V30 7154 H 661.517 3.31859 4.41105 0
M  V30 7155 H 663.993 1.4619 3.89574 0
M  V30 7156 H 662.869 1.50633 5.27826 0
M  V30 7157 H 663.13 -0.00444568 4.421 0
M  V30 7158 N 662.189 -1.289 0.906776 0
M  V30 7159 C 663.121 -2.26556 0.347159 0
M  V30 7160 C 664.134 -1.54589 -0.51049 0
M  V30 7161 O 665.323 -1.75489 -0.326501 0
M  V30 7162 C 662.423 -3.3484 -0.523024 0
M  V30 7163 C 661.596 -4.36296 0.310515 0
M  V30 7164 C 660.655 -5.23879 -0.493634 0
M  V30 7165 O 659.681 -5.69127 0.0913569 0
M  V30 7166 N 660.883 -5.51946 -1.7982 0
M  V30 7167 H 663.648 -2.75212 1.18652 0
M  V30 7168 H 661.209 -1.42309 0.771996 0
M  V30 7169 H 663.201 -3.90366 -1.06756 0
M  V30 7170 H 661.771 -2.85946 -1.26309 0
M  V30 7171 H 660.991 -3.80331 1.03644 0
M  V30 7172 H 662.279 -5.01113 0.881106 0
M  V30 7173 H 661.677 -5.17006 -2.2961 0
M  V30 7174 H 660.234 -6.10258 -2.28971 0
M  V30 7175 N 663.667 -0.670007 -1.42649 0
M  V30 7176 C 665.083 -0.33911 -1.55956 0
M  V30 7177 C 665.283 1.1558 -1.65056 0
M  V30 7178 O 664.339 1.94111 -1.61485 0
M  V30 7179 C 665.652 -1.06522 -2.812 0
M  V30 7180 C 667.2 -1.04708 -2.94966 0
M  V30 7181 C 667.675 -1.75442 -4.23065 0
M  V30 7182 N 669.166 -1.72286 -4.29967 0
M  V30 7183 C 669.901 -2.23877 -5.27889 0
M  V30 7184 N 669.397 -2.83829 -6.31991 0
M  V30 7185 N 671.19 -2.14279 -5.19654 0
M  V30 7186 H 663.341 -1.6399 -1.34986 0
M  V30 7187 H 665.604 -0.690603 -0.649439 0
M  V30 7188 H 665.31 -2.12033 -2.80597 0
M  V30 7189 H 665.184 -0.627398 -3.71946 0
M  V30 7190 H 667.571 -0.000315966 -2.951 0
M  V30 7191 H 667.652 -1.52374 -2.05465 0
M  V30 7192 H 667.296 -2.80084 -4.23693 0
M  V30 7193 H 667.226 -1.25229 -5.11493 0
M  V30 7194 H 669.717 -1.28554 -3.55362 0
M  V30 7195 H 670.03 -3.20827 -7.03057 0
M  V30 7196 H 668.375 -2.87896 -6.32567 0
M  V30 7197 H 671.566 -1.67135 -4.37245 0
M  V30 7198 H 671.739 -2.54792 -5.95806 0
M  V30 7199 N 665.145 1.52092 -0.413018 0
M  V30 7200 C 666.092 2.27119 0.410558 0
M  V30 7201 C 667.062 1.29692 1.03774 0
M  V30 7202 O 668.247 1.58561 1.06128 0
M  V30 7203 C 665.387 3.09863 1.51918 0
M  V30 7204 C 664.5 4.22252 0.912528 0
M  V30 7205 C 663.635 4.92348 1.99417 0
M  V30 7206 C 662.674 5.96694 1.36466 0
M  V30 7207 N 661.811 6.60292 2.38661 0
M  V30 7208 H 666.651 2.97067 -0.235661 0
M  V30 7209 H 664.188 1.46542 -0.128055 0
M  V30 7210 H 666.146 3.56144 2.17295 0
M  V30 7211 H 664.776 2.42078 2.13537 0
M  V30 7212 H 663.828 3.80113 0.147697 0
M  V30 7213 H 665.14 4.9709 0.412717 0
M  V30 7214 H 664.294 5.42054 2.72512 0
M  V30 7215 H 663.033 4.17087 2.52764 0
M  V30 7216 H 662.038 5.46304 0.61906 0
M  V30 7217 H 663.263 6.73899 0.838827 0
M  V30 7218 H 661.209 5.87858 2.91134 0
M  V30 7219 H 661.126 7.30816 1.93503 0
M  V30 7220 H 662.394 7.14635 3.11314 0
M  V30 7221 N 666.623 0.143563 1.56945 0
M  V30 7222 C 668.039 -0.212877 1.58174 0
M  V30 7223 C 668.239 -1.64926 1.15766 0
M  V30 7224 O 667.295 -2.37535 0.856361 0
M  V30 7225 C 668.608 0.0427573 3.0067 0
M  V30 7226 C 670.156 -0.0212221 3.12993 0
M  V30 7227 C 670.631 0.207036 4.57532 0
M  V30 7228 N 672.122 0.153845 4.62944 0
M  V30 7229 C 672.857 0.305018 5.72588 0
M  V30 7230 N 672.353 0.513722 6.90893 0
M  V30 7231 N 674.146 0.242862 5.61575 0
M  V30 7232 H 666.297 1.08148 1.82805 0
M  V30 7233 H 668.56 0.427831 0.84597 0
M  V30 7234 H 668.266 1.03672 3.36073 0
M  V30 7235 H 668.14 -0.678195 3.71053 0
M  V30 7236 H 670.527 -1.00574 2.77433 0
M  V30 7237 H 670.608 0.732004 2.45103 0
M  V30 7238 H 670.252 1.18863 4.93795 0
M  V30 7239 H 670.182 -0.566473 5.23544 0
M  V30 7240 H 672.673 -0.00294866 3.779 0
M  V30 7241 H 672.986 0.619273 7.70315 0
M  V30 7242 H 671.331 0.550001 6.9282 0
M  V30 7243 H 674.522 0.0806015 4.68031 0
M  V30 7244 H 674.695 0.364112 6.46976 0
M  V30 7245 N 668.101 -1.57061 -0.130224 0
M  V30 7246 C 669.347 -1.8453 -0.841216 0
M  V30 7247 C 669.68 -0.727666 -1.80052 0
M  V30 7248 O 668.955 0.267419 -1.92653 0
M  V30 7249 C 669.238 -3.22553 -1.60099 0
M  V30 7250 C 669.091 -4.44901 -0.662048 0
M  V30 7251 C 670.41 -3.58003 -2.55973 0
M  V30 7252 H 667.529 -0.671215 -0.304366 0
M  V30 7253 H 670.171 -1.89705 -0.105821 0
M  V30 7254 H 668.321 -3.18272 -2.22789 0
M  V30 7255 H 669.993 -4.61278 -0.0448559 0
M  V30 7256 H 668.236 -4.33791 0.0272253 0
M  V30 7257 H 668.907 -5.3812 -1.23006 0
M  V30 7258 H 671.383 -3.63002 -2.03393 0
M  V30 7259 H 670.259 -4.55576 -3.06172 0
M  V30 7260 H 670.52 -2.84833 -3.38116 0
M  V30 7261 N 669.579 0.400081 -1.52437 0
M  V30 7262 C 670.827 1.14392 -1.6661 0
M  V30 7263 C 671.148 1.90792 -0.402927 0
M  V30 7264 O 670.418 1.87042 0.582425 0
M  V30 7265 H 668.998 0.425275 -0.614125 0
M  V30 7266 H 671.66 0.455076 -1.89513 0
M  V30 7267 H 670.756 1.85298 -2.51139 0
M  V30 7268 N 671.057 1.43213 0.657864 0
M  V30 7269 C 672.303 1.44798 1.41991 0
M  V30 7270 C 672.636 0.070256 1.94073 0
M  V30 7271 O 671.911 -0.908177 1.71995 0
M  V30 7272 C 672.194 2.4865 2.60471 0
M  V30 7273 C 672.047 3.95679 2.13911 0
M  V30 7274 C 673.366 2.49292 3.62686 0
M  V30 7275 H 670.485 0.527244 0.514959 0
M  V30 7276 H 673.127 1.74733 0.74621 0
M  V30 7277 H 671.277 2.23254 3.17946 0
M  V30 7278 H 672.949 4.32116 1.61472 0
M  V30 7279 H 671.192 4.08733 1.45325 0
M  V30 7280 H 671.863 4.6395 2.99089 0
M  V30 7281 H 674.339 2.71917 3.14961 0
M  V30 7282 H 673.215 3.23907 4.43143 0
M  V30 7283 H 673.476 1.52502 4.14964 0
M  V30 7284 N 672.536 -0.895792 1.29666 0
M  V30 7285 C 673.782 -1.64921 1.19049 0
M  V30 7286 C 674.137 -1.90707 -0.254678 0
M  V30 7287 O 673.43 -1.5092 -1.18041 0
M  V30 7288 C 673.624 -3.00075 1.94139 0
M  V30 7289 C 673.453 -2.87482 3.4581 0
M  V30 7290 C 672.223 -2.88041 4.15163 0
M  V30 7291 C 674.421 -2.64224 4.41237 0
M  V30 7292 N 672.403 -2.66226 5.5317 0
M  V30 7293 C 673.774 -2.51427 5.66732 0
M  V30 7294 C 675.829 -2.49362 4.30956 0
M  V30 7295 C 674.532 -2.25281 6.83111 0
M  V30 7296 C 676.558 -2.246 5.47091 0
M  V30 7297 C 675.92 -2.12571 6.7156 0
M  V30 7298 H 672.019 -0.608926 0.490646 0
M  V30 7299 H 674.603 -1.05648 1.63544 0
M  V30 7300 H 672.774 -3.574 1.52052 0
M  V30 7301 H 674.506 -3.64544 1.75754 0
M  V30 7302 H 671.261 -2.99471 3.66898 0
M  V30 7303 H 671.685 -2.58361 6.25762 0
M  V30 7304 H 676.327 -2.57403 3.35415 0
M  V30 7305 H 674.045 -2.15978 7.78704 0
M  V30 7306 H 677.631 -2.13939 5.41037 0
M  V30 7307 H 676.511 -1.93676 7.59907 0
M  V30 7308 N 674.014 -1.12206 -1.10668 0
M  V30 7309 C 674.962 -0.782918 -2.19028 0
M  V30 7310 C 675.956 0.229175 -1.67843 0
M  V30 7311 O 677.162 0.0876295 -1.79787 0
M  V30 7312 H 673.537 -0.235339 -0.714227 0
M  V30 7313 H 675.508 -1.70527 -2.44874 0
M  V30 7314 C 674.257 -0.25116 -3.46792 0
M  V30 7315 H 673.58 -1.02123 -3.86537 0
M  V30 7316 H 675.02 -0.0521409 -4.23968 0
M  V30 7317 C 673.479 1.02037 -3.21076 0
M  V30 7318 O 674.009 2.09862 -3.42522 0
M  V30 7319 N 672.215 0.946348 -2.74759 0
M  V30 7320 H 671.762 0.068777 -2.57508 0
M  V30 7321 H 671.72 1.79775 -2.57931 0
M  V30 7322 N 675.492 1.28418 -0.913599 0
M  V30 7323 C 676.738 1.9527 -0.547484 0
M  V30 7324 C 677.071 1.71745 0.906486 0
M  V30 7325 O 676.346 1.03834 1.64465 0
M  V30 7326 C 676.629 3.49748 -0.857205 0
M  V30 7327 C 676.482 3.82675 -2.3639 0
M  V30 7328 C 677.801 4.3868 -0.353258 0
M  V30 7329 H 674.92 0.709236 -0.200381 0
M  V30 7330 H 677.562 1.51789 -1.14281 0
M  V30 7331 H 675.712 3.86915 -0.350548 0
M  V30 7332 H 677.384 3.55378 -2.94116 0
M  V30 7333 H 675.627 3.29724 -2.81894 0
M  V30 7334 H 676.298 4.90547 -2.53115 0
M  V30 7335 H 678.774 4.08584 -0.787288 0
M  V30 7336 H 677.65 5.45621 -0.599049 0
M  V30 7337 H 677.911 4.35753 0.746413 0
M  V30 7338 N 676.97 0.677563 1.42291 0
M  V30 7339 C 678.381 0.277912 1.8462 0
M  V30 7340 C 678.732 -1.18048 1.56714 0
M  V30 7341 O 677.857 -1.90404 1.02836 0
M  V30 7342 C 678.452 0.497619 3.35126 0
M  V30 7343 C 677.011 0.152063 3.76093 0
M  V30 7344 C 676.158 0.78872 2.65847 0
M  V30 7345 H 679.109 0.879527 1.32098 0
M  V30 7346 H 679.13 -0.24939 3.79682 0
M  V30 7347 H 678.642 1.55913 3.55405 0
M  V30 7348 H 676.743 -0.905896 3.6142 0
M  V30 7349 H 676.856 0.594514 4.75397 0
M  V30 7350 H 675.22 0.219813 2.5375 0
M  V30 7351 H 676.003 1.85374 2.88949 0
M  V30 7352 N 678.448 -1.51871 0.421078 0
M  V30 7353 C 679.678 -2.06057 -0.149723 0
M  V30 7354 C 680.086 -1.29002 -1.38402 0
M  V30 7355 O 679.429 -0.338385 -1.80556 0
M  V30 7356 C 679.491 -3.55216 -0.553339 0
M  V30 7357 C 679.155 -4.53408 0.571879 0
M  V30 7358 C 680.152 -4.99586 1.4391 0
M  V30 7359 C 677.837 -4.967 0.747979 0
M  V30 7360 C 679.831 -5.87711 2.46727 0
M  V30 7361 C 677.518 -5.84619 1.77944 0
M  V30 7362 C 678.516 -6.30021 2.63748 0
M  V30 7363 O 678.204 -7.16197 3.65126 0
M  V30 7364 H 677.936 -0.675744 -0.0186102 0
M  V30 7365 H 680.49 -1.96618 0.594166 0
M  V30 7366 H 678.72 -3.62381 -1.34969 0
M  V30 7367 H 680.409 -3.91992 -1.05342 0
M  V30 7368 H 681.175 -4.66846 1.31451 0
M  V30 7369 H 677.054 -4.60913 0.0897357 0
M  V30 7370 H 680.598 -6.2307 3.13734 0
M  V30 7371 H 676.495 -6.16771 1.90429 0
M  V30 7372 H 677.263 -7.34337 3.61512 0
M  V30 7373 N 679.926 -0.151884 -1.56866 0
M  V30 7374 C 681.175 0.497992 -1.95456 0
M  V30 7375 C 681.488 1.6569 -1.03953 0
M  V30 7376 O 682.694 2.37173 -1.32142 0
M  V30 7377 C 681.15 0.93732 -3.4748 0
M  V30 7378 C 680.758 -0.194921 -4.47576 0
M  V30 7379 C 682.502 1.55671 -3.94926 0
M  V30 7380 C 680.409 0.26295 -5.90815 0
M  V30 7381 H 679.339 0.189811 -0.729717 0
M  V30 7382 H 681.99 -0.237011 -1.81963 0
M  V30 7383 H 680.372 1.72773 -3.56322 0
M  V30 7384 H 681.546 -0.971951 -4.50433 0
M  V30 7385 H 679.861 -0.72303 -4.10075 0
M  V30 7386 H 682.458 1.91099 -4.99385 0
M  V30 7387 H 682.801 2.44748 -3.36755 0
M  V30 7388 H 683.334 0.831109 -3.89021 0
M  V30 7389 H 680.073 -0.592568 -6.52816 0
M  V30 7390 H 679.593 1.00575 -5.91308 0
M  V30 7391 H 681.272 0.713333 -6.43056 0
M  V30 7392 N 681.404 1.57128 0.121893 0
M  V30 7393 C 682.629 1.89254 0.848385 0
M  V30 7394 C 683.054 0.743527 1.72781 0
M  V30 7395 O 682.412 -0.306056 1.78698 0
M  V30 7396 C 682.46 3.20113 1.66012 0
M  V30 7397 O 681.564 3.05815 2.76679 0
M  V30 7398 H 680.905 0.621103 0.234793 0
M  V30 7399 H 683.435 2.0433 0.10516 0
M  V30 7400 H 683.445 3.52761 2.04996 0
M  V30 7401 H 682.12 4.03336 1.01452 0
M  V30 7402 H 680.697 2.84627 2.40918 0
M  V30 7403 N 682.882 -0.391992 1.52647 0
M  V30 7404 C 683.814 -1.49811 1.73463 0
M  V30 7405 C 684.827 -1.50734 0.615078 0
M  V30 7406 O 686.016 -1.5469 0.890696 0
M  V30 7407 C 683.116 -2.88667 1.77552 0
M  V30 7408 C 682.289 -3.11743 3.06815 0
M  V30 7409 C 681.348 -4.30564 3.02491 0
M  V30 7410 O 680.374 -4.27014 3.76361 0
M  V30 7411 N 681.576 -5.36593 2.21468 0
M  V30 7412 H 684.341 -1.32343 2.68897 0
M  V30 7413 H 681.902 -0.581475 1.51098 0
M  V30 7414 H 683.894 -3.66251 1.7217 0
M  V30 7415 H 682.464 -2.99508 0.895181 0
M  V30 7416 H 681.684 -2.2205 3.25711 0
M  V30 7417 H 682.972 -3.24013 3.92292 0
M  V30 7418 H 682.37 -5.42332 1.60913 0
M  V30 7419 H 680.927 -6.12855 2.21928 0
M  V30 7420 N 684.36 -1.4356 -0.65026 0
M  V30 7421 C 685.323 -1.48615 -1.74489 0
M  V30 7422 C 686.323 -0.370483 -1.56474 0
M  V30 7423 O 687.513 -0.632351 -1.62317 0
M  V30 7424 C 684.645 -1.34161 -3.13391 0
M  V30 7425 H 685.838 -2.46103 -1.71387 0
M  V30 7426 H 683.391 -1.30369 -0.862186 0
M  V30 7427 H 684.126 -0.376918 -3.22102 0
M  V30 7428 H 683.911 -2.1504 -3.27872 0
M  V30 7429 H 685.401 -1.40637 -3.93206 0
M  V30 7430 N 685.838 0.888903 -1.30139 0
M  V30 7431 C 687.068 1.67115 -1.21474 0
M  V30 7432 C 687.476 1.87852 0.225472 0
M  V30 7433 O 686.819 1.42324 1.16145 0
M  V30 7434 C 686.881 3.0713 -1.86846 0
M  V30 7435 C 686.545 3.09582 -3.36167 0
M  V30 7436 C 687.542 2.88929 -4.32222 0
M  V30 7437 C 685.227 3.31304 -3.77549 0
M  V30 7438 C 687.221 2.89949 -5.67634 0
M  V30 7439 C 684.908 3.31954 -5.13079 0
M  V30 7440 C 685.906 3.113 -6.07932 0
M  V30 7441 O 685.594 3.11758 -7.40987 0
M  V30 7442 H 685.326 0.528372 -0.421662 0
M  V30 7443 H 687.88 1.11919 -1.7223 0
M  V30 7444 H 686.11 3.63973 -1.30615 0
M  V30 7445 H 687.799 3.6749 -1.72354 0
M  V30 7446 H 688.565 2.71948 -4.01584 0
M  V30 7447 H 684.444 3.46417 -3.04165 0
M  V30 7448 H 687.988 2.73746 -6.41645 0
M  V30 7449 H 683.885 3.48469 -5.43359 0
M  V30 7450 H 684.653 3.27951 -7.49927 0
M  V30 7451 N 687.317 1.12792 1.10072 0
M  V30 7452 C 688.563 0.886857 1.82381 0
M  V30 7453 C 688.896 -0.58576 1.85155 0
M  V30 7454 O 688.171 -1.43317 1.31493 0
M  V30 7455 C 688.454 1.46703 3.28862 0
M  V30 7456 C 688.307 3.00829 3.34398 0
M  V30 7457 C 689.626 1.12971 4.25353 0
M  V30 7458 H 686.745 0.32362 0.662148 0
M  V30 7459 H 689.387 1.39513 1.28982 0
M  V30 7460 H 687.537 1.03476 3.74466 0
M  V30 7461 H 689.209 3.52764 2.97247 0
M  V30 7462 H 687.452 3.36164 2.74183 0
M  V30 7463 H 688.123 3.36519 4.3756 0
M  V30 7464 H 690.599 1.50313 3.88001 0
M  V30 7465 H 689.475 1.56223 5.26199 0
M  V30 7466 H 689.736 0.0424452 4.4208 0
M  V30 7467 N 688.795 -1.27931 0.920396 0
M  V30 7468 C 690.044 -1.93975 0.552867 0
M  V30 7469 C 690.357 -1.73193 -0.909035 0
M  V30 7470 O 691.563 -2.33515 -1.38502 0
M  V30 7471 C 690.019 -3.47463 0.937947 0
M  V30 7472 C 689.627 -3.77013 2.42003 0
M  V30 7473 C 691.371 -4.19628 0.64132 0
M  V30 7474 C 689.278 -5.23841 2.74489 0
M  V30 7475 H 688.208 -0.726146 0.203046 0
M  V30 7476 H 690.859 -1.45339 1.12022 0
M  V30 7477 H 689.241 -3.94867 0.299317 0
M  V30 7478 H 690.415 -3.40393 3.10595 0
M  V30 7479 H 688.73 -3.18035 2.6878 0
M  V30 7480 H 691.327 -5.27729 0.860622 0
M  V30 7481 H 691.67 -4.14164 -0.421168 0
M  V30 7482 H 692.203 -3.78022 1.23872 0
M  V30 7483 H 688.942 -5.34388 3.79618 0
M  V30 7484 H 688.462 -5.61634 2.1054 0
M  V30 7485 H 690.141 -5.91647 2.61845 0
M  V30 7486 N 690.273 -0.685099 -1.4193 0
M  V30 7487 C 691.689 -0.355632 -1.55587 0
M  V30 7488 C 691.889 1.13823 -1.66273 0
M  V30 7489 O 690.945 1.92387 -1.63534 0
M  V30 7490 C 692.258 -1.09498 -2.80055 0
M  V30 7491 C 693.806 -1.07831 -2.93839 0
M  V30 7492 C 694.281 -1.79919 -4.21181 0
M  V30 7493 N 695.772 -1.76837 -4.28115 0
M  V30 7494 C 696.507 -2.29463 -5.25485 0
M  V30 7495 N 696.003 -2.90516 -6.28945 0
M  V30 7496 N 697.796 -2.19779 -5.17353 0
M  V30 7497 H 689.947 -1.65412 -1.33239 0
M  V30 7498 H 692.21 -0.697453 -0.642078 0
M  V30 7499 H 691.916 -2.14997 -2.78333 0
M  V30 7500 H 691.79 -0.666813 -3.71259 0
M  V30 7501 H 694.177 -0.0316152 -2.95083 0
M  V30 7502 H 694.258 -1.54545 -2.03837 0
M  V30 7503 H 693.902 -2.84562 -4.20698 0
M  V30 7504 H 693.832 -1.30647 -5.10136 0
M  V30 7505 H 696.323 -1.32315 -3.53979 0
M  V30 7506 H 696.636 -3.28266 -6.99615 0
M  V30 7507 H 694.981 -2.94589 -6.29478 0
M  V30 7508 H 698.172 -1.71763 -4.35448 0
M  V30 7509 H 698.345 -2.61097 -5.9307 0
M  V30 7510 N 691.751 1.51645 -0.429126 0
M  V30 7511 C 692.999 2.01616 0.139802 0
M  V30 7512 C 693.32 1.31568 1.43927 0
M  V30 7513 O 692.59 0.447688 1.90716 0
M  V30 7514 H 691.17 0.744998 0.054654 0
M  V30 7515 H 693.832 1.8638 -0.569952 0
M  V30 7516 H 692.928 3.10439 0.321609 0
M  V30 7517 N 693.229 0.160201 1.56784 0
M  V30 7518 C 694.506 -0.533355 1.88188 0
M  V30 7519 C 694.886 -1.82072 1.06831 0
M  V30 7520 O 694.234 -2.27946 0.158959 0
M  V30 7521 C 694.444 -0.786034 3.40033 0
M  V30 7522 C 695.792 -1.12097 4.09536 0
M  V30 7523 O 696.816 -0.874949 3.45287 0
M  V30 7524 O 695.675 -1.58457 5.23023 0
M  V30 7525 H 692.769 -0.273589 0.780434 0
M  V30 7526 H 695.315 0.197803 1.68543 0
M  V30 7527 H 694.087 0.124515 3.91102 0
M  V30 7528 H 693.71 -1.57091 3.65251 0
M  V30 7529 N 694.707 -1.5719 -0.113559 0
M  V30 7530 C 695.935 -1.89328 -0.834422 0
M  V30 7531 C 696.35 -0.752018 -1.73177 0
M  V30 7532 O 695.707 0.276912 -1.80387 0
M  V30 7533 C 695.758 -3.20962 -1.66329 0
M  V30 7534 O 695.479 -4.30695 -0.802069 0
M  V30 7535 C 696.98 -3.6684 -2.48884 0
M  V30 7536 H 694.2 -0.626769 -0.239587 0
M  V30 7537 H 696.744 -2.04273 -0.0963195 0
M  V30 7538 H 694.899 -3.0767 -2.35409 0
M  V30 7539 H 695.313 -5.06175 -1.37431 0
M  V30 7540 H 696.787 -4.61692 -3.02563 0
M  V30 7541 H 697.264 -2.93765 -3.26495 0
M  V30 7542 H 697.87 -3.82938 -1.85036 0
M  V30 7543 N 696.185 0.383891 -1.52853 0
M  V30 7544 C 697.115 1.47559 -1.80965 0
M  V30 7545 C 698.096 1.5669 -0.661986 0
M  V30 7546 O 699.281 1.71556 -0.910072 0
M  V30 7547 C 696.411 2.85114 -1.98312 0
M  V30 7548 C 695.365 2.9082 -3.14019 0
M  V30 7549 C 694.691 4.30873 -3.16627 0
M  V30 7550 C 695.991 2.60001 -4.52986 0
M  V30 7551 H 697.685 1.24283 -2.72386 0
M  V30 7552 H 695.231 0.596445 -1.31067 0
M  V30 7553 H 697.184 3.61496 -2.16561 0
M  V30 7554 H 695.908 3.09738 -1.03585 0
M  V30 7555 H 694.567 2.16886 -2.9556 0
M  V30 7556 H 694.215 4.52545 -2.19573 0
M  V30 7557 H 693.915 4.3561 -3.94357 0
M  V30 7558 H 695.439 5.09154 -3.37038 0
M  V30 7559 H 696.853 3.261 -4.71521 0
M  V30 7560 H 695.25 2.76081 -5.32822 0
M  V30 7561 H 696.32 1.5532 -4.59351 0
M  V30 7562 N 697.663 1.43903 0.642637 0
M  V30 7563 C 699.079 1.27536 0.959519 0
M  V30 7564 C 699.279 0.202751 2.00477 0
M  V30 7565 O 698.335 -0.415256 2.49062 0
M  V30 7566 C 699.648 2.6432 1.43372 0
M  V30 7567 C 701.196 2.71937 1.54981 0
M  V30 7568 C 701.671 4.09164 2.05789 0
M  V30 7569 N 703.162 4.11282 2.13076 0
M  V30 7570 C 703.897 5.14303 2.53534 0
M  V30 7571 N 703.393 6.27693 2.93212 0
M  V30 7572 N 705.186 5.01657 2.53567 0
M  V30 7573 H 697.337 2.12344 -0.0488376 0
M  V30 7574 H 699.6 0.947124 0.0407559 0
M  V30 7575 H 699.306 3.43826 0.740048 0
M  V30 7576 H 699.18 2.90432 2.40685 0
M  V30 7577 H 701.567 1.92757 2.23448 0
M  V30 7578 H 701.648 2.49578 0.560739 0
M  V30 7579 H 701.292 4.88815 1.37921 0
M  V30 7580 H 701.222 4.28893 3.05546 0
M  V30 7581 H 703.713 3.2944 1.85143 0
M  V30 7582 H 704.026 7.02125 3.22863 0
M  V30 7583 H 702.371 6.31149 2.90991 0
M  V30 7584 H 705.562 4.12134 2.21952 0
M  V30 7585 H 705.735 5.82072 2.84774 0
M  V30 7586 N 699.141 -0.881989 1.30609 0
M  V30 7587 C 700.074 -1.99066 1.11571 0
M  V30 7588 C 701.052 -1.62584 0.022516 0
M  V30 7589 O 702.236 -1.87671 0.176644 0
M  V30 7590 C 699.363 -3.3134 0.702237 0
M  V30 7591 C 698.409 -3.86807 1.79673 0
M  V30 7592 S 699.242 -4.13735 3.39976 0
M  V30 7593 C 700.398 -5.49024 3.00538 0
M  V30 7594 H 700.631 -2.1491 2.05429 0
M  V30 7595 H 698.164 -1.03074 1.14957 0
M  V30 7596 H 700.122 -4.07796 0.470415 0
M  V30 7597 H 698.783 -3.13349 -0.217034 0
M  V30 7598 H 697.976 -4.82397 1.45977 0
M  V30 7599 H 697.578 -3.17102 1.98298 0
M  V30 7600 H 699.87 -6.30208 2.48684 0
M  V30 7601 H 700.813 -5.8766 3.95046 0
M  V30 7602 H 701.221 -5.11726 2.3832 0
M  V30 7603 N 700.619 -1.13374 -1.09472 0
M  V30 7604 C 701.529 -0.824029 -2.19652 0
M  V30 7605 C 702.545 0.19118 -1.72947 0
M  V30 7606 O 703.721 0.0223464 -2.01388 0
M  V30 7607 C 700.786 -0.294009 -3.45451 0
M  V30 7608 C 699.847 -1.3704 -4.0684 0
M  V30 7609 C 699.08 -0.86558 -5.26634 0
M  V30 7610 O 699.303 0.29702 -5.69626 0
M  V30 7611 O 698.237 -1.63968 -5.79136 0
M  V30 7612 H 702.063 -1.74454 -2.48595 0
M  V30 7613 H 699.648 -0.911155 -1.18399 0
M  V30 7614 H 701.53 -0.00381039 -4.214 0
M  V30 7615 H 700.205 0.598921 -3.18111 0
M  V30 7616 H 699.112 -1.71391 -3.3253 0
M  V30 7617 H 700.445 -2.23746 -4.38405 0
M  V30 7618 N 702.098 1.27442 -0.927168 0
M  V30 7619 C 703.028 2.29256 -0.443188 0
M  V30 7620 C 704.009 1.62701 0.49624 0
M  V30 7621 O 705.194 1.90013 0.401105 0
M  V30 7622 C 702.324 3.45955 0.305366 0
M  V30 7623 C 701.278 4.24501 -0.546178 0
M  V30 7624 C 700.604 5.33671 0.331512 0
M  V30 7625 C 701.904 4.89921 -1.81037 0
M  V30 7626 H 703.598 2.69988 -1.29409 0
M  V30 7627 H 701.144 1.29792 -0.623705 0
M  V30 7628 H 703.097 4.1628 0.654885 0
M  V30 7629 H 701.821 3.04138 1.19029 0
M  V30 7630 H 700.48 3.55921 -0.878398 0
M  V30 7631 H 700.128 4.88096 1.21537 0
M  V30 7632 H 699.828 5.87131 -0.234746 0
M  V30 7633 H 701.352 6.0684 0.676614 0
M  V30 7634 H 702.766 5.52536 -1.52895 0
M  V30 7635 H 701.163 5.53436 -2.32009 0
M  V30 7636 H 702.233 4.13652 -2.53021 0
M  V30 7637 N 703.576 0.692616 1.41565 0
M  V30 7638 C 704.987 0.297478 1.84315 0
M  V30 7639 C 705.338 -1.16379 1.57957 0
M  V30 7640 O 704.463 -1.89303 1.0485 0
M  V30 7641 C 705.058 0.533136 3.34579 0
M  V30 7642 C 703.617 0.191944 3.7591 0
M  V30 7643 C 702.764 0.816873 2.64995 0
M  V30 7644 H 705.715 0.893488 1.31158 0
M  V30 7645 H 705.736 -0.209105 3.79925 0
M  V30 7646 H 705.248 1.59674 3.53731 0
M  V30 7647 H 703.349 -0.867512 3.6236 0
M  V30 7648 H 703.462 0.644902 4.7474 0
M  V30 7649 H 701.826 0.246715 2.53502 0
M  V30 7650 H 702.609 1.88429 2.86966 0
M  V30 7651 N 705.054 -1.51416 0.437162 0
M  V30 7652 C 705.986 -2.255 -0.410171 0
M  V30 7653 C 706.999 -1.29511 -0.986444 0
M  V30 7654 O 708.188 -1.55266 -0.880614 0
M  V30 7655 C 705.288 -2.99511 -1.58575 0
M  V30 7656 C 704.461 -4.22595 -1.12839 0
M  V30 7657 C 703.52 -4.79187 -2.17407 0
M  V30 7658 O 702.546 -5.4103 -1.76849 0
M  V30 7659 N 703.748 -4.63204 -3.49889 0
M  V30 7660 H 706.513 -2.98856 0.224783 0
M  V30 7661 H 704.074 -1.59699 0.266041 0
M  V30 7662 H 706.066 -3.34258 -2.28152 0
M  V30 7663 H 704.636 -2.29167 -2.12606 0
M  V30 7664 H 703.856 -3.93344 -0.259695 0
M  V30 7665 H 705.144 -5.02468 -0.800196 0
M  V30 7666 H 704.542 -4.13945 -3.85573 0
M  V30 7667 H 703.099 -5.02313 -4.15361 0
M  V30 7668 N 706.532 -0.168513 -1.56696 0
M  V30 7669 C 707.948 0.187686 -1.58493 0
M  V30 7670 C 708.148 1.63063 -1.18375 0
M  V30 7671 O 707.204 2.36142 -0.894042 0
M  V30 7672 C 708.517 -0.0905858 -3.00564 0
M  V30 7673 C 710.065 -0.028575 -3.12987 0
M  V30 7674 C 710.54 -0.279799 -4.57145 0
M  V30 7675 N 712.031 -0.227476 -4.62641 0
M  V30 7676 C 712.766 -0.396073 -5.7203 0
M  V30 7677 N 712.262 -0.623572 -6.89988 0
M  V30 7678 N 714.055 -0.332173 -5.61118 0
M  V30 7679 H 706.206 -1.11042 -1.81062 0
M  V30 7680 H 708.469 -0.441235 -0.839056 0
M  V30 7681 H 708.175 -1.09006 -3.34381 0
M  V30 7682 H 708.049 0.619078 -3.72085 0
M  V30 7683 H 710.436 0.961471 -2.78998 0
M  V30 7684 H 710.517 -0.770905 -2.43907 0
M  V30 7685 H 710.161 -1.26704 -4.91842 0
M  V30 7686 H 710.091 0.48311 -5.24379 0
M  V30 7687 H 712.582 -0.0571723 -3.77857 0
M  V30 7688 H 712.895 -0.741745 -7.69232 0
M  V30 7689 H 711.24 -0.660153 -6.91858 0
M  V30 7690 H 714.431 -0.155051 -4.67843 0
M  V30 7691 H 714.604 -0.466994 -6.46315 0
M  V30 7692 N 708.01 1.57248 0.105221 0
M  V30 7693 C 709.287 1.76566 0.841647 0
M  V30 7694 C 709.667 0.747566 1.9742 0
M  V30 7695 O 709.015 -0.225886 2.27381 0
M  V30 7696 C 709.225 3.22016 1.3456 0
M  V30 7697 C 710.573 3.84911 1.79244 0
M  V30 7698 O 711.597 3.25703 1.44207 0
M  V30 7699 O 710.456 4.89008 2.43995 0
M  V30 7700 H 707.55 0.723443 0.400698 0
M  V30 7701 H 710.096 1.69472 0.0878893 0
M  V30 7702 H 708.868 3.87644 0.533685 0
M  V30 7703 H 708.491 3.33703 2.16167 0
M  V30 7704 N 709.488 -0.375779 1.53054 0
M  V30 7705 C 710.734 -1.12114 1.68992 0
M  V30 7706 C 711.067 -1.8926 0.435238 0
M  V30 7707 O 710.342 -1.86044 -0.567278 0
M  V30 7708 C 710.625 -2.08867 2.93337 0
M  V30 7709 C 710.478 -1.35397 4.28938 0
M  V30 7710 C 711.797 -3.09124 3.13257 0
M  V30 7711 H 708.916 -0.406207 0.614951 0
M  V30 7712 H 711.558 -0.403054 1.85676 0
M  V30 7713 H 709.708 -2.70102 2.79244 0
M  V30 7714 H 711.38 -0.770242 4.54824 0
M  V30 7715 H 709.623 -0.655801 4.28814 0
M  V30 7716 H 710.294 -2.06161 5.12056 0
M  V30 7717 H 712.77 -2.57987 3.26469 0
M  V30 7718 H 711.646 -3.74054 4.01715 0
M  V30 7719 H 711.907 -3.78729 2.28072 0
M  V30 7720 N 710.966 -1.44241 -0.634997 0
M  V30 7721 C 712.213 -1.46821 -1.39463 0
M  V30 7722 C 712.541 -0.0993362 -1.94246 0
M  V30 7723 O 711.796 0.898325 -1.73864 0
M  V30 7724 C 712.095 -2.47279 -2.58046 0
M  V30 7725 C 711.761 -3.92703 -2.21574 0
M  V30 7726 C 710.423 -4.32306 -2.1134 0
M  V30 7727 C 712.775 -4.84271 -1.92695 0
M  V30 7728 C 710.103 -5.61407 -1.70409 0
M  V30 7729 C 712.455 -6.13755 -1.53258 0
M  V30 7730 C 711.119 -6.52316 -1.41562 0
M  V30 7731 H 710.389 -0.537256 -0.51033 0
M  V30 7732 H 713.036 -1.77431 -0.720441 0
M  V30 7733 H 711.341 -2.10138 -3.3068 0
M  V30 7734 H 713.038 -2.46523 -3.16271 0
M  V30 7735 H 709.628 -3.61369 -2.30456 0
M  V30 7736 H 713.812 -4.54432 -1.99513 0
M  V30 7737 H 709.068 -5.90105 -1.59955 0
M  V30 7738 H 713.242 -6.84168 -1.29949 0
M  V30 7739 H 710.869 -7.52255 -1.09619 0
M  V30 7740 N 712.444 0.87505 -1.31075 0
M  V30 7741 C 713.669 1.66583 -1.23551 0
M  V30 7742 C 714.094 1.87067 0.19686 0
M  V30 7743 O 713.452 1.40877 1.1412 0
M  V30 7744 C 713.5 3.01401 -1.97965 0
M  V30 7745 O 712.604 3.90923 -1.31351 0
M  V30 7746 H 711.945 0.508645 -0.426821 0
M  V30 7747 H 714.475 1.09139 -1.7306 0
M  V30 7748 H 714.485 3.51374 -2.07366 0
M  V30 7749 H 713.16 2.85812 -3.02133 0
M  V30 7750 H 711.737 3.49369 -1.30368 0
M  V30 7751 N 713.922 1.13953 1.08869 0
M  V30 7752 C 715.17 0.903023 1.80803 0
M  V30 7753 C 715.491 -0.572151 1.86417 0
M  V30 7754 O 714.761 -1.41589 1.35386 0
M  V30 7755 H 713.341 0.331099 0.669614 0
M  V30 7756 H 716.003 1.43719 1.31647 0
M  V30 7757 H 715.099 1.29881 2.83791 0
M  V30 7758 N 715.4 -1.26948 0.933913 0
M  V30 7759 C 716.625 -1.98724 0.593589 0
M  V30 7760 C 717.05 -1.6915 -0.822801 0
M  V30 7761 O 716.408 -0.93533 -1.5531 0
M  V30 7762 C 716.456 -3.50834 0.833542 0
M  V30 7763 O 715.56 -4.12284 -0.0978788 0
M  V30 7764 H 714.901 -0.623683 0.227849 0
M  V30 7765 H 717.431 -1.61599 1.25486 0
M  V30 7766 H 717.441 -4.01018 0.75156 0
M  V30 7767 H 716.116 -3.71691 1.86597 0
M  V30 7768 H 714.693 -3.72884 0.0345443 0
M  V30 7769 N 716.879 -0.700114 -1.41195 0
M  V30 7770 C 718.156 -0.160836 -1.94938 0
M  V30 7771 C 718.536 1.33014 -1.63922 0
M  V30 7772 O 717.884 2.07878 -0.948636 0
M  V30 7773 C 718.094 -0.456991 -3.45995 0
M  V30 7774 C 719.442 -0.387207 -4.22831 0
M  V30 7775 O 720.466 -0.392164 -3.54035 0
M  V30 7776 O 719.325 -0.351267 -5.4537 0
M  V30 7777 H 716.419 -0.0176304 -0.826812 0
M  V30 7778 H 718.965 -0.776586 -1.50888 0
M  V30 7779 H 717.737 -1.48884 -3.61869 0
M  V30 7780 H 717.36 0.189503 -3.97148 0
M  V30 7781 N 718.357 1.51182 -0.445186 0
M  V30 7782 C 719.585 2.06568 0.117091 0
M  V30 7783 C 720 1.31182 1.35781 0
M  V30 7784 O 719.357 0.373605 1.78635 0
M  V30 7785 C 719.408 3.58917 0.431408 0
M  V30 7786 O 719.129 4.31456 -0.760078 0
M  V30 7787 C 720.63 4.30843 1.0435 0
M  V30 7788 H 717.85 0.670985 0.00444436 0
M  V30 7789 H 720.394 1.94666 -0.626525 0
M  V30 7790 H 718.549 3.70708 1.12493 0
M  V30 7791 H 718.963 5.22215 -0.489048 0
M  V30 7792 H 720.437 5.38499 1.21337 0
M  V30 7793 H 720.914 3.89644 2.02667 0
M  V30 7794 H 721.52 4.23516 0.38913 0
M  V30 7795 N 719.835 0.176821 1.56605 0
M  V30 7796 C 721.112 -0.513365 1.88743 0
M  V30 7797 C 721.492 -1.80929 1.08757 0
M  V30 7798 O 720.84 -2.27765 0.183127 0
M  V30 7799 C 721.05 -0.749925 3.40848 0
M  V30 7800 C 722.398 -1.07747 4.10701 0
M  V30 7801 O 723.422 -0.838277 3.46196 0
M  V30 7802 O 722.281 -1.52901 5.24675 0
M  V30 7803 H 719.375 -0.265296 0.783292 0
M  V30 7804 H 721.921 0.215669 1.68324 0
M  V30 7805 H 720.693 0.16599 3.90948 0
M  V30 7806 H 720.316 -1.53208 3.66897 0
M  V30 7807 N 721.313 -1.57302 -0.09688 0
M  V30 7808 C 722.724 -1.7496 -0.651595 0
M  V30 7809 C 723.075 -0.798746 -1.79205 0
M  V30 7810 O 722.2 0.0231858 -2.16388 0
M  V30 7811 C 722.795 -3.17259 -1.18878 0
M  V30 7812 C 721.354 -3.36348 -1.68958 0
M  V30 7813 C 720.501 -2.70766 -0.598413 0
M  V30 7814 H 723.452 -1.58173 0.12918 0
M  V30 7815 H 723.473 -3.20033 -2.05814 0
M  V30 7816 H 722.985 -3.8644 -0.358523 0
M  V30 7817 H 721.086 -2.72243 -2.5439 0
M  V30 7818 H 721.199 -4.44654 -1.7838 0
M  V30 7819 H 719.563 -2.32615 -1.03743 0
M  V30 7820 H 720.346 -3.42586 0.221238 0
M  V30 7821 N 722.791 0.367657 -1.53252 0
M  V30 7822 C 724.068 1.12606 -1.59935 0
M  V30 7823 C 724.448 2.07167 -0.405606 0
M  V30 7824 O 723.796 2.20364 0.604323 0
M  V30 7825 C 724.006 1.86699 -2.94863 0
M  V30 7826 C 725.354 2.41306 -3.49366 0
M  V30 7827 O 726.378 1.96828 -2.96879 0
M  V30 7828 O 725.237 3.2261 -4.41118 0
M  V30 7829 H 722.331 0.516438 -0.645926 0
M  V30 7830 H 724.877 0.371088 -1.65593 0
M  V30 7831 H 723.649 1.17674 -3.73187 0
M  V30 7832 H 723.272 2.6911 -2.92687 0
M  V30 7833 N 724.269 1.44576 0.627338 0
M  V30 7834 C 725.202 1.46206 1.75212 0
M  V30 7835 C 726.18 0.320483 1.5941 0
M  V30 7836 O 727.364 0.518028 1.81242 0
M  V30 7837 C 724.491 1.29834 3.12827 0
M  V30 7838 C 723.537 2.47603 3.47268 0
M  V30 7839 S 724.37 4.10125 3.44322 0
M  V30 7840 C 725.526 3.96183 4.84551 0
M  V30 7841 H 725.759 2.41378 1.73563 0
M  V30 7842 H 723.292 1.3192 0.802283 0
M  V30 7843 H 725.25 1.21075 3.92239 0
M  V30 7844 H 723.911 0.361662 3.12011 0
M  V30 7845 H 723.104 2.3202 4.47418 0
M  V30 7846 H 722.706 2.53121 2.75329 0
M  V30 7847 H 724.998 3.60107 5.73872 0
M  V30 7848 H 725.941 4.96176 5.05188 0
M  V30 7849 H 726.349 3.28177 4.59304 0
M  V30 7850 N 725.747 -0.868086 1.31537 0
M  V30 7851 C 726.71 -1.95703 1.19302 0
M  V30 7852 C 727.71 -1.60355 0.119612 0
M  V30 7853 O 728.9 -1.70247 0.36902 0
M  V30 7854 C 726.032 -3.30599 0.831684 0
M  V30 7855 H 727.225 -2.07982 2.16064 0
M  V30 7856 H 724.778 -1.05661 1.15176 0
M  V30 7857 H 725.513 -3.2402 -0.134694 0
M  V30 7858 H 725.298 -3.57629 1.60761 0
M  V30 7859 H 726.788 -4.10439 0.770026 0
M  V30 7860 N 727.225 -1.14528 -1.08264 0
M  V30 7861 C 728.472 -0.914405 -1.80679 0
M  V30 7862 C 728.8 0.558952 -1.86295 0
M  V30 7863 O 728.055 1.43017 -1.33584 0
M  V30 7864 C 728.354 -1.46226 -3.26117 0
M  V30 7865 C 728.02 -2.95451 -3.40616 0
M  V30 7866 C 726.682 -3.36191 -3.4428 0
M  V30 7867 C 729.034 -3.91399 -3.44175 0
M  V30 7868 C 726.362 -4.71539 -3.49096 0
M  V30 7869 C 728.714 -5.26606 -3.50526 0
M  V30 7870 C 727.378 -5.66856 -3.52464 0
M  V30 7871 H 726.648 -0.334604 -0.661151 0
M  V30 7872 H 729.295 -1.4292 -1.27461 0
M  V30 7873 H 727.6 -0.868442 -3.82054 0
M  V30 7874 H 729.297 -1.25955 -3.80705 0
M  V30 7875 H 725.887 -2.62955 -3.38456 0
M  V30 7876 H 730.071 -3.61004 -3.40573 0
M  V30 7877 H 725.327 -5.02082 -3.4889 0
M  V30 7878 H 729.501 -6.00758 -3.52225 0
M  V30 7879 H 727.128 -6.71718 -3.55948 0
M  V30 7880 N 728.703 1.26451 -0.940633 0
M  V30 7881 C 729.943 1.95537 -0.595381 0
M  V30 7882 C 730.307 1.72175 0.849683 0
M  V30 7883 O 731.508 2.3506 1.30384 0
M  V30 7884 C 729.779 3.45151 -0.927669 0
M  V30 7885 S 731.338 4.33295 -0.69288 0
M  V30 7886 H 728.156 0.676331 -0.219311 0
M  V30 7887 H 730.758 1.53411 -1.21183 0
M  V30 7888 H 729.462 3.59654 -1.9768 0
M  V30 7889 H 728.993 3.92247 -0.300921 0
M  V30 7890 H 731.008 4.94217 0.443175 0
M  V30 7891 N 730.181 0.707592 1.40822 0
M  V30 7892 C 731.128 0.0499029 2.30746 0
M  V30 7893 C 732.098 -0.758718 1.47759 0
M  V30 7894 O 733.283 -0.724299 1.76518 0
M  V30 7895 C 730.423 -0.871756 3.33908 0
M  V30 7896 C 729.536 -0.0534655 4.31967 0
M  V30 7897 C 728.671 -0.973869 5.22197 0
M  V30 7898 C 727.71 -0.149194 6.11918 0
M  V30 7899 N 726.847 -1.02404 6.94592 0
M  V30 7900 H 731.687 0.822461 2.86426 0
M  V30 7901 H 729.224 0.417285 1.41057 0
M  V30 7902 H 731.182 -1.42028 3.9228 0
M  V30 7903 H 729.812 -1.61058 2.7975 0
M  V30 7904 H 728.864 0.612142 3.75442 0
M  V30 7905 H 730.176 0.585354 4.95353 0
M  V30 7906 H 729.33 -1.59121 5.85462 0
M  V30 7907 H 728.069 -1.64652 4.59065 0
M  V30 7908 H 727.074 0.481137 5.47691 0
M  V30 7909 H 728.299 0.519841 6.77107 0
M  V30 7910 H 726.245 -1.6825 6.34057 0
M  V30 7911 H 726.162 -0.441076 7.54712 0
M  V30 7912 H 727.43 -1.62782 7.62314 0
M  V30 7913 N 731.66 -1.50943 0.453197 0
M  V30 7914 C 732.885 -2.07116 -0.108463 0
M  V30 7915 C 733.31 -1.31681 -1.3432 0
M  V30 7916 O 732.668 -0.359256 -1.77705 0
M  V30 7917 C 732.716 -3.58447 -0.393424 0
M  V30 7918 O 731.82 -3.85038 -1.47714 0
M  V30 7919 H 731.161 -0.66398 0.0050993 0
M  V30 7920 H 733.691 -1.94362 0.639095 0
M  V30 7921 H 733.701 -4.02961 -0.639222 0
M  V30 7922 H 732.376 -4.12774 0.508946 0
M  V30 7923 H 730.953 -3.52376 -1.22006 0
M  V30 7924 N 733.138 -0.185124 -1.56509 0
M  V30 7925 C 734.385 0.456258 -1.97293 0
M  V30 7926 C 734.713 1.62314 -1.07165 0
M  V30 7927 O 733.968 1.95398 -0.108621 0
M  V30 7928 C 734.267 0.967977 -3.44042 0
M  V30 7929 C 733.933 -0.084476 -4.50821 0
M  V30 7930 C 732.595 -0.373689 -4.79747 0
M  V30 7931 C 734.947 -0.79812 -5.15053 0
M  V30 7932 C 732.275 -1.3817 -5.70198 0
M  V30 7933 C 734.627 -1.79521 -6.06593 0
M  V30 7934 C 733.291 -2.09172 -6.3388 0
M  V30 7935 H 732.561 0.166957 -0.721946 0
M  V30 7936 H 735.208 -0.279992 -1.89442 0
M  V30 7937 H 733.513 1.78231 -3.48914 0
M  V30 7938 H 735.21 1.47347 -3.72948 0
M  V30 7939 H 731.8 0.15111 -4.28334 0
M  V30 7940 H 735.984 -0.587903 -4.92806 0
M  V30 7941 H 731.24 -1.61745 -5.89617 0
M  V30 7942 H 735.414 -2.35347 -6.55427 0
M  V30 7943 H 733.041 -2.87427 -7.03768 0
M  V30 7944 N 734.616 1.57351 0.0885366 0
M  V30 7945 C 736.032 1.53331 0.442916 0
M  V30 7946 C 736.232 0.902831 1.80142 0
M  V30 7947 O 735.288 0.498147 2.47537 0
M  V30 7948 C 736.601 2.98036 0.399372 0
M  V30 7949 C 738.149 3.09286 0.480759 0
M  V30 7950 C 738.624 4.5561 0.467296 0
M  V30 7951 N 740.115 4.60182 0.52786 0
M  V30 7952 C 740.85 5.70857 0.539388 0
M  V30 7953 N 740.346 6.90944 0.506729 0
M  V30 7954 N 742.139 5.59051 0.584691 0
M  V30 7955 H 734.29 1.96709 -0.801215 0
M  V30 7956 H 736.553 0.899639 -0.298922 0
M  V30 7957 H 736.259 3.47656 -0.531806 0
M  V30 7958 H 736.133 3.57066 1.21589 0
M  V30 7959 H 738.52 2.5965 1.40236 0
M  V30 7960 H 738.601 2.53197 -0.364023 0
M  V30 7961 H 738.245 5.05899 -0.450384 0
M  V30 7962 H 738.175 5.09544 1.32938 0
M  V30 7963 H 740.666 3.73757 0.558028 0
M  V30 7964 H 740.979 7.71055 0.518989 0
M  V30 7965 H 739.324 6.93384 0.473675 0
M  V30 7966 H 742.515 4.64138 0.607781 0
M  V30 7967 H 742.688 6.45307 0.590206 0
M  V30 7968 N 736.094 -0.359525 1.53444 0
M  V30 7969 C 737.371 -1.11756 1.6053 0
M  V30 7970 C 737.751 -2.06949 0.416587 0
M  V30 7971 O 737.099 -2.20681 -0.592628 0
M  V30 7972 C 737.309 -1.85133 2.95849 0
M  V30 7973 C 738.657 -2.3945 3.50641 0
M  V30 7974 O 739.681 -1.95251 2.97918 0
M  V30 7975 O 738.54 -3.20266 4.42823 0
M  V30 7976 H 735.634 -0.513005 0.648656 0
M  V30 7977 H 738.18 -0.362301 1.65787 0
M  V30 7978 H 736.952 -1.15694 3.73806 0
M  V30 7979 H 736.575 -2.67554 2.9411 0
M  V30 7980 N 737.572 -1.44907 -0.619662 0
M  V30 7981 C 738.519 -1.52654 -1.73105 0
M  V30 7982 C 739.489 -0.373334 -1.6185 0
M  V30 7983 O 740.674 -0.585143 -1.81606 0
M  V30 7984 C 737.814 -1.48769 -3.11387 0
M  V30 7985 C 736.927 -2.74551 -3.33535 0
M  V30 7986 C 736.062 -2.62421 -4.61854 0
M  V30 7987 C 735.101 -3.83312 -4.77219 0
M  V30 7988 N 734.238 -3.69789 -5.96826 0
M  V30 7989 H 739.078 -2.47605 -1.65819 0
M  V30 7990 H 736.615 -1.22875 -0.808719 0
M  V30 7991 H 738.573 -1.44507 -3.91374 0
M  V30 7992 H 737.203 -0.573783 -3.1766 0
M  V30 7993 H 736.255 -2.88953 -2.47408 0
M  V30 7994 H 737.567 -3.64253 -3.40765 0
M  V30 7995 H 736.721 -2.56056 -5.50019 0
M  V30 7996 H 735.46 -1.70298 -4.57001 0
M  V30 7997 H 734.465 -3.90049 -3.87481 0
M  V30 7998 H 735.69 -4.76486 -4.83878 0
M  V30 7999 H 733.636 -2.80426 -5.93041 0
M  V30 8000 H 733.553 -4.53116 -6.05163 0
M  V30 8001 H 734.821 -3.67335 -6.87521 0
M  V30 8002 N 739.05 0.861098 -1.31996 0
M  V30 8003 C 740.298 1.61162 -1.21947 0
M  V30 8004 C 740.619 1.93751 0.220351 0
M  V30 8005 O 739.889 1.59069 1.14341 0
M  V30 8006 H 738.469 0.597485 -0.448353 0
M  V30 8007 H 741.131 1.03039 -1.65436 0
M  V30 8008 H 740.227 2.55138 -1.79752 0
M  V30 8009 N 740.528 1.15101 1.07655 0
M  V30 8010 C 741.777 0.918528 1.79572 0
M  V30 8011 C 742.09 -0.555922 1.87534 0
M  V30 8012 O 743.296 -0.905893 2.55941 0
M  V30 8013 C 741.752 1.59394 3.22679 0
M  V30 8014 C 741.36 3.1052 3.22927 0
M  V30 8015 C 743.104 1.44289 3.99225 0
M  V30 8016 C 741.011 3.70862 4.60668 0
M  V30 8017 H 739.941 0.340006 0.672987 0
M  V30 8018 H 742.592 1.38079 1.20857 0
M  V30 8019 H 740.974 1.05936 3.81567 0
M  V30 8020 H 742.148 3.70708 2.737 0
M  V30 8021 H 740.463 3.25351 2.59876 0
M  V30 8022 H 743.06 1.86766 5.01022 0
M  V30 8023 H 743.403 0.389975 4.14469 0
M  V30 8024 H 743.936 1.94826 3.46825 0
M  V30 8025 H 740.675 4.7604 4.50628 0
M  V30 8026 H 740.195 3.15456 5.10145 0
M  V30 8027 H 741.874 3.71607 5.29639 0
M  V30 8028 N 742.006 -1.2595 0.947325 0
M  V30 8029 C 743.253 -1.93463 0.598178 0
M  V30 8030 C 743.581 -1.74271 -0.863705 0
M  V30 8031 O 742.836 -1.07684 -1.63409 0
M  V30 8032 C 743.135 -3.46034 0.894158 0
M  V30 8033 C 742.801 -3.85373 2.3409 0
M  V30 8034 C 741.463 -3.95823 2.73637 0
M  V30 8035 C 743.815 -4.04986 3.2808 0
M  V30 8036 C 741.143 -4.23288 4.06257 0
M  V30 8037 C 743.495 -4.3394 4.60303 0
M  V30 8038 C 742.159 -4.42606 4.99656 0
M  V30 8039 H 741.429 -0.707933 0.218889 0
M  V30 8040 H 744.076 -1.4964 1.19499 0
M  V30 8041 H 742.381 -3.9121 0.214874 0
M  V30 8042 H 744.078 -3.96445 0.602698 0
M  V30 8043 H 740.668 -3.7779 2.02417 0
M  V30 8044 H 744.852 -3.96333 2.9872 0
M  V30 8045 H 740.108 -4.28211 4.36401 0
M  V30 8046 H 744.282 -4.48061 5.33118 0
M  V30 8047 H 741.909 -4.63641 6.02446 0
M  V30 8048 N 743.484 -0.715051 -1.40445 0
M  V30 8049 C 744.414 -0.0768699 -2.33373 0
M  V30 8050 C 745.395 0.746109 -1.52863 0
M  V30 8051 O 746.58 0.695142 -1.81332 0
M  V30 8052 C 743.71 0.846014 -3.36838 0
M  V30 8053 C 742.664 0.128694 -4.27806 0
M  V30 8054 C 741.99 1.16726 -5.21804 0
M  V30 8055 C 743.29 -1.01679 -5.12307 0
M  V30 8056 H 744.984 -0.853061 -2.8699 0
M  V30 8057 H 742.53 -0.41167 -1.3799 0
M  V30 8058 H 744.483 1.30185 -4.00786 0
M  V30 8059 H 743.207 1.6541 -2.81615 0
M  V30 8060 H 741.866 -0.307314 -3.6531 0
M  V30 8061 H 741.514 1.96838 -4.62887 0
M  V30 8062 H 741.214 0.692188 -5.83509 0
M  V30 8063 H 742.738 1.62321 -5.88629 0
M  V30 8064 H 744.152 -0.640337 -5.69713 0
M  V30 8065 H 742.549 -1.4202 -5.83053 0
M  V30 8066 H 743.619 -1.84769 -4.48317 0
M  V30 8067 N 744.962 1.50701 -0.461195 0
M  V30 8068 C 745.912 2.25195 0.35653 0
M  V30 8069 C 746.896 1.2838 0.96992 0
M  V30 8070 O 748.088 1.53338 0.884108 0
M  V30 8071 C 745.217 3.11471 1.44364 0
M  V30 8072 C 744.303 4.15729 0.83847 0
M  V30 8073 N 744.694 5.05788 -0.0353198 0
M  V30 8074 C 742.992 4.32133 1.1035 0
M  V30 8075 C 743.693 5.80472 -0.37774 0
M  V30 8076 N 742.669 5.43049 0.24463 0
M  V30 8077 H 746.471 2.92188 -0.316746 0
M  V30 8078 H 743.985 1.60059 -0.274725 0
M  V30 8079 H 745.982 3.63436 2.04255 0
M  V30 8080 H 744.642 2.46025 2.11901 0
M  V30 8081 H 745.653 5.16326 -0.403465 0
M  V30 8082 H 742.33 3.77908 1.77458 0
M  V30 8083 H 743.72 6.62996 -1.09024 0
M  V30 8084 N 746.441 0.193421 1.56409 0
M  V30 8085 C 747.371 -0.723334 2.22014 0
M  V30 8086 C 748.352 -1.22254 1.1827 0
M  V30 8087 O 749.537 -1.27168 1.46771 0
M  V30 8088 C 746.667 -1.94366 2.87818 0
M  V30 8089 C 745.621 -1.57943 3.97791 0
M  V30 8090 C 744.947 -2.87623 4.50752 0
M  V30 8091 C 746.247 -0.790639 5.16281 0
M  V30 8092 H 747.941 -0.176426 2.9888 0
M  V30 8093 H 745.487 -0.0834166 1.43758 0
M  V30 8094 H 747.44 -2.5902 3.32396 0
M  V30 8095 H 746.164 -2.51507 2.08355 0
M  V30 8096 H 744.823 -0.956482 3.53903 0
M  V30 8097 H 744.471 -3.4285 3.68053 0
M  V30 8098 H 744.171 -2.63998 5.24956 0
M  V30 8099 H 745.695 -3.53268 4.9803 0
M  V30 8100 H 747.109 -1.34024 5.57414 0
M  V30 8101 H 745.506 -0.65258 5.96541 0
M  V30 8102 H 746.576 0.208633 4.84451 0
M  V30 8103 N 747.919 -1.57396 -0.0801906 0
M  V30 8104 C 749.144 -1.91437 -0.797909 0
M  V30 8105 C 749.569 -0.789075 -1.70749 0
M  V30 8106 O 748.927 0.25857 -1.79447 0
M  V30 8107 C 748.975 -3.24402 -1.57467 0
M  V30 8108 O 748.079 -3.13043 -2.68473 0
M  V30 8109 H 747.42 -0.627109 -0.218243 0
M  V30 8110 H 749.95 -2.04537 -0.050949 0
M  V30 8111 H 749.96 -3.58072 -1.95571 0
M  V30 8112 H 748.635 -4.05884 -0.907229 0
M  V30 8113 H 747.212 -2.90915 -2.33287 0
M  V30 8114 N 749.397 0.351382 -1.53633 0
M  V30 8115 C 750.345 1.45142 -1.8176 0
M  V30 8116 C 751.339 1.54819 -0.687571 0
M  V30 8117 O 752.545 1.57536 -0.870772 0
M  V30 8118 H 748.92 0.483789 -0.575719 0
M  V30 8119 H 750.891 1.1863 -2.73806 0
M  V30 8120 C 749.64 2.81779 -2.03706 0
M  V30 8121 H 748.963 2.75097 -2.90107 0
M  V30 8122 H 750.403 3.5789 -2.27356 0
M  V30 8123 C 748.862 3.26762 -0.820271 0
M  V30 8124 O 749.392 4.01697 -0.0158603 0
M  V30 8125 N 747.598 2.83472 -0.639699 0
M  V30 8126 H 747.145 2.22655 -1.29547 0
M  V30 8127 H 747.103 3.13924 0.172995 0
M  V30 8128 N 750.875 1.45233 0.611969 0
M  V30 8129 C 751.807 1.49575 1.73666 0
M  V30 8130 C 752.82 0.386987 1.58134 0
M  V30 8131 O 754.009 0.653804 1.66095 0
M  V30 8132 C 751.109 1.33223 3.11617 0
M  V30 8133 C 750.282 2.57694 3.5343 0
M  V30 8134 C 749.341 2.35962 4.70328 0
M  V30 8135 O 748.367 3.09553 4.77667 0
M  V30 8136 N 749.569 1.40243 5.63305 0
M  V30 8137 H 752.334 2.46539 1.70407 0
M  V30 8138 H 749.895 1.40917 0.79712 0
M  V30 8139 H 751.887 1.16502 3.87569 0
M  V30 8140 H 750.457 0.44551 3.09409 0
M  V30 8141 H 749.677 2.8956 2.67486 0
M  V30 8142 H 750.965 3.40441 3.78124 0
M  V30 8143 H 750.363 0.795023 5.60086 0
M  V30 8144 H 748.92 1.29496 6.38807 0
M  V30 8145 N 752.353 -0.854086 1.3245 0
M  V30 8146 C 753.303 -1.9508 1.18016 0
M  V30 8147 C 754.287 -1.60665 0.0869417 0
M  V30 8148 O 755.479 -1.74201 0.313505 0
M  V30 8149 C 752.608 -3.3113 0.905961 0
M  V30 8150 C 751.694 -3.71763 2.04091 0
M  V30 8151 N 752.085 -3.84218 3.28953 0
M  V30 8152 C 750.383 -4.01393 1.94421 0
M  V30 8153 C 751.084 -4.192 4.03294 0
M  V30 8154 N 750.06 -4.30749 3.31596 0
M  V30 8155 H 753.862 -2.02843 2.12678 0
M  V30 8156 H 751.376 -1.04588 1.24238 0
M  V30 8157 H 753.373 -4.09471 0.783508 0
M  V30 8158 H 752.033 -3.24684 -0.0322715 0
M  V30 8159 H 753.044 -3.68524 3.63883 0
M  V30 8160 H 749.721 -4.03246 1.08162 0
M  V30 8161 H 751.111 -4.36301 5.1097 0
M  V30 8162 N 753.831 -1.1567 -1.07043 0
M  V30 8163 C 754.741 -0.870435 -2.17855 0
M  V30 8164 C 755.757 0.154452 -1.73313 0
M  V30 8165 O 756.933 -0.0203759 -2.0139 0
M  V30 8166 C 753.998 -0.367219 -3.4475 0
M  V30 8167 C 753.059 -1.45639 -4.03841 0
M  V30 8168 C 752.292 -0.977092 -5.2468 0
M  V30 8169 O 752.515 0.176127 -5.70128 0
M  V30 8170 O 751.449 -1.76215 -5.75527 0
M  V30 8171 H 755.275 -1.79687 -2.44839 0
M  V30 8172 H 752.86 -0.936064 -1.1644 0
M  V30 8173 H 754.742 -0.0931947 -4.21297 0
M  V30 8174 H 753.417 0.53131 -3.1931 0
M  V30 8175 H 752.324 -1.78406 -3.28819 0
M  V30 8176 H 753.657 -2.32995 -4.3356 0
M  V30 8177 N 755.309 1.25446 -0.953992 0
M  V30 8178 C 756.556 1.93143 -0.608429 0
M  V30 8179 C 756.884 1.74727 0.854451 0
M  V30 8180 O 756.139 1.0855 1.62836 0
M  V30 8181 C 756.438 3.45555 -0.912496 0
M  V30 8182 C 756.104 3.84126 -2.36131 0
M  V30 8183 C 754.766 3.94367 -2.75732 0
M  V30 8184 C 757.118 4.0324 -3.30223 0
M  V30 8185 C 754.446 4.21127 -4.08496 0
M  V30 8186 C 756.798 4.31493 -4.62598 0
M  V30 8187 C 755.462 4.3995 -5.01996 0
M  V30 8188 H 754.732 0.706762 -0.22264 0
M  V30 8189 H 757.379 1.49005 -1.20291 0
M  V30 8190 H 755.684 3.91091 -0.235618 0
M  V30 8191 H 757.381 3.9612 -0.623714 0
M  V30 8192 H 753.971 3.76711 -2.04418 0
M  V30 8193 H 758.155 3.94744 -3.00817 0
M  V30 8194 H 753.411 4.2589 -4.38665 0
M  V30 8195 H 757.585 4.45227 -5.35486 0
M  V30 8196 H 755.212 4.60439 -6.04896 0
M  V30 8197 N 756.787 0.722489 1.40064 0
M  V30 8198 C 758.035 0.264455 2.00362 0
M  V30 8199 C 758.356 -1.14847 1.57592 0
M  V30 8200 O 757.626 -1.77982 0.818477 0
M  V30 8201 H 756.206 0.0947846 0.740962 0
M  V30 8202 H 758.868 0.929659 1.71299 0
M  V30 8203 H 757.964 0.302977 3.10626 0
M  V30 8204 N 758.265 -1.50454 0.469181 0
M  V30 8205 C 759.681 -1.59124 0.123226 0
M  V30 8206 C 759.881 -1.47749 -1.37013 0
M  V30 8207 O 758.937 -1.335 -2.14322 0
M  V30 8208 C 760.25 -2.93101 0.67172 0
M  V30 8209 C 761.798 -3.06491 0.634978 0
M  V30 8210 C 762.273 -4.43041 1.16098 0
M  V30 8211 N 763.764 -4.49448 1.12031 0
M  V30 8212 C 764.499 -5.53491 1.49784 0
M  V30 8213 N 763.995 -6.64798 1.94976 0
M  V30 8214 N 765.788 -5.44025 1.41399 0
M  V30 8215 H 757.939 -1.56091 1.44046 0
M  V30 8216 H 760.202 -0.737564 0.59557 0
M  V30 8217 H 759.908 -3.06895 1.7178 0
M  V30 8218 H 759.782 -3.77027 0.114222 0
M  V30 8219 H 762.169 -2.92346 -0.402187 0
M  V30 8220 H 762.25 -2.24328 1.22926 0
M  V30 8221 H 761.894 -4.57935 2.19677 0
M  V30 8222 H 761.824 -5.23794 0.542939 0
M  V30 8223 H 764.315 -3.69575 0.788828 0
M  V30 8224 H 764.628 -7.40246 2.21936 0
M  V30 8225 H 762.973 -6.65923 1.98927 0
M  V30 8226 H 766.164 -4.55955 1.05935 0
M  V30 8227 H 766.337 -6.2499 1.71147 0
M  V30 8228 N 759.743 -0.201713 -1.56304 0
M  V30 8229 C 760.673 0.71155 -2.22394 0
M  V30 8230 C 761.654 1.21625 -1.18917 0
M  V30 8231 O 762.839 1.26388 -1.47444 0
M  V30 8232 C 759.969 1.92837 -2.88845 0
M  V30 8233 C 758.923 1.55831 -3.98623 0
M  V30 8234 C 758.249 2.85228 -4.52271 0
M  V30 8235 C 759.549 0.763249 -5.16693 0
M  V30 8236 H 761.243 0.160573 -2.98969 0
M  V30 8237 H 758.789 0.0757916 -1.438 0
M  V30 8238 H 760.742 2.57253 -3.33764 0
M  V30 8239 H 759.466 2.50398 -2.09686 0
M  V30 8240 H 758.125 0.9377 -3.54405 0
M  V30 8241 H 757.773 3.40893 -3.69866 0
M  V30 8242 H 757.473 2.6121 -5.26349 0
M  V30 8243 H 758.997 3.50622 -4.99897 0
M  V30 8244 H 760.411 1.31066 -5.58117 0
M  V30 8245 H 758.808 0.620935 -5.96879 0
M  V30 8246 H 759.878 -0.234322 -4.84334 0
M  V30 8247 N 761.222 1.57436 0.0718424 0
M  V30 8248 C 762.152 2.06724 1.08571 0
M  V30 8249 C 763.133 0.960731 1.40371 0
M  V30 8250 O 764.318 1.23345 1.49999 0
M  V30 8251 C 761.448 2.51112 2.39916 0
M  V30 8252 C 760.402 3.65639 2.22469 0
M  V30 8253 C 759.728 3.96082 3.59198 0
M  V30 8254 C 761.028 4.95687 1.64596 0
M  V30 8255 H 762.722 2.91679 0.675569 0
M  V30 8256 H 760.268 1.40319 0.32352 0
M  V30 8257 H 762.221 2.84206 3.11135 0
M  V30 8258 H 760.945 1.63186 2.8291 0
M  V30 8259 H 759.604 3.32828 1.53691 0
M  V30 8260 H 759.252 3.05287 3.99761 0
M  V30 8261 H 758.952 4.73199 3.48362 0
M  V30 8262 H 760.476 4.31672 4.31847 0
M  V30 8263 H 761.89 5.27011 2.25681 0
M  V30 8264 H 760.287 5.77126 1.64457 0
M  V30 8265 H 761.357 4.8108 0.60744 0
M  V30 8266 N 762.7 -0.34323 1.53817 0
M  V30 8267 C 763.663 -1.40444 1.8113 0
M  V30 8268 C 764.663 -1.45604 0.682366 0
M  V30 8269 O 765.853 -1.45974 0.950649 0
M  V30 8270 C 762.985 -2.79369 1.95361 0
M  V30 8271 H 764.178 -1.17489 2.75928 0
M  V30 8272 H 761.731 -0.577636 1.45234 0
M  V30 8273 H 762.466 -3.07607 1.02707 0
M  V30 8274 H 762.251 -2.7702 2.77493 0
M  V30 8275 H 763.741 -3.56178 2.18008 0
M  V30 8276 N 764.178 -1.45556 -0.604258 0
M  V30 8277 C 765.406 -1.53278 -1.38973 0
M  V30 8278 C 765.821 -0.166509 -1.88064 0
M  V30 8279 O 765.178 0.832519 -1.62405 0
M  V30 8280 C 765.229 -2.51992 -2.59195 0
M  V30 8281 O 764.95 -3.8331 -2.12143 0
M  V30 8282 C 766.451 -2.69445 -3.52015 0
M  V30 8283 H 763.671 -0.519003 -0.425297 0
M  V30 8284 H 766.215 -1.90773 -0.736621 0
M  V30 8285 H 764.37 -2.17561 -3.2054 0
M  V30 8286 H 764.784 -4.3685 -2.90279 0
M  V30 8287 H 766.258 -3.42485 -4.32907 0
M  V30 8288 H 766.735 -1.75596 -4.0257 0
M  V30 8289 H 767.341 -3.04886 -2.9652 0
M  V30 8290 N 765.656 0.84705 -1.32902 0
M  V30 8291 C 766.881 1.63925 -1.27056 0
M  V30 8292 C 767.306 1.87443 0.157136 0
M  V30 8293 O 766.664 1.43266 1.11106 0
M  V30 8294 C 766.712 2.97134 -2.04313 0
M  V30 8295 O 765.816 3.88049 -1.39614 0
M  V30 8296 H 765.157 0.499477 -0.437514 0
M  V30 8297 H 767.687 1.05443 -1.75336 0
M  V30 8298 H 767.697 3.46896 -2.14772 0
M  V30 8299 H 766.372 2.79339 -3.08128 0
M  V30 8300 H 764.949 3.46525 -1.3775 0
M  V30 8301 N 767.134 1.16236 1.06428 0
M  V30 8302 C 768.55 0.906983 1.31324 0
M  V30 8303 C 768.75 -0.440872 1.96618 0
M  V30 8304 O 767.806 -1.1807 2.23194 0
M  V30 8305 C 769.119 2.05501 2.19522 0
M  V30 8306 C 770.667 2.09061 2.32943 0
M  V30 8307 C 771.142 3.23214 3.24495 0
M  V30 8308 N 772.633 3.22922 3.32078 0
M  V30 8309 C 773.368 4.07889 4.03006 0
M  V30 8310 N 772.864 5.02941 4.76469 0
M  V30 8311 N 774.657 3.95881 3.99043 0
M  V30 8312 H 766.808 2.03015 0.624388 0
M  V30 8313 H 769.071 0.88576 0.337835 0
M  V30 8314 H 768.777 3.02847 1.78819 0
M  V30 8315 H 768.651 1.99538 3.201 0
M  V30 8316 H 771.038 1.12308 2.72893 0
M  V30 8317 H 771.119 2.19089 1.32037 0
M  V30 8318 H 770.763 4.20225 2.85261 0
M  V30 8319 H 770.693 3.10423 4.25377 0
M  V30 8320 H 773.184 2.54093 2.79724 0
M  V30 8321 H 773.497 5.64196 5.28112 0
M  V30 8322 H 771.842 5.06922 4.75453 0
M  V30 8323 H 775.033 3.20927 3.40769 0
M  V30 8324 H 775.206 4.62321 4.54052 0
M  V30 8325 N 768.612 -1.24939 0.960631 0
M  V30 8326 C 769.842 -1.96595 0.635123 0
M  V30 8327 C 770.25 -1.71538 -0.798206 0
M  V30 8328 O 769.593 -0.991727 -1.5463 0
M  V30 8329 C 769.655 -3.49994 0.821248 0
M  V30 8330 C 769.319 -3.98738 2.23287 0
M  V30 8331 C 770.316 -4.08965 3.21004 0
M  V30 8332 C 768.001 -4.32247 2.55867 0
M  V30 8333 C 769.995 -4.52025 4.49391 0
M  V30 8334 C 767.682 -4.74991 3.84482 0
M  V30 8335 C 768.68 -4.84844 4.81056 0
M  V30 8336 O 768.368 -5.26638 6.07378 0
M  V30 8337 H 768.1 -0.633265 0.23654 0
M  V30 8338 H 770.654 -1.5991 1.28911 0
M  V30 8339 H 768.884 -3.86543 0.110105 0
M  V30 8340 H 770.573 -4.02859 0.495892 0
M  V30 8341 H 771.339 -3.83302 2.97161 0
M  V30 8342 H 767.218 -4.23801 1.81421 0
M  V30 8343 H 770.762 -4.5963 5.24773 0
M  V30 8344 H 766.659 -5.00101 4.08129 0
M  V30 8345 H 767.427 -5.44807 6.10842 0
M  V30 8346 N 770.09 -0.729906 -1.39679 0
M  V30 8347 C 771.367 -0.202149 -1.94553 0
M  V30 8348 C 771.747 1.29507 -1.66707 0
M  V30 8349 O 771.095 2.05819 -0.992517 0
M  V30 8350 C 771.305 -0.530279 -3.44948 0
M  V30 8351 C 772.653 -0.476808 -4.21914 0
M  V30 8352 O 773.677 -0.467171 -3.53123 0
M  V30 8353 O 772.536 -0.466869 -5.44502 0
M  V30 8354 H 769.63 -0.0351644 -0.826252 0
M  V30 8355 H 772.176 -0.808417 -1.49207 0
M  V30 8356 H 770.948 -1.56526 -3.5863 0
M  V30 8357 H 770.571 0.10522 -3.97461 0
M  V30 8358 N 771.568 1.50203 -0.477153 0
M  V30 8359 C 772.796 2.0677 0.0732489 0
M  V30 8360 C 773.211 1.34033 1.32968 0
M  V30 8361 O 772.568 0.411412 1.77802 0
M  V30 8362 C 772.619 3.59751 0.35518 0
M  V30 8363 O 772.34 4.29747 -0.851425 0
M  V30 8364 C 773.841 4.3296 0.951877 0
M  V30 8365 H 771.061 0.670929 -0.00978923 0
M  V30 8366 H 773.605 1.93293 -0.667676 0
M  V30 8367 H 771.76 3.7301 1.04605 0
M  V30 8368 H 772.174 5.2106 -0.599708 0
M  V30 8369 H 773.648 5.40952 1.09888 0
M  V30 8370 H 774.125 3.93856 1.94356 0
M  V30 8371 H 774.731 4.24246 0.299208 0
M  V30 8372 N 773.046 0.209999 1.56195 0
M  V30 8373 C 773.956 -0.716459 2.23392 0
M  V30 8374 C 774.972 -1.22291 1.23778 0
M  V30 8375 O 776.148 -1.26694 1.56558 0
M  V30 8376 C 773.213 -1.91261 2.89172 0
M  V30 8377 C 772.274 -1.44927 4.04097 0
M  V30 8378 C 771.507 -2.5884 4.66731 0
M  V30 8379 O 771.73 -3.76693 4.2832 0
M  V30 8380 O 770.664 -2.30701 5.55932 0
M  V30 8381 H 774.49 -0.174089 3.03201 0
M  V30 8382 H 772.075 -0.0199505 1.49387 0
M  V30 8383 H 773.957 -2.6114 3.30733 0
M  V30 8384 H 772.632 -2.4433 2.12331 0
M  V30 8385 H 771.539 -0.718839 3.67129 0
M  V30 8386 H 772.872 -0.965084 4.82646 0
M  V30 8387 N 774.524 -1.57472 -0.0634922 0
M  V30 8388 C 775.474 -2.00709 -1.08166 0
M  V30 8389 C 776.458 -0.890498 -1.34011 0
M  V30 8390 O 777.65 -1.15441 -1.34173 0
M  V30 8391 C 774.779 -2.46148 -2.39303 0
M  V30 8392 C 773.865 -3.64559 -2.16697 0
M  V30 8393 N 774.256 -4.78459 -1.64043 0
M  V30 8394 C 772.554 -3.71269 -2.47135 0
M  V30 8395 C 773.255 -5.60268 -1.56445 0
M  V30 8396 N 772.231 -5.04357 -2.02792 0
M  V30 8397 H 776.033 -2.86208 -0.668016 0
M  V30 8398 H 773.547 -1.60133 -0.270426 0
M  V30 8399 H 775.544 -2.75367 -3.13016 0
M  V30 8400 H 774.204 -1.62041 -2.81377 0
M  V30 8401 H 775.215 -5.00587 -1.32791 0
M  V30 8402 H 771.892 -2.97891 -2.92518 0
M  V30 8403 H 773.282 -6.6172 -1.16519 0
M  V30 8404 N 776.003 0.335068 -1.53997 0
M  V30 8405 C 776.933 1.41727 -1.85568 0
M  V30 8406 C 777.914 1.54505 -0.7115 0
M  V30 8407 O 779.099 1.68573 -0.964191 0
M  V30 8408 C 776.229 2.7866 -2.07282 0
M  V30 8409 C 775.183 2.80682 -3.23112 0
M  V30 8410 C 774.509 4.20581 -3.30175 0
M  V30 8411 C 775.809 2.45458 -4.61029 0
M  V30 8412 H 777.503 1.15555 -2.76202 0
M  V30 8413 H 775.049 0.554445 -1.32898 0
M  V30 8414 H 777.002 3.54423 -2.27952 0
M  V30 8415 H 775.726 3.06286 -1.13387 0
M  V30 8416 H 774.385 2.07373 -3.02311 0
M  V30 8417 H 774.033 4.4533 -2.33859 0
M  V30 8418 H 773.733 4.22843 -4.08016 0
M  V30 8419 H 775.257 4.98174 -3.53066 0
M  V30 8420 H 776.671 3.10934 -4.81656 0
M  V30 8421 H 775.068 2.5899 -5.41336 0
M  V30 8422 H 776.138 1.40628 -4.6406 0
M  V30 8423 N 777.481 1.45874 0.596531 0
M  V30 8424 C 778.431 1.5181 1.70111 0
M  V30 8425 C 779.415 0.380293 1.56341 0
M  V30 8426 O 780.607 0.627849 1.6549 0
M  V30 8427 C 777.736 1.49822 3.08883 0
M  V30 8428 C 776.822 2.68845 3.27998 0
M  V30 8429 N 777.213 3.93873 3.17329 0
M  V30 8430 C 775.511 2.64777 3.589 0
M  V30 8431 C 776.212 4.73371 3.38076 0
M  V30 8432 N 775.188 4.0501 3.62585 0
M  V30 8433 H 778.99 2.46289 1.60372 0
M  V30 8434 H 776.504 1.41321 0.800138 0
M  V30 8435 H 778.501 1.5216 3.8814 0
M  V30 8436 H 777.161 0.564086 3.19763 0
M  V30 8437 H 778.172 4.25329 2.95492 0
M  V30 8438 H 774.849 1.80323 3.7655 0
M  V30 8439 H 776.239 5.82357 3.35127 0
M  V30 8440 N 778.959 -0.83999 1.33349 0
M  V30 8441 C 780.37 -1.41139 1.22216 0
M  V30 8442 C 780.721 -1.95551 -0.159398 0
M  V30 8443 O 779.846 -1.88721 -1.05893 0
M  V30 8444 C 780.441 -2.56564 2.21269 0
M  V30 8445 C 779 -3.09661 2.13979 0
M  V30 8446 C 778.147 -1.82457 2.08818 0
M  V30 8447 H 781.098 -0.645853 1.44964 0
M  V30 8448 H 781.119 -3.34163 1.81976 0
M  V30 8449 H 780.631 -2.16932 3.21811 0
M  V30 8450 H 778.732 -3.53841 1.16736 0
M  V30 8451 H 778.845 -3.6991 3.04472 0
M  V30 8452 H 777.209 -2.0266 1.54276 0
M  V30 8453 H 777.992 -1.45022 3.11165 0
M  V30 8454 N 780.437 -1.16799 -1.0581 0
M  V30 8455 C 781.714 -0.862616 -1.75551 0
M  V30 8456 C 782.094 0.6385 -2.01212 0
M  V30 8457 O 781.442 1.58784 -1.64317 0
M  V30 8458 C 781.652 -1.6907 -3.05314 0
M  V30 8459 C 783 -1.90675 -3.79379 0
M  V30 8460 O 784.024 -1.65976 -3.15167 0
M  V30 8461 O 782.883 -2.32145 -4.94743 0
M  V30 8462 H 779.977 -0.318789 -0.763088 0
M  V30 8463 H 782.523 -1.27461 -1.12034 0
M  V30 8464 H 781.295 -2.70912 -2.82352 0
M  V30 8465 H 780.918 -1.27606 -3.76567 0
M  V30 8466 N 781.915 1.24427 -0.967243 0
M  V30 8467 C 782.845 2.2773 -0.515899 0
M  V30 8468 C 783.826 1.64197 0.444227 0
M  V30 8469 O 785.011 1.91193 0.340451 0
M  V30 8470 C 782.141 3.46751 0.195149 0
M  V30 8471 C 781.095 4.22548 -0.680953 0
M  V30 8472 C 780.421 5.34456 0.161561 0
M  V30 8473 C 781.721 4.83914 -1.96532 0
M  V30 8474 H 783.415 2.65735 -1.37933 0
M  V30 8475 H 780.961 1.27742 -0.664681 0
M  V30 8476 H 782.914 4.18153 0.522117 0
M  V30 8477 H 781.638 3.07771 1.09292 0
M  V30 8478 H 780.297 3.52946 -0.991186 0
M  V30 8479 H 779.945 4.91716 1.05947 0
M  V30 8480 H 779.645 5.86087 -0.421418 0
M  V30 8481 H 781.169 6.08685 0.483211 0
M  V30 8482 H 782.583 5.47392 -1.70396 0
M  V30 8483 H 780.98 5.45775 -2.49499 0
M  V30 8484 H 782.05 4.05393 -2.66053 0
M  V30 8485 N 783.393 0.737304 1.3929 0
M  V30 8486 C 784.639 0.295581 2.01241 0
M  V30 8487 C 784.994 -1.10561 1.57461 0
M  V30 8488 O 784.287 -1.74346 0.7946 0
M  V30 8489 C 784.481 0.338438 3.55794 0
M  V30 8490 C 784.31 1.74225 4.14579 0
M  V30 8491 C 783.08 2.35502 4.47065 0
M  V30 8492 C 785.278 2.69623 4.37959 0
M  V30 8493 N 783.26 3.68014 4.91365 0
M  V30 8494 C 784.631 3.86873 4.84489 0
M  V30 8495 C 786.686 2.67355 4.2003 0
M  V30 8496 C 785.389 5.02193 5.14971 0
M  V30 8497 C 787.415 3.8182 4.51627 0
M  V30 8498 C 786.777 4.97806 4.98366 0
M  V30 8499 H 782.876 0.154468 0.766592 0
M  V30 8500 H 785.46 0.963768 1.69173 0
M  V30 8501 H 783.631 -0.299406 3.87244 0
M  V30 8502 H 785.363 -0.122053 4.04516 0
M  V30 8503 H 782.118 1.87406 4.34943 0
M  V30 8504 H 782.542 4.36051 5.17869 0
M  V30 8505 H 787.184 1.78876 3.83097 0
M  V30 8506 H 784.902 5.913 5.50809 0
M  V30 8507 H 788.488 3.81366 4.39376 0
M  V30 8508 H 787.368 5.84909 5.22351 0
M  V30 8509 N 784.871 -1.49948 0.485112 0
M  V30 8510 C 785.803 -2.26691 -0.338222 0
M  V30 8511 C 786.816 -1.32584 -0.944742 0
M  V30 8512 O 788.005 -1.57989 -0.830772 0
M  V30 8513 C 785.105 -3.04405 -1.48966 0
M  V30 8514 C 784.278 -4.25971 -0.993371 0
M  V30 8515 C 783.337 -4.85861 -2.02052 0
M  V30 8516 O 782.363 -5.46382 -1.59547 0
M  V30 8517 N 783.565 -4.74101 -3.34975 0
M  V30 8518 H 786.33 -2.97989 0.319748 0
M  V30 8519 H 783.891 -1.58772 0.316714 0
M  V30 8520 H 785.883 -3.41348 -2.17403 0
M  V30 8521 H 784.453 -2.35815 -2.05207 0
M  V30 8522 H 783.673 -3.93971 -0.134424 0
M  V30 8523 H 784.961 -5.0476 -0.639934 0
M  V30 8524 H 784.359 -4.26002 -3.72208 0
M  V30 8525 H 782.916 -5.15274 -3.9917 0
M  V30 8526 N 786.349 -0.21828 -1.56081 0
M  V30 8527 C 787.598 0.414644 -1.97392 0
M  V30 8528 C 787.911 1.61132 -1.10887 0
M  V30 8529 O 789.117 2.31355 -1.42082 0
M  V30 8530 C 787.573 0.789099 -3.51143 0
M  V30 8531 C 787.181 -0.384578 -4.46346 0
M  V30 8532 C 788.925 1.38781 -4.01173 0
M  V30 8533 C 786.832 0.0121288 -5.91399 0
M  V30 8534 H 785.762 0.158691 -0.737111 0
M  V30 8535 H 788.413 -0.313974 -1.80794 0
M  V30 8536 H 786.795 1.57505 -3.6333 0
M  V30 8537 H 787.969 -1.16212 -4.45905 0
M  V30 8538 H 786.284 -0.896306 -4.06639 0
M  V30 8539 H 788.881 1.69746 -5.07041 0
M  V30 8540 H 789.224 2.30245 -3.46833 0
M  V30 8541 H 789.757 0.665364 -3.92196 0
M  V30 8542 H 786.496 -0.868917 -6.49715 0
M  V30 8543 H 786.016 0.754053 -5.95041 0
M  V30 8544 H 787.695 0.439949 -6.45502 0
M  V30 8545 N 787.827 1.57504 0.0551401 0
M  V30 8546 C 789.074 1.88055 0.751104 0
M  V30 8547 C 789.402 0.812231 1.76729 0
M  V30 8548 O 788.657 -0.189918 1.94776 0
M  V30 8549 C 788.956 3.25311 1.48013 0
M  V30 8550 C 788.622 4.46858 0.602375 0
M  V30 8551 C 787.284 4.79847 0.360536 0
M  V30 8552 C 789.636 5.212 -0.00524047 0
M  V30 8553 C 786.964 5.84582 -0.498127 0
M  V30 8554 C 789.316 6.26844 -0.851453 0
M  V30 8555 C 787.98 6.58324 -1.103 0
M  V30 8556 H 787.25 0.688142 0.274848 0
M  V30 8557 H 789.897 1.91497 0.0114795 0
M  V30 8558 H 788.202 3.17737 2.29239 0
M  V30 8559 H 789.899 3.46189 2.02371 0
M  V30 8560 H 786.489 4.21049 0.801007 0
M  V30 8561 H 790.673 4.96013 0.168682 0
M  V30 8562 H 785.929 6.07361 -0.701594 0
M  V30 8563 H 790.103 6.83603 -1.32893 0
M  V30 8564 H 787.73 7.39304 -1.77011 0
M  V30 8565 N 789.305 -0.326896 1.54172 0
M  V30 8566 C 790.582 -1.08326 1.62864 0
M  V30 8567 C 790.962 -2.06018 0.46039 0
M  V30 8568 O 790.31 -2.21889 -0.545685 0
M  V30 8569 C 790.52 -1.78816 2.9971 0
M  V30 8570 C 791.868 -2.31958 3.55641 0
M  V30 8571 O 792.892 -1.88888 3.01993 0
M  V30 8572 O 791.751 -3.10801 4.49517 0
M  V30 8573 H 788.845 -0.499131 0.659392 0
M  V30 8574 H 791.391 -0.327054 1.66519 0
M  V30 8575 H 790.163 -1.07739 3.76176 0
M  V30 8576 H 789.786 -2.61255 2.99719 0
M  V30 8577 N 790.784 -1.46188 -0.588786 0
M  V30 8578 C 791.732 -1.56653 -1.71938 0
M  V30 8579 C 792.726 -0.435354 -1.6371 0
M  V30 8580 O 793.932 -0.611996 -1.69277 0
M  V30 8581 H 790.307 -0.492408 -0.568365 0
M  V30 8582 H 792.278 -2.51724 -1.60242 0
M  V30 8583 C 791.027 -1.56822 -3.10326 0
M  V30 8584 H 790.35 -2.43198 -3.17325 0
M  V30 8585 H 791.79 -1.68199 -3.89211 0
M  V30 8586 C 790.249 -0.295802 -3.35599 0
M  V30 8587 O 790.779 0.616515 -3.96941 0
M  V30 8588 N 788.985 -0.185609 -2.90007 0
M  V30 8589 H 788.532 -0.928914 -2.40269 0
M  V30 8590 H 788.49 0.664883 -3.07289 0
M  V30 8591 N 792.262 0.832906 -1.33792 0
M  V30 8592 C 793.673 1.40489 -1.22963 0
M  V30 8593 C 794.024 1.95633 0.149026 0
M  V30 8594 O 793.149 1.8928 1.04891 0
M  V30 8595 C 793.744 2.55387 -2.22627 0
M  V30 8596 C 792.303 3.08522 -2.15618 0
M  V30 8597 C 791.45 1.81347 -2.09782 0
M  V30 8598 H 794.401 0.638156 -1.45304 0
M  V30 8599 H 794.422 3.33193 -1.83746 0
M  V30 8600 H 793.934 2.15222 -3.22957 0
M  V30 8601 H 792.035 3.53217 -1.18611 0
M  V30 8602 H 792.148 3.6829 -3.0643 0
M  V30 8603 H 790.512 2.01839 -1.55349 0
M  V30 8604 H 791.295 1.43369 -3.1193 0
M  V30 8605 N 793.74 1.17359 1.05189 0
M  V30 8606 C 794.986 0.963413 1.78455 0
M  V30 8607 C 795.319 -0.506703 1.87473 0
M  V30 8608 O 794.594 -1.37611 1.37453 0
M  V30 8609 C 794.877 1.60519 3.22344 0
M  V30 8610 C 794.73 3.14741 3.21338 0
M  V30 8611 C 796.049 1.3091 4.20179 0
M  V30 8612 H 793.168 0.351412 0.647826 0
M  V30 8613 H 795.81 1.44858 1.22948 0
M  V30 8614 H 793.96 1.19265 3.69741 0
M  V30 8615 H 795.632 3.65053 2.82017 0
M  V30 8616 H 793.875 3.4749 2.59679 0
M  V30 8617 H 794.546 3.54775 4.22894 0
M  V30 8618 H 797.022 1.66635 3.81277 0
M  V30 8619 H 795.898 1.784 5.191 0
M  V30 8620 H 796.159 0.229908 4.41502 0
M  V30 8621 N 795.218 -1.23913 0.973828 0
M  V30 8622 C 796.495 -1.87539 0.555729 0
M  V30 8623 C 796.875 -1.87641 -0.967162 0
M  V30 8624 O 796.223 -1.35335 -1.84111 0
M  V30 8625 C 796.433 -3.29359 1.15427 0
M  V30 8626 C 797.781 -4.06 1.24294 0
M  V30 8627 O 798.805 -3.38554 1.10723 0
M  V30 8628 O 797.664 -5.26689 1.45813 0
M  V30 8629 H 794.758 -0.805769 0.186188 0
M  V30 8630 H 797.304 -1.31838 1.06849 0
M  V30 8631 H 796.076 -3.23817 2.19678 0
M  V30 8632 H 795.699 -3.92642 0.625925 0
M  V30 8633 N 796.696 -0.74468 -1.38897 0
M  V30 8634 C 797.942 -0.306249 -2.01081 0
M  V30 8635 C 798.297 1.09724 -1.58046 0
M  V30 8636 O 797.59 1.73923 -0.803834 0
M  V30 8637 C 797.784 -0.357302 -3.55609 0
M  V30 8638 C 797.613 -1.76421 -4.13649 0
M  V30 8639 C 796.383 -2.3787 -4.4581 0
M  V30 8640 C 798.581 -2.71942 -4.36523 0
M  V30 8641 N 796.563 -3.70614 -4.89406 0
M  V30 8642 C 797.934 -3.89437 -4.8243 0
M  V30 8643 C 799.989 -2.69579 -4.18607 0
M  V30 8644 C 798.692 -5.04917 -5.123 0
M  V30 8645 C 800.718 -3.8421 -4.49596 0
M  V30 8646 C 800.08 -5.00442 -4.95719 0
M  V30 8647 H 796.179 -0.158531 -0.765762 0
M  V30 8648 H 798.763 -0.972726 -1.6866 0
M  V30 8649 H 796.934 0.278865 -3.87398 0
M  V30 8650 H 798.666 0.100599 -4.04575 0
M  V30 8651 H 795.421 -1.8971 -4.33943 0
M  V30 8652 H 795.845 -4.38791 -5.1555 0
M  V30 8653 H 800.487 -1.80905 -3.82143 0
M  V30 8654 H 798.205 -5.94213 -5.47665 0
M  V30 8655 H 801.791 -3.83691 -4.37347 0
M  V30 8656 H 800.671 -5.87671 -5.19242 0
M  V30 8657 N 798.174 1.49689 -0.493057 0
M  V30 8658 C 799.121 2.28976 0.28959 0
M  V30 8659 C 800.091 1.35011 0.967536 0
M  V30 8660 O 801.276 1.63964 0.975736 0
M  V30 8661 C 798.416 3.1748 1.35279 0
M  V30 8662 C 797.529 4.26496 0.687418 0
M  V30 8663 C 796.664 5.02226 1.73038 0
M  V30 8664 C 795.703 6.03089 1.04645 0
M  V30 8665 N 794.84 6.72014 2.03325 0
M  V30 8666 H 799.68 2.954 -0.392798 0
M  V30 8667 H 797.217 1.45657 -0.205554 0
M  V30 8668 H 799.175 3.67162 1.98111 0
M  V30 8669 H 797.805 2.53057 2.00405 0
M  V30 8670 H 796.857 3.80362 -0.0540001 0
M  V30 8671 H 798.169 4.98578 0.14864 0
M  V30 8672 H 797.323 5.55737 2.43395 0
M  V30 8673 H 796.062 4.29899 2.303 0
M  V30 8674 H 795.067 5.48817 0.328606 0
M  V30 8675 H 796.292 6.77398 0.480428 0
M  V30 8676 H 794.238 6.02464 2.59564 0
M  V30 8677 H 794.155 7.40046 1.54492 0
M  V30 8678 H 795.423 7.30133 2.72995 0
M  V30 8679 N 799.652 0.226554 1.55963 0
M  V30 8680 C 800.562 -0.692725 2.24139 0
M  V30 8681 C 801.578 -1.20971 1.25068 0
M  V30 8682 O 802.754 -1.25027 1.57893 0
M  V30 8683 C 799.819 -1.88183 2.91184 0
M  V30 8684 C 798.88 -1.40633 4.05612 0
M  V30 8685 C 798.113 -2.53875 4.6945 0
M  V30 8686 O 798.336 -3.72129 4.32292 0
M  V30 8687 O 797.27 -2.24792 5.58348 0
M  V30 8688 H 801.096 -0.141921 3.03368 0
M  V30 8689 H 798.681 -0.0041049 1.49399 0
M  V30 8690 H 800.563 -2.57617 3.33484 0
M  V30 8691 H 799.238 -2.42064 2.14911 0
M  V30 8692 H 798.145 -0.67986 3.67871 0
M  V30 8693 H 799.478 -0.913838 4.83642 0
M  V30 8694 N 801.13 -1.57531 -0.0467866 0
M  V30 8695 C 802.062 -2.02156 -1.08007 0
M  V30 8696 C 803.075 -0.931434 -1.33522 0
M  V30 8697 O 804.264 -1.209 -1.31321 0
M  V30 8698 C 801.364 -2.36675 -2.42566 0
M  V30 8699 C 800.537 -3.67848 -2.36658 0
M  V30 8700 C 799.596 -3.89754 -3.53523 0
M  V30 8701 O 798.622 -4.61036 -3.33818 0
M  V30 8702 N 799.824 -3.34025 -4.74771 0
M  V30 8703 H 802.589 -2.91414 -0.699845 0
M  V30 8704 H 800.15 -1.60185 -0.235041 0
M  V30 8705 H 802.142 -2.48482 -3.19435 0
M  V30 8706 H 800.712 -1.53178 -2.72498 0
M  V30 8707 H 799.932 -3.66561 -1.45005 0
M  V30 8708 H 801.22 -4.53931 -2.29835 0
M  V30 8709 H 800.618 -2.76214 -4.93683 0
M  V30 8710 H 799.175 -3.51241 -5.49066 0
M  V30 8711 N 802.608 0.318715 -1.54344 0
M  V30 8712 C 803.838 1.07394 -1.76494 0
M  V30 8713 C 804.246 1.82031 -0.515881 0
M  V30 8714 O 803.589 1.7609 0.52325 0
M  V30 8715 C 803.651 2.11401 -2.90775 0
M  V30 8716 C 803.315 1.56118 -4.29507 0
M  V30 8717 C 804.312 1.00043 -5.10184 0
M  V30 8718 C 801.997 1.60215 -4.76063 0
M  V30 8719 C 803.991 0.487993 -6.35529 0
M  V30 8720 C 801.678 1.08584 -6.01376 0
M  V30 8721 C 802.676 0.529714 -6.80943 0
M  V30 8722 O 802.364 0.0211823 -8.03897 0
M  V30 8723 H 802.096 0.325061 -0.592715 0
M  V30 8724 H 804.65 0.36901 -2.02058 0
M  V30 8725 H 802.88 2.85524 -2.60793 0
M  V30 8726 H 804.569 2.72683 -3.00664 0
M  V30 8727 H 805.335 0.961811 -4.75367 0
M  V30 8728 H 801.214 2.02441 -4.14172 0
M  V30 8729 H 804.758 0.0532608 -6.9758 0
M  V30 8730 H 800.655 1.12155 -6.35682 0
M  V30 8731 H 801.423 0.136151 -8.18387 0
M  V30 8732 N 804.086 1.46499 0.581025 0
M  V30 8733 C 805.335 1.51162 1.3354 0
M  V30 8734 C 805.648 0.168433 1.94873 0
M  V30 8735 O 806.854 0.092883 2.71341 0
M  V30 8736 C 805.31 2.66362 2.42032 0
M  V30 8737 C 804.918 4.07109 1.86994 0
M  V30 8738 C 806.662 2.80297 3.188 0
M  V30 8739 C 804.569 5.13645 2.93125 0
M  V30 8740 H 803.499 0.562576 0.502021 0
M  V30 8741 H 806.15 1.72713 0.619863 0
M  V30 8742 H 804.532 2.38143 3.16392 0
M  V30 8743 H 805.706 4.45125 1.19166 0
M  V30 8744 H 804.021 3.97854 1.22887 0
M  V30 8745 H 806.618 3.5706 3.9801 0
M  V30 8746 H 806.961 1.87875 3.71495 0
M  V30 8747 H 807.494 3.0817 2.51547 0
M  V30 8748 H 804.233 6.07866 2.45315 0
M  V30 8749 H 803.753 4.80172 3.59437 0
M  V30 8750 H 805.432 5.39562 3.57046 0
M  V30 8751 N 805.565 -0.825799 1.34232 0
M  V30 8752 C 806.515 -1.92533 1.22128 0
M  V30 8753 C 807.499 -1.60444 0.121002 0
M  V30 8754 O 808.691 -1.73497 0.350385 0
M  V30 8755 C 805.82 -3.29134 0.975995 0
M  V30 8756 C 804.906 -3.6735 2.11931 0
M  V30 8757 N 805.297 -3.77154 3.37029 0
M  V30 8758 C 803.595 -3.97179 2.02891 0
M  V30 8759 C 804.296 -4.10552 4.12095 0
M  V30 8760 N 803.272 -4.23619 3.40658 0
M  V30 8761 H 807.074 -1.98287 2.16932 0
M  V30 8762 H 804.588 -1.01929 1.26429 0
M  V30 8763 H 806.585 -4.07717 0.870187 0
M  V30 8764 H 805.245 -3.24679 0.036606 0
M  V30 8765 H 806.256 -3.60723 3.71618 0
M  V30 8766 H 802.933 -4.00861 1.16692 0
M  V30 8767 H 804.323 -4.25365 5.2011 0
M  V30 8768 N 807.043 -1.17915 -1.04565 0
M  V30 8769 C 807.953 -0.916449 -2.15959 0
M  V30 8770 C 808.969 0.117655 -1.73602 0
M  V30 8771 O 810.145 -0.063089 -2.01301 0
M  V30 8772 C 807.21 -0.440262 -3.43893 0
M  V30 8773 C 806.271 -1.54172 -4.00661 0
M  V30 8774 C 805.504 -1.08816 -5.22489 0
M  V30 8775 O 805.727 0.0551547 -5.70373 0
M  V30 8776 O 804.661 -1.88383 -5.7166 0
M  V30 8777 H 808.487 -1.8484 -2.40972 0
M  V30 8778 H 806.072 -0.960552 -1.14428 0
M  V30 8779 H 807.954 -0.182537 -4.21004 0
M  V30 8780 H 806.629 0.46346 -3.20365 0
M  V30 8781 H 805.536 -1.85341 -3.24961 0
M  V30 8782 H 806.869 -2.42139 -4.2852 0
M  V30 8783 N 808.521 1.23394 -0.980386 0
M  V30 8784 C 809.469 2.26872 -0.513018 0
M  V30 8785 C 810.463 1.63853 0.429948 0
M  V30 8786 O 811.669 1.77417 0.303842 0
M  V30 8787 H 808.044 0.737398 -0.147473 0
M  V30 8788 H 810.015 2.63654 -1.39746 0
M  V30 8789 C 808.764 3.47289 0.168962 0
M  V30 8790 H 808.087 3.96033 -0.547546 0
M  V30 8791 H 809.527 4.21502 0.459616 0
M  V30 8792 C 807.986 3.06425 1.40019 0
M  V30 8793 O 808.516 3.14708 2.49643 0
M  V30 8794 N 806.722 2.61339 1.27084 0
M  V30 8795 H 806.269 2.54799 0.378872 0
M  V30 8796 H 806.227 2.34364 2.09573 0
M  V30 8797 N 809.999 0.752036 1.385 0
M  V30 8798 C 811.229 0.317812 2.04141 0
M  V30 8799 C 811.637 -1.05822 1.56839 0
M  V30 8800 O 810.98 -1.68311 0.736016 0
M  V30 8801 C 811.042 0.260205 3.58557 0
M  V30 8802 C 810.706 1.57753 4.28909 0
M  V30 8803 C 811.703 2.52642 4.54387 0
M  V30 8804 C 809.388 1.84653 4.67128 0
M  V30 8805 C 811.382 3.72653 5.17116 0
M  V30 8806 C 809.069 3.04938 5.29581 0
M  V30 8807 C 810.067 3.98759 5.54509 0
M  V30 8808 O 809.755 5.16929 6.15662 0
M  V30 8809 H 809.487 0.133931 0.6626 0
M  V30 8810 H 812.041 1.02138 1.78205 0
M  V30 8811 H 810.271 -0.499596 3.83459 0
M  V30 8812 H 811.96 -0.144295 4.05643 0
M  V30 8813 H 812.726 2.33135 4.25292 0
M  V30 8814 H 808.605 1.12464 4.47071 0
M  V30 8815 H 812.149 4.45898 5.36489 0
M  V30 8816 H 808.046 3.24339 5.58099 0
M  V30 8817 H 808.814 5.1749 6.3415 0
M  V30 8818 N 811.477 -1.49425 0.500989 0
M  V30 8819 C 812.702 -2.07356 -0.0425154 0
M  V30 8820 C 813.127 -1.35887 -1.30063 0
M  V30 8821 O 812.485 -0.41561 -1.76472 0
M  V30 8822 C 812.533 -3.59518 -0.279188 0
M  V30 8823 O 811.637 -3.89542 -1.3539 0
M  V30 8824 H 810.978 -0.663482 0.0262207 0
M  V30 8825 H 813.508 -1.92231 0.700607 0
M  V30 8826 H 813.518 -4.04791 -0.5107 0
M  V30 8827 H 812.193 -4.10946 0.640009 0
M  V30 8828 H 810.77 -3.56079 -1.10734 0
M  V30 8829 N 812.955 -0.234822 -1.55841 0
M  V30 8830 C 814.371 0.120295 -1.59146 0
M  V30 8831 C 814.571 1.57896 -1.25184 0
M  V30 8832 O 813.627 2.32138 -0.993393 0
M  V30 8833 C 814.94 -0.217984 -2.99909 0
M  V30 8834 C 816.488 -0.161298 -3.12584 0
M  V30 8835 C 816.963 -0.473438 -4.55546 0
M  V30 8836 N 818.454 -0.423494 -4.6126 0
M  V30 8837 C 819.189 -0.638334 -5.69836 0
M  V30 8838 N 818.685 -0.915659 -6.86722 0
M  V30 8839 N 820.478 -0.569864 -5.59204 0
M  V30 8840 H 812.629 -1.18622 -1.76189 0
M  V30 8841 H 814.892 -0.476426 -0.819587 0
M  V30 8842 H 814.598 -1.2309 -3.29457 0
M  V30 8843 H 814.472 0.460707 -3.74376 0
M  V30 8844 H 816.859 0.842274 -2.82825 0
M  V30 8845 H 816.94 -0.873661 -2.40418 0
M  V30 8846 H 816.584 -1.47451 -4.86025 0
M  V30 8847 H 816.514 0.260268 -5.25956 0
M  V30 8848 H 819.005 -0.217383 -3.77274 0
M  V30 8849 H 819.318 -1.06734 -7.65394 0
M  V30 8850 H 817.663 -0.953 -6.88435 0
M  V30 8851 H 820.854 -0.35334 -4.66765 0
M  V30 8852 H 821.027 -0.740698 -6.43753 0
M  V30 8853 N 814.433 1.57553 0.0384317 0
M  V30 8854 C 815.396 2.04927 1.02653 0
M  V30 8855 C 816.396 0.951768 1.29607 0
M  V30 8856 O 817.586 1.21568 1.24768 0
M  V30 8857 C 814.718 2.45828 2.36181 0
M  V30 8858 H 815.911 2.93474 0.617508 0
M  V30 8859 H 813.464 1.53679 0.285031 0
M  V30 8860 H 814.199 1.60408 2.8185 0
M  V30 8861 H 813.984 3.25945 2.1795 0
M  V30 8862 H 815.474 2.82939 3.0714 0
M  V30 8863 N 815.911 -0.310526 1.54511 0
M  V30 8864 C 816.841 -1.38757 1.878 0
M  V30 8865 C 817.822 -1.53353 0.735991 0
M  V30 8866 O 819.007 -1.67018 0.990887 0
M  V30 8867 C 816.137 -2.75327 2.11689 0
M  V30 8868 C 815.091 -2.75506 3.27537 0
M  V30 8869 C 814.417 -4.15275 3.36824 0
M  V30 8870 C 815.717 -2.38093 4.64875 0
M  V30 8871 H 817.411 -1.11146 2.78005 0
M  V30 8872 H 814.957 -0.533232 1.33763 0
M  V30 8873 H 816.91 -3.50752 2.33562 0
M  V30 8874 H 815.634 -3.04443 1.18245 0
M  V30 8875 H 814.293 -2.02538 3.05572 0
M  V30 8876 H 813.941 -4.41553 2.40915 0
M  V30 8877 H 813.641 -4.16299 4.14692 0
M  V30 8878 H 815.165 -4.92493 3.60947 0
M  V30 8879 H 816.579 -3.03232 4.86542 0
M  V30 8880 H 814.976 -2.50345 5.45387 0
M  V30 8881 H 816.046 -1.33227 4.66239 0
M  V30 8882 N 817.389 -1.46805 -0.573248 0
M  V30 8883 C 818.299 -1.60687 -1.70929 0
M  V30 8884 C 819.315 -0.490084 -1.66956 0
M  V30 8885 O 820.491 -0.755482 -1.86693 0
M  V30 8886 C 817.556 -1.60259 -3.07438 0
M  V30 8887 C 816.617 -2.83242 -3.22603 0
M  V30 8888 C 815.85 -2.82825 -4.52599 0
M  V30 8889 O 816.073 -1.92113 -5.37074 0
M  V30 8890 O 815.007 -3.74489 -4.71213 0
M  V30 8891 H 818.833 -2.56782 -1.62163 0
M  V30 8892 H 816.418 -1.29706 -0.741399 0
M  V30 8893 H 818.3 -1.6275 -3.88704 0
M  V30 8894 H 816.975 -0.673268 -3.16621 0
M  V30 8895 H 815.882 -2.86302 -2.40794 0
M  V30 8896 H 817.215 -3.75415 -3.18315 0
M  V30 8897 N 818.867 0.818669 -1.34668 0
M  V30 8898 C 820.115 1.57201 -1.27013 0
M  V30 8899 C 820.436 1.94354 0.158599 0
M  V30 8900 O 819.706 1.62626 1.09223 0
M  V30 8901 H 818.286 0.582919 -0.467135 0
M  V30 8902 H 820.948 0.977234 -1.6863 0
M  V30 8903 H 820.044 2.49291 -1.87778 0
M  V30 8904 N 820.346 1.18468 1.03938 0
M  V30 8905 C 821.256 0.927889 2.1547 0
M  V30 8906 C 822.272 -0.108447 1.73662 0
M  V30 8907 O 823.448 0.0737636 2.01265 0
M  V30 8908 C 820.513 0.458494 3.43655 0
M  V30 8909 C 819.574 1.56295 3.99838 0
M  V30 8910 C 818.807 1.11586 5.21904 0
M  V30 8911 O 819.03 -0.0249057 5.70395 0
M  V30 8912 O 817.964 1.91412 5.70653 0
M  V30 8913 H 821.79 1.86116 2.39989 0
M  V30 8914 H 819.375 0.966607 1.13917 0
M  V30 8915 H 821.257 0.204861 4.20902 0
M  V30 8916 H 819.932 -0.446464 3.20606 0
M  V30 8917 H 818.839 1.87061 3.23974 0
M  V30 8918 H 820.172 2.44408 4.2723 0
M  V30 8919 N 821.824 -1.22873 0.986916 0
M  V30 8920 C 823.072 -1.91084 0.658121 0
M  V30 8921 C 823.393 -1.77304 -0.811675 0
M  V30 8922 O 822.663 -1.15649 -1.58121 0
M  V30 8923 H 821.243 -0.707251 0.240427 0
M  V30 8924 H 823.905 -1.49357 1.25213 0
M  V30 8925 H 823.001 -2.98373 0.915428 0
M  V30 8926 N 823.302 -0.75937 -1.38099 0
M  V30 8927 C 824.551 -0.314864 -1.99227 0
M  V30 8928 C 824.864 1.1113 -1.60964 0
M  V30 8929 O 826.07 1.65657 -2.15105 0
M  V30 8930 C 824.526 -0.512001 -3.56239 0
M  V30 8931 C 824.134 -1.94762 -4.0345 0
M  V30 8932 C 825.878 -0.130497 -4.24299 0
M  V30 8933 C 823.785 -2.09301 -5.53125 0
M  V30 8934 H 822.715 -0.113978 -0.745335 0
M  V30 8935 H 825.366 -0.936736 -1.57789 0
M  V30 8936 H 823.748 0.179144 -3.95595 0
M  V30 8937 H 824.922 -2.67271 -3.75371 0
M  V30 8938 H 823.237 -2.28457 -3.48133 0
M  V30 8939 H 825.834 -0.21781 -5.34256 0
M  V30 8940 H 826.177 0.917644 -4.0606 0
M  V30 8941 H 826.71 -0.773716 -3.90203 0
M  V30 8942 H 823.449 -3.1239 -5.76275 0
M  V30 8943 H 822.969 -1.41261 -5.82928 0
M  V30 8944 H 824.648 -1.88571 -6.1891 0
M  V30 8945 N 824.78 1.49157 -0.508906 0
M  V30 8946 C 826.026 2.02773 0.0328469 0
M  V30 8947 C 826.359 1.38714 1.35912 0
M  V30 8948 O 825.634 0.525536 1.87266 0
M  V30 8949 C 825.917 3.59664 0.177088 0
M  V30 8950 C 825.77 4.34239 -1.17287 0
M  V30 8951 C 827.089 4.30505 0.913977 0
M  V30 8952 H 824.208 0.736926 0.0104631 0
M  V30 8953 H 826.85 1.781 -0.661851 0
M  V30 8954 H 825 3.80818 0.768774 0
M  V30 8955 H 826.672 4.24561 -1.80404 0
M  V30 8956 H 824.915 3.96486 -1.76016 0
M  V30 8957 H 825.586 5.42397 -1.02516 0
M  V30 8958 H 828.062 4.14054 0.412084 0
M  V30 8959 H 826.938 5.40012 0.983759 0
M  V30 8960 H 827.199 3.96302 1.95951 0
M  V30 8961 N 826.258 0.243083 1.55714 0
M  V30 8962 C 827.168 -0.668913 2.24862 0
M  V30 8963 C 828.184 -1.19638 1.26344 0
M  V30 8964 O 829.36 -1.23345 1.5921 0
M  V30 8965 C 826.425 -1.85084 2.93163 0
M  V30 8966 C 825.486 -1.36323 4.07081 0
M  V30 8967 C 824.719 -2.48882 4.72116 0
M  V30 8968 O 824.942 -3.67523 4.36214 0
M  V30 8969 O 823.876 -2.18857 5.60701 0
M  V30 8970 H 827.702 -0.109737 3.03502 0
M  V30 8971 H 825.287 0.0117411 1.49395 0
M  V30 8972 H 827.169 -2.54065 3.36197 0
M  V30 8973 H 825.844 -2.39771 2.17466 0
M  V30 8974 H 824.751 -0.640804 3.68571 0
M  V30 8975 H 826.084 -0.86249 4.84584 0
M  V30 8976 N 827.736 -1.57571 -0.0300757 0
M  V30 8977 C 828.668 -2.0329 -1.05857 0
M  V30 8978 C 829.681 -0.945543 -1.32527 0
M  V30 8979 O 830.87 -1.22287 -1.30032 0
M  V30 8980 C 827.97 -2.39234 -2.40042 0
M  V30 8981 C 827.143 -3.70337 -2.32743 0
M  V30 8982 C 826.202 -3.93482 -3.49369 0
M  V30 8983 O 825.228 -4.64551 -3.28909 0
M  V30 8984 N 826.43 -3.39042 -4.71201 0
M  V30 8985 H 829.195 -2.9214 -0.668897 0
M  V30 8986 H 826.756 -1.60425 -0.218038 0
M  V30 8987 H 828.748 -2.51856 -3.16782 0
M  V30 8988 H 827.318 -1.5606 -2.70858 0
M  V30 8989 H 826.538 -3.68079 -1.41109 0
M  V30 8990 H 827.826 -4.56343 -2.25007 0
M  V30 8991 H 827.224 -2.81434 -4.90725 0
M  V30 8992 H 825.781 -3.57045 -5.45309 0
M  V30 8993 N 829.214 0.302327 -1.54673 0
M  V30 8994 C 830.625 0.875409 -1.64904 0
M  V30 8995 C 830.976 1.88132 -0.55684 0
M  V30 8996 O 830.101 2.14215 0.306754 0
M  V30 8997 C 830.696 1.59457 -2.9893 0
M  V30 8998 C 829.255 2.11607 -3.11287 0
M  V30 8999 C 828.402 0.948324 -2.6058 0
M  V30 9000 H 831.353 0.079362 -1.58501 0
M  V30 9001 H 831.374 2.46005 -2.90279 0
M  V30 9002 H 830.886 0.8622 -3.78402 0
M  V30 9003 H 828.987 2.87895 -2.36532 0
M  V30 9004 H 829.1 2.35151 -4.17422 0
M  V30 9005 H 827.464 1.33352 -2.17001 0
M  V30 9006 H 828.247 0.229936 -3.42529 0
M  V30 9007 N 830.692 1.47107 0.565454 0
M  V30 9008 C 831.932 1.5488 1.33385 0
M  V30 9009 C 832.296 0.202804 1.90926 0
M  V30 9010 O 833.497 0.155345 2.68351 0
M  V30 9011 C 831.768 2.62969 2.42037 0
M  V30 9012 S 833.327 2.90269 3.29074 0
M  V30 9013 H 830.145 0.547008 0.454206 0
M  V30 9014 H 832.747 1.8444 0.648228 0
M  V30 9015 H 831.451 3.59376 1.98185 0
M  V30 9016 H 830.982 2.35197 3.15351 0
M  V30 9017 H 832.997 2.26854 4.41307 0
M  V30 9018 N 832.17 -0.811516 1.35101 0
M  V30 9019 C 833.581 -1.38515 1.25182 0
M  V30 9020 C 833.932 -1.95846 -0.117883 0
M  V30 9021 O 833.057 -1.90925 -1.01866 0
M  V30 9022 C 833.652 -2.51813 2.26662 0
M  V30 9023 C 832.211 -3.05052 2.20499 0
M  V30 9024 C 831.358 -1.77987 2.12641 0
M  V30 9025 H 834.309 -0.614959 1.46301 0
M  V30 9026 H 834.33 -3.30228 1.89023 0
M  V30 9027 H 833.842 -2.10057 3.2634 0
M  V30 9028 H 831.943 -3.51285 1.24215 0
M  V30 9029 H 832.056 -3.63368 3.1225 0
M  V30 9030 H 830.42 -1.99342 1.5854 0
M  V30 9031 H 831.203 -1.38389 3.14171 0
M  V30 9032 N 833.648 -1.19017 -1.03309 0
M  V30 9033 C 834.925 -0.899659 -1.73682 0
M  V30 9034 C 835.305 0.595677 -2.02521 0
M  V30 9035 O 834.653 1.55263 -1.67648 0
M  V30 9036 C 834.863 -1.75508 -3.01659 0
M  V30 9037 C 836.211 -1.98679 -3.75249 0
M  V30 9038 O 837.235 -1.72624 -3.11576 0
M  V30 9039 O 836.094 -2.42587 -4.89708 0
M  V30 9040 H 833.188 -0.334903 -0.756154 0
M  V30 9041 H 835.734 -1.29809 -1.09305 0
M  V30 9042 H 834.506 -2.7684 -2.76542 0
M  V30 9043 H 834.129 -1.35565 -3.73775 0
M  V30 9044 N 835.127 1.22348 -0.993418 0
M  V30 9045 C 836.373 1.91393 -0.67056 0
M  V30 9046 C 836.706 1.77163 0.795428 0
M  V30 9047 O 835.981 1.14084 1.57528 0
M  V30 9048 C 836.264 3.43589 -1.0779 0
M  V30 9049 C 836.117 3.66867 -2.60248 0
M  V30 9050 C 837.436 4.35545 -0.631527 0
M  V30 9051 H 834.555 0.695057 -0.24508 0
M  V30 9052 H 837.197 1.44213 -1.23703 0
M  V30 9053 H 835.347 3.83903 -0.595902 0
M  V30 9054 H 837.019 3.35954 -3.16121 0
M  V30 9055 H 835.262 3.1113 -3.02293 0
M  V30 9056 H 835.933 4.73457 -2.838 0
M  V30 9057 H 838.409 4.0275 -1.04554 0
M  V30 9058 H 837.285 5.40707 -0.944831 0
M  V30 9059 H 837.546 4.39618 0.467779 0
M  V30 9060 N 836.605 0.766683 1.37694 0
M  V30 9061 C 837.835 0.339446 2.03792 0
M  V30 9062 C 838.243 -1.04153 1.57952 0
M  V30 9063 O 837.586 -1.67521 0.753826 0
M  V30 9064 C 837.648 0.29822 3.58261 0
M  V30 9065 C 837.312 1.62293 4.27212 0
M  V30 9066 C 838.309 2.57447 4.51682 0
M  V30 9067 C 835.994 1.89597 4.65143 0
M  V30 9068 C 837.988 3.78117 5.13134 0
M  V30 9069 C 835.675 3.10538 5.26317 0
M  V30 9070 C 836.673 4.04617 5.50249 0
M  V30 9071 O 836.361 5.23429 6.10145 0
M  V30 9072 H 836.093 0.140952 0.661142 0
M  V30 9073 H 838.647 1.04022 1.77111 0
M  V30 9074 H 836.877 -0.458897 3.83967 0
M  V30 9075 H 838.566 -0.101263 4.05774 0
M  V30 9076 H 839.332 2.37633 4.22795 0
M  V30 9077 H 835.211 1.17199 4.45854 0
M  V30 9078 H 838.755 4.51563 5.3173 0
M  V30 9079 H 834.652 3.3024 5.54628 0
M  V30 9080 H 835.42 5.24187 6.28626 0
M  V30 9081 N 838.083 -1.48885 0.516809 0
M  V30 9082 C 839.329 -2.03395 -0.0140225 0
M  V30 9083 C 839.684 -1.38808 -1.33229 0
M  V30 9084 O 838.977 -0.520104 -1.84406 0
M  V30 9085 C 839.171 -3.56801 -0.206798 0
M  V30 9086 C 839 -4.36259 1.09124 0
M  V30 9087 C 837.77 -4.77689 1.64745 0
M  V30 9088 C 839.968 -4.73881 1.99854 0
M  V30 9089 N 837.95 -5.41634 2.88975 0
M  V30 9090 C 839.321 -5.37707 3.08661 0
M  V30 9091 C 841.376 -4.55816 2.00341 0
M  V30 9092 C 840.079 -5.85379 4.18001 0
M  V30 9093 C 842.105 -5.04459 3.08666 0
M  V30 9094 C 841.467 -5.68299 4.16191 0
M  V30 9095 H 837.566 -0.781169 0.036042 0
M  V30 9096 H 840.15 -1.81867 0.695173 0
M  V30 9097 H 838.321 -3.78181 -0.885064 0
M  V30 9098 H 840.053 -3.9795 -0.736053 0
M  V30 9099 H 836.808 -4.58392 1.19054 0
M  V30 9100 H 837.232 -5.78181 3.52187 0
M  V30 9101 H 841.874 -4.05851 1.18511 0
M  V30 9102 H 839.592 -6.34356 5.00618 0
M  V30 9103 H 843.178 -4.92281 3.10082 0
M  V30 9104 H 842.058 -6.05257 4.98631 0
M  V30 9105 N 839.561 -0.251338 -1.55583 0
M  V30 9106 C 840.808 0.372169 -1.99051 0
M  V30 9107 C 841.136 1.57623 -1.13953 0
M  V30 9108 O 840.391 1.94762 -0.191398 0
M  V30 9109 C 840.69 0.821186 -3.47838 0
M  V30 9110 C 840.356 -0.275608 -4.50057 0
M  V30 9111 C 839.018 -0.57683 -4.7773 0
M  V30 9112 C 841.37 -1.01585 -5.11204 0
M  V30 9113 C 838.698 -1.62229 -5.63825 0
M  V30 9114 C 841.05 -2.05087 -5.98433 0
M  V30 9115 C 839.714 -2.35869 -6.24437 0
M  V30 9116 H 838.984 0.136186 -0.728378 0
M  V30 9117 H 841.631 -0.360089 -1.88084 0
M  V30 9118 H 839.936 1.63272 -3.56159 0
M  V30 9119 H 841.633 1.31396 -3.78861 0
M  V30 9120 H 838.223 -0.030697 -4.28589 0
M  V30 9121 H 842.407 -0.79639 -4.89869 0
M  V30 9122 H 837.663 -1.86607 -5.82226 0
M  V30 9123 H 841.837 -2.62934 -6.44855 0
M  V30 9124 H 839.464 -3.17017 -6.90944 0
M  V30 9125 N 841.039 1.57585 0.0217189 0
M  V30 9126 C 842.45 1.7787 0.567377 0
M  V30 9127 C 842.801 0.883337 1.7519 0
M  V30 9128 O 841.926 0.0800819 2.16252 0
M  V30 9129 C 842.521 3.2257 1.03606 0
M  V30 9130 C 841.08 3.44026 1.52718 0
M  V30 9131 C 840.227 2.73313 0.468545 0
M  V30 9132 H 843.178 1.57377 -0.2045 0
M  V30 9133 H 843.199 3.29488 1.9031 0
M  V30 9134 H 842.711 3.87711 0.173739 0
M  V30 9135 H 840.812 2.8407 2.41111 0
M  V30 9136 H 840.925 4.52659 1.56962 0
M  V30 9137 H 839.289 2.37299 0.925263 0
M  V30 9138 H 840.072 3.41141 -0.384438 0
M  V30 9139 N 842.517 -0.29412 1.54831 0
M  V30 9140 C 843.447 -1.36757 1.89261 0
M  V30 9141 C 844.428 -1.52564 0.752214 0
M  V30 9142 O 845.613 -1.65958 1.00855 0
M  V30 9143 C 842.743 -2.73066 2.14597 0
M  V30 9144 C 841.697 -2.72017 3.3044 0
M  V30 9145 C 841.023 -4.11679 3.4121 0
M  V30 9146 C 842.323 -2.33149 4.67375 0
M  V30 9147 H 844.017 -1.08191 2.79169 0
M  V30 9148 H 841.563 -0.519014 1.34321 0
M  V30 9149 H 843.516 -3.48255 2.37269 0
M  V30 9150 H 842.24 -3.03172 1.21467 0
M  V30 9151 H 840.899 -1.99285 3.07703 0
M  V30 9152 H 840.547 -4.38973 2.45584 0
M  V30 9153 H 840.247 -4.11877 4.19084 0
M  V30 9154 H 841.771 -4.88637 3.6615 0
M  V30 9155 H 843.185 -2.98054 4.89731 0
M  V30 9156 H 841.582 -2.44546 5.48012 0
M  V30 9157 H 842.652 -1.28275 4.67626 0
M  V30 9158 N 843.995 -1.47404 -0.557645 0
M  V30 9159 C 844.925 -1.62736 -1.67449 0
M  V30 9160 C 845.906 -0.476824 -1.6328 0
M  V30 9161 O 847.091 -0.706108 -1.80908 0
M  V30 9162 C 844.221 -1.641 -3.06086 0
M  V30 9163 C 843.175 -2.78377 -3.25101 0
M  V30 9164 C 842.501 -2.64812 -4.6452 0
M  V30 9165 C 843.801 -4.19971 -3.10518 0
M  V30 9166 H 845.495 -2.56232 -1.54873 0
M  V30 9167 H 843.041 -1.23312 -0.743649 0
M  V30 9168 H 844.994 -1.73417 -3.84063 0
M  V30 9169 H 843.718 -0.671652 -3.19619 0
M  V30 9170 H 842.377 -2.6857 -2.49531 0
M  V30 9171 H 842.025 -1.65906 -4.74852 0
M  V30 9172 H 841.725 -3.41477 -4.78191 0
M  V30 9173 H 843.249 -2.76057 -5.44633 0
M  V30 9174 H 844.663 -4.30757 -3.78313 0
M  V30 9175 H 843.06 -4.97419 -3.35699 0
M  V30 9176 H 844.13 -4.38369 -2.0727 0
M  V30 9177 N 845.473 0.80434 -1.35529 0
M  V30 9178 C 846.698 1.598 -1.32207 0
M  V30 9179 C 847.123 1.87848 0.0974226 0
M  V30 9180 O 846.481 1.46728 1.06492 0
M  V30 9181 C 846.529 2.90483 -2.13663 0
M  V30 9182 O 845.633 3.83411 -1.51888 0
M  V30 9183 H 844.974 0.485305 -0.453183 0
M  V30 9184 H 847.504 0.998119 -1.78602 0
M  V30 9185 H 847.514 3.39888 -2.257 0
M  V30 9186 H 846.189 2.69395 -3.16859 0
M  V30 9187 H 844.766 3.41967 -1.48704 0
M  V30 9188 N 846.951 1.19563 1.02676 0
M  V30 9189 C 847.861 0.950691 2.14474 0
M  V30 9190 C 848.877 -0.0900219 1.73767 0
M  V30 9191 O 850.053 0.0951063 2.01175 0
M  V30 9192 C 847.118 0.494917 3.43149 0
M  V30 9193 C 846.179 1.60527 3.98158 0
M  V30 9194 C 845.412 1.17115 5.20692 0
M  V30 9195 O 845.635 0.0355937 5.70389 0
M  V30 9196 O 844.569 1.97454 5.68591 0
M  V30 9197 H 848.395 1.88651 2.38001 0
M  V30 9198 H 845.98 0.978635 1.12885 0
M  V30 9199 H 847.862 0.249492 4.20661 0
M  V30 9200 H 846.537 -0.412434 3.21062 0
M  V30 9201 H 845.444 1.90487 3.21971 0
M  V30 9202 H 846.777 2.48925 4.24614 0
M  V30 9203 N 848.429 -1.21819 0.999893 0
M  V30 9204 C 849.361 -2.23356 0.514256 0
M  V30 9205 C 850.374 -1.5795 -0.394413 0
M  V30 9206 O 851.563 -1.77427 -0.195428 0
M  V30 9207 C 848.663 -3.37797 -0.273207 0
M  V30 9208 C 847.836 -4.32791 0.633293 0
M  V30 9209 C 846.895 -5.26098 -0.103673 0
M  V30 9210 O 845.921 -5.66881 0.513269 0
M  V30 9211 N 847.123 -5.63764 -1.38383 0
M  V30 9212 H 849.888 -2.65653 1.3874 0
M  V30 9213 H 847.449 -1.3619 0.875431 0
M  V30 9214 H 849.441 -3.97209 -0.775053 0
M  V30 9215 H 848.011 -2.94527 -1.0475 0
M  V30 9216 H 847.231 -3.71595 1.31571 0
M  V30 9217 H 848.519 -4.93196 1.25039 0
M  V30 9218 H 847.917 -5.32614 -1.90627 0
M  V30 9219 H 846.474 -6.25562 -1.83073 0
M  V30 9220 N 849.908 -0.773975 -1.37286 0
M  V30 9221 C 850.841 -0.108019 -2.27944 0
M  V30 9222 C 851.819 0.706737 -1.46438 0
M  V30 9223 O 853.003 0.681025 -1.75768 0
M  V30 9224 C 850.13 0.853199 -3.27778 0
M  V30 9225 C 849.176 0.122164 -4.26325 0
M  V30 9226 S 850.009 -1.19136 -5.22079 0
M  V30 9227 C 851.165 -0.233737 -6.25463 0
M  V30 9228 H 851.398 -0.876743 -2.84078 0
M  V30 9229 H 848.931 -0.567468 -1.43594 0
M  V30 9230 H 850.889 1.40238 -3.85803 0
M  V30 9231 H 849.55 1.59505 -2.70586 0
M  V30 9232 H 848.743 0.850926 -4.96765 0
M  V30 9233 H 848.345 -0.356079 -3.72301 0
M  V30 9234 H 850.637 0.59305 -6.74899 0
M  V30 9235 H 851.58 -0.906373 -7.02275 0
M  V30 9236 H 851.988 0.156048 -5.64284 0
M  V30 9237 N 851.386 1.48609 -0.524698 0
M  V30 9238 C 852.626 2.04398 0.00938367 0
M  V30 9239 C 852.99 1.39355 1.32077 0
M  V30 9240 O 854.191 1.86 1.94055 0
M  V30 9241 C 852.462 3.57148 0.134318 0
M  V30 9242 S 854.021 4.34409 0.619227 0
M  V30 9243 H 850.839 0.710936 -0.00953362 0
M  V30 9244 H 853.441 1.82382 -0.704058 0
M  V30 9245 H 852.145 4.02022 -0.825027 0
M  V30 9246 H 851.676 3.83607 0.872296 0
M  V30 9247 H 853.691 4.59017 1.88462 0
M  V30 9248 N 852.864 0.259585 1.55447 0
M  V30 9249 C 854.141 -0.412595 1.91199 0
M  V30 9250 C 854.521 -1.74909 1.18194 0
M  V30 9251 O 853.869 -2.26474 0.303603 0
M  V30 9252 C 854.079 -0.568195 3.44344 0
M  V30 9253 C 855.427 -0.858253 4.15836 0
M  V30 9254 O 856.451 -0.653588 3.50152 0
M  V30 9255 O 855.31 -1.24874 5.32042 0
M  V30 9256 H 852.404 -0.223403 0.796254 0
M  V30 9257 H 854.95 0.30459 1.66944 0
M  V30 9258 H 853.722 0.372989 3.89518 0
M  V30 9259 H 853.345 -1.33544 3.74502 0
M  V30 9260 N 854.342 -1.57594 -0.0133615 0
M  V30 9261 C 855.252 -2.10991 -1.02566 0
M  V30 9262 C 856.268 -1.05208 -1.3859 0
M  V30 9263 O 857.444 -1.37034 -1.47593 0
M  V30 9264 C 854.509 -2.59165 -2.30292 0
M  V30 9265 C 853.57 -3.79495 -2.00704 0
M  V30 9266 C 852.803 -4.25361 -3.22341 0
M  V30 9267 O 853.026 -3.70645 -4.33565 0
M  V30 9268 O 851.96 -5.17649 -3.07121 0
M  V30 9269 H 855.786 -2.97678 -0.601806 0
M  V30 9270 H 853.371 -1.47598 -0.23135 0
M  V30 9271 H 855.253 -2.90409 -3.05354 0
M  V30 9272 H 853.928 -1.75582 -2.71942 0
M  V30 9273 H 852.835 -3.53245 -1.23161 0
M  V30 9274 H 854.168 -4.64109 -1.639 0
M  V30 9275 N 855.82 0.285905 -1.54985 0
M  V30 9276 C 856.75 1.35752 -1.89983 0
M  V30 9277 C 857.731 1.52163 -0.760295 0
M  V30 9278 O 858.916 1.65421 -1.01733 0
M  V30 9279 C 856.046 2.71925 -2.16042 0
M  V30 9280 C 855 2.70261 -3.31878 0
M  V30 9281 C 854.326 4.09864 -3.43388 0
M  V30 9282 C 855.626 2.30667 -4.68604 0
M  V30 9283 H 857.32 1.06709 -2.79738 0
M  V30 9284 H 854.866 0.511884 -1.34595 0
M  V30 9285 H 856.819 3.46992 -2.39113 0
M  V30 9286 H 855.543 3.02523 -1.23074 0
M  V30 9287 H 854.202 1.97651 -3.08755 0
M  V30 9288 H 853.85 4.37664 -2.47909 0
M  V30 9289 H 853.55 4.09648 -4.21262 0
M  V30 9290 H 855.074 4.86689 -3.68736 0
M  V30 9291 H 856.488 2.95453 -4.91305 0
M  V30 9292 H 854.885 2.41637 -5.49301 0
M  V30 9293 H 855.955 1.25793 -4.68299 0
M  V30 9294 N 857.298 1.47698 0.54982 0
M  V30 9295 C 858.544 1.54931 1.30859 0
M  V30 9296 C 858.877 0.214021 1.93017 0
M  V30 9297 O 858.152 -0.778093 1.78258 0
M  V30 9298 C 858.435 2.67286 2.41309 0
M  V30 9299 C 858.288 4.10457 1.83971 0
M  V30 9300 C 859.607 2.75509 3.43195 0
M  V30 9301 H 856.726 0.56399 0.474431 0
M  V30 9302 H 859.368 1.79787 0.614541 0
M  V30 9303 H 857.518 2.46224 3.0051 0
M  V30 9304 H 859.19 4.42903 1.28974 0
M  V30 9305 H 857.433 4.18387 1.14606 0
M  V30 9306 H 858.104 4.84857 2.63851 0
M  V30 9307 H 860.58 2.94531 2.93923 0
M  V30 9308 H 859.456 3.55886 4.17895 0
M  V30 9309 H 859.717 1.82863 4.02509 0
M  V30 9310 N 858.776 -0.797141 1.35954 0
M  V30 9311 C 859.739 -1.89104 1.29508 0
M  V30 9312 C 860.739 -1.59495 0.204444 0
M  V30 9313 O 861.929 -1.68051 0.458746 0
M  V30 9314 C 859.061 -3.25726 1.00576 0
M  V30 9315 H 860.254 -1.96237 2.26785 0
M  V30 9316 H 857.807 -0.994075 1.20614 0
M  V30 9317 H 858.542 -3.24279 0.0372519 0
M  V30 9318 H 858.327 -3.48604 1.79492 0
M  V30 9319 H 859.817 -4.0578 0.986508 0
M  V30 9320 N 860.254 -1.20106 -1.0204 0
M  V30 9321 C 861.164 -0.962051 -2.13967 0
M  V30 9322 C 862.18 0.0808053 -1.73812 0
M  V30 9323 O 863.356 -0.105774 -2.01122 0
M  V30 9324 C 860.421 -0.513108 -3.42882 0
M  V30 9325 C 859.482 -1.62636 -3.97301 0
M  V30 9326 C 858.715 -1.19875 -5.20063 0
M  V30 9327 O 858.938 -0.0658423 -5.70362 0
M  V30 9328 O 857.872 -2.00467 -5.67536 0
M  V30 9329 H 861.698 -1.8991 -2.36998 0
M  V30 9330 H 859.283 -0.984608 -1.12365 0
M  V30 9331 H 861.165 -0.271797 -4.20523 0
M  V30 9332 H 859.84 0.395402 -3.21276 0
M  V30 9333 H 858.747 -1.92192 -3.20957 0
M  V30 9334 H 860.08 -2.51174 -4.23288 0
M  V30 9335 N 861.732 1.21287 -1.00634 0
M  V30 9336 C 862.665 2.22366 -0.512687 0
M  V30 9337 C 863.643 1.56692 0.434332 0
M  V30 9338 O 864.827 1.85094 0.35674 0
M  V30 9339 C 861.954 3.37738 0.255139 0
M  V30 9340 C 861 4.21673 -0.639883 0
M  V30 9341 S 861.833 4.92474 -2.10308 0
M  V30 9342 C 862.989 6.11275 -1.34512 0
M  V30 9343 H 863.222 2.63896 -1.36918 0
M  V30 9344 H 860.755 1.31176 -0.814387 0
M  V30 9345 H 862.713 4.04624 0.692067 0
M  V30 9346 H 861.374 2.94689 1.08707 0
M  V30 9347 H 860.567 5.03977 -0.0483821 0
M  V30 9348 H 860.169 3.59988 -1.01414 0
M  V30 9349 H 862.461 6.7466 -0.619721 0
M  V30 9350 H 863.404 6.74864 -2.14393 0
M  V30 9351 H 863.812 5.58026 -0.852506 0
M  V30 9352 N 863.21 0.781244 1.36873 0
M  V30 9353 C 864.12 0.174981 2.33947 0
M  V30 9354 C 865.136 -0.668512 1.60645 0
M  V30 9355 O 866.312 -0.586213 1.9268 0
M  V30 9356 C 863.377 -0.686557 3.39834 0
M  V30 9357 C 862.438 0.174489 4.28945 0
M  V30 9358 C 861.671 -0.646024 5.29776 0
M  V30 9359 O 861.894 -1.88254 5.38439 0
M  V30 9360 O 860.828 -0.0502214 6.01879 0
M  V30 9361 H 864.654 0.977382 2.87543 0
M  V30 9362 H 862.239 0.542559 1.392 0
M  V30 9363 H 864.121 -1.1781 4.04597 0
M  V30 9364 H 862.796 -1.46699 2.8855 0
M  V30 9365 H 861.703 0.712604 3.6725 0
M  V30 9366 H 863.036 0.918232 4.83559 0
M  V30 9367 N 864.689 -1.48329 0.532571 0
M  V30 9368 C 865.639 -2.2664 -0.24868 0
M  V30 9369 C 866.623 -1.32861 -0.907563 0
M  V30 9370 O 867.815 -1.57382 -0.809942 0
M  V30 9371 C 864.944 -3.18004 -1.29339 0
M  V30 9372 C 864.03 -4.19256 -0.639166 0
M  V30 9373 N 864.421 -5.05043 0.276597 0
M  V30 9374 C 862.719 -4.36906 -0.896062 0
M  V30 9375 C 863.42 -5.78009 0.654261 0
M  V30 9376 N 862.396 -5.43598 0.0147447 0
M  V30 9377 H 866.198 -2.90344 0.455792 0
M  V30 9378 H 863.712 -1.58566 0.350778 0
M  V30 9379 H 865.709 -3.72767 -1.86682 0
M  V30 9380 H 864.369 -2.55855 -1.99921 0
M  V30 9381 H 865.38 -5.13813 0.649351 0
M  V30 9382 H 862.057 -3.85945 -1.59226 0
M  V30 9383 H 863.447 -6.57039 1.40532 0
M  V30 9384 N 866.167 -0.267825 -1.55308 0
M  V30 9385 C 867.397 0.354073 -2.03543 0
M  V30 9386 C 867.805 1.50554 -1.14586 0
M  V30 9387 O 867.148 1.83028 -0.156991 0
M  V30 9388 C 867.21 0.904148 -3.47945 0
M  V30 9389 C 866.874 -0.11775 -4.56848 0
M  V30 9390 C 867.871 -0.934707 -5.11429 0
M  V30 9391 C 865.556 -0.249885 -5.01678 0
M  V30 9392 C 867.55 -1.87005 -6.0935 0
M  V30 9393 C 865.237 -1.18872 -5.99427 0
M  V30 9394 C 866.235 -1.99731 -6.53144 0
M  V30 9395 O 865.923 -2.92028 -7.48983 0
M  V30 9396 H 865.655 0.0857765 -0.670536 0
M  V30 9397 H 868.209 -0.395515 -2.01556 0
M  V30 9398 H 866.439 1.70368 -3.47148 0
M  V30 9399 H 868.128 1.43835 -3.79561 0
M  V30 9400 H 868.894 -0.84332 -4.77612 0
M  V30 9401 H 864.773 0.369469 -4.59517 0
M  V30 9402 H 868.317 -2.5016 -6.51203 0
M  V30 9403 H 864.214 -1.28095 -6.32663 0
M  V30 9404 H 864.982 -2.86627 -7.66673 0
M  V30 9405 N 867.645 1.57599 0.00500368 0
M  V30 9406 C 868.893 1.89973 0.68953 0
M  V30 9407 C 869.214 0.868531 1.7459 0
M  V30 9408 O 868.484 -0.0947367 1.95671 0
M  V30 9409 H 867.064 0.701153 0.25767 0
M  V30 9410 H 869.726 1.94869 -0.0347392 0
M  V30 9411 H 868.822 2.89584 1.16394 0
M  V30 9412 N 869.123 -0.277682 1.55134 0
M  V30 9413 C 870.055 -1.36531 1.84098 0
M  V30 9414 C 871.068 -1.45756 0.725194 0
M  V30 9415 O 872.257 -1.47656 1.00299 0
M  V30 9416 C 869.357 -2.74701 1.98476 0
M  V30 9417 C 868.53 -2.88125 3.29094 0
M  V30 9418 C 867.589 -4.0694 3.33596 0
M  V30 9419 O 866.615 -3.9792 4.06999 0
M  V30 9420 N 867.817 -5.18687 2.60661 0
M  V30 9421 H 870.582 -1.12032 2.77973 0
M  V30 9422 H 868.143 -0.467793 1.54995 0
M  V30 9423 H 870.135 -3.52471 1.98863 0
M  V30 9424 H 868.705 -2.92043 1.11488 0
M  V30 9425 H 867.925 -1.97277 3.41285 0
M  V30 9426 H 869.213 -2.94021 4.15246 0
M  V30 9427 H 868.611 -5.28901 2.00699 0
M  V30 9428 H 867.168 -5.94705 2.66776 0
M  V30 9429 N 870.601 -1.47988 -0.541979 0
M  V30 9430 C 871.847 -1.56604 -1.29795 0
M  V30 9431 C 872.202 -0.231728 -1.90999 0
M  V30 9432 O 871.495 0.764203 -1.757 0
M  V30 9433 C 871.689 -2.63189 -2.41798 0
M  V30 9434 C 871.518 -4.06855 -1.9157 0
M  V30 9435 C 870.288 -4.74132 -1.74719 0
M  V30 9436 C 872.486 -4.934 -1.45123 0
M  V30 9437 N 870.468 -6.02258 -1.18991 0
M  V30 9438 C 871.839 -6.11675 -1.01263 0
M  V30 9439 C 873.894 -4.7972 -1.33315 0
M  V30 9440 C 872.597 -7.17778 -0.467663 0
M  V30 9441 C 874.623 -5.85934 -0.802192 0
M  V30 9442 C 873.985 -7.03409 -0.373595 0
M  V30 9443 H 870.084 -0.627677 -0.466418 0
M  V30 9444 H 872.668 -1.84812 -0.612576 0
M  V30 9445 H 870.839 -2.36823 -3.07846 0
M  V30 9446 H 872.571 -2.6156 -3.08818 0
M  V30 9447 H 869.326 -4.30276 -1.97887 0
M  V30 9448 H 869.75 -6.70558 -0.931715 0
M  V30 9449 H 874.392 -3.89249 -1.6506 0
M  V30 9450 H 872.11 -8.07982 -0.137874 0
M  V30 9451 H 875.696 -5.774 -0.714171 0
M  V30 9452 H 874.576 -7.84194 0.0308796 0
M  V30 9453 N 872.079 0.78992 -1.36375 0
M  V30 9454 C 873.304 1.58389 -1.33895 0
M  V30 9455 C 873.729 1.8794 0.0774934 0
M  V30 9456 O 873.087 1.4785 1.0493 0
M  V30 9457 C 873.135 2.88201 -2.16732 0
M  V30 9458 O 872.239 3.81778 -1.55946 0
M  V30 9459 H 871.58 0.480471 -0.458305 0
M  V30 9460 H 874.11 0.979119 -1.79651 0
M  V30 9461 H 874.12 3.37475 -2.29292 0
M  V30 9462 H 872.795 2.66019 -3.19698 0
M  V30 9463 H 871.372 3.40371 -1.52323 0
M  V30 9464 N 873.557 1.20646 1.01402 0
M  V30 9465 C 874.805 1.01618 1.74695 0
M  V30 9466 C 875.126 -0.452438 1.89679 0
M  V30 9467 O 874.396 -1.32693 1.44116 0
M  V30 9468 H 872.976 0.373013 0.647202 0
M  V30 9469 H 875.638 1.518 1.22241 0
M  V30 9470 H 874.734 1.47666 2.74957 0
M  V30 9471 N 875.035 -1.20752 1.01276 0
M  V30 9472 C 876.283 -1.89645 0.698505 0
M  V30 9473 C 876.604 -1.78986 -0.773883 0
M  V30 9474 O 875.874 -1.18977 -1.55632 0
M  V30 9475 H 874.454 -0.701992 0.255375 0
M  V30 9476 H 877.116 -1.46668 1.28353 0
M  V30 9477 H 876.212 -2.96364 0.978512 0
M  V30 9478 N 876.513 -0.788492 -1.36457 0
M  V30 9479 C 877.929 -0.470063 -1.52521 0
M  V30 9480 C 878.129 1.01176 -1.74258 0
M  V30 9481 O 877.185 1.79726 -1.77355 0
M  V30 9482 C 878.498 -1.2997 -2.71161 0
M  V30 9483 C 880.046 -1.2933 -2.85031 0
M  V30 9484 C 880.521 -2.10665 -4.06674 0
M  V30 9485 N 882.012 -2.08107 -4.13819 0
M  V30 9486 C 882.747 -2.6781 -5.07016 0
M  V30 9487 N 882.243 -3.36369 -6.05663 0
M  V30 9488 N 884.036 -2.57549 -4.99625 0
M  V30 9489 H 876.187 -1.7484 -1.20602 0
M  V30 9490 H 878.45 -0.743159 -0.588574 0
M  V30 9491 H 878.156 -2.35051 -2.61618 0
M  V30 9492 H 878.03 -0.940367 -3.6529 0
M  V30 9493 H 880.417 -0.250414 -2.94036 0
M  V30 9494 H 880.498 -1.69239 -1.91812 0
M  V30 9495 H 880.142 -3.14984 -3.98431 0
M  V30 9496 H 880.072 -1.68128 -4.9904 0
M  V30 9497 H 882.563 -1.58208 -3.43189 0
M  V30 9498 H 882.876 -3.79258 -6.73338 0
M  V30 9499 H 881.221 -3.40471 -6.05891 0
M  V30 9500 H 884.412 -2.0359 -4.21508 0
M  V30 9501 H 884.585 -3.0437 -5.72069 0
M  V30 9502 N 877.991 1.48044 -0.54043 0
M  V30 9503 C 878.941 2.26768 0.236657 0
M  V30 9504 C 879.925 1.33341 0.900505 0
M  V30 9505 O 881.117 1.57809 0.801584 0
M  V30 9506 C 878.246 3.18685 1.27651 0
M  V30 9507 C 877.332 4.19589 0.616923 0
M  V30 9508 N 877.723 5.04889 -0.303377 0
M  V30 9509 C 876.021 4.37375 0.872879 0
M  V30 9510 C 876.722 5.77654 -0.684905 0
M  V30 9511 N 875.698 5.43583 -0.0435728 0
M  V30 9512 H 879.5 2.90098 -0.471183 0
M  V30 9513 H 877.014 1.58378 -0.359183 0
M  V30 9514 H 879.011 3.73752 1.84702 0
M  V30 9515 H 877.671 2.56911 1.98562 0
M  V30 9516 H 878.682 5.13461 -0.676591 0
M  V30 9517 H 875.359 3.86784 1.57177 0
M  V30 9518 H 876.749 6.56285 -1.44015 0
M  V30 9519 N 879.47 0.276058 1.55163 0
M  V30 9520 C 880.38 -0.621066 2.2623 0
M  V30 9521 C 881.396 -1.16931 1.28853 0
M  V30 9522 O 882.572 -1.1994 1.61791 0
M  V30 9523 C 879.637 -1.78824 2.97023 0
M  V30 9524 C 878.698 -1.27657 4.09881 0
M  V30 9525 C 877.931 -2.38812 4.77289 0
M  V30 9526 O 878.154 -3.58188 4.43912 0
M  V30 9527 O 877.088 -2.06915 5.65217 0
M  V30 9528 H 880.914 -0.0453346 3.03666 0
M  V30 9529 H 878.499 0.0434275 1.49337 0
M  V30 9530 H 880.381 -2.46877 3.41511 0
M  V30 9531 H 879.056 -2.35104 2.22503 0
M  V30 9532 H 877.963 -0.56248 3.69847 0
M  V30 9533 H 879.296 -0.759509 4.86305 0
M  V30 9534 N 880.948 -1.576 0.00335426 0
M  V30 9535 C 882.225 -1.81945 -0.718015 0
M  V30 9536 C 882.605 -0.881788 -1.91801 0
M  V30 9537 O 881.953 0.0687118 -2.28397 0
M  V30 9538 C 882.163 -3.30521 -1.12058 0
M  V30 9539 C 883.511 -3.96345 -1.52303 0
M  V30 9540 O 884.535 -3.34864 -1.21428 0
M  V30 9541 O 883.394 -5.04655 -2.09728 0
M  V30 9542 H 880.488 -0.749328 -0.34991 0
M  V30 9543 H 883.034 -1.69675 0.0290654 0
M  V30 9544 H 881.806 -3.90399 -0.265378 0
M  V30 9545 H 881.429 -3.47802 -1.92665 0
M  V30 9546 N 882.426 0.269451 -1.5528 0
M  V30 9547 C 883.651 1.02299 -1.80415 0
M  V30 9548 C 884.076 1.7902 -0.577363 0
M  V30 9549 O 883.434 1.75018 0.473125 0
M  V30 9550 C 883.482 1.95445 -3.0304 0
M  V30 9551 O 882.586 3.04271 -2.78375 0
M  V30 9552 H 881.927 0.292289 -0.596207 0
M  V30 9553 H 884.457 0.297282 -2.02429 0
M  V30 9554 H 884.467 2.37333 -3.31869 0
M  V30 9555 H 883.142 1.39017 -3.91978 0
M  V30 9556 H 881.719 2.66673 -2.60653 0
M  V30 9557 N 883.904 1.48273 0.534124 0
M  V30 9558 C 885.32 1.34302 0.862272 0
M  V30 9559 C 885.52 0.350902 1.98421 0
M  V30 9560 O 884.576 -0.229364 2.51456 0
M  V30 9561 C 885.889 2.74227 1.23371 0
M  V30 9562 C 887.437 2.82684 1.34383 0
M  V30 9563 C 887.912 4.23301 1.74871 0
M  V30 9564 N 889.403 4.25954 1.81981 0
M  V30 9565 C 890.138 5.31693 2.14686 0
M  V30 9566 N 889.634 6.47714 2.45844 0
M  V30 9567 N 891.427 5.19084 2.15657 0
M  V30 9568 H 883.578 2.11397 -0.206215 0
M  V30 9569 H 885.841 0.947537 -0.0296116 0
M  V30 9570 H 885.547 3.48368 0.482967 0
M  V30 9571 H 885.421 3.07485 2.18478 0
M  V30 9572 H 887.808 2.08801 2.08534 0
M  V30 9573 H 887.889 2.5305 0.374063 0
M  V30 9574 H 887.533 4.97699 1.01282 0
M  V30 9575 H 887.463 4.50376 2.7289 0
M  V30 9576 H 889.954 3.42266 1.60196 0
M  V30 9577 H 890.267 7.2414 2.69892 0
M  V30 9578 H 888.612 6.50995 2.43372 0
M  V30 9579 H 891.803 4.27463 1.9077 0
M  V30 9580 H 891.976 6.01592 2.40813 0
M  V30 9581 N 885.382 -0.782676 1.36792 0
M  V30 9582 C 886.312 -1.90973 1.34356 0
M  V30 9583 C 887.293 -1.6875 0.213917 0
M  V30 9584 O 888.478 -1.89766 0.412601 0
M  V30 9585 C 885.608 -3.28097 1.13884 0
M  V30 9586 C 884.562 -3.6486 2.23744 0
M  V30 9587 C 883.888 -5.00406 1.88408 0
M  V30 9588 C 885.188 -3.72742 3.6587 0
M  V30 9589 H 886.882 -1.93268 2.28665 0
M  V30 9590 H 884.428 -0.928447 1.10072 0
M  V30 9591 H 886.381 -4.06569 1.10813 0
M  V30 9592 H 885.105 -3.26206 0.160275 0
M  V30 9593 H 883.764 -2.88689 2.25952 0
M  V30 9594 H 883.412 -4.95044 0.891083 0
M  V30 9595 H 883.112 -5.25973 2.61966 0
M  V30 9596 H 884.636 -5.81291 1.86905 0
M  V30 9597 H 886.05 -4.4139 3.65852 0
M  V30 9598 H 884.447 -4.09798 4.38389 0
M  V30 9599 H 885.517 -2.73676 4.00287 0
M  V30 9600 N 886.86 -1.21182 -1.00761 0
M  V30 9601 C 887.823 -0.970339 -2.07646 0
M  V30 9602 C 888.823 0.0576345 -1.60697 0
M  V30 9603 O 890.013 -0.179369 -1.73274 0
M  V30 9604 C 887.145 -0.462703 -3.37745 0
M  V30 9605 H 888.338 -1.91856 -2.30502 0
M  V30 9606 H 885.891 -1.02844 -1.17698 0
M  V30 9607 H 886.626 0.490559 -3.20568 0
M  V30 9608 H 886.411 -1.20416 -3.73152 0
M  V30 9609 H 887.901 -0.313531 -4.16421 0
M  V30 9610 N 888.338 1.20213 -1.01915 0
M  V30 9611 C 889.586 1.89272 -0.708552 0
M  V30 9612 C 889.907 1.79394 0.76438 0
M  V30 9613 O 889.177 1.198 1.54999 0
M  V30 9614 H 887.757 0.700628 -0.259094 0
M  V30 9615 H 890.419 1.45985 -1.29129 0
M  V30 9616 H 889.515 2.95841 -0.994215 0
M  V30 9617 N 889.816 0.795718 1.36037 0
M  V30 9618 C 891.064 0.370291 1.98679 0
M  V30 9619 C 891.385 -1.06332 1.63458 0
M  V30 9620 O 890.655 -1.73394 0.911671 0
M  V30 9621 H 889.235 0.133928 0.734896 0
M  V30 9622 H 891.897 1.01915 1.6613 0
M  V30 9623 H 890.993 0.467207 3.08583 0
M  V30 9624 N 891.294 -1.47756 0.548274 0
M  V30 9625 C 892.524 -2.06584 0.0254503 0
M  V30 9626 C 892.932 -1.40268 -1.26971 0
M  V30 9627 O 892.275 -0.49019 -1.77039 0
M  V30 9628 C 892.337 -3.58628 -0.250301 0
M  V30 9629 C 892.001 -4.4693 0.954087 0
M  V30 9630 C 892.998 -4.85592 1.85733 0
M  V30 9631 C 890.683 -4.88573 1.16624 0
M  V30 9632 C 892.677 -5.64686 2.95648 0
M  V30 9633 C 890.364 -5.67435 2.2685 0
M  V30 9634 C 891.362 -6.05401 3.16194 0
M  V30 9635 O 891.05 -6.82676 4.24511 0
M  V30 9636 H 890.782 -0.67489 0.0387264 0
M  V30 9637 H 893.336 -1.90876 0.758663 0
M  V30 9638 H 891.566 -3.72516 -1.03771 0
M  V30 9639 H 893.255 -3.9951 -0.717419 0
M  V30 9640 H 894.021 -4.54026 1.70544 0
M  V30 9641 H 889.9 -4.58494 0.480039 0
M  V30 9642 H 893.444 -5.9424 3.65411 0
M  V30 9643 H 889.341 -5.98413 2.42016 0
M  V30 9644 H 890.109 -7.01057 4.22447 0
M  V30 9645 N 892.772 -0.284283 -1.55015 0
M  V30 9646 C 893.682 0.60906 -2.26556 0
M  V30 9647 C 894.698 1.16246 -1.29472 0
M  V30 9648 O 895.874 1.1908 -1.62425 0
M  V30 9649 C 892.939 1.77246 -2.97968 0
M  V30 9650 C 892 1.25482 -4.10552 0
M  V30 9651 C 891.233 2.36277 -4.78549 0
M  V30 9652 O 891.456 3.55829 -4.45805 0
M  V30 9653 O 890.39 2.03914 -5.66306 0
M  V30 9654 H 894.216 0.0292298 -3.03686 0
M  V30 9655 H 891.801 -0.0513466 -1.49312 0
M  V30 9656 H 893.683 2.45062 -3.42815 0
M  V30 9657 H 892.358 2.33921 -2.23747 0
M  V30 9658 H 891.265 0.542859 -3.7014 0
M  V30 9659 H 892.598 0.733708 -4.86701 0
M  V30 9660 N 894.251 1.57596 -0.0117121 0
M  V30 9661 C 895.199 2.1029 0.994035 0
M  V30 9662 C 896.193 1.02549 1.34833 0
M  V30 9663 O 897.399 1.21003 1.3326 0
M  V30 9664 H 893.774 0.671624 0.338268 0
M  V30 9665 H 895.745 2.93761 0.524147 0
M  V30 9666 C 894.494 2.63099 2.27319 0
M  V30 9667 H 893.817 3.45642 2.00927 0
M  V30 9668 H 895.257 3.03635 2.95942 0
M  V30 9669 C 893.716 1.55044 2.99104 0
M  V30 9670 O 894.246 0.940127 3.90544 0
M  V30 9671 N 892.452 1.27506 2.61133 0
M  V30 9672 H 891.999 1.77322 1.86855 0
M  V30 9673 H 891.957 0.554292 3.09475 0
M  V30 9674 N 895.729 -0.261212 1.5542 0
M  V30 9675 C 896.975 -0.992699 1.76843 0
M  V30 9676 C 897.308 -1.8551 0.574428 0
M  V30 9677 O 896.583 -1.89739 -0.427713 0
M  V30 9678 C 896.866 -1.86532 3.08022 0
M  V30 9679 C 896.719 -1.03206 4.378 0
M  V30 9680 C 898.038 -2.85036 3.35324 0
M  V30 9681 H 895.157 -0.359473 0.643388 0
M  V30 9682 H 897.799 -0.264214 1.88154 0
M  V30 9683 H 895.949 -2.48644 2.9851 0
M  V30 9684 H 897.621 -0.430743 4.59285 0
M  V30 9685 H 895.864 -0.335911 4.32497 0
M  V30 9686 H 896.535 -1.6761 5.25938 0
M  V30 9687 H 899.011 -2.3306 3.44706 0
M  V30 9688 H 897.887 -3.43226 4.28354 0
M  V30 9689 H 898.148 -3.60768 2.55537 0
M  V30 9690 N 897.207 -1.48554 -0.526253 0
M  V30 9691 C 898.618 -1.50256 -1.10815 0
M  V30 9692 C 898.969 -0.274445 -1.94271 0
M  V30 9693 O 898.094 0.618094 -2.07385 0
M  V30 9694 C 898.689 -2.72264 -2.01638 0
M  V30 9695 C 897.248 -2.76826 -2.55038 0
M  V30 9696 C 896.395 -2.43823 -1.32081 0
M  V30 9697 H 899.346 -1.55616 -0.31133 0
M  V30 9698 H 899.367 -2.50993 -2.85977 0
M  V30 9699 H 898.879 -3.61632 -1.4087 0
M  V30 9700 H 896.98 -1.91676 -3.19517 0
M  V30 9701 H 897.093 -3.78351 -2.93917 0
M  V30 9702 H 895.457 -1.95058 -1.63781 0
M  V30 9703 H 896.24 -3.35436 -0.730596 0
M  V30 9704 N 898.685 0.775411 -1.37205 0
M  V30 9705 C 899.913 1.56446 -1.35397 0
M  V30 9706 C 900.328 1.887 0.0615437 0
M  V30 9707 O 899.685 1.51178 1.02233 0
M  V30 9708 C 899.736 2.87697 -2.18889 0
M  V30 9709 O 899.457 2.56828 -3.54924 0
M  V30 9710 C 900.958 3.81944 -2.25019 0
M  V30 9711 H 898.178 0.484792 -0.463916 0
M  V30 9712 H 900.722 0.961346 -1.80495 0
M  V30 9713 H 898.877 3.44442 -1.7731 0
M  V30 9714 H 899.291 3.40851 -3.98649 0
M  V30 9715 H 900.765 4.71055 -2.87769 0
M  V30 9716 H 901.242 4.20811 -1.25757 0
M  V30 9717 H 901.848 3.3113 -2.66895 0
M  V30 9718 N 900.163 1.21714 1.00117 0
M  V30 9719 C 901.409 1.03823 1.74208 0
M  V30 9720 C 901.742 -0.426733 1.89454 0
M  V30 9721 O 901.017 -1.31658 1.43166 0
M  V30 9722 C 901.3 1.74047 3.15246 0
M  V30 9723 C 901.153 3.28087 3.077 0
M  V30 9724 C 902.472 1.48614 4.14249 0
M  V30 9725 H 899.591 0.378573 0.632338 0
M  V30 9726 H 902.233 1.49942 1.16694 0
M  V30 9727 H 900.383 1.3484 3.64349 0
M  V30 9728 H 902.055 3.76686 2.6628 0
M  V30 9729 H 900.298 3.58191 2.44707 0
M  V30 9730 H 900.969 3.72392 4.07466 0
M  V30 9731 H 903.445 1.82656 3.73866 0
M  V30 9732 H 902.321 2.00257 5.11066 0
M  V30 9733 H 902.582 0.416957 4.40129 0
M  V30 9734 N 901.641 -1.19671 1.02551 0
M  V30 9735 C 902.918 -1.85014 0.634771 0
M  V30 9736 C 903.298 -1.91574 -0.886706 0
M  V30 9737 O 902.646 -1.43022 -1.78205 0
M  V30 9738 C 902.856 -3.24167 1.29292 0
M  V30 9739 C 904.204 -4.00363 1.41402 0
M  V30 9740 O 905.228 -3.33553 1.24983 0
M  V30 9741 O 904.087 -5.2003 1.6802 0
M  V30 9742 H 901.181 -0.797147 0.220196 0
M  V30 9743 H 903.727 -1.27188 1.12345 0
M  V30 9744 H 902.499 -3.14208 2.33215 0
M  V30 9745 H 902.122 -3.89634 0.791895 0
M  V30 9746 N 903.119 -0.802921 -1.35613 0
M  V30 9747 C 904.368 -0.378087 -1.98125 0
M  V30 9748 C 904.681 1.05953 -1.64418 0
M  V30 9749 O 905.887 1.58729 -2.20266 0
M  V30 9750 C 904.343 -0.625077 -3.5443 0
M  V30 9751 C 903.951 -2.07499 -3.97049 0
M  V30 9752 C 905.695 -0.265419 -4.23669 0
M  V30 9753 C 903.602 -2.26793 -5.46186 0
M  V30 9754 H 902.532 -0.137633 -0.741332 0
M  V30 9755 H 905.183 -0.986461 -1.54729 0
M  V30 9756 H 903.565 0.0531975 -3.95964 0
M  V30 9757 H 904.739 -2.79077 -3.66678 0
M  V30 9758 H 903.054 -2.39417 -3.40688 0
M  V30 9759 H 905.651 -0.387669 -5.33293 0
M  V30 9760 H 905.994 0.787994 -4.08774 0
M  V30 9761 H 906.527 -0.897464 -3.87544 0
M  V30 9762 H 903.266 -3.30566 -5.66045 0
M  V30 9763 H 902.786 -1.59735 -5.78139 0
M  V30 9764 H 904.465 -2.08165 -6.12598 0
M  V30 9765 N 904.597 1.47463 -0.556102 0
M  V30 9766 C 905.547 2.27007 0.212592 0
M  V30 9767 C 906.531 1.34288 0.886312 0
M  V30 9768 O 907.723 1.5865 0.784801 0
M  V30 9769 C 904.852 3.20021 1.24263 0
M  V30 9770 C 903.938 4.2022 0.572385 0
M  V30 9771 N 904.329 5.04539 -0.35691 0
M  V30 9772 C 902.627 4.38276 0.826441 0
M  V30 9773 C 903.328 5.76895 -0.746134 0
M  V30 9774 N 902.304 5.43506 -0.101225 0
M  V30 9775 H 906.106 2.89582 -0.501925 0
M  V30 9776 H 903.62 1.57988 -0.375961 0
M  V30 9777 H 905.617 3.7569 1.80728 0
M  V30 9778 H 904.277 2.59003 1.95826 0
M  V30 9779 H 905.288 5.12715 -0.731012 0
M  V30 9780 H 901.965 3.88429 1.53066 0
M  V30 9781 H 903.355 6.5472 -1.50967 0
M  V30 9782 N 906.075 0.2925 1.54862 0
M  V30 9783 C 907.008 -0.629155 2.19356 0
M  V30 9784 C 907.986 -1.13927 1.16014 0
M  V30 9785 O 909.17 -1.20904 1.44618 0
M  V30 9786 C 906.297 -1.8599 2.83064 0
M  V30 9787 C 905.343 -1.48376 3.99859 0
M  V30 9788 S 906.176 -0.546976 5.32699 0
M  V30 9789 C 907.332 -1.7857 5.99886 0
M  V30 9790 H 907.565 -0.0812166 2.97189 0
M  V30 9791 H 905.098 0.0766721 1.5421 0
M  V30 9792 H 907.056 -2.56623 3.20398 0
M  V30 9793 H 905.717 -2.37899 2.05092 0
M  V30 9794 H 904.91 -2.40002 4.43187 0
M  V30 9795 H 904.512 -0.857447 3.64038 0
M  V30 9796 H 906.804 -2.7274 6.20177 0
M  V30 9797 H 907.747 -1.39513 6.9422 0
M  V30 9798 H 908.155 -1.95856 5.29434 0
M  V30 9799 N 907.553 -1.57587 0.0200696 0
M  V30 9800 C 908.5 -2.09667 -0.964791 0
M  V30 9801 C 909.47 -0.99664 -1.32877 0
M  V30 9802 O 910.655 -1.2703 -1.42366 0
M  V30 9803 C 907.795 -2.62101 -2.24493 0
M  V30 9804 C 906.908 -3.8608 -1.93821 0
M  V30 9805 C 906.043 -4.26939 -3.16064 0
M  V30 9806 C 905.082 -5.43701 -2.81169 0
M  V30 9807 N 904.219 -5.79759 -3.9601 0
M  V30 9808 H 909.059 -2.93538 -0.513751 0
M  V30 9809 H 906.596 -1.45096 -0.242 0
M  V30 9810 H 908.554 -2.90587 -2.99358 0
M  V30 9811 H 907.184 -1.81074 -2.6723 0
M  V30 9812 H 906.236 -3.64378 -1.09237 0
M  V30 9813 H 907.548 -4.71028 -1.64115 0
M  V30 9814 H 906.702 -4.56814 -3.99257 0
M  V30 9815 H 905.441 -3.40739 -3.48924 0
M  V30 9816 H 904.446 -5.13529 -1.96387 0
M  V30 9817 H 905.671 -6.31593 -2.49535 0
M  V30 9818 H 903.617 -4.96516 -4.28729 0
M  V30 9819 H 903.534 -6.59327 -3.69896 0
M  V30 9820 H 904.802 -6.14235 -4.79933 0
M  V30 9821 N 909.032 0.252966 -1.55557 0
M  V30 9822 C 909.964 1.33585 -1.86246 0
M  V30 9823 C 910.977 1.44584 -0.748291 0
M  V30 9824 O 912.166 1.46042 -1.02635 0
M  V30 9825 C 909.266 2.71509 -2.02821 0
M  V30 9826 C 908.439 2.82853 -3.33636 0
M  V30 9827 C 907.498 4.01581 -3.40028 0
M  V30 9828 O 906.524 3.91394 -4.13278 0
M  V30 9829 N 907.726 5.14474 -2.6888 0
M  V30 9830 H 910.491 1.07596 -2.7972 0
M  V30 9831 H 908.052 0.443075 -1.55719 0
M  V30 9832 H 910.044 3.49262 -2.04445 0
M  V30 9833 H 908.614 2.90232 -1.1612 0
M  V30 9834 H 907.834 1.91823 -3.4438 0
M  V30 9835 H 909.122 2.87378 -4.19871 0
M  V30 9836 H 908.52 5.25641 -2.09087 0
M  V30 9837 H 907.077 5.90385 -2.76204 0
M  V30 9838 N 910.51 1.48831 0.518367 0
M  V30 9839 C 911.756 1.57672 1.27543 0
M  V30 9840 C 912.089 0.254915 1.9252 0
M  V30 9841 O 911.364 -0.740107 1.79868 0
M  V30 9842 C 911.647 2.72345 2.35585 0
M  V30 9843 C 911.5 4.14267 1.75224 0
M  V30 9844 C 912.819 2.82726 3.37274 0
M  V30 9845 H 909.938 0.573926 0.462361 0
M  V30 9846 H 912.58 1.8105 0.576267 0
M  V30 9847 H 910.73 2.52543 2.95219 0
M  V30 9848 H 912.402 4.45539 1.19551 0
M  V30 9849 H 910.645 4.20724 1.05706 0
M  V30 9850 H 911.316 4.90345 2.53507 0
M  V30 9851 H 913.792 3.00699 2.8761 0
M  V30 9852 H 912.668 3.6467 4.10252 0
M  V30 9853 H 912.929 1.9136 3.9854 0
M  V30 9854 N 911.988 -0.768124 1.37614 0
M  V30 9855 C 913.236 -1.52379 1.3276 0
M  V30 9856 C 913.557 -1.94809 -0.0863564 0
M  V30 9857 O 912.827 -1.66568 -1.03112 0
M  V30 9858 H 911.407 -0.565179 0.488448 0
M  V30 9859 H 914.069 -0.913974 1.72141 0
M  V30 9860 H 913.165 -2.4215 1.96901 0
M  V30 9861 N 913.466 -1.22244 -0.994698 0
M  V30 9862 C 914.696 -1.07062 -1.76695 0
M  V30 9863 C 915.104 0.381895 -1.85306 0
M  V30 9864 O 914.447 1.27648 -1.32105 0
M  V30 9865 C 914.509 -1.60487 -3.2169 0
M  V30 9866 C 914.173 -3.09079 -3.36629 0
M  V30 9867 C 915.17 -4.06526 -3.24088 0
M  V30 9868 C 912.855 -3.48497 -3.61739 0
M  V30 9869 C 914.849 -5.41377 -3.36437 0
M  V30 9870 C 912.536 -4.83498 -3.73729 0
M  V30 9871 C 913.534 -5.79747 -3.61086 0
M  V30 9872 O 913.222 -7.12297 -3.72678 0
M  V30 9873 H 912.954 -0.375963 -0.561807 0
M  V30 9874 H 915.508 -1.62259 -1.25941 0
M  V30 9875 H 913.738 -0.996957 -3.73628 0
M  V30 9876 H 915.427 -1.40994 -3.80625 0
M  V30 9877 H 916.193 -3.77415 -3.04602 0
M  V30 9878 H 912.072 -2.74106 -3.70657 0
M  V30 9879 H 915.616 -6.16485 -3.26485 0
M  V30 9880 H 911.513 -5.1229 -3.92721 0
M  V30 9881 H 912.281 -7.1985 -3.89562 0
M  V30 9882 N 914.944 1.19125 -1.03184 0
M  V30 9883 C 915.854 2.26112 -0.625329 0
M  V30 9884 C 916.87 1.7056 0.344298 0
M  V30 9885 O 918.046 2.0039 0.20144 0
M  V30 9886 C 915.111 3.46697 0.0145169 0
M  V30 9887 C 914.172 4.17419 -1.00299 0
M  V30 9888 C 913.405 5.32247 -0.393581 0
M  V30 9889 O 913.628 5.64724 0.802659 0
M  V30 9890 O 912.562 5.91428 -1.1179 0
M  V30 9891 H 916.388 2.63131 -1.51643 0
M  V30 9892 H 913.973 1.26036 -0.802197 0
M  V30 9893 H 915.855 4.19762 0.371139 0
M  V30 9894 H 914.53 3.11521 0.879581 0
M  V30 9895 H 913.437 3.4646 -1.41125 0
M  V30 9896 H 914.77 4.56573 -1.83852 0
M  V30 9897 N 916.422 0.810101 1.35185 0
M  V30 9898 C 917.699 0.315235 1.93043 0
M  V30 9899 C 918.079 -1.19567 1.73974 0
M  V30 9900 O 917.427 -1.99682 1.11083 0
M  V30 9901 C 917.637 0.730492 3.41269 0
M  V30 9902 C 918.985 0.721985 4.18417 0
M  V30 9903 O 920.009 0.672258 3.49799 0
M  V30 9904 O 918.868 0.783535 5.40854 0
M  V30 9905 H 915.962 0.0832774 0.822796 0
M  V30 9906 H 918.508 0.894034 1.4424 0
M  V30 9907 H 917.28 1.77169 3.48894 0
M  V30 9908 H 916.903 0.12669 3.97398 0
M  V30 9909 N 917.9 -1.47166 0.563914 0
M  V30 9910 C 918.832 -2.28165 -0.217583 0
M  V30 9911 C 919.845 -1.37405 -0.873134 0
M  V30 9912 O 921.034 -1.6217 -0.745857 0
M  V30 9913 C 918.134 -3.11873 -1.32621 0
M  V30 9914 C 917.307 -4.30637 -0.766177 0
M  V30 9915 C 916.366 -4.95889 -1.76014 0
M  V30 9916 O 915.392 -5.54071 -1.3036 0
M  V30 9917 N 916.594 -4.91191 -3.09373 0
M  V30 9918 H 919.359 -2.95876 0.477256 0
M  V30 9919 H 916.92 -1.5687 0.40043 0
M  V30 9920 H 918.912 -3.52392 -1.99003 0
M  V30 9921 H 917.482 -2.46361 -1.92419 0
M  V30 9922 H 916.702 -3.94129 0.0745998 0
M  V30 9923 H 917.99 -5.07442 -0.371472 0
M  V30 9924 H 917.388 -4.45133 -3.49104 0
M  V30 9925 H 915.945 -5.35708 -3.71295 0
M  V30 9926 N 919.378 -0.300708 -1.54705 0
M  V30 9927 C 920.624 0.301982 -2.01146 0
M  V30 9928 C 920.979 1.51548 -1.18537 0
M  V30 9929 O 920.272 1.89914 -0.253656 0
M  V30 9930 C 920.466 0.710108 -3.50275 0
M  V30 9931 C 920.295 -0.462291 -4.47318 0
M  V30 9932 C 919.065 -0.954214 -4.96208 0
M  V30 9933 C 921.263 -1.30716 -4.97411 0
M  V30 9934 N 919.245 -2.09341 -5.77105 0
M  V30 9935 C 920.616 -2.29384 -5.76006 0
M  V30 9936 C 922.671 -1.33756 -4.79597 0
M  V30 9937 C 921.374 -3.30869 -6.38685 0
M  V30 9938 C 923.4 -2.34099 -5.43094 0
M  V30 9939 C 922.762 -3.31498 -6.21521 0
M  V30 9940 H 918.861 0.0749709 -0.778398 0
M  V30 9941 H 921.445 -0.430557 -1.8988 0
M  V30 9942 H 919.616 1.41182 -3.61832 0
M  V30 9943 H 921.348 1.29231 -3.83512 0
M  V30 9944 H 918.103 -0.529238 -4.70634 0
M  V30 9945 H 918.527 -2.66739 -6.22237 0
M  V30 9946 H 923.169 -0.598284 -4.18546 0
M  V30 9947 H 920.887 -4.05717 -6.9887 0
M  V30 9948 H 924.473 -2.37225 -5.31239 0
M  V30 9949 H 923.353 -4.07872 -6.69784 0
M  V30 9950 N 920.856 1.57574 -0.0284266 0
M  V30 9951 C 921.786 2.1321 0.952039 0
M  V30 9952 C 922.767 1.04806 1.33977 0
M  V30 9953 O 923.952 1.32635 1.41851 0
M  V30 9954 C 921.082 2.65862 2.23461 0
M  V30 9955 C 920.036 3.79047 1.98765 0
M  V30 9956 C 919.362 4.18124 3.33281 0
M  V30 9957 C 920.662 5.05151 1.32739 0
M  V30 9958 H 922.356 2.95385 0.488705 0
M  V30 9959 H 919.902 1.42092 0.233628 0
M  V30 9960 H 921.855 3.03417 2.92431 0
M  V30 9961 H 920.579 1.80848 2.71959 0
M  V30 9962 H 919.238 3.41929 1.32213 0
M  V30 9963 H 918.886 3.30092 3.79537 0
M  V30 9964 H 918.586 4.94396 3.17563 0
M  V30 9965 H 920.11 4.58262 4.0352 0
M  V30 9966 H 921.524 5.40297 1.91708 0
M  V30 9967 H 919.921 5.86416 1.27421 0
M  V30 9968 H 920.991 4.83969 0.300261 0
M  V30 9969 N 922.334 -0.244713 1.55689 0
M  V30 9970 C 923.266 -1.32595 1.86952 0
M  V30 9971 C 924.279 -1.44185 0.755948 0
M  V30 9972 O 925.468 -1.45496 1.03408 0
M  V30 9973 C 922.568 -2.70429 2.04258 0
M  V30 9974 C 921.741 -2.8108 3.35131 0
M  V30 9975 C 920.8 -3.99773 3.42152 0
M  V30 9976 O 919.826 -3.89197 4.15348 0
M  V30 9977 N 921.028 -5.13041 2.71604 0
M  V30 9978 H 923.793 -1.06111 2.80287 0
M  V30 9979 H 921.354 -0.434811 1.55952 0
M  V30 9980 H 923.346 -3.48173 2.06295 0
M  V30 9981 H 921.916 -2.89612 1.17658 0
M  V30 9982 H 921.136 -1.89994 3.45392 0
M  V30 9983 H 922.424 -2.85147 4.21389 0
M  V30 9984 H 921.822 -5.24525 2.11872 0
M  V30 9985 H 920.379 -5.88912 2.79331 0
M  V30 9986 N 923.813 -1.49104 -0.510467 0
M  V30 9987 C 924.743 -1.67981 -1.62187 0
M  V30 9988 C 925.724 -0.528529 -1.6168 0
M  V30 9989 O 926.909 -0.763305 -1.7857 0
M  V30 9990 C 924.039 -1.73755 -3.0071 0
M  V30 9991 C 922.993 -2.88579 -3.1608 0
M  V30 9992 C 922.319 -2.79457 -4.5586 0
M  V30 9993 C 923.619 -4.29638 -2.97 0
M  V30 9994 H 925.313 -2.61029 -1.46643 0
M  V30 9995 H 922.859 -1.25615 -0.704042 0
M  V30 9996 H 924.812 -1.85548 -3.78352 0
M  V30 9997 H 923.536 -0.772996 -3.17321 0
M  V30 9998 H 922.195 -2.76372 -2.40861 0
M  V30 9999 H 921.843 -1.80929 -4.69333 0
M  V30 10000 H 921.543 -3.56518 -4.67086 0
M  V30 10001 H 923.067 -2.93245 -5.35574 0
M  V30 10002 H 924.481 -4.42575 -3.64418 0
M  V30 10003 H 922.878 -5.07847 -3.19704 0
M  V30 10004 H 923.948 -4.44741 -1.93219 0
M  V30 10005 N 925.291 0.760815 -1.38019 0
M  V30 10006 C 926.221 1.88811 -1.37377 0
M  V30 10007 C 927.202 1.68388 -0.240737 0
M  V30 10008 O 928.387 1.89086 -0.442739 0
M  V30 10009 C 925.517 3.26244 -1.1909 0
M  V30 10010 C 924.471 3.61254 -2.29521 0
M  V30 10011 C 923.797 4.97346 -1.96345 0
M  V30 10012 C 925.097 3.66874 -3.71753 0
M  V30 10013 H 926.791 1.89606 -2.31711 0
M  V30 10014 H 924.337 0.910818 -1.11535 0
M  V30 10015 H 926.29 4.04755 -1.17267 0
M  V30 10016 H 925.014 3.2591 -0.212152 0
M  V30 10017 H 923.673 2.85057 -2.30517 0
M  V30 10018 H 923.321 4.93564 -0.969728 0
M  V30 10019 H 923.021 5.21739 -2.703 0
M  V30 10020 H 924.545 5.78244 -1.96129 0
M  V30 10021 H 925.959 4.35514 -3.72828 0
M  V30 10022 H 924.356 4.02772 -4.44853 0
M  V30 10023 H 925.426 2.67273 -4.0459 0
M  V30 10024 N 926.769 1.22769 0.988202 0
M  V30 10025 C 928.185 0.988665 1.2529 0
M  V30 10026 C 928.385 -0.314938 1.99024 0
M  V30 10027 O 927.441 -1.03637 2.30251 0
M  V30 10028 C 928.754 2.19046 2.06009 0
M  V30 10029 C 930.302 2.23452 2.19176 0
M  V30 10030 C 930.777 3.43196 3.03283 0
M  V30 10031 N 932.268 3.43387 3.10869 0
M  V30 10032 C 933.003 4.32693 3.7625 0
M  V30 10033 N 932.499 5.32224 4.43519 0
M  V30 10034 N 934.292 4.20457 3.73058 0
M  V30 10035 H 926.443 2.06575 0.494014 0
M  V30 10036 H 928.706 0.905452 0.28082 0
M  V30 10037 H 928.412 3.13607 1.59197 0
M  V30 10038 H 928.286 2.19492 3.06763 0
M  V30 10039 H 930.673 1.29436 2.65199 0
M  V30 10040 H 930.754 2.27042 1.17836 0
M  V30 10041 H 930.398 4.37515 2.57959 0
M  V30 10042 H 930.328 3.36847 4.04774 0
M  V30 10043 H 932.819 2.71368 2.62998 0
M  V30 10044 H 933.132 5.9664 4.91163 0
M  V30 10045 H 931.477 5.36133 4.42252 0
M  V30 10046 H 934.668 3.41949 3.19669 0
M  V30 10047 H 934.841 4.90261 4.23731 0
M  V30 10048 N 928.247 -1.18576 1.03814 0
M  V30 10049 C 929.475 -1.92437 0.759966 0
M  V30 10050 C 929.89 -1.76031 -0.682526 0
M  V30 10051 O 929.247 -1.08829 -1.46501 0
M  V30 10052 C 929.298 -3.43923 1.11351 0
M  V30 10053 O 929.019 -3.5981 2.49937 0
M  V30 10054 C 930.52 -4.34888 0.859472 0
M  V30 10055 H 927.74 -0.610998 0.277349 0
M  V30 10056 H 930.284 -1.50448 1.38512 0
M  V30 10057 H 928.439 -3.83711 0.533362 0
M  V30 10058 H 928.853 -4.53569 2.63393 0
M  V30 10059 H 930.327 -5.39744 1.15672 0
M  V30 10060 H 930.804 -4.38717 -0.205839 0
M  V30 10061 H 931.41 -4.00795 1.42279 0
M  V30 10062 N 929.725 -0.817259 -1.34754 0
M  V30 10063 C 930.955 -0.414849 -2.02392 0
M  V30 10064 C 931.363 0.982186 -1.61709 0
M  V30 10065 O 930.706 1.64607 -0.815481 0
M  V30 10066 C 930.768 -0.430981 -3.56907 0
M  V30 10067 C 930.432 -1.78037 -4.20894 0
M  V30 10068 C 931.429 -2.74034 -4.41816 0
M  V30 10069 C 929.114 -2.0673 -4.57786 0
M  V30 10070 C 931.108 -3.96901 -4.98747 0
M  V30 10071 C 928.795 -3.29858 -5.14429 0
M  V30 10072 C 929.793 -4.24761 -5.34853 0
M  V30 10073 O 929.481 -5.45714 -5.90298 0
M  V30 10074 H 929.213 -0.165392 -0.655455 0
M  V30 10075 H 931.767 -1.10524 -1.73129 0
M  V30 10076 H 929.997 0.316074 -3.85406 0
M  V30 10077 H 931.686 -0.0494067 -4.0587 0
M  V30 10078 H 932.452 -2.53161 -4.13684 0
M  V30 10079 H 928.331 -1.33666 -4.41197 0
M  V30 10080 H 931.875 -4.70987 -5.14604 0
M  V30 10081 H 927.772 -3.50597 -5.41989 0
M  V30 10082 H 928.54 -5.47157 -6.08738 0
M  V30 10083 N 931.203 1.46865 -0.571711 0
M  V30 10084 C 932.449 2.0273 -0.0531858 0
M  V30 10085 C 932.782 1.44353 1.29907 0
M  V30 10086 O 932.057 0.604488 1.84868 0
M  V30 10087 C 932.34 3.60092 0.0243831 0
M  V30 10088 C 932.193 4.28874 -1.35599 0
M  V30 10089 C 933.512 4.33994 0.730563 0
M  V30 10090 H 930.631 0.736706 -0.0208018 0
M  V30 10091 H 933.273 1.75132 -0.736794 0
M  V30 10092 H 931.423 3.83736 0.606565 0
M  V30 10093 H 933.095 4.16527 -1.98249 0
M  V30 10094 H 931.338 3.88664 -1.92674 0
M  V30 10095 H 932.009 5.37561 -1.25429 0
M  V30 10096 H 934.485 4.1543 0.236098 0
M  V30 10097 H 933.361 5.43699 0.753836 0
M  V30 10098 H 933.622 4.04257 1.78967 0
M  V30 10099 N 932.681 0.308908 1.54543 0
M  V30 10100 C 933.929 -0.297447 1.99899 0
M  V30 10101 C 934.25 -1.53799 1.19878 0
M  V30 10102 O 933.52 -1.93639 0.29678 0
M  V30 10103 H 932.1 -0.112897 0.738419 0
M  V30 10104 H 934.762 0.422067 1.90275 0
M  V30 10105 H 933.858 -0.564016 3.06961 0
M  V30 10106 N 934.159 -1.57557 0.0367827 0
M  V30 10107 C 935.57 -1.79853 -0.500971 0
M  V30 10108 C 935.921 -0.947749 -1.71791 0
M  V30 10109 O 935.046 -0.160287 -2.15806 0
M  V30 10110 C 935.641 -3.26193 -0.915626 0
M  V30 10111 C 934.2 -3.49457 -1.39845 0
M  V30 10112 C 933.347 -2.74864 -0.366784 0
M  V30 10113 H 936.298 -1.56509 0.262768 0
M  V30 10114 H 936.319 -3.36324 -1.7795 0
M  V30 10115 H 935.831 -3.88089 -0.0297227 0
M  V30 10116 H 933.932 -2.92823 -2.30402 0
M  V30 10117 H 934.045 -4.58172 -1.40054 0
M  V30 10118 H 932.409 -2.4057 -0.836554 0
M  V30 10119 H 933.192 -3.39479 0.510785 0
M  V30 10120 N 935.637 0.236453 -1.55816 0
M  V30 10121 C 936.57 1.3196 -1.86177 0
M  V30 10122 C 937.548 1.459 -0.717769 0
M  V30 10123 O 938.732 1.61949 -0.964606 0
M  V30 10124 C 935.859 2.69183 -2.05568 0
M  V30 10125 C 934.905 2.72338 -3.28229 0
M  V30 10126 S 935.738 2.27898 -4.84585 0
M  V30 10127 C 936.894 3.67025 -5.06994 0
M  V30 10128 H 937.127 1.06011 -2.77757 0
M  V30 10129 H 934.66 0.437961 -1.48058 0
M  V30 10130 H 936.618 3.48191 -2.17423 0
M  V30 10131 H 935.279 2.92365 -1.14811 0
M  V30 10132 H 934.472 3.7314 -3.38795 0
M  V30 10133 H 934.074 2.01382 -3.15153 0
M  V30 10134 H 936.366 4.62604 -4.94979 0
M  V30 10135 H 937.309 3.61385 -6.08939 0
M  V30 10136 H 937.717 3.60022 -4.34792 0
M  V30 10137 N 937.115 1.49373 0.502552 0
M  V30 10138 C 938.343 1.62488 1.28084 0
M  V30 10139 C 938.758 0.295667 1.86471 0
M  V30 10140 O 938.115 -0.718664 1.67754 0
M  V30 10141 C 938.166 2.69249 2.4122 0
M  V30 10142 O 937.887 3.97014 1.85234 0
M  V30 10143 C 939.388 2.93054 3.32617 0
M  V30 10144 H 936.608 0.547068 0.388533 0
M  V30 10145 H 939.152 1.95394 0.603452 0
M  V30 10146 H 937.307 2.39125 3.04792 0
M  V30 10147 H 937.721 4.55809 2.59496 0
M  V30 10148 H 939.195 3.71493 4.08285 0
M  V30 10149 H 939.672 2.02911 3.89517 0
M  V30 10150 H 940.278 3.24589 2.74813 0
M  V30 10151 N 938.594 -0.753485 1.38421 0
M  V30 10152 C 939.504 -1.89797 1.37892 0
M  V30 10153 C 940.52 -1.71797 0.276023 0
M  V30 10154 O 941.696 -1.94718 0.514464 0
M  V30 10155 C 938.761 -3.25166 1.20284 0
M  V30 10156 C 937.822 -3.55691 2.4038 0
M  V30 10157 C 937.055 -4.84601 2.23602 0
M  V30 10158 O 937.278 -5.56985 1.22979 0
M  V30 10159 O 936.212 -5.14605 3.12194 0
M  V30 10160 H 940.038 -1.93197 2.34326 0
M  V30 10161 H 937.623 -0.898775 1.19342 0
M  V30 10162 H 939.505 -4.06099 1.12525 0
M  V30 10163 H 938.18 -3.22577 0.269352 0
M  V30 10164 H 937.087 -2.74919 2.53714 0
M  V30 10165 H 938.42 -3.6304 3.32359 0
M  V30 10166 N 940.072 -1.23292 -0.981677 0
M  V30 10167 C 941.297 -1.09176 -1.76339 0
M  V30 10168 C 941.722 0.352726 -1.84763 0
M  V30 10169 O 941.08 1.25509 -1.30832 0
M  V30 10170 C 941.128 -1.72046 -3.16911 0
M  V30 10171 O 940.232 -0.98174 -4.00544 0
M  V30 10172 H 939.573 -0.382755 -0.542581 0
M  V30 10173 H 942.103 -1.63319 -1.23239 0
M  V30 10174 H 942.113 -1.77232 -3.67495 0
M  V30 10175 H 940.788 -2.77154 -3.10095 0
M  V30 10176 H 939.365 -1.00672 -3.59054 0
M  V30 10177 N 941.55 1.18024 -1.04442 0
M  V30 10178 C 942.48 2.23988 -0.659683 0
M  V30 10179 C 943.461 1.6669 0.338904 0
M  V30 10180 O 944.646 1.92971 0.21817 0
M  V30 10181 C 941.776 3.4729 -0.0257672 0
M  V30 10182 C 940.73 4.17362 -0.948299 0
M  V30 10183 C 940.056 5.34401 -0.17866 0
M  V30 10184 C 941.356 4.70435 -2.26909 0
M  V30 10185 H 943.05 2.56425 -1.54553 0
M  V30 10186 H 940.596 1.23256 -0.744575 0
M  V30 10187 H 942.549 4.20627 0.255131 0
M  V30 10188 H 941.273 3.14098 0.894981 0
M  V30 10189 H 939.932 3.45928 -1.21364 0
M  V30 10190 H 939.58 4.97458 0.744614 0
M  V30 10191 H 939.28 5.8222 -0.793294 0
M  V30 10192 H 940.804 6.10526 0.0951315 0
M  V30 10193 H 942.218 5.35447 -2.04864 0
M  V30 10194 H 940.615 5.28803 -2.83703 0
M  V30 10195 H 941.685 3.87653 -2.91296 0
M  V30 10196 N 943.028 0.824394 1.34319 0
M  V30 10197 C 944.275 0.413167 1.9824 0
M  V30 10198 C 944.603 -1.02412 1.65354 0
M  V30 10199 O 943.858 -1.72831 0.91803 0
M  V30 10200 C 944.157 0.564024 3.52921 0
M  V30 10201 C 943.823 1.96725 4.05722 0
M  V30 10202 C 942.485 2.35111 4.19853 0
M  V30 10203 C 944.837 2.88447 4.34106 0
M  V30 10204 C 942.165 3.64551 4.59695 0
M  V30 10205 C 944.517 4.17353 4.75394 0
M  V30 10206 C 943.181 4.55714 4.8773 0
M  V30 10207 H 942.451 0.151188 0.725412 0
M  V30 10208 H 945.098 1.04863 1.60238 0
M  V30 10209 H 943.403 -0.154816 3.91494 0
M  V30 10210 H 945.1 0.226347 4.00361 0
M  V30 10211 H 941.69 1.65908 3.95187 0
M  V30 10212 H 945.874 2.60034 4.22725 0
M  V30 10213 H 941.13 3.94097 4.67437 0
M  V30 10214 H 945.304 4.88512 4.96315 0
M  V30 10215 H 942.931 5.56064 5.1836 0
M  V30 10216 N 944.506 -1.46559 0.579492 0
M  V30 10217 C 945.917 -1.8608 0.152052 0
M  V30 10218 C 946.268 -1.48346 -1.28405 0
M  V30 10219 O 945.393 -0.89685 -1.9694 0
M  V30 10220 C 945.988 -3.37729 0.269171 0
M  V30 10221 C 944.547 -3.76258 -0.103376 0
M  V30 10222 C 943.694 -2.70584 0.60659 0
M  V30 10223 H 946.645 -1.3776 0.787904 0
M  V30 10224 H 946.666 -3.77116 -0.506339 0
M  V30 10225 H 946.178 -3.65162 1.31448 0
M  V30 10226 H 944.279 -3.54443 -1.14895 0
M  V30 10227 H 944.392 -4.78335 0.270701 0
M  V30 10228 H 942.756 -2.54656 0.0471984 0
M  V30 10229 H 943.539 -3.00856 1.65349 0
M  V30 10230 N 945.984 -0.3171 -1.54377 0
M  V30 10231 C 947.232 0.286842 -2.00054 0
M  V30 10232 C 947.553 1.53161 -1.20692 0
M  V30 10233 O 946.823 1.93479 -0.307045 0
M  V30 10234 H 945.403 0.108979 -0.739008 0
M  V30 10235 H 948.065 -0.432152 -1.90049 0
M  V30 10236 H 947.161 0.547729 -3.07256 0
M  V30 10237 N 947.462 1.57535 -0.0451378 0
M  V30 10238 C 948.692 1.96476 0.638814 0
M  V30 10239 C 949.1 0.921056 1.65267 0
M  V30 10240 O 948.443 -0.103843 1.83406 0
M  V30 10241 C 948.505 3.31629 1.38788 0
M  V30 10242 C 948.169 4.5391 0.530545 0
M  V30 10243 C 949.166 5.19512 -0.200864 0
M  V30 10244 C 946.851 5.00159 0.463242 0
M  V30 10245 C 948.845 6.29695 -0.988078 0
M  V30 10246 C 946.532 6.10221 -0.327665 0
M  V30 10247 C 947.53 6.74849 -1.05202 0
M  V30 10248 O 947.218 7.82795 -1.82993 0
M  V30 10249 H 946.95 0.651625 0.17989 0
M  V30 10250 H 949.504 2.05126 -0.106031 0
M  V30 10251 H 947.734 3.19516 2.17822 0
M  V30 10252 H 949.423 3.5536 1.96148 0
M  V30 10253 H 950.189 4.84742 -0.158299 0
M  V30 10254 H 946.068 4.49651 1.01663 0
M  V30 10255 H 949.612 6.80072 -1.55397 0
M  V30 10256 H 945.509 6.44428 -0.37189 0
M  V30 10257 H 946.277 7.99542 -1.7514 0
M  V30 10258 N 948.94 -0.228186 1.55939 0
M  V30 10259 C 949.89 -1.28607 1.88267 0
M  V30 10260 C 950.874 -1.42606 0.745139 0
M  V30 10261 O 952.066 -1.45533 1.00743 0
M  V30 10262 C 949.195 -2.63783 2.19712 0
M  V30 10263 C 948.281 -2.53712 3.3984 0
M  V30 10264 N 948.672 -2.13287 4.58631 0
M  V30 10265 C 946.97 -2.84686 3.43322 0
M  V30 10266 C 947.671 -2.14305 5.40785 0
M  V30 10267 N 946.647 -2.54536 4.80325 0
M  V30 10268 H 950.449 -0.964307 2.7763 0
M  V30 10269 H 947.963 -0.436769 1.56416 0
M  V30 10270 H 949.96 -3.40152 2.41044 0
M  V30 10271 H 948.62 -2.9681 1.31657 0
M  V30 10272 H 949.631 -1.84525 4.83912 0
M  V30 10273 H 946.308 -3.22129 2.65592 0
M  V30 10274 H 947.698 -1.85231 6.45863 0
M  V30 10275 N 950.418 -1.49637 -0.494624 0
M  V30 10276 C 951.646 -1.63164 -1.2722 0
M  V30 10277 C 952.061 -0.305552 -1.86311 0
M  V30 10278 O 951.418 0.709758 -1.68133 0
M  V30 10279 C 951.469 -2.70524 -2.39789 0
M  V30 10280 O 951.19 -3.97991 -1.83126 0
M  V30 10281 C 952.691 -2.94814 -3.31058 0
M  V30 10282 H 949.911 -0.54912 -0.385627 0
M  V30 10283 H 952.455 -1.95711 -0.593081 0
M  V30 10284 H 950.61 -2.40738 -3.03519 0
M  V30 10285 H 951.024 -4.57179 -2.57075 0
M  V30 10286 H 952.498 -3.73653 -4.06309 0
M  V30 10287 H 952.975 -2.04974 -3.88436 0
M  V30 10288 H 953.581 -3.26042 -2.73088 0
M  V30 10289 N 951.896 0.746133 -1.38819 0
M  V30 10290 C 952.843 1.86001 -1.36647 0
M  V30 10291 C 953.813 1.6453 -0.227849 0
M  V30 10292 O 954.998 1.86092 -0.421241 0
M  V30 10293 C 952.138 3.23388 -1.20474 0
M  V30 10294 C 951.251 3.5664 -2.43786 0
M  V30 10295 C 950.386 4.8337 -2.20287 0
M  V30 10296 C 949.425 5.09431 -3.39332 0
M  V30 10297 N 948.562 6.2736 -3.1522 0
M  V30 10298 H 953.402 1.87192 -2.31869 0
M  V30 10299 H 950.939 0.914838 -1.15192 0
M  V30 10300 H 952.897 4.02679 -1.09112 0
M  V30 10301 H 951.527 3.21505 -0.288874 0
M  V30 10302 H 950.579 2.72135 -2.65794 0
M  V30 10303 H 951.891 3.71823 -3.3249 0
M  V30 10304 H 951.045 5.70619 -2.06103 0
M  V30 10305 H 949.784 4.70341 -1.28961 0
M  V30 10306 H 948.789 4.20648 -3.54027 0
M  V30 10307 H 950.014 5.24354 -4.31544 0
M  V30 10308 H 947.96 6.15639 -2.26549 0
M  V30 10309 H 947.877 6.43078 -3.97476 0
M  V30 10310 H 949.145 7.17477 -3.04707 0
M  V30 10311 N 953.375 1.23811 0.975125 0
M  V30 10312 C 954.338 1.02505 2.05001 0
M  V30 10313 C 955.338 -0.0150084 1.60793 0
M  V30 10314 O 956.528 0.225246 1.72738 0
M  V30 10315 C 953.66 0.552087 3.364 0
M  V30 10316 H 954.853 1.979 2.25335 0
M  V30 10317 H 952.406 1.05929 1.1493 0
M  V30 10318 H 953.141 -0.405394 3.21756 0
M  V30 10319 H 952.926 1.30267 3.69828 0
M  V30 10320 H 954.416 0.423828 4.15444 0
M  V30 10321 N 954.853 -1.17469 1.05066 0
M  V30 10322 C 956.269 -1.39699 0.771769 0
M  V30 10323 C 956.469 -1.91253 -0.634382 0
M  V30 10324 O 955.525 -2.10334 -1.39699 0
M  V30 10325 C 956.838 -2.38886 1.82631 0
M  V30 10326 C 958.386 -2.52595 1.84838 0
M  V30 10327 C 958.861 -3.55054 2.89311 0
M  V30 10328 N 960.352 -3.6257 2.88266 0
M  V30 10329 C 961.087 -4.41603 3.65752 0
M  V30 10330 N 960.583 -5.24162 4.53019 0
M  V30 10331 N 962.376 -4.36464 3.54197 0
M  V30 10332 H 954.527 -0.823355 1.95792 0
M  V30 10333 H 956.79 -0.42432 0.847736 0
M  V30 10334 H 956.496 -2.08075 2.83545 0
M  V30 10335 H 956.37 -3.38371 1.66687 0
M  V30 10336 H 958.757 -2.82717 0.845888 0
M  V30 10337 H 958.838 -1.53188 2.04859 0
M  V30 10338 H 958.482 -3.2567 3.89745 0
M  V30 10339 H 958.412 -4.54162 2.66542 0
M  V30 10340 H 960.903 -3.03625 2.24989 0
M  V30 10341 H 961.216 -5.81646 5.0883 0
M  V30 10342 H 959.561 -5.23547 4.57081 0
M  V30 10343 H 962.752 -3.7102 2.85416 0
M  V30 10344 H 962.925 -4.97814 4.14832 0
M  V30 10345 N 956.331 -0.831506 -1.3388 0
M  V30 10346 C 957.294 -0.264773 -2.27666 0
M  V30 10347 C 958.294 0.562273 -1.50649 0
M  V30 10348 O 959.484 0.377131 -1.70069 0
M  V30 10349 C 956.616 0.627814 -3.35069 0
M  V30 10350 H 957.809 -1.09225 -2.79303 0
M  V30 10351 H 955.362 -0.604021 -1.44157 0
M  V30 10352 H 956.097 1.47802 -2.88661 0
M  V30 10353 H 955.882 0.0361552 -3.92083 0
M  V30 10354 H 957.372 1.01786 -4.05005 0
M  V30 10355 N 957.809 1.4625 -0.587256 0
M  V30 10356 C 959.055 2.02662 -0.0746851 0
M  V30 10357 C 959.388 1.45723 1.28368 0
M  V30 10358 O 958.663 0.624062 1.84216 0
M  V30 10359 C 958.946 3.60097 -0.0138109 0
M  V30 10360 C 958.799 4.27412 -1.4014 0
M  V30 10361 C 960.118 4.34744 0.684491 0
M  V30 10362 H 957.237 0.736444 -0.0286144 0
M  V30 10363 H 959.879 1.74341 -0.755328 0
M  V30 10364 H 958.029 3.84357 0.56583 0
M  V30 10365 H 959.701 4.14401 -2.02656 0
M  V30 10366 H 957.944 3.86598 -1.96785 0
M  V30 10367 H 958.615 5.362 -1.31124 0
M  V30 10368 H 961.091 4.15657 0.192023 0
M  V30 10369 H 959.967 5.44468 0.696127 0
M  V30 10370 H 960.228 4.06132 1.74669 0
M  V30 10371 N 959.287 0.325282 1.54207 0
M  V30 10372 C 960.22 -0.582485 2.20641 0
M  V30 10373 C 961.198 -1.11441 1.18405 0
M  V30 10374 O 962.382 -1.17809 1.4715 0
M  V30 10375 C 959.509 -1.79944 2.86946 0
M  V30 10376 C 958.555 -1.39861 4.02916 0
M  V30 10377 S 959.388 -0.433859 5.3374 0
M  V30 10378 C 960.544 -1.65806 6.03539 0
M  V30 10379 H 960.777 -0.0181601 2.97294 0
M  V30 10380 H 958.31 0.109365 1.54012 0
M  V30 10381 H 960.268 -2.4977 3.25769 0
M  V30 10382 H 958.929 -2.33495 2.10092 0
M  V30 10383 H 958.122 -2.30547 4.48179 0
M  V30 10384 H 957.724 -0.780036 3.65775 0
M  V30 10385 H 960.016 -2.59524 6.25822 0
M  V30 10386 H 960.959 -1.24756 6.97023 0
M  V30 10387 H 961.367 -1.84581 5.3347 0
M  V30 10388 N 960.765 -1.57509 0.0534917 0
M  V30 10389 C 961.713 -2.12851 -0.937931 0
M  V30 10390 C 962.707 -1.06088 -1.32067 0
M  V30 10391 O 963.913 -1.24494 -1.30005 0
M  V30 10392 H 960.288 -0.680357 -0.320342 0
M  V30 10393 H 962.259 -2.95047 -0.446077 0
M  V30 10394 C 961.008 -2.69034 -2.20264 0
M  V30 10395 H 960.331 -3.50848 -1.91693 0
M  V30 10396 H 961.771 -3.11375 -2.87788 0
M  V30 10397 C 960.23 -1.62919 -2.94888 0
M  V30 10398 O 960.76 -1.04334 -3.87914 0
M  V30 10399 N 958.966 -1.34385 -2.57661 0
M  V30 10400 H 958.513 -1.82214 -1.82088 0
M  V30 10401 H 958.471 -0.636149 -3.07897 0
M  V30 10402 N 962.243 0.219913 -1.56058 0
M  V30 10403 C 963.49 0.944064 -1.79147 0
M  V30 10404 C 963.818 1.84268 -0.622531 0
M  V30 10405 O 963.073 1.91713 0.393013 0
M  V30 10406 C 963.372 1.81293 -3.08006 0
M  V30 10407 C 963.038 1.0674 -4.38084 0
M  V30 10408 C 961.7 0.86147 -4.73426 0
M  V30 10409 C 964.052 0.541049 -5.18384 0
M  V30 10410 C 961.38 0.117307 -5.86583 0
M  V30 10411 C 963.732 -0.189779 -6.32315 0
M  V30 10412 C 962.396 -0.406951 -6.66258 0
M  V30 10413 H 961.666 0.345458 -0.655546 0
M  V30 10414 H 964.313 0.212121 -1.90322 0
M  V30 10415 H 962.618 2.61278 -2.9196 0
M  V30 10416 H 964.315 2.3754 -3.23072 0
M  V30 10417 H 960.905 1.23789 -4.10334 0
M  V30 10418 H 965.089 0.687617 -4.91514 0
M  V30 10419 H 960.345 -0.0611651 -6.11369 0
M  V30 10420 H 964.519 -0.605134 -6.93766 0
M  V30 10421 H 962.146 -0.985511 -7.53785 0
M  V30 10422 N 963.721 1.49897 0.486681 0
M  V30 10423 C 964.967 1.60342 1.2417 0
M  V30 10424 C 965.3 0.295694 1.91936 0
M  V30 10425 O 964.575 -0.701788 1.81398 0
M  V30 10426 C 964.858 2.77281 2.29755 0
M  V30 10427 C 964.711 4.1789 1.66397 0
M  V30 10428 C 966.03 2.89817 3.31201 0
M  V30 10429 H 963.149 0.583605 0.450083 0
M  V30 10430 H 965.791 1.82232 0.537734 0
M  V30 10431 H 963.941 2.58748 2.89796 0
M  V30 10432 H 965.613 4.47975 1.10073 0
M  V30 10433 H 963.856 4.22872 0.967579 0
M  V30 10434 H 964.527 4.95612 2.43049 0
M  V30 10435 H 967.003 3.06732 2.81167 0
M  V30 10436 H 965.879 3.7329 4.02425 0
M  V30 10437 H 966.14 1.9977 3.94391 0
M  V30 10438 N 965.199 -0.738761 1.39212 0
M  V30 10439 C 966.445 -1.50046 1.36433 0
M  V30 10440 C 966.778 -1.94157 -0.0409474 0
M  V30 10441 O 966.053 -1.66515 -1.00514 0
M  V30 10442 C 966.336 -2.74277 2.33333 0
M  V30 10443 C 966.189 -2.36209 3.82786 0
M  V30 10444 C 967.508 -3.76361 2.28123 0
M  V30 10445 H 964.627 -0.544294 0.496903 0
M  V30 10446 H 967.269 -0.845005 1.70175 0
M  V30 10447 H 965.419 -3.30204 2.04689 0
M  V30 10448 H 967.091 -1.85942 4.22165 0
M  V30 10449 H 965.334 -1.68483 3.99745 0
M  V30 10450 H 966.005 -3.25156 4.46069 0
M  V30 10451 H 968.481 -3.30009 2.53443 0
M  V30 10452 H 967.357 -4.60957 2.9801 0
M  V30 10453 H 967.618 -4.23013 1.28499 0
M  V30 10454 N 966.677 -1.24326 -0.968545 0
M  V30 10455 C 968.093 -1.00847 -1.23701 0
M  V30 10456 C 968.293 0.283235 -1.99499 0
M  V30 10457 O 967.349 0.999607 -2.31871 0
M  V30 10458 C 968.662 -2.22295 -2.02498 0
M  V30 10459 C 970.21 -2.26911 -2.15593 0
M  V30 10460 C 970.685 -3.47978 -2.97784 0
M  V30 10461 N 972.176 -3.48289 -3.05367 0
M  V30 10462 C 972.911 -4.38625 -3.69318 0
M  V30 10463 N 972.407 -5.39213 -4.34995 0
M  V30 10464 N 974.2 -4.26339 -3.66322 0
M  V30 10465 H 966.351 -2.07335 -0.461087 0
M  V30 10466 H 968.614 -0.909805 -0.26638 0
M  V30 10467 H 968.32 -3.161 -1.54188 0
M  V30 10468 H 968.194 -2.24344 -3.03232 0
M  V30 10469 H 970.581 -1.33639 -2.63106 0
M  V30 10470 H 970.662 -2.28888 -1.14209 0
M  V30 10471 H 970.306 -4.41564 -2.50965 0
M  V30 10472 H 970.236 -3.43244 -3.99364 0
M  V30 10473 H 972.727 -2.75517 -2.58648 0
M  V30 10474 H 973.04 -6.04378 -4.81608 0
M  V30 10475 H 971.385 -5.43101 -4.33667 0
M  V30 10476 H 974.576 -3.46991 -3.14189 0
M  V30 10477 H 974.749 -4.9694 -4.15878 0
M  V30 10478 N 968.156 1.1691 -1.05688 0
M  V30 10479 C 969.386 1.90927 -0.789339 0
M  V30 10480 C 969.794 1.77339 0.659369 0
M  V30 10481 O 969.137 1.11147 1.4626 0
M  V30 10482 C 969.199 3.42361 -1.09677 0
M  V30 10483 C 968.863 3.79733 -2.54267 0
M  V30 10484 C 969.86 3.82163 -3.52487 0
M  V30 10485 C 967.545 4.10547 -2.89406 0
M  V30 10486 C 969.539 4.14884 -4.8389 0
M  V30 10487 C 967.226 4.42936 -4.21011 0
M  V30 10488 C 968.224 4.45084 -5.18063 0
M  V30 10489 O 967.912 4.76707 -6.47307 0
M  V30 10490 H 967.644 0.612466 -0.286115 0
M  V30 10491 H 970.198 1.4916 -1.4121 0
M  V30 10492 H 968.428 3.84446 -0.416924 0
M  V30 10493 H 970.117 3.97645 -0.814456 0
M  V30 10494 H 970.883 3.58476 -3.26681 0
M  V30 10495 H 966.762 4.08044 -2.14525 0
M  V30 10496 H 970.306 4.16475 -5.59638 0
M  V30 10497 H 966.203 4.66088 -4.46579 0
M  V30 10498 H 966.971 4.94544 -6.52203 0
M  V30 10499 N 969.634 0.838594 1.33437 0
M  V30 10500 C 971.05 0.526347 1.50671 0
M  V30 10501 C 971.25 -0.946387 1.77893 0
M  V30 10502 O 970.306 -1.7302 1.83903 0
M  V30 10503 C 971.619 1.39945 2.6615 0
M  V30 10504 C 973.167 1.3982 2.80035 0
M  V30 10505 C 973.642 2.25614 3.98576 0
M  V30 10506 N 975.133 2.23322 4.0581 0
M  V30 10507 C 975.868 2.86443 4.96727 0
M  V30 10508 N 975.364 3.58616 5.92762 0
M  V30 10509 N 977.157 2.75915 4.89722 0
M  V30 10510 H 969.308 1.79195 1.1403 0
M  V30 10511 H 971.571 0.764491 0.560586 0
M  V30 10512 H 971.277 2.44599 2.52714 0
M  V30 10513 H 971.151 1.07529 3.61548 0
M  V30 10514 H 973.538 0.35937 2.92904 0
M  V30 10515 H 973.619 1.76241 1.85399 0
M  V30 10516 H 973.263 3.29555 3.86466 0
M  V30 10517 H 973.193 1.86533 4.92456 0
M  V30 10518 H 975.684 1.70836 3.37081 0
M  V30 10519 H 975.997 4.03987 6.58798 0
M  V30 10520 H 974.342 3.62724 5.92838 0
M  V30 10521 H 977.533 2.19094 4.13661 0
M  V30 10522 H 977.706 3.25393 5.60378 0
M  V30 10523 N 971.112 -1.45937 0.595003 0
M  V30 10524 C 972.523 -1.85908 0.171779 0
M  V30 10525 C 972.874 -1.497 -1.26824 0
M  V30 10526 O 971.999 -0.917688 -1.95978 0
M  V30 10527 C 972.594 -3.37425 0.304976 0
M  V30 10528 C 971.153 -3.76346 -0.0634635 0
M  V30 10529 C 970.3 -2.69926 0.635255 0
M  V30 10530 H 973.251 -1.36916 0.802471 0
M  V30 10531 H 973.272 -3.77632 -0.466313 0
M  V30 10532 H 972.784 -3.63747 1.35314 0
M  V30 10533 H 970.885 -3.55642 -1.11129 0
M  V30 10534 H 970.998 -4.78021 0.321419 0
M  V30 10535 H 969.362 -2.54592 0.0742054 0
M  V30 10536 H 970.145 -2.99086 1.68531 0
M  V30 10537 N 972.59 -0.333456 -1.54032 0
M  V30 10538 C 973.867 0.320902 -1.9295 0
M  V30 10539 C 974.247 1.69071 -1.26405 0
M  V30 10540 O 973.595 2.24768 -0.411311 0
M  V30 10541 C 973.805 0.403257 -3.46662 0
M  V30 10542 C 975.153 0.658875 -4.19457 0
M  V30 10543 O 976.177 0.485781 -3.52872 0
M  V30 10544 O 975.036 0.993475 -5.37394 0
M  V30 10545 H 972.13 0.185158 -0.806006 0
M  V30 10546 H 974.676 -0.383895 -1.65301 0
M  V30 10547 H 973.448 -0.558409 -3.87295 0
M  V30 10548 H 973.071 1.15524 -3.80447 0
M  V30 10549 N 974.068 1.57479 -0.061844 0
M  V30 10550 C 974.978 2.15645 0.923826 0
M  V30 10551 C 975.994 1.117 1.33413 0
M  V30 10552 O 977.17 1.4392 1.40887 0
M  V30 10553 C 974.235 2.69857 2.17665 0
M  V30 10554 C 973.296 3.88638 1.8237 0
M  V30 10555 C 972.529 4.40256 3.01679 0
M  V30 10556 O 972.752 3.90908 4.15388 0
M  V30 10557 O 971.686 5.31713 2.82073 0
M  V30 10558 H 975.512 3.0021 0.459094 0
M  V30 10559 H 973.097 1.48534 0.160665 0
M  V30 10560 H 974.979 3.04647 2.9115 0
M  V30 10561 H 973.654 1.88357 2.63255 0
M  V30 10562 H 972.561 3.58719 1.06167 0
M  V30 10563 H 973.894 4.71401 1.4157 0
M  V30 10564 N 975.546 -0.211634 1.56173 0
M  V30 10565 C 976.478 -1.286 1.89723 0
M  V30 10566 C 977.491 -1.42549 0.786361 0
M  V30 10567 O 978.68 -1.4327 1.06471 0
M  V30 10568 C 975.78 -2.66036 2.09948 0
M  V30 10569 C 974.953 -2.73908 3.41018 0
M  V30 10570 C 974.012 -3.92425 3.50555 0
M  V30 10571 O 973.038 -3.803 4.2351 0
M  V30 10572 N 974.24 -5.07165 2.82426 0
M  V30 10573 H 977.005 -1.00142 2.82474 0
M  V30 10574 H 974.566 -0.401633 1.56839 0
M  V30 10575 H 976.558 -3.43719 2.13634 0
M  V30 10576 H 975.128 -2.87052 1.23774 0
M  V30 10577 H 974.348 -1.82625 3.49345 0
M  V30 10578 H 975.636 -2.76145 4.27342 0
M  V30 10579 H 975.034 -5.19913 2.2295 0
M  V30 10580 H 973.591 -5.82855 2.9176 0
M  V30 10581 N 977.024 -1.50153 -0.478725 0
M  V30 10582 C 978.435 -1.53706 -1.05978 0
M  V30 10583 C 978.786 -0.336112 -1.933 0
M  V30 10584 O 977.911 0.551803 -2.09246 0
M  V30 10585 C 978.506 -2.78541 -1.92874 0
M  V30 10586 C 977.065 -2.848 -2.46102 0
M  V30 10587 C 976.212 -2.47902 -1.24257 0
M  V30 10588 H 979.163 -1.56528 -0.261664 0
M  V30 10589 H 979.184 -2.59964 -2.77847 0
M  V30 10590 H 978.696 -3.6593 -1.29293 0
M  V30 10591 H 976.797 -2.01744 -3.13257 0
M  V30 10592 H 976.91 -3.87511 -2.81731 0
M  V30 10593 H 975.274 -2.0017 -1.57493 0
M  V30 10594 H 976.057 -3.3759 -0.62351 0
M  V30 10595 N 978.502 0.731368 -1.39602 0
M  V30 10596 C 979.727 1.52567 -1.40492 0
M  V30 10597 C 980.152 1.881 -0.00228828 0
M  V30 10598 O 979.51 1.52167 0.985643 0
M  V30 10599 C 979.558 2.78749 -2.2876 0
M  V30 10600 O 978.662 3.7482 -1.71999 0
M  V30 10601 H 978.003 0.460601 -0.478271 0
M  V30 10602 H 980.533 0.902042 -1.83642 0
M  V30 10603 H 980.543 3.27446 -2.43399 0
M  V30 10604 H 979.218 2.5222 -3.30693 0
M  V30 10605 H 977.795 3.33604 -1.66622 0
M  V30 10606 N 979.98 1.24838 0.961938 0
M  V30 10607 C 980.91 1.07053 2.07514 0
M  V30 10608 C 981.891 -0.0182465 1.7009 0
M  V30 10609 O 983.076 0.149915 1.9362 0
M  V30 10610 C 980.206 0.680693 3.40564 0
M  V30 10611 C 979.16 1.71889 3.91967 0
M  V30 10612 C 978.486 1.18395 5.21428 0
M  V30 10613 C 979.786 3.1161 4.19161 0
M  V30 10614 H 981.48 2.00167 2.22651 0
M  V30 10615 H 979.026 0.963799 1.0699 0
M  V30 10616 H 980.979 0.54324 4.17884 0
M  V30 10617 H 979.703 -0.28615 3.25344 0
M  V30 10618 H 978.362 1.84465 3.16809 0
M  V30 10619 H 978.01 0.207543 5.02572 0
M  V30 10620 H 977.71 1.87778 5.56788 0
M  V30 10621 H 979.234 1.05873 6.01351 0
M  V30 10622 H 980.648 3.0223 4.87165 0
M  V30 10623 H 979.045 3.78398 4.65763 0
M  V30 10624 H 980.115 3.59218 3.25715 0
M  V30 10625 N 981.458 -1.16348 1.06306 0
M  V30 10626 C 982.874 -1.38873 0.786543 0
M  V30 10627 C 983.074 -1.91915 -0.614061 0
M  V30 10628 O 982.13 -2.11804 -1.3746 0
M  V30 10629 C 983.443 -2.36936 1.85154 0
M  V30 10630 C 984.991 -2.5062 1.87506 0
M  V30 10631 C 985.466 -3.51965 2.9306 0
M  V30 10632 N 986.957 -3.59492 2.92095 0
M  V30 10633 C 987.692 -4.37699 3.70415 0
M  V30 10634 N 987.188 -5.19327 4.58553 0
M  V30 10635 N 988.981 -4.32683 3.58806 0
M  V30 10636 H 981.132 -0.802542 1.96655 0
M  V30 10637 H 983.395 -0.415304 0.852189 0
M  V30 10638 H 983.101 -2.05056 2.85736 0
M  V30 10639 H 982.975 -3.36585 1.70267 0
M  V30 10640 H 985.362 -2.81804 0.875827 0
M  V30 10641 H 985.443 -1.51006 2.06472 0
M  V30 10642 H 985.087 -3.21518 3.93177 0
M  V30 10643 H 985.017 -4.51309 2.71344 0
M  V30 10644 H 987.508 -3.01222 2.28197 0
M  V30 10645 H 987.821 -5.76216 5.1497 0
M  V30 10646 H 986.166 -5.1867 4.62608 0
M  V30 10647 H 989.357 -3.67971 2.89335 0
M  V30 10648 H 989.53 -4.93386 4.20088 0
M  V30 10649 N 982.937 -0.845659 -1.3299 0
M  V30 10650 C 984.348 -0.50048 -1.79867 0
M  V30 10651 C 984.699 0.981027 -1.69913 0
M  V30 10652 O 983.824 1.76477 -1.25239 0
M  V30 10653 C 984.419 -0.901679 -3.26581 0
M  V30 10654 C 982.978 -0.608536 -3.71448 0
M  V30 10655 C 982.125 -1.10632 -2.54275 0
M  V30 10656 H 985.076 -1.03372 -1.20416 0
M  V30 10657 H 985.097 -0.214433 -3.79895 0
M  V30 10658 H 984.609 -1.97998 -3.33794 0
M  V30 10659 H 982.71 0.459416 -3.69757 0
M  V30 10660 H 982.823 -1.16853 -4.64631 0
M  V30 10661 H 981.187 -0.526925 -2.4919 0
M  V30 10662 H 981.97 -2.19154 -2.64247 0
M  V30 10663 N 984.415 1.45619 -0.602734 0
M  V30 10664 C 985.365 2.27568 0.140264 0
M  V30 10665 C 986.349 1.3704 0.84314 0
M  V30 10666 O 987.541 1.61067 0.733931 0
M  V30 10667 C 984.67 3.23812 1.14019 0
M  V30 10668 C 983.756 4.21828 0.438406 0
M  V30 10669 N 984.147 5.03148 -0.517245 0
M  V30 10670 C 982.445 4.40684 0.686588 0
M  V30 10671 C 983.146 5.74229 -0.929291 0
M  V30 10672 N 982.122 5.42909 -0.274086 0
M  V30 10673 H 985.924 2.87839 -0.5938 0
M  V30 10674 H 983.438 1.56712 -0.426033 0
M  V30 10675 H 985.435 3.8125 1.68684 0
M  V30 10676 H 984.095 2.65102 1.87486 0
M  V30 10677 H 985.106 5.1013 -0.893758 0
M  V30 10678 H 981.783 3.93102 1.4063 0
M  V30 10679 H 983.173 6.49586 -1.7172 0
M  V30 10680 N 985.893 0.34162 1.53853 0
M  V30 10681 C 986.843 -0.531995 2.21707 0
M  V30 10682 C 987.827 -1.06759 1.2038 0
M  V30 10683 O 989.019 -1.00161 1.45934 0
M  V30 10684 C 986.148 -1.6834 2.99193 0
M  V30 10685 C 985.234 -1.16184 4.07875 0
M  V30 10686 N 985.625 -0.361348 5.04508 0
M  V30 10687 C 983.923 -1.43891 4.22151 0
M  V30 10688 C 984.624 -0.0785378 5.81647 0
M  V30 10689 N 983.6 -0.669651 5.3946 0
M  V30 10690 H 987.402 0.0866825 2.93772 0
M  V30 10691 H 984.916 0.148386 1.61721 0
M  V30 10692 H 986.913 -2.32121 3.46303 0
M  V30 10693 H 985.573 -2.30538 2.28653 0
M  V30 10694 H 986.584 -0.00259906 5.179 0
M  V30 10695 H 983.261 -2.06542 3.62832 0
M  V30 10696 H 984.651 0.567068 6.69503 0
M  V30 10697 N 987.371 -1.57444 0.0701946 0
M  V30 10698 C 988.648 -1.84826 -0.6402 0
M  V30 10699 C 989.028 -0.962344 -1.87889 0
M  V30 10700 O 988.376 -0.0282209 -2.28483 0
M  V30 10701 C 988.586 -3.34976 -0.979382 0
M  V30 10702 C 989.934 -4.02448 -1.35355 0
M  V30 10703 O 990.958 -3.39713 -1.07116 0
M  V30 10704 O 989.817 -5.13096 -1.88136 0
M  V30 10705 H 986.911 -0.763494 -0.317813 0
M  V30 10706 H 989.457 -1.69399 0.101004 0
M  V30 10707 H 988.229 -3.91173 -0.0995576 0
M  V30 10708 H 987.852 -3.5566 -1.7774 0
M  V30 10709 N 988.849 0.203349 -1.56283 0
M  V30 10710 C 990.074 0.945548 -1.84592 0
M  V30 10711 C 990.499 1.7641 -0.652772 0
M  V30 10712 O 989.857 1.76867 0.398468 0
M  V30 10713 C 989.905 1.82416 -3.11057 0
M  V30 10714 O 989.009 2.92191 -2.9103 0
M  V30 10715 H 988.35 0.266739 -0.608068 0
M  V30 10716 H 990.88 0.211158 -2.03507 0
M  V30 10717 H 990.89 2.23044 -3.41636 0
M  V30 10718 H 989.565 1.22267 -3.97522 0
M  V30 10719 H 988.142 2.55378 -2.71728 0
M  V30 10720 N 990.327 1.50405 0.470755 0
M  V30 10721 C 991.552 1.65442 1.25075 0
M  V30 10722 C 991.977 0.337612 1.85045 0
M  V30 10723 O 991.335 -0.698555 1.67302 0
M  V30 10724 C 991.383 2.74793 2.33498 0
M  V30 10725 O 990.487 2.36069 3.3815 0
M  V30 10726 H 989.828 0.552728 0.367951 0
M  V30 10727 H 992.358 1.96782 0.560177 0
M  V30 10728 H 992.368 2.97879 2.78804 0
M  V30 10729 H 991.043 3.70363 1.8922 0
M  V30 10730 H 989.62 2.2343 2.98552 0
M  V30 10731 N 991.805 -0.723954 1.39988 0
M  V30 10732 C 993.033 -1.51313 1.4111 0
M  V30 10733 C 993.448 -1.88798 0.00853333 0
M  V30 10734 O 992.805 -1.54868 -0.965516 0
M  V30 10735 C 992.856 -2.79375 2.29416 0
M  V30 10736 O 992.577 -2.43478 3.64211 0
M  V30 10737 C 994.078 -3.7333 2.3904 0
M  V30 10738 H 991.298 -0.46724 0.481589 0
M  V30 10739 H 993.842 -0.893694 1.83938 0
M  V30 10740 H 991.997 -3.37624 1.89971 0
M  V30 10741 H 992.411 -3.25821 4.11024 0
M  V30 10742 H 993.885 -4.60051 3.05053 0
M  V30 10743 H 994.362 -4.15854 1.41289 0
M  V30 10744 H 994.968 -3.20996 2.79001 0
M  V30 10745 N 993.283 -1.25346 -0.955304 0
M  V30 10746 C 994.53 -1.10055 -1.69983 0
M  V30 10747 C 994.858 0.358586 -1.91166 0
M  V30 10748 O 994.113 1.28071 -1.47974 0
M  V30 10749 C 994.412 -1.7993 -3.08804 0
M  V30 10750 C 994.078 -3.29851 -3.07424 0
M  V30 10751 C 992.74 -3.7075 -3.06754 0
M  V30 10752 C 995.092 -4.25636 -3.00805 0
M  V30 10753 C 992.42 -5.05847 -2.97214 0
M  V30 10754 C 994.772 -5.60756 -2.92806 0
M  V30 10755 C 993.436 -6.00984 -2.90472 0
M  V30 10756 H 992.706 -0.402718 -0.622012 0
M  V30 10757 H 995.353 -1.5561 -1.11614 0
M  V30 10758 H 993.658 -1.26803 -3.70713 0
M  V30 10759 H 995.355 -1.65551 -3.65231 0
M  V30 10760 H 991.945 -2.97308 -3.08716 0
M  V30 10761 H 996.129 -3.9503 -3.00441 0
M  V30 10762 H 991.385 -5.36196 -2.93775 0
M  V30 10763 H 995.559 -6.34671 -2.86645 0
M  V30 10764 H 993.186 -7.05626 -2.82835 0
M  V30 10765 N 994.761 1.15782 -1.06922 0
M  V30 10766 C 995.989 1.90355 -0.81072 0
M  V30 10767 C 996.404 1.77779 0.635614 0
M  V30 10768 O 995.761 1.12675 1.43564 0
M  V30 10769 C 995.812 3.4085 -1.2043 0
M  V30 10770 O 995.533 3.53057 -2.59388 0
M  V30 10771 C 997.034 4.32457 -0.974473 0
M  V30 10772 H 994.254 0.60343 -0.293451 0
M  V30 10773 H 996.798 1.46723 -1.42452 0
M  V30 10774 H 994.953 3.82162 -0.634909 0
M  V30 10775 H 995.367 4.46426 -2.75326 0
M  V30 10776 H 996.841 5.36488 -1.29942 0
M  V30 10777 H 997.318 4.39109 0.0894481 0
M  V30 10778 H 997.924 3.96882 -1.52856 0
M  V30 10779 N 996.239 0.8527 1.3254 0
M  V30 10780 C 997.169 0.311234 2.31416 0
M  V30 10781 C 998.15 -0.588557 1.59593 0
M  V30 10782 O 999.335 -0.509211 1.87405 0
M  V30 10783 C 996.465 -0.502892 3.4364 0
M  V30 10784 C 995.419 0.302296 4.26931 0
M  V30 10785 C 994.745 -0.636445 5.30899 0
M  V30 10786 C 996.045 1.52697 4.99481 0
M  V30 10787 H 997.739 1.13742 2.76953 0
M  V30 10788 H 995.285 0.548389 1.33149 0
M  V30 10789 H 997.238 -0.892092 4.11849 0
M  V30 10790 H 995.962 -1.36242 2.96826 0
M  V30 10791 H 994.621 0.673226 3.60365 0
M  V30 10792 H 994.269 -1.49277 4.80339 0
M  V30 10793 H 993.969 -0.101716 5.87512 0
M  V30 10794 H 995.493 -1.02286 6.01972 0
M  V30 10795 H 996.907 1.21017 5.60382 0
M  V30 10796 H 995.304 1.9995 5.65809 0
M  V30 10797 H 996.374 2.28929 4.27457 0
M  V30 10798 N 997.718 -1.45297 0.610449 0
M  V30 10799 C 998.666 -2.32295 -0.119167 0
M  V30 10800 C 999.66 -1.46138 -0.856746 0
M  V30 10801 O 1000.87 -1.62605 -0.771988 0
M  V30 10802 H 997.241 -0.749815 -0.0572881 0
M  V30 10803 H 999.212 -2.91609 0.63297 0
M  V30 10804 C 997.961 -3.29802 -1.10119 0
M  V30 10805 H 997.284 -3.96095 -0.543063 0
M  V30 10806 H 998.724 -3.93398 -1.58158 0
M  V30 10807 C 997.183 -2.57185 -2.17617 0
M  V30 10808 O 997.713 -2.35535 -3.25401 0
M  V30 10809 N 995.919 -2.17272 -1.9298 0
M  V30 10810 H 995.466 -2.3508 -1.05334 0
M  V30 10811 H 995.424 -1.69009 -2.6511 0
M  V30 10812 N 999.196 -0.349774 -1.5367 0
M  V30 10813 C 1000.44 0.245189 -2.01312 0
M  V30 10814 C 1000.77 1.49702 -1.23705 0
M  V30 10815 O 1000.05 1.91742 -0.326371 0
M  V30 10816 C 1000.33 0.553071 -3.55827 0
M  V30 10817 C 1000.19 -0.71129 -4.4414 0
M  V30 10818 C 1001.5 1.36015 -4.18555 0
M  V30 10819 H 998.624 0.0876415 -0.73177 0
M  V30 10820 H 1001.27 -0.471543 -1.84056 0
M  V30 10821 H 999.416 1.16367 -3.70663 0
M  V30 10822 H 1001.09 -1.34913 -4.41131 0
M  V30 10823 H 999.331 -1.33491 -4.1275 0
M  V30 10824 H 1000 -0.45104 -5.50154 0
M  V30 10825 H 1002.48 0.843778 -4.07455 0
M  V30 10826 H 1001.35 1.54432 -5.26728 0
M  V30 10827 H 1001.61 2.36408 -3.73582 0
M  V30 10828 N 1000.67 1.57404 -0.0785433 0
M  V30 10829 C 1001.64 2.11977 0.871693 0
M  V30 10830 C 1002.64 1.04529 1.2219 0
M  V30 10831 O 1003.83 1.30488 1.15406 0
M  V30 10832 C 1000.96 2.6267 2.17296 0
M  V30 10833 H 1002.15 2.97246 0.398115 0
M  V30 10834 H 999.705 1.5537 0.170251 0
M  V30 10835 H 1000.44 1.80873 2.69175 0
M  V30 10836 H 1000.22 3.41214 1.93171 0
M  V30 10837 H 1001.71 3.04943 2.85306 0
M  V30 10838 N 1002.15 -0.195058 1.56388 0
M  V30 10839 C 1003.08 -1.24444 1.97575 0
M  V30 10840 C 1004.06 -1.47471 0.847717 0
M  V30 10841 O 1005.25 -1.59208 1.11205 0
M  V30 10842 C 1002.38 -2.58866 2.31529 0
M  V30 10843 C 1001.33 -2.50451 3.47071 0
M  V30 10844 C 1000.66 -3.89146 3.667 0
M  V30 10845 C 1001.96 -2.02953 4.81256 0
M  V30 10846 H 1003.65 -0.902178 2.85484 0
M  V30 10847 H 1001.2 -0.43254 1.3735 0
M  V30 10848 H 1003.15 -3.3246 2.58936 0
M  V30 10849 H 1001.87 -2.94833 1.40502 0
M  V30 10850 H 1000.53 -1.79313 3.19754 0
M  V30 10851 H 1000.18 -4.22466 2.73004 0
M  V30 10852 H 999.882 -3.84391 4.44429 0
M  V30 10853 H 1001.41 -4.64363 3.96484 0
M  V30 10854 H 1002.82 -2.66306 5.07695 0
M  V30 10855 H 1001.22 -2.092 5.62455 0
M  V30 10856 H 1002.29 -0.982757 4.74837 0
M  V30 10857 N 1003.63 -1.50653 -0.462772 0
M  V30 10858 C 1004.58 -1.70661 -1.58043 0
M  V30 10859 C 1005.57 -0.572533 -1.59432 0
M  V30 10860 O 1006.78 -0.753257 -1.63481 0
M  V30 10861 H 1003.15 -0.538805 -0.524588 0
M  V30 10862 H 1005.12 -2.64399 -1.38332 0
M  V30 10863 C 1003.87 -1.82558 -2.95919 0
M  V30 10864 H 1003.2 -2.69216 -2.95572 0
M  V30 10865 H 1004.64 -2.0058 -3.73556 0
M  V30 10866 C 1003.09 -0.57916 -3.31885 0
M  V30 10867 O 1003.62 0.277888 -4.00738 0
M  V30 10868 N 1001.83 -0.430723 -2.8739 0
M  V30 10869 H 1001.38 -1.1292 -2.31531 0
M  V30 10870 H 1001.34 0.402061 -3.11819 0
M  V30 10871 N 1005.11 0.71652 -1.4037 0
M  V30 10872 C 1006.06 1.82219 -1.37041 0
M  V30 10873 C 1007.04 1.58975 -0.248116 0
M  V30 10874 O 1008.23 1.70164 -0.487147 0
M  V30 10875 C 1005.36 3.20337 -1.23446 0
M  V30 10876 C 1004.45 3.49347 -2.40452 0
M  V30 10877 N 1004.84 3.49179 -3.65934 0
M  V30 10878 C 1003.14 3.798 -2.33811 0
M  V30 10879 C 1003.84 3.76506 -4.43416 0
M  V30 10880 N 1002.82 3.95209 -3.73244 0
M  V30 10881 H 1006.62 1.80421 -2.32003 0
M  V30 10882 H 1004.13 0.915603 -1.34129 0
M  V30 10883 H 1006.13 3.99513 -1.19143 0
M  V30 10884 H 1004.79 3.23362 -0.294497 0
M  V30 10885 H 1005.8 3.30051 -3.99107 0
M  V30 10886 H 1002.48 3.9032 -1.48177 0
M  V30 10887 H 1003.87 3.82689 -5.52267 0
M  V30 10888 N 1006.59 1.25851 0.948643 0
M  V30 10889 C 1007.53 1.06759 2.04625 0
M  V30 10890 C 1008.5 -0.0251144 1.66081 0
M  V30 10891 O 1009.69 0.133221 1.90334 0
M  V30 10892 C 1006.83 0.698724 3.37952 0
M  V30 10893 C 1005.94 1.8669 3.89578 0
M  V30 10894 C 1005.08 1.44184 5.11258 0
M  V30 10895 C 1004.12 2.57878 5.55126 0
M  V30 10896 N 1003.25 2.16106 6.68014 0
M  V30 10897 H 1008.09 2.00691 2.20289 0
M  V30 10898 H 1005.63 0.999327 1.07944 0
M  V30 10899 H 1007.59 0.465788 4.14592 0
M  V30 10900 H 1006.22 -0.203618 3.22157 0
M  V30 10901 H 1005.27 2.21298 3.09405 0
M  V30 10902 H 1006.58 2.72051 4.18079 0
M  V30 10903 H 1005.74 1.16891 5.95333 0
M  V30 10904 H 1004.47 0.559035 4.84485 0
M  V30 10905 H 1003.48 2.85909 4.69612 0
M  V30 10906 H 1004.7 3.46747 5.83904 0
M  V30 10907 H 1002.65 1.3025 6.42939 0
M  V30 10908 H 1002.57 2.95012 6.96063 0
M  V30 10909 H 1003.84 1.92005 7.55483 0
M  V30 10910 N 1008.06 -1.15214 1.07534 0
M  V30 10911 C 1009.31 -1.85676 0.79805 0
M  V30 10912 C 1009.63 -1.82837 -0.677919 0
M  V30 10913 O 1008.9 -1.27059 -1.49107 0
M  V30 10914 H 1007.48 -0.687468 0.292227 0
M  V30 10915 H 1010.15 -1.39658 1.35947 0
M  V30 10916 H 1009.24 -2.9076 1.13423 0
M  V30 10917 N 1009.54 -0.859717 -1.32086 0
M  V30 10918 C 1010.47 -0.323502 -2.31248 0
M  V30 10919 C 1011.45 0.580085 -1.59903 0
M  V30 10920 O 1012.64 0.499265 -1.87673 0
M  V30 10921 C 1009.77 0.484661 -3.43902 0
M  V30 10922 C 1008.72 -0.324933 -4.26765 0
M  V30 10923 C 1008.05 0.608281 -5.31229 0
M  V30 10924 C 1009.35 -1.55344 -4.98664 0
M  V30 10925 H 1011.04 -1.15209 -2.76346 0
M  V30 10926 H 1008.59 -0.555442 -1.32856 0
M  V30 10927 H 1010.54 0.870238 -4.12316 0
M  V30 10928 H 1009.27 1.34666 -2.97544 0
M  V30 10929 H 1007.92 -0.692328 -3.60003 0
M  V30 10930 H 1007.57 1.46727 -4.81124 0
M  V30 10931 H 1007.27 0.0705571 -5.87558 0
M  V30 10932 H 1008.8 0.990925 -6.02506 0
M  V30 10933 H 1010.21 -1.23987 -5.59732 0
M  V30 10934 H 1008.61 -2.02947 -5.64741 0
M  V30 10935 H 1009.68 -2.31192 -4.26237 0
M  V30 10936 N 1011.02 1.44971 -0.618145 0
M  V30 10937 C 1012.3 1.95539 -0.0489895 0
M  V30 10938 C 1012.68 1.5604 1.42179 0
M  V30 10939 O 1012.03 0.82809 2.12967 0
M  V30 10940 C 1012.24 3.48044 -0.258193 0
M  V30 10941 C 1013.58 4.24354 -0.144541 0
M  V30 10942 O 1014.61 3.55699 -0.18887 0
M  V30 10943 O 1013.47 5.46486 -0.038519 0
M  V30 10944 H 1010.56 0.826466 0.0297256 0
M  V30 10945 H 1013.11 1.55086 -0.688944 0
M  V30 10946 H 1011.88 3.69798 -1.27926 0
M  V30 10947 H 1011.5 3.95412 0.416522 0
M  V30 10948 N 1012.5 0.357919 1.53482 0
M  V30 10949 C 1013.73 -0.234799 2.05261 0
M  V30 10950 C 1014.14 -1.43618 1.23169 0
M  V30 10951 O 1013.48 -1.81801 0.263435 0
M  V30 10952 C 1013.54 -0.699748 3.52624 0
M  V30 10953 C 1013.21 0.383905 4.55385 0
M  V30 10954 C 1014.2 1.23129 5.05109 0
M  V30 10955 C 1011.89 0.541953 4.99368 0
M  V30 10956 C 1013.88 2.22214 5.97411 0
M  V30 10957 C 1011.57 1.53618 5.91477 0
M  V30 10958 C 1012.57 2.37471 6.40388 0
M  V30 10959 O 1012.25 3.35199 7.30682 0
M  V30 10960 H 1011.99 -0.0465364 0.674396 0
M  V30 10961 H 1014.54 0.512355 1.98907 0
M  V30 10962 H 1012.77 -1.49838 3.5649 0
M  V30 10963 H 1014.46 -1.21461 3.87301 0
M  V30 10964 H 1015.23 1.12035 4.71883 0
M  V30 10965 H 1011.1 -0.100929 4.6089 0
M  V30 10966 H 1014.65 2.87702 6.35511 0
M  V30 10967 H 1010.55 1.64763 6.24118 0
M  V30 10968 H 1011.31 3.30838 7.48658 0
M  V30 10969 N 1013.98 -1.5736 0.0868897 0
M  V30 10970 C 1014.89 -2.17087 -0.889402 0
M  V30 10971 C 1015.9 -1.13809 -1.31619 0
M  V30 10972 O 1017.08 -1.46143 -1.38579 0
M  V30 10973 C 1014.14 -2.73286 -2.13344 0
M  V30 10974 C 1013.2 -3.91491 -1.76164 0
M  V30 10975 C 1012.44 -4.45 -2.94637 0
M  V30 10976 O 1012.66 -3.97467 -4.09116 0
M  V30 10977 O 1011.59 -5.36133 -2.73579 0
M  V30 10978 H 1015.42 -3.00902 -0.411275 0
M  V30 10979 H 1013.01 -1.4877 -0.137015 0
M  V30 10980 H 1014.89 -3.0924 -2.86266 0
M  V30 10981 H 1013.56 -1.92521 -2.60225 0
M  V30 10982 H 1012.47 -3.60363 -1.00447 0
M  V30 10983 H 1013.8 -4.73593 -1.34053 0
M  V30 10984 N 1015.45 0.186762 -1.56489 0
M  V30 10985 C 1016.7 0.904063 -1.80752 0
M  V30 10986 C 1017.02 1.83443 -0.661343 0
M  V30 10987 O 1016.29 1.93272 0.319811 0
M  V30 10988 H 1014.87 0.336828 -0.66675 0
M  V30 10989 H 1017.54 0.190275 -1.93969 0
M  V30 10990 H 1016.63 1.49021 -2.74225 0
M  V30 10991 N 1016.93 1.50896 0.454776 0
M  V30 10992 C 1018.18 1.62378 1.20324 0
M  V30 10993 C 1018.5 0.333883 1.9212 0
M  V30 10994 O 1017.77 -0.649477 1.8482 0
M  V30 10995 H 1016.35 0.598395 0.447139 0
M  V30 10996 H 1019.01 1.87749 0.523102 0
M  V30 10997 H 1018.11 2.44296 1.94232 0
M  V30 10998 N 1018.41 -0.709066 1.40748 0
M  V30 10999 C 1019.66 -1.46611 1.39103 0
M  V30 11000 C 1019.98 -1.95 -0.00365366 0
M  V30 11001 O 1019.25 -1.70791 -0.959541 0
M  V30 11002 H 1017.83 -0.543954 0.511979 0
M  V30 11003 H 1020.49 -0.840141 1.75863 0
M  V30 11004 H 1019.59 -2.33581 2.06994 0
M  V30 11005 N 1019.89 -1.26353 -0.941956 0
M  V30 11006 C 1021.13 -1.13071 -1.70277 0
M  V30 11007 C 1021.49 0.320699 -1.89303 0
M  V30 11008 O 1022.69 0.575624 -2.62564 0
M  V30 11009 C 1020.97 -1.87777 -3.04096 0
M  V30 11010 S 1022.52 -1.9054 -3.95272 0
M  V30 11011 H 1019.34 -0.403912 -0.585129 0
M  V30 11012 H 1021.94 -1.6006 -1.12254 0
M  V30 11013 H 1020.65 -2.92447 -2.87929 0
M  V30 11014 H 1020.18 -1.41226 -3.67177 0
M  V30 11015 H 1022.19 -0.991548 -4.86192 0
M  V30 11016 N 1021.37 1.14642 -1.08144 0
M  V30 11017 C 1022.78 1.37604 -0.808537 0
M  V30 11018 C 1022.98 1.92868 0.583452 0
M  V30 11019 O 1022.04 2.13964 1.34073 0
M  V30 11020 C 1023.35 2.3396 -1.889 0
M  V30 11021 C 1024.9 2.47605 -1.9147 0
M  V30 11022 C 1025.38 3.47258 -2.98623 0
M  V30 11023 N 1026.87 3.548 -2.97777 0
M  V30 11024 C 1027.6 4.31751 -3.77331 0
M  V30 11025 N 1027.1 5.11966 -4.66757 0
M  V30 11026 N 1028.89 4.2692 -3.65645 0
M  V30 11027 H 1021.04 0.771154 -1.97906 0
M  V30 11028 H 1023.3 0.401694 -0.858688 0
M  V30 11029 H 1023.01 2.00484 -2.88962 0
M  V30 11030 H 1022.88 3.33833 -1.756 0
M  V30 11031 H 1025.27 2.80375 -0.920548 0
M  V30 11032 H 1025.35 1.47702 -2.08848 0
M  V30 11033 H 1025 3.15223 -3.98243 0
M  V30 11034 H 1024.93 4.46935 -2.7849 0
M  V30 11035 H 1027.42 2.97553 -2.3296 0
M  V30 11036 H 1027.73 5.67951 -5.24072 0
M  V30 11037 H 1026.08 5.11245 -4.70801 0
M  V30 11038 H 1029.27 3.63322 -2.95152 0
M  V30 11039 H 1029.44 4.8664 -4.27885 0
M  V30 11040 N 1022.85 0.866709 1.31628 0
M  V30 11041 C 1024.09 0.476026 1.96825 0
M  V30 11042 C 1024.42 -0.970994 1.68529 0
M  V30 11043 O 1023.68 -1.69823 0.97255 0
M  V30 11044 C 1023.97 0.676018 3.50948 0
M  V30 11045 C 1023.64 2.09533 3.99258 0
M  V30 11046 C 1022.3 2.48349 4.1216 0
M  V30 11047 C 1024.65 3.02112 4.24709 0
M  V30 11048 C 1021.98 3.78991 4.47864 0
M  V30 11049 C 1024.33 4.32266 4.61875 0
M  V30 11050 C 1023 4.71 4.72985 0
M  V30 11051 H 1022.27 0.17419 0.720235 0
M  V30 11052 H 1024.92 1.09907 1.5682 0
M  V30 11053 H 1023.22 -0.0301867 3.91788 0
M  V30 11054 H 1024.92 0.353604 3.99438 0
M  V30 11055 H 1021.51 1.78396 3.89709 0
M  V30 11056 H 1025.69 2.73351 4.14238 0
M  V30 11057 H 1020.95 4.08769 4.54663 0
M  V30 11058 H 1025.12 5.04055 4.80522 0
M  V30 11059 H 1022.75 5.72273 5.00407 0
M  V30 11060 N 1024.32 -1.44642 0.625825 0
M  V30 11061 C 1025.25 -2.33397 -0.0692188 0
M  V30 11062 C 1026.23 -1.47898 -0.840241 0
M  V30 11063 O 1027.42 -1.7663 -0.807176 0
M  V30 11064 C 1024.55 -3.30888 -1.055 0
M  V30 11065 C 1023.5 -4.26164 -0.395968 0
M  V30 11066 C 1022.83 -5.13483 -1.49128 0
M  V30 11067 C 1024.13 -5.17663 0.694433 0
M  V30 11068 H 1025.82 -2.91763 0.671925 0
M  V30 11069 H 1023.37 -1.40294 0.324573 0
M  V30 11070 H 1025.32 -3.91861 -1.54993 0
M  V30 11071 H 1024.05 -2.7072 -1.82696 0
M  V30 11072 H 1022.71 -3.66516 0.0782691 0
M  V30 11073 H 1022.35 -4.49672 -2.25399 0
M  V30 11074 H 1022.05 -5.78038 -1.05573 0
M  V30 11075 H 1023.58 -5.77327 -1.98813 0
M  V30 11076 H 1024.99 -5.72602 0.282818 0
M  V30 11077 H 1023.39 -5.90793 1.05281 0
M  V30 11078 H 1024.46 -4.58994 1.56372 0
M  V30 11079 N 1025.8 -0.366053 -1.5329 0
M  V30 11080 C 1027.22 -0.0150149 -1.59593 0
M  V30 11081 C 1027.42 1.46719 -1.38116 0
M  V30 11082 O 1026.47 2.22884 -1.18656 0
M  V30 11083 C 1027.79 -0.471374 -2.96982 0
M  V30 11084 C 1029.33 -0.425634 -3.10092 0
M  V30 11085 C 1029.81 -0.857812 -4.49895 0
M  V30 11086 N 1031.3 -0.81289 -4.56011 0
M  V30 11087 C 1032.04 -1.11898 -5.62376 0
M  V30 11088 N 1031.53 -1.49436 -6.76491 0
M  V30 11089 N 1033.32 -1.04174 -5.52362 0
M  V30 11090 H 1025.48 -1.33127 -1.65502 0
M  V30 11091 H 1027.74 -0.544172 -0.776261 0
M  V30 11092 H 1027.44 -1.50569 -3.1784 0
M  V30 11093 H 1027.32 0.141764 -3.76934 0
M  V30 11094 H 1029.71 0.599548 -2.88945 0
M  V30 11095 H 1029.79 -1.07427 -2.32149 0
M  V30 11096 H 1029.43 -1.88111 -4.7178 0
M  V30 11097 H 1029.36 -0.186419 -5.2627 0
M  V30 11098 H 1031.85 -0.536343 -3.74075 0
M  V30 11099 H 1032.16 -1.71217 -7.53594 0
M  V30 11100 H 1030.51 -1.53302 -6.77882 0
M  V30 11101 H 1033.7 -0.747654 -4.62091 0
M  V30 11102 H 1033.87 -1.28362 -6.35159 0
M  V30 11103 N 1027.28 1.57312 -0.0952337 0
M  V30 11104 C 1028.51 1.98409 0.575984 0
M  V30 11105 C 1028.92 0.973168 1.62253 0
M  V30 11106 O 1028.26 -0.0454416 1.83644 0
M  V30 11107 C 1028.32 3.35877 1.28167 0
M  V30 11108 C 1027.99 4.55368 0.385868 0
M  V30 11109 C 1028.98 5.1861 -0.366041 0
M  V30 11110 C 1026.67 5.0138 0.303885 0
M  V30 11111 C 1028.66 6.26233 -1.18791 0
M  V30 11112 C 1026.35 6.0887 -0.521637 0
M  V30 11113 C 1027.35 6.71161 -1.26618 0
M  V30 11114 O 1027.04 7.76577 -2.07804 0
M  V30 11115 H 1026.77 0.657018 0.159068 0
M  V30 11116 H 1029.32 2.04685 -0.171237 0
M  V30 11117 H 1027.55 3.26284 2.07547 0
M  V30 11118 H 1029.24 3.6142 1.84744 0
M  V30 11119 H 1030.01 4.83993 -0.312435 0
M  V30 11120 H 1025.89 4.52657 0.873065 0
M  V30 11121 H 1029.43 6.74784 -1.76955 0
M  V30 11122 H 1025.33 6.42918 -0.576722 0
M  V30 11123 H 1026.09 7.93566 -2.00489 0
M  V30 11124 N 1028.76 -0.17846 1.56586 0
M  V30 11125 C 1030.03 -0.923096 1.72448 0
M  V30 11126 C 1030.41 -2.00692 0.654659 0
M  V30 11127 O 1029.76 -2.26079 -0.33171 0
M  V30 11128 C 1029.97 -1.49435 3.15389 0
M  V30 11129 C 1031.32 -1.97005 3.76131 0
M  V30 11130 O 1032.34 -1.59244 3.18622 0
M  V30 11131 O 1031.2 -2.66541 4.77094 0
M  V30 11132 H 1028.3 -0.434009 0.703964 0
M  V30 11133 H 1030.84 -0.16685 1.68878 0
M  V30 11134 H 1029.62 -0.713933 3.84732 0
M  V30 11135 H 1029.24 -2.31498 3.23256 0
M  V30 11136 N 1030.24 -1.51135 -0.446768 0
M  V30 11137 C 1031.48 -1.64989 -1.20656 0
M  V30 11138 C 1031.84 -0.353882 -1.88711 0
M  V30 11139 O 1033.04 -0.368099 -2.66268 0
M  V30 11140 C 1031.31 -2.81371 -2.20375 0
M  V30 11141 S 1032.87 -3.15501 -3.04967 0
M  V30 11142 H 1029.69 -0.581372 -0.409301 0
M  V30 11143 H 1032.29 -1.89008 -0.499613 0
M  V30 11144 H 1030.99 -3.73988 -1.69001 0
M  V30 11145 H 1030.53 -2.59512 -2.95664 0
M  V30 11146 H 1032.54 -2.61205 -4.21884 0
M  V30 11147 N 1031.71 0.701592 -1.41122 0
M  V30 11148 C 1032.96 1.46376 -1.40363 0
M  V30 11149 C 1033.29 1.94197 -0.0105442 0
M  V30 11150 O 1032.57 1.69121 0.960637 0
M  V30 11151 C 1032.85 2.67994 -2.40523 0
M  V30 11152 C 1032.7 2.25977 -3.88914 0
M  V30 11153 C 1034.02 3.70181 -2.38022 0
M  V30 11154 H 1031.14 0.530929 -0.511159 0
M  V30 11155 H 1033.78 0.799588 -1.72356 0
M  V30 11156 H 1031.93 3.24661 -2.13372 0
M  V30 11157 H 1033.61 1.74684 -4.26946 0
M  V30 11158 H 1031.85 1.57826 -4.04071 0
M  V30 11159 H 1032.52 3.13215 -4.54533 0
M  V30 11160 H 1035 3.23174 -2.62103 0
M  V30 11161 H 1033.87 4.52894 -3.10127 0
M  V30 11162 H 1034.13 4.19458 -1.3967 0
M  V30 11163 N 1033.19 1.2685 0.935242 0
M  V30 11164 C 1034.44 1.12132 1.67658 0
M  V30 11165 C 1034.75 -0.333839 1.9273 0
M  V30 11166 O 1035.96 -0.601801 2.64746 0
M  V30 11167 C 1034.42 1.95873 3.0193 0
M  V30 11168 C 1034.02 3.46 2.84584 0
M  V30 11169 C 1035.77 1.89781 3.79715 0
M  V30 11170 C 1033.67 4.21966 4.14365 0
M  V30 11171 H 1032.6 0.416035 0.628833 0
M  V30 11172 H 1035.26 1.51209 1.03962 0
M  V30 11173 H 1033.64 1.49633 3.66641 0
M  V30 11174 H 1034.81 4.00049 2.28687 0
M  V30 11175 H 1033.13 3.53391 2.20236 0
M  V30 11176 H 1035.72 2.43819 4.75875 0
M  V30 11177 H 1036.07 0.869797 4.07112 0
M  V30 11178 H 1036.6 2.33875 3.21788 0
M  V30 11179 H 1033.34 5.2526 3.9215 0
M  V30 11180 H 1032.86 3.72696 4.69955 0
M  V30 11181 H 1034.54 4.30734 4.82781 0
M  V30 11182 N 1034.67 -1.14067 1.0875 0
M  V30 11183 C 1035.9 -1.89582 0.841038 0
M  V30 11184 C 1036.32 -1.78226 -0.601436 0
M  V30 11185 O 1035.68 -1.12491 -1.42181 0
M  V30 11186 C 1035.73 -3.37415 1.27213 0
M  V30 11187 O 1034.83 -4.10191 0.426246 0
M  V30 11188 H 1034.17 -0.589716 0.305173 0
M  V30 11189 H 1036.7 -1.44364 1.44984 0
M  V30 11190 H 1036.71 -3.88234 1.25451 0
M  V30 11191 H 1035.39 -3.44999 2.32268 0
M  V30 11192 H 1033.96 -3.69429 0.507585 0
M  V30 11193 N 1036.15 -0.873678 -1.31166 0
M  V30 11194 C 1037.37 -0.500242 -2.01277 0
M  V30 11195 C 1037.8 0.900811 -1.65127 0
M  V30 11196 O 1037.16 1.59504 -0.861862 0
M  V30 11197 C 1037.2 -0.668976 -3.5434 0
M  V30 11198 O 1036.31 0.290096 -4.11378 0
M  V30 11199 H 1035.65 -0.198507 -0.633633 0
M  V30 11200 H 1038.18 -1.17811 -1.67277 0
M  V30 11201 H 1038.19 -0.563673 -4.04088 0
M  V30 11202 H 1036.86 -1.69055 -3.79991 0
M  V30 11203 H 1035.44 0.139437 -3.72639 0
M  V30 11204 N 1037.63 1.44308 -0.633487 0
M  V30 11205 C 1039.04 1.85387 -0.221009 0
M  V30 11206 C 1039.39 1.5301 1.22811 0
M  V30 11207 O 1038.51 0.969325 1.93476 0
M  V30 11208 C 1039.11 3.36497 -0.394331 0
M  V30 11209 C 1037.67 3.76382 -0.0363405 0
M  V30 11210 C 1036.81 2.68146 -0.706598 0
M  V30 11211 H 1039.77 1.34741 -0.83849 0
M  V30 11212 H 1039.79 3.78735 0.366026 0
M  V30 11213 H 1039.3 3.60031 -1.44911 0
M  V30 11214 H 1037.4 3.58463 1.01661 0
M  V30 11215 H 1037.51 4.77 -0.448045 0
M  V30 11216 H 1035.88 2.54306 -0.14168 0
M  V30 11217 H 1036.66 2.94512 -1.76401 0
M  V30 11218 N 1039.1 0.374177 1.53094 0
M  V30 11219 C 1040.52 0.0234783 1.59583 0
M  V30 11220 C 1040.72 -1.45984 1.38892 0
M  V30 11221 O 1039.78 -2.22251 1.19836 0
M  V30 11222 C 1041.09 0.487117 2.96728 0
M  V30 11223 C 1042.64 0.442073 3.09862 0
M  V30 11224 C 1043.11 0.881659 4.49434 0
M  V30 11225 N 1044.6 0.837062 4.55574 0
M  V30 11226 C 1045.34 1.14878 5.61774 0
M  V30 11227 N 1044.83 1.53022 6.75689 0
M  V30 11228 N 1046.63 1.07102 5.51802 0
M  V30 11229 H 1038.78 1.34003 1.64794 0
M  V30 11230 H 1041.04 0.548281 0.773364 0
M  V30 11231 H 1040.75 1.52252 3.17037 0
M  V30 11232 H 1040.62 -0.121772 3.77003 0
M  V30 11233 H 1043.01 -0.584216 2.89259 0
M  V30 11234 H 1043.09 1.08657 2.31576 0
M  V30 11235 H 1042.73 1.90611 4.70776 0
M  V30 11236 H 1042.66 0.214326 5.26164 0
M  V30 11237 H 1045.15 0.556173 3.73785 0
M  V30 11238 H 1045.47 1.75211 7.52676 0
M  V30 11239 H 1043.81 1.56895 6.77059 0
M  V30 11240 H 1047 0.772149 4.61688 0
M  V30 11241 H 1047.18 1.31728 6.3447 0
M  V30 11242 N 1040.58 -1.57259 0.103575 0
M  V30 11243 C 1041.53 -2.14487 -0.852295 0
M  V30 11244 C 1042.5 -1.06567 -1.27407 0
M  V30 11245 O 1043.68 -1.34398 -1.35432 0
M  V30 11246 C 1040.82 -2.73632 -2.10284 0
M  V30 11247 C 1039.94 -3.95811 -1.73083 0
M  V30 11248 C 1039.07 -4.43093 -2.92988 0
M  V30 11249 C 1038.11 -5.5784 -2.51953 0
M  V30 11250 N 1037.25 -5.99936 -3.64721 0
M  V30 11251 H 1042.09 -2.95849 -0.35743 0
M  V30 11252 H 1039.63 -1.46175 -0.164748 0
M  V30 11253 H 1041.58 -3.06046 -2.83534 0
M  V30 11254 H 1040.21 -1.94985 -2.57256 0
M  V30 11255 H 1039.27 -3.69656 -0.897688 0
M  V30 11256 H 1040.58 -4.79066 -1.38916 0
M  V30 11257 H 1039.73 -4.77335 -3.74481 0
M  V30 11258 H 1038.47 -3.58756 -3.30372 0
M  V30 11259 H 1037.48 -5.23217 -1.6889 0
M  V30 11260 H 1038.7 -6.43932 -2.15705 0
M  V30 11261 H 1036.65 -5.18543 -4.01807 0
M  V30 11262 H 1036.56 -6.78008 -3.34427 0
M  V30 11263 H 1037.83 -6.38812 -4.46699 0
M  V30 11264 N 1042.06 0.170153 -1.56679 0
M  V30 11265 C 1043.31 0.884841 -1.817 0
M  V30 11266 C 1043.63 1.82731 -0.680763 0
M  V30 11267 O 1042.9 1.936 0.299294 0
M  V30 11268 H 1041.48 0.329738 -0.670285 0
M  V30 11269 H 1044.14 0.169691 -1.9416 0
M  V30 11270 H 1043.24 1.46104 -2.7579 0
M  V30 11271 N 1043.54 1.5137 0.438746 0
M  V30 11272 C 1044.78 1.65173 1.18698 0
M  V30 11273 C 1045.14 0.362753 1.88949 0
M  V30 11274 O 1044.43 -0.641351 1.80547 0
M  V30 11275 C 1044.63 2.79221 2.23093 0
M  V30 11276 C 1044.46 4.19085 1.63088 0
M  V30 11277 C 1043.23 4.85042 1.41642 0
M  V30 11278 C 1045.42 5.02225 1.10789 0
M  V30 11279 N 1043.41 6.09024 0.772198 0
M  V30 11280 C 1044.78 6.17197 0.588854 0
M  V30 11281 C 1046.83 4.87764 0.999516 0
M  V30 11282 C 1045.53 7.19295 -0.0279103 0
M  V30 11283 C 1047.56 5.90068 0.396648 0
M  V30 11284 C 1046.92 7.04311 -0.111855 0
M  V30 11285 H 1043.02 0.658316 0.422071 0
M  V30 11286 H 1045.61 1.88593 0.483808 0
M  V30 11287 H 1043.78 2.57468 2.908 0
M  V30 11288 H 1045.51 2.82213 2.90066 0
M  V30 11289 H 1042.26 4.42886 1.67776 0
M  V30 11290 H 1042.69 6.75383 0.467568 0
M  V30 11291 H 1047.33 3.99695 1.37853 0
M  V30 11292 H 1045.05 8.07013 -0.419056 0
M  V30 11293 H 1048.63 5.80948 0.314715 0
M  V30 11294 H 1047.51 7.82118 -0.571021 0
M  V30 11295 N 1045.02 -0.694098 1.41492 0
M  V30 11296 C 1045.98 -1.78976 1.43179 0
M  V30 11297 C 1046.98 -1.57539 0.322191 0
M  V30 11298 O 1048.17 -1.64185 0.582138 0
M  V30 11299 C 1045.3 -3.17368 1.2446 0
M  V30 11300 H 1046.49 -1.78874 2.40716 0
M  V30 11301 H 1044.05 -0.901867 1.27656 0
M  V30 11302 H 1044.78 -3.23109 0.277691 0
M  V30 11303 H 1044.57 -3.3433 2.04856 0
M  V30 11304 H 1046.06 -3.97345 1.28479 0
M  V30 11305 N 1046.49 -1.27344 -0.928501 0
M  V30 11306 C 1047.42 -1.12517 -2.04602 0
M  V30 11307 C 1048.41 -0.0268563 -1.70079 0
M  V30 11308 O 1049.59 -0.201197 -1.93155 0
M  V30 11309 C 1046.72 -0.770749 -3.3864 0
M  V30 11310 C 1045.67 -1.8222 -3.87272 0
M  V30 11311 C 1045 -1.32178 -5.18105 0
M  V30 11312 C 1046.3 -3.22614 -4.10752 0
M  V30 11313 H 1047.99 -2.06 -2.17265 0
M  V30 11314 H 1045.54 -0.991827 -1.04397 0
M  V30 11315 H 1047.49 -0.653843 -4.16297 0
M  V30 11316 H 1046.22 0.19979 -3.25988 0
M  V30 11317 H 1044.88 -1.928 -3.11807 0
M  V30 11318 H 1044.52 -0.340719 -5.01845 0
M  V30 11319 H 1044.22 -2.02474 -5.51614 0
M  V30 11320 H 1045.75 -1.2178 -5.98333 0
M  V30 11321 H 1047.16 -3.1504 -4.78981 0
M  V30 11322 H 1045.56 -3.90614 -4.55566 0
M  V30 11323 H 1046.63 -3.67727 -3.16077 0
M  V30 11324 N 1047.97 1.13488 -1.09353 0
M  V30 11325 C 1048.9 2.20988 -0.75409 0
M  V30 11326 C 1049.88 1.67977 0.267901 0
M  V30 11327 O 1051.07 1.93722 0.136128 0
M  V30 11328 C 1048.2 3.46869 -0.173042 0
M  V30 11329 C 1047.15 4.12965 -1.12446 0
M  V30 11330 C 1046.48 5.33163 -0.405157 0
M  V30 11331 C 1047.78 4.60388 -2.46658 0
M  V30 11332 H 1049.47 2.49639 -1.6529 0
M  V30 11333 H 1047.02 1.19987 -0.796182 0
M  V30 11334 H 1048.97 4.21331 0.0764988 0
M  V30 11335 H 1047.7 3.17611 0.760956 0
M  V30 11336 H 1046.35 3.40469 -1.35927 0
M  V30 11337 H 1046 5.00169 0.532955 0
M  V30 11338 H 1045.7 5.78332 -1.03952 0
M  V30 11339 H 1047.23 6.1038 -0.163899 0
M  V30 11340 H 1048.64 5.26276 -2.27389 0
M  V30 11341 H 1047.04 5.16294 -3.05876 0
M  V30 11342 H 1048.11 3.74949 -3.07476 0
M  V30 11343 N 1049.45 0.880621 1.30701 0
M  V30 11344 C 1050.4 0.315679 2.25804 0
M  V30 11345 C 1051.39 -0.553382 1.51084 0
M  V30 11346 O 1052.58 -0.398518 1.72455 0
M  V30 11347 C 1049.71 -0.472586 3.40032 0
M  V30 11348 C 1048.79 0.410318 4.2211 0
M  V30 11349 N 1049.18 1.50876 4.82773 0
M  V30 11350 C 1047.48 0.20465 4.4553 0
M  V30 11351 C 1048.18 2.05409 5.44226 0
M  V30 11352 N 1047.16 1.34964 5.26579 0
M  V30 11353 H 1050.96 1.15505 2.70251 0
M  V30 11354 H 1048.47 0.729547 1.45091 0
M  V30 11355 H 1050.47 -0.893918 4.07204 0
M  V30 11356 H 1049.13 -1.30945 2.97125 0
M  V30 11357 H 1050.14 1.89163 4.82118 0
M  V30 11358 H 1046.82 -0.595398 4.13233 0
M  V30 11359 H 1048.21 2.97627 6.02385 0
M  V30 11360 N 1050.93 -1.4397 0.641131 0
M  V30 11361 C 1052.34 -1.85267 0.230838 0
M  V30 11362 C 1052.69 -1.53659 -1.21998 0
M  V30 11363 O 1051.82 -0.979572 -1.92959 0
M  V30 11364 C 1052.41 -3.36284 0.412171 0
M  V30 11365 C 1050.97 -3.76358 0.0563004 0
M  V30 11366 C 1050.12 -2.67768 0.720809 0
M  V30 11367 H 1053.07 -1.34294 0.845624 0
M  V30 11368 H 1053.09 -3.78924 -0.345936 0
M  V30 11369 H 1052.6 -3.59258 1.46818 0
M  V30 11370 H 1050.7 -3.58997 -0.997582 0
M  V30 11371 H 1050.82 -4.76756 0.473335 0
M  V30 11372 H 1049.18 -2.54227 0.155164 0
M  V30 11373 H 1049.96 -2.93573 1.77961 0
M  V30 11374 N 1052.41 -0.382291 -1.52893 0
M  V30 11375 C 1053.66 0.201734 -2.01091 0
M  V30 11376 C 1053.98 1.47905 -1.2708 0
M  V30 11377 O 1053.25 1.92002 -0.38883 0
M  V30 11378 H 1051.83 0.0775373 -0.742965 0
M  V30 11379 H 1054.49 -0.512369 -1.88045 0
M  V30 11380 H 1053.58 0.416919 -3.09303 0
M  V30 11381 N 1053.89 1.57202 -0.111913 0
M  V30 11382 C 1055.3 1.57713 0.244702 0
M  V30 11383 C 1055.5 1.12419 1.67225 0
M  V30 11384 O 1054.56 0.808329 2.39212 0
M  V30 11385 C 1055.87 3.00695 0.0178289 0
M  V30 11386 C 1057.42 3.12887 0.0842781 0
M  V30 11387 C 1057.89 4.57856 -0.114812 0
M  V30 11388 N 1059.38 4.6316 -0.0605423 0
M  V30 11389 C 1060.12 5.73086 -0.189594 0
M  V30 11390 N 1059.62 6.91787 -0.37442 0
M  V30 11391 N 1061.41 5.6195 -0.12967 0
M  V30 11392 H 1053.56 1.84947 -1.04443 0
M  V30 11393 H 1055.82 0.854418 -0.4107 0
M  V30 11394 H 1055.53 3.38093 -0.968802 0
M  V30 11395 H 1055.4 3.69611 0.752815 0
M  V30 11396 H 1057.79 2.7535 1.06143 0
M  V30 11397 H 1057.87 2.46528 -0.682474 0
M  V30 11398 H 1057.51 4.9609 -1.0889 0
M  V30 11399 H 1057.44 5.22297 0.671839 0
M  V30 11400 H 1059.94 3.77817 0.0790856 0
M  V30 11401 H 1060.25 7.71406 -0.463948 0
M  V30 11402 H 1058.59 6.93788 -0.410303 0
M  V30 11403 H 1061.78 4.68098 0.0137115 0
M  V30 11404 H 1061.96 6.47578 -0.233688 0
M  V30 11405 N 1055.36 -0.161842 1.56767 0
M  V30 11406 C 1056.29 -1.20226 2.0017 0
M  V30 11407 C 1057.27 -1.4564 0.878807 0
M  V30 11408 O 1058.46 -1.56813 1.14557 0
M  V30 11409 C 1055.59 -2.53897 2.36968 0
M  V30 11410 C 1054.54 -2.43033 3.52305 0
M  V30 11411 C 1053.87 -3.81281 3.74872 0
M  V30 11412 C 1055.17 -1.927 4.85453 0
M  V30 11413 H 1056.86 -0.84142 2.87333 0
M  V30 11414 H 1054.41 -0.403309 1.38237 0
M  V30 11415 H 1056.36 -3.26893 2.6593 0
M  V30 11416 H 1055.09 -2.91787 1.46724 0
M  V30 11417 H 1053.75 -1.7249 3.23485 0
M  V30 11418 H 1053.39 -4.1658 2.81904 0
M  V30 11419 H 1053.09 -3.74877 4.52483 0
M  V30 11420 H 1054.62 -4.55848 4.06245 0
M  V30 11421 H 1056.03 -2.55477 5.13229 0
M  V30 11422 H 1054.43 -1.97222 5.66766 0
M  V30 11423 H 1055.5 -0.881816 4.76814 0
M  V30 11424 N 1056.84 -1.516 -0.430713 0
M  V30 11425 C 1058.07 -1.68414 -1.20185 0
M  V30 11426 C 1058.48 -0.384297 -1.84847 0
M  V30 11427 O 1057.84 0.637808 -1.70992 0
M  V30 11428 C 1057.89 -2.80451 -2.28099 0
M  V30 11429 O 1057.61 -4.05399 -1.66081 0
M  V30 11430 C 1059.11 -3.0859 -3.18256 0
M  V30 11431 H 1056.33 -0.564982 -0.361989 0
M  V30 11432 H 1058.88 -1.9805 -0.50954 0
M  V30 11433 H 1057.03 -2.53395 -2.93036 0
M  V30 11434 H 1057.45 -4.67671 -2.37453 0
M  V30 11435 H 1058.92 -3.9055 -3.90096 0
M  V30 11436 H 1059.4 -2.21264 -3.79393 0
M  V30 11437 H 1060 -3.37331 -2.59014 0
M  V30 11438 N 1058.32 0.686584 -1.41858 0
M  V30 11439 C 1059.27 1.79271 -1.40875 0
M  V30 11440 C 1060.25 1.58413 -0.281782 0
M  V30 11441 O 1061.45 1.69093 -0.523132 0
M  V30 11442 C 1058.57 3.17647 -1.30213 0
M  V30 11443 C 1057.66 3.44168 -2.47808 0
M  V30 11444 N 1058.05 3.41339 -3.73258 0
M  V30 11445 C 1056.35 3.74755 -2.41815 0
M  V30 11446 C 1057.05 3.67016 -4.51303 0
M  V30 11447 N 1056.03 3.87203 -3.81543 0
M  V30 11448 H 1059.83 1.75459 -2.35778 0
M  V30 11449 H 1057.34 0.886946 -1.36041 0
M  V30 11450 H 1059.34 3.96896 -1.2759 0
M  V30 11451 H 1058 3.22664 -0.363021 0
M  V30 11452 H 1059.01 3.21511 -4.06018 0
M  V30 11453 H 1055.69 3.87089 -1.56423 0
M  V30 11454 H 1057.08 3.70888 -5.6026 0
M  V30 11455 N 1059.8 1.27835 0.921735 0
M  V30 11456 C 1061.03 1.17182 1.70153 0
M  V30 11457 C 1061.44 -0.273207 1.87217 0
M  V30 11458 O 1060.78 -1.19729 1.39322 0
M  V30 11459 C 1060.84 1.78969 3.11786 0
M  V30 11460 C 1060.5 3.28179 3.18037 0
M  V30 11461 C 1061.5 4.24729 2.99835 0
M  V30 11462 C 1059.19 3.68995 3.40805 0
M  V30 11463 C 1061.18 5.60071 3.04301 0
M  V30 11464 C 1058.87 5.04465 3.44904 0
M  V30 11465 C 1059.87 5.99813 3.2667 0
M  V30 11466 O 1059.55 7.32813 3.30515 0
M  V30 11467 H 1059.29 0.408079 0.538932 0
M  V30 11468 H 1061.84 1.69326 1.16266 0
M  V30 11469 H 1060.07 1.2131 3.6718 0
M  V30 11470 H 1061.76 1.62946 3.71757 0
M  V30 11471 H 1062.52 3.94533 2.8208 0
M  V30 11472 H 1058.4 2.9525 3.54045 0
M  V30 11473 H 1061.95 6.34471 2.89987 0
M  V30 11474 H 1057.84 5.34315 3.62185 0
M  V30 11475 H 1058.61 7.41338 3.4693 0
M  V30 11476 N 1061.28 -1.12907 1.09954 0
M  V30 11477 C 1062.23 -2.16558 0.713204 0
M  V30 11478 C 1063.21 -1.5853 -0.27515 0
M  V30 11479 O 1064.4 -1.76797 -0.0846643 0
M  V30 11480 C 1061.53 -3.43009 0.141224 0
M  V30 11481 C 1060.62 -4.08032 1.15632 0
M  V30 11482 N 1061.01 -4.48139 2.34531 0
M  V30 11483 C 1059.31 -4.34743 0.995701 0
M  V30 11484 C 1060.01 -4.98885 2.99147 0
M  V30 11485 N 1058.98 -4.9408 2.26684 0
M  V30 11486 H 1062.78 -2.45328 1.61838 0
M  V30 11487 H 1060.3 -1.29759 0.976539 0
M  V30 11488 H 1062.3 -4.16617 -0.153598 0
M  V30 11489 H 1060.96 -3.15711 -0.758729 0
M  V30 11490 H 1061.97 -4.40668 2.72089 0
M  V30 11491 H 1058.64 -4.17227 0.150888 0
M  V30 11492 H 1060.03 -5.3967 4.00257 0
M  V30 11493 N 1062.75 -0.88754 -1.30232 0
M  V30 11494 C 1063.66 -0.360333 -2.31816 0
M  V30 11495 C 1064.68 0.538741 -1.6545 0
M  V30 11496 O 1065.86 0.431246 -1.96729 0
M  V30 11497 C 1062.92 0.414336 -3.44215 0
M  V30 11498 C 1061.98 -0.514799 -4.26202 0
M  V30 11499 C 1061.21 0.222994 -5.33234 0
M  V30 11500 O 1061.44 1.44871 -5.51696 0
M  V30 11501 O 1060.37 -0.428221 -6.00375 0
M  V30 11502 H 1064.2 -1.20279 -2.78867 0
M  V30 11503 H 1061.78 -0.651459 -1.34448 0
M  V30 11504 H 1063.66 0.852859 -4.12679 0
M  V30 11505 H 1062.34 1.23305 -2.99295 0
M  V30 11506 H 1061.25 -1.00219 -3.60426 0
M  V30 11507 H 1062.58 -1.29959 -4.74733 0
M  V30 11508 N 1064.23 1.43628 -0.648757 0
M  V30 11509 C 1065.48 2.01465 -0.16002 0
M  V30 11510 C 1065.8 1.51413 1.22878 0
M  V30 11511 O 1065.07 0.724919 1.81994 0
M  V30 11512 H 1063.65 0.744885 -0.0561672 0
M  V30 11513 H 1066.31 1.75897 -0.839422 0
M  V30 11514 H 1065.41 3.1178 -0.141213 0
M  V30 11515 N 1065.71 0.390394 1.52688 0
M  V30 11516 C 1066.64 -0.43567 2.294 0
M  V30 11517 C 1067.62 -1.06253 1.32832 0
M  V30 11518 O 1068.81 -1.07509 1.61726 0
M  V30 11519 C 1065.94 -1.56259 3.10162 0
M  V30 11520 C 1064.89 -1.06172 4.14622 0
M  V30 11521 C 1064.22 -2.2808 4.83615 0
M  V30 11522 C 1065.52 -0.128902 5.22141 0
M  V30 11523 H 1067.21 0.204384 2.98702 0
M  V30 11524 H 1064.76 0.0997377 1.43654 0
M  V30 11525 H 1066.71 -2.14732 3.62585 0
M  V30 11526 H 1065.43 -2.23025 2.38595 0
M  V30 11527 H 1064.09 -0.499518 3.63181 0
M  V30 11528 H 1063.74 -2.93358 4.08595 0
M  V30 11529 H 1063.44 -1.95227 5.5422 0
M  V30 11530 H 1064.96 -2.87193 5.38844 0
M  V30 11531 H 1066.38 -0.621849 5.69917 0
M  V30 11532 H 1064.78 0.109919 5.99999 0
M  V30 11533 H 1065.85 0.821884 4.77884 0
M  V30 11534 N 1067.19 -1.57141 0.120249 0
M  V30 11535 C 1068.6 -1.82256 -0.404931 0
M  V30 11536 C 1068.95 -1.03748 -1.66526 0
M  V30 11537 O 1068.08 -0.274456 -2.14653 0
M  V30 11538 C 1068.67 -3.30588 -0.741431 0
M  V30 11539 C 1067.23 -3.56379 -1.21124 0
M  V30 11540 C 1066.38 -2.76421 -0.220569 0
M  V30 11541 H 1069.33 -1.54897 0.345361 0
M  V30 11542 H 1069.35 -3.45284 -1.59872 0
M  V30 11543 H 1068.86 -3.87701 0.176036 0
M  V30 11544 H 1066.96 -3.04625 -2.14556 0
M  V30 11545 H 1067.07 -4.64952 -1.1557 0
M  V30 11546 H 1065.44 -2.44666 -0.707857 0
M  V30 11547 H 1066.22 -3.36294 0.690018 0
M  V30 11548 N 1068.67 0.153526 -1.5685 0
M  V30 11549 C 1069.89 0.882335 -1.87143 0
M  V30 11550 C 1070.31 1.75034 -0.707702 0
M  V30 11551 O 1069.67 1.79624 0.32273 0
M  V30 11552 C 1069.72 1.74444 -3.16625 0
M  V30 11553 O 1069.44 0.911419 -4.28515 0
M  V30 11554 C 1070.94 2.58139 -3.60388 0
M  V30 11555 H 1068.16 0.25546 -0.620469 0
M  V30 11556 H 1070.7 0.148275 -2.03962 0
M  V30 11557 H 1068.86 2.43163 -3.0158 0
M  V30 11558 H 1069.27 1.50268 -5.02513 0
M  V30 11559 H 1070.75 3.14215 -4.53842 0
M  V30 11560 H 1071.22 3.33865 -2.85361 0
M  V30 11561 H 1071.83 1.94721 -3.78105 0
M  V30 11562 N 1070.14 1.51827 0.422667 0
M  V30 11563 C 1071.37 1.69049 1.1929 0
M  V30 11564 C 1071.79 0.394095 1.84641 0
M  V30 11565 O 1071.14 -0.628731 1.71328 0
M  V30 11566 C 1071.2 2.81657 2.26609 0
M  V30 11567 O 1070.92 4.06275 1.63929 0
M  V30 11568 C 1072.42 3.10274 3.16615 0
M  V30 11569 H 1069.64 0.566894 0.358988 0
M  V30 11570 H 1072.18 1.98318 0.499029 0
M  V30 11571 H 1070.34 2.54945 2.91688 0
M  V30 11572 H 1070.75 4.68924 2.3497 0
M  V30 11573 H 1072.22 3.92613 3.88019 0
M  V30 11574 H 1072.7 2.23273 3.78214 0
M  V30 11575 H 1073.31 3.387 2.57221 0
M  V30 11576 N 1071.62 -0.679052 1.4222 0
M  V30 11577 C 1072.87 -1.43978 1.43673 0
M  V30 11578 C 1073.22 -1.92333 0.0506711 0
M  V30 11579 O 1072.52 -1.67715 -0.926406 0
M  V30 11580 C 1072.71 -2.65528 2.39227 0
M  V30 11581 C 1072.54 -2.29065 3.86987 0
M  V30 11582 C 1071.31 -2.1863 4.55553 0
M  V30 11583 C 1073.51 -1.90983 4.77525 0
M  V30 11584 N 1071.49 -1.75227 5.88361 0
M  V30 11585 C 1072.86 -1.58465 5.99407 0
M  V30 11586 C 1074.92 -1.77938 4.65019 0
M  V30 11587 C 1073.62 -1.14212 7.10175 0
M  V30 11588 C 1075.64 -1.35089 5.75765 0
M  V30 11589 C 1075.01 -1.03493 6.96756 0
M  V30 11590 H 1071.11 -0.523503 0.58092 0
M  V30 11591 H 1073.69 -0.784043 1.78216 0
M  V30 11592 H 1071.86 -3.28797 2.06753 0
M  V30 11593 H 1073.59 -3.32096 2.31288 0
M  V30 11594 H 1070.35 -2.37562 4.09709 0
M  V30 11595 H 1070.77 -1.5596 6.58791 0
M  V30 11596 H 1075.41 -2.01013 3.71959 0
M  V30 11597 H 1073.13 -0.89882 8.03086 0
M  V30 11598 H 1076.72 -1.25522 5.68098 0
M  V30 11599 H 1075.6 -0.708396 7.80994 0
M  V30 11600 N 1073.1 -1.28322 -0.914942 0
M  V30 11601 C 1074.35 -1.15179 -1.66067 0
M  V30 11602 C 1074.67 0.300279 -1.92674 0
M  V30 11603 O 1073.94 1.20821 -1.54205 0
M  V30 11604 H 1072.52 -0.423264 -0.615513 0
M  V30 11605 H 1075.18 -1.61034 -1.09791 0
M  V30 11606 H 1074.28 -1.69048 -2.62353 0
M  V30 11607 N 1074.58 1.12322 -1.10551 0
M  V30 11608 C 1075.81 1.87679 -0.87087 0
M  V30 11609 C 1076.22 1.79711 0.578733 0
M  V30 11610 O 1075.58 1.17185 1.39907 0
M  V30 11611 C 1075.63 3.36846 -1.31213 0
M  V30 11612 O 1075.35 3.44626 -2.70489 0
M  V30 11613 C 1076.85 4.29138 -1.11156 0
M  V30 11614 H 1074.07 0.593788 -0.3125 0
M  V30 11615 H 1076.62 1.42116 -1.47048 0
M  V30 11616 H 1074.77 3.79948 -0.756169 0
M  V30 11617 H 1075.18 4.37441 -2.89389 0
M  V30 11618 H 1076.66 5.32082 -1.46944 0
M  V30 11619 H 1077.14 4.39171 -0.0502963 0
M  V30 11620 H 1077.74 3.91818 -1.65405 0
M  V30 11621 N 1076.06 0.894434 1.2976 0
M  V30 11622 C 1077.47 0.589778 1.48303 0
M  V30 11623 C 1077.67 -0.870085 1.81746 0
M  V30 11624 O 1076.73 -1.65065 1.91076 0
M  V30 11625 C 1078.04 1.51107 2.59975 0
M  V30 11626 C 1079.59 1.51571 2.73853 0
M  V30 11627 C 1080.06 2.42316 3.88648 0
M  V30 11628 N 1081.56 2.40333 3.95973 0
M  V30 11629 C 1082.29 3.07254 4.84131 0
M  V30 11630 N 1081.79 3.83435 5.77018 0
M  V30 11631 N 1083.58 2.96438 4.77578 0
M  V30 11632 H 1075.73 1.83871 1.06327 0
M  V30 11633 H 1077.99 0.78758 0.527657 0
M  V30 11634 H 1077.7 2.55097 2.42112 0
M  V30 11635 H 1077.57 1.22767 3.56662 0
M  V30 11636 H 1079.96 0.483277 2.91116 0
M  V30 11637 H 1080.04 1.83946 1.77757 0
M  V30 11638 H 1079.69 3.4565 3.72141 0
M  V30 11639 H 1079.62 2.07252 4.84101 0
M  V30 11640 H 1082.11 1.84979 3.29532 0
M  V30 11641 H 1082.42 4.31565 6.4107 0
M  V30 11642 H 1080.76 3.87542 5.7692 0
M  V30 11643 H 1083.96 2.36442 4.03996 0
M  V30 11644 H 1084.13 3.48867 5.46073 0
M  V30 11645 N 1077.53 -1.43282 0.656365 0
M  V30 11646 C 1078.76 -2.05826 0.178619 0
M  V30 11647 C 1079.17 -1.493 -1.16216 0
M  V30 11648 O 1078.52 -0.620163 -1.72915 0
M  V30 11649 C 1078.58 -3.59496 0.0164101 0
M  V30 11650 C 1078.24 -4.38621 1.28298 0
M  V30 11651 C 1079.24 -4.70477 2.21241 0
M  V30 11652 C 1076.92 -4.78577 1.52544 0
M  V30 11653 C 1078.92 -5.412 3.36721 0
M  V30 11654 C 1076.6 -5.49044 2.68316 0
M  V30 11655 C 1077.6 -5.80279 3.6023 0
M  V30 11656 O 1077.29 -6.49306 4.7398 0
M  V30 11657 H 1077.02 -0.670158 0.0886814 0
M  V30 11658 H 1079.58 -1.84722 0.89816 0
M  V30 11659 H 1077.81 -3.79188 -0.758532 0
M  V30 11660 H 1079.5 -4.03731 -0.419096 0
M  V30 11661 H 1080.26 -4.40125 2.03753 0
M  V30 11662 H 1076.14 -4.5367 0.818816 0
M  V30 11663 H 1079.68 -5.65497 4.08483 0
M  V30 11664 H 1075.58 -5.78813 2.85738 0
M  V30 11665 H 1076.35 -6.67789 4.73286 0
M  V30 11666 N 1079.01 -0.398486 -1.52479 0
M  V30 11667 C 1080.26 0.182046 -2.00877 0
M  V30 11668 C 1080.58 1.47128 -1.2889 0
M  V30 11669 O 1081.78 2.13242 -1.68048 0
M  V30 11670 C 1080.24 0.374978 -3.57941 0
M  V30 11671 C 1079.85 -0.901544 -4.38835 0
M  V30 11672 C 1081.59 0.911378 -4.14601 0
M  V30 11673 C 1079.5 -0.676385 -5.87519 0
M  V30 11674 H 1078.43 0.0718068 -0.750573 0
M  V30 11675 H 1081.08 -0.522297 -1.7591 0
M  V30 11676 H 1079.46 1.14139 -3.79194 0
M  V30 11677 H 1080.63 -1.67329 -4.29346 0
M  V30 11678 H 1078.95 -1.36357 -3.93441 0
M  V30 11679 H 1081.55 1.09569 -5.23353 0
M  V30 11680 H 1081.89 1.88306 -3.71277 0
M  V30 11681 H 1082.42 0.204296 -3.97275 0
M  V30 11682 H 1079.16 -1.61933 -6.35184 0
M  V30 11683 H 1078.68 0.0562542 -5.99774 0
M  V30 11684 H 1080.36 -0.314454 -6.46235 0
M  V30 11685 N 1080.49 1.57075 -0.12858 0
M  V30 11686 C 1081.42 2.11553 0.855593 0
M  V30 11687 C 1082.4 1.03435 1.25459 0
M  V30 11688 O 1083.59 1.3115 1.35395 0
M  V30 11689 C 1080.71 2.62012 2.14633 0
M  V30 11690 C 1079.76 3.82105 1.89467 0
M  V30 11691 S 1080.59 5.24033 1.10228 0
M  V30 11692 C 1081.75 5.77867 2.4046 0
M  V30 11693 H 1081.98 2.94701 0.392248 0
M  V30 11694 H 1079.51 1.54164 0.0853746 0
M  V30 11695 H 1081.47 2.91737 2.8879 0
M  V30 11696 H 1080.13 1.79029 2.58084 0
M  V30 11697 H 1079.33 4.15592 2.8513 0
M  V30 11698 H 1078.93 3.53047 1.23427 0
M  V30 11699 H 1081.22 5.88175 3.36238 0
M  V30 11700 H 1082.16 6.75775 2.11504 0
M  V30 11701 H 1082.57 5.05991 2.50266 0
M  V30 11702 N 1081.97 -0.145205 1.5693 0
M  V30 11703 C 1083.22 -0.858786 1.83719 0
M  V30 11704 C 1083.55 -1.80738 0.710452 0
M  V30 11705 O 1082.82 -1.92389 -0.285791 0
M  V30 11706 C 1083.11 -1.6317 3.2101 0
M  V30 11707 C 1082.96 -0.704472 4.44249 0
M  V30 11708 C 1084.28 -2.59377 3.55544 0
M  V30 11709 H 1081.4 -0.310757 0.66828 0
M  V30 11710 H 1084.04 -0.123918 1.89595 0
M  V30 11711 H 1082.19 -2.25816 3.16132 0
M  V30 11712 H 1083.86 -0.08887 4.61214 0
M  V30 11713 H 1082.1 -0.0141693 4.33798 0
M  V30 11714 H 1082.78 -1.28135 5.36922 0
M  V30 11715 H 1085.25 -2.06848 3.61044 0
M  V30 11716 H 1084.13 -3.10506 4.52634 0
M  V30 11717 H 1084.39 -3.40819 2.81594 0
M  V30 11718 N 1083.45 -1.52049 -0.414609 0
M  V30 11719 C 1084.67 -1.6997 -1.18848 0
M  V30 11720 C 1085.1 -0.406058 -1.83665 0
M  V30 11721 O 1084.46 0.635981 -1.69779 0
M  V30 11722 C 1084.5 -2.8327 -2.23138 0
M  V30 11723 O 1083.61 -2.48457 -3.29155 0
M  V30 11724 H 1082.95 -0.566003 -0.347183 0
M  V30 11725 H 1085.48 -1.98726 -0.486757 0
M  V30 11726 H 1085.49 -3.08022 -2.67557 0
M  V30 11727 H 1084.16 -3.7713 -1.75344 0
M  V30 11728 H 1082.74 -2.34357 -2.90054 0
M  V30 11729 N 1084.93 0.6715 -1.42579 0
M  V30 11730 C 1086.17 1.43154 -1.43224 0
M  V30 11731 C 1086.5 1.94436 -0.0498695 0
M  V30 11732 O 1085.76 1.71521 0.942282 0
M  V30 11733 C 1086.05 2.64256 -2.40632 0
M  V30 11734 C 1085.72 2.31497 -3.86937 0
M  V30 11735 C 1084.38 2.22274 -4.26788 0
M  V30 11736 C 1086.73 2.04957 -4.7921 0
M  V30 11737 C 1084.06 1.84642 -5.56888 0
M  V30 11738 C 1086.41 1.68828 -6.09656 0
M  V30 11739 C 1085.08 1.58118 -6.48502 0
M  V30 11740 H 1084.35 0.523838 -0.524094 0
M  V30 11741 H 1087 0.765363 -1.7554 0
M  V30 11742 H 1085.3 3.35921 -2.01654 0
M  V30 11743 H 1087 3.22443 -2.38394 0
M  V30 11744 H 1083.59 2.39578 -3.55387 0
M  V30 11745 H 1087.77 2.11014 -4.49207 0
M  V30 11746 H 1083.03 1.74921 -5.85843 0
M  V30 11747 H 1087.2 1.47319 -6.8064 0
M  V30 11748 H 1084.83 1.28728 -7.49222 0
M  V30 11749 N 1086.4 1.28806 0.908124 0
M  V30 11750 C 1087.65 1.1646 1.66027 0
M  V30 11751 C 1087.98 -0.285025 1.92097 0
M  V30 11752 O 1087.26 -1.20675 1.52538 0
M  V30 11753 C 1087.54 1.96951 3.01467 0
M  V30 11754 C 1087.39 3.50007 2.82515 0
M  V30 11755 C 1088.71 1.78932 4.02084 0
M  V30 11756 H 1085.83 0.424435 0.602515 0
M  V30 11757 H 1088.47 1.58185 1.0525 0
M  V30 11758 H 1086.62 1.61495 3.53344 0
M  V30 11759 H 1088.3 3.95401 2.37605 0
M  V30 11760 H 1086.54 3.75356 2.17463 0
M  V30 11761 H 1087.21 4.01591 3.7872 0
M  V30 11762 H 1089.69 2.09885 3.59287 0
M  V30 11763 H 1088.56 2.37615 4.94803 0
M  V30 11764 H 1088.82 0.742286 4.35824 0
M  V30 11765 N 1087.88 -1.11734 1.11145 0
M  V30 11766 C 1089.16 -1.79795 0.770261 0
M  V30 11767 C 1089.54 -1.97624 -0.742158 0
M  V30 11768 O 1088.89 -1.55847 -1.67105 0
M  V30 11769 C 1089.1 -3.13684 1.52982 0
M  V30 11770 C 1090.44 -3.88771 1.70711 0
M  V30 11771 O 1091.47 -3.23363 1.49381 0
M  V30 11772 O 1090.33 -5.06134 2.06132 0
M  V30 11773 H 1087.42 -0.778617 0.27872 0
M  V30 11774 H 1089.97 -1.18504 1.2147 0
M  V30 11775 H 1088.74 -2.96043 2.55879 0
M  V30 11776 H 1088.36 -3.82687 1.07873 0
M  V30 11777 N 1089.36 -0.901303 -1.29284 0
M  V30 11778 C 1090.77 -0.576317 -1.77582 0
M  V30 11779 C 1091.12 0.908078 -1.73921 0
M  V30 11780 O 1090.25 1.71006 -1.32611 0
M  V30 11781 C 1090.84 -1.03938 -3.22463 0
M  V30 11782 C 1089.4 -0.765533 -3.68533 0
M  V30 11783 C 1088.55 -1.21318 -2.49354 0
M  V30 11784 H 1091.5 -1.08386 -1.15923 0
M  V30 11785 H 1091.52 -0.375367 -3.78644 0
M  V30 11786 H 1091.03 -2.11977 -3.25096 0
M  V30 11787 H 1089.13 0.302176 -3.71373 0
M  V30 11788 H 1089.25 -1.36454 -4.59257 0
M  V30 11789 H 1087.61 -0.632141 -2.46731 0
M  V30 11790 H 1088.39 -2.30165 -2.54714 0
M  V30 11791 O 1090.88 1.40104 -0.803313 0
M  V30 11792 H 1091.57 1.89968 -0.378381 0
M  V30 END ATOM
M  V30 BEGIN BOND
M  V30 END BOND
M  V30 END CTAB
M  END
$$$$
