drugbank_target|Q6ZQY3 Acidic amino acid decarboxylase GADL1 (DB00114)
 OpenBabel12092120063D

  0  0  0     0  0            999 V3000
M  V30 BEGIN CTAB
M  V30 COUNTS 8298 8393 0 0 0
M  V30 BEGIN ATOM
M  V30 1 H -0.908 1.98254 -0.117106 0
M  V30 2 N 0 1.576 0 0
M  V30 3 C 0.933 2.03868 1.02534 0
M  V30 4 C 1.911 0.928543 1.3348 0
M  V30 5 O 3.095 1.19667 1.45644 0
M  V30 6 C 0.222 2.43627 2.35294 0
M  V30 7 C -0.732 3.65373 2.2001 0
M  V30 8 S 0.101 5.13292 1.52614 0
M  V30 9 C 1.257 5.56322 2.86805 0
M  V30 10 H 1.49 2.90518 0.631377 0
M  V30 11 H -0.977 1.52953 0.210867 0
M  V30 12 H 0.981 2.67203 3.11629 0
M  V30 13 H -0.358 1.57376 2.7183 0
M  V30 14 H -1.165 3.90944 3.18086 0
M  V30 15 H -1.563 3.418 1.51819 0
M  V30 16 H 0.729 5.58782 3.83104 0
M  V30 17 H 1.672 6.56266 2.65933 0
M  V30 18 H 2.08 4.83886 2.90714 0
M  V30 19 N 1.4781 -0.272755 1.55222 0
M  V30 20 C 2.7031 -1.02683 1.80197 0
M  V30 21 C 3.1281 -1.79142 0.573551 0
M  V30 22 O 2.4861 -1.74917 -0.476849 0
M  V30 23 C 2.5341 -1.9609 3.02624 0
M  V30 24 O 1.6381 -3.04863 2.77727 0
M  V30 25 H 0.9791 -0.293557 0.595584 0
M  V30 26 H 3.5091 -0.30159 2.02365 0
M  V30 27 H 3.5191 -2.38039 3.31363 0
M  V30 28 H 2.1941 -1.39851 3.91682 0
M  V30 29 H 0.7711 -2.67228 2.60084 0
M  V30 30 N 2.9562 -1.48159 -0.537278 0
M  V30 31 C 4.1812 -1.59707 -1.32319 0
M  V30 32 C 4.6062 -0.254859 -1.86365 0
M  V30 33 O 3.9642 0.772378 -1.64024 0
M  V30 34 C 4.0122 -2.6412 -2.45505 0
M  V30 35 O 3.1162 -2.20774 -3.48328 0
M  V30 36 H 2.4572 -0.535791 -0.392204 0
M  V30 37 H 4.9872 -1.94092 -0.647268 0
M  V30 38 H 4.9972 -2.85166 -2.91795 0
M  V30 39 H 3.6722 -3.61567 -2.05528 0
M  V30 40 H 2.2492 -2.09911 -3.08207 0
M  V30 41 N 4.4343 0.785586 -1.36625 0
M  V30 42 C 5.7113 1.53198 -1.21613 0
M  V30 43 C 6.0913 2.10187 0.196113 0
M  V30 44 O 5.4393 1.94318 1.20219 0
M  V30 45 C 5.6493 2.62388 -2.30116 0
M  V30 46 C 6.9973 3.30167 -2.66974 0
M  V30 47 O 8.0213 2.72674 -2.29188 0
M  V30 48 O 6.8803 4.34077 -3.32023 0
M  V30 49 H 3.9743 0.677865 -0.473738 0
M  V30 50 H 6.5203 0.823739 -1.48367 0
M  V30 51 H 5.2923 2.18299 -3.24748 0
M  V30 52 H 4.9153 3.40827 -2.0475 0
M  V30 53 N 5.9124 1.20967 1.01018 0
M  V30 54 C 7.1374 1.0503 1.78839 0
M  V30 55 C 7.5624 -0.395752 1.8389 0
M  V30 56 O 6.9204 -1.28529 1.27867 0
M  V30 57 C 6.9684 1.64602 3.2084 0
M  V30 58 O 6.0724 0.887988 4.02726 0
M  V30 59 H 5.4134 0.369987 0.551367 0
M  V30 60 H 7.9434 1.60399 1.27018 0
M  V30 61 H 7.9534 1.68607 3.71532 0
M  V30 62 H 6.6284 2.69841 3.16479 0
M  V30 63 H 5.2054 0.922648 3.61305 0
M  V30 64 N 7.3905 -1.2043 1.01659 0
M  V30 65 C 8.6675 -1.8548 0.621004 0
M  V30 66 C 9.0475 -1.9091 -0.900919 0
M  V30 67 O 8.3955 -1.41694 -1.79263 0
M  V30 68 C 8.6055 -3.25119 1.2688 0
M  V30 69 C 9.9535 -4.01403 1.38423 0
M  V30 70 O 10.9775 -3.34473 1.22501 0
M  V30 71 O 9.8365 -5.21265 1.64151 0
M  V30 72 H 6.9305 -0.798761 0.214266 0
M  V30 73 H 9.4765 -1.28019 1.11396 0
M  V30 74 H 8.2485 -3.15932 2.30873 0
M  V30 75 H 7.8715 -3.90212 0.762917 0
M  V30 76 N 8.8686 -0.792821 -1.36206 0
M  V30 77 C 10.2846 -0.474903 -1.52371 0
M  V30 78 C 10.4846 1.00622 -1.74578 0
M  V30 79 O 9.5406 1.79162 -1.77924 0
M  V30 80 C 10.8536 -1.3083 -2.70747 0
M  V30 81 C 12.4016 -1.30234 -2.84619 0
M  V30 82 C 12.8766 -2.11956 -4.06004 0
M  V30 83 N 14.3676 -2.09419 -4.13156 0
M  V30 84 C 15.1026 -2.69419 -5.06163 0
M  V30 85 N 14.5986 -3.3829 -6.04592 0
M  V30 86 N 16.3916 -2.59134 -4.98804 0
M  V30 87 H 8.5426 -1.75222 -1.20046 0
M  V30 88 H 10.8056 -0.745024 -0.586211 0
M  V30 89 H 10.5116 -2.35881 -2.6087 0
M  V30 90 H 10.3856 -0.95196 -3.6499 0
M  V30 91 H 12.7726 -0.259748 -2.93955 0
M  V30 92 H 12.8536 -1.69847 -1.91274 0
M  V30 93 H 12.4976 -3.16248 -3.97429 0
M  V30 94 H 12.4276 -1.69711 -4.98503 0
M  V30 95 H 14.9186 -1.59297 -3.42685 0
M  V30 96 H 15.2316 -3.81394 -6.7213 0
M  V30 97 H 13.5766 -3.42393 -6.04807 0
M  V30 98 H 16.7676 -2.04927 -4.20859 0
M  V30 99 H 16.9406 -3.06185 -5.711 0
M  V30 100 N 10.3467 1.47872 -0.545128 0
M  V30 101 C 11.2787 2.27869 0.246621 0
M  V30 102 C 12.2917 1.36282 0.890561 0
M  V30 103 O 13.4807 1.61207 0.766449 0
M  V30 104 C 10.5807 3.10159 1.36582 0
M  V30 105 C 9.7537 4.29627 0.820954 0
M  V30 106 C 8.8127 4.93607 1.82314 0
M  V30 107 O 7.8387 5.52366 1.37406 0
M  V30 108 N 9.0407 4.87211 3.15603 0
M  V30 109 H 11.8057 2.96459 -0.439539 0
M  V30 110 H 9.3667 1.57367 -0.380421 0
M  V30 111 H 11.3587 3.49829 2.03474 0
M  V30 112 H 9.9287 2.43891 1.9554 0
M  V30 113 H 9.1487 3.94192 -0.0244032 0
M  V30 114 H 10.4367 5.06928 0.436063 0
M  V30 115 H 9.8347 4.40651 3.54744 0
M  V30 116 H 8.3917 5.30937 3.78087 0
M  V30 117 N 11.8248 0.280983 1.55075 0
M  V30 118 C 13.0648 -0.335234 2.01632 0
M  V30 119 C 13.4288 -1.5261 1.16508 0
M  V30 120 O 14.6298 -2.21235 1.52672 0
M  V30 121 C 12.9008 -0.702172 3.50434 0
M  V30 122 S 14.4598 -1.30409 4.18974 0
M  V30 123 H 11.2778 -0.103967 0.703358 0
M  V30 124 H 13.8798 0.404187 1.91276 0
M  V30 125 H 12.5838 0.17333 4.10034 0
M  V30 126 H 12.1148 -1.4729 3.64786 0
M  V30 127 H 14.1298 -2.59253 4.23087 0
M  V30 128 N 13.3029 -1.57598 0.00835791 0
M  V30 129 C 14.7139 -1.7892 -0.53333 0
M  V30 130 C 15.0649 -0.916609 -1.73473 0
M  V30 131 O 14.1899 -0.121336 -2.1606 0
M  V30 132 C 14.7849 -3.24488 -0.974313 0
M  V30 133 C 13.3439 -3.46878 -1.46125 0
M  V30 134 C 12.4909 -2.74157 -0.416302 0
M  V30 135 H 15.4419 -1.56958 0.234495 0
M  V30 136 H 15.4629 -3.3306 -1.83988 0
M  V30 137 H 14.9749 -3.87972 -0.099718 0
M  V30 138 H 13.0759 -2.8862 -2.35646 0
M  V30 139 H 13.1889 -4.55572 -1.48295 0
M  V30 140 H 11.5529 -2.39022 -0.87981 0
M  V30 141 H 12.3359 -3.40345 0.44947 0
M  V30 142 N 14.781 0.264519 -1.55364 0
M  V30 143 C 16.027 0.99646 -1.76631 0
M  V30 144 C 16.36 1.85632 -0.570478 0
M  V30 145 O 15.635 1.89647 0.43175 0
M  V30 146 C 15.918 1.87187 -3.07625 0
M  V30 147 C 15.771 1.04138 -4.37579 0
M  V30 148 C 17.09 2.85749 -3.34717 0
M  V30 149 H 14.209 0.360841 -0.642622 0
M  V30 150 H 16.851 0.268218 -1.88097 0
M  V30 151 H 15.001 2.49279 -2.9798 0
M  V30 152 H 16.673 0.440517 -4.59192 0
M  V30 153 H 14.916 0.345115 -4.32425 0
M  V30 154 H 15.587 1.68729 -5.2558 0
M  V30 155 H 18.063 2.33793 -3.4421 0
M  V30 156 H 16.939 3.44136 -4.27623 0
M  V30 157 H 17.2 3.61311 -2.54768 0
M  V30 158 N 16.2591 1.48442 0.529413 0
M  V30 159 C 17.5361 1.46978 1.29062 0
M  V30 160 C 17.9161 0.181769 2.10316 0
M  V30 161 O 17.2641 -0.836481 2.12639 0
M  V30 162 C 17.4741 2.7321 2.17157 0
M  V30 163 C 18.8221 3.21562 2.77278 0
M  V30 164 O 19.8461 2.74131 2.27444 0
M  V30 165 O 18.7051 4.04094 3.67927 0
M  V30 166 H 15.7991 0.587003 0.582543 0
M  V30 167 H 18.3451 1.60676 0.546021 0
M  V30 168 H 17.1171 3.58465 1.56903 0
M  V30 169 H 16.7401 2.62235 2.98862 0
M  V30 170 N 17.7372 -0.778329 1.37039 0
M  V30 171 C 18.9852 -1.53361 1.31623 0
M  V30 172 C 19.3062 -1.94739 -0.100831 0
M  V30 173 O 18.5762 -1.65797 -1.04347 0
M  V30 174 H 17.1562 -0.568794 0.484234 0
M  V30 175 H 19.8182 -0.926742 1.71457 0
M  V30 176 H 18.9142 -2.43606 1.95096 0
M  V30 177 N 19.2153 -1.21501 -1.00376 0
M  V30 178 C 20.4923 -0.941745 -1.71437 0
M  V30 179 C 20.8723 0.546114 -2.03914 0
M  V30 180 O 20.2203 1.51128 -1.71384 0
M  V30 181 C 20.4303 -1.82812 -2.97289 0
M  V30 182 C 21.7783 -2.07771 -3.70292 0
M  V30 183 O 22.8023 -1.80171 -3.07273 0
M  V30 184 O 21.6613 -2.54456 -4.83647 0
M  V30 185 H 18.7553 -0.353243 -0.747762 0
M  V30 186 H 21.3013 -1.32436 -1.06108 0
M  V30 187 H 20.0733 -2.83501 -2.69709 0
M  V30 188 H 19.6963 -1.4464 -3.70358 0
M  V30 189 N 20.6934 1.19889 -1.02296 0
M  V30 190 C 21.9424 1.88743 -0.711257 0
M  V30 191 C 22.2554 1.80112 0.762817 0
M  V30 192 O 23.4614 2.44161 1.18733 0
M  V30 193 C 21.9174 3.38525 -1.22185 0
M  V30 194 C 21.5254 3.55727 -2.72328 0
M  V30 195 C 23.2694 4.12893 -0.985864 0
M  V30 196 C 21.1764 4.99369 -3.16835 0
M  V30 197 H 20.1064 0.706885 -0.262353 0
M  V30 198 H 22.7574 1.35586 -1.23648 0
M  V30 199 H 21.1394 3.91044 -0.624571 0
M  V30 200 H 22.3134 3.13564 -3.3766 0
M  V30 201 H 20.6284 2.94739 -2.9414 0
M  V30 202 H 23.2254 5.18813 -1.29374 0
M  V30 203 H 23.5684 4.16228 0.0775055 0
M  V30 204 H 24.1014 3.66494 -1.54684 0
M  V30 205 H 20.8404 5.01193 -4.22476 0
M  V30 206 H 20.3604 5.42317 -2.56228 0
M  V30 207 H 22.0394 5.67988 -3.09837 0
M  V30 208 N 22.1715 0.800033 1.35784 0
M  V30 209 C 23.4485 0.30088 1.93272 0
M  V30 210 C 23.8285 -1.20857 1.73081 0
M  V30 211 O 23.1765 -2.00502 1.09596 0
M  V30 212 C 23.3865 0.70511 3.41803 0
M  V30 213 C 24.7345 0.690871 4.18942 0
M  V30 214 O 25.7585 0.646244 3.50289 0
M  V30 215 O 24.6175 0.74332 5.41421 0
M  V30 216 H 21.7115 0.0771605 0.823393 0
M  V30 217 H 24.2575 0.88329 1.449 0
M  V30 218 H 23.0295 1.74571 3.50201 0
M  V30 219 H 22.6525 0.0971541 3.97481 0
M  V30 220 N 23.6496 -1.47581 0.552962 0
M  V30 221 C 24.5816 -2.27997 -0.234533 0
M  V30 222 C 25.5946 -1.36753 -0.883321 0
M  V30 223 O 26.7836 -1.61612 -0.757889 0
M  V30 224 C 23.8836 -3.10879 -1.34935 0
M  V30 225 C 23.0566 -4.30056 -0.798158 0
M  V30 226 C 22.1156 -4.94567 -1.79694 0
M  V30 227 O 21.1416 -5.53087 -1.34474 0
M  V30 228 N 22.3436 -4.88878 -3.13015 0
M  V30 229 H 25.1086 -2.96222 0.455255 0
M  V30 230 H 22.6696 -1.57163 0.388761 0
M  V30 231 H 24.6616 -3.50903 -2.01616 0
M  V30 232 H 23.2316 -2.44924 -1.94244 0
M  V30 233 H 22.4516 -3.94174 0.0453079 0
M  V30 234 H 23.7396 -5.07152 -0.409173 0
M  V30 235 H 23.1376 -4.42526 -3.52402 0
M  V30 236 H 21.6946 -5.32934 -3.75266 0
M  V30 237 N 25.1277 -0.289203 -1.54924 0
M  V30 238 C 26.0597 0.625583 -2.20497 0
M  V30 239 C 27.0727 1.10667 -1.19402 0
M  V30 240 O 28.2617 1.02615 -1.46056 0
M  V30 241 C 25.3617 1.86702 -2.82835 0
M  V30 242 C 24.5347 1.5304 -4.09753 0
M  V30 243 C 23.5937 2.62576 -4.56005 0
M  V30 244 O 22.6197 2.28167 -5.21468 0
M  V30 245 N 23.8217 3.92901 -4.27328 0
M  V30 246 H 26.5867 0.0642801 -2.99631 0
M  V30 247 H 24.1477 -0.110896 -1.6152 0
M  V30 248 H 26.1397 2.59304 -3.10715 0
M  V30 249 H 24.7097 2.33702 -2.07611 0
M  V30 250 H 23.9297 0.637564 -3.8901 0
M  V30 251 H 25.2177 1.28072 -4.92418 0
M  V30 252 H 24.6157 4.23671 -3.74859 0
M  V30 253 H 23.1727 4.61837 -4.59946 0
M  V30 254 N 26.6058 1.57591 -0.0167156 0
M  V30 255 C 27.5158 2.1291 0.98521 0
M  V30 256 C 28.5318 1.07834 1.36557 0
M  V30 257 O 29.7078 1.39826 1.44951 0
M  V30 258 C 26.7728 2.63512 2.25305 0
M  V30 259 C 25.8338 3.83256 1.93426 0
M  V30 260 C 25.0668 4.31435 3.14165 0
M  V30 261 O 25.2898 3.78851 4.26413 0
M  V30 262 O 24.2238 5.23416 2.97186 0
M  V30 263 H 28.0498 2.98772 0.544888 0
M  V30 264 H 25.6348 1.48012 0.203141 0
M  V30 265 H 27.5168 2.96183 2.99756 0
M  V30 266 H 26.1918 1.8074 2.68542 0
M  V30 267 H 25.0988 3.55531 1.16398 0
M  V30 268 H 26.4318 4.67153 1.55013 0
M  V30 269 N 28.0839 -0.256276 1.55502 0
M  V30 270 C 29.0169 -1.34321 1.84481 0
M  V30 271 C 29.9949 -1.46802 0.699131 0
M  V30 272 O 31.1789 -1.63165 0.943904 0
M  V30 273 C 28.3059 -2.71779 2.02123 0
M  V30 274 C 27.3519 -2.76496 3.24734 0
M  V30 275 S 28.1849 -2.3405 4.81644 0
M  V30 276 C 29.3409 -3.73452 5.02279 0
M  V30 277 H 29.5739 -1.09539 2.76385 0
M  V30 278 H 27.1069 -0.45678 1.47489 0
M  V30 279 H 29.0649 -3.50932 2.12972 0
M  V30 280 H 27.7259 -2.93803 1.11078 0
M  V30 281 H 26.9189 -3.77424 3.34016 0
M  V30 282 H 26.5209 -2.05379 3.12563 0
M  V30 283 H 28.8129 -4.6887 4.89047 0
M  V30 284 H 29.7559 -3.6911 6.04287 0
M  V30 285 H 30.1639 -3.6553 4.30172 0
M  V30 286 N 29.562 -1.4872 -0.521534 0
M  V30 287 C 30.811 -1.56419 -1.27341 0
M  V30 288 C 31.124 -0.246805 -1.94037 0
M  V30 289 O 32.33 -0.202122 -2.70747 0
M  V30 290 C 30.786 -2.75896 -2.31105 0
M  V30 291 C 30.394 -4.14311 -1.70441 0
M  V30 292 C 32.138 -2.92913 -3.07249 0
M  V30 293 C 30.045 -5.25038 -2.72194 0
M  V30 294 H 28.975 -0.582344 -0.478949 0
M  V30 295 H 31.626 -1.75071 -0.549779 0
M  V30 296 H 30.008 -2.50697 -3.06541 0
M  V30 297 H 31.182 -4.49564 -1.01136 0
M  V30 298 H 29.497 -4.02482 -1.06759 0
M  V30 299 H 32.094 -3.72805 -3.83302 0
M  V30 300 H 32.437 -2.02689 -3.63625 0
M  V30 301 H 32.97 -3.18054 -2.38928 0
M  V30 302 H 29.709 -6.17255 -2.20627 0
M  V30 303 H 29.229 -4.94263 -3.39801 0
M  V30 304 H 30.908 -5.53508 -3.35019 0
M  V30 305 N 31.0401 0.771051 -1.3745 0
M  V30 306 C 32.4511 1.34737 -1.29239 0
M  V30 307 C 32.8021 1.96109 0.0596908 0
M  V30 308 O 31.9271 1.93865 0.961534 0
M  V30 309 C 32.5221 2.44973 -2.34037 0
M  V30 310 C 31.0811 2.98372 -2.29458 0
M  V30 311 C 30.2281 1.71595 -2.17831 0
M  V30 312 H 33.1791 0.571256 -1.48062 0
M  V30 313 H 33.2001 3.24471 -1.98744 0
M  V30 314 H 32.7121 2.00276 -3.32432 0
M  V30 315 H 30.8131 3.47443 -1.34589 0
M  V30 316 H 30.9261 3.53939 -3.229 0
M  V30 317 H 29.2901 1.94547 -1.64388 0
M  V30 318 H 30.0731 1.29001 -3.18141 0
M  V30 319 N 32.5182 1.22032 0.997298 0
M  V30 320 C 33.7432 1.06921 1.77715 0
M  V30 321 C 34.1682 -0.376226 1.84299 0
M  V30 322 O 33.5262 -1.27165 1.29223 0
M  V30 323 C 33.5742 1.67996 3.19076 0
M  V30 324 O 32.6782 0.930653 4.01762 0
M  V30 325 H 32.0192 0.375814 0.547412 0
M  V30 326 H 34.5492 1.61737 1.25309 0
M  V30 327 H 34.5592 1.72538 3.69723 0
M  V30 328 H 33.2342 2.73182 3.13599 0
M  V30 329 H 31.8112 0.960917 3.60307 0
M  V30 330 N 33.9963 -1.19345 1.0293 0
M  V30 331 C 34.9433 -2.2258 0.610464 0
M  V30 332 C 35.9133 -1.6179 -0.375946 0
M  V30 333 O 37.0983 -1.88844 -0.272511 0
M  V30 334 C 34.2383 -3.45085 -0.0321473 0
M  V30 335 C 33.3513 -4.20258 1.00035 0
M  V30 336 C 32.4863 -5.3019 0.32746 0
M  V30 337 C 31.5253 -5.97121 1.34584 0
M  V30 338 N 30.6623 -6.98615 0.698726 0
M  V30 339 H 35.5023 -2.57764 1.49538 0
M  V30 340 H 33.0393 -1.26644 0.748311 0
M  V30 341 H 34.9973 -4.15061 -0.421966 0
M  V30 342 H 33.6273 -3.10555 -0.88064 0
M  V30 343 H 32.6793 -3.49223 1.50823 0
M  V30 344 H 33.9913 -4.66175 1.77433 0
M  V30 345 H 33.1453 -6.06587 -0.11718 0
M  V30 346 H 31.8843 -4.85345 -0.478713 0
M  V30 347 H 30.8893 -5.19474 1.80074 0
M  V30 348 H 32.1143 -6.4405 2.15352 0
M  V30 349 H 30.0603 -6.55942 -0.0873471 0
M  V30 350 H 29.9773 -7.42724 1.41058 0
M  V30 351 H 31.2453 -7.79004 0.278102 0
M  V30 352 N 35.4744 -0.807222 -1.35358 0
M  V30 353 C 36.4214 -0.216037 -2.29787 0
M  V30 354 C 37.3914 0.650278 -1.52842 0
M  V30 355 O 38.5764 0.595227 -1.81278 0
M  V30 356 C 35.7164 0.628893 -3.39321 0
M  V30 357 C 34.8294 -0.257927 -4.31229 0
M  V30 358 C 33.9644 0.595069 -5.27856 0
M  V30 359 C 33.0034 -0.292111 -6.11403 0
M  V30 360 N 32.1404 0.520895 -7.00165 0
M  V30 361 H 36.9804 -1.02671 -2.79755 0
M  V30 362 H 34.5174 -0.517839 -1.37684 0
M  V30 363 H 36.4754 1.13393 -4.01494 0
M  V30 364 H 35.1054 1.40482 -2.90628 0
M  V30 365 H 34.1574 -0.881076 -3.70056 0
M  V30 366 H 35.4694 -0.940759 -4.89848 0
M  V30 367 H 34.6234 1.16522 -5.95405 0
M  V30 368 H 33.3624 1.31146 -4.69736 0
M  V30 369 H 32.3674 -0.874525 -5.428 0
M  V30 370 H 33.5924 -1.00638 -6.71602 0
M  V30 371 H 31.5384 1.22125 -6.44532 0
M  V30 372 H 31.4554 -0.103877 -7.55929 0
M  V30 373 H 32.7234 1.0743 -7.72062 0
M  V30 374 N 36.9525 1.47285 -0.560781 0
M  V30 375 C 37.9005 2.31756 0.197942 0
M  V30 376 C 38.8945 1.43146 0.905854 0
M  V30 377 O 40.1005 1.59891 0.826733 0
M  V30 378 H 36.4755 0.747438 0.0827049 0
M  V30 379 H 38.4465 2.9359 -0.533629 0
M  V30 380 C 37.1955 3.25874 1.21249 0
M  V30 381 H 36.5185 3.94023 0.67719 0
M  V30 382 H 37.9585 3.87803 1.71419 0
M  V30 383 C 36.4175 2.49651 2.26221 0
M  V30 384 O 36.9475 2.24355 3.33208 0
M  V30 385 N 35.1535 2.10597 2.00243 0
M  V30 386 H 34.7005 2.31369 1.13252 0
M  V30 387 H 34.6585 1.59913 2.70694 0
M  V30 388 N 38.4306 0.297415 1.54768 0
M  V30 389 C 39.3936 -0.567375 2.22066 0
M  V30 390 C 40.3936 -1.06409 1.20556 0
M  V30 391 O 41.5836 -0.960691 1.45315 0
M  V30 392 C 38.7156 -1.78517 2.90421 0
M  V30 393 H 39.9086 0.0205534 2.99893 0
M  V30 394 H 37.4616 0.0482163 1.56226 0
M  V30 395 H 38.1966 -2.41303 2.16664 0
M  V30 396 H 37.9816 -1.43669 3.64831 0
M  V30 397 H 39.4716 -2.39964 3.41771 0
M  V30 398 N 39.9087 -1.5758 0.0250728 0
M  V30 399 C 41.1547 -1.91917 -0.655413 0
M  V30 400 C 41.4877 -0.901433 -1.72011 0
M  V30 401 O 40.7627 0.0764069 -1.9435 0
M  V30 402 C 41.0457 -3.36751 -1.27558 0
M  V30 403 C 40.8987 -4.49258 -0.220719 0
M  V30 404 C 42.2177 -3.81469 -2.19475 0
M  V30 405 H 39.3367 -0.697925 -0.23679 0
M  V30 406 H 41.9787 -1.89825 0.0815036 0
M  V30 407 H 40.1287 -3.38664 -1.90365 0
M  V30 408 H 41.8007 -4.59478 0.409601 0
M  V30 409 H 40.0437 -4.31415 0.454264 0
M  V30 410 H 40.7147 -5.47618 -0.694175 0
M  V30 411 H 43.1907 -3.81266 -1.66659 0
M  V30 412 H 42.0667 -4.83512 -2.59822 0
M  V30 413 H 42.3277 -3.16744 -3.08424 0
M  V30 414 N 41.3868 0.248026 -1.55636 0
M  V30 415 C 42.3168 1.31079 -1.93237 0
M  V30 416 C 43.2978 1.50264 -0.797174 0
M  V30 417 O 44.4828 1.62891 -1.05737 0
M  V30 418 C 41.6128 2.66575 -2.22609 0
M  V30 419 C 40.5668 2.62087 -3.3837 0
M  V30 420 C 39.8928 4.01369 -3.53281 0
M  V30 421 C 41.1928 2.19171 -4.7409 0
M  V30 422 H 42.8868 0.998556 -2.82257 0
M  V30 423 H 40.4328 0.47891 -1.35803 0
M  V30 424 H 42.3858 3.41057 -2.47503 0
M  V30 425 H 41.1098 2.99432 -1.30414 0
M  V30 426 H 39.7688 1.90063 -3.13483 0
M  V30 427 H 39.4168 4.31489 -2.58508 0
M  V30 428 H 39.1168 3.99254 -4.31127 0
M  V30 429 H 40.6408 4.77552 -3.80495 0
M  V30 430 H 42.0548 2.83384 -4.98363 0
M  V30 431 H 40.4518 2.2817 -5.5503 0
M  V30 432 H 41.5218 1.14336 -4.71227 0
M  V30 433 N 42.8649 1.48995 0.513639 0
M  V30 434 C 44.1109 1.58076 1.27042 0
M  V30 435 C 44.4439 0.261026 1.92438 0
M  V30 436 O 43.7189 -0.734393 1.80103 0
M  V30 437 C 44.0019 2.73091 2.34719 0
M  V30 438 C 43.8549 4.14821 1.73907 0
M  V30 439 C 45.1739 2.83796 3.36375 0
M  V30 440 H 42.2929 0.575391 0.460536 0
M  V30 441 H 44.9349 1.81232 0.570516 0
M  V30 442 H 43.0849 2.53479 2.94416 0
M  V30 443 H 44.7569 4.45917 1.18135 0
M  V30 444 H 42.9999 4.21058 1.0437 0
M  V30 445 H 43.6709 4.91147 2.51949 0
M  V30 446 H 46.1469 3.01611 2.86653 0
M  V30 447 H 45.0229 3.65971 4.09093 0
M  V30 448 H 45.2839 1.92624 3.9793 0
M  V30 449 N 44.343 -0.763751 1.37857 0
M  V30 450 C 45.62 -1.51244 1.24035 0
M  V30 451 C 46 -2.10472 -0.162649 0
M  V30 452 O 45.348 -1.96206 -1.17112 0
M  V30 453 C 45.558 -2.58694 2.34261 0
M  V30 454 C 46.906 -3.25878 2.72193 0
M  V30 455 O 47.93 -2.68993 2.33497 0
M  V30 456 O 46.789 -4.2874 3.38887 0
M  V30 457 H 43.883 -0.670243 0.484462 0
M  V30 458 H 46.429 -0.800031 1.49658 0
M  V30 459 H 45.201 -2.13105 3.2818 0
M  V30 460 H 44.824 -3.37527 2.10146 0
M  V30 461 N 45.8211 -1.22559 -0.990812 0
M  V30 462 C 47.0691 -1.04933 -1.72724 0
M  V30 463 C 47.3901 0.416158 -1.90508 0
M  V30 464 O 46.6601 1.29918 -1.46622 0
M  V30 465 H 45.2401 -0.385296 -0.639965 0
M  V30 466 H 47.9021 -1.54105 -1.19322 0
M  V30 467 H 46.9981 -1.52886 -2.72089 0
M  V30 468 N 47.2992 1.18797 -1.03562 0
M  V30 469 C 48.5452 1.8893 -0.737113 0
M  V30 470 C 48.8782 1.79837 0.732956 0
M  V30 471 O 48.1532 1.19525 1.5344 0
M  V30 472 C 48.4362 3.39607 -1.19745 0
M  V30 473 C 48.2892 3.57537 -2.72924 0
M  V30 474 C 49.6082 4.33069 -0.783526 0
M  V30 475 H 46.7272 0.686057 -0.269249 0
M  V30 476 H 49.3692 1.39797 -1.28673 0
M  V30 477 H 47.5192 3.81583 -0.729855 0
M  V30 478 H 49.1912 3.24688 -3.27682 0
M  V30 479 H 47.4342 3.00363 -3.12993 0
M  V30 480 H 48.1052 4.63238 -3.00191 0
M  V30 481 H 50.5812 3.98846 -1.18581 0
M  V30 482 H 49.4572 5.3707 -1.13343 0
M  V30 483 H 49.7182 4.40986 0.313681 0
M  V30 484 N 48.7773 0.814389 1.34928 0
M  V30 485 C 50.0233 0.399013 1.98836 0
M  V30 486 C 50.3563 -1.03314 1.64438 0
M  V30 487 O 49.6313 -1.71811 0.911659 0
M  V30 488 C 49.9143 0.591629 3.55207 0
M  V30 489 C 49.7673 2.06928 3.99376 0
M  V30 490 C 51.0863 0.022199 4.40094 0
M  V30 491 H 48.2053 0.146451 0.722303 0
M  V30 492 H 50.8473 1.02537 1.59957 0
M  V30 493 H 48.9973 0.0584441 3.88456 0
M  V30 494 H 50.6693 2.66544 3.76499 0
M  V30 495 H 48.9123 2.56287 3.49999 0
M  V30 496 H 49.5833 2.1549 5.08201 0
M  V30 497 H 52.0593 0.477643 4.13349 0
M  V30 498 H 50.9353 0.186832 5.48582 0
M  V30 499 H 51.1963 -1.07215 4.28902 0
M  V30 500 N 50.2554 -1.46986 0.568584 0
M  V30 501 C 51.1854 -2.32946 -0.160753 0
M  V30 502 C 52.1664 -1.44487 -0.897631 0
M  V30 503 O 53.3514 -1.73327 -0.875867 0
M  V30 504 C 50.4814 -3.26494 -1.18403 0
M  V30 505 C 49.4354 -4.24282 -0.562895 0
M  V30 506 C 48.7614 -5.07236 -1.69163 0
M  V30 507 C 50.0614 -5.19989 0.490761 0
M  V30 508 H 51.7554 -2.94175 0.556916 0
M  V30 509 H 49.3014 -1.4146 0.26927 0
M  V30 510 H 51.2544 -3.85477 -1.70251 0
M  V30 511 H 49.9784 -2.63343 -1.93179 0
M  V30 512 H 48.6374 -3.66541 -0.0656164 0
M  V30 513 H 48.2854 -4.4048 -2.42871 0
M  V30 514 H 47.9854 -5.7345 -1.28174 0
M  V30 515 H 49.5094 -5.6908 -2.21314 0
M  V30 516 H 50.9234 -5.73271 0.0579047 0
M  V30 517 H 49.3204 -5.94469 0.820165 0
M  V30 518 H 50.3904 -4.64777 1.3824 0
M  V30 519 N 51.7335 -0.305618 -1.54608 0
M  V30 520 C 52.6815 0.584119 -2.25146 0
M  V30 521 C 53.6755 1.13326 -1.25911 0
M  V30 522 O 54.8815 1.08337 -1.43747 0
M  V30 523 H 51.2565 0.206983 -0.722954 0
M  V30 524 H 53.2275 -0.033291 -2.98381 0
M  V30 525 C 51.9765 1.74225 -3.009 0
M  V30 526 H 51.2995 1.32892 -3.77067 0
M  V30 527 H 52.7395 2.34077 -3.53531 0
M  V30 528 C 51.1985 2.64914 -2.0814 0
M  V30 529 O 51.7285 3.66137 -1.65246 0
M  V30 530 N 49.9345 2.3275 -1.74 0
M  V30 531 H 49.4815 1.50479 -2.09078 0
M  V30 532 H 49.4395 2.93694 -1.12211 0
M  V30 533 N 53.2116 1.57565 -0.0334293 0
M  V30 534 C 54.4596 1.91598 0.642999 0
M  V30 535 C 54.7806 0.910847 1.7242 0
M  V30 536 O 54.0506 -0.0469931 1.95844 0
M  V30 537 H 52.6306 0.707228 0.240496 0
M  V30 538 H 55.2926 1.94726 -0.0822488 0
M  V30 539 H 54.3886 2.92336 1.09298 0
M  V30 540 N 54.6897 -0.239769 1.55765 0
M  V30 541 C 56.1007 -0.808263 1.68297 0
M  V30 542 C 56.4517 -1.85736 0.632181 0
M  V30 543 O 55.5767 -2.15277 -0.220204 0
M  V30 544 C 56.1717 -1.47284 3.05111 0
M  V30 545 C 54.7307 -1.98895 3.19559 0
M  V30 546 C 53.8777 -0.842575 2.64189 0
M  V30 547 H 56.8287 -0.0154422 1.58692 0
M  V30 548 H 56.8497 -2.34111 2.99954 0
M  V30 549 H 56.3617 -0.709053 3.81568 0
M  V30 550 H 54.4627 -2.78132 2.47938 0
M  V30 551 H 54.5757 -2.18143 4.26556 0
M  V30 552 H 52.9397 -1.24501 2.22197 0
M  V30 553 H 53.7227 -0.0917552 3.43177 0
M  V30 554 N 56.1678 -1.49265 -0.50573 0
M  V30 555 C 57.3958 -1.62215 -1.28429 0
M  V30 556 C 57.8108 -0.291697 -1.86533 0
M  V30 557 O 57.1678 0.722233 -1.67601 0
M  V30 558 C 57.2188 -2.68735 -2.41793 0
M  V30 559 O 56.9398 -3.96619 -1.86078 0
M  V30 560 C 58.4408 -2.92346 -3.3324 0
M  V30 561 H 55.6608 -0.546239 -0.389697 0
M  V30 562 H 58.2048 -1.95265 -0.607609 0
M  V30 563 H 56.3598 -2.38476 -3.053 0
M  V30 564 H 56.7738 -4.55256 -2.60465 0
M  V30 565 H 58.2478 -3.70623 -4.09075 0
M  V30 566 H 58.7248 -2.02081 -3.89948 0
M  V30 567 H 59.3308 -3.24003 -2.75503 0
M  V30 568 N 57.6459 0.756429 -1.3826 0
M  V30 569 C 58.8739 1.54565 -1.3754 0
M  V30 570 C 59.2889 1.88767 0.0355331 0
M  V30 571 O 58.6459 1.52572 1.0014 0
M  V30 572 C 58.6969 2.84654 -2.22833 0
M  V30 573 O 58.4179 2.51912 -3.5843 0
M  V30 574 C 59.9189 3.78807 -2.30261 0
M  V30 575 H 57.1389 0.478353 -0.470553 0
M  V30 576 H 59.6829 0.936381 -1.81803 0
M  V30 577 H 57.8379 3.41965 -1.8204 0
M  V30 578 H 58.2519 3.35325 -4.03308 0
M  V30 579 H 59.7259 4.67045 -2.94233 0
M  V30 580 H 60.2029 4.19038 -1.31545 0
M  V30 581 H 60.8089 3.2742 -2.71433 0
M  V30 582 N 59.124 1.23083 0.984299 0
M  V30 583 C 60.401 0.9689 1.69917 0
M  V30 584 C 60.781 -0.513604 2.04757 0
M  V30 585 O 60.129 -1.48383 1.73767 0
M  V30 586 C 60.339 1.87518 2.94343 0
M  V30 587 C 61.687 2.13636 3.6694 0
M  V30 588 O 62.711 1.85036 3.04368 0
M  V30 589 O 61.57 2.62119 4.79537 0
M  V30 590 H 58.664 0.365095 0.742048 0
M  V30 591 H 61.21 1.34107 1.03987 0
M  V30 592 H 59.982 2.87756 2.65164 0
M  V30 593 H 59.605 1.50514 3.6801 0
M  V30 594 N 60.6021 -1.18246 1.0419 0
M  V30 595 C 61.5651 -2.20128 0.638452 0
M  V30 596 C 62.5651 -1.57885 -0.304805 0
M  V30 597 O 63.7551 -1.73967 -0.0900369 0
M  V30 598 C 60.8871 -3.4084 -0.0637751 0
M  V30 599 H 62.0801 -2.57336 1.54007 0
M  V30 600 H 59.6331 -1.32152 0.834598 0
M  V30 601 H 60.3681 -3.09166 -0.979136 0
M  V30 602 H 60.1531 -3.8726 0.614198 0
M  V30 603 H 61.6431 -4.16274 -0.332512 0
M  V30 604 N 62.0802 -0.821533 -1.34494 0
M  V30 605 C 63.0272 -0.240397 -2.29545 0
M  V30 606 C 63.9972 0.634031 -1.53523 0
M  V30 607 O 65.1822 0.575966 -1.81899 0
M  V30 608 C 62.3222 0.592869 -3.39969 0
M  V30 609 C 61.4352 -0.30365 -4.30932 0
M  V30 610 C 60.5702 0.539049 -5.28458 0
M  V30 611 C 59.6092 -0.356942 -6.11058 0
M  V30 612 N 58.7462 0.446603 -7.00678 0
M  V30 613 H 63.5862 -1.05632 -2.7865 0
M  V30 614 H 61.1232 -0.532413 -1.37127 0
M  V30 615 H 63.0812 1.09129 -4.02675 0
M  V30 616 H 61.7112 1.37392 -2.92102 0
M  V30 617 H 60.7632 -0.920276 -3.691 0
M  V30 618 H 62.0752 -0.992661 -4.88823 0
M  V30 619 H 61.2292 1.102 -5.96608 0
M  V30 620 H 59.9682 1.26157 -4.71101 0
M  V30 621 H 58.9732 -0.932047 -5.41842 0
M  V30 622 H 60.1982 -1.07755 -6.70497 0
M  V30 623 H 58.1442 1.15282 -6.45791 0
M  V30 624 H 58.0612 -0.184048 -7.55776 0
M  V30 625 H 59.3292 0.992352 -7.73158 0
M  V30 626 N 63.5583 1.46682 -0.576371 0
M  V30 627 C 64.5213 2.28707 0.150239 0
M  V30 628 C 65.5213 1.38035 0.824794 0
M  V30 629 O 66.7113 1.60476 0.677719 0
M  V30 630 C 63.8433 3.18248 1.22192 0
M  V30 631 H 65.0363 2.94423 -0.570521 0
M  V30 632 H 62.5893 1.52688 -0.334078 0
M  V30 633 H 63.3243 2.57265 1.97447 0
M  V30 634 H 63.1093 3.85 0.742812 0
M  V30 635 H 64.5993 3.80001 1.73172 0
M  V30 636 N 65.0364 0.313813 1.54444 0
M  V30 637 C 66.2844 -0.291099 1.99993 0
M  V30 638 C 66.6054 -1.53418 1.20366 0
M  V30 639 O 65.8754 -1.93544 0.302927 0
M  V30 640 H 64.4554 -0.110552 0.738774 0
M  V30 641 H 67.1174 0.428106 1.9014 0
M  V30 642 H 66.2134 -0.554268 3.07139 0
M  V30 643 N 66.5145 -1.57545 0.0417849 0
M  V30 644 C 67.4245 -2.14451 -0.951213 0
M  V30 645 C 68.4405 -1.09992 -1.34825 0
M  V30 646 O 69.6165 -1.42114 -1.42708 0
M  V30 647 C 66.6815 -2.67063 -2.21084 0
M  V30 648 C 65.7425 -3.86284 -1.87304 0
M  V30 649 C 64.9755 -4.36378 -3.07261 0
M  V30 650 O 65.1985 -3.85587 -4.20332 0
M  V30 651 O 64.1325 -5.28077 -2.88822 0
M  V30 652 H 67.9585 -2.99601 -0.497287 0
M  V30 653 H 65.5435 -1.48317 -0.179567 0
M  V30 654 H 67.4255 -3.00914 -2.95006 0
M  V30 655 H 66.1005 -1.84989 -2.65633 0
M  V30 656 H 65.0075 -3.57338 -1.10727 0
M  V30 657 H 66.3405 -4.6956 -1.47562 0
M  V30 658 N 67.9926 0.231505 -1.5589 0
M  V30 659 C 68.9396 1.28682 -1.91598 0
M  V30 660 C 69.9096 1.47071 -0.771974 0
M  V30 661 O 71.0946 1.60802 -1.027 0
M  V30 662 C 68.2346 2.6342 -2.22944 0
M  V30 663 C 67.3476 2.52912 -3.50228 0
M  V30 664 C 66.4826 3.80106 -3.7107 0
M  V30 665 C 65.5216 3.64279 -4.91902 0
M  V30 666 N 64.6586 4.834 -5.09184 0
M  V30 667 H 69.4986 0.975305 -2.81588 0
M  V30 668 H 67.0356 0.470299 -1.39379 0
M  V30 669 H 68.9936 3.41869 -2.39126 0
M  V30 670 H 67.6236 2.92687 -1.36139 0
M  V30 671 H 66.6756 1.6595 -3.42294 0
M  V30 672 H 67.9876 2.37133 -4.38827 0
M  V30 673 H 67.1416 4.66999 -3.87295 0
M  V30 674 H 65.8806 3.98799 -2.80733 0
M  V30 675 H 64.8856 2.7577 -4.75637 0
M  V30 676 H 66.1106 3.47067 -5.83714 0
M  V30 677 H 64.0566 5.02425 -4.21788 0
M  V30 678 H 63.9736 4.70311 -5.91898 0
M  V30 679 H 65.2416 5.71747 -5.29835 0
M  V30 680 N 69.4707 1.49531 0.497807 0
M  V30 681 C 70.7177 1.59179 1.25173 0
M  V30 682 C 71.0457 0.279932 1.92475 0
M  V30 683 O 70.3007 -0.732383 1.81479 0
M  V30 684 C 70.5997 2.70252 2.33878 0
M  V30 685 C 70.2657 4.11644 1.84012 0
M  V30 686 C 68.9277 4.50121 1.70132 0
M  V30 687 C 71.2797 5.00121 1.46725 0
M  V30 688 C 68.6077 5.74845 1.17348 0
M  V30 689 C 70.9597 6.25366 0.95392 0
M  V30 690 C 69.6237 6.6267 0.801538 0
M  V30 691 H 68.8937 0.582478 0.45804 0
M  V30 692 H 71.5407 1.83373 0.551948 0
M  V30 693 H 69.8457 2.40041 3.09657 0
M  V30 694 H 71.5427 2.74925 2.9192 0
M  V30 695 H 68.1327 3.81274 1.95775 0
M  V30 696 H 72.3167 4.71048 1.56294 0
M  V30 697 H 67.5727 6.02444 1.04264 0
M  V30 698 H 71.7467 6.93301 0.656225 0
M  V30 699 H 69.3737 7.59197 0.390351 0
M  V30 700 N 70.9488 -0.749086 1.3866 0
M  V30 701 C 72.1948 -1.51056 1.35314 0
M  V30 702 C 72.5278 -1.94121 -0.0553751 0
M  V30 703 O 71.8028 -1.65763 -1.01749 0
M  V30 704 C 72.0858 -2.76003 2.31288 0
M  V30 705 C 71.9388 -2.39047 3.8102 0
M  V30 706 C 73.2578 -3.78046 2.2532 0
M  V30 707 H 70.3768 -0.547972 0.492844 0
M  V30 708 H 73.0188 -0.857628 1.69543 0
M  V30 709 H 71.1688 -3.31716 2.02229 0
M  V30 710 H 72.8408 -1.89074 4.20771 0
M  V30 711 H 71.0838 -1.71449 3.98482 0
M  V30 712 H 71.7548 -3.28462 4.4364 0
M  V30 713 H 74.2308 -3.31884 2.50983 0
M  V30 714 H 73.1068 -4.63159 2.94576 0
M  V30 715 H 73.3678 -4.23957 1.25352 0
M  V30 716 N 72.4269 -1.23603 -0.977757 0
M  V30 717 C 73.3369 -1.03632 -2.1047 0
M  V30 718 C 74.3529 0.0199435 -1.73989 0
M  V30 719 O 75.5289 -0.176076 -2.00629 0
M  V30 720 C 72.5939 -0.63276 -3.40877 0
M  V30 721 C 71.6549 -1.76437 -3.91367 0
M  V30 722 C 70.8879 -1.37997 -5.15551 0
M  V30 723 O 71.1109 -0.265357 -5.69782 0
M  V30 724 O 70.0449 -2.20201 -5.60174 0
M  V30 725 H 73.8709 -1.98086 -2.30208 0
M  V30 726 H 71.4559 -1.02332 -1.08851 0
M  V30 727 H 73.3379 -0.418761 -4.19314 0
M  V30 728 H 72.0129 0.282754 -3.22463 0
M  V30 729 H 70.9199 -2.03304 -3.14036 0
M  V30 730 H 72.2529 -2.6583 -4.14241 0
M  V30 731 N 73.905 1.17692 -1.04816 0
M  V30 732 C 74.815 2.25229 -0.65643 0
M  V30 733 C 75.831 1.71018 0.320761 0
M  V30 734 O 77.007 2.00649 0.173805 0
M  V30 735 C 74.072 3.46684 -0.0332629 0
M  V30 736 C 73.133 4.15997 -1.06042 0
M  V30 737 C 72.366 5.31654 -0.466893 0
M  V30 738 O 72.589 5.65777 0.724758 0
M  V30 739 O 71.523 5.89831 -1.1993 0
M  V30 740 H 75.349 2.61016 -1.55255 0
M  V30 741 H 72.934 1.24919 -0.81949 0
M  V30 742 H 74.816 4.20234 0.313256 0
M  V30 743 H 73.491 3.12703 0.836566 0
M  V30 744 H 72.398 3.44482 -1.45886 0
M  V30 745 H 73.731 4.53996 -1.90127 0
M  V30 746 N 75.3831 0.828654 1.34056 0
M  V30 747 C 76.3461 0.259927 2.27721 0
M  V30 748 C 77.3461 -0.565478 1.50529 0
M  V30 749 O 78.5361 -0.38075 1.69988 0
M  V30 750 C 75.6681 -0.634944 3.34935 0
M  V30 751 H 76.8611 1.0863 2.79534 0
M  V30 752 H 74.4141 0.600951 1.44285 0
M  V30 753 H 75.1491 -1.48416 2.88346 0
M  V30 754 H 74.9341 -0.0444999 3.92075 0
M  V30 755 H 76.4241 -1.02648 4.04788 0
M  V30 756 N 76.8612 -1.46375 0.584142 0
M  V30 757 C 78.1012 -2.0427 0.0729695 0
M  V30 758 C 78.4652 -1.44563 -1.26355 0
M  V30 759 O 79.6662 -1.93667 -1.86405 0
M  V30 760 C 77.9372 -3.57399 0.00967464 0
M  V30 761 S 79.4962 -4.36551 -0.443714 0
M  V30 762 H 76.3142 -0.709975 0.0381673 0
M  V30 763 H 78.9162 -1.79398 0.776962 0
M  V30 764 H 77.6202 -3.98372 0.986319 0
M  V30 765 H 77.1512 -3.8681 -0.717044 0
M  V30 766 H 79.1662 -4.66237 -1.69816 0
M  V30 767 N 78.3393 -0.321999 -1.54275 0
M  V30 768 C 79.7553 0.0306999 -1.5957 0
M  V30 769 C 79.9553 1.50614 -1.33857 0
M  V30 770 O 79.0113 2.2619 -1.12223 0
M  V30 771 C 80.3243 -0.386122 -2.98211 0
M  V30 772 C 81.8723 -0.336647 -3.11184 0
M  V30 773 C 82.3473 -0.728607 -4.52167 0
M  V30 774 N 83.8383 -0.681952 -4.58152 0
M  V30 775 C 84.5733 -0.957449 -5.6535 0
M  V30 776 N 84.0693 -1.3 -6.80494 0
M  V30 777 N 85.8623 -0.883113 -5.55119 0
M  V30 778 H 78.0133 -1.28332 -1.69247 0
M  V30 779 H 80.2763 -0.521716 -0.791528 0
M  V30 780 H 79.9823 -1.41404 -3.22022 0
M  V30 781 H 79.8563 0.249662 -3.76373 0
M  V30 782 H 82.2433 0.682058 -2.8711 0
M  V30 783 H 82.3243 -1.00734 -2.3513 0
M  V30 784 H 81.9683 -1.74522 -4.76974 0
M  V30 785 H 81.8983 -0.0356152 -5.26588 0
M  V30 786 H 84.3893 -0.428985 -3.75457 0
M  V30 787 H 84.7023 -1.49563 -7.58189 0
M  V30 788 H 83.0473 -1.33824 -6.81994 0
M  V30 789 H 86.2383 -0.615001 -4.64042 0
M  V30 790 H 86.4113 -1.10118 -6.38575 0
M  V30 791 N 79.8174 1.5752 -0.0501392 0
M  V30 792 C 80.7474 2.14502 0.922566 0
M  V30 793 C 81.7284 1.06642 1.3252 0
M  V30 794 O 82.9134 1.34577 1.4001 0
M  V30 795 C 80.0434 2.68916 2.19776 0
M  V30 796 C 78.9974 3.8175 1.93523 0
M  V30 797 C 78.3234 4.22677 3.27487 0
M  V30 798 C 79.6234 5.06932 1.25765 0
M  V30 799 H 81.3174 2.9603 0.447952 0
M  V30 800 H 78.8634 1.42401 0.214024 0
M  V30 801 H 80.8164 3.07419 2.88222 0
M  V30 802 H 79.5404 1.84578 2.69441 0
M  V30 803 H 78.1994 3.43718 1.27489 0
M  V30 804 H 77.8474 3.35291 3.74952 0
M  V30 805 H 77.5474 4.98725 3.1072 0
M  V30 806 H 79.0714 4.63779 3.97166 0
M  V30 807 H 80.4854 5.42888 1.84244 0
M  V30 808 H 78.8824 5.88116 1.19328 0
M  V30 809 H 79.9524 4.84337 0.233536 0
M  V30 810 N 81.2955 -0.223234 1.56011 0
M  V30 811 C 82.5445 -0.945912 1.78144 0
M  V30 812 C 82.8575 -1.85567 0.618396 0
M  V30 813 O 84.0635 -2.61688 0.723318 0
M  V30 814 C 82.5195 -1.73216 3.15475 0
M  V30 815 C 82.1275 -0.868619 4.39499 0
M  V30 816 C 83.8715 -2.44615 3.46935 0
M  V30 817 C 81.7785 -1.65212 5.67855 0
M  V30 818 H 80.7085 -0.356929 0.664167 0
M  V30 819 H 83.3595 -0.199845 1.82409 0
M  V30 820 H 81.7415 -2.52107 3.05382 0
M  V30 821 H 82.9155 -0.120366 4.60643 0
M  V30 822 H 81.2305 -0.26683 4.15544 0
M  V30 823 H 83.8275 -3.03732 4.40058 0
M  V30 824 H 84.1705 -3.17417 2.69355 0
M  V30 825 H 84.7035 -1.72715 3.58349 0
M  V30 826 H 81.4425 -0.967407 6.48322 0
M  V30 827 H 80.9625 -2.37503 5.50774 0
M  V30 828 H 82.6415 -2.21322 6.07968 0
M  V30 829 N 82.7736 -1.49793 -0.48987 0
M  V30 830 C 83.7066 -1.61898 -1.60823 0
M  V30 831 C 84.6846 -0.467651 -1.5573 0
M  V30 832 O 85.8686 -0.684682 -1.75626 0
M  V30 833 C 82.9956 -1.58422 -2.99366 0
M  V30 834 C 82.0416 -2.78889 -3.22682 0
M  V30 835 S 82.8746 -4.40429 -3.04602 0
M  V30 836 C 84.0306 -4.39617 -4.4552 0
M  V30 837 H 84.2636 -2.56502 -1.50312 0
M  V30 838 H 81.7966 -1.38822 -0.675849 0
M  V30 839 H 83.7546 -1.57103 -3.79248 0
M  V30 840 H 82.4156 -0.650866 -3.07283 0
M  V30 841 H 81.6086 -2.72708 -4.23847 0
M  V30 842 H 81.2106 -2.77678 -2.50541 0
M  V30 843 H 83.5026 -4.12022 -5.37814 0
M  V30 844 H 84.4456 -5.41097 -4.56749 0
M  V30 845 H 84.8536 -3.69554 -4.2672 0
M  V30 846 N 84.2517 0.741722 -1.39055 0
M  V30 847 C 85.1617 1.88621 -1.39496 0
M  V30 848 C 86.1777 1.71557 -0.290578 0
M  V30 849 O 87.3537 1.94275 -0.530954 0
M  V30 850 C 84.4187 3.24134 -1.23037 0
M  V30 851 C 83.4797 3.5364 -2.43387 0
M  V30 852 C 82.7127 4.82687 -2.27703 0
M  V30 853 O 82.9357 5.55922 -1.27696 0
M  V30 854 O 81.8697 5.1194 -3.16545 0
M  V30 855 H 85.6957 1.91203 -2.35956 0
M  V30 856 H 83.2807 0.888625 -1.20099 0
M  V30 857 H 85.1627 4.0513 -1.15964 0
M  V30 858 H 83.8377 3.22337 -0.296691 0
M  V30 859 H 82.7447 2.72758 -2.56035 0
M  V30 860 H 84.0777 3.60209 -3.35425 0
M  V30 861 N 85.7298 1.2412 0.971189 0
M  V30 862 C 86.6398 1.04747 2.09917 0
M  V30 863 C 87.6558 -0.0107162 1.73997 0
M  V30 864 O 88.8318 0.186714 2.00533 0
M  V30 865 C 85.8968 0.650828 3.40537 0
M  V30 866 C 84.9578 1.7851 3.90426 0
M  V30 867 C 84.1908 1.40729 5.14812 0
M  V30 868 O 84.4138 0.29557 5.69634 0
M  V30 869 O 83.3478 2.23168 5.58999 0
M  V30 870 H 87.1738 1.99304 2.29154 0
M  V30 871 H 84.7588 1.02908 1.08307 0
M  V30 872 H 86.6408 0.440992 4.19086 0
M  V30 873 H 85.3158 -0.265649 3.22608 0
M  V30 874 H 84.2228 2.04966 3.12953 0
M  V30 875 H 85.5558 2.68023 4.12825 0
M  V30 876 N 87.2079 -1.17134 1.05439 0
M  V30 877 C 88.4539 -1.87733 0.767077 0
M  V30 878 C 88.7869 -1.8098 -0.704253 0
M  V30 879 O 88.0619 -1.21951 -1.5152 0
M  V30 880 C 88.3449 -3.37659 1.25133 0
M  V30 881 C 88.1979 -3.53149 2.78578 0
M  V30 882 C 89.5169 -4.31768 0.852324 0
M  V30 883 H 86.6359 -0.681687 0.280129 0
M  V30 884 H 89.2779 -1.37732 1.30881 0
M  V30 885 H 87.4279 -3.80373 0.790469 0
M  V30 886 H 89.0999 -3.19434 3.32806 0
M  V30 887 H 87.3429 -2.95345 3.17732 0
M  V30 888 H 88.0139 -4.58403 3.07523 0
M  V30 889 H 90.4899 -3.96909 1.24911 0
M  V30 890 H 89.3659 -5.35199 1.21873 0
M  V30 891 H 89.6269 -4.41429 -0.243485 0
M  V30 892 N 88.686 -0.835752 -1.33615 0
M  V30 893 C 89.932 -0.430596 -1.98176 0
M  V30 894 C 90.265 1.00684 -1.66061 0
M  V30 895 O 89.54 1.70339 -0.938877 0
M  V30 896 C 89.823 -0.648065 -3.5422 0
M  V30 897 C 89.676 -2.13255 -3.96033 0
M  V30 898 C 90.995 -0.0922113 -4.40003 0
M  V30 899 H 88.114 -0.157924 -0.719881 0
M  V30 900 H 90.756 -1.05069 -1.58305 0
M  V30 901 H 88.906 -0.120237 -3.88314 0
M  V30 902 H 90.578 -2.725 -3.72211 0
M  V30 903 H 88.821 -2.61823 -3.45878 0
M  V30 904 H 89.492 -2.23547 -5.04708 0
M  V30 905 H 91.968 -0.543343 -4.12537 0
M  V30 906 H 90.844 -0.274083 -5.48215 0
M  V30 907 H 91.105 1.00378 -4.30554 0
M  V30 908 N 90.1641 1.46063 -0.591896 0
M  V30 909 C 91.0941 2.33172 0.123673 0
M  V30 910 C 92.0751 1.45897 0.87453 0
M  V30 911 O 93.2601 1.74698 0.848181 0
M  V30 912 C 90.3901 3.28336 1.13194 0
M  V30 913 C 89.3441 4.25124 0.495324 0
M  V30 914 C 88.6701 5.09863 1.61071 0
M  V30 915 C 89.9701 5.19143 -0.573425 0
M  V30 916 H 91.6641 2.93252 -0.603646 0
M  V30 917 H 89.2101 1.41014 -0.291741 0
M  V30 918 H 91.1631 3.88137 1.64097 0
M  V30 919 H 89.8871 2.66383 1.88965 0
M  V30 920 H 88.5461 3.66599 0.00729452 0
M  V30 921 H 88.1941 4.44288 2.35832 0
M  V30 922 H 87.8941 5.75417 1.19035 0
M  V30 923 H 89.4181 5.72529 2.12233 0
M  V30 924 H 90.8321 5.73106 -0.1491 0
M  V30 925 H 89.2291 5.93089 -0.914636 0
M  V30 926 H 90.2991 4.62519 -1.45617 0
M  V30 927 N 91.6422 0.330177 1.54103 0
M  V30 928 C 92.5892 -0.532762 2.24567 0
M  V30 929 C 93.5592 -1.10635 1.23892 0
M  V30 930 O 94.7442 -1.14546 1.5259 0
M  V30 931 C 91.8842 -1.6845 3.01195 0
M  V30 932 C 90.9972 -1.13951 4.167 0
M  V30 933 C 90.1322 -2.25746 4.80845 0
M  V30 934 C 89.1712 -1.6853 5.88442 0
M  V30 935 N 88.3082 -2.74014 6.46421 0
M  V30 936 H 93.1482 0.0746905 2.97906 0
M  V30 937 H 90.6852 0.048632 1.4702 0
M  V30 938 H 92.6432 -2.36234 3.43874 0
M  V30 939 H 91.2732 -2.26314 2.30178 0
M  V30 940 H 90.3252 -0.35301 3.78758 0
M  V30 941 H 91.6372 -0.680892 4.94131 0
M  V30 942 H 90.7912 -3.01422 5.26526 0
M  V30 943 H 89.5302 -2.74947 4.0281 0
M  V30 944 H 88.5352 -0.913543 5.42157 0
M  V30 945 H 89.7602 -1.20198 6.68378 0
M  V30 946 H 87.7062 -3.22494 5.71256 0
M  V30 947 H 87.6232 -2.32735 7.19285 0
M  V30 948 H 88.8912 -3.49499 6.96757 0
M  V30 949 N 93.1203 -1.57491 0.0584922 0
M  V30 950 C 94.0833 -2.1085 -0.898617 0
M  V30 951 C 95.0833 -1.02964 -1.23511 0
M  V30 952 O 96.2733 -1.29007 -1.17059 0
M  V30 953 C 93.4053 -2.59881 -2.20623 0
M  V30 954 H 94.5983 -2.96715 -0.435936 0
M  V30 955 H 92.1513 -1.55141 -0.190023 0
M  V30 956 H 92.8863 -1.77431 -2.71457 0
M  V30 957 H 92.6713 -3.38727 -1.97501 0
M  V30 958 H 94.1613 -3.01285 -2.89166 0
M  V30 959 N 94.5984 0.214957 -1.56127 0
M  V30 960 C 95.8264 0.955092 -1.83536 0
M  V30 961 C 96.2414 1.77677 -0.638472 0
M  V30 962 O 95.5984 1.78219 0.392968 0
M  V30 963 C 95.6494 1.86734 -3.09536 0
M  V30 964 O 95.3704 1.07887 -4.24608 0
M  V30 965 C 96.8714 2.72082 -3.4998 0
M  V30 966 H 94.0914 0.279611 -0.609966 0
M  V30 967 H 96.6354 0.228197 -2.03223 0
M  V30 968 H 94.7904 2.5481 -2.91806 0
M  V30 969 H 95.2044 1.69872 -4.9623 0
M  V30 970 H 96.6784 3.31782 -4.41163 0
M  V30 971 H 97.1554 3.44806 -2.7204 0
M  V30 972 H 97.7614 2.09409 -3.70173 0
M  V30 973 N 96.0765 1.50051 0.48192 0
M  V30 974 C 97.3535 1.51009 1.2432 0
M  V30 975 C 97.7335 0.248587 2.09631 0
M  V30 976 O 97.0815 -0.768409 2.15192 0
M  V30 977 C 97.2915 2.79981 2.08355 0
M  V30 978 C 98.6395 3.3022 2.66908 0
M  V30 979 O 99.6635 2.81228 2.18607 0
M  V30 980 O 98.5225 4.15595 3.54884 0
M  V30 981 H 95.6165 0.605239 0.563573 0
M  V30 982 H 98.1625 1.62332 0.494627 0
M  V30 983 H 96.9345 3.63275 1.45419 0
M  V30 984 H 96.5575 2.7161 2.90368 0
M  V30 985 N 97.5546 -0.734337 1.39446 0
M  V30 986 C 98.8006 -1.49613 1.36908 0
M  V30 987 C 99.1336 -1.94169 -0.0347829 0
M  V30 988 O 98.4086 -1.66833 -0.999847 0
M  V30 989 C 98.6916 -2.73534 2.34203 0
M  V30 990 C 98.5446 -2.34993 3.83534 0
M  V30 991 C 99.8636 -3.75635 2.29317 0
M  V30 992 H 96.9826 -0.542714 0.498629 0
M  V30 993 H 99.6246 -0.839597 1.70443 0
M  V30 994 H 97.7746 -3.29553 2.05736 0
M  V30 995 H 99.4466 -1.84601 4.22753 0
M  V30 996 H 97.6896 -1.67213 4.00278 0
M  V30 997 H 98.3606 -3.23738 4.47099 0
M  V30 998 H 100.837 -3.29203 2.54489 0
M  V30 999 H 99.7126 -4.60008 2.99472 0
M  V30 1000 H 99.9736 -4.22603 1.29842 0
M  V30 1001 N 99.0327 -1.24633 -0.964593 0
M  V30 1002 C 99.9807 -1.03917 -2.08096 0
M  V30 1003 C 100.975 0.0268581 -1.69379 0
M  V30 1004 O 102.181 -0.127952 -1.79545 0
M  V30 1005 H 98.5557 -0.319044 -0.680966 0
M  V30 1006 H 100.527 -1.98581 -2.22729 0
M  V30 1007 C 99.2757 -0.663983 -3.41301 0
M  V30 1008 H 98.5987 -1.47605 -3.71555 0
M  V30 1009 H 100.039 -0.558663 -4.20303 0
M  V30 1010 C 98.4977 0.629169 -3.30973 0
M  V30 1011 O 99.0277 1.67404 -3.65156 0
M  V30 1012 N 97.2337 0.611057 -2.84103 0
M  V30 1013 H 96.7807 -0.239593 -2.56483 0
M  V30 1014 H 96.7387 1.47647 -2.77575 0
M  V30 1015 N 100.511 1.16574 -1.06058 0
M  V30 1016 C 101.421 2.2452 -0.680282 0
M  V30 1017 C 102.437 1.71348 0.302604 0
M  V30 1018 O 103.613 2.00822 0.152513 0
M  V30 1019 C 100.678 3.46629 -0.0700315 0
M  V30 1020 C 99.7388 4.14849 -1.10448 0
M  V30 1021 C 98.9718 5.31129 -0.523256 0
M  V30 1022 O 99.1948 5.66514 0.664709 0
M  V30 1023 O 98.1288 5.88526 -1.26179 0
M  V30 1024 H 101.955 2.59355 -1.58015 0
M  V30 1025 H 99.5398 1.24043 -0.832694 0
M  V30 1026 H 101.422 4.20543 0.268667 0
M  V30 1027 H 100.097 3.13573 0.803353 0
M  V30 1028 H 99.0038 3.42916 -1.49532 0
M  V30 1029 H 100.337 4.51954 -1.94931 0
M  V30 1030 N 101.989 0.842826 1.3317 0
M  V30 1031 C 102.936 0.276885 2.29133 0
M  V30 1032 C 103.906 -0.609527 1.54512 0
M  V30 1033 O 105.091 -0.546955 1.82792 0
M  V30 1034 C 102.231 -0.538707 3.40869 0
M  V30 1035 C 101.344 0.372169 4.30394 0
M  V30 1036 C 100.479 -0.454908 5.29249 0
M  V30 1037 C 99.5179 0.45411 6.10413 0
M  V30 1038 N 98.6549 -0.335075 7.013 0
M  V30 1039 H 103.495 1.10052 2.76934 0
M  V30 1040 H 101.032 0.554161 1.36262 0
M  V30 1041 H 102.99 -1.02709 4.0436 0
M  V30 1042 H 101.62 -1.32727 2.9425 0
M  V30 1043 H 100.672 0.97888 3.6759 0
M  V30 1044 H 101.984 1.0703 4.87182 0
M  V30 1045 H 101.138 -1.00695 5.98285 0
M  V30 1046 H 99.8769 -1.18646 4.73048 0
M  V30 1047 H 98.8819 1.01813 5.40291 0
M  V30 1048 H 100.107 1.18409 6.68697 0
M  V30 1049 H 98.0529 -1.04994 6.47543 0
M  V30 1050 H 97.9699 0.304262 7.55387 0
M  V30 1051 H 99.2379 -0.869224 7.74638 0
M  V30 1052 N 103.467 -1.45747 0.599634 0
M  V30 1053 C 104.713 -2.02592 0.0918643 0
M  V30 1054 C 105.046 -1.46806 -1.27128 0
M  V30 1055 O 104.321 -0.639658 -1.83681 0
M  V30 1056 C 104.604 -3.60073 0.0443398 0
M  V30 1057 C 104.457 -4.26208 1.43759 0
M  V30 1058 C 105.776 -4.35309 -0.647608 0
M  V30 1059 H 102.895 -0.736175 0.034857 0
M  V30 1060 H 105.537 -1.73694 0.770081 0
M  V30 1061 H 103.687 -3.84823 -0.533224 0
M  V30 1062 H 105.359 -4.12668 2.06162 0
M  V30 1063 H 103.602 -3.84916 2.00056 0
M  V30 1064 H 104.273 -5.35069 1.35665 0
M  V30 1065 H 106.749 -4.15805 -0.156776 0
M  V30 1066 H 105.625 -5.45038 -0.649942 0
M  V30 1067 H 105.886 -4.07598 -1.71219 0
M  V30 1068 N 104.945 -0.338344 -1.53925 0
M  V30 1069 C 106.185 0.260168 -2.02737 0
M  V30 1070 C 106.549 1.48181 -1.22092 0
M  V30 1071 O 107.75 2.15416 -1.60777 0
M  V30 1072 C 106.021 0.571627 -3.52799 0
M  V30 1073 S 107.58 1.14769 -4.23525 0
M  V30 1074 H 104.398 0.077791 -0.706732 0
M  V30 1075 H 107 -0.474899 -1.89644 0
M  V30 1076 H 105.704 -0.325392 -4.09108 0
M  V30 1077 H 105.235 1.3365 -3.70002 0
M  V30 1078 H 107.25 2.43372 -4.32417 0
M  V30 1079 N 106.423 1.57458 -0.0668435 0
M  V30 1080 C 107.333 2.15937 0.916975 0
M  V30 1081 C 108.349 1.12123 1.33058 0
M  V30 1082 O 109.525 1.44366 1.40429 0
M  V30 1083 C 106.59 2.70547 2.16807 0
M  V30 1084 C 105.651 3.89215 1.81135 0
M  V30 1085 C 104.884 4.41211 3.0028 0
M  V30 1086 O 105.107 3.92225 4.14144 0
M  V30 1087 O 104.041 5.32605 2.80384 0
M  V30 1088 H 107.867 3.00354 0.449561 0
M  V30 1089 H 105.452 1.48584 0.155949 0
M  V30 1090 H 107.334 3.0557 2.90181 0
M  V30 1091 H 106.009 1.89192 2.62656 0
M  V30 1092 H 104.916 3.59054 1.05028 0
M  V30 1093 H 106.249 4.71848 1.40073 0
M  V30 1094 N 107.901 -0.206675 1.56239 0
M  V30 1095 C 109.147 -0.925733 1.81113 0
M  V30 1096 C 109.502 -1.81368 0.642135 0
M  V30 1097 O 108.795 -1.88126 -0.363211 0
M  V30 1098 C 108.989 -1.78675 3.09532 0
M  V30 1099 C 108.818 -0.98365 4.3881 0
M  V30 1100 C 107.588 -0.672661 5.00803 0
M  V30 1101 C 109.786 -0.341847 5.13163 0
M  V30 1102 N 107.768 0.150283 6.13716 0
M  V30 1103 C 109.139 0.343815 6.19046 0
M  V30 1104 C 111.194 -0.256392 4.97239 0
M  V30 1105 C 109.897 1.10678 7.10734 0
M  V30 1106 C 111.923 0.493142 5.8934 0
M  V30 1107 C 111.285 1.16729 6.94661 0
M  V30 1108 H 107.384 -0.318524 0.714189 0
M  V30 1109 H 109.968 -0.195378 1.93717 0
M  V30 1110 H 108.139 -2.4888 2.98183 0
M  V30 1111 H 109.871 -2.44441 3.22538 0
M  V30 1112 H 106.626 -0.994294 4.63045 0
M  V30 1113 H 107.05 0.551026 6.74754 0
M  V30 1114 H 111.692 -0.763249 4.15854 0
M  V30 1115 H 109.41 1.6251 7.91591 0
M  V30 1116 H 112.996 0.560465 5.79094 0
M  V30 1117 H 111.876 1.738 7.64698 0
M  V30 1118 N 109.379 -1.50304 -0.473955 0
M  V30 1119 C 110.795 -1.37667 -0.807466 0
M  V30 1120 C 110.995 -0.430555 -1.96846 0
M  V30 1121 O 110.051 0.127874 -2.52176 0
M  V30 1122 C 111.364 -2.78974 -1.12223 0
M  V30 1123 C 112.912 -2.87868 -1.22885 0
M  V30 1124 C 113.387 -4.30003 -1.57676 0
M  V30 1125 N 114.878 -4.3294 -1.64673 0
M  V30 1126 C 115.613 -5.3991 -1.93091 0
M  V30 1127 N 115.109 -6.57092 -2.1955 0
M  V30 1128 N 116.902 -5.27351 -1.94569 0
M  V30 1129 H 109.053 -2.10394 0.291212 0
M  V30 1130 H 111.316 -0.945575 0.0677609 0
M  V30 1131 H 111.022 -3.50031 -0.342229 0
M  V30 1132 H 110.896 -3.16038 -2.05913 0
M  V30 1133 H 113.283 -2.17032 -1.99953 0
M  V30 1134 H 113.364 -2.54352 -0.271814 0
M  V30 1135 H 113.008 -5.01375 -0.81149 0
M  V30 1136 H 112.938 -4.61004 -2.54525 0
M  V30 1137 H 115.429 -3.48441 -1.46277 0
M  V30 1138 H 115.742 -7.34425 -2.405 0
M  V30 1139 H 114.087 -6.60272 -2.16948 0
M  V30 1140 H 117.278 -4.34801 -1.73394 0
M  V30 1141 H 117.451 -6.10805 -2.16381 0
M  V30 1142 N 110.857 0.726932 -1.39834 0
M  V30 1143 C 112.268 1.30558 -1.3346 0
M  V30 1144 C 112.619 1.962 -0.00273003 0
M  V30 1145 O 111.744 1.96826 0.899371 0
M  V30 1146 C 112.339 2.37404 -2.41713 0
M  V30 1147 C 110.898 2.90921 -2.38835 0
M  V30 1148 C 110.045 1.64578 -2.2318 0
M  V30 1149 H 112.996 0.523862 -1.49804 0
M  V30 1150 H 113.017 3.17984 -2.08966 0
M  V30 1151 H 112.529 1.89599 -3.38635 0
M  V30 1152 H 110.63 3.42985 -1.45575 0
M  V30 1153 H 110.743 3.43487 -3.33997 0
M  V30 1154 H 109.107 1.89219 -1.70494 0
M  V30 1155 H 109.89 1.18814 -3.22084 0
M  V30 1156 N 112.336 1.25143 0.95797 0
M  V30 1157 C 113.747 1.08851 1.51685 0
M  V30 1158 C 114.098 -0.33687 1.93286 0
M  V30 1159 O 113.223 -1.22644 1.7829 0
M  V30 1160 C 113.818 1.96978 2.75654 0
M  V30 1161 C 112.377 1.84881 3.27866 0
M  V30 1162 C 111.524 1.91329 2.0072 0
M  V30 1163 H 114.475 1.38478 0.77522 0
M  V30 1164 H 114.496 1.5078 3.4935 0
M  V30 1165 H 114.008 3.00712 2.45345 0
M  V30 1166 H 112.109 0.840182 3.63004 0
M  V30 1167 H 112.222 2.6951 3.96107 0
M  V30 1168 H 110.586 1.35174 2.15871 0
M  V30 1169 H 111.369 2.96661 1.72764 0
M  V30 1170 N 113.814 -1.1601 1.06675 0
M  V30 1171 C 114.724 -2.24156 0.692179 0
M  V30 1172 C 115.74 -1.71507 -0.293513 0
M  V30 1173 O 116.916 -2.009 -0.141861 0
M  V30 1174 C 113.981 -3.46587 0.0884131 0
M  V30 1175 C 113.042 -4.14257 1.12646 0
M  V30 1176 C 112.275 -5.30844 0.551416 0
M  V30 1177 O 112.498 -5.66858 -0.634656 0
M  V30 1178 O 111.432 -5.87848 1.29298 0
M  V30 1179 H 115.258 -2.58513 1.59388 0
M  V30 1180 H 112.843 -1.23599 0.83926 0
M  V30 1181 H 114.725 -4.20679 -0.246361 0
M  V30 1182 H 113.4 -3.13994 -0.786712 0
M  V30 1183 H 112.307 -3.42118 1.51348 0
M  V30 1184 H 113.64 -4.50914 1.97325 0
M  V30 1185 N 115.292 -0.849877 -1.32721 0
M  V30 1186 C 116.224 -0.248332 -2.27851 0
M  V30 1187 C 117.237 0.577218 -1.52224 0
M  V30 1188 O 118.426 0.402489 -1.73903 0
M  V30 1189 C 115.526 0.668107 -3.32249 0
M  V30 1190 C 114.699 -0.120534 -4.37234 0
M  V30 1191 C 113.758 0.720932 -5.21238 0
M  V30 1192 O 112.784 0.156166 -5.68986 0
M  V30 1193 N 113.986 2.03647 -5.43607 0
M  V30 1194 H 116.751 -1.06575 -2.80111 0
M  V30 1195 H 114.312 -0.709395 -1.45531 0
M  V30 1196 H 116.304 1.23627 -3.85355 0
M  V30 1197 H 114.874 1.38621 -2.80184 0
M  V30 1198 H 114.094 -0.870108 -3.84477 0
M  V30 1199 H 115.382 -0.662406 -5.0447 0
M  V30 1200 H 114.78 2.51871 -5.06535 0
M  V30 1201 H 113.337 2.55287 -5.99727 0
M  V30 1202 N 116.77 1.45427 -0.607355 0
M  V30 1203 C 117.7 2.3329 0.0989352 0
M  V30 1204 C 118.681 1.46816 0.859007 0
M  V30 1205 O 119.866 1.75588 0.829604 0
M  V30 1206 C 116.996 3.29518 1.09705 0
M  V30 1207 C 115.95 4.25626 0.450206 0
M  V30 1208 C 115.276 5.11542 1.55655 0
M  V30 1209 C 116.576 5.18505 -0.628455 0
M  V30 1210 H 118.27 2.92595 -0.634716 0
M  V30 1211 H 115.816 1.40696 -0.306681 0
M  V30 1212 H 117.769 3.89855 1.59971 0
M  V30 1213 H 116.493 2.68372 1.86129 0
M  V30 1214 H 115.152 3.66586 -0.0315886 0
M  V30 1215 H 114.8 4.46765 2.31107 0
M  V30 1216 H 114.5 5.76647 1.12925 0
M  V30 1217 H 116.024 5.74748 2.06148 0
M  V30 1218 H 117.438 5.72916 -0.209877 0
M  V30 1219 H 115.835 5.92085 -0.977489 0
M  V30 1220 H 116.905 4.60948 -1.50514 0
M  V30 1221 N 118.248 0.346503 1.53744 0
M  V30 1222 C 119.195 -0.508914 2.25119 0
M  V30 1223 C 120.165 -1.09315 1.25058 0
M  V30 1224 O 121.35 -1.12921 1.53797 0
M  V30 1225 C 118.49 -1.65246 3.02965 0
M  V30 1226 C 117.603 -1.09525 4.17886 0
M  V30 1227 C 116.738 -2.20634 4.83212 0
M  V30 1228 C 115.777 -1.62279 5.90196 0
M  V30 1229 N 114.914 -2.67143 6.49291 0
M  V30 1230 H 119.754 0.106283 2.9781 0
M  V30 1231 H 117.291 0.0642227 1.4696 0
M  V30 1232 H 119.249 -2.32574 3.4636 0
M  V30 1233 H 117.879 -2.2386 2.32565 0
M  V30 1234 H 116.931 -0.312818 3.79112 0
M  V30 1235 H 118.243 -0.628444 4.94825 0
M  V30 1236 H 117.397 -2.95821 5.29693 0
M  V30 1237 H 116.136 -2.70659 4.05703 0
M  V30 1238 H 115.141 -0.855989 5.43096 0
M  V30 1239 H 116.366 -1.13102 6.69615 0
M  V30 1240 H 114.312 -3.16417 5.74645 0
M  V30 1241 H 114.229 -2.25093 7.21713 0
M  V30 1242 H 115.497 -3.4209 7.00425 0
M  V30 1243 N 119.726 -1.57421 0.075193 0
M  V30 1244 C 120.658 -2.09904 -0.920483 0
M  V30 1245 C 121.671 -1.03191 -1.25918 0
M  V30 1246 O 122.86 -1.30695 -1.21577 0
M  V30 1247 C 119.96 -2.54726 -2.23534 0
M  V30 1248 C 119.133 -3.8505 -2.07498 0
M  V30 1249 C 118.192 -4.15929 -3.22319 0
M  V30 1250 O 117.218 -4.85474 -2.9716 0
M  V30 1251 N 118.42 -3.69745 -4.47514 0
M  V30 1252 H 121.185 -2.95954 -0.472359 0
M  V30 1253 H 118.746 -1.61523 -0.110444 0
M  V30 1254 H 120.738 -2.72443 -2.9926 0
M  V30 1255 H 119.308 -1.73795 -2.59835 0
M  V30 1256 H 118.528 -3.76679 -1.16219 0
M  V30 1257 H 119.816 -4.70348 -1.94038 0
M  V30 1258 H 119.214 -3.13569 -4.7084 0
M  V30 1259 H 117.771 -3.92655 -5.20255 0
M  V30 1260 N 121.204 0.198386 -1.56346 0
M  V30 1261 C 122.134 1.24865 -1.9731 0
M  V30 1262 C 123.115 1.47651 -0.844576 0
M  V30 1263 O 124.3 1.59444 -1.10866 0
M  V30 1264 C 121.43 2.59358 -2.30977 0
M  V30 1265 C 120.384 2.5119 -3.46537 0
M  V30 1266 C 119.71 3.89926 -3.65871 0
M  V30 1267 C 121.01 2.03977 -4.80823 0
M  V30 1268 H 122.704 0.908252 -2.85291 0
M  V30 1269 H 120.25 0.435462 -1.37258 0
M  V30 1270 H 122.203 3.33011 -2.58228 0
M  V30 1271 H 120.927 2.95132 -1.39874 0
M  V30 1272 H 119.586 1.79993 -3.19371 0
M  V30 1273 H 119.234 4.23046 -2.72105 0
M  V30 1274 H 118.934 3.85336 -4.4361 0
M  V30 1275 H 120.458 4.65205 -3.95495 0
M  V30 1276 H 121.872 2.67386 -5.07127 0
M  V30 1277 H 120.269 2.10397 -5.62008 0
M  V30 1278 H 121.339 0.992861 -4.74626 0
M  V30 1279 N 122.682 1.50554 0.465978 0
M  V30 1280 C 123.612 1.72722 1.57128 0
M  V30 1281 C 124.593 0.576294 1.6004 0
M  V30 1282 O 125.778 0.81598 1.76225 0
M  V30 1283 C 122.908 1.82605 2.95419 0
M  V30 1284 C 121.862 2.97835 3.07373 0
M  V30 1285 C 121.188 2.92867 4.47363 0
M  V30 1286 C 122.488 4.38265 2.84114 0
M  V30 1287 H 124.182 2.65267 1.38829 0
M  V30 1288 H 121.728 1.2765 0.666441 0
M  V30 1289 H 123.681 1.96698 3.72677 0
M  V30 1290 H 122.405 0.866858 3.14886 0
M  V30 1291 H 121.064 2.83401 2.3255 0
M  V30 1292 H 120.712 1.94783 4.63755 0
M  V30 1293 H 120.412 3.70227 4.56296 0
M  V30 1294 H 121.936 3.09015 5.26633 0
M  V30 1295 H 123.35 4.53198 3.51118 0
M  V30 1296 H 121.747 5.17115 3.04487 0
M  V30 1297 H 122.817 4.50281 1.7993 0
M  V30 1298 N 124.16 -0.719506 1.40217 0
M  V30 1299 C 125.437 -1.47221 1.28784 0
M  V30 1300 C 125.817 -2.10883 -0.0956067 0
M  V30 1301 O 125.165 -1.99833 -1.10811 0
M  V30 1302 C 125.375 -2.5111 2.42373 0
M  V30 1303 C 126.723 -3.17053 2.82423 0
M  V30 1304 O 127.747 -2.61429 2.41937 0
M  V30 1305 O 126.606 -4.17742 3.52355 0
M  V30 1306 H 123.7 -0.654491 0.50554 0
M  V30 1307 H 126.246 -0.752014 1.52128 0
M  V30 1308 H 125.018 -2.02556 3.34793 0
M  V30 1309 H 124.641 -3.3067 2.20778 0
M  V30 1310 N 125.638 -1.25649 -0.95132 0
M  V30 1311 C 126.568 -1.08808 -2.06599 0
M  V30 1312 C 127.549 0.00382547 -1.701 0
M  V30 1313 O 128.734 -0.166325 -1.93486 0
M  V30 1314 C 125.864 -0.709542 -3.39975 0
M  V30 1315 C 124.818 -1.75206 -3.90496 0
M  V30 1316 C 124.144 -1.22811 -5.20405 0
M  V30 1317 C 125.444 -3.15153 -4.16504 0
M  V30 1318 H 127.138 -2.02048 -2.20946 0
M  V30 1319 H 124.684 -0.972835 -1.06169 0
M  V30 1320 H 126.637 -0.578649 -4.17408 0
M  V30 1321 H 125.361 0.258556 -3.25575 0
M  V30 1322 H 124.02 -1.87145 -3.15234 0
M  V30 1323 H 123.668 -0.250145 -5.02378 0
M  V30 1324 H 123.368 -1.92492 -5.55176 0
M  V30 1325 H 124.892 -1.10968 -6.00432 0
M  V30 1326 H 126.306 -3.06349 -4.84586 0
M  V30 1327 H 124.703 -3.82333 -4.62538 0
M  V30 1328 H 125.773 -3.61966 -3.22658 0
M  V30 1329 N 127.117 1.15442 -1.07289 0
M  V30 1330 C 128.027 2.23786 -0.704057 0
M  V30 1331 C 129.043 1.7166 0.284413 0
M  V30 1332 O 130.219 2.00972 0.131205 0
M  V30 1333 C 127.284 3.46535 -0.106792 0
M  V30 1334 C 126.345 4.13654 -1.14842 0
M  V30 1335 C 125.578 5.30544 -0.57956 0
M  V30 1336 O 125.801 5.67187 0.604585 0
M  V30 1337 O 124.735 5.87154 -1.32414 0
M  V30 1338 H 128.561 2.57664 -1.60757 0
M  V30 1339 H 126.146 1.23152 -0.845803 0
M  V30 1340 H 128.028 4.20804 0.224048 0
M  V30 1341 H 126.703 3.14407 0.770049 0
M  V30 1342 H 125.61 3.4131 -1.5316 0
M  V30 1343 H 126.943 4.49861 -1.99714 0
M  V30 1344 N 128.595 0.856903 1.32268 0
M  V30 1345 C 129.528 0.247937 2.26849 0
M  V30 1346 C 130.506 -0.615382 1.50505 0
M  V30 1347 O 131.69 -0.571689 1.79622 0
M  V30 1348 C 128.817 -0.650093 3.32403 0
M  V30 1349 C 127.863 0.140138 4.2627 0
M  V30 1350 S 128.696 1.51004 5.13769 0
M  V30 1351 C 129.852 0.61778 6.22844 0
M  V30 1352 H 130.085 1.04971 2.78152 0
M  V30 1353 H 127.618 0.654665 1.39834 0
M  V30 1354 H 129.576 -1.16256 3.93694 0
M  V30 1355 H 128.237 -1.4257 2.7988 0
M  V30 1356 H 127.43 -0.543945 5.01056 0
M  V30 1357 H 127.032 0.584267 3.69408 0
M  V30 1358 H 129.324 -0.177053 6.77269 0
M  V30 1359 H 130.267 1.33636 6.95375 0
M  V30 1360 H 130.675 0.191124 5.64176 0
M  V30 1361 N 130.073 -1.45103 0.615059 0
M  V30 1362 C 131.489 -1.57137 0.279322 0
M  V30 1363 C 131.689 -1.60523 -1.21797 0
M  V30 1364 O 130.745 -1.53956 -2.00134 0
M  V30 1365 C 132.058 -2.85062 0.957083 0
M  V30 1366 C 133.606 -2.98749 0.933706 0
M  V30 1367 C 134.081 -4.29455 1.59162 0
M  V30 1368 N 135.572 -4.36231 1.55746 0
M  V30 1369 C 136.307 -5.36051 2.0356 0
M  V30 1370 N 135.803 -6.42367 2.59494 0
M  V30 1371 N 137.596 -5.27456 1.94284 0
M  V30 1372 H 129.747 -1.41148 1.58717 0
M  V30 1373 H 132.01 -0.675331 0.665306 0
M  V30 1374 H 131.716 -2.88488 2.01166 0
M  V30 1375 H 131.59 -3.7407 0.48494 0
M  V30 1376 H 133.977 -2.94886 -0.112347 0
M  V30 1377 H 134.058 -2.11132 1.44419 0
M  V30 1378 H 133.702 -4.34077 2.63704 0
M  V30 1379 H 133.632 -5.15901 1.0561 0
M  V30 1380 H 136.123 -3.60011 1.14893 0
M  V30 1381 H 136.436 -7.14793 2.93752 0
M  V30 1382 H 134.781 -6.43097 2.63537 0
M  V30 1383 H 137.972 -4.43308 1.5032 0
M  V30 1384 H 138.145 -6.05099 2.3186 0
M  V30 1385 N 131.551 -0.354651 -1.53558 0
M  V30 1386 C 132.828 0.294281 -1.93374 0
M  V30 1387 C 133.208 1.67313 -1.28723 0
M  V30 1388 O 132.556 2.24179 -0.442247 0
M  V30 1389 C 132.766 0.355445 -3.47185 0
M  V30 1390 C 134.114 0.601007 -4.20325 0
M  V30 1391 O 135.138 0.437106 -3.53508 0
M  V30 1392 O 133.997 0.919322 -5.38712 0
M  V30 1393 H 131.091 0.174033 -0.808481 0
M  V30 1394 H 133.637 -0.406638 -1.64756 0
M  V30 1395 H 132.409 -0.611729 -3.86489 0
M  V30 1396 H 132.032 1.1027 -3.82003 0
M  V30 1397 N 133.029 1.57378 -0.0835403 0
M  V30 1398 C 134.254 1.98682 0.594987 0
M  V30 1399 C 134.679 0.961969 1.61641 0
M  V30 1400 O 134.037 -0.0709989 1.81161 0
M  V30 1401 C 134.085 3.38988 1.2296 0
M  V30 1402 O 133.189 3.39208 2.34546 0
M  V30 1403 H 132.53 0.646368 0.152002 0
M  V30 1404 H 135.06 2.03961 -0.161533 0
M  V30 1405 H 135.07 3.76431 1.57366 0
M  V30 1406 H 133.745 4.13107 0.481228 0
M  V30 1407 H 132.322 3.13548 2.01846 0
M  V30 1408 N 134.507 -0.190092 1.56449 0
M  V30 1409 C 135.755 -0.907908 1.80559 0
M  V30 1410 C 136.076 -1.83583 0.657438 0
M  V30 1411 O 135.346 -1.93203 -0.323924 0
M  V30 1412 H 133.926 -0.338247 0.666032 0
M  V30 1413 H 136.588 -0.194403 1.93928 0
M  V30 1414 H 135.684 -1.49604 2.73907 0
M  V30 1415 N 135.985 -1.50799 -0.457987 0
M  V30 1416 C 136.895 -1.73426 -1.57989 0
M  V30 1417 C 137.911 -0.617745 -1.62665 0
M  V30 1418 O 139.087 -0.897614 -1.80291 0
M  V30 1419 C 136.152 -1.83557 -2.94122 0
M  V30 1420 C 135.213 -3.07345 -2.99729 0
M  V30 1421 C 134.446 -3.16983 -4.29368 0
M  V30 1422 O 134.669 -2.33077 -5.20607 0
M  V30 1423 O 133.603 -4.09812 -4.40837 0
M  V30 1424 H 137.429 -2.68555 -1.41817 0
M  V30 1425 H 135.014 -1.35052 -0.638859 0
M  V30 1426 H 136.896 -1.92326 -3.74952 0
M  V30 1427 H 135.571 -0.916137 -3.10465 0
M  V30 1428 H 134.478 -3.04068 -2.1793 0
M  V30 1429 H 135.811 -3.9891 -2.88326 0
M  V30 1430 N 137.463 0.71206 -1.40597 0
M  V30 1431 C 138.874 1.29135 -1.34837 0
M  V30 1432 C 139.225 1.96186 -0.0235395 0
M  V30 1433 O 138.35 1.97768 0.878444 0
M  V30 1434 C 138.945 2.34827 -2.44217 0
M  V30 1435 C 137.504 2.88371 -2.41907 0
M  V30 1436 C 136.651 1.62202 -2.24913 0
M  V30 1437 H 139.602 0.507944 -1.50352 0
M  V30 1438 H 139.623 3.15749 -2.12327 0
M  V30 1439 H 139.135 1.85996 -3.40627 0
M  V30 1440 H 137.236 3.41422 -1.49204 0
M  V30 1441 H 137.349 3.39925 -3.37621 0
M  V30 1442 H 135.713 1.874 -1.72492 0
M  V30 1443 H 136.496 1.15391 -3.23326 0
M  V30 1444 N 138.941 1.26152 0.944643 0
M  V30 1445 C 140.352 1.10454 1.50522 0
M  V30 1446 C 140.703 -0.31635 1.93633 0
M  V30 1447 O 139.828 -1.20746 1.79581 0
M  V30 1448 C 140.423 1.99891 2.73549 0
M  V30 1449 C 138.982 1.88348 3.25886 0
M  V30 1450 C 138.129 1.93447 1.9868 0
M  V30 1451 H 141.08 1.39292 0.760489 0
M  V30 1452 H 141.101 1.54477 3.47732 0
M  V30 1453 H 140.613 3.03297 2.42141 0
M  V30 1454 H 138.714 0.878636 3.62092 0
M  V30 1455 H 138.827 2.73696 3.93227 0
M  V30 1456 H 137.191 1.37456 2.14425 0
M  V30 1457 H 137.974 2.98476 1.69607 0
M  V30 1458 N 140.419 -1.14872 1.07899 0
M  V30 1459 C 141.369 -2.17809 0.674027 0
M  V30 1460 C 142.353 -1.58008 -0.303699 0
M  V30 1461 O 143.545 -1.76616 -0.11654 0
M  V30 1462 C 140.674 -3.43208 0.0793318 0
M  V30 1463 C 139.76 -4.10051 1.08253 0
M  V30 1464 N 140.151 -4.52296 2.2641 0
M  V30 1465 C 138.449 -4.36469 0.917124 0
M  V30 1466 C 139.15 -5.04199 2.901 0
M  V30 1467 N 138.126 -4.98088 2.17736 0
M  V30 1468 H 141.928 -2.48207 1.57386 0
M  V30 1469 H 139.442 -1.315 0.952976 0
M  V30 1470 H 141.439 -4.16272 -0.228719 0
M  V30 1471 H 140.099 -3.14291 -0.815551 0
M  V30 1472 H 141.11 -4.45504 2.64096 0
M  V30 1473 H 137.787 -4.17432 0.0756078 0
M  V30 1474 H 139.177 -5.46802 3.90458 0
M  V30 1475 N 141.898 -0.863906 -1.31812 0
M  V30 1476 C 142.845 -0.313303 -2.28664 0
M  V30 1477 C 143.815 0.584868 -1.55462 0
M  V30 1478 O 145 0.517805 -1.83639 0
M  V30 1479 C 142.14 0.48441 -3.41683 0
M  V30 1480 C 141.253 -0.440594 -4.29747 0
M  V30 1481 C 140.388 0.370652 -5.29905 0
M  V30 1482 C 139.427 -0.551164 -6.09613 0
M  V30 1483 N 138.564 0.223462 -7.01744 0
M  V30 1484 H 143.404 -1.14444 -2.75148 0
M  V30 1485 H 140.941 -0.575769 -1.35364 0
M  V30 1486 H 142.899 0.962627 -4.05943 0
M  V30 1487 H 141.529 1.28029 -2.96325 0
M  V30 1488 H 140.581 -1.03724 -3.65986 0
M  V30 1489 H 141.893 -1.14767 -4.85417 0
M  V30 1490 H 141.047 0.911638 -5.99812 0
M  V30 1491 H 139.786 1.11105 -4.74876 0
M  V30 1492 H 138.791 -1.10396 -5.38603 0
M  V30 1493 H 140.016 -1.29032 -6.66729 0
M  V30 1494 H 137.962 0.946787 -6.49132 0
M  V30 1495 H 137.879 -0.424399 -7.54808 0
M  V30 1496 H 139.147 0.745876 -7.75923 0
M  V30 1497 N 143.376 1.44774 -0.622745 0
M  V30 1498 C 144.306 2.33382 0.0741861 0
M  V30 1499 C 145.287 1.47719 0.843387 0
M  V30 1500 O 146.472 1.76458 0.810934 0
M  V30 1501 C 143.602 3.30663 1.06204 0
M  V30 1502 C 142.556 4.26079 0.405037 0
M  V30 1503 C 141.882 5.13165 1.5022 0
M  V30 1504 C 143.182 5.1781 -0.683414 0
M  V30 1505 H 144.876 2.91905 -0.665713 0
M  V30 1506 H 142.422 1.40363 -0.321587 0
M  V30 1507 H 144.375 3.9153 1.55827 0
M  V30 1508 H 143.099 2.70331 1.83272 0
M  V30 1509 H 141.758 3.66532 -0.0704683 0
M  V30 1510 H 141.406 4.49191 2.26355 0
M  V30 1511 H 141.106 5.77812 1.06803 0
M  V30 1512 H 142.63 5.76902 2.00041 0
M  V30 1513 H 144.044 5.72661 -0.270631 0
M  V30 1514 H 142.441 5.91015 -1.04023 0
M  V30 1515 H 143.511 4.59326 -1.55395 0
M  V30 1516 N 144.854 0.36279 1.53368 0
M  V30 1517 C 145.784 -0.476976 2.28576 0
M  V30 1518 C 146.765 -1.08631 1.30894 0
M  V30 1519 O 147.95 -1.10409 1.59761 0
M  V30 1520 C 145.08 -1.61828 3.07293 0
M  V30 1521 C 144.034 -1.13633 4.1264 0
M  V30 1522 C 143.36 -2.36766 4.79423 0
M  V30 1523 C 144.66 -0.223061 5.21823 0
M  V30 1524 H 146.354 0.150474 2.99022 0
M  V30 1525 H 143.9 0.0738103 1.43811 0
M  V30 1526 H 145.853 -2.21237 3.58653 0
M  V30 1527 H 144.577 -2.27292 2.34533 0
M  V30 1528 H 143.236 -0.564945 3.62221 0
M  V30 1529 H 142.884 -3.0068 4.03238 0
M  V30 1530 H 142.584 -2.05192 5.50609 0
M  V30 1531 H 144.108 -2.96865 5.33576 0
M  V30 1532 H 145.522 -0.724545 5.68703 0
M  V30 1533 H 143.919 0.001678 6.001 0
M  V30 1534 H 144.989 0.735553 4.79289 0
M  V30 1535 N 146.332 -1.57332 0.0918853 0
M  V30 1536 C 147.242 -2.17368 -0.882505 0
M  V30 1537 C 148.258 -1.14226 -1.31257 0
M  V30 1538 O 149.434 -1.46582 -1.38115 0
M  V30 1539 C 146.499 -2.73962 -2.12476 0
M  V30 1540 C 145.56 -3.92048 -1.7492 0
M  V30 1541 C 144.793 -4.45933 -2.93223 0
M  V30 1542 O 145.016 -3.98764 -4.07852 0
M  V30 1543 O 143.95 -5.36999 -2.71875 0
M  V30 1544 H 147.776 -3.01031 -0.40172 0
M  V30 1545 H 145.361 -1.48813 -0.132291 0
M  V30 1546 H 147.243 -3.10147 -2.85283 0
M  V30 1547 H 145.918 -1.93347 -2.59613 0
M  V30 1548 H 144.825 -3.6068 -0.993025 0
M  V30 1549 H 146.158 -4.74017 -1.32548 0
M  V30 1550 N 147.81 0.181792 -1.56548 0
M  V30 1551 C 148.74 1.22765 -1.98623 0
M  V30 1552 C 149.721 1.46747 -0.860189 0
M  V30 1553 O 150.906 1.58259 -1.12551 0
M  V30 1554 C 148.036 2.56894 -2.33715 0
M  V30 1555 C 146.99 2.475 -3.49182 0
M  V30 1556 C 146.316 3.86023 -3.69986 0
M  V30 1557 C 147.616 1.98866 -4.82959 0
M  V30 1558 H 149.31 0.877942 -2.86239 0
M  V30 1559 H 146.856 0.42088 -1.37712 0
M  V30 1560 H 148.809 3.30253 -2.61746 0
M  V30 1561 H 147.533 2.93632 -1.42997 0
M  V30 1562 H 146.192 1.76596 -3.21262 0
M  V30 1563 H 145.84 4.20136 -2.76576 0
M  V30 1564 H 145.54 3.80609 -4.47672 0
M  V30 1565 H 147.064 4.60984 -4.00407 0
M  V30 1566 H 148.478 2.61992 -5.09934 0
M  V30 1567 H 146.875 2.04424 -5.64208 0
M  V30 1568 H 147.945 0.942465 -4.75653 0
M  V30 1569 N 149.288 1.51039 0.449983 0
M  V30 1570 C 150.528 1.64732 1.21007 0
M  V30 1571 C 150.892 0.349865 1.88785 0
M  V30 1572 O 152.093 0.362431 2.66345 0
M  V30 1573 C 150.364 2.80902 2.20973 0
M  V30 1574 S 151.923 3.14851 3.05638 0
M  V30 1575 H 148.741 0.5805 0.410538 0
M  V30 1576 H 151.343 1.88901 0.503634 0
M  V30 1577 H 150.047 3.73627 1.69796 0
M  V30 1578 H 149.578 2.58882 2.96215 0
M  V30 1579 H 151.593 2.60306 4.22439 0
M  V30 1580 N 150.766 -0.704594 1.40972 0
M  V30 1581 C 152.182 -1.01406 1.23244 0
M  V30 1582 C 152.382 -2.01169 0.115399 0
M  V30 1583 O 151.438 -2.47021 -0.523147 0
M  V30 1584 C 152.751 -1.54728 2.57836 0
M  V30 1585 C 154.299 -1.66658 2.64942 0
M  V30 1586 C 154.774 -2.23383 3.9983 0
M  V30 1587 N 156.265 -2.30756 4.01629 0
M  V30 1588 C 157 -2.75655 5.02794 0
M  V30 1589 N 156.496 -3.20225 6.14352 0
M  V30 1590 N 158.289 -2.75138 4.90159 0
M  V30 1591 H 150.44 -0.0435285 2.12355 0
M  V30 1592 H 152.703 -0.0818951 0.944456 0
M  V30 1593 H 152.409 -0.888832 3.40283 0
M  V30 1594 H 152.283 -2.53084 2.79693 0
M  V30 1595 H 154.67 -2.31617 1.8286 0
M  V30 1596 H 154.751 -0.668717 2.46904 0
M  V30 1597 H 154.395 -1.59043 4.82357 0
M  V30 1598 H 154.325 -3.23904 4.15203 0
M  V30 1599 H 156.816 -1.99291 3.21079 0
M  V30 1600 H 157.129 -3.53084 6.87424 0
M  V30 1601 H 155.474 -3.18156 6.17901 0
M  V30 1602 H 158.665 -2.39661 4.02095 0
M  V30 1603 H 158.838 -3.09812 5.6914 0
M  V30 1604 N 152.244 -1.26651 -0.937939 0
M  V30 1605 C 153.521 -1.0313 -1.66204 0
M  V30 1606 C 153.901 0.437256 -2.06522 0
M  V30 1607 O 153.249 1.41831 -1.79154 0
M  V30 1608 C 153.459 -1.98314 -2.87181 0
M  V30 1609 C 154.807 -2.27107 -3.58758 0
M  V30 1610 O 155.831 -1.96205 -2.97291 0
M  V30 1611 O 154.69 -2.79736 -4.69479 0
M  V30 1612 H 151.784 -0.392384 -0.727986 0
M  V30 1613 H 154.33 -1.37874 -0.989382 0
M  V30 1614 H 153.102 -2.97399 -2.54302 0
M  V30 1615 H 152.725 -1.64068 -3.6217 0
M  V30 1616 N 153.722 1.14298 -1.08507 0
M  V30 1617 C 154.968 1.85633 -0.816581 0
M  V30 1618 C 155.301 1.82784 0.656021 0
M  V30 1619 O 154.576 1.25926 1.48233 0
M  V30 1620 C 154.859 3.34223 -1.34041 0
M  V30 1621 C 154.712 3.45639 -2.87843 0
M  V30 1622 C 156.031 4.29356 -0.9665 0
M  V30 1623 H 153.15 0.67402 -0.298104 0
M  V30 1624 H 155.792 1.34214 -1.34487 0
M  V30 1625 H 153.942 3.78144 -0.89104 0
M  V30 1626 H 155.614 3.10498 -3.41158 0
M  V30 1627 H 153.857 2.86817 -3.25451 0
M  V30 1628 H 154.528 4.50089 -3.19569 0
M  V30 1629 H 157.004 3.93457 -1.35391 0
M  V30 1630 H 155.88 5.3178 -1.3602 0
M  V30 1631 H 156.141 4.41919 0.126362 0
M  V30 1632 N 155.201 0.870884 1.31352 0
M  V30 1633 C 156.45 0.478408 1.95944 0
M  V30 1634 C 156.763 -0.974493 1.69597 0
M  V30 1635 O 157.969 -1.47316 2.28058 0
M  V30 1636 C 156.425 0.804609 3.50791 0
M  V30 1637 C 156.033 2.27433 3.85977 0
M  V30 1638 C 157.777 0.480648 4.2177 0
M  V30 1639 C 155.684 2.5429 5.33939 0
M  V30 1640 H 154.614 0.175175 0.733369 0
M  V30 1641 H 157.265 1.06391 1.4951 0
M  V30 1642 H 155.647 0.148347 3.95722 0
M  V30 1643 H 156.821 2.97373 3.52002 0
M  V30 1644 H 155.136 2.56442 3.28065 0
M  V30 1645 H 157.733 0.658519 5.30629 0
M  V30 1646 H 158.076 -0.578979 4.12254 0
M  V30 1647 H 158.609 1.09349 3.82476 0
M  V30 1648 H 155.348 3.58939 5.48491 0
M  V30 1649 H 154.868 1.88945 5.69263 0
M  V30 1650 H 156.547 2.39066 6.01212 0
M  V30 1651 N 156.679 -1.44442 0.630414 0
M  V30 1652 C 157.629 -2.27794 -0.0968103 0
M  V30 1653 C 158.613 -1.38624 -0.816834 0
M  V30 1654 O 159.805 -1.62438 -0.70306 0
M  V30 1655 C 156.934 -3.25929 -1.07819 0
M  V30 1656 C 156.02 -4.22588 -0.357826 0
M  V30 1657 N 156.411 -5.0207 0.613169 0
M  V30 1658 C 154.709 -4.41914 -0.602365 0
M  V30 1659 C 155.41 -5.72351 1.03871 0
M  V30 1660 N 154.386 -5.42287 0.377642 0
M  V30 1661 H 158.188 -2.86653 0.648621 0
M  V30 1662 H 155.702 -1.55871 0.455862 0
M  V30 1663 H 157.699 -3.84399 -1.61378 0
M  V30 1664 H 156.359 -2.68631 -1.82393 0
M  V30 1665 H 157.37 -5.08331 0.990947 0
M  V30 1666 H 154.047 -3.95714 -1.33103 0
M  V30 1667 H 155.437 -6.4619 1.84086 0
M  V30 1668 N 158.157 -0.370918 -1.53173 0
M  V30 1669 C 159.387 0.217389 -2.05453 0
M  V30 1670 C 159.795 1.42568 -1.24382 0
M  V30 1671 O 159.138 1.81571 -0.278839 0
M  V30 1672 C 159.2 0.669827 -3.53205 0
M  V30 1673 C 158.864 -0.4225 -4.55043 0
M  V30 1674 C 159.861 -1.27407 -5.04047 0
M  V30 1675 C 157.546 -0.58427 -4.9889 0
M  V30 1676 C 159.54 -2.27271 -5.95505 0
M  V30 1677 C 157.227 -1.58627 -5.90153 0
M  V30 1678 C 158.225 -2.42892 -6.38351 0
M  V30 1679 O 157.913 -3.41382 -7.27814 0
M  V30 1680 H 157.645 0.0408171 -0.674767 0
M  V30 1681 H 160.199 -0.5292 -1.98466 0
M  V30 1682 H 158.429 1.4681 -3.57748 0
M  V30 1683 H 160.118 1.18173 -3.88317 0
M  V30 1684 H 160.884 -1.16031 -4.70916 0
M  V30 1685 H 156.763 0.061851 -4.60959 0
M  V30 1686 H 160.307 -2.93079 -6.33049 0
M  V30 1687 H 156.204 -1.70048 -6.22699 0
M  V30 1688 H 156.972 -3.37173 -7.45826 0
M  V30 1689 N 159.635 1.57281 -0.100228 0
M  V30 1690 C 160.86 1.99302 0.573881 0
M  V30 1691 C 161.285 0.979059 1.60611 0
M  V30 1692 O 160.643 -0.0517803 1.81226 0
M  V30 1693 C 160.691 3.40274 1.19358 0
M  V30 1694 O 159.795 3.41676 2.30935 0
M  V30 1695 H 159.136 0.647944 0.145138 0
M  V30 1696 H 161.666 2.03779 -0.183156 0
M  V30 1697 H 161.676 3.78078 1.53365 0
M  V30 1698 H 160.351 4.13594 0.437385 0
M  V30 1699 H 158.928 3.15672 1.98509 0
M  V30 1700 N 161.113 -0.173488 1.56642 0
M  V30 1701 C 162.359 -0.891784 1.8214 0
M  V30 1702 C 162.692 -1.8199 0.677736 0
M  V30 1703 O 161.967 -1.91842 -0.320446 0
M  V30 1704 C 162.25 -1.68933 3.18015 0
M  V30 1705 C 162.103 -0.784487 4.42906 0
M  V30 1706 C 163.422 -2.65748 3.50808 0
M  V30 1707 H 160.541 -0.322761 0.662567 0
M  V30 1708 H 163.183 -0.158095 1.89341 0
M  V30 1709 H 161.333 -2.31482 3.12007 0
M  V30 1710 H 163.005 -0.172046 4.60979 0
M  V30 1711 H 161.248 -0.0924117 4.33702 0
M  V30 1712 H 161.919 -1.37799 5.34524 0
M  V30 1713 H 164.395 -2.13327 3.57255 0
M  V30 1714 H 163.271 -3.18619 4.4696 0
M  V30 1715 H 163.532 -3.45842 2.75401 0
M  V30 1716 N 162.591 -1.51276 -0.441967 0
M  V30 1717 C 163.538 -1.72256 -1.53612 0
M  V30 1718 C 164.508 -0.564164 -1.56225 0
M  V30 1719 O 165.693 -0.798074 -1.73307 0
M  V30 1720 C 162.833 -1.84932 -2.91366 0
M  V30 1721 C 161.946 -3.12459 -2.98317 0
M  V30 1722 C 161.081 -3.15758 -4.27166 0
M  V30 1723 C 160.12 -4.37619 -4.27967 0
M  V30 1724 N 159.257 -4.38493 -5.48333 0
M  V30 1725 H 164.097 -2.65654 -1.35026 0
M  V30 1726 H 161.634 -1.31662 -0.656009 0
M  V30 1727 H 163.592 -1.90263 -3.7129 0
M  V30 1728 H 162.222 -0.949461 -3.08521 0
M  V30 1729 H 161.274 -3.1646 -2.11086 0
M  V30 1730 H 162.586 -4.02382 -2.94771 0
M  V30 1731 H 161.74 -3.19979 -5.15459 0
M  V30 1732 H 160.479 -2.23715 -4.33362 0
M  V30 1733 H 159.484 -4.33579 -3.38067 0
M  V30 1734 H 160.709 -5.30921 -4.23438 0
M  V30 1735 H 158.655 -3.49318 -5.55259 0
M  V30 1736 H 158.572 -5.22219 -5.46647 0
M  V30 1737 H 159.84 -4.469 -6.38671 0
M  V30 1738 N 164.069 0.697108 -1.41344 0
M  V30 1739 C 165.297 1.48593 -1.43972 0
M  V30 1740 C 165.712 1.88747 -0.0445612 0
M  V30 1741 O 165.069 1.56682 0.935785 0
M  V30 1742 C 165.12 2.74946 -2.34706 0
M  V30 1743 O 164.841 2.36484 -3.68791 0
M  V30 1744 C 166.342 3.687 -2.46121 0
M  V30 1745 H 163.562 0.457964 -0.490418 0
M  V30 1746 H 166.106 0.858429 -1.8561 0
M  V30 1747 H 164.261 3.33937 -1.9638 0
M  V30 1748 H 164.675 3.17918 -4.17167 0
M  V30 1749 H 166.149 4.54145 -3.13777 0
M  V30 1750 H 166.626 4.13081 -1.49199 0
M  V30 1751 H 167.232 3.15613 -2.85076 0
M  V30 1752 N 165.547 1.27147 0.931209 0
M  V30 1753 C 166.495 1.09398 2.05268 0
M  V30 1754 C 167.489 0.0180591 1.6939 0
M  V30 1755 O 168.695 0.17551 1.79142 0
M  V30 1756 H 165.07 0.336986 0.672268 0
M  V30 1757 H 167.041 2.04416 2.17386 0
M  V30 1758 C 165.79 0.75424 3.39421 0
M  V30 1759 H 165.113 1.57404 3.67511 0
M  V30 1760 H 166.553 0.669903 4.18674 0
M  V30 1761 C 165.012 -0.541197 3.32525 0
M  V30 1762 O 165.542 -1.57664 3.69466 0
M  V30 1763 N 163.748 -0.535517 2.85623 0
M  V30 1764 H 163.295 0.307511 2.55758 0
M  V30 1765 H 163.253 -1.40236 2.81392 0
M  V30 1766 N 167.025 -1.13721 1.09112 0
M  V30 1767 C 167.975 -2.17082 0.697091 0
M  V30 1768 C 168.959 -1.58321 -0.286923 0
M  V30 1769 O 170.151 -1.7673 -0.0978008 0
M  V30 1770 C 167.28 -3.43105 0.115729 0
M  V30 1771 C 166.366 -4.0888 1.12596 0
M  V30 1772 N 166.757 -4.4987 2.31195 0
M  V30 1773 C 165.055 -4.35471 0.963366 0
M  V30 1774 C 165.756 -5.01094 2.95431 0
M  V30 1775 N 164.732 -4.95751 2.23006 0
M  V30 1776 H 168.534 -2.46524 1.6001 0
M  V30 1777 H 166.048 -1.30481 0.966869 0
M  V30 1778 H 168.045 -4.16491 -0.184555 0
M  V30 1779 H 166.705 -3.15138 -0.78217 0
M  V30 1780 H 167.716 -4.42678 2.68806 0
M  V30 1781 H 164.393 -4.17328 0.119878 0
M  V30 1782 H 165.783 -5.4263 3.96236 0
M  V30 1783 N 168.503 -0.877838 -1.30888 0
M  V30 1784 C 169.914 -0.544193 -1.78593 0
M  V30 1785 C 170.265 0.939301 -1.72254 0
M  V30 1786 O 169.39 1.7337 -1.29505 0
M  V30 1787 C 169.985 -0.98105 -3.24285 0
M  V30 1788 C 168.544 -0.698935 -3.69854 0
M  V30 1789 C 167.691 -1.168 -2.51502 0
M  V30 1790 H 170.642 -1.06278 -1.17859 0
M  V30 1791 H 170.663 -0.307009 -3.79259 0
M  V30 1792 H 170.175 -2.06079 -3.28866 0
M  V30 1793 H 168.276 0.369112 -3.70767 0
M  V30 1794 H 168.389 -1.28148 -4.61644 0
M  V30 1795 H 166.753 -0.587535 -2.47831 0
M  V30 1796 H 167.536 -2.25533 -2.58824 0
M  V30 1797 N 169.982 1.44106 -0.638065 0
M  V30 1798 C 171.398 1.56672 -0.304286 0
M  V30 1799 C 171.598 1.6244 1.19228 0
M  V30 1800 O 170.654 1.57121 1.9766 0
M  V30 1801 C 171.967 2.83503 -1.00231 0
M  V30 1802 C 173.515 2.97226 -0.981116 0
M  V30 1803 C 173.99 4.26868 -1.65974 0
M  V30 1804 N 175.481 4.33698 -1.62666 0
M  V30 1805 C 176.216 5.32745 -2.12063 0
M  V30 1806 N 175.712 6.38157 -2.6968 0
M  V30 1807 N 177.505 5.24299 -2.02651 0
M  V30 1808 H 169.656 1.38605 -1.60942 0
M  V30 1809 H 171.919 0.664661 -0.675965 0
M  V30 1810 H 171.625 2.85251 -2.0573 0
M  V30 1811 H 171.499 3.73251 -0.54439 0
M  V30 1812 H 173.886 2.95027 0.0654188 0
M  V30 1813 H 173.967 2.08808 -1.47759 0
M  V30 1814 H 173.611 4.29826 -2.70576 0
M  V30 1815 H 173.541 5.14156 -1.13804 0
M  V30 1816 H 176.032 3.58138 -1.20606 0
M  V30 1817 H 176.345 7.10029 -3.05087 0
M  V30 1818 H 174.69 6.38823 -2.73734 0
M  V30 1819 H 177.881 4.4086 -1.57353 0
M  V30 1820 H 178.054 6.01334 -2.41457 0
M  V30 1821 N 171.46 0.379036 1.52974 0
M  V30 1822 C 172.707 -0.206421 2.01445 0
M  V30 1823 C 173.035 -1.47668 1.26587 0
M  V30 1824 O 172.29 -1.92514 0.351675 0
M  V30 1825 C 172.589 -0.53096 3.53434 0
M  V30 1826 C 172.255 0.646546 4.46241 0
M  V30 1827 C 170.917 0.969604 4.7133 0
M  V30 1828 C 173.269 1.43479 5.01062 0
M  V30 1829 C 170.597 2.08263 5.48492 0
M  V30 1830 C 172.949 2.53834 5.7944 0
M  V30 1831 C 171.613 2.86659 6.02812 0
M  V30 1832 H 170.883 -0.0755349 0.73714 0
M  V30 1833 H 173.53 0.514271 1.84465 0
M  V30 1834 H 171.835 -1.33285 3.68432 0
M  V30 1835 H 173.532 -0.996417 3.88423 0
M  V30 1836 H 170.122 0.384734 4.2687 0
M  V30 1837 H 174.306 1.19844 4.81613 0
M  V30 1838 H 169.562 2.34078 5.64816 0
M  V30 1839 H 173.736 3.15319 6.20924 0
M  V30 1840 H 171.363 3.73026 6.62387 0
M  V30 1841 N 172.938 -1.57226 0.108567 0
M  V30 1842 C 174.185 -1.94833 -0.551943 0
M  V30 1843 C 174.513 -0.991204 -1.67348 0
M  V30 1844 O 173.768 -0.0131878 -1.95696 0
M  V30 1845 C 174.067 -3.38911 -1.13463 0
M  V30 1846 C 173.733 -4.50696 -0.135509 0
M  V30 1847 C 172.395 -4.80998 0.139252 0
M  V30 1848 C 174.747 -5.18333 0.545957 0
M  V30 1849 C 172.075 -5.76259 1.10194 0
M  V30 1850 C 174.427 -6.14627 1.49721 0
M  V30 1851 C 173.091 -6.43327 1.78006 0
M  V30 1852 H 172.361 -0.712944 -0.20197 0
M  V30 1853 H 175.008 -1.90582 0.18726 0
M  V30 1854 H 173.313 -3.39805 -1.95037 0
M  V30 1855 H 175.01 -3.65317 -1.65362 0
M  V30 1856 H 171.6 -4.27087 -0.359846 0
M  V30 1857 H 175.784 -4.95087 0.346842 0
M  V30 1858 H 171.04 -5.96804 1.32795 0
M  V30 1859 H 175.214 -6.66126 2.03099 0
M  V30 1860 H 172.841 -7.1695 2.52759 0
M  V30 1861 N 174.416 0.165178 -1.56732 0
M  V30 1862 C 175.364 1.22369 -1.97809 0
M  V30 1863 C 176.358 1.45488 -0.867741 0
M  V30 1864 O 177.564 1.45995 -1.05288 0
M  V30 1865 H 173.939 0.411486 -0.629431 0
M  V30 1866 H 175.91 0.850425 -2.86025 0
M  V30 1867 C 174.659 2.55403 -2.35934 0
M  V30 1868 H 173.982 2.38438 -3.20916 0
M  V30 1869 H 175.422 3.2814 -2.68514 0
M  V30 1870 C 173.881 3.14611 -1.20506 0
M  V30 1871 O 174.411 3.98626 -0.496016 0
M  V30 1872 N 172.617 2.7379 -0.97403 0
M  V30 1873 H 172.164 2.0557 -1.55238 0
M  V30 1874 H 172.122 3.1374 -0.203573 0
M  V30 1875 N 175.894 1.51508 0.433938 0
M  V30 1876 C 176.826 1.69266 1.54537 0
M  V30 1877 C 177.839 0.573276 1.52373 0
M  V30 1878 O 179.028 0.847698 1.57087 0
M  V30 1879 C 176.128 1.69524 2.93453 0
M  V30 1880 C 175.301 2.98101 3.20085 0
M  V30 1881 C 174.36 2.90502 4.38742 0
M  V30 1882 O 173.386 3.64442 4.3723 0
M  V30 1883 N 174.588 2.06586 5.42496 0
M  V30 1884 H 177.353 2.65145 1.39708 0
M  V30 1885 H 174.914 1.49437 0.622922 0
M  V30 1886 H 176.906 1.62004 3.70859 0
M  V30 1887 H 175.476 0.812245 3.01863 0
M  V30 1888 H 174.696 3.19464 2.30947 0
M  V30 1889 H 175.984 3.83207 3.34708 0
M  V30 1890 H 175.382 1.45896 5.46563 0
M  V30 1891 H 173.939 2.04943 6.18742 0
M  V30 1892 N 177.372 -0.689602 1.41712 0
M  V30 1893 C 178.302 -1.81577 1.46806 0
M  V30 1894 C 179.283 -1.66945 0.326105 0
M  V30 1895 O 180.468 -1.86588 0.538377 0
M  V30 1896 C 177.598 -3.19762 1.35535 0
M  V30 1897 C 176.552 -3.49107 2.47605 0
M  V30 1898 C 175.878 -4.86711 2.21397 0
M  V30 1899 C 177.178 -3.47483 3.89939 0
M  V30 1900 H 178.872 -1.7757 2.41058 0
M  V30 1901 H 176.418 -0.852887 1.16025 0
M  V30 1902 H 178.371 -3.98263 1.3771 0
M  V30 1903 H 177.095 -3.24409 0.377708 0
M  V30 1904 H 175.754 -2.72959 2.44722 0
M  V30 1905 H 175.402 -4.8799 1.21961 0
M  V30 1906 H 175.102 -5.0731 2.96497 0
M  V30 1907 H 176.626 -5.67515 2.25297 0
M  V30 1908 H 178.04 -4.1598 3.94505 0
M  V30 1909 H 176.437 -3.79615 4.64771 0
M  V30 1910 H 177.507 -2.46341 4.17665 0
M  V30 1911 N 178.85 -1.27639 -0.924453 0
M  V30 1912 C 180.08 -1.16819 -1.70402 0
M  V30 1913 C 180.488 0.277191 -1.87158 0
M  V30 1914 O 179.831 1.20025 -1.39067 0
M  V30 1915 C 179.893 -1.78305 -3.12166 0
M  V30 1916 C 179.557 -3.27502 -3.18734 0
M  V30 1917 C 180.554 -4.2409 -3.00738 0
M  V30 1918 C 178.239 -3.68269 -3.4159 0
M  V30 1919 C 180.233 -5.59422 -3.05492 0
M  V30 1920 C 177.92 -5.0373 -3.45977 0
M  V30 1921 C 178.918 -5.99116 -3.27946 0
M  V30 1922 O 178.606 -7.32108 -3.32074 0
M  V30 1923 H 178.338 -0.406931 -0.539799 0
M  V30 1924 H 180.892 -1.69078 -1.16626 0
M  V30 1925 H 179.122 -1.20528 -3.67437 0
M  V30 1926 H 180.811 -1.62154 -3.72103 0
M  V30 1927 H 181.577 -3.93931 -2.82919 0
M  V30 1928 H 177.456 -2.94496 -3.54673 0
M  V30 1929 H 181 -6.33852 -2.91337 0
M  V30 1930 H 176.897 -5.33543 -3.63321 0
M  V30 1931 H 177.665 -7.40598 -3.48507 0
M  V30 1932 N 180.328 1.1314 -1.09713 0
M  V30 1933 C 181.291 2.16831 -0.742751 0
M  V30 1934 C 182.291 1.59159 0.229129 0
M  V30 1935 O 183.481 1.74199 0.00693237 0
M  V30 1936 C 180.613 3.40756 -0.0989168 0
M  V30 1937 H 181.806 2.49695 -1.66109 0
M  V30 1938 H 179.359 1.2802 -0.896699 0
M  V30 1939 H 180.094 3.13485 0.830514 0
M  V30 1940 H 179.879 3.83888 -0.798265 0
M  V30 1941 H 181.369 4.17386 0.133524 0
M  V30 1942 N 181.806 0.884767 1.30421 0
M  V30 1943 C 183.054 0.502112 1.95763 0
M  V30 1944 C 183.375 -0.951815 1.70192 0
M  V30 1945 O 182.645 -1.6692 1.0254 0
M  V30 1946 H 181.225 0.182694 0.724315 0
M  V30 1947 H 183.887 1.1278 1.58955 0
M  V30 1948 H 182.983 0.672188 3.04775 0
M  V30 1949 N 183.284 -1.43765 0.645699 0
M  V30 1950 C 184.214 -2.33471 -0.0370477 0
M  V30 1951 C 185.195 -1.49042 -0.819779 0
M  V30 1952 O 186.38 -1.77726 -0.782758 0
M  V30 1953 C 183.51 -3.32311 -1.0093 0
M  V30 1954 C 182.464 -4.2667 -0.337201 0
M  V30 1955 C 181.79 -5.1549 -1.42037 0
M  V30 1956 C 183.09 -5.16657 0.765706 0
M  V30 1957 H 184.784 -2.90809 0.712069 0
M  V30 1958 H 182.33 -1.39834 0.343876 0
M  V30 1959 H 184.283 -3.9396 -1.49578 0
M  V30 1960 H 183.007 -2.73213 -1.78948 0
M  V30 1961 H 181.666 -3.66374 0.128771 0
M  V30 1962 H 181.314 -4.52735 -2.1918 0
M  V30 1963 H 181.014 -5.79438 -0.975966 0
M  V30 1964 H 182.538 -5.80012 -1.90838 0
M  V30 1965 H 183.952 -5.72158 0.361702 0
M  V30 1966 H 182.349 -5.89286 1.13413 0
M  V30 1967 H 183.419 -4.56796 1.62683 0
M  V30 1968 N 184.763 -0.387143 -1.52771 0
M  V30 1969 C 186.04 0.253197 -1.93954 0
M  V30 1970 C 186.42 1.64545 -1.32243 0
M  V30 1971 O 185.768 2.23191 -0.489699 0
M  V30 1972 C 185.978 0.281722 -3.47861 0
M  V30 1973 C 187.326 0.511715 -4.21505 0
M  V30 1974 O 188.35 0.362023 -3.54356 0
M  V30 1975 O 187.209 0.804847 -5.40541 0
M  V30 1976 H 184.303 0.156845 -0.811991 0
M  V30 1977 H 186.849 -0.441494 -1.63856 0
M  V30 1978 H 185.621 -0.693571 -3.85104 0
M  V30 1979 H 185.244 1.02142 -3.84256 0
M  V30 1980 N 186.241 1.57166 -0.116904 0
M  V30 1981 C 187.471 1.99184 0.548586 0
M  V30 1982 C 187.879 0.995436 1.60897 0
M  V30 1983 O 187.222 -0.0201293 1.83689 0
M  V30 1984 C 187.284 3.37611 1.23526 0
M  V30 1985 C 186.948 4.55857 0.323077 0
M  V30 1986 C 187.945 5.18056 -0.437476 0
M  V30 1987 C 185.63 5.01751 0.234761 0
M  V30 1988 C 187.624 6.24536 -1.2741 0
M  V30 1989 C 185.311 6.08093 -0.605496 0
M  V30 1990 C 186.309 6.69352 -1.35856 0
M  V30 1991 O 185.997 7.7364 -2.18487 0
M  V30 1992 H 185.729 0.659148 0.149999 0
M  V30 1993 H 188.283 2.0443 -0.199428 0
M  V30 1994 H 186.513 3.29113 2.0303 0
M  V30 1995 H 188.202 3.63932 1.79745 0
M  V30 1996 H 188.968 4.83516 -0.379105 0
M  V30 1997 H 184.847 4.53817 0.810601 0
M  V30 1998 H 188.391 6.72281 -1.86237 0
M  V30 1999 H 184.288 6.42063 -0.665268 0
M  V30 2000 H 185.056 7.90727 -2.11406 0
M  V30 2001 N 187.719 -0.156864 1.56817 0
M  V30 2002 C 188.949 -0.885031 1.86684 0
M  V30 2003 C 189.357 -1.75696 0.701954 0
M  V30 2004 O 188.7 -1.80569 -0.337732 0
M  V30 2005 C 188.762 -1.80092 3.11138 0
M  V30 2006 C 188.426 -1.10714 4.43386 0
M  V30 2007 C 189.423 -0.465714 5.1781 0
M  V30 2008 C 187.108 -1.09959 4.90117 0
M  V30 2009 C 189.102 0.174002 6.37162 0
M  V30 2010 C 186.789 -0.456055 6.09396 0
M  V30 2011 C 187.787 0.179622 6.82764 0
M  V30 2012 O 187.475 0.812975 7.99779 0
M  V30 2013 H 187.207 -0.261813 0.623242 0
M  V30 2014 H 189.761 -0.157383 2.04796 0
M  V30 2015 H 187.991 -2.56926 2.89009 0
M  V30 2016 H 189.68 -2.40018 3.27332 0
M  V30 2017 H 190.446 -0.463427 4.82781 0
M  V30 2018 H 186.325 -1.58378 4.3294 0
M  V30 2019 H 189.869 0.670765 6.94368 0
M  V30 2020 H 185.766 -0.455975 6.43888 0
M  V30 2021 H 186.534 0.71366 8.15383 0
M  V30 2022 N 189.197 -1.51736 -0.425897 0
M  V30 2023 C 190.422 -1.69082 -1.20108 0
M  V30 2024 C 190.847 -0.392398 -1.83962 0
M  V30 2025 O 190.205 0.64858 -1.69302 0
M  V30 2026 C 190.253 -2.81604 -2.25237 0
M  V30 2027 O 189.357 -2.46004 -3.30992 0
M  V30 2028 H 188.698 -0.563408 -0.35138 0
M  V30 2029 H 191.228 -1.98358 -0.501512 0
M  V30 2030 H 191.238 -3.06025 -2.69838 0
M  V30 2031 H 189.913 -3.75817 -1.78142 0
M  V30 2032 H 188.49 -2.32195 -2.91787 0
M  V30 2033 N 190.675 0.682077 -1.42076 0
M  V30 2034 C 191.605 1.80796 -1.47767 0
M  V30 2035 C 192.586 1.6677 -0.334954 0
M  V30 2036 O 193.771 1.863 -0.548264 0
M  V30 2037 C 190.901 3.19038 -1.37229 0
M  V30 2038 C 189.855 3.47789 -2.49453 0
M  V30 2039 C 189.181 4.8553 -2.23975 0
M  V30 2040 C 190.481 3.45411 -3.91776 0
M  V30 2041 H 192.175 1.7629 -2.41997 0
M  V30 2042 H 189.721 0.846721 -1.16476 0
M  V30 2043 H 191.674 3.97528 -1.39821 0
M  V30 2044 H 190.398 3.24204 -0.394907 0
M  V30 2045 H 189.057 2.71657 -2.46166 0
M  V30 2046 H 188.705 4.87337 -1.24547 0
M  V30 2047 H 188.405 5.0573 -2.99184 0
M  V30 2048 H 189.929 5.66312 -2.28304 0
M  V30 2049 H 191.343 4.13882 -3.96705 0
M  V30 2050 H 189.74 3.77145 -4.66778 0
M  V30 2051 H 190.81 2.44122 -4.18966 0
M  V30 2052 N 192.153 1.28127 0.917671 0
M  V30 2053 C 193.399 1.15223 1.66888 0
M  V30 2054 C 193.732 -0.299293 1.9188 0
M  V30 2055 O 193.007 -1.21805 1.51637 0
M  V30 2056 C 193.29 1.94706 3.02922 0
M  V30 2057 C 193.143 3.47898 2.85109 0
M  V30 2058 C 194.462 1.75939 4.03402 0
M  V30 2059 H 191.581 0.419946 0.605652 0
M  V30 2060 H 194.223 1.57398 1.06423 0
M  V30 2061 H 192.373 1.58864 3.54534 0
M  V30 2062 H 194.045 3.93624 2.40537 0
M  V30 2063 H 192.288 3.7373 2.20246 0
M  V30 2064 H 192.959 3.98765 3.81694 0
M  V30 2065 H 195.435 2.07209 3.60837 0
M  V30 2066 H 194.311 2.33931 4.96556 0
M  V30 2067 H 194.572 0.709877 4.36364 0
M  V30 2068 N 193.631 -1.12557 1.10312 0
M  V30 2069 C 194.594 -2.16434 0.75424 0
M  V30 2070 C 195.594 -1.59278 -0.220685 0
M  V30 2071 O 196.784 -1.742 0.00230591 0
M  V30 2072 C 193.916 -3.40699 0.116987 0
M  V30 2073 H 195.109 -2.48811 1.67431 0
M  V30 2074 H 192.662 -1.27542 0.903475 0
M  V30 2075 H 193.397 -3.13921 -0.813877 0
M  V30 2076 H 193.182 -3.83459 0.818613 0
M  V30 2077 H 194.672 -4.17451 -0.111387 0
M  V30 2078 N 195.109 -0.891671 -1.2995 0
M  V30 2079 C 196.525 -0.58662 -1.48428 0
M  V30 2080 C 196.725 0.873951 -1.81561 0
M  V30 2081 O 195.781 1.65471 -1.90724 0
M  V30 2082 C 197.094 -1.50553 -2.60296 0
M  V30 2083 C 198.642 -1.50988 -2.74175 0
M  V30 2084 C 199.117 -2.41488 -3.89163 0
M  V30 2085 N 200.608 -2.39489 -3.96483 0
M  V30 2086 C 201.343 -3.06223 -4.84784 0
M  V30 2087 N 200.839 -3.82206 -5.77833 0
M  V30 2088 N 202.632 -2.95421 -4.78208 0
M  V30 2089 H 194.783 -1.83644 -1.06718 0
M  V30 2090 H 197.046 -0.786455 -0.529332 0
M  V30 2091 H 196.752 -2.54581 -2.42654 0
M  V30 2092 H 196.626 -1.22008 -3.56923 0
M  V30 2093 H 199.013 -0.47708 -2.91218 0
M  V30 2094 H 199.094 -1.83567 -1.78148 0
M  V30 2095 H 198.738 -3.44857 -3.72876 0
M  V30 2096 H 198.668 -2.06222 -4.84541 0
M  V30 2097 H 201.159 -1.84278 -3.29924 0
M  V30 2098 H 201.472 -4.302 -6.41988 0
M  V30 2099 H 199.817 -3.86313 -5.77743 0
M  V30 2100 H 203.008 -2.35581 -4.04499 0
M  V30 2101 H 203.181 -3.47704 -5.46814 0
M  V30 2102 N 196.587 1.43421 -0.653314 0
M  V30 2103 C 197.834 2.01812 -0.166745 0
M  V30 2104 C 198.162 1.51535 1.21931 0
M  V30 2105 O 197.417 0.698975 1.82792 0
M  V30 2106 C 197.716 3.57176 -0.126623 0
M  V30 2107 C 197.382 4.26798 -1.45444 0
M  V30 2108 C 196.044 4.45534 -1.81805 0
M  V30 2109 C 198.396 4.66225 -2.32989 0
M  V30 2110 C 195.724 5.00961 -3.05377 0
M  V30 2111 C 198.076 5.23021 -3.55853 0
M  V30 2112 C 196.74 5.39973 -3.9241 0
M  V30 2113 H 196.01 0.738484 -0.0610162 0
M  V30 2114 H 198.657 1.71896 -0.84404 0
M  V30 2115 H 196.962 3.86634 0.634123 0
M  V30 2116 H 198.659 4.00112 0.266723 0
M  V30 2117 H 195.249 4.12561 -1.16153 0
M  V30 2118 H 199.433 4.51443 -2.06187 0
M  V30 2119 H 194.689 5.12271 -3.3375 0
M  V30 2120 H 198.863 5.52518 -4.23907 0
M  V30 2121 H 196.49 5.82687 -4.88242 0
M  V30 2122 N 198.065 0.39524 1.52563 0
M  V30 2123 C 198.998 -0.4813 2.23067 0
M  V30 2124 C 199.976 -1.05927 1.23362 0
M  V30 2125 O 201.16 -1.10979 1.52368 0
M  V30 2126 C 198.287 -1.66676 2.9485 0
M  V30 2127 C 197.333 -1.21348 4.08873 0
M  V30 2128 S 198.166 -0.190102 5.35162 0
M  V30 2129 C 199.322 -1.38121 6.1047 0
M  V30 2130 H 199.555 0.117381 2.97068 0
M  V30 2131 H 197.088 0.179458 1.53354 0
M  V30 2132 H 199.046 -2.3466 3.36816 0
M  V30 2133 H 197.707 -2.23676 2.20518 0
M  V30 2134 H 196.9 -2.09877 4.58222 0
M  V30 2135 H 196.502 -0.612486 3.68951 0
M  V30 2136 H 198.794 -2.30726 6.37002 0
M  V30 2137 H 199.737 -0.928521 7.01986 0
M  V30 2138 H 200.145 -1.60071 5.41329 0
M  V30 2139 N 199.544 -1.57102 0.125237 0
M  V30 2140 C 200.772 -1.99761 -0.538797 0
M  V30 2141 C 201.187 -1.00503 -1.59827 0
M  V30 2142 O 200.544 0.00119474 -1.825 0
M  V30 2143 C 200.595 -3.42408 -1.15927 0
M  V30 2144 O 200.316 -4.37869 -0.142143 0
M  V30 2145 C 201.817 -4.00232 -1.90602 0
M  V30 2146 H 199.037 -0.655772 -0.14214 0
M  V30 2147 H 201.581 -2.03383 0.213413 0
M  V30 2148 H 199.736 -3.39706 -1.86223 0
M  V30 2149 H 200.15 -5.21128 -0.593775 0
M  V30 2150 H 201.624 -5.02105 -2.29335 0
M  V30 2151 H 202.101 -3.39721 -2.78363 0
M  V30 2152 H 202.707 -4.06499 -1.25055 0
M  V30 2153 N 201.022 0.148545 -1.56898 0
M  V30 2154 C 201.932 1.20293 -2.01412 0
M  V30 2155 C 202.948 1.47107 -0.929273 0
M  V30 2156 O 204.124 1.58807 -1.23863 0
M  V30 2157 C 201.189 2.51682 -2.38447 0
M  V30 2158 C 200.25 2.32529 -3.60872 0
M  V30 2159 C 199.483 3.57653 -3.96132 0
M  V30 2160 O 199.706 4.63771 -3.32073 0
M  V30 2161 O 198.64 3.50408 -4.89385 0
M  V30 2162 H 202.466 0.855025 -2.91416 0
M  V30 2163 H 200.051 0.357151 -1.45068 0
M  V30 2164 H 201.933 3.29147 -2.63135 0
M  V30 2165 H 200.608 2.86006 -1.51599 0
M  V30 2166 H 199.515 1.53019 -3.41373 0
M  V30 2167 H 200.848 2.03121 -4.48333 0
M  V30 2168 N 202.5 1.5196 0.417844 0
M  V30 2169 C 203.463 1.74065 1.49111 0
M  V30 2170 C 204.463 0.610537 1.48758 0
M  V30 2171 O 205.653 0.87832 1.50437 0
M  V30 2172 C 202.785 1.81502 2.88565 0
M  V30 2173 H 203.978 2.69869 1.30807 0
M  V30 2174 H 201.531 1.42244 0.647785 0
M  V30 2175 H 202.266 0.875813 3.1225 0
M  V30 2176 H 202.051 2.63651 2.90225 0
M  V30 2177 H 203.541 2.00376 3.66387 0
M  V30 2178 N 203.978 -0.674533 1.42435 0
M  V30 2179 C 204.908 -1.80009 1.48724 0
M  V30 2180 C 205.889 -1.6659 0.343793 0
M  V30 2181 O 207.074 -1.86007 0.558137 0
M  V30 2182 C 204.204 -3.18306 1.38919 0
M  V30 2183 C 203.158 -3.46461 2.51294 0
M  V30 2184 C 202.484 -4.84335 2.26547 0
M  V30 2185 C 203.784 -3.43328 3.93603 0
M  V30 2186 H 205.478 -1.75004 2.42928 0
M  V30 2187 H 203.024 -0.840533 1.16923 0
M  V30 2188 H 204.977 -3.9678 1.41927 0
M  V30 2189 H 203.701 -3.2399 0.412094 0
M  V30 2190 H 202.36 -2.70348 2.47604 0
M  V30 2191 H 202.008 -4.86669 1.2713 0
M  V30 2192 H 201.708 -5.04136 3.01861 0
M  V30 2193 H 203.232 -5.65094 2.31304 0
M  V30 2194 H 204.646 -4.11772 3.98894 0
M  V30 2195 H 203.043 -3.74664 4.68771 0
M  V30 2196 H 204.113 -2.41897 4.20255 0
M  V30 2197 N 205.456 -1.28612 -0.910864 0
M  V30 2198 C 206.404 -1.1265 -2.03501 0
M  V30 2199 C 207.398 -0.0450054 -1.6934 0
M  V30 2200 O 208.604 -0.203988 -1.7884 0
M  V30 2201 H 204.979 -0.347639 -0.666822 0
M  V30 2202 H 206.95 -2.07849 -2.14106 0
M  V30 2203 C 205.699 -0.808143 -3.38178 0
M  V30 2204 H 205.022 -1.63231 -3.6496 0
M  V30 2205 H 206.462 -0.736426 -4.17556 0
M  V30 2206 C 204.921 0.488226 -3.33344 0
M  V30 2207 O 205.451 1.51766 -3.71927 0
M  V30 2208 N 203.657 0.490009 -2.86439 0
M  V30 2209 H 203.204 -0.348161 -2.55236 0
M  V30 2210 H 203.162 1.35741 -2.83587 0
M  V30 2211 N 206.934 1.1197 -1.10907 0
M  V30 2212 C 208.345 1.65114 -0.871446 0
M  V30 2213 C 208.696 1.86885 0.597353 0
M  V30 2214 O 207.821 1.59896 1.45816 0
M  V30 2215 C 208.416 2.99944 -1.5754 0
M  V30 2216 C 206.975 3.50018 -1.38435 0
M  V30 2217 C 206.122 2.24941 -1.62164 0
M  V30 2218 H 209.073 0.956851 -1.2661 0
M  V30 2219 H 209.094 3.66651 -1.01721 0
M  V30 2220 H 208.606 2.84067 -2.64438 0
M  V30 2221 H 206.707 3.71071 -0.337214 0
M  V30 2222 H 206.82 4.29165 -2.12965 0
M  V30 2223 H 205.184 2.3229 -1.04467 0
M  V30 2224 H 205.967 2.11612 -2.70324 0
M  V30 2225 N 208.412 0.89855 1.29475 0
M  V30 2226 C 209.637 0.538561 2.00285 0
M  V30 2227 C 210.062 -0.869135 1.66816 0
M  V30 2228 O 209.42 -1.57831 0.892145 0
M  V30 2229 C 209.468 0.736475 3.52999 0
M  V30 2230 O 208.572 -0.211537 4.11857 0
M  V30 2231 H 207.913 0.210563 0.62973 0
M  V30 2232 H 210.443 1.20982 1.64998 0
M  V30 2233 H 210.453 0.640685 4.02938 0
M  V30 2234 H 209.128 1.76276 3.76696 0
M  V30 2235 H 207.705 -0.0682991 3.72837 0
M  V30 2236 N 209.89 -1.43072 0.660911 0
M  V30 2237 C 211.136 -2.0202 0.177708 0
M  V30 2238 C 211.469 -1.52066 -1.20787 0
M  V30 2239 O 210.744 -0.716987 -1.80802 0
M  V30 2240 C 211.027 -3.59561 0.197019 0
M  V30 2241 C 210.88 -4.19727 1.61706 0
M  V30 2242 C 212.199 -4.37664 -0.462396 0
M  V30 2243 H 209.318 -0.734034 0.0660494 0
M  V30 2244 H 211.96 -1.70272 0.843058 0
M  V30 2245 H 210.11 -3.86739 -0.369527 0
M  V30 2246 H 211.782 -4.03553 2.23479 0
M  V30 2247 H 210.025 -3.76084 2.16201 0
M  V30 2248 H 210.696 -5.28834 1.58237 0
M  V30 2249 H 213.172 -4.16095 0.0197215 0
M  V30 2250 H 212.048 -5.47305 -0.418188 0
M  V30 2251 H 212.309 -4.14493 -1.53778 0
M  V30 2252 N 211.368 -0.403325 -1.52352 0
M  V30 2253 C 212.598 0.17376 -2.05868 0
M  V30 2254 C 213.006 1.39898 -1.27378 0
M  V30 2255 O 212.349 1.80939 -0.31729 0
M  V30 2256 C 212.411 0.594756 -3.54546 0
M  V30 2257 C 212.075 -0.518926 -4.54044 0
M  V30 2258 C 213.072 -1.3807 -5.01231 0
M  V30 2259 C 210.757 -0.689961 -4.97539 0
M  V30 2260 C 212.751 -2.39852 -5.90551 0
M  V30 2261 C 210.438 -1.71109 -5.86656 0
M  V30 2262 C 211.436 -2.56378 -6.33056 0
M  V30 2263 O 211.124 -3.56743 -7.20409 0
M  V30 2264 H 210.856 0.0264951 -0.675481 0
M  V30 2265 H 213.41 -0.571179 -1.97299 0
M  V30 2266 H 211.64 1.39189 -3.60782 0
M  V30 2267 H 213.329 1.0991 -3.90736 0
M  V30 2268 H 214.095 -1.25994 -4.68349 0
M  V30 2269 H 209.974 -0.035939 -4.60986 0
M  V30 2270 H 213.518 -3.06441 -6.26689 0
M  V30 2271 H 209.415 -1.83218 -6.18952 0
M  V30 2272 H 210.183 -3.52918 -7.38506 0
M  V30 2273 N 212.846 1.57033 -0.133567 0
M  V30 2274 C 214.074 2.00044 0.528195 0
M  V30 2275 C 214.489 1.01349 1.59291 0
M  V30 2276 O 213.846 0.00848369 1.82498 0
M  V30 2277 C 213.897 3.43018 1.1411 0
M  V30 2278 O 213.618 4.37939 0.11892 0
M  V30 2279 C 215.119 4.01237 1.88477 0
M  V30 2280 H 212.339 0.656517 0.138661 0
M  V30 2281 H 214.883 2.03267 -0.224196 0
M  V30 2282 H 213.038 3.40688 1.84418 0
M  V30 2283 H 213.452 5.21436 0.56613 0
M  V30 2284 H 214.926 5.03314 2.26669 0
M  V30 2285 H 215.403 3.41193 2.76558 0
M  V30 2286 H 216.009 4.07156 1.22898 0
M  V30 2287 N 214.325 -0.140222 1.56975 0
M  V30 2288 C 215.555 -0.865181 1.87612 0
M  V30 2289 C 215.963 -1.74942 0.72055 0
M  V30 2290 O 215.306 -1.80917 -0.318561 0
M  V30 2291 C 215.368 -1.76782 3.13031 0
M  V30 2292 C 215.032 -1.06005 4.44536 0
M  V30 2293 C 216.029 -0.410768 5.18275 0
M  V30 2294 C 213.714 -1.04754 4.91255 0
M  V30 2295 C 215.708 0.241572 6.36942 0
M  V30 2296 C 213.395 -0.391394 6.09845 0
M  V30 2297 C 214.393 0.252029 6.82535 0
M  V30 2298 O 214.081 0.897757 7.98871 0
M  V30 2299 H 213.813 -0.255188 0.625983 0
M  V30 2300 H 216.367 -0.135653 2.04952 0
M  V30 2301 H 214.597 -2.53846 2.91718 0
M  V30 2302 H 216.286 -2.36533 3.29859 0
M  V30 2303 H 217.052 -0.412195 4.83245 0
M  V30 2304 H 212.931 -1.53777 4.34596 0
M  V30 2305 H 216.475 0.744375 6.93617 0
M  V30 2306 H 212.372 -0.387656 6.44335 0
M  V30 2307 H 213.14 0.800102 8.1458 0
M  V30 2308 N 215.803 -1.52179 -0.40978 0
M  V30 2309 C 216.713 -1.78364 -1.52392 0
M  V30 2310 C 217.729 -0.669183 -1.60617 0
M  V30 2311 O 218.905 -0.954518 -1.77344 0
M  V30 2312 C 215.97 -1.92822 -2.88133 0
M  V30 2313 C 215.031 -3.16725 -2.898 0
M  V30 2314 C 214.264 -3.30483 -4.19067 0
M  V30 2315 O 214.487 -2.49522 -5.12928 0
M  V30 2316 O 213.421 -4.2363 -4.27576 0
M  V30 2317 H 217.247 -2.72931 -1.33201 0
M  V30 2318 H 214.832 -1.37016 -0.59557 0
M  V30 2319 H 216.714 -2.04157 -3.68643 0
M  V30 2320 H 215.389 -1.01444 -3.07393 0
M  V30 2321 H 214.296 -3.10848 -2.08146 0
M  V30 2322 H 215.629 -4.07881 -2.75489 0
M  V30 2323 N 217.281 0.66697 -1.42791 0
M  V30 2324 C 218.527 1.4291 -1.43891 0
M  V30 2325 C 218.86 1.94114 -0.0578972 0
M  V30 2326 O 218.135 1.71414 0.91911 0
M  V30 2327 C 218.418 2.62049 -2.46987 0
M  V30 2328 C 218.271 2.16426 -3.94309 0
M  V30 2329 C 219.59 3.64266 -2.46978 0
M  V30 2330 H 216.709 0.518306 -0.523954 0
M  V30 2331 H 219.351 0.757321 -1.74255 0
M  V30 2332 H 217.501 3.19361 -2.21225 0
M  V30 2333 H 219.173 1.64221 -4.31079 0
M  V30 2334 H 217.416 1.47925 -4.078 0
M  V30 2335 H 218.087 3.02038 -4.62036 0
M  V30 2336 H 220.563 3.16686 -2.69906 0
M  V30 2337 H 219.439 4.45196 -3.21079 0
M  V30 2338 H 219.7 4.15927 -1.49857 0
M  V30 2339 N 218.759 1.29093 0.90403 0
M  V30 2340 C 219.984 1.19809 1.69294 0
M  V30 2341 C 220.409 -0.238481 1.86582 0
M  V30 2342 O 219.767 -1.1723 1.383 0
M  V30 2343 C 219.815 1.91202 3.05736 0
M  V30 2344 O 218.919 1.22611 3.93752 0
M  V30 2345 H 218.26 0.415385 0.518027 0
M  V30 2346 H 220.79 1.70586 1.12967 0
M  V30 2347 H 220.8 1.99487 3.55906 0
M  V30 2348 H 219.475 2.95692 2.92471 0
M  V30 2349 H 218.052 1.22554 3.52186 0
M  V30 2350 N 220.237 -1.11381 1.11499 0
M  V30 2351 C 221.648 -1.6465 0.880191 0
M  V30 2352 C 221.999 -1.87199 -0.587434 0
M  V30 2353 O 221.124 -1.60667 -1.44966 0
M  V30 2354 C 221.719 -2.99105 1.59128 0
M  V30 2355 C 220.278 -3.49279 1.40289 0
M  V30 2356 C 219.425 -2.24077 1.63354 0
M  V30 2357 H 222.376 -0.950123 1.27116 0
M  V30 2358 H 222.397 -3.66107 1.03664 0
M  V30 2359 H 221.909 -2.82661 2.65941 0
M  V30 2360 H 220.01 -3.70887 0.356888 0
M  V30 2361 H 220.123 -4.2803 2.15238 0
M  V30 2362 H 218.487 -2.31733 1.05698 0
M  V30 2363 H 219.27 -2.10175 2.71443 0
M  V30 2364 N 221.715 -0.905404 -1.28997 0
M  V30 2365 C 222.961 -0.535039 -1.95615 0
M  V30 2366 C 223.294 0.917404 -1.71165 0
M  V30 2367 O 222.569 1.65123 -1.02785 0
M  V30 2368 C 222.852 -0.834918 -3.50287 0
M  V30 2369 C 222.705 -2.33948 -3.84172 0
M  V30 2370 C 224.024 -0.325318 -4.38896 0
M  V30 2371 H 221.143 -0.195861 -0.710498 0
M  V30 2372 H 223.785 -1.13313 -1.52513 0
M  V30 2373 H 221.935 -0.325904 -3.87131 0
M  V30 2374 H 223.607 -2.91847 -3.57243 0
M  V30 2375 H 221.85 -2.79789 -3.31513 0
M  V30 2376 H 222.521 -2.49987 -4.92149 0
M  V30 2377 H 224.997 -0.761256 -4.09077 0
M  V30 2378 H 223.873 -0.564295 -5.45992 0
M  V30 2379 H 224.134 0.774144 -4.35269 0
M  V30 2380 N 223.193 1.4272 -0.668489 0
M  V30 2381 C 224.44 2.01624 -0.18814 0
M  V30 2382 C 224.768 1.5282 1.20317 0
M  V30 2383 O 224.023 0.718323 1.8204 0
M  V30 2384 C 224.322 3.57021 -0.164499 0
M  V30 2385 C 223.988 4.25232 -1.49962 0
M  V30 2386 C 222.65 4.4358 -1.8652 0
M  V30 2387 C 225.002 4.63727 -2.37921 0
M  V30 2388 C 222.33 4.97694 -3.10674 0
M  V30 2389 C 224.682 5.19218 -3.6138 0
M  V30 2390 C 223.346 5.3578 -3.98115 0
M  V30 2391 H 222.616 0.737795 -0.0688454 0
M  V30 2392 H 225.263 1.70991 -0.862225 0
M  V30 2393 H 223.568 3.87285 0.593079 0
M  V30 2394 H 225.265 4.00372 0.224271 0
M  V30 2395 H 221.855 4.11306 -1.20522 0
M  V30 2396 H 226.039 4.4923 -2.10964 0
M  V30 2397 H 221.295 5.08702 -3.39164 0
M  V30 2398 H 225.469 5.4799 -4.29743 0
M  V30 2399 H 223.096 5.77475 -4.94395 0
M  V30 2400 N 224.671 0.411399 1.52136 0
M  V30 2401 C 225.601 -0.404015 2.29978 0
M  V30 2402 C 226.582 -1.04412 1.34284 0
M  V30 2403 O 227.767 -1.0527 1.63192 0
M  V30 2404 C 224.897 -1.5197 3.12286 0
M  V30 2405 C 223.851 -1.00448 4.16046 0
M  V30 2406 C 223.177 -2.21393 4.86712 0
M  V30 2407 C 224.477 -0.0569336 5.22269 0
M  V30 2408 H 226.171 0.245529 2.98392 0
M  V30 2409 H 223.717 0.119525 1.43503 0
M  V30 2410 H 225.67 -2.09715 3.6551 0
M  V30 2411 H 224.394 -2.19716 2.41646 0
M  V30 2412 H 223.053 -0.449421 3.63835 0
M  V30 2413 H 222.701 -2.87699 4.12599 0
M  V30 2414 H 222.401 -1.87571 5.56858 0
M  V30 2415 H 223.925 -2.7974 5.4275 0
M  V30 2416 H 225.339 -0.54325 5.7072 0
M  V30 2417 H 223.736 0.192594 5.99791 0
M  V30 2418 H 224.806 0.887663 4.76706 0
M  V30 2419 N 226.149 -1.5696 0.141893 0
M  V30 2420 C 227.079 -2.19516 -0.795936 0
M  V30 2421 C 228.06 -1.14187 -1.26077 0
M  V30 2422 O 229.245 -1.42511 -1.31925 0
M  V30 2423 C 226.375 -2.81272 -2.03723 0
M  V30 2424 C 225.329 -3.92384 -1.70936 0
M  V30 2425 C 224.655 -4.41052 -3.02287 0
M  V30 2426 C 225.955 -5.13403 -0.959954 0
M  V30 2427 H 227.649 -2.98138 -0.274596 0
M  V30 2428 H 225.195 -1.43406 -0.130636 0
M  V30 2429 H 227.148 -3.237 -2.69808 0
M  V30 2430 H 225.872 -1.99973 -2.58221 0
M  V30 2431 H 224.531 -3.50566 -1.07232 0
M  V30 2432 H 224.179 -3.56582 -3.54765 0
M  V30 2433 H 223.879 -5.15993 -2.81114 0
M  V30 2434 H 225.403 -4.86146 -3.69451 0
M  V30 2435 H 226.817 -5.52706 -1.52279 0
M  V30 2436 H 225.214 -5.94073 -0.848357 0
M  V30 2437 H 226.284 -4.84875 0.0492434 0
M  V30 2438 N 227.627 0.131896 -1.57047 0
M  V30 2439 C 228.873 0.843179 -1.84441 0
M  V30 2440 C 229.206 1.80129 -0.725749 0
M  V30 2441 O 228.481 1.92624 0.269469 0
M  V30 2442 C 228.764 1.60442 -3.22382 0
M  V30 2443 C 228.617 0.666782 -4.4483 0
M  V30 2444 C 229.936 2.56354 -3.5773 0
M  V30 2445 H 227.055 0.305081 -0.670891 0
M  V30 2446 H 229.697 0.107839 -1.89694 0
M  V30 2447 H 227.847 2.23128 -3.18035 0
M  V30 2448 H 229.519 0.0497646 -4.61273 0
M  V30 2449 H 227.762 -0.022609 -4.33794 0
M  V30 2450 H 228.433 1.23579 -5.37989 0
M  V30 2451 H 230.909 2.0378 -3.62785 0
M  V30 2452 H 229.785 3.06657 -4.5525 0
M  V30 2453 H 230.046 3.38419 -2.84473 0
M  V30 2454 N 229.106 1.52395 0.401703 0
M  V30 2455 C 230.016 1.7917 1.51444 0
M  V30 2456 C 231.032 0.677691 1.6026 0
M  V30 2457 O 232.208 0.963909 1.76835 0
M  V30 2458 C 229.273 1.94347 2.87107 0
M  V30 2459 C 228.334 3.18257 2.88116 0
M  V30 2460 C 227.567 3.32701 4.17308 0
M  V30 2461 O 227.79 2.52238 5.11598 0
M  V30 2462 O 226.724 4.25891 4.25324 0
M  V30 2463 H 230.55 2.73633 1.31752 0
M  V30 2464 H 228.135 1.3733 0.588296 0
M  V30 2465 H 230.017 2.06109 3.67555 0
M  V30 2466 H 228.692 1.03073 3.06851 0
M  V30 2467 H 227.599 3.11947 2.06494 0
M  V30 2468 H 228.932 4.09336 2.73322 0
M  V30 2469 N 230.584 -0.659388 1.43143 0
M  V30 2470 C 231.494 -1.80167 1.50256 0
M  V30 2471 C 232.51 -1.69571 0.390106 0
M  V30 2472 O 233.686 -1.90849 0.643319 0
M  V30 2473 C 230.751 -3.16409 1.41725 0
M  V30 2474 C 229.812 -3.38848 2.63591 0
M  V30 2475 C 229.045 -4.68591 2.55458 0
M  V30 2476 O 229.268 -5.47532 1.59891 0
M  V30 2477 O 228.202 -4.92614 3.45854 0
M  V30 2478 H 232.028 -1.77121 2.46702 0
M  V30 2479 H 229.613 -0.817092 1.25076 0
M  V30 2480 H 231.495 -3.9768 1.39387 0
M  V30 2481 H 230.17 -3.20059 0.484118 0
M  V30 2482 H 229.077 -2.57366 2.71502 0
M  V30 2483 H 230.41 -3.4004 3.55856 0
M  V30 2484 N 232.062 -1.29571 -0.897171 0
M  V30 2485 C 233.025 -1.14913 -1.98312 0
M  V30 2486 C 234.025 -0.0838629 -1.60581 0
M  V30 2487 O 235.215 -0.331006 -1.71026 0
M  V30 2488 C 232.347 -0.757835 -3.3237 0
M  V30 2489 H 233.54 -2.11377 -2.12743 0
M  V30 2490 H 231.093 -1.12793 -1.08201 0
M  V30 2491 H 231.828 0.206837 -3.2364 0
M  V30 2492 H 231.613 -1.52755 -3.61121 0
M  V30 2493 H 233.103 -0.678408 -4.12053 0
M  V30 2494 N 233.54 1.10788 -1.12088 0
M  V30 2495 C 234.786 1.82942 -0.875226 0
M  V30 2496 C 235.119 1.84779 0.597538 0
M  V30 2497 O 234.394 1.30578 1.44152 0
M  V30 2498 C 234.677 3.29789 -1.44606 0
M  V30 2499 C 234.53 3.36307 -2.98693 0
M  V30 2500 C 235.849 4.26064 -1.10261 0
M  V30 2501 H 232.968 0.664195 -0.319397 0
M  V30 2502 H 235.61 1.29867 -1.38689 0
M  V30 2503 H 233.76 3.75118 -1.01089 0
M  V30 2504 H 235.432 2.99487 -3.50864 0
M  V30 2505 H 233.675 2.76318 -3.34411 0
M  V30 2506 H 234.346 4.39694 -3.33726 0
M  V30 2507 H 236.822 3.88951 -1.4784 0
M  V30 2508 H 235.698 5.27183 -1.52869 0
M  V30 2509 H 235.959 4.42098 -0.0142953 0
M  V30 2510 N 235.018 0.912232 1.28515 0
M  V30 2511 C 235.948 0.416403 2.29757 0
M  V30 2512 C 236.929 -0.515194 1.6211 0
M  V30 2513 O 238.114 -0.423253 1.89532 0
M  V30 2514 C 235.244 -0.34572 3.45575 0
M  V30 2515 C 234.198 0.496599 4.25109 0
M  V30 2516 C 233.524 -0.393771 5.33248 0
M  V30 2517 C 234.824 1.75307 4.92001 0
M  V30 2518 H 236.518 1.26249 2.7148 0
M  V30 2519 H 234.064 0.608515 1.30511 0
M  V30 2520 H 236.017 -0.703422 4.15488 0
M  V30 2521 H 234.741 -1.2257 3.02728 0
M  V30 2522 H 233.4 0.8368 3.56922 0
M  V30 2523 H 233.048 -1.27225 4.86644 0
M  V30 2524 H 232.748 0.166209 5.87365 0
M  V30 2525 H 234.272 -0.747389 6.06009 0
M  V30 2526 H 235.686 1.46437 5.54283 0
M  V30 2527 H 234.083 2.25534 5.56106 0
M  V30 2528 H 235.153 2.48176 4.16577 0
M  V30 2529 N 236.496 -1.42363 0.676048 0
M  V30 2530 C 237.443 -2.308 -0.00150904 0
M  V30 2531 C 238.413 -1.46032 -0.791444 0
M  V30 2532 O 239.598 -1.74861 -0.76344 0
M  V30 2533 C 236.738 -3.31883 -0.945919 0
M  V30 2534 C 235.851 -4.31741 -0.149675 0
M  V30 2535 C 234.986 -5.19898 -1.08995 0
M  V30 2536 C 234.025 -6.11434 -0.285465 0
M  V30 2537 N 233.162 -6.92138 -1.17851 0
M  V30 2538 H 238.002 -2.88187 0.758455 0
M  V30 2539 H 235.539 -1.41952 0.38576 0
M  V30 2540 H 237.497 -3.89019 -1.50731 0
M  V30 2541 H 236.127 -2.76093 -1.6725 0
M  V30 2542 H 235.179 -3.76713 0.528359 0
M  V30 2543 H 236.491 -4.96534 0.474866 0
M  V30 2544 H 235.645 -5.81772 -1.72123 0
M  V30 2545 H 234.384 -4.55284 -1.74837 0
M  V30 2546 H 233.389 -5.48627 0.359018 0
M  V30 2547 H 234.614 -6.78097 0.368883 0
M  V30 2548 H 232.56 -6.30152 -1.82332 0
M  V30 2549 H 232.477 -7.53542 -0.609082 0
M  V30 2550 H 233.745 -7.58499 -1.79722 0
M  V30 2551 N 237.974 -0.419461 -1.51915 0
M  V30 2552 C 238.921 0.400927 -2.27291 0
M  V30 2553 C 239.891 1.03224 -1.30131 0
M  V30 2554 O 241.076 1.05455 -1.59009 0
M  V30 2555 C 238.216 1.50603 -3.10504 0
M  V30 2556 C 237.329 0.89462 -4.22635 0
M  V30 2557 C 236.464 1.97328 -4.93189 0
M  V30 2558 C 235.503 1.33935 -5.97267 0
M  V30 2559 N 234.64 2.3586 -6.61298 0
M  V30 2560 H 239.48 -0.248251 -2.96964 0
M  V30 2561 H 237.017 -0.134266 -1.46486 0
M  V30 2562 H 238.975 2.15783 -3.57062 0
M  V30 2563 H 237.605 2.12509 -2.42981 0
M  V30 2564 H 236.657 0.131583 -3.80172 0
M  V30 2565 H 237.969 0.391641 -4.9726 0
M  V30 2566 H 237.123 2.70211 -5.43204 0
M  V30 2567 H 235.862 2.50994 -4.18155 0
M  V30 2568 H 234.867 0.595896 -5.46561 0
M  V30 2569 H 236.092 0.810252 -6.74249 0
M  V30 2570 H 234.038 2.88639 -5.89087 0
M  V30 2571 H 233.955 1.90403 -7.3163 0
M  V30 2572 H 235.223 3.08282 -7.15949 0
M  V30 2573 N 239.452 1.56882 -0.150215 0
M  V30 2574 C 240.385 2.12712 0.826358 0
M  V30 2575 C 241.363 1.05154 1.24022 0
M  V30 2576 O 242.547 1.33004 1.33575 0
M  V30 2577 C 239.674 2.64945 2.11002 0
M  V30 2578 C 238.72 3.8468 1.84183 0
M  V30 2579 S 239.553 5.25502 1.02995 0
M  V30 2580 C 240.709 5.81125 2.32474 0
M  V30 2581 H 240.942 2.95214 0.351598 0
M  V30 2582 H 238.475 1.54267 0.0641211 0
M  V30 2583 H 240.433 2.95689 2.84742 0
M  V30 2584 H 239.094 1.82568 2.55593 0
M  V30 2585 H 238.287 4.19482 2.79375 0
M  V30 2586 H 237.889 3.54714 1.1855 0
M  V30 2587 H 240.181 5.92753 3.281 0
M  V30 2588 H 241.124 6.78625 2.02171 0
M  V30 2589 H 241.532 5.09392 2.43269 0
M  V30 2590 N 240.93 -0.123565 1.57115 0
M  V30 2591 C 242.179 -0.830704 1.83799 0
M  V30 2592 C 242.492 -1.81259 0.735158 0
M  V30 2593 O 243.698 -2.56558 0.888278 0
M  V30 2594 C 242.154 -1.52802 3.25852 0
M  V30 2595 C 241.762 -0.587356 4.44133 0
M  V30 2596 C 243.506 -2.22056 3.61789 0
M  V30 2597 C 241.413 -1.28764 5.77212 0
M  V30 2598 H 240.343 -0.313967 0.685522 0
M  V30 2599 H 242.994 -0.0834359 1.8331 0
M  V30 2600 H 241.376 -2.32175 3.20797 0
M  V30 2601 H 242.55 0.172829 4.60476 0
M  V30 2602 H 240.865 -0.00201892 4.164 0
M  V30 2603 H 243.462 -2.75131 4.58483 0
M  V30 2604 H 243.805 -2.99644 2.88997 0
M  V30 2605 H 244.338 -1.49576 3.68608 0
M  V30 2606 H 241.077 -0.55314 6.53162 0
M  V30 2607 H 240.597 -2.01995 5.64764 0
M  V30 2608 H 242.276 -1.8221 6.20813 0
M  V30 2609 N 242.408 -1.52605 -0.393616 0
M  V30 2610 C 243.318 -1.79971 -1.50492 0
M  V30 2611 C 244.334 -0.686181 -1.59899 0
M  V30 2612 O 245.51 -0.973274 -1.76322 0
M  V30 2613 C 242.575 -1.95867 -2.86072 0
M  V30 2614 C 241.636 -3.19781 -2.86424 0
M  V30 2615 C 240.869 -3.34909 -4.15538 0
M  V30 2616 O 241.092 -2.54948 -5.10253 0
M  V30 2617 O 240.026 -4.28141 -4.23059 0
M  V30 2618 H 243.852 -2.74328 -1.30299 0
M  V30 2619 H 241.437 -1.3764 -0.581005 0
M  V30 2620 H 243.319 -2.08056 -3.66457 0
M  V30 2621 H 241.994 -1.04699 -3.063 0
M  V30 2622 H 240.901 -3.13038 -2.04837 0
M  V30 2623 H 242.234 -4.1078 -2.71147 0
M  V30 2624 N 243.887 0.651787 -1.4349 0
M  V30 2625 C 245.134 1.41167 -1.45183 0
M  V30 2626 C 245.462 1.94349 -0.0766601 0
M  V30 2627 O 244.717 1.72804 0.918555 0
M  V30 2628 C 245.016 2.60914 -2.44251 0
M  V30 2629 C 244.682 2.26142 -3.9009 0
M  V30 2630 C 243.344 2.16371 -4.2981 0
M  V30 2631 C 245.696 1.98334 -4.81989 0
M  V30 2632 C 243.024 1.7695 -5.5938 0
M  V30 2633 C 245.376 1.6041 -6.11924 0
M  V30 2634 C 244.04 1.49166 -6.5062 0
M  V30 2635 H 243.31 0.516566 -0.531263 0
M  V30 2636 H 245.957 0.741099 -1.76579 0
M  V30 2637 H 244.262 3.3311 -2.06265 0
M  V30 2638 H 245.959 3.19127 -2.42815 0
M  V30 2639 H 242.549 2.34658 -3.58655 0
M  V30 2640 H 246.733 2.04803 -4.52072 0
M  V30 2641 H 241.989 1.66831 -5.88198 0
M  V30 2642 H 246.163 1.37925 -6.82605 0
M  V30 2643 H 243.79 1.1839 -7.50925 0
M  V30 2644 N 245.365 1.30045 0.890287 0
M  V30 2645 C 246.614 1.17929 1.63633 0
M  V30 2646 C 246.927 -0.266204 1.9378 0
M  V30 2647 O 248.133 -0.508804 2.6669 0
M  V30 2648 C 246.589 2.06317 2.94892 0
M  V30 2649 C 246.197 3.55745 2.72305 0
M  V30 2650 C 247.941 2.0295 3.72843 0
M  V30 2651 C 245.848 4.36205 3.99348 0
M  V30 2652 H 244.778 0.437782 0.613892 0
M  V30 2653 H 247.429 1.54754 0.986075 0
M  V30 2654 H 245.811 1.6237 3.61182 0
M  V30 2655 H 246.985 4.07805 2.1455 0
M  V30 2656 H 245.3 3.6088 2.07737 0
M  V30 2657 H 247.897 2.60319 4.67053 0
M  V30 2658 H 248.24 1.0117 4.0382 0
M  V30 2659 H 248.773 2.4499 3.13408 0
M  V30 2660 H 245.512 5.38659 3.73533 0
M  V30 2661 H 245.032 3.8891 4.56628 0
M  V30 2662 H 246.711 4.47362 4.67415 0
M  V30 2663 N 246.843 -1.10192 1.12674 0
M  V30 2664 C 248.091 -1.81845 0.881861 0
M  V30 2665 C 248.412 -1.85737 -0.593867 0
M  V30 2666 O 247.682 -1.33724 -1.4316 0
M  V30 2667 H 246.262 -0.673432 0.323261 0
M  V30 2668 H 248.924 -1.33316 1.42172 0
M  V30 2669 H 248.02 -2.85288 1.2656 0
M  V30 2670 N 248.321 -0.919034 -1.28029 0
M  V30 2671 C 249.567 -0.565221 -1.95389 0
M  V30 2672 C 249.922 0.882325 -1.70976 0
M  V30 2673 O 249.215 1.61988 -1.02325 0
M  V30 2674 C 249.409 -0.816855 -3.4794 0
M  V30 2675 C 249.238 -2.28731 -3.87185 0
M  V30 2676 C 248.008 -2.93841 -4.11079 0
M  V30 2677 C 250.206 -3.26415 -3.97439 0
M  V30 2678 N 248.188 -4.31129 -4.37037 0
M  V30 2679 C 249.559 -4.48884 -4.27672 0
M  V30 2680 C 251.614 -3.21742 -3.79982 0
M  V30 2681 C 250.317 -5.67268 -4.42266 0
M  V30 2682 C 252.343 -4.39431 -3.95796 0
M  V30 2683 C 251.705 -5.60675 -4.26407 0
M  V30 2684 H 247.804 -0.256797 -0.738633 0
M  V30 2685 H 250.388 -1.18386 -1.54573 0
M  V30 2686 H 248.559 -0.227445 -3.87733 0
M  V30 2687 H 250.291 -0.426542 -4.02446 0
M  V30 2688 H 247.046 -2.44547 -4.05578 0
M  V30 2689 H 247.47 -5.02127 -4.5409 0
M  V30 2690 H 252.112 -2.29079 -3.55363 0
M  V30 2691 H 249.83 -6.60406 -4.65714 0
M  V30 2692 H 253.416 -4.37323 -3.83719 0
M  V30 2693 H 252.296 -6.50223 -4.38383 0
M  V30 2694 N 249.799 1.42003 -0.683588 0
M  V30 2695 C 250.746 2.30798 -0.0107309 0
M  V30 2696 C 251.716 1.4645 0.783688 0
M  V30 2697 O 252.901 1.75263 0.754156 0
M  V30 2698 C 250.041 3.3238 0.928306 0
M  V30 2699 C 249.154 4.31814 0.126776 0
M  V30 2700 C 248.289 5.20468 1.06236 0
M  V30 2701 C 247.328 6.11577 0.253035 0
M  V30 2702 N 246.465 6.92754 1.14179 0
M  V30 2703 H 251.305 2.8778 -0.773727 0
M  V30 2704 H 248.842 1.41745 -0.393283 0
M  V30 2705 H 250.8 3.89813 1.48666 0
M  V30 2706 H 249.43 2.76976 1.65783 0
M  V30 2707 H 248.482 3.76427 -0.54833 0
M  V30 2708 H 249.794 4.96276 -0.501192 0
M  V30 2709 H 248.948 5.82677 1.69035 0
M  V30 2710 H 247.687 4.56204 1.7242 0
M  V30 2711 H 246.692 5.48428 -0.388108 0
M  V30 2712 H 247.917 6.77892 -0.404839 0
M  V30 2713 H 245.863 6.3111 1.78987 0
M  V30 2714 H 245.78 7.53855 0.569111 0
M  V30 2715 H 247.048 7.59441 1.75697 0
M  V30 2716 N 251.277 0.427512 1.51691 0
M  V30 2717 C 252.187 -0.39527 2.31246 0
M  V30 2718 C 253.203 -1.03674 1.39742 0
M  V30 2719 O 254.379 -1.03425 1.72816 0
M  V30 2720 C 251.444 -1.48706 3.13189 0
M  V30 2721 C 250.505 -0.866743 4.20459 0
M  V30 2722 C 249.738 -1.90651 4.98486 0
M  V30 2723 O 249.961 -3.12733 4.77026 0
M  V30 2724 O 248.895 -1.5025 5.82845 0
M  V30 2725 H 252.721 0.253918 3.02637 0
M  V30 2726 H 250.306 0.190274 1.48183 0
M  V30 2727 H 252.188 -2.12047 3.64162 0
M  V30 2728 H 250.863 -2.12051 2.44573 0
M  V30 2729 H 249.77 -0.195544 3.73589 0
M  V30 2730 H 251.103 -0.276934 4.9142 0
M  V30 2731 N 252.755 -1.56801 0.158532 0
M  V30 2732 C 254.003 -1.96102 -0.488712 0
M  V30 2733 C 254.324 -1.04498 -1.64636 0
M  V30 2734 O 253.594 -0.108783 -1.95598 0
M  V30 2735 H 252.174 -0.724102 -0.183535 0
M  V30 2736 H 254.836 -1.93457 0.236728 0
M  V30 2737 H 253.932 -3.00097 -0.857219 0
M  V30 2738 N 254.233 0.115231 -1.57178 0
M  V30 2739 C 255.51 0.852873 -1.76027 0
M  V30 2740 C 255.89 1.97892 -0.73498 0
M  V30 2741 O 255.238 2.27232 0.24036 0
M  V30 2742 C 255.448 1.36608 -3.21153 0
M  V30 2743 C 256.796 1.81692 -3.83762 0
M  V30 2744 O 257.82 1.46278 -3.24779 0
M  V30 2745 O 256.679 2.47104 -4.87444 0
M  V30 2746 H 253.773 0.405296 -0.720877 0
M  V30 2747 H 256.319 0.0986785 -1.69413 0
M  V30 2748 H 255.091 0.558357 -3.87296 0
M  V30 2749 H 254.714 2.18287 -3.3232 0
M  V30 2750 N 255.711 1.52812 0.385517 0
M  V30 2751 C 256.959 1.67694 1.12797 0
M  V30 2752 C 257.28 0.421115 1.90399 0
M  V30 2753 O 256.55 -0.564551 1.87589 0
M  V30 2754 H 255.13 0.618155 0.419396 0
M  V30 2755 H 257.792 1.89938 0.436972 0
M  V30 2756 H 256.888 2.52896 1.82894 0
M  V30 2757 N 257.189 -0.644168 1.43834 0
M  V30 2758 C 258.438 -1.39985 1.45214 0
M  V30 2759 C 258.751 -1.95421 0.0835494 0
M  V30 2760 O 259.957 -2.71488 -0.0251748 0
M  V30 2761 C 258.413 -2.53384 2.55587 0
M  V30 2762 C 258.021 -2.04517 3.98594 0
M  V30 2763 C 259.765 -3.30685 2.66172 0
M  V30 2764 C 257.672 -3.1518 5.00416 0
M  V30 2765 H 256.602 -0.526005 0.540218 0
M  V30 2766 H 259.253 -0.694367 1.69855 0
M  V30 2767 H 257.635 -3.26446 2.24163 0
M  V30 2768 H 258.809 -1.38405 4.39523 0
M  V30 2769 H 257.124 -1.40068 3.92135 0
M  V30 2770 H 259.721 -4.13158 3.39418 0
M  V30 2771 H 260.064 -3.79312 1.71546 0
M  V30 2772 H 260.597 -2.64708 2.96942 0
M  V30 2773 H 257.336 -2.71511 5.96625 0
M  V30 2774 H 256.856 -3.79974 4.64091 0
M  V30 2775 H 258.535 -3.80166 5.23529 0
M  V30 2776 N 258.668 -1.30515 -0.883378 0
M  V30 2777 C 259.915 -1.1943 -1.63532 0
M  V30 2778 C 260.243 0.250627 -1.92878 0
M  V30 2779 O 259.498 1.19556 -1.54935 0
M  V30 2780 C 259.797 -1.96994 -2.98209 0
M  V30 2781 C 259.463 -3.466 -2.88408 0
M  V30 2782 C 258.125 -3.87397 -2.85442 0
M  V30 2783 C 260.477 -4.41863 -2.76418 0
M  V30 2784 C 257.805 -5.21745 -2.68327 0
M  V30 2785 C 260.157 -5.7632 -2.60841 0
M  V30 2786 C 258.821 -6.16354 -2.56251 0
M  V30 2787 H 258.091 -0.437025 -0.598406 0
M  V30 2788 H 260.738 -1.61635 -1.02696 0
M  V30 2789 H 259.043 -1.47429 -3.63004 0
M  V30 2790 H 260.74 -1.85808 -3.55354 0
M  V30 2791 H 257.33 -3.14182 -2.91527 0
M  V30 2792 H 261.514 -4.11285 -2.77775 0
M  V30 2793 H 256.77 -5.51853 -2.63189 0
M  V30 2794 H 260.944 -6.49772 -2.50538 0
M  V30 2795 H 258.571 -7.20401 -2.42748 0
M  V30 2796 N 260.146 1.09593 -1.13257 0
M  V30 2797 C 261.094 2.18271 -0.803783 0
M  V30 2798 C 262.088 1.68054 0.213148 0
M  V30 2799 O 263.294 1.79862 0.0704699 0
M  V30 2800 H 259.669 0.711949 -0.242143 0
M  V30 2801 H 261.64 2.43235 -1.72856 0
M  V30 2802 C 260.389 3.46536 -0.28424 0
M  V30 2803 H 259.712 3.85545 -1.05807 0
M  V30 2804 H 261.152 4.23899 -0.0925945 0
M  V30 2805 C 259.611 3.22036 0.989684 0
M  V30 2806 O 260.141 3.44509 2.06584 0
M  V30 2807 N 258.347 2.7565 0.920086 0
M  V30 2808 H 257.894 2.57562 0.0442019 0
M  V30 2809 H 257.852 2.59635 1.77306 0
M  V30 2810 N 261.624 0.925811 1.2754 0
M  V30 2811 C 263.035 0.610102 1.7645 0
M  V30 2812 C 263.386 -0.874723 1.75622 0
M  V30 2813 O 262.511 -1.68444 1.35851 0
M  V30 2814 C 263.106 1.10073 3.20421 0
M  V30 2815 C 261.665 0.835723 3.67005 0
M  V30 2816 C 260.812 1.26054 2.46993 0
M  V30 2817 H 263.763 1.10579 1.13833 0
M  V30 2818 H 263.784 0.447557 3.77859 0
M  V30 2819 H 263.296 2.18143 3.20991 0
M  V30 2820 H 261.397 -0.231249 3.71882 0
M  V30 2821 H 261.51 1.45193 4.56569 0
M  V30 2822 H 259.874 0.679111 2.45479 0
M  V30 2823 H 260.657 2.34984 2.50275 0
M  V30 2824 N 263.102 -1.41638 0.69111 0
M  V30 2825 C 264.35 -2.00902 0.219758 0
M  V30 2826 C 264.671 -1.54994 -1.18329 0
M  V30 2827 O 263.941 -0.778628 -1.79762 0
M  V30 2828 H 262.521 -0.74289 0.0782558 0
M  V30 2829 H 265.183 -1.73327 0.891271 0
M  V30 2830 H 264.279 -3.11224 0.233708 0
M  V30 2831 N 264.58 -0.43555 -1.51462 0
M  V30 2832 C 265.828 0.131254 -2.01673 0
M  V30 2833 C 266.149 1.43368 -1.32177 0
M  V30 2834 O 265.419 1.90524 -0.455769 0
M  V30 2835 H 263.999 0.0514954 -0.745223 0
M  V30 2836 H 266.661 -0.577847 -1.86137 0
M  V30 2837 H 265.757 0.308446 -3.10572 0
M  V30 2838 N 266.058 1.56714 -0.166846 0
M  V30 2839 C 267.283 2.01557 0.488833 0
M  V30 2840 C 267.708 1.0463 1.56314 0
M  V30 2841 O 267.066 0.0251304 1.81283 0
M  V30 2842 C 267.114 3.4503 1.04818 0
M  V30 2843 O 266.218 3.51163 2.16236 0
M  V30 2844 H 265.559 0.653516 0.117526 0
M  V30 2845 H 268.089 2.02818 -0.269421 0
M  V30 2846 H 268.099 3.84243 1.37191 0
M  V30 2847 H 266.774 4.15077 0.261572 0
M  V30 2848 H 265.351 3.23807 1.84942 0
M  V30 2849 N 267.536 -0.106894 1.57237 0
M  V30 2850 C 268.782 -0.81373 1.85759 0
M  V30 2851 C 269.115 -1.78952 0.754315 0
M  V30 2852 O 268.39 -1.93029 -0.23879 0
M  V30 2853 C 268.673 -1.55293 3.24894 0
M  V30 2854 C 268.526 -0.595929 4.45835 0
M  V30 2855 C 269.845 -2.5063 3.61763 0
M  V30 2856 H 266.964 -0.294369 0.67566 0
M  V30 2857 H 269.606 -0.0776472 1.89841 0
M  V30 2858 H 267.756 -2.1804 3.21544 0
M  V30 2859 H 269.428 0.0236262 4.61294 0
M  V30 2860 H 267.671 0.0916191 4.33703 0
M  V30 2861 H 268.342 -1.15004 5.39887 0
M  V30 2862 H 270.818 -1.97982 3.65981 0
M  V30 2863 H 269.694 -2.99376 4.60071 0
M  V30 2864 H 269.955 -3.3385 2.89821 0
M  V30 2865 N 269.014 -1.53014 -0.377408 0
M  V30 2866 C 270.239 -1.72818 -1.14668 0
M  V30 2867 C 270.664 -0.450725 -1.8262 0
M  V30 2868 O 270.022 0.59439 -1.7128 0
M  V30 2869 C 270.07 -2.88627 -2.16164 0
M  V30 2870 O 269.174 -2.56409 -3.22998 0
M  V30 2871 H 268.515 -0.574301 -0.333278 0
M  V30 2872 H 271.045 -1.99853 -0.438152 0
M  V30 2873 H 271.055 -3.14455 -2.59966 0
M  V30 2874 H 269.73 -3.81294 -1.66095 0
M  V30 2875 H 268.307 -2.4136 -2.84253 0
M  V30 2876 N 270.492 0.636531 -1.44174 0
M  V30 2877 C 271.44 1.76995 -1.50915 0
M  V30 2878 C 272.434 1.65053 -0.381295 0
M  V30 2879 O 273.64 1.71197 -0.55601 0
M  V30 2880 H 270.015 0.584247 -0.473455 0
M  V30 2881 H 271.986 1.68432 -2.4632 0
M  V30 2882 C 270.735 3.15314 -1.46534 0
M  V30 2883 H 270.058 3.25149 -2.32633 0
M  V30 2884 H 271.498 3.9453 -1.55312 0
M  V30 2885 C 269.957 3.3639 -0.185305 0
M  V30 2886 O 270.487 3.94699 0.746688 0
M  V30 2887 N 268.693 2.9046 -0.0901606 0
M  V30 2888 H 268.24 2.43193 -0.849416 0
M  V30 2889 H 268.198 3.04937 0.765553 0
M  V30 2890 N 271.97 1.30982 0.876444 0
M  V30 2891 C 272.903 1.12414 1.98591 0
M  V30 2892 C 273.881 0.0294078 1.62573 0
M  V30 2893 O 275.065 0.184598 1.87594 0
M  V30 2894 C 272.192 0.716276 3.3104 0
M  V30 2895 C 271.238 1.81311 3.86042 0
M  V30 2896 S 272.071 3.41727 4.1229 0
M  V30 2897 C 273.227 3.02863 5.47745 0
M  V30 2898 H 273.46 2.06338 2.14037 0
M  V30 2899 H 270.993 1.15393 1.02586 0
M  V30 2900 H 272.951 0.487697 4.07593 0
M  V30 2901 H 271.612 -0.203749 3.13438 0
M  V30 2902 H 270.805 1.48021 4.81774 0
M  V30 2903 H 270.407 1.99641 3.16259 0
M  V30 2904 H 272.699 2.51353 6.29148 0
M  V30 2905 H 273.642 3.97533 5.8598 0
M  V30 2906 H 274.05 2.40487 5.10711 0
M  V30 2907 N 273.449 -1.08991 1.13837 0
M  V30 2908 C 274.679 -1.84743 0.924859 0
M  V30 2909 C 275.087 -1.81629 -0.529874 0
M  V30 2910 O 274.43 -1.21397 -1.37872 0
M  V30 2911 C 274.492 -3.33568 1.34061 0
M  V30 2912 C 274.156 -3.60425 2.80968 0
M  V30 2913 C 275.153 -3.55771 3.79108 0
M  V30 2914 C 272.838 -3.88627 3.18236 0
M  V30 2915 C 274.832 -3.78939 5.12527 0
M  V30 2916 C 272.519 -4.11449 4.51833 0
M  V30 2917 C 273.517 -4.06598 5.48787 0
M  V30 2918 O 273.205 -4.28826 6.79973 0
M  V30 2919 H 272.937 -0.590258 0.329502 0
M  V30 2920 H 275.491 -1.38598 1.51591 0
M  V30 2921 H 273.721 -3.80442 0.692853 0
M  V30 2922 H 275.41 -3.90743 1.09886 0
M  V30 2923 H 276.176 -3.34005 3.51661 0
M  V30 2924 H 272.055 -3.91526 2.43369 0
M  V30 2925 H 275.599 -3.75068 5.88192 0
M  V30 2926 H 271.496 -4.32698 4.79002 0
M  V30 2927 H 272.264 -4.46264 6.86142 0
M  V30 2928 N 274.927 -0.932562 -1.27047 0
M  V30 2929 C 275.89 -0.440064 -2.24936 0
M  V30 2930 C 276.89 0.444071 -1.54547 0
M  V30 2931 O 278.08 0.244465 -1.72476 0
M  V30 2932 C 275.212 0.36678 -3.38921 0
M  V30 2933 H 276.405 -1.305 -2.70018 0
M  V30 2934 H 273.958 -0.713707 -1.39054 0
M  V30 2935 H 274.693 1.25033 -2.99228 0
M  V30 2936 H 274.478 -0.267204 -3.91188 0
M  V30 2937 H 275.968 0.701567 -4.11665 0
M  V30 2938 N 276.405 1.4127 -0.698611 0
M  V30 2939 C 277.338 2.28195 0.0153898 0
M  V30 2940 C 278.316 1.42402 0.784883 0
M  V30 2941 O 279.5 1.71828 0.775067 0
M  V30 2942 C 276.627 3.22685 1.02918 0
M  V30 2943 C 275.673 4.25041 0.352501 0
M  V30 2944 S 276.506 5.27757 -0.907322 0
M  V30 2945 C 277.662 6.25812 0.104796 0
M  V30 2946 H 277.895 2.88403 -0.721858 0
M  V30 2947 H 275.428 1.46452 -0.488996 0
M  V30 2948 H 277.386 3.77655 1.60893 0
M  V30 2949 H 276.047 2.61566 1.73902 0
M  V30 2950 H 275.24 4.91437 1.11828 0
M  V30 2951 H 274.842 3.73682 -0.154254 0
M  V30 2952 H 277.134 6.70705 0.957103 0
M  V30 2953 H 278.077 7.06149 -0.525323 0
M  V30 2954 H 278.485 5.62615 0.460931 0
M  V30 2955 N 277.883 0.443576 1.51229 0
M  V30 2956 C 278.831 -0.37904 2.29491 0
M  V30 2957 C 279.825 -1.0153 1.35603 0
M  V30 2958 O 281.031 -0.94955 1.52917 0
M  V30 2959 H 277.406 -0.141053 0.738653 0
M  V30 2960 H 279.377 0.301799 2.9687 0
M  V30 2961 C 278.126 -1.46426 3.15364 0
M  V30 2962 H 277.449 -0.984037 3.87501 0
M  V30 2963 H 278.889 -2.01297 3.7317 0
M  V30 2964 C 277.348 -2.45099 2.31146 0
M  V30 2965 O 277.878 -3.49773 1.9754 0
M  V30 2966 N 276.084 -2.16139 1.94249 0
M  V30 2967 H 275.631 -1.31044 2.21777 0
M  V30 2968 H 275.589 -2.82398 1.38198 0
M  V30 2969 N 279.361 -1.56624 0.175154 0
M  V30 2970 C 280.291 -2.21155 -0.749195 0
M  V30 2971 C 281.272 -1.16836 -1.23626 0
M  V30 2972 O 282.457 -1.45277 -1.28873 0
M  V30 2973 C 279.587 -2.8553 -1.97711 0
M  V30 2974 C 278.541 -3.95921 -1.62575 0
M  V30 2975 C 277.867 -4.47365 -2.92864 0
M  V30 2976 C 279.167 -5.15323 -0.850838 0
M  V30 2977 H 280.861 -2.98653 -0.211295 0
M  V30 2978 H 278.407 -1.43651 -0.100188 0
M  V30 2979 H 280.36 -3.2935 -2.62881 0
M  V30 2980 H 279.084 -2.05406 -2.53921 0
M  V30 2981 H 277.743 -3.52762 -0.997719 0
M  V30 2982 H 277.391 -3.64027 -3.47122 0
M  V30 2983 H 277.091 -5.21839 -2.70106 0
M  V30 2984 H 278.615 -4.93873 -3.59056 0
M  V30 2985 H 280.029 -5.55812 -1.40521 0
M  V30 2986 H 278.426 -5.95739 -0.722154 0
M  V30 2987 H 279.496 -4.84661 0.152082 0
M  V30 2988 N 280.839 0.0985539 -1.57292 0
M  V30 2989 C 281.802 1.10402 -2.00858 0
M  V30 2990 C 282.802 1.33146 -0.901593 0
M  V30 2991 O 283.992 1.29318 -1.16716 0
M  V30 2992 C 281.124 2.45394 -2.36632 0
M  V30 2993 H 282.317 0.729099 -2.90902 0
M  V30 2994 H 279.87 0.343495 -1.52479 0
M  V30 2995 H 280.605 2.87769 -1.49531 0
M  V30 2996 H 280.39 2.30235 -3.17387 0
M  V30 2997 H 281.88 3.17718 -2.71007 0
M  V30 2998 N 282.317 1.53212 0.369288 0
M  V30 2999 C 283.733 1.42902 0.710712 0
M  V30 3000 C 283.933 0.565135 1.93413 0
M  V30 3001 O 282.989 0.0461484 2.52458 0
M  V30 3002 C 284.302 2.86042 0.927382 0
M  V30 3003 C 285.85 2.9565 1.02762 0
M  V30 3004 C 286.325 4.39843 1.27679 0
M  V30 3005 N 287.816 4.43256 1.34457 0
M  V30 3006 C 288.551 5.51929 1.55439 0
M  V30 3007 N 288.047 6.70655 1.73762 0
M  V30 3008 N 289.84 5.39502 1.57779 0
M  V30 3009 H 281.991 2.07888 -0.435457 0
M  V30 3010 H 284.254 0.938661 -0.132739 0
M  V30 3011 H 283.96 3.51557 0.100287 0
M  V30 3012 H 283.834 3.29472 1.83653 0
M  V30 3013 H 286.221 2.30291 1.84527 0
M  V30 3014 H 286.302 2.5562 0.0959504 0
M  V30 3015 H 285.946 5.05774 0.464175 0
M  V30 3016 H 285.876 4.77443 2.22162 0
M  V30 3017 H 288.367 3.5769 1.21926 0
M  V30 3018 H 288.68 7.49248 1.89335 0
M  V30 3019 H 287.025 6.73648 1.70948 0
M  V30 3020 H 290.216 4.45713 1.43029 0
M  V30 3021 H 290.389 6.2426 1.7379 0
M  V30 3022 N 283.795 -0.628877 1.44509 0
M  V30 3023 C 285.025 -1.41349 1.50678 0
M  V30 3024 C 285.433 -1.88745 0.131075 0
M  V30 3025 O 284.776 -1.61592 -0.87371 0
M  V30 3026 C 284.838 -2.66608 2.41165 0
M  V30 3027 C 284.502 -2.40993 3.88293 0
M  V30 3028 C 285.499 -2.0268 4.78766 0
M  V30 3029 C 283.184 -2.54563 4.33016 0
M  V30 3030 C 285.178 -1.78269 6.11963 0
M  V30 3031 C 282.865 -2.29766 5.6626 0
M  V30 3032 C 283.863 -1.91678 6.55552 0
M  V30 3033 O 283.551 -1.67158 7.86329 0
M  V30 3034 H 283.283 -0.439851 0.51333 0
M  V30 3035 H 285.837 -0.776084 1.90174 0
M  V30 3036 H 284.067 -3.32994 1.96601 0
M  V30 3037 H 285.756 -3.28615 2.38259 0
M  V30 3038 H 286.522 -1.91751 4.45485 0
M  V30 3039 H 282.401 -2.83179 3.63773 0
M  V30 3040 H 285.945 -1.48465 6.81619 0
M  V30 3041 H 281.842 -2.40306 5.99102 0
M  V30 3042 H 282.61 -1.81386 7.98149 0
M  V30 3043 N 285.273 -1.31445 -0.869486 0
M  V30 3044 C 286.22 -1.19135 -1.97675 0
M  V30 3045 C 287.19 -0.0770266 -1.65921 0
M  V30 3046 O 288.375 -0.249972 -1.89155 0
M  V30 3047 C 285.515 -0.905149 -3.33018 0
M  V30 3048 C 284.628 -2.10285 -3.77365 0
M  V30 3049 C 283.763 -1.75339 -5.01427 0
M  V30 3050 C 282.802 -2.91515 -5.38224 0
M  V30 3051 N 281.939 -2.56762 -6.53466 0
M  V30 3052 H 286.779 -2.13853 -2.07535 0
M  V30 3053 H 284.316 -1.06379 -1.01597 0
M  V30 3054 H 286.274 -0.719765 -4.10944 0
M  V30 3055 H 284.904 0.00519624 -3.228 0
M  V30 3056 H 283.956 -2.39899 -2.95216 0
M  V30 3057 H 285.268 -2.97237 -4.00564 0
M  V30 3058 H 284.422 -1.53266 -5.87022 0
M  V30 3059 H 283.161 -0.855801 -4.80133 0
M  V30 3060 H 282.166 -3.14237 -4.51149 0
M  V30 3061 H 283.391 -3.81985 -5.61484 0
M  V30 3062 H 281.337 -1.69526 -6.33717 0
M  V30 3063 H 281.254 -3.37243 -6.76612 0
M  V30 3064 H 282.522 -2.38083 -7.42251 0
M  V30 3065 N 286.751 1.08385 -1.14413 0
M  V30 3066 C 287.981 1.8425 -0.934644 0
M  V30 3067 C 288.389 1.81907 0.520234 0
M  V30 3068 O 287.732 1.22126 1.37226 0
M  V30 3069 C 287.794 3.32853 -1.35828 0
M  V30 3070 C 287.458 3.5893 -2.82875 0
M  V30 3071 C 288.455 3.53756 -3.80989 0
M  V30 3072 C 286.14 3.86934 -3.20293 0
M  V30 3073 C 288.134 3.76216 -5.14529 0
M  V30 3074 C 285.821 4.09047 -4.54008 0
M  V30 3075 C 286.819 4.03682 -5.50936 0
M  V30 3076 O 286.507 4.25214 -6.82238 0
M  V30 3077 H 286.239 0.588502 -0.332628 0
M  V30 3078 H 288.793 1.37792 -1.52324 0
M  V30 3079 H 287.023 3.8007 -0.713019 0
M  V30 3080 H 288.712 3.90154 -1.11957 0
M  V30 3081 H 289.478 3.32135 -3.53428 0
M  V30 3082 H 285.357 3.9023 -2.45442 0
M  V30 3083 H 288.901 3.71943 -5.90173 0
M  V30 3084 H 284.798 4.30151 -4.8129 0
M  V30 3085 H 285.566 4.42619 -6.88499 0
M  V30 3086 N 288.23 0.939286 1.26551 0
M  V30 3087 C 289.47 0.5933 1.956 0
M  V30 3088 C 289.834 -0.851515 1.72085 0
M  V30 3089 O 291.035 -1.30634 2.34921 0
M  V30 3090 C 289.306 0.923996 3.45249 0
M  V30 3091 S 290.865 0.688269 4.33369 0
M  V30 3092 H 287.683 0.218591 0.676564 0
M  V30 3093 H 290.285 1.2102 1.5354 0
M  V30 3094 H 288.989 1.97297 3.59864 0
M  V30 3095 H 288.52 0.296746 3.92279 0
M  V30 3096 H 290.535 -0.448434 4.9417 0
M  V30 3097 N 289.708 -1.40897 0.706093 0
M  V30 3098 C 291.119 -1.84023 0.315052 0
M  V30 3099 C 291.47 -1.5906 -1.14866 0
M  V30 3100 O 290.595 -1.06651 -1.88293 0
M  V30 3101 C 291.19 -3.34055 0.565038 0
M  V30 3102 C 289.749 -3.7571 0.227806 0
M  V30 3103 C 288.896 -2.64204 0.842122 0
M  V30 3104 H 291.847 -1.303 0.905963 0
M  V30 3105 H 291.868 -3.80107 -0.172843 0
M  V30 3106 H 291.38 -3.52192 1.63042 0
M  V30 3107 H 289.481 -3.63172 -0.832895 0
M  V30 3108 H 289.594 -4.74103 0.690174 0
M  V30 3109 H 287.958 -2.53255 0.270893 0
M  V30 3110 H 288.741 -2.85155 1.91158 0
M  V30 3111 N 291.186 -0.45159 -1.50991 0
M  V30 3112 C 292.463 0.170707 -1.94854 0
M  V30 3113 C 292.843 1.58788 -1.39103 0
M  V30 3114 O 292.191 2.20913 -0.583921 0
M  V30 3115 C 292.401 0.133929 -3.48743 0
M  V30 3116 C 293.749 0.33248 -4.23296 0
M  V30 3117 O 294.773 0.211403 -3.55572 0
M  V30 3118 O 293.632 0.57486 -5.43468 0
M  V30 3119 H 290.726 0.122264 -0.817912 0
M  V30 3120 H 293.272 -0.510594 -1.61836 0
M  V30 3121 H 292.044 -0.856283 -3.81816 0
M  V30 3122 H 291.667 0.857529 -3.88242 0
M  V30 3123 N 292.664 1.56529 -0.183458 0
M  V30 3124 C 293.913 1.96419 0.458511 0
M  V30 3125 C 294.226 1.0727 1.63562 0
M  V30 3126 O 295.432 1.36893 2.34462 0
M  V30 3127 C 293.888 3.49298 0.867122 0
M  V30 3128 C 293.496 4.47092 -0.285057 0
M  V30 3129 C 295.24 3.97983 1.47683 0
M  V30 3130 C 293.147 5.91225 0.143862 0
M  V30 3131 H 292.077 0.733394 0.175071 0
M  V30 3132 H 294.728 1.81448 -0.273624 0
M  V30 3133 H 293.11 3.59731 1.65559 0
M  V30 3134 H 294.284 4.48383 -1.0625 0
M  V30 3135 H 292.599 4.08535 -0.805503 0
M  V30 3136 H 295.196 5.03134 1.80999 0
M  V30 3137 H 295.539 3.41618 2.37914 0
M  V30 3138 H 296.072 3.90617 0.752562 0
M  V30 3139 H 292.811 6.5149 -0.723974 0
M  V30 3140 H 292.331 5.93214 0.886413 0
M  V30 3141 H 294.01 6.44362 0.583628 0
M  V30 3142 N 294.142 -0.090211 1.57342 0
M  V30 3143 C 295.089 -1.10909 2.02405 0
M  V30 3144 C 296.059 -1.39523 0.901252 0
M  V30 3145 O 297.244 -1.50903 1.1676 0
M  V30 3146 C 294.384 -2.42277 2.45755 0
M  V30 3147 C 293.497 -2.20352 3.71576 0
M  V30 3148 C 292.632 -3.45154 4.03785 0
M  V30 3149 C 291.671 -3.18512 5.22701 0
M  V30 3150 N 290.808 -4.35593 5.50639 0
M  V30 3151 H 295.648 -0.71782 2.89225 0
M  V30 3152 H 293.185 -0.342901 1.43048 0
M  V30 3153 H 295.143 -3.18951 2.68935 0
M  V30 3154 H 293.773 -2.79242 1.61938 0
M  V30 3155 H 292.825 -1.34458 3.55844 0
M  V30 3156 H 294.137 -1.96661 4.58395 0
M  V30 3157 H 293.291 -4.30233 4.27767 0
M  V30 3158 H 292.03 -3.71904 3.15498 0
M  V30 3159 H 291.035 -2.31827 4.98534 0
M  V30 3160 H 292.26 -2.93103 6.12591 0
M  V30 3161 H 290.206 -4.6241 4.6531 0
M  V30 3162 H 290.123 -4.1511 6.31838 0
M  V30 3163 H 291.391 -5.21723 5.7916 0
M  V30 3164 N 295.62 -1.53406 -0.361157 0
M  V30 3165 C 296.53 -1.83122 -1.4664 0
M  V30 3166 C 297.546 -0.719943 -1.58407 0
M  V30 3167 O 298.722 -1.01046 -1.74218 0
M  V30 3168 C 295.787 -2.01891 -2.81853 0
M  V30 3169 C 294.848 -3.25784 -2.79577 0
M  V30 3170 C 294.081 -3.43648 -4.0834 0
M  V30 3171 O 294.304 -2.65714 -5.0473 0
M  V30 3172 O 293.238 -4.37018 -4.13883 0
M  V30 3173 H 297.064 -2.7703 -1.24451 0
M  V30 3174 H 294.649 -1.38841 -0.551678 0
M  V30 3175 H 296.531 -2.15782 -3.61962 0
M  V30 3176 H 295.206 -1.11173 -3.0401 0
M  V30 3177 H 294.113 -3.17312 -1.98151 0
M  V30 3178 H 295.446 -4.16439 -2.62373 0
M  V30 3179 N 297.098 0.621204 -1.44841 0
M  V30 3180 C 298.045 1.73267 -1.5247 0
M  V30 3181 C 299.015 1.6189 -0.371611 0
M  V30 3182 O 300.2 1.81668 -0.58321 0
M  V30 3183 C 297.34 3.11545 -1.48438 0
M  V30 3184 C 296.453 3.33827 -2.74196 0
M  V30 3185 C 295.588 4.62133 -2.61929 0
M  V30 3186 C 294.627 4.77627 -3.82804 0
M  V30 3187 N 293.764 5.97219 -3.69153 0
M  V30 3188 H 298.604 1.66082 -2.47428 0
M  V30 3189 H 296.141 0.810026 -1.22788 0
M  V30 3190 H 298.099 3.91528 -1.4409 0
M  V30 3191 H 296.729 3.1772 -0.570402 0
M  V30 3192 H 295.781 2.47715 -2.88689 0
M  V30 3193 H 297.093 3.41153 -3.6389 0
M  V30 3194 H 296.247 5.50291 -2.5547 0
M  V30 3195 H 294.986 4.57182 -1.69811 0
M  V30 3196 H 293.991 3.87896 -3.89637 0
M  V30 3197 H 295.216 4.84385 -4.75971 0
M  V30 3198 H 293.162 5.93339 -2.79794 0
M  V30 3199 H 293.079 6.05644 -4.52472 0
M  V30 3200 H 294.347 6.87912 -3.66603 0
M  V30 3201 N 298.576 1.31904 0.862503 0
M  V30 3202 C 299.824 1.21776 1.61292 0
M  V30 3203 C 300.145 -0.222413 1.93727 0
M  V30 3204 O 299.415 -1.1451 1.58947 0
M  V30 3205 H 297.995 0.447717 0.597962 0
M  V30 3206 H 300.657 1.65326 1.03215 0
M  V30 3207 H 299.753 1.7948 2.5533 0
M  V30 3208 N 300.054 -1.07777 1.14986 0
M  V30 3209 C 300.984 -2.16865 0.865557 0
M  V30 3210 C 301.965 -1.69123 -0.182083 0
M  V30 3211 O 303.15 -1.94164 -0.0373815 0
M  V30 3212 C 300.28 -3.45539 0.349313 0
M  V30 3213 C 299.234 -4.06708 1.33313 0
M  V30 3214 C 298.56 -5.30411 0.675918 0
M  V30 3215 C 299.86 -4.47241 2.69764 0
M  V30 3216 H 301.554 -2.40905 1.77778 0
M  V30 3217 H 299.1 -1.15781 0.856203 0
M  V30 3218 H 301.053 -4.21174 0.137983 0
M  V30 3219 H 299.777 -3.21072 -0.598362 0
M  V30 3220 H 298.436 -3.33112 1.53075 0
M  V30 3221 H 298.084 -5.02232 -0.277767 0
M  V30 3222 H 297.784 -5.72293 1.33244 0
M  V30 3223 H 299.308 -6.08755 0.474262 0
M  V30 3224 H 300.722 -5.14025 2.53873 0
M  V30 3225 H 299.119 -5.00062 3.3175 0
M  V30 3226 H 300.189 -3.58818 3.26156 0
M  V30 3227 N 301.532 -0.945985 -1.26051 0
M  V30 3228 C 302.757 -0.612525 -1.98149 0
M  V30 3229 C 303.182 0.806623 -1.69927 0
M  V30 3230 O 302.54 1.54411 -0.950108 0
M  V30 3231 C 302.588 -0.866981 -3.50023 0
M  V30 3232 O 301.692 0.0585333 -4.12358 0
M  V30 3233 H 301.033 -0.23379 -0.621481 0
M  V30 3234 H 303.563 -1.27023 -1.60395 0
M  V30 3235 H 303.573 -0.789792 -4.00283 0
M  V30 3236 H 302.248 -1.90135 -3.69894 0
M  V30 3237 H 300.825 -0.0701241 -3.72834 0
M  V30 3238 N 303.011 1.40521 -0.713556 0
M  V30 3239 C 304.259 2.00527 -0.251692 0
M  V30 3240 C 304.58 1.56857 1.15848 0
M  V30 3241 O 303.85 0.807127 1.785 0
M  V30 3242 H 302.43 0.741551 -0.0900646 0
M  V30 3243 H 305.092 1.71887 -0.918733 0
M  V30 3244 H 304.188 3.10813 -0.283192 0
M  V30 3245 N 304.489 0.459591 1.5075 0
M  V30 3246 C 305.714 -0.0996819 2.0716 0
M  V30 3247 C 306.139 -1.33761 1.32249 0
M  V30 3248 O 305.497 -1.77551 0.366786 0
M  V30 3249 C 305.545 -0.378226 3.58611 0
M  V30 3250 O 304.649 -1.46081 3.85661 0
M  V30 3251 H 303.99 0.00791392 0.663953 0
M  V30 3252 H 306.52 0.647329 1.9409 0
M  V30 3253 H 306.53 -0.622135 4.03229 0
M  V30 3254 H 305.205 0.526439 4.12555 0
M  V30 3255 H 303.782 -1.20511 3.5289 0
M  V30 3256 N 305.967 -1.56429 0.191757 0
M  V30 3257 C 307.378 -1.83912 -0.321428 0
M  V30 3258 C 307.729 -1.11231 -1.61623 0
M  V30 3259 O 306.854 -0.37202 -2.13178 0
M  V30 3260 C 307.449 -3.33624 -0.589961 0
M  V30 3261 C 306.008 -3.6153 -1.04753 0
M  V30 3262 C 305.155 -2.7714 -0.0943327 0
M  V30 3263 H 308.106 -1.53161 0.415612 0
M  V30 3264 H 308.127 -3.52213 -1.43966 0
M  V30 3265 H 307.639 -3.86495 0.352588 0
M  V30 3266 H 305.74 -3.14089 -2.00447 0
M  V30 3267 H 305.853 -4.69737 -0.942549 0
M  V30 3268 H 304.217 -2.47638 -0.595589 0
M  V30 3269 H 305 -3.32799 0.842601 0
M  V30 3270 N 307.445 0.0818655 -1.57387 0
M  V30 3271 C 308.861 0.436412 -1.53517 0
M  V30 3272 C 309.061 1.79758 -0.910459 0
M  V30 3273 O 308.117 2.47324 -0.508636 0
M  V30 3274 C 309.43 0.386734 -2.98203 0
M  V30 3275 C 310.978 0.467644 -3.09487 0
M  V30 3276 C 311.453 0.447978 -4.55804 0
M  V30 3277 N 312.944 0.508348 -4.60402 0
M  V30 3278 C 313.679 0.515184 -5.71081 0
M  V30 3279 N 313.175 0.477435 -6.91153 0
M  V30 3280 N 314.968 0.560988 -5.59294 0
M  V30 3281 H 307.119 -0.809546 -1.96367 0
M  V30 3282 H 309.382 -0.302733 -0.898363 0
M  V30 3283 H 309.088 -0.546539 -3.47427 0
M  V30 3284 H 308.962 1.20075 -3.57578 0
M  V30 3285 H 311.349 1.39134 -2.60242 0
M  V30 3286 H 311.43 -0.374753 -2.5304 0
M  V30 3287 H 311.074 -0.471826 -5.05704 0
M  V30 3288 H 311.004 1.30777 -5.10103 0
M  V30 3289 H 313.495 0.54218 -3.7399 0
M  V30 3290 H 313.808 0.486299 -7.71268 0
M  V30 3291 H 312.153 0.444278 -6.93579 0
M  V30 3292 H 315.344 0.5881 -4.64391 0
M  V30 3293 H 315.517 0.562846 -6.45551 0
M  V30 3294 N 308.923 1.53595 0.353017 0
M  V30 3295 C 309.853 1.83902 1.43883 0
M  V30 3296 C 310.834 0.693421 1.55324 0
M  V30 3297 O 312.019 0.944452 1.69687 0
M  V30 3298 C 309.149 2.04016 2.8106 0
M  V30 3299 C 308.103 3.19814 2.84434 0
M  V30 3300 C 307.429 3.25244 4.24406 0
M  V30 3301 C 308.729 4.58133 2.50822 0
M  V30 3302 H 310.423 2.74835 1.1877 0
M  V30 3303 H 307.969 1.32242 0.569917 0
M  V30 3304 H 309.922 2.238 3.57059 0
M  V30 3305 H 308.646 1.09804 3.07588 0
M  V30 3306 H 307.305 2.9987 2.10887 0
M  V30 3307 H 306.953 2.28646 4.48029 0
M  V30 3308 H 306.653 4.03054 4.27576 0
M  V30 3309 H 308.177 3.47228 5.0226 0
M  V30 3310 H 309.591 4.77995 3.16534 0
M  V30 3311 H 307.988 5.38276 2.6529 0
M  V30 3312 H 309.058 4.62387 1.46034 0
M  V30 3313 N 310.401 -0.613514 1.45168 0
M  V30 3314 C 311.65 -1.36874 1.4815 0
M  V30 3315 C 311.963 -1.952 0.124982 0
M  V30 3316 O 313.169 -2.71481 0.0324176 0
M  V30 3317 C 311.625 -2.47905 2.60904 0
M  V30 3318 C 311.233 -1.96016 4.02842 0
M  V30 3319 C 312.977 -3.24965 2.73126 0
M  V30 3320 C 310.884 -3.04494 5.06988 0
M  V30 3321 H 309.814 -0.514428 0.551253 0
M  V30 3322 H 312.465 -0.658182 1.7129 0
M  V30 3323 H 310.847 -3.21618 2.31037 0
M  V30 3324 H 312.021 -1.29051 4.4236 0
M  V30 3325 H 310.336 -1.31719 3.95018 0
M  V30 3326 H 312.933 -4.05865 3.48106 0
M  V30 3327 H 313.276 -3.75588 1.79553 0
M  V30 3328 H 313.809 -2.5835 3.0249 0
M  V30 3329 H 310.548 -2.58795 6.0225 0
M  V30 3330 H 310.068 -3.70044 4.72046 0
M  V30 3331 H 311.747 -3.68976 5.31475 0
M  V30 3332 N 311.879 -1.3236 -0.855495 0
M  V30 3333 C 312.809 -1.23833 -1.97958 0
M  V30 3334 C 313.79 -0.122361 -1.69659 0
M  V30 3335 O 314.975 -0.30939 -1.9172 0
M  V30 3336 C 312.105 -0.959772 -3.33775 0
M  V30 3337 C 311.059 -2.03689 -3.76424 0
M  V30 3338 C 310.385 -1.61075 -5.09862 0
M  V30 3339 C 311.685 -3.4518 -3.9198 0
M  V30 3340 H 313.379 -2.1788 -2.0535 0
M  V30 3341 H 310.925 -1.04891 -0.986605 0
M  V30 3342 H 312.878 -0.886678 -4.11966 0
M  V30 3343 H 311.602 0.0163404 -3.26596 0
M  V30 3344 H 310.261 -2.10012 -3.00484 0
M  V30 3345 H 309.909 -0.622107 -4.99138 0
M  V30 3346 H 309.609 -2.33143 -5.39368 0
M  V30 3347 H 311.133 -1.55201 -5.90546 0
M  V30 3348 H 312.547 -3.4145 -4.60526 0
M  V30 3349 H 310.944 -4.1559 -4.32903 0
M  V30 3350 H 312.014 -3.84903 -2.94919 0
M  V30 3351 N 313.357 1.07166 -1.15556 0
M  V30 3352 C 314.604 1.79798 -0.931604 0
M  V30 3353 C 314.932 1.8682 0.54115 0
M  V30 3354 O 314.187 1.34942 1.41736 0
M  V30 3355 C 314.486 3.24707 -1.49332 0
M  V30 3356 C 314.152 3.37781 -2.98688 0
M  V30 3357 C 312.814 3.41057 -3.39461 0
M  V30 3358 C 315.166 3.40424 -3.94665 0
M  V30 3359 C 312.494 3.4458 -4.74849 0
M  V30 3360 C 314.846 3.45485 -5.29927 0
M  V30 3361 C 313.51 3.47039 -5.70193 0
M  V30 3362 H 312.78 0.657928 -0.340898 0
M  V30 3363 H 315.427 1.26091 -1.44129 0
M  V30 3364 H 313.732 3.81208 -0.904859 0
M  V30 3365 H 315.429 3.79486 -1.29582 0
M  V30 3366 H 312.019 3.35932 -2.66172 0
M  V30 3367 H 316.203 3.37113 -3.64237 0
M  V30 3368 H 311.459 3.44083 -5.05388 0
M  V30 3369 H 315.633 3.46476 -6.04092 0
M  V30 3370 H 313.26 3.49522 -6.75084 0
M  V30 3371 N 314.835 0.952656 1.25548 0
M  V30 3372 C 316.063 0.623496 1.97282 0
M  V30 3373 C 316.478 -0.803987 1.70826 0
M  V30 3374 O 315.835 -1.53755 0.983147 0
M  V30 3375 C 315.886 0.870209 3.5087 0
M  V30 3376 O 315.607 2.24156 3.76412 0
M  V30 3377 C 317.108 0.553164 4.39835 0
M  V30 3378 H 314.328 0.233931 0.628902 0
M  V30 3379 H 316.872 1.27649 1.59768 0
M  V30 3380 H 315.027 0.263652 3.86502 0
M  V30 3381 H 315.441 2.31021 4.70882 0
M  V30 3382 H 316.915 0.776342 5.46513 0
M  V30 3383 H 317.392 -0.512215 4.36203 0
M  V30 3384 H 317.998 1.13896 4.09766 0
M  V30 3385 N 316.313 -1.40141 0.720998 0
M  V30 3386 C 317.538 -2.05618 0.271258 0
M  V30 3387 C 317.963 -1.53978 -1.08039 0
M  V30 3388 O 317.321 -0.677463 -1.68167 0
M  V30 3389 C 317.369 -3.59609 0.267197 0
M  V30 3390 O 316.473 -4.05526 -0.749814 0
M  V30 3391 H 315.814 -0.651904 0.126162 0
M  V30 3392 H 318.344 -1.79439 0.982997 0
M  V30 3393 H 318.354 -4.0786 0.106744 0
M  V30 3394 H 317.029 -3.96559 1.25354 0
M  V30 3395 H 315.606 -3.68722 -0.556644 0
M  V30 3396 N 317.792 -0.46758 -1.50504 0
M  V30 3397 C 318.755 0.317059 -2.26996 0
M  V30 3398 C 319.755 0.923513 -1.31635 0
M  V30 3399 O 320.945 0.793239 -1.55091 0
M  V30 3400 C 318.077 1.45134 -3.08462 0
M  V30 3401 H 319.27 -0.353723 -2.97807 0
M  V30 3402 H 316.823 -0.221545 -1.54722 0
M  V30 3403 H 317.558 2.15728 -2.4214 0
M  V30 3404 H 317.343 1.02232 -3.78538 0
M  V30 3405 H 318.833 2.00493 -3.66323 0
M  V30 3406 N 319.27 1.56325 -0.20005 0
M  V30 3407 C 320.18 2.22931 0.730668 0
M  V30 3408 C 321.196 1.22997 1.23076 0
M  V30 3409 O 322.372 1.55748 1.27689 0
M  V30 3410 C 319.437 2.87948 1.93098 0
M  V30 3411 C 318.498 4.03166 1.47497 0
M  V30 3412 C 317.731 4.65073 2.61807 0
M  V30 3413 O 317.954 4.25913 3.79413 0
M  V30 3414 O 316.888 5.54452 2.34237 0
M  V30 3415 H 320.714 3.03084 0.193391 0
M  V30 3416 H 318.299 1.49371 0.0294621 0
M  V30 3417 H 320.181 3.29063 2.6324 0
M  V30 3418 H 318.856 2.10771 2.45677 0
M  V30 3419 H 317.763 3.66664 0.742201 0
M  V30 3420 H 319.096 4.82022 0.995796 0
M  V30 3421 N 320.748 -0.0735177 1.57428 0
M  V30 3422 C 321.988 -0.778363 1.89 0
M  V30 3423 C 322.352 -1.7483 0.793634 0
M  V30 3424 O 323.553 -2.49811 0.992367 0
M  V30 3425 C 321.824 -1.46929 3.25802 0
M  V30 3426 S 323.383 -2.20943 3.79117 0
M  V30 3427 H 320.201 -0.258874 0.662197 0
M  V30 3428 H 322.803 -0.0345338 1.95469 0
M  V30 3429 H 321.507 -0.749532 4.03497 0
M  V30 3430 H 321.038 -2.25258 3.22525 0
M  V30 3431 H 323.053 -3.47435 3.54265 0
M  V30 3432 N 322.226 -1.5378 -0.344866 0
M  V30 3433 C 323.176 -1.78057 -1.42407 0
M  V30 3434 C 324.16 -0.635732 -1.47808 0
M  V30 3435 O 325.352 -0.89508 -1.527 0
M  V30 3436 C 322.481 -1.99242 -2.79566 0
M  V30 3437 C 321.567 -3.19787 -2.78562 0
M  V30 3438 N 321.958 -4.41284 -2.47189 0
M  V30 3439 C 320.256 -3.2093 -3.0971 0
M  V30 3440 C 320.957 -5.23128 -2.54385 0
M  V30 3441 N 319.933 -4.59813 -2.89953 0
M  V30 3442 H 323.735 -2.69588 -1.17046 0
M  V30 3443 H 321.249 -1.52687 -0.553217 0
M  V30 3444 H 323.246 -2.14768 -3.57324 0
M  V30 3445 H 321.906 -1.08953 -3.05875 0
M  V30 3446 H 322.917 -4.68657 -2.20411 0
M  V30 3447 H 319.594 -2.40603 -3.41199 0
M  V30 3448 H 320.984 -6.30096 -2.333 0
M  V30 3449 N 323.704 0.605807 -1.45491 0
M  V30 3450 C 324.934 1.38934 -1.52908 0
M  V30 3451 C 325.342 1.88513 -0.161086 0
M  V30 3452 O 324.685 1.62962 0.847891 0
M  V30 3453 C 324.747 2.62737 -2.45376 0
M  V30 3454 C 324.411 2.34785 -3.92078 0
M  V30 3455 C 325.408 1.95038 -4.8193 0
M  V30 3456 C 323.093 2.47642 -4.37011 0
M  V30 3457 C 325.087 1.68511 -6.14722 0
M  V30 3458 C 322.774 2.20728 -5.69844 0
M  V30 3459 C 323.772 1.81225 -6.58519 0
M  V30 3460 O 323.46 1.54627 -7.88889 0
M  V30 3461 H 323.192 0.431629 -0.520262 0
M  V30 3462 H 325.746 0.74573 -1.91384 0
M  V30 3463 H 323.976 3.29824 -2.01874 0
M  V30 3464 H 325.665 3.24783 -2.43456 0
M  V30 3465 H 326.431 1.84639 -4.48479 0
M  V30 3466 H 322.31 2.77356 -3.68232 0
M  V30 3467 H 325.854 1.37602 -6.83894 0
M  V30 3468 H 321.751 2.30744 -6.02849 0
M  V30 3469 H 322.519 1.68665 -8.00933 0
M  V30 3470 N 325.182 1.32811 0.848464 0
M  V30 3471 C 326.407 1.26882 1.6406 0
M  V30 3472 C 326.832 -0.15913 1.87426 0
M  V30 3473 O 326.19 -1.11258 1.43148 0
M  V30 3474 C 326.238 2.03997 2.97351 0
M  V30 3475 O 325.342 1.39201 3.88197 0
M  V30 3476 H 324.683 0.436982 0.499943 0
M  V30 3477 H 327.213 1.75224 1.0563 0
M  V30 3478 H 327.223 2.14403 3.47124 0
M  V30 3479 H 325.898 3.0783 2.79666 0
M  V30 3480 H 324.475 1.37381 3.46671 0
M  V30 3481 N 326.66 -1.06551 1.16123 0
M  V30 3482 C 327.593 -2.13382 0.80892 0
M  V30 3483 C 328.571 -1.61128 -0.21827 0
M  V30 3484 O 329.755 -1.88219 -0.102952 0
M  V30 3485 C 326.882 -3.38083 0.204303 0
M  V30 3486 C 325.928 -4.09133 1.20469 0
M  V30 3487 S 326.761 -4.5948 2.75024 0
M  V30 3488 C 327.917 -5.87446 2.16005 0
M  V30 3489 H 328.15 -2.42937 1.71373 0
M  V30 3490 H 325.683 -1.18947 0.984428 0
M  V30 3491 H 327.641 -4.10268 -0.138081 0
M  V30 3492 H 326.302 -3.0669 -0.678234 0
M  V30 3493 H 325.495 -4.98685 0.730019 0
M  V30 3494 H 325.097 -3.4295 1.49202 0
M  V30 3495 H 327.389 -6.60065 1.5271 0
M  V30 3496 H 328.332 -6.39639 3.03756 0
M  V30 3497 H 328.74 -5.41354 1.59989 0
M  V30 3498 N 328.138 -0.959301 -1.25041 0
M  V30 3499 C 329.085 -0.482057 -2.2571 0
M  V30 3500 C 330.055 0.467939 -1.59372 0
M  V30 3501 O 331.24 0.380159 -1.86974 0
M  V30 3502 C 328.38 0.229623 -3.44335 0
M  V30 3503 C 327.493 -0.758156 -4.25295 0
M  V30 3504 C 326.628 -0.0234403 -5.31195 0
M  V30 3505 C 325.667 -1.00184 -6.03846 0
M  V30 3506 N 324.804 -0.29769 -7.01469 0
M  V30 3507 H 329.644 -1.34538 -2.65901 0
M  V30 3508 H 327.181 -0.674592 -1.3072 0
M  V30 3509 H 329.139 0.658856 -4.11965 0
M  V30 3510 H 327.769 1.05696 -3.05005 0
M  V30 3511 H 326.821 -1.30586 -3.57284 0
M  V30 3512 H 328.133 -1.50458 -4.75567 0
M  V30 3513 H 327.287 0.464201 -6.04922 0
M  V30 3514 H 326.026 0.755741 -4.81809 0
M  V30 3515 H 325.031 -1.50044 -5.2893 0
M  V30 3516 H 326.256 -1.78133 -6.55321 0
M  V30 3517 H 324.202 0.462668 -6.54366 0
M  V30 3518 H 324.119 -0.983128 -7.4958 0
M  V30 3519 H 325.387 0.16826 -7.79318 0
M  V30 3520 N 329.616 1.39756 -0.72842 0
M  V30 3521 C 330.563 2.30647 -0.0841519 0
M  V30 3522 C 331.533 1.48869 0.7367 0
M  V30 3523 O 332.718 1.77574 0.698015 0
M  V30 3524 C 329.858 3.35165 0.822091 0
M  V30 3525 C 328.971 4.31999 -0.0106663 0
M  V30 3526 C 328.106 5.23585 0.896241 0
M  V30 3527 C 327.145 6.12072 0.0583381 0
M  V30 3528 N 326.282 6.96035 0.920818 0
M  V30 3529 H 331.122 2.85173 -0.864891 0
M  V30 3530 H 328.659 1.40422 -0.438179 0
M  V30 3531 H 330.617 3.94345 1.36189 0
M  V30 3532 H 329.247 2.8211 1.56888 0
M  V30 3533 H 328.299 3.74492 -0.66781 0
M  V30 3534 H 329.611 4.9443 -0.658825 0
M  V30 3535 H 328.765 5.87759 1.50412 0
M  V30 3536 H 327.504 4.61459 1.57819 0
M  V30 3537 H 326.509 5.46916 -0.562389 0
M  V30 3538 H 327.734 6.76261 -0.6203 0
M  V30 3539 H 325.68 6.36485 1.58818 0
M  V30 3540 H 325.597 7.55284 0.32899 0
M  V30 3541 H 326.865 7.64646 1.51447 0
M  V30 3542 N 331.094 0.475555 1.50254 0
M  V30 3543 C 332.057 -0.305016 2.27161 0
M  V30 3544 C 333.057 -0.916519 1.32123 0
M  V30 3545 O 334.247 -0.785003 1.5551 0
M  V30 3546 C 331.379 -1.43496 3.09227 0
M  V30 3547 H 332.572 0.369511 2.97615 0
M  V30 3548 H 330.125 0.229747 1.54602 0
M  V30 3549 H 330.86 -2.14441 2.43281 0
M  V30 3550 H 330.645 -1.00223 3.79075 0
M  V30 3551 H 332.135 -1.98548 3.67381 0
M  V30 3552 N 332.573 -1.56217 0.208337 0
M  V30 3553 C 333.536 -2.18455 -0.693557 0
M  V30 3554 C 334.536 -1.14268 -1.13135 0
M  V30 3555 O 335.726 -1.39577 -1.0423 0
M  V30 3556 C 332.858 -2.79727 -1.94848 0
M  V30 3557 H 334.051 -2.99519 -0.15114 0
M  V30 3558 H 331.604 -1.56245 -0.041287 0
M  V30 3559 H 332.339 -2.02497 -2.53309 0
M  V30 3560 H 332.124 -3.56009 -1.64316 0
M  V30 3561 H 333.614 -3.27475 -2.59133 0
M  V30 3562 N 334.051 0.0651679 -1.57465 0
M  V30 3563 C 335.276 0.779605 -1.9219 0
M  V30 3564 C 335.701 1.69988 -0.805333 0
M  V30 3565 O 335.059 1.79685 0.241435 0
M  V30 3566 C 335.107 1.54364 -3.2589 0
M  V30 3567 O 334.211 2.65474 -3.1559 0
M  V30 3568 H 333.552 0.212249 -0.629163 0
M  V30 3569 H 336.082 0.0314294 -2.04576 0
M  V30 3570 H 336.092 1.92146 -3.59922 0
M  V30 3571 H 334.767 0.868457 -4.06732 0
M  V30 3572 H 333.344 2.30501 -2.93128 0
M  V30 3573 N 335.529 1.53961 0.336706 0
M  V30 3574 C 336.776 1.71536 1.07618 0
M  V30 3575 C 337.104 0.482125 1.8843 0
M  V30 3576 O 336.359 -0.536142 1.88213 0
M  V30 3577 C 336.658 2.93493 2.03953 0
M  V30 3578 C 336.324 4.28811 1.39399 0
M  V30 3579 C 334.986 4.65602 1.21523 0
M  V30 3580 C 337.338 5.12844 0.929541 0
M  V30 3581 C 334.666 5.84037 0.558312 0
M  V30 3582 C 337.018 6.31951 0.286505 0
M  V30 3583 C 335.682 6.67432 0.0954869 0
M  V30 3584 H 334.952 0.627696 0.393801 0
M  V30 3585 H 337.599 1.88186 0.354715 0
M  V30 3586 H 335.904 2.71475 2.82504 0
M  V30 3587 H 337.601 3.04285 2.61174 0
M  V30 3588 H 334.191 3.99858 1.54311 0
M  V30 3589 H 338.375 4.84947 1.05548 0
M  V30 3590 H 333.631 6.10097 0.398995 0
M  V30 3591 H 337.805 6.96352 -0.0814376 0
M  V30 3592 H 335.432 7.59063 -0.415579 0
M  V30 3593 N 337.007 -0.598083 1.45811 0
M  V30 3594 C 337.937 -1.71873 1.58057 0
M  V30 3595 C 338.918 -1.64533 0.431615 0
M  V30 3596 O 340.103 -1.82787 0.65595 0
M  V30 3597 C 337.233 -3.10495 1.55597 0
M  V30 3598 C 336.187 -3.32654 2.69305 0
M  V30 3599 C 335.513 -4.71646 2.51902 0
M  V30 3600 C 336.813 -3.21981 4.11248 0
M  V30 3601 H 338.507 -1.61881 2.51863 0
M  V30 3602 H 336.053 -0.777372 1.21214 0
M  V30 3603 H 338.006 -3.88699 1.6276 0
M  V30 3604 H 336.73 -3.2135 0.583255 0
M  V30 3605 H 335.389 -2.56843 2.61586 0
M  V30 3606 H 335.037 -4.79246 1.52748 0
M  V30 3607 H 334.737 -4.87426 3.2816 0
M  V30 3608 H 336.261 -5.52038 2.60933 0
M  V30 3609 H 337.675 -3.90049 4.20161 0
M  V30 3610 H 336.072 -3.49289 4.87972 0
M  V30 3611 H 337.142 -2.1928 4.32486 0
M  V30 3612 N 338.485 -1.33259 -0.841409 0
M  V30 3613 C 339.733 -1.24326 -1.59334 0
M  V30 3614 C 340.054 0.191564 -1.94057 0
M  V30 3615 O 339.324 1.11967 -1.60749 0
M  V30 3616 H 337.904 -0.457174 -0.590763 0
M  V30 3617 H 340.566 -1.66947 -1.00571 0
M  V30 3618 H 339.662 -1.8352 -2.52442 0
M  V30 3619 N 339.963 1.05934 -1.16686 0
M  V30 3620 C 341.212 1.78188 -0.945085 0
M  V30 3621 C 341.525 1.88338 0.528021 0
M  V30 3622 O 342.731 2.57258 0.867799 0
M  V30 3623 C 341.187 3.20277 -1.64167 0
M  V30 3624 C 340.795 3.18281 -3.15279 0
M  V30 3625 C 342.539 3.97039 -1.502 0
M  V30 3626 C 340.446 4.55112 -3.7766 0
M  V30 3627 H 339.376 0.667866 -0.349959 0
M  V30 3628 H 342.027 1.18794 -1.39858 0
M  V30 3629 H 340.409 3.79952 -1.11589 0
M  V30 3630 H 341.583 2.68167 -3.74731 0
M  V30 3631 H 339.898 2.55018 -3.29173 0
M  V30 3632 H 342.495 4.98194 -1.94183 0
M  V30 3633 H 342.838 4.13845 -0.451461 0
M  V30 3634 H 343.371 3.43894 -1.99954 0
M  V30 3635 H 340.11 4.43512 -4.82677 0
M  V30 3636 H 339.63 5.05406 -3.22994 0
M  V30 3637 H 341.309 5.24064 -3.79428 0
M  V30 3638 N 341.441 0.965919 1.2453 0
M  V30 3639 C 342.689 0.625593 1.92174 0
M  V30 3640 C 343.01 -0.841652 1.75901 0
M  V30 3641 O 342.28 -1.60061 1.12948 0
M  V30 3642 H 340.86 0.228388 0.71123 0
M  V30 3643 H 343.522 1.2266 1.51461 0
M  V30 3644 H 342.618 0.864653 2.99884 0
M  V30 3645 N 342.919 -1.39368 0.735821 0
M  V30 3646 C 344.147 -2.04795 0.294393 0
M  V30 3647 C 344.562 -1.55478 -1.07107 0
M  V30 3648 O 343.919 -0.720038 -1.67695 0
M  V30 3649 C 343.97 -3.6035 0.288071 0
M  V30 3650 O 343.691 -4.07852 1.59963 0
M  V30 3651 C 345.192 -4.42976 -0.169422 0
M  V30 3652 H 342.412 -0.658571 0.128551 0
M  V30 3653 H 344.956 -1.78399 0.999701 0
M  V30 3654 H 343.111 -3.85645 -0.368355 0
M  V30 3655 H 343.525 -5.02181 1.51375 0
M  V30 3656 H 344.999 -5.51864 -0.122687 0
M  V30 3657 H 345.476 -4.22068 -1.21472 0
M  V30 3658 H 346.082 -4.22832 0.457469 0
M  V30 3659 N 344.397 -0.483516 -1.5 0
M  V30 3660 C 345.307 0.309172 -2.32554 0
M  V30 3661 C 346.323 0.984159 -1.43493 0
M  V30 3662 O 347.499 0.969399 -1.76535 0
M  V30 3663 C 344.564 1.36979 -3.18493 0
M  V30 3664 C 343.625 0.710095 -4.23387 0
M  V30 3665 C 342.858 1.72018 -5.05218 0
M  V30 3666 O 343.081 2.94813 -4.88305 0
M  V30 3667 O 342.015 1.28515 -5.8802 0
M  V30 3668 H 345.841 -0.366064 -3.01486 0
M  V30 3669 H 343.426 -0.24514 -1.47375 0
M  V30 3670 H 345.308 1.98385 -3.71781 0
M  V30 3671 H 343.983 2.02828 -2.52275 0
M  V30 3672 H 342.89 0.0567539 -3.74057 0
M  V30 3673 H 344.223 0.0943557 -4.9211 0
M  V30 3674 N 345.875 1.56104 -0.216619 0
M  V30 3675 C 346.823 2.21434 0.712036 0
M  V30 3676 C 347.817 1.19218 1.20348 0
M  V30 3677 O 349.023 1.3731 1.16387 0
M  V30 3678 H 345.398 0.70992 0.248026 0
M  V30 3679 H 347.369 2.98083 0.137558 0
M  V30 3680 C 346.118 2.90434 1.91163 0
M  V30 3681 H 345.441 3.68842 1.54258 0
M  V30 3682 H 346.881 3.39552 2.5393 0
M  V30 3683 C 345.34 1.92635 2.76394 0
M  V30 3684 O 345.87 1.44017 3.74996 0
M  V30 3685 N 344.076 1.60392 2.42328 0
M  V30 3686 H 343.623 2.00122 1.622 0
M  V30 3687 H 343.581 0.952159 2.99635 0
M  V30 3688 N 347.353 -0.0568162 1.57498 0
M  V30 3689 C 348.599 -0.75422 1.88253 0
M  V30 3690 C 348.932 -1.76461 0.810865 0
M  V30 3691 O 348.207 -1.93691 -0.177259 0
M  V30 3692 C 348.49 -1.44878 3.2967 0
M  V30 3693 C 348.343 -0.453789 4.47505 0
M  V30 3694 C 349.662 -2.38994 3.69554 0
M  V30 3695 H 346.781 -0.272724 0.684683 0
M  V30 3696 H 349.423 -0.0172113 1.89992 0
M  V30 3697 H 347.573 -2.077 3.28318 0
M  V30 3698 H 349.245 0.170371 4.60985 0
M  V30 3699 H 347.488 0.229552 4.33192 0
M  V30 3700 H 348.159 -0.977699 5.43273 0
M  V30 3701 H 350.635 -1.86239 3.72095 0
M  V30 3702 H 349.511 -2.84587 4.69363 0
M  V30 3703 H 349.772 -3.24461 3.00296 0
M  V30 3704 N 348.832 -1.54138 -0.328536 0
M  V30 3705 C 350.072 -1.73827 -1.07534 0
M  V30 3706 C 350.436 -0.498777 -1.85408 0
M  V30 3707 O 351.637 -0.572937 -2.62623 0
M  V30 3708 C 349.908 -2.97573 -1.97952 0
M  V30 3709 S 351.467 -3.38143 -2.79652 0
M  V30 3710 H 348.285 -0.611287 -0.36311 0
M  V30 3711 H 350.887 -1.92306 -0.351931 0
M  V30 3712 H 349.591 -3.85939 -1.39569 0
M  V30 3713 H 349.122 -2.81603 -2.74706 0
M  V30 3714 H 351.137 -2.93052 -4.00418 0
M  V30 3715 N 350.31 0.590341 -1.46126 0
M  V30 3716 C 351.557 1.34882 -1.5104 0
M  V30 3717 C 351.885 1.93849 -0.159021 0
M  V30 3718 O 351.14 1.76544 0.844436 0
M  V30 3719 C 351.439 2.5032 -2.55097 0
M  V30 3720 C 351.105 2.09394 -3.99331 0
M  V30 3721 C 349.767 1.97947 -4.38601 0
M  V30 3722 C 352.119 1.77712 -4.89967 0
M  V30 3723 C 349.447 1.53065 -5.66381 0
M  V30 3724 C 351.799 1.34312 -6.18177 0
M  V30 3725 C 350.463 1.21436 -6.56361 0
M  V30 3726 H 349.733 0.493568 -0.552695 0
M  V30 3727 H 352.38 0.665539 -1.79563 0
M  V30 3728 H 350.685 3.24062 -2.20207 0
M  V30 3729 H 352.382 3.08541 -2.56132 0
M  V30 3730 H 348.972 2.19235 -3.68285 0
M  V30 3731 H 353.156 1.85445 -4.60352 0
M  V30 3732 H 348.412 1.41733 -5.94745 0
M  V30 3733 H 352.586 1.08849 -6.87841 0
M  V30 3734 H 350.213 0.864345 -7.5527 0
M  V30 3735 N 351.788 1.33704 0.83433 0
M  V30 3736 C 353.034 1.25603 1.59222 0
M  V30 3737 C 353.367 -0.176659 1.93395 0
M  V30 3738 O 352.642 -1.11915 1.59076 0
M  V30 3739 C 352.925 2.13576 2.89926 0
M  V30 3740 C 352.778 3.65326 2.62406 0
M  V30 3741 C 354.097 2.01238 3.91397 0
M  V30 3742 H 351.216 0.457613 0.577719 0
M  V30 3743 H 353.858 1.63848 0.961972 0
M  V30 3744 H 352.008 1.8109 3.43713 0
M  V30 3745 H 353.68 4.08124 2.15017 0
M  V30 3746 H 351.923 3.8698 1.96033 0
M  V30 3747 H 352.594 4.22232 3.55562 0
M  V30 3748 H 355.07 2.29738 3.46929 0
M  V30 3749 H 353.946 2.65036 4.80673 0
M  V30 3750 H 354.207 0.985951 4.30966 0
M  V30 3751 N 353.266 -1.05314 1.17247 0
M  V30 3752 C 354.176 -2.16538 0.90268 0
M  V30 3753 C 355.192 -1.73523 -0.128707 0
M  V30 3754 O 356.368 -2.01337 0.0502701 0
M  V30 3755 C 353.433 -3.44167 0.418356 0
M  V30 3756 C 352.494 -4.01635 1.51618 0
M  V30 3757 C 351.727 -5.23171 1.05487 0
M  V30 3758 O 351.95 -5.70327 -0.0914715 0
M  V30 3759 O 350.884 -5.72848 1.8474 0
M  V30 3760 H 354.71 -2.42145 1.83302 0
M  V30 3761 H 352.295 -1.15037 0.953246 0
M  V30 3762 H 354.177 -4.21112 0.155726 0
M  V30 3763 H 352.852 -3.20063 -0.48385 0
M  V30 3764 H 351.759 -3.26135 1.83268 0
M  V30 3765 H 353.092 -4.30053 2.39405 0
M  V30 3766 N 354.744 -0.972509 -1.24016 0
M  V30 3767 C 355.972 -0.654803 -1.96265 0
M  V30 3768 C 356.387 0.776708 -1.72083 0
M  V30 3769 O 355.744 1.52171 -1.00748 0
M  V30 3770 C 355.795 -0.92592 -3.49441 0
M  V30 3771 O 355.516 -2.30116 -3.72798 0
M  V30 3772 C 357.017 -0.623068 -4.38899 0
M  V30 3773 H 354.237 -0.243907 -0.6251 0
M  V30 3774 H 356.781 -1.30175 -1.57717 0
M  V30 3775 H 354.936 -0.325108 -3.86033 0
M  V30 3776 H 355.35 -2.38483 -4.67147 0
M  V30 3777 H 356.824 -0.863189 -5.45209 0
M  V30 3778 H 357.301 0.442754 -4.36963 0
M  V30 3779 H 357.907 -1.204 -4.07902 0
M  V30 3780 N 356.222 1.38976 -0.743202 0
M  V30 3781 C 357.499 1.94351 -0.220705 0
M  V30 3782 C 357.879 1.67935 1.2791 0
M  V30 3783 O 357.227 1.01211 2.04862 0
M  V30 3784 C 357.437 3.44426 -0.563171 0
M  V30 3785 C 358.785 4.2144 -0.517046 0
M  V30 3786 O 359.809 3.52661 -0.500846 0
M  V30 3787 O 358.668 5.44032 -0.518806 0
M  V30 3788 H 355.762 0.825879 -0.043047 0
M  V30 3789 H 358.308 1.48429 -0.822618 0
M  V30 3790 H 357.08 3.5712 -1.59941 0
M  V30 3791 H 356.703 3.97543 0.0672883 0
M  V30 3792 N 357.7 0.491464 1.49741 0
M  V30 3793 C 358.948 -0.0563141 2.02022 0
M  V30 3794 C 359.269 -1.38363 1.37407 0
M  V30 3795 O 358.539 -1.88702 0.526166 0
M  V30 3796 H 357.119 -0.0238014 0.746621 0
M  V30 3797 H 359.781 0.646533 1.83864 0
M  V30 3798 H 358.877 -0.192967 3.11503 0
M  V30 3799 N 359.178 -1.55987 0.224894 0
M  V30 3800 C 360.594 -1.59066 -0.130426 0
M  V30 3801 C 360.794 -1.24176 -1.5869 0
M  V30 3802 O 359.85 -0.978592 -2.32766 0
M  V30 3803 C 361.163 -3.00042 0.198883 0
M  V30 3804 C 362.711 -3.1268 0.141391 0
M  V30 3805 C 363.186 -4.55839 0.444422 0
M  V30 3806 N 364.677 -4.6152 0.394115 0
M  V30 3807 C 365.412 -5.70231 0.602038 0
M  V30 3808 N 364.908 -6.87291 0.871914 0
M  V30 3809 N 366.701 -5.59555 0.534245 0
M  V30 3810 H 358.852 -1.76941 1.17497 0
M  V30 3811 H 361.115 -0.822604 0.471197 0
M  V30 3812 H 360.821 -3.30234 1.2099 0
M  V30 3813 H 360.695 -3.74075 -0.484535 0
M  V30 3814 H 363.082 -2.82283 -0.860265 0
M  V30 3815 H 363.163 -2.40969 0.858335 0
M  V30 3816 H 362.807 -4.86954 1.44353 0
M  V30 3817 H 362.737 -5.2578 -0.293752 0
M  V30 3818 H 365.228 -3.77405 0.193356 0
M  V30 3819 H 365.541 -7.66058 1.01858 0
M  V30 3820 H 363.886 -6.89028 0.909145 0
M  V30 3821 H 367.077 -4.6698 0.323612 0
M  V30 3822 H 367.25 -6.44211 0.699693 0
M  V30 3823 N 360.656 0.0484629 -1.57525 0
M  V30 3824 C 361.904 0.741657 -1.88 0
M  V30 3825 C 362.225 1.76918 -0.820054 0
M  V30 3826 O 361.495 1.95335 0.148661 0
M  V30 3827 H 360.075 0.276908 -0.69378 0
M  V30 3828 H 362.737 0.019013 -1.94891 0
M  V30 3829 H 361.833 1.24336 -2.86264 0
M  V30 3830 N 362.134 1.5431 0.320358 0
M  V30 3831 C 363.081 1.83918 1.39438 0
M  V30 3832 C 364.051 0.686525 1.51248 0
M  V30 3833 O 365.236 0.933269 1.66417 0
M  V30 3834 C 362.376 2.075 2.75749 0
M  V30 3835 C 361.489 3.35177 2.72544 0
M  V30 3836 C 360.624 3.48704 4.00723 0
M  V30 3837 C 359.663 4.70244 3.91838 0
M  V30 3838 N 358.8 4.80679 5.11754 0
M  V30 3839 H 363.64 2.75544 1.13489 0
M  V30 3840 H 361.177 1.36459 0.549309 0
M  V30 3841 H 363.135 2.19166 3.54996 0
M  V30 3842 H 361.765 1.19163 3 0
M  V30 3843 H 360.817 3.32233 1.85271 0
M  V30 3844 H 362.129 4.24534 2.61863 0
M  V30 3845 H 361.283 3.59928 4.88402 0
M  V30 3846 H 360.022 2.57445 4.14214 0
M  V30 3847 H 359.027 4.59072 3.02544 0
M  V30 3848 H 360.252 5.6289 3.7991 0
M  V30 3849 H 358.198 3.92337 5.25745 0
M  V30 3850 H 358.115 5.64007 5.0342 0
M  V30 3851 H 359.383 4.96239 6.01138 0
M  V30 3852 N 363.613 -0.582584 1.46437 0
M  V30 3853 C 364.546 -1.70633 1.51524 0
M  V30 3854 C 365.524 -1.58349 0.369351 0
M  V30 3855 O 366.708 -1.79563 0.573516 0
M  V30 3856 C 363.835 -3.08687 1.39392 0
M  V30 3857 C 362.881 -3.3949 2.58164 0
M  V30 3858 S 363.714 -3.31548 4.20519 0
M  V30 3859 C 364.87 -4.72139 4.10896 0
M  V30 3860 H 365.103 -1.66058 2.46601 0
M  V30 3861 H 362.636 -0.761337 1.34324 0
M  V30 3862 H 364.594 -3.8833 1.33079 0
M  V30 3863 H 363.255 -3.10751 0.457436 0
M  V30 3864 H 362.448 -4.40071 2.45669 0
M  V30 3865 H 362.05 -2.67415 2.61468 0
M  V30 3866 H 364.342 -5.62527 3.77584 0
M  V30 3867 H 365.285 -4.89692 5.11476 0
M  V30 3868 H 365.693 -4.48995 3.42146 0
M  V30 3869 N 365.091 -1.34144 -0.827227 0
M  V30 3870 C 366.34 -1.25602 -1.5782 0
M  V30 3871 C 366.653 0.173445 -1.94829 0
M  V30 3872 O 367.859 0.380984 -2.68814 0
M  V30 3873 C 366.315 -2.20151 -2.84713 0
M  V30 3874 C 365.923 -3.68331 -2.55021 0
M  V30 3875 C 367.667 -2.20508 -3.62735 0
M  V30 3876 C 365.574 -4.54762 -3.78082 0
M  V30 3877 H 364.504 -0.466573 -0.592306 0
M  V30 3878 H 367.155 -1.59283 -0.911116 0
M  V30 3879 H 365.537 -1.79417 -3.53023 0
M  V30 3880 H 366.711 -4.17577 -1.94849 0
M  V30 3881 H 365.026 -3.7038 -1.90283 0
M  V30 3882 H 367.623 -2.82306 -4.54101 0
M  V30 3883 H 367.966 -1.20322 -3.98533 0
M  V30 3884 H 368.499 -2.59664 -3.01362 0
M  V30 3885 H 365.238 -5.55867 -3.47407 0
M  V30 3886 H 364.758 -4.10254 -4.37552 0
M  V30 3887 H 366.437 -4.69153 -4.45538 0
M  V30 3888 N 366.569 1.04691 -1.17803 0
M  V30 3889 C 367.98 1.59238 -0.974689 0
M  V30 3890 C 368.331 1.90306 0.477292 0
M  V30 3891 O 367.456 1.68846 1.35352 0
M  V30 3892 C 368.051 2.89318 -1.76296 0
M  V30 3893 C 366.61 3.40506 -1.60414 0
M  V30 3894 C 365.757 2.14172 -1.76141 0
M  V30 3895 H 368.708 0.874395 -1.32439 0
M  V30 3896 H 368.729 3.5944 -1.24833 0
M  V30 3897 H 368.241 2.66675 -2.81968 0
M  V30 3898 H 366.342 3.68175 -0.572519 0
M  V30 3899 H 366.455 4.14753 -2.39827 0
M  V30 3900 H 364.819 2.25176 -1.19028 0
M  V30 3901 H 365.602 1.93992 -2.83235 0
M  V30 3902 N 368.047 0.979072 1.23499 0
M  V30 3903 C 368.957 0.526431 2.28617 0
M  V30 3904 C 369.973 -0.418126 1.68901 0
M  V30 3905 O 371.149 -0.288372 1.99325 0
M  V30 3906 C 368.214 -0.165235 3.46306 0
M  V30 3907 C 367.275 0.82056 4.21385 0
M  V30 3908 C 366.508 0.161807 5.33455 0
M  V30 3909 O 366.731 -1.04742 5.60701 0
M  V30 3910 O 365.665 0.859708 5.95729 0
M  V30 3911 H 369.491 1.4006 2.69475 0
M  V30 3912 H 367.076 0.746643 1.29405 0
M  V30 3913 H 368.958 -0.553287 4.17752 0
M  V30 3914 H 367.633 -1.01419 3.07402 0
M  V30 3915 H 366.54 1.25929 3.52268 0
M  V30 3916 H 367.873 1.63828 4.64135 0
M  V30 3917 N 369.525 -1.3858 0.750561 0
M  V30 3918 C 370.435 -2.34278 0.122825 0
M  V30 3919 C 371.451 -1.59116 -0.704131 0
M  V30 3920 O 372.627 -1.91326 -0.628987 0
M  V30 3921 C 369.692 -3.38221 -0.762086 0
M  V30 3922 C 368.753 -4.29227 0.078896 0
M  V30 3923 C 367.986 -5.28205 -0.763874 0
M  V30 3924 O 368.209 -5.34112 -2.00201 0
M  V30 3925 O 367.143 -6.01618 -0.18428 0
M  V30 3926 H 370.969 -2.89649 0.913088 0
M  V30 3927 H 368.554 -1.40374 0.511417 0
M  V30 3928 H 370.436 -4.01872 -1.26793 0
M  V30 3929 H 369.111 -2.85211 -1.5309 0
M  V30 3930 H 368.018 -3.68747 0.630621 0
M  V30 3931 H 369.351 -4.85484 0.810289 0
M  V30 3932 N 371.003 -0.499398 -1.49478 0
M  V30 3933 C 371.933 0.269244 -2.31943 0
M  V30 3934 C 372.914 0.964054 -1.40143 0
M  V30 3935 O 374.099 0.955767 -1.69052 0
M  V30 3936 C 371.229 1.33504 -3.20615 0
M  V30 3937 C 370.183 0.760202 -4.21195 0
M  V30 3938 C 369.509 1.9264 -4.98792 0
M  V30 3939 C 370.809 -0.247661 -5.21712 0
M  V30 3940 H 372.503 -0.419082 -2.96452 0
M  V30 3941 H 370.049 -0.202988 -1.42562 0
M  V30 3942 H 372.002 1.88048 -3.77115 0
M  V30 3943 H 370.726 2.05253 -2.54045 0
M  V30 3944 H 369.385 0.23653 -3.65836 0
M  V30 3945 H 369.033 2.63154 -4.28671 0
M  V30 3946 H 368.733 1.54785 -5.66847 0
M  V30 3947 H 370.257 2.4762 -5.58137 0
M  V30 3948 H 371.671 0.209579 -5.72917 0
M  V30 3949 H 370.068 -0.541962 -5.97648 0
M  V30 3950 H 371.138 -1.16409 -4.7072 0
M  V30 3951 N 372.481 1.55866 -0.233164 0
M  V30 3952 C 373.391 2.24431 0.683217 0
M  V30 3953 C 374.407 1.2558 1.2044 0
M  V30 3954 O 375.583 1.58422 1.24356 0
M  V30 3955 C 372.648 2.91979 1.86947 0
M  V30 3956 C 371.709 4.06204 1.38912 0
M  V30 3957 C 370.942 4.70522 2.51883 0
M  V30 3958 O 371.165 4.33865 3.70293 0
M  V30 3959 O 370.099 5.59296 2.22423 0
M  V30 3960 H 373.925 3.03426 0.129059 0
M  V30 3961 H 371.51 1.494 -0.0022283 0
M  V30 3962 H 373.392 3.34573 2.56201 0
M  V30 3963 H 372.067 2.15935 2.41151 0
M  V30 3964 H 370.974 3.68155 0.664259 0
M  V30 3965 H 372.307 4.84025 0.893328 0
M  V30 3966 N 373.959 -0.0401083 1.57549 0
M  V30 3967 C 374.906 -1.04413 2.05831 0
M  V30 3968 C 375.876 -1.36585 0.945184 0
M  V30 3969 O 377.061 -1.47112 1.21502 0
M  V30 3970 C 374.201 -2.34336 2.53339 0
M  V30 3971 C 373.314 -2.08419 3.78398 0
M  V30 3972 C 372.449 -3.32133 4.14561 0
M  V30 3973 C 371.488 -3.01721 5.3257 0
M  V30 3974 N 370.625 -4.17855 5.64218 0
M  V30 3975 H 375.465 -0.625442 2.91363 0
M  V30 3976 H 373.002 -0.297218 1.44066 0
M  V30 3977 H 374.96 -3.10234 2.78946 0
M  V30 3978 H 373.59 -2.73948 1.7074 0
M  V30 3979 H 372.642 -1.23069 3.59942 0
M  V30 3980 H 373.954 -1.81978 4.64419 0
M  V30 3981 H 373.108 -4.16406 4.41238 0
M  V30 3982 H 371.847 -3.61678 3.2717 0
M  V30 3983 H 370.852 -2.15849 5.05657 0
M  V30 3984 H 372.077 -2.73466 6.21605 0
M  V30 3985 H 370.023 -4.47372 4.79786 0
M  V30 3986 H 369.94 -3.94798 6.44725 0
M  V30 3987 H 371.208 -5.03033 5.95465 0
M  V30 3988 N 375.437 -1.54477 -0.31217 0
M  V30 3989 C 376.369 -1.81011 -1.40598 0
M  V30 3990 C 377.382 -0.692546 -1.47335 0
M  V30 3991 O 378.571 -0.969847 -1.49854 0
M  V30 3992 C 375.671 -1.92307 -2.79054 0
M  V30 3993 C 374.844 -3.22594 -2.95384 0
M  V30 3994 C 373.903 -3.24448 -4.1427 0
M  V30 3995 O 372.929 -3.98035 -4.06887 0
M  V30 3996 N 374.131 -2.49042 -5.24365 0
M  V30 3997 H 376.896 -2.75408 -1.18196 0
M  V30 3998 H 374.457 -1.53914 -0.502202 0
M  V30 3999 H 376.449 -1.90962 -3.56813 0
M  V30 4000 H 375.019 -1.04955 -2.94454 0
M  V30 4001 H 374.239 -3.36806 -2.04831 0
M  V30 4002 H 375.527 -4.08593 -3.03198 0
M  V30 4003 H 374.925 -1.88867 -5.33241 0
M  V30 4004 H 373.482 -2.53463 -6.005 0
M  V30 4005 N 376.915 0.57481 -1.46744 0
M  V30 4006 C 378.161 1.3347 -1.52688 0
M  V30 4007 C 378.494 1.93353 -0.181229 0
M  V30 4008 O 377.769 1.76912 0.808237 0
M  V30 4009 C 378.052 2.45811 -2.63152 0
M  V30 4010 C 377.905 1.90912 -4.07275 0
M  V30 4011 C 379.224 3.47822 -2.69644 0
M  V30 4012 H 376.343 0.483935 -0.555856 0
M  V30 4013 H 378.985 0.644968 -1.78718 0
M  V30 4014 H 377.135 3.04646 -2.41088 0
M  V30 4015 H 378.807 1.36473 -4.4065 0
M  V30 4016 H 377.05 1.21691 -4.16382 0
M  V30 4017 H 377.721 2.72042 -4.80309 0
M  V30 4018 H 380.197 2.9888 -2.895 0
M  V30 4019 H 379.073 4.23876 -3.48742 0
M  V30 4020 H 379.334 4.05555 -1.76005 0
M  V30 4021 N 378.394 1.34581 0.820102 0
M  V30 4022 C 379.64 1.28294 1.57836 0
M  V30 4023 C 379.995 -0.145099 1.91852 0
M  V30 4024 O 379.288 -1.09209 1.57429 0
M  V30 4025 C 379.482 2.10997 2.8847 0
M  V30 4026 C 379.311 3.61698 2.67216 0
M  V30 4027 C 378.081 4.3097 2.63805 0
M  V30 4028 C 380.279 4.55638 2.38534 0
M  V30 4029 N 378.261 5.67502 2.34126 0
M  V30 4030 C 379.632 5.80194 2.18574 0
M  V30 4031 C 381.687 4.44523 2.24285 0
M  V30 4032 C 380.39 6.94886 1.8581 0
M  V30 4033 C 382.416 5.5905 1.92916 0
M  V30 4034 C 381.778 6.82627 1.73782 0
M  V30 4035 H 377.877 0.524697 0.579842 0
M  V30 4036 H 380.461 1.69323 0.961139 0
M  V30 4037 H 378.632 1.7226 3.48111 0
M  V30 4038 H 380.364 1.96333 3.53886 0
M  V30 4039 H 377.119 3.83438 2.77978 0
M  V30 4040 H 377.543 6.39525 2.22118 0
M  V30 4041 H 382.185 3.49599 2.37782 0
M  V30 4042 H 379.903 7.89789 1.7105 0
M  V30 4043 H 383.489 5.52396 1.82619 0
M  V30 4044 H 382.369 7.69748 1.49861 0
M  V30 4045 N 379.872 -1.04064 1.18357 0
M  V30 4046 C 380.804 -2.12114 0.868358 0
M  V30 4047 C 381.817 -1.62247 -0.134045 0
M  V30 4048 O 383.006 -1.78253 0.0937933 0
M  V30 4049 C 380.106 -3.37773 0.276132 0
M  V30 4050 C 379.279 -4.16874 1.3242 0
M  V30 4051 C 378.338 -5.20861 0.747662 0
M  V30 4052 O 377.364 -5.51141 1.42239 0
M  V30 4053 N 378.566 -5.78715 -0.454823 0
M  V30 4054 H 381.331 -2.39748 1.79836 0
M  V30 4055 H 378.892 -1.20258 1.08396 0
M  V30 4056 H 380.884 -4.04513 -0.123133 0
M  V30 4057 H 379.454 -3.07581 -0.557895 0
M  V30 4058 H 378.674 -3.45456 1.89878 0
M  V30 4059 H 379.962 -4.66516 2.03078 0
M  V30 4060 H 379.36 -5.56415 -1.02073 0
M  V30 4061 H 377.917 -6.46921 -0.79601 0
M  V30 4062 N 381.35 -0.985608 -1.22978 0
M  V30 4063 C 382.313 -0.535071 -2.22867 0
M  V30 4064 C 383.313 0.378123 -1.56291 0
M  V30 4065 O 384.503 0.171092 -1.73358 0
M  V30 4066 C 381.635 0.222702 -3.40172 0
M  V30 4067 H 382.828 -1.41835 -2.6424 0
M  V30 4068 H 380.381 -0.772042 -1.35901 0
M  V30 4069 H 381.116 1.12229 -3.04262 0
M  V30 4070 H 380.901 -0.43288 -3.89703 0
M  V30 4071 H 382.391 0.526335 -4.1427 0
M  V30 4072 N 382.828 1.3818 -0.7579 0
M  V30 4073 C 384.244 1.5353 -0.435972 0
M  V30 4074 C 384.444 1.71961 1.05032 0
M  V30 4075 O 383.5 1.73307 1.83633 0
M  V30 4076 C 384.813 2.73989 -1.23898 0
M  V30 4077 C 386.361 2.87841 -1.22949 0
M  V30 4078 C 386.836 4.11266 -2.01554 0
M  V30 4079 N 388.327 4.18352 -1.98837 0
M  V30 4080 C 389.062 5.12856 -2.5645 0
M  V30 4081 N 388.558 6.13005 -3.22794 0
M  V30 4082 N 390.351 5.05238 -2.46356 0
M  V30 4083 H 382.502 1.24467 -1.7211 0
M  V30 4084 H 384.765 0.604982 -0.729864 0
M  V30 4085 H 384.471 2.66789 -2.29165 0
M  V30 4086 H 384.345 3.67294 -0.858764 0
M  V30 4087 H 386.732 2.9452 -0.184854 0
M  V30 4088 H 386.813 1.95534 -1.64924 0
M  V30 4089 H 386.457 4.05349 -3.06031 0
M  V30 4090 H 386.387 5.02661 -1.5697 0
M  V30 4091 H 388.878 3.46628 -1.50524 0
M  V30 4092 H 389.191 6.81619 -3.64165 0
M  V30 4093 H 387.536 6.13325 -3.2689 0
M  V30 4094 H 390.727 4.25938 -1.9415 0
M  V30 4095 H 390.9 5.78707 -2.91552 0
M  V30 4096 N 384.306 0.507319 1.49211 0
M  V30 4097 C 385.253 -0.267728 2.29242 0
M  V30 4098 C 386.223 -0.954609 1.35928 0
M  V30 4099 O 387.408 -0.960046 1.64887 0
M  V30 4100 C 384.548 -1.32243 3.18756 0
M  V30 4101 C 383.661 -0.64669 4.27132 0
M  V30 4102 C 382.796 -1.68238 5.03855 0
M  V30 4103 C 381.835 -0.98885 6.0406 0
M  V30 4104 N 380.972 -1.96903 6.73924 0
M  V30 4105 H 385.812 0.420968 2.95012 0
M  V30 4106 H 383.349 0.219443 1.45454 0
M  V30 4107 H 385.307 -1.94599 3.69036 0
M  V30 4108 H 383.937 -1.97981 2.54958 0
M  V30 4109 H 382.989 0.0902926 3.80293 0
M  V30 4110 H 384.301 -0.101058 4.98698 0
M  V30 4111 H 383.455 -2.38081 5.58034 0
M  V30 4112 H 382.194 -2.26187 4.32077 0
M  V30 4113 H 381.199 -0.276222 5.49106 0
M  V30 4114 H 382.424 -0.415767 6.77826 0
M  V30 4115 H 380.37 -2.53803 6.04913 0
M  V30 4116 H 380.287 -1.47423 7.41487 0
M  V30 4117 H 381.555 -2.66015 7.32705 0
M  V30 4118 N 385.784 -1.5574 0.241426 0
M  V30 4119 C 386.694 -2.2479 -0.671305 0
M  V30 4120 C 387.71 -1.26217 -1.19772 0
M  V30 4121 O 388.886 -1.59079 -1.23514 0
M  V30 4122 C 385.951 -2.92966 -1.85396 0
M  V30 4123 C 385.012 -4.06935 -1.36756 0
M  V30 4124 C 384.245 -4.71851 -2.49384 0
M  V30 4125 O 384.468 -4.35823 -3.67987 0
M  V30 4126 O 383.402 -5.60467 -2.19454 0
M  V30 4127 H 387.228 -3.0349 -0.112966 0
M  V30 4128 H 384.813 -1.49397 0.0101513 0
M  V30 4129 H 386.695 -3.35927 -2.54423 0
M  V30 4130 H 385.37 -2.17211 -2.40002 0
M  V30 4131 H 384.277 -3.68503 -0.644726 0
M  V30 4132 H 385.61 -4.84492 -0.867647 0
M  V30 4133 N 387.262 0.0317525 -1.57568 0
M  V30 4134 C 388.51 0.721676 -1.88776 0
M  V30 4135 C 388.831 1.76039 -0.838772 0
M  V30 4136 O 388.101 1.95482 0.127935 0
M  V30 4137 H 386.681 0.269534 -0.696678 0
M  V30 4138 H 389.343 -0.00165879 -1.949 0
M  V30 4139 H 388.439 1.21293 -2.87566 0
M  V30 4140 N 388.74 1.54641 0.303973 0
M  V30 4141 C 389.703 1.84646 1.35789 0
M  V30 4142 C 390.703 0.7192 1.4382 0
M  V30 4143 O 391.893 0.987491 1.43507 0
M  V30 4144 C 389.025 2.02407 2.74307 0
M  V30 4145 H 390.218 2.78829 1.10429 0
M  V30 4146 H 387.771 1.46658 0.540487 0
M  V30 4147 H 388.506 1.10502 3.04893 0
M  V30 4148 H 388.291 2.84453 2.69868 0
M  V30 4149 H 389.781 2.27002 3.50514 0
M  V30 4150 N 390.218 -0.567019 1.47046 0
M  V30 4151 C 391.181 -1.65696 1.58359 0
M  V30 4152 C 392.181 -1.54097 0.459441 0
M  V30 4153 O 393.371 -1.58432 0.724225 0
M  V30 4154 C 390.503 -3.05197 1.51879 0
M  V30 4155 H 391.696 -1.57019 2.5551 0
M  V30 4156 H 389.249 -0.786148 1.3509 0
M  V30 4157 H 389.984 -3.19417 0.560673 0
M  V30 4158 H 389.769 -3.15025 2.33455 0
M  V30 4159 H 391.259 -3.84511 1.62913 0
M  V30 4160 N 391.696 -1.35014 -0.812953 0
M  V30 4161 C 393.107 -1.25035 -1.38648 0
M  V30 4162 C 393.458 0.119967 -1.95833 0
M  V30 4163 O 392.583 1.02069 -1.90816 0
M  V30 4164 C 393.178 -2.26394 -2.52054 0
M  V30 4165 C 391.737 -2.20175 -3.05287 0
M  V30 4166 C 390.884 -2.12451 -1.78213 0
M  V30 4167 H 393.835 -1.46235 -0.616516 0
M  V30 4168 H 393.856 -1.88672 -3.30429 0
M  V30 4169 H 393.368 -3.26116 -2.10404 0
M  V30 4170 H 391.469 -1.23841 -3.51417 0
M  V30 4171 H 391.582 -3.11863 -3.63701 0
M  V30 4172 H 389.946 -1.58328 -1.9951 0
M  V30 4173 H 390.729 -3.14024 -1.38723 0
M  V30 4174 N 393.175 1.03435 -1.18907 0
M  V30 4175 C 394.422 1.76743 -0.988334 0
M  V30 4176 C 394.75 1.88447 0.481441 0
M  V30 4177 O 394.005 1.39383 1.37371 0
M  V30 4178 C 394.304 3.19792 -1.59586 0
M  V30 4179 C 393.97 3.28108 -3.09283 0
M  V30 4180 C 392.632 3.30084 -3.5014 0
M  V30 4181 C 394.984 3.27696 -4.05296 0
M  V30 4182 C 392.312 3.29299 -4.85571 0
M  V30 4183 C 394.664 3.28451 -5.4065 0
M  V30 4184 C 393.328 3.28723 -5.80946 0
M  V30 4185 H 392.598 0.64675 -0.361657 0
M  V30 4186 H 395.245 1.21442 -1.48068 0
M  V30 4187 H 393.55 3.78136 -1.02568 0
M  V30 4188 H 395.247 3.75171 -1.41589 0
M  V30 4189 H 391.837 3.27294 -2.76725 0
M  V30 4190 H 396.021 3.25354 -3.74778 0
M  V30 4191 H 391.277 3.2783 -5.16079 0
M  V30 4192 H 395.451 3.27082 -6.14809 0
M  V30 4193 H 393.078 3.27868 -6.85862 0
M  V30 4194 N 394.653 0.992116 1.22453 0
M  V30 4195 C 395.583 0.561677 2.26644 0
M  V30 4196 C 396.564 -0.411055 1.65059 0
M  V30 4197 O 397.749 -0.301861 1.9184 0
M  V30 4198 C 394.879 -0.125247 3.47074 0
M  V30 4199 C 393.833 0.765948 4.21091 0
M  V30 4200 C 393.159 -0.0538484 5.34673 0
M  V30 4201 C 394.459 2.06242 4.79856 0
M  V30 4202 H 396.153 1.43259 2.62902 0
M  V30 4203 H 393.699 0.690283 1.26377 0
M  V30 4204 H 395.652 -0.437764 4.1912 0
M  V30 4205 H 394.376 -1.03069 3.0991 0
M  V30 4206 H 393.035 1.0621 3.50878 0
M  V30 4207 H 392.683 -0.960188 4.9375 0
M  V30 4208 H 392.383 0.539415 5.85119 0
M  V30 4209 H 393.907 -0.360477 6.09535 0
M  V30 4210 H 395.321 1.8139 5.43848 0
M  V30 4211 H 393.718 2.60444 5.40638 0
M  V30 4212 H 394.788 2.74167 3.99951 0
M  V30 4213 N 396.131 -1.37776 0.765217 0
M  V30 4214 C 397.377 -2.00145 0.327072 0
M  V30 4215 C 397.71 -1.60607 -1.09175 0
M  V30 4216 O 396.985 -0.849127 -1.74986 0
M  V30 4217 C 397.268 -3.57109 0.46319 0
M  V30 4218 C 397.121 -4.06576 1.92395 0
M  V30 4219 C 398.44 -4.39888 -0.136473 0
M  V30 4220 H 395.559 -0.727113 0.120316 0
M  V30 4221 H 398.201 -1.63549 0.967039 0
M  V30 4222 H 396.351 -3.88414 -0.0816358 0
M  V30 4223 H 398.023 -3.85864 2.52798 0
M  V30 4224 H 396.266 -3.59011 2.43503 0
M  V30 4225 H 396.937 -5.15639 1.97028 0
M  V30 4226 H 399.413 -4.14803 0.328317 0
M  V30 4227 H 398.289 -5.48899 -0.0110582 0
M  V30 4228 H 398.55 -4.24758 -1.22608 0
M  V30 4229 N 397.609 -0.515225 -1.4894 0
M  V30 4230 C 398.849 0.0223983 -2.04388 0
M  V30 4231 C 399.213 1.32961 -1.38511 0
M  V30 4232 O 400.414 1.95236 -1.8476 0
M  V30 4233 C 398.685 0.157056 -3.57055 0
M  V30 4234 S 400.244 0.646875 -4.34006 0
M  V30 4235 H 397.062 -0.00500662 -0.710982 0
M  V30 4236 H 399.664 -0.69243 -1.82827 0
M  V30 4237 H 398.368 -0.799412 -4.02539 0
M  V30 4238 H 397.899 0.896704 -3.83044 0
M  V30 4239 H 399.914 1.91381 -4.57808 0
M  V30 4240 N 399.087 1.5561 -0.249682 0
M  V30 4241 C 400.05 2.20217 0.635394 0
M  V30 4242 C 401.05 1.17227 1.10066 0
M  V30 4243 O 402.24 1.42292 1.00492 0
M  V30 4244 C 399.372 2.84794 1.87363 0
M  V30 4245 H 400.565 2.99814 0.0716752 0
M  V30 4246 H 398.118 1.563 -0.000153234 0
M  V30 4247 H 398.853 2.09142 2.47851 0
M  V30 4248 H 398.638 3.60241 1.5482 0
M  V30 4249 H 400.128 3.3423 2.5036 0
M  V30 4250 N 400.565 -0.0233959 1.57583 0
M  V30 4251 C 401.793 -0.724682 1.93794 0
M  V30 4252 C 402.208 -1.68588 0.849912 0
M  V30 4253 O 401.565 -1.81676 -0.173204 0
M  V30 4254 C 401.616 -1.47684 3.29957 0
M  V30 4255 O 401.337 -0.554222 4.3458 0
M  V30 4256 C 402.838 -2.27477 3.80485 0
M  V30 4257 H 400.058 -0.203317 0.639455 0
M  V30 4258 H 402.602 0.0207653 2.04489 0
M  V30 4259 H 400.757 -2.17412 3.20641 0
M  V30 4260 H 401.171 -1.08232 5.13212 0
M  V30 4261 H 402.645 -2.7564 4.78254 0
M  V30 4262 H 403.122 -3.09144 3.11972 0
M  V30 4263 H 403.728 -1.62813 3.92902 0
M  V30 4264 N 402.043 -1.548 -0.295768 0
M  V30 4265 C 403.268 -1.78653 -1.05346 0
M  V30 4266 C 403.693 -0.546894 -1.79974 0
M  V30 4267 O 403.051 0.502763 -1.7419 0
M  V30 4268 C 403.099 -2.99679 -2.00561 0
M  V30 4269 O 402.203 -2.7317 -3.08953 0
M  V30 4270 H 401.544 -0.59116 -0.302367 0
M  V30 4271 H 404.074 -2.01895 -0.331598 0
M  V30 4272 H 404.084 -3.27793 -2.42932 0
M  V30 4273 H 402.759 -3.89562 -1.4565 0
M  V30 4274 H 401.336 -2.56089 -2.71059 0
M  V30 4275 N 403.521 0.559213 -1.47345 0
M  V30 4276 C 404.769 1.31388 -1.53563 0
M  V30 4277 C 405.09 1.93985 -0.198678 0
M  V30 4278 O 404.36 1.79825 0.777167 0
M  V30 4279 H 402.94 0.487901 -0.565652 0
M  V30 4280 H 405.602 0.65315 -1.8363 0
M  V30 4281 H 404.698 2.10844 -2.30111 0
M  V30 4282 N 404.999 1.35443 0.805782 0
M  V30 4283 C 406.227 1.31878 1.59423 0
M  V30 4284 C 406.642 -0.103562 1.88516 0
M  V30 4285 O 405.999 -1.05575 1.48863 0
M  V30 4286 C 406.05 2.12426 2.92502 0
M  V30 4287 O 405.771 3.49115 2.6467 0
M  V30 4288 C 407.272 2.16455 3.86862 0
M  V30 4289 H 404.492 0.453002 0.495005 0
M  V30 4290 H 407.036 1.78309 1.00131 0
M  V30 4291 H 405.191 1.69593 3.48306 0
M  V30 4292 H 405.605 3.90957 3.49647 0
M  V30 4293 H 407.079 2.77204 4.77349 0
M  V30 4294 H 407.556 1.16352 4.23508 0
M  V30 4295 H 408.162 2.59453 3.36993 0
M  V30 4296 N 406.477 -1.02803 1.19454 0
M  V30 4297 C 407.705 -1.79841 1.02297 0
M  V30 4298 C 408.12 -1.83879 -0.428259 0
M  V30 4299 O 407.477 -1.28345 -1.29745 0
M  V30 4300 C 407.528 -3.24852 1.58598 0
M  V30 4301 O 407.249 -3.21097 2.98041 0
M  V30 4302 C 408.75 -4.18485 1.46236 0
M  V30 4303 H 405.97 -0.565936 0.360496 0
M  V30 4304 H 408.514 -1.2948 1.58288 0
M  V30 4305 H 406.669 -3.72401 1.06753 0
M  V30 4306 H 407.083 -4.12033 3.24545 0
M  V30 4307 H 408.557 -5.18121 1.90407 0
M  V30 4308 H 409.034 -4.37254 0.41301 0
M  V30 4309 H 409.64 -3.76811 1.97215 0
M  V30 4310 N 407.956 -0.998596 -1.21925 0
M  V30 4311 C 409.202 -0.678667 -1.91107 0
M  V30 4312 C 409.535 0.78791 -1.77498 0
M  V30 4313 O 408.81 1.57043 -1.1475 0
M  V30 4314 C 409.093 -1.09245 -3.43129 0
M  V30 4315 C 408.946 -2.61801 -3.6576 0
M  V30 4316 C 410.265 -0.649984 -4.35274 0
M  V30 4317 H 407.384 -0.248025 -0.694012 0
M  V30 4318 H 410.026 -1.24314 -1.43688 0
M  V30 4319 H 408.176 -0.612171 -3.83647 0
M  V30 4320 H 409.848 -3.17543 -3.34611 0
M  V30 4321 H 408.091 -3.03609 -3.09845 0
M  V30 4322 H 408.762 -2.85804 -4.7225 0
M  V30 4323 H 411.238 -1.0626 -4.02303 0
M  V30 4324 H 410.114 -0.967743 -5.40302 0
M  V30 4325 H 410.375 0.449139 -4.39813 0
M  V30 4326 N 409.434 1.37368 -0.772513 0
M  V30 4327 C 410.364 2.32856 -0.173304 0
M  V30 4328 C 411.345 1.55818 0.682262 0
M  V30 4329 O 412.53 1.84052 0.619566 0
M  V30 4330 C 409.66 3.40048 0.706007 0
M  V30 4331 C 408.614 4.27973 -0.0483144 0
M  V30 4332 C 407.94 5.26184 0.950491 0
M  V30 4333 C 409.24 5.07665 -1.22776 0
M  V30 4334 H 410.934 2.83217 -0.971002 0
M  V30 4335 H 408.48 1.3617 -0.468377 0
M  V30 4336 H 410.433 4.05827 1.13501 0
M  V30 4337 H 409.157 2.88214 1.53623 0
M  V30 4338 H 407.816 3.63726 -0.458107 0
M  V30 4339 H 407.464 4.7063 1.77529 0
M  V30 4340 H 407.164 5.85872 0.450314 0
M  V30 4341 H 408.688 5.94838 1.37842 0
M  V30 4342 H 410.102 5.66578 -0.875366 0
M  V30 4343 H 408.499 5.76681 -1.66007 0
M  V30 4344 H 409.569 4.40294 -2.03149 0
M  V30 4345 N 410.912 0.523116 1.48665 0
M  V30 4346 C 412.16 -0.0134497 2.02096 0
M  V30 4347 C 412.481 -1.35418 1.40311 0
M  V30 4348 O 411.751 -1.87543 0.566074 0
M  V30 4349 H 410.331 -0.00795915 0.746958 0
M  V30 4350 H 412.993 0.685388 1.82451 0
M  V30 4351 H 412.089 -0.126849 3.11842 0
M  V30 4352 N 412.39 -1.55475 0.257931 0
M  V30 4353 C 413.353 -2.20551 -0.623706 0
M  V30 4354 C 414.353 -1.17809 -1.09443 0
M  V30 4355 O 415.543 -1.42823 -0.997362 0
M  V30 4356 C 412.675 -2.85784 -1.8585 0
M  V30 4357 H 413.868 -2.99848 -0.0557743 0
M  V30 4358 H 411.421 -1.56298 0.0084422 0
M  V30 4359 H 412.156 -2.10453 -2.46739 0
M  V30 4360 H 411.941 -3.61057 -1.52907 0
M  V30 4361 H 413.431 -3.35553 -2.48584 0
M  V30 4362 N 413.868 0.0150385 -1.57593 0
M  V30 4363 C 415.115 0.703001 -1.89906 0
M  V30 4364 C 415.443 1.74604 -0.856944 0
M  V30 4365 O 414.698 1.95197 0.140287 0
M  V30 4366 C 414.997 1.39686 -3.28972 0
M  V30 4367 C 414.663 0.488457 -4.48246 0
M  V30 4368 C 413.325 0.2383 -4.8061 0
M  V30 4369 C 415.677 -0.137881 -5.21018 0
M  V30 4370 C 413.005 -0.646738 -5.83125 0
M  V30 4371 C 415.357 -1.0107 -6.24474 0
M  V30 4372 C 414.021 -1.27019 -6.55303 0
M  V30 4373 H 413.291 0.257246 -0.694914 0
M  V30 4374 H 415.938 -0.037259 -1.91464 0
M  V30 4375 H 414.243 2.21079 -3.23468 0
M  V30 4376 H 415.94 1.93495 -3.51227 0
M  V30 4377 H 412.53 0.693593 -4.22951 0
M  V30 4378 H 416.714 0.0423953 -4.96282 0
M  V30 4379 H 411.97 -0.855937 -6.05379 0
M  V30 4380 H 416.144 -1.50247 -6.79999 0
M  V30 4381 H 413.771 -1.95769 -7.3456 0
M  V30 4382 N 415.346 1.54954 0.287554 0
M  V30 4383 C 416.623 1.65569 1.04146 0
M  V30 4384 C 417.003 0.512672 2.0478 0
M  V30 4385 O 416.351 -0.489038 2.23205 0
M  V30 4386 C 416.561 3.04163 1.71131 0
M  V30 4387 C 417.909 3.61429 2.22832 0
M  V30 4388 O 418.933 3.06702 1.81141 0
M  V30 4389 O 417.792 4.57281 2.9926 0
M  V30 4390 H 414.886 0.671881 0.482188 0
M  V30 4391 H 417.432 1.67297 0.28457 0
M  V30 4392 H 416.204 3.78796 0.981303 0
M  V30 4393 H 415.827 3.06271 2.53543 0
M  V30 4394 N 416.824 -0.551391 1.4764 0
M  V30 4395 C 418.235 -1.13349 1.48354 0
M  V30 4396 C 418.586 -1.94709 0.241432 0
M  V30 4397 O 417.711 -2.06306 -0.653205 0
M  V30 4398 C 418.306 -2.0623 2.68802 0
M  V30 4399 C 416.865 -2.597 2.72457 0
M  V30 4400 C 416.012 -1.36201 2.41546 0
M  V30 4401 H 418.963 -0.337698 1.55065 0
M  V30 4402 H 418.984 -2.90196 2.46103 0
M  V30 4403 H 418.496 -1.46987 3.59188 0
M  V30 4404 H 416.597 -3.22724 1.86225 0
M  V30 4405 H 416.71 -3.00296 3.73308 0
M  V30 4406 H 415.074 -1.67068 1.9225 0
M  V30 4407 H 415.857 -0.787425 3.34147 0
M  V30 4408 N 418.302 -1.35869 -0.798587 0
M  V30 4409 C 419.232 -1.32118 -1.92528 0
M  V30 4410 C 420.213 -0.194209 -1.68988 0
M  V30 4411 O 421.398 -0.390426 -1.90235 0
M  V30 4412 C 418.528 -1.10047 -3.29404 0
M  V30 4413 C 417.482 -2.19471 -3.67446 0
M  V30 4414 C 416.808 -1.82555 -5.02571 0
M  V30 4415 C 418.108 -3.61495 -3.76987 0
M  V30 4416 H 419.802 -2.26394 -1.95924 0
M  V30 4417 H 417.348 -1.08981 -0.94123 0
M  V30 4418 H 419.301 -1.06061 -4.07835 0
M  V30 4419 H 418.025 -0.122195 -3.26371 0
M  V30 4420 H 416.684 -2.22568 -2.91306 0
M  V30 4421 H 416.332 -0.833249 -4.9605 0
M  V30 4422 H 416.032 -2.5581 -5.28995 0
M  V30 4423 H 417.556 -1.80108 -5.83432 0
M  V30 4424 H 418.97 -3.60676 -4.4563 0
M  V30 4425 H 417.367 -4.33577 -4.14887 0
M  V30 4426 H 418.437 -3.97065 -2.78329 0
M  V30 4427 N 419.78 1.02168 -1.19998 0
M  V30 4428 C 421.057 1.72816 -0.916191 0
M  V30 4429 C 421.437 2.03081 0.576325 0
M  V30 4430 O 420.785 1.69122 1.53656 0
M  V30 4431 C 420.995 2.9997 -1.78378 0
M  V30 4432 C 422.343 3.73336 -2.02251 0
M  V30 4433 O 423.367 3.09914 -1.75589 0
M  V30 4434 O 422.226 4.87371 -2.47249 0
M  V30 4435 H 419.32 0.752924 -0.342103 0
M  V30 4436 H 421.866 1.08062 -1.30846 0
M  V30 4437 H 420.638 2.73888 -2.79466 0
M  V30 4438 H 420.261 3.72464 -1.39126 0
M  V30 4439 N 421.258 1.00505 1.21394 0
M  V30 4440 C 422.168 0.574806 2.27449 0
M  V30 4441 C 423.184 -0.382206 1.6975 0
M  V30 4442 O 424.36 -0.246027 1.99892 0
M  V30 4443 C 421.425 -0.0917414 3.46579 0
M  V30 4444 C 420.486 0.909758 4.1955 0
M  V30 4445 C 419.719 0.274924 5.32991 0
M  V30 4446 O 419.942 -0.928254 5.62796 0
M  V30 4447 O 418.876 0.985877 5.93771 0
M  V30 4448 H 422.702 1.45744 2.66444 0
M  V30 4449 H 420.287 0.773923 1.27792 0
M  V30 4450 H 422.169 -0.464551 4.18832 0
M  V30 4451 H 420.844 -0.948755 3.09484 0
M  V30 4452 H 419.751 1.33372 3.49518 0
M  V30 4453 H 421.084 1.73636 4.60555 0
M  V30 4454 N 422.737 -1.36956 0.779787 0
M  V30 4455 C 423.986 -1.98738 0.344405 0
M  V30 4456 C 424.299 -1.62596 -1.08728 0
M  V30 4457 O 425.505 -2.1754 -1.62445 0
M  V30 4458 C 423.961 -3.5544 0.564829 0
M  V30 4459 C 423.569 -4.00514 2.0073 0
M  V30 4460 C 425.313 -4.24059 0.193471 0
M  V30 4461 C 423.22 -5.49957 2.17489 0
M  V30 4462 H 422.15 -0.743561 0.12503 0
M  V30 4463 H 424.801 -1.56381 0.960057 0
M  V30 4464 H 423.183 -3.95817 -0.120397 0
M  V30 4465 H 424.357 -3.71362 2.72814 0
M  V30 4466 H 422.672 -3.44703 2.336 0
M  V30 4467 H 425.269 -5.33874 0.297097 0
M  V30 4468 H 425.612 -4.07378 -0.857263 0
M  V30 4469 H 426.145 -3.89012 0.831556 0
M  V30 4470 H 422.884 -5.71574 3.2091 0
M  V30 4471 H 422.404 -5.80767 1.49899 0
M  V30 4472 H 424.083 -6.16043 1.97738 0
M  V30 4473 N 424.215 -0.530993 -1.48385 0
M  V30 4474 C 425.178 0.220497 -2.28137 0
M  V30 4475 C 426.178 0.866851 -1.35434 0
M  V30 4476 O 427.368 0.726746 -1.58316 0
M  V30 4477 C 424.5 1.31921 -3.1434 0
M  V30 4478 H 425.693 -0.479714 -2.96038 0
M  V30 4479 H 423.246 -0.286968 -1.53643 0
M  V30 4480 H 423.981 2.05264 -2.51072 0
M  V30 4481 H 423.766 0.86085 -3.82533 0
M  V30 4482 H 425.256 1.84776 -3.74497 0
M  V30 4483 N 425.693 1.55336 -0.266172 0
M  V30 4484 C 426.97 1.91372 0.404486 0
M  V30 4485 C 427.35 1.18935 1.74407 0
M  V30 4486 O 426.698 0.3132 2.26343 0
M  V30 4487 C 426.908 3.44581 0.553593 0
M  V30 4488 C 428.256 4.16196 0.840618 0
M  V30 4489 O 429.28 3.50426 0.638739 0
M  V30 4490 O 428.139 5.32567 1.22618 0
M  V30 4491 H 425.233 0.797194 0.220025 0
M  V30 4492 H 427.779 1.66813 -0.311664 0
M  V30 4493 H 426.551 3.89357 -0.389498 0
M  V30 4494 H 426.174 3.75065 1.31955 0
M  V30 4495 N 427.171 -0.0066808 1.57599 0
M  V30 4496 C 428.42 -0.692078 1.89455 0
M  V30 4497 C 428.733 -1.75306 0.867586 0
M  V30 4498 O 429.939 -2.49262 1.07614 0
M  V30 4499 C 428.395 -1.2821 3.36289 0
M  V30 4500 C 428.003 -0.256291 4.47266 0
M  V30 4501 C 429.747 -1.94608 3.77264 0
M  V30 4502 C 427.654 -0.855927 5.85173 0
M  V30 4503 H 426.584 -0.262252 0.706923 0
M  V30 4504 H 429.235 0.052769 1.83424 0
M  V30 4505 H 427.617 -2.0774 3.37135 0
M  V30 4506 H 428.791 0.513923 4.57925 0
M  V30 4507 H 427.106 0.306862 4.15268 0
M  V30 4508 H 429.703 -2.40364 4.77629 0
M  V30 4509 H 430.046 -2.77382 3.10427 0
M  V30 4510 H 430.579 -1.21822 3.78688 0
M  V30 4511 H 427.318 -0.0671161 6.55466 0
M  V30 4512 H 426.838 -1.59546 5.78191 0
M  V30 4513 H 428.517 -1.35658 6.32618 0
M  V30 4514 N 428.649 -1.55105 -0.279332 0
M  V30 4515 C 429.889 -1.7716 -1.01949 0
M  V30 4516 C 430.253 -0.557511 -1.83728 0
M  V30 4517 O 431.454 -0.656198 -2.60667 0
M  V30 4518 C 429.725 -3.0372 -1.88385 0
M  V30 4519 S 431.284 -3.46868 -2.68752 0
M  V30 4520 H 428.102 -0.62253 -0.343478 0
M  V30 4521 H 430.704 -1.93329 -0.290572 0
M  V30 4522 H 429.408 -3.90184 -1.2722 0
M  V30 4523 H 428.939 -2.902 -2.65608 0
M  V30 4524 H 430.954 -3.05643 -3.90892 0
M  V30 4525 N 430.127 0.543554 -1.4793 0
M  V30 4526 C 431.037 1.67657 -1.64098 0
M  V30 4527 C 432.053 1.65934 -0.523622 0
M  V30 4528 O 433.229 1.85133 -0.792943 0
M  V30 4529 C 430.294 3.04146 -1.66421 0
M  V30 4530 C 429.355 3.16831 -2.89684 0
M  V30 4531 C 428.588 4.46809 -2.91886 0
M  V30 4532 O 428.811 5.33095 -2.02895 0
M  V30 4533 O 427.745 4.63573 -3.83906 0
M  V30 4534 H 431.571 1.56957 -2.59997 0
M  V30 4535 H 429.156 0.715116 -1.31173 0
M  V30 4536 H 431.038 3.85346 -1.70548 0
M  V30 4537 H 429.713 3.152 -0.736923 0
M  V30 4538 H 428.62 2.34977 -2.91095 0
M  V30 4539 H 429.953 3.10687 -3.81752 0
M  V30 4540 N 431.605 1.3629 0.791371 0
M  V30 4541 C 433.021 1.16661 1.08914 0
M  V30 4542 C 433.221 -0.0106266 2.01497 0
M  V30 4543 O 432.277 -0.676596 2.43266 0
M  V30 4544 C 433.59 2.47656 1.70549 0
M  V30 4545 C 435.138 2.54002 1.82899 0
M  V30 4546 C 435.613 3.85078 2.47949 0
M  V30 4547 N 437.104 3.86413 2.5542 0
M  V30 4548 C 437.839 4.84572 3.06557 0
M  V30 4549 N 437.335 5.93124 3.58016 0
M  V30 4550 N 439.128 4.71994 3.05251 0
M  V30 4551 H 431.279 2.11668 0.176238 0
M  V30 4552 H 433.542 0.937486 0.140796 0
M  V30 4553 H 433.248 3.34059 1.09989 0
M  V30 4554 H 433.122 2.63319 2.70079 0
M  V30 4555 H 435.509 1.68018 2.42598 0
M  V30 4556 H 435.59 2.42239 0.821808 0
M  V30 4557 H 435.234 4.71467 1.88895 0
M  V30 4558 H 435.164 3.94135 3.49235 0
M  V30 4559 H 437.655 3.07988 2.18979 0
M  V30 4560 H 437.968 6.63999 3.95381 0
M  V30 4561 H 436.313 5.96796 3.56173 0
M  V30 4562 H 439.504 3.86321 2.64336 0
M  V30 4563 H 439.677 5.48653 3.44796 0
M  V30 4564 N 433.083 -1.0153 1.20538 0
M  V30 4565 C 434.033 -2.08482 0.922991 0
M  V30 4566 C 435.017 -1.60469 -0.117702 0
M  V30 4567 O 436.209 -1.76772 0.0898465 0
M  V30 4568 C 433.338 -3.39952 0.478312 0
M  V30 4569 C 432.424 -3.94662 1.5525 0
M  V30 4570 N 432.815 -4.22866 2.77521 0
M  V30 4571 C 431.113 -4.22825 1.41897 0
M  V30 4572 C 431.814 -4.67002 3.4682 0
M  V30 4573 N 430.79 -4.69356 2.74237 0
M  V30 4574 H 434.592 -2.28199 1.85209 0
M  V30 4575 H 432.106 -1.19512 1.09957 0
M  V30 4576 H 434.103 -4.16105 0.257408 0
M  V30 4577 H 432.763 -3.21648 -0.444148 0
M  V30 4578 H 433.774 -4.11732 3.1416 0
M  V30 4579 H 430.451 -4.13714 0.561015 0
M  V30 4580 H 431.841 -4.97632 4.51455 0
M  V30 4581 N 434.561 -1.01147 -1.20859 0
M  V30 4582 C 435.786 -0.716698 -1.94623 0
M  V30 4583 C 436.211 0.715415 -1.73964 0
M  V30 4584 O 435.569 1.49157 -1.03062 0
M  V30 4585 C 435.617 -1.0513 -3.44935 0
M  V30 4586 O 434.721 -0.160131 -4.12089 0
M  V30 4587 H 434.062 -0.266404 -0.608214 0
M  V30 4588 H 436.592 -1.35346 -1.53436 0
M  V30 4589 H 436.602 -1.00086 -3.95533 0
M  V30 4590 H 435.277 -2.09475 -3.59295 0
M  V30 4591 H 433.854 -0.267657 -3.71938 0
M  V30 4592 N 436.039 1.36541 -0.78704 0
M  V30 4593 C 436.969 2.32659 -0.197992 0
M  V30 4594 C 437.95 1.56533 0.665697 0
M  V30 4595 O 439.135 1.84698 0.60001 0
M  V30 4596 C 436.265 3.40778 0.669901 0
M  V30 4597 C 435.219 4.27897 -0.0937039 0
M  V30 4598 C 434.545 5.27163 0.894629 0
M  V30 4599 C 435.845 5.06334 -1.28154 0
M  V30 4600 H 437.539 2.82171 -1.00099 0
M  V30 4601 H 435.085 1.35665 -0.482793 0
M  V30 4602 H 437.038 4.07008 1.09191 0
M  V30 4603 H 435.762 2.89827 1.50558 0
M  V30 4604 H 434.421 3.6322 -0.49666 0
M  V30 4605 H 434.069 4.72486 1.72527 0
M  V30 4606 H 433.769 5.86317 0.388149 0
M  V30 4607 H 435.293 5.96266 1.31525 0
M  V30 4608 H 436.707 5.65617 -0.93541 0
M  V30 4609 H 435.104 5.74888 -1.72115 0
M  V30 4610 H 436.174 4.38114 -2.07807 0
M  V30 4611 N 437.518 0.538854 1.48102 0
M  V30 4612 C 438.764 0.0161732 2.03394 0
M  V30 4613 C 439.119 -1.31154 1.40771 0
M  V30 4614 O 438.412 -1.83613 0.547421 0
M  V30 4615 C 438.606 -0.153808 3.57069 0
M  V30 4616 C 438.435 1.15588 4.34591 0
M  V30 4617 C 437.205 1.71818 4.75191 0
M  V30 4618 C 439.403 2.06867 4.70861 0
M  V30 4619 N 437.385 2.96983 5.37284 0
M  V30 4620 C 438.756 3.16609 5.33066 0
M  V30 4621 C 440.811 2.07085 4.52791 0
M  V30 4622 C 439.514 4.26645 5.79109 0
M  V30 4623 C 441.54 3.16121 4.99821 0
M  V30 4624 C 440.902 4.24582 5.62058 0
M  V30 4625 H 437.001 0.0476346 0.780548 0
M  V30 4626 H 439.585 0.722094 1.80815 0
M  V30 4627 H 437.756 -0.828825 3.79454 0
M  V30 4628 H 439.488 -0.676896 3.98999 0
M  V30 4629 H 436.243 1.25845 4.56574 0
M  V30 4630 H 436.667 3.60732 5.72889 0
M  V30 4631 H 441.309 1.24522 4.04047 0
M  V30 4632 H 439.027 5.0998 6.26854 0
M  V30 4633 H 442.613 3.17355 4.87624 0
M  V30 4634 H 441.493 5.07562 5.97788 0
M  V30 4635 N 438.996 -1.55193 0.274407 0
M  V30 4636 C 439.926 -2.25471 -0.607032 0
M  V30 4637 C 440.907 -1.24461 -1.15946 0
M  V30 4638 O 442.092 -1.53179 -1.19373 0
M  V30 4639 C 439.222 -2.97526 -1.79153 0
M  V30 4640 C 438.176 -4.05459 -1.37067 0
M  V30 4641 C 437.502 -4.65084 -2.6382 0
M  V30 4642 C 438.802 -5.19691 -0.521389 0
M  V30 4643 H 440.496 -2.99393 -0.0209343 0
M  V30 4644 H 438.042 -1.43997 -0.00862866 0
M  V30 4645 H 439.995 -3.45402 -2.41404 0
M  V30 4646 H 438.719 -2.21138 -2.40344 0
M  V30 4647 H 437.378 -3.58393 -0.771355 0
M  V30 4648 H 437.026 -3.85365 -3.23268 0
M  V30 4649 H 436.726 -5.37961 -2.36372 0
M  V30 4650 H 438.25 -5.15708 -3.26921 0
M  V30 4651 H 439.664 -5.63623 -1.04889 0
M  V30 4652 H 438.061 -5.99126 -0.341825 0
M  V30 4653 H 439.131 -4.82713 0.46 0
M  V30 4654 N 440.474 -0.00167713 -1.576 0
M  V30 4655 C 441.424 0.997744 -2.0501 0
M  V30 4656 C 442.408 1.30214 -0.94515 0
M  V30 4657 O 443.6 1.29284 -1.20891 0
M  V30 4658 C 440.729 2.2892 -2.55833 0
M  V30 4659 C 439.815 2.01437 -3.73208 0
M  V30 4660 N 440.206 1.44119 -4.84833 0
M  V30 4661 C 438.504 2.31571 -3.8117 0
M  V30 4662 C 439.205 1.33145 -5.66257 0
M  V30 4663 N 438.181 1.81763 -5.12312 0
M  V30 4664 H 441.983 0.549098 -2.88725 0
M  V30 4665 H 439.497 0.20398 -1.61114 0
M  V30 4666 H 441.494 3.01361 -2.88075 0
M  V30 4667 H 440.154 2.74436 -1.73537 0
M  V30 4668 H 441.165 1.11978 -5.0565 0
M  V30 4669 H 437.842 2.7995 -3.09732 0
M  V30 4670 H 439.232 0.890567 -6.65972 0
M  V30 4671 N 441.952 1.55251 0.271103 0
M  V30 4672 C 443.198 1.76207 1.00394 0
M  V30 4673 C 443.531 0.562604 1.85872 0
M  V30 4674 O 442.806 -0.439785 1.89463 0
M  V30 4675 C 443.089 3.06828 1.8849 0
M  V30 4676 C 442.942 4.37134 1.05992 0
M  V30 4677 C 444.261 3.33503 2.87165 0
M  V30 4678 H 441.38 0.641086 0.363562 0
M  V30 4679 H 444.022 1.87982 0.276189 0
M  V30 4680 H 442.172 2.96921 2.5054 0
M  V30 4681 H 443.844 4.59001 0.459978 0
M  V30 4682 H 442.087 4.32275 0.363443 0
M  V30 4683 H 442.758 5.2486 1.70955 0
M  V30 4684 H 445.234 3.43215 2.3525 0
M  V30 4685 H 444.11 4.2616 3.45946 0
M  V30 4686 H 444.371 2.53235 3.62387 0
M  V30 4687 N 443.43 -0.535701 1.48216 0
M  V30 4688 C 444.707 -1.29683 1.46429 0
M  V30 4689 C 445.087 -2.10391 0.172852 0
M  V30 4690 O 444.435 -2.12282 -0.845488 0
M  V30 4691 C 444.645 -2.18313 2.72287 0
M  V30 4692 C 445.993 -2.78639 3.20383 0
M  V30 4693 O 447.017 -2.28604 2.73164 0
M  V30 4694 O 445.876 -3.69636 4.02531 0
M  V30 4695 H 442.97 -0.585026 0.584529 0
M  V30 4696 H 445.516 -0.552827 1.60443 0
M  V30 4697 H 444.288 -1.58421 3.57797 0
M  V30 4698 H 443.911 -2.99971 2.60966 0
M  V30 4699 N 444.908 -1.36708 -0.784132 0
M  V30 4700 C 445.871 -1.31307 -1.87859 0
M  V30 4701 C 446.871 -0.219654 -1.59293 0
M  V30 4702 O 448.061 -0.47476 -1.67606 0
M  V30 4703 C 445.193 -1.03679 -3.24751 0
M  V30 4704 H 446.386 -2.28647 -1.94064 0
M  V30 4705 H 443.939 -1.21558 -0.98252 0
M  V30 4706 H 444.674 -0.0681936 -3.24228 0
M  V30 4707 H 444.459 -1.82811 -3.46876 0
M  V30 4708 H 445.949 -1.02518 -4.04821 0
M  V30 4709 N 446.386 1.0089 -1.21074 0
M  V30 4710 C 447.611 1.78727 -1.05221 0
M  V30 4711 C 448.036 1.83932 0.393795 0
M  V30 4712 O 447.394 1.28004 1.28393 0
M  V30 4713 C 447.442 3.20665 -1.64944 0
M  V30 4714 O 446.546 4.02632 -0.892273 0
M  V30 4715 H 445.887 0.550973 -0.370574 0
M  V30 4716 H 448.417 1.26847 -1.60534 0
M  V30 4717 H 448.427 3.71352 -1.69002 0
M  V30 4718 H 447.102 3.16191 -2.70177 0
M  V30 4719 H 445.679 3.61207 -0.926492 0
M  V30 4720 N 447.864 1.01787 1.20321 0
M  V30 4721 C 449.11 0.718699 1.90279 0
M  V30 4722 C 449.465 -0.743669 1.77447 0
M  V30 4723 O 448.758 -1.53345 1.14874 0
M  V30 4724 C 448.952 1.09076 3.40349 0
M  V30 4725 C 448.781 2.58775 3.67784 0
M  V30 4726 C 447.551 3.25578 3.86428 0
M  V30 4727 C 449.749 3.56966 3.70243 0
M  V30 4728 N 447.731 4.64495 4.01395 0
M  V30 4729 C 449.102 4.8145 3.90649 0
M  V30 4730 C 451.157 3.5092 3.53213 0
M  V30 4731 C 449.86 6.00619 3.95789 0
M  V30 4732 C 451.886 4.69493 3.59625 0
M  V30 4733 C 451.248 5.92786 3.80505 0
M  V30 4734 H 447.347 0.31468 0.715891 0
M  V30 4735 H 449.931 1.30295 1.44677 0
M  V30 4736 H 448.102 0.534839 3.847 0
M  V30 4737 H 449.834 0.744997 3.97784 0
M  V30 4738 H 446.589 2.76003 3.84862 0
M  V30 4739 H 447.013 5.36624 4.12752 0
M  V30 4740 H 451.655 2.56593 3.36035 0
M  V30 4741 H 449.373 6.95326 4.11762 0
M  V30 4742 H 452.959 4.66432 3.47754 0
M  V30 4743 H 451.839 6.83003 3.85327 0
M  V30 4744 N 449.342 -1.36122 0.79427 0
M  V30 4745 C 450.59 -1.98718 0.368177 0
M  V30 4746 C 450.911 -1.63345 -1.06506 0
M  V30 4747 O 450.181 -0.909825 -1.73491 0
M  V30 4748 H 448.761 -0.735038 0.133146 0
M  V30 4749 H 451.423 -1.66239 1.01739 0
M  V30 4750 H 450.519 -3.08633 0.463923 0
M  V30 4751 N 450.82 -0.546701 -1.47814 0
M  V30 4752 C 452.068 -0.0187037 -2.02091 0
M  V30 4753 C 452.389 1.33168 -1.42447 0
M  V30 4754 O 451.659 1.86619 -0.595839 0
M  V30 4755 H 450.239 -0.00392531 -0.74699 0
M  V30 4756 H 452.901 -0.714327 -1.81338 0
M  V30 4757 H 451.997 0.0772219 -3.12004 0
M  V30 4758 N 452.299 1.55045 -0.282633 0
M  V30 4759 C 453.524 2.04628 0.337977 0
M  V30 4760 C 453.949 1.15937 1.48123 0
M  V30 4761 O 453.307 0.159532 1.80597 0
M  V30 4762 C 453.355 3.51854 0.78936 0
M  V30 4763 O 452.459 3.66236 1.89592 0
M  V30 4764 H 451.8 0.660434 0.0687261 0
M  V30 4765 H 454.33 2.00261 -0.419124 0
M  V30 4766 H 454.34 3.93361 1.08311 0
M  V30 4767 H 453.015 4.15873 -0.0470419 0
M  V30 4768 H 451.592 3.36633 1.60413 0
M  V30 4769 N 453.777 0.010035 1.57597 0
M  V30 4770 C 454.74 -0.963029 2.07986 0
M  V30 4771 C 455.74 -1.26619 0.991173 0
M  V30 4772 O 456.93 -1.2097 1.25347 0
M  V30 4773 C 454.062 -2.2851 2.52974 0
M  V30 4774 H 455.255 -0.526971 2.95234 0
M  V30 4775 H 452.808 -0.237639 1.54483 0
M  V30 4776 H 453.543 -2.76784 1.69 0
M  V30 4777 H 453.328 -2.07824 3.32493 0
M  V30 4778 H 454.818 -2.98294 2.9225 0
M  V30 4779 N 455.255 -1.55392 -0.262866 0
M  V30 4780 C 456.185 -1.91978 -1.32917 0
M  V30 4781 C 457.166 -0.7828 -1.51017 0
M  V30 4782 O 458.351 -1.04178 -1.63892 0
M  V30 4783 C 455.481 -2.20055 -2.68687 0
M  V30 4784 C 454.435 -3.35854 -2.65304 0
M  V30 4785 C 453.761 -3.49435 -4.04721 0
M  V30 4786 C 455.061 -4.71977 -2.23685 0
M  V30 4787 H 456.755 -2.81292 -1.02544 0
M  V30 4788 H 454.301 -1.3534 -0.491846 0
M  V30 4789 H 456.254 -2.44237 -3.43404 0
M  V30 4790 H 454.978 -1.27551 -3.00663 0
M  V30 4791 H 453.637 -3.11655 -1.93045 0
M  V30 4792 H 453.285 -2.54379 -4.33936 0
M  V30 4793 H 452.985 -4.27297 -4.0335 0
M  V30 4794 H 454.509 -3.7592 -4.81161 0
M  V30 4795 H 455.923 -4.95637 -2.88127 0
M  V30 4796 H 454.32 -5.52828 -2.33456 0
M  V30 4797 H 455.39 -4.70115 -1.18827 0
M  V30 4798 N 456.733 0.527833 -1.48498 0
M  V30 4799 C 457.666 1.64892 -1.57753 0
M  V30 4800 C 458.644 1.5687 -0.427867 0
M  V30 4801 O 459.828 1.77311 -0.639764 0
M  V30 4802 C 456.955 3.03301 -1.50752 0
M  V30 4803 C 456.001 3.29675 -2.70586 0
M  V30 4804 S 456.834 3.15712 -4.32535 0
M  V30 4805 C 457.99 4.56564 -4.28136 0
M  V30 4806 H 458.223 1.56792 -2.52594 0
M  V30 4807 H 455.756 0.710959 -1.37057 0
M  V30 4808 H 457.714 3.83123 -1.474 0
M  V30 4809 H 456.375 3.08839 -0.572454 0
M  V30 4810 H 455.568 4.3065 -2.61833 0
M  V30 4811 H 455.17 2.57526 -2.71212 0
M  V30 4812 H 457.462 5.48126 -3.98201 0
M  V30 4813 H 458.405 4.70371 -5.29298 0
M  V30 4814 H 458.813 4.35987 -3.58574 0
M  V30 4815 N 458.211 1.37122 0.776871 0
M  V30 4816 C 459.436 1.354 1.57104 0
M  V30 4817 C 459.861 -0.0595562 1.88006 0
M  V30 4818 O 459.219 -1.03514 1.48844 0
M  V30 4819 C 459.267 2.19472 2.8612 0
M  V30 4820 O 458.371 1.59582 3.80273 0
M  V30 4821 H 457.712 0.462869 0.476076 0
M  V30 4822 H 460.242 1.80577 0.961932 0
M  V30 4823 H 460.252 2.32502 3.35271 0
M  V30 4824 H 458.927 3.22222 2.62956 0
M  V30 4825 H 457.504 1.55564 3.38902 0
M  V30 4826 N 459.689 -1.00246 1.21608 0
M  V30 4827 C 461.105 -1.26435 0.973975 0
M  V30 4828 C 461.305 -1.98642 -0.338143 0
M  V30 4829 O 460.361 -2.29026 -1.06317 0
M  V30 4830 C 461.674 -2.08551 2.16626 0
M  V30 4831 C 463.222 -2.21769 2.20879 0
M  V30 4832 C 463.697 -3.07267 3.39633 0
M  V30 4833 N 465.188 -3.14855 3.39736 0
M  V30 4834 C 465.923 -3.81274 4.28273 0
M  V30 4835 N 465.419 -4.497 5.27012 0
M  V30 4836 N 467.212 -3.7794 4.16074 0
M  V30 4837 H 459.363 -0.518089 2.05984 0
M  V30 4838 H 461.626 -0.291368 0.902113 0
M  V30 4839 H 461.332 -1.62847 3.11727 0
M  V30 4840 H 461.206 -3.09303 2.15897 0
M  V30 4841 H 463.593 -2.66691 1.26332 0
M  V30 4842 H 463.674 -1.20478 2.25652 0
M  V30 4843 H 463.318 -2.63047 4.34475 0
M  V30 4844 H 463.248 -4.08678 3.321 0
M  V30 4845 H 465.739 -2.66147 2.6828 0
M  V30 4846 H 466.052 -4.98092 5.90867 0
M  V30 4847 H 464.397 -4.48479 5.30935 0
M  V30 4848 H 467.588 -3.23638 3.38195 0
M  V30 4849 H 467.761 -4.29424 4.85282 0
M  V30 4850 N 461.167 -1.02423 -1.1978 0
M  V30 4851 C 462.114 -0.601023 -2.22837 0
M  V30 4852 C 463.084 0.382801 -1.61629 0
M  V30 4853 O 464.269 0.280514 -1.88727 0
M  V30 4854 C 461.409 0.0467755 -3.45068 0
M  V30 4855 C 460.522 -0.98253 -4.20678 0
M  V30 4856 C 459.657 -0.304982 -5.30324 0
M  V30 4857 C 458.696 -1.32052 -5.97686 0
M  V30 4858 N 457.833 -0.669105 -6.98904 0
M  V30 4859 H 462.673 -1.48444 -2.58396 0
M  V30 4860 H 460.21 -0.742936 -1.2696 0
M  V30 4861 H 462.168 0.439556 -4.14878 0
M  V30 4862 H 460.798 0.893796 -3.10179 0
M  V30 4863 H 459.85 -1.49341 -3.49859 0
M  V30 4864 H 461.162 -1.75455 -4.66923 0
M  V30 4865 H 460.316 0.142893 -6.06532 0
M  V30 4866 H 459.055 0.499283 -4.85138 0
M  V30 4867 H 458.06 -1.7787 -5.20233 0
M  V30 4868 H 459.285 -2.1262 -6.44957 0
M  V30 4869 H 457.231 0.115152 -6.55899 0
M  V30 4870 H 457.148 -1.37908 -7.43315 0
M  V30 4871 H 458.416 -0.245076 -7.79115 0
M  V30 4872 N 462.645 1.35699 -0.801477 0
M  V30 4873 C 463.595 2.2728 -0.181073 0
M  V30 4874 C 464.579 1.47533 0.642098 0
M  V30 4875 O 465.771 1.69785 0.500193 0
M  V30 4876 C 462.9 3.36626 0.673612 0
M  V30 4877 C 461.986 4.23802 -0.159008 0
M  V30 4878 N 462.377 4.90879 -1.2195 0
M  V30 4879 C 460.675 4.45959 0.0602005 0
M  V30 4880 C 461.376 5.5546 -1.72738 0
M  V30 4881 N 460.352 5.33663 -1.03465 0
M  V30 4882 H 464.154 2.76632 -0.992582 0
M  V30 4883 H 461.668 1.49166 -0.642127 0
M  V30 4884 H 463.665 4.01179 1.13408 0
M  V30 4885 H 462.325 2.88828 1.48353 0
M  V30 4886 H 463.336 4.92497 -1.60209 0
M  V30 4887 H 460.013 4.08969 0.839664 0
M  V30 4888 H 461.403 6.18991 -2.61342 0
M  V30 4889 N 464.123 0.554532 1.47522 0
M  V30 4890 C 465.539 0.214107 1.58157 0
M  V30 4891 C 465.739 -1.28331 1.55349 0
M  V30 4892 O 464.795 -2.06329 1.45549 0
M  V30 4893 C 466.108 0.838391 2.88776 0
M  V30 4894 C 467.656 0.809374 3.02354 0
M  V30 4895 C 468.131 1.41268 4.35669 0
M  V30 4896 N 469.622 1.37574 4.42298 0
M  V30 4897 C 470.357 1.8122 5.4401 0
M  V30 4898 N 469.853 2.3271 6.52547 0
M  V30 4899 N 471.646 1.72307 5.35039 0
M  V30 4900 H 463.797 1.52744 1.4759 0
M  V30 4901 H 466.06 0.636812 0.702264 0
M  V30 4902 H 465.766 1.89065 2.96559 0
M  V30 4903 H 465.64 0.329847 3.75755 0
M  V30 4904 H 468.027 -0.234187 2.94169 0
M  V30 4905 H 468.108 1.35565 2.16924 0
M  V30 4906 H 467.752 2.45529 4.4461 0
M  V30 4907 H 467.682 0.841871 5.19827 0
M  V30 4908 H 470.173 0.999081 3.64454 0
M  V30 4909 H 470.486 2.63944 7.26329 0
M  V30 4910 H 468.831 2.36719 6.53444 0
M  V30 4911 H 472.022 1.3186 4.49144 0
M  V30 4912 H 472.195 2.06641 6.14169 0
M  V30 4913 N 465.601 -1.54893 0.290851 0
M  V30 4914 C 466.548 -2.23138 -0.58974 0
M  V30 4915 C 467.518 -1.21036 -1.13752 0
M  V30 4916 O 468.703 -1.49626 -1.18392 0
M  V30 4917 C 465.843 -2.96811 -1.76061 0
M  V30 4918 C 464.956 -4.13665 -1.24519 0
M  V30 4919 C 464.091 -4.74944 -2.3791 0
M  V30 4920 C 463.13 -5.83963 -1.83451 0
M  V30 4921 N 462.267 -6.39239 -2.90376 0
M  V30 4922 H 467.107 -2.98 -0.00114915 0
M  V30 4923 H 464.644 -1.47096 0.0112006 0
M  V30 4924 H 466.602 -3.37751 -2.44909 0
M  V30 4925 H 465.232 -2.24344 -2.32098 0
M  V30 4926 H 464.284 -3.77737 -0.449288 0
M  V30 4927 H 465.596 -4.92238 -0.806424 0
M  V30 4928 H 464.75 -5.18684 -3.14724 0
M  V30 4929 H 463.489 -3.95682 -2.85109 0
M  V30 4930 H 462.494 -5.39657 -1.05122 0
M  V30 4931 H 463.719 -6.65103 -1.37169 0
M  V30 4932 H 461.665 -5.62864 -3.36927 0
M  V30 4933 H 461.582 -7.13129 -2.50965 0
M  V30 4934 H 462.85 -6.87637 -3.67118 0
M  V30 4935 N 467.08 -0.0183926 -1.57589 0
M  V30 4936 C 468.01 0.965596 -2.12599 0
M  V30 4937 C 468.991 1.34641 -1.0395 0
M  V30 4938 O 470.176 1.42693 -1.31729 0
M  V30 4939 C 467.306 2.25149 -2.64434 0
M  V30 4940 C 466.26 2.01175 -3.77773 0
M  V30 4941 C 465.586 3.35937 -4.15994 0
M  V30 4942 C 466.886 1.35953 -5.04296 0
M  V30 4943 H 468.58 0.507504 -2.95067 0
M  V30 4944 H 466.126 0.242671 -1.41941 0
M  V30 4945 H 468.079 2.94357 -3.01549 0
M  V30 4946 H 466.803 2.73105 -1.79112 0
M  V30 4947 H 465.462 1.34388 -3.4108 0
M  V30 4948 H 465.11 3.81631 -3.27669 0
M  V30 4949 H 464.81 3.20705 -4.92364 0
M  V30 4950 H 466.334 4.0643 -4.55683 0
M  V30 4951 H 467.748 1.95144 -5.39065 0
M  V30 4952 H 466.145 1.31152 -5.85593 0
M  V30 4953 H 467.215 0.331071 -4.83768 0
M  V30 4954 N 468.558 1.5553 0.254621 0
M  V30 4955 C 469.488 1.9268 1.31897 0
M  V30 4956 C 470.469 0.790797 1.506 0
M  V30 4957 O 471.654 1.05045 1.63337 0
M  V30 4958 C 468.784 2.21477 2.67517 0
M  V30 4959 C 467.738 3.37256 2.63519 0
M  V30 4960 C 467.064 3.51576 4.02862 0
M  V30 4961 C 468.364 4.73157 2.21179 0
M  V30 4962 H 470.058 2.81832 1.01051 0
M  V30 4963 H 467.604 1.35599 0.484662 0
M  V30 4964 H 469.557 2.46055 3.42104 0
M  V30 4965 H 468.281 1.29144 2.99982 0
M  V30 4966 H 466.94 3.12675 1.9139 0
M  V30 4967 H 466.588 2.56676 4.32581 0
M  V30 4968 H 466.288 4.2943 4.01078 0
M  V30 4969 H 467.812 3.78467 4.79161 0
M  V30 4970 H 469.226 4.97158 2.85494 0
M  V30 4971 H 467.623 5.54058 2.30521 0
M  V30 4972 H 468.693 4.70739 1.16332 0
M  V30 4973 N 470.036 -0.519951 1.48776 0
M  V30 4974 C 470.986 -1.61995 1.60442 0
M  V30 4975 C 471.97 -1.54155 0.460991 0
M  V30 4976 O 473.162 -1.62006 0.712965 0
M  V30 4977 C 470.291 -3.00683 1.65664 0
M  V30 4978 C 469.377 -3.1359 2.8552 0
M  V30 4979 N 469.768 -2.96441 4.09825 0
M  V30 4980 C 468.066 -3.44662 2.83062 0
M  V30 4981 C 468.767 -3.1303 4.90293 0
M  V30 4982 N 467.743 -3.41058 4.23297 0
M  V30 4983 H 471.545 -1.47362 2.54287 0
M  V30 4984 H 469.059 -0.725649 1.45286 0
M  V30 4985 H 471.056 -3.79712 1.72117 0
M  V30 4986 H 469.716 -3.16401 0.729425 0
M  V30 4987 H 470.727 -2.72999 4.40104 0
M  V30 4988 H 467.404 -3.66675 1.9964 0
M  V30 4989 H 468.794 -3.04424 5.98979 0
M  V30 4990 N 471.514 -1.37532 -0.769588 0
M  V30 4991 C 472.762 -1.32597 -1.5252 0
M  V30 4992 C 473.083 0.0884294 -1.94799 0
M  V30 4993 O 472.353 1.03289 -1.66458 0
M  V30 4994 H 470.933 -0.487846 -0.565699 0
M  V30 4995 H 473.595 -1.72044 -0.915806 0
M  V30 4996 H 472.691 -1.96643 -2.42359 0
M  V30 4997 N 472.992 0.995999 -1.22138 0
M  V30 4998 C 474.241 1.72928 -1.03821 0
M  V30 4999 C 474.554 1.90872 0.427444 0
M  V30 5000 O 475.76 2.61496 0.730212 0
M  V30 5001 C 474.216 3.11124 -1.80913 0
M  V30 5002 C 473.824 3.01122 -3.31707 0
M  V30 5003 C 475.568 3.8852 -1.71035 0
M  V30 5004 C 473.475 4.34453 -4.01253 0
M  V30 5005 H 472.405 0.648376 -0.384869 0
M  V30 5006 H 475.056 1.11213 -1.45959 0
M  V30 5007 H 473.438 3.73503 -1.31573 0
M  V30 5008 H 474.612 2.47926 -3.88419 0
M  V30 5009 H 472.927 2.3721 -3.42228 0
M  V30 5010 H 475.524 4.872 -2.20318 0
M  V30 5011 H 475.867 4.1087 -0.670196 0
M  V30 5012 H 476.4 3.32812 -2.17902 0
M  V30 5013 H 473.139 4.17303 -5.05508 0
M  V30 5014 H 472.659 4.87574 -3.49331 0
M  V30 5015 H 474.338 5.03215 -4.06674 0
M  V30 5016 N 474.47 1.03057 1.19235 0
M  V30 5017 C 475.42 0.583386 2.2041 0
M  V30 5018 C 476.404 -0.368776 1.56617 0
M  V30 5019 O 477.596 -0.189471 1.75983 0
M  V30 5020 C 474.725 -0.0626534 3.43243 0
M  V30 5021 C 473.811 0.91205 4.14177 0
M  V30 5022 N 474.202 2.07514 4.61272 0
M  V30 5023 C 472.5 0.735859 4.39888 0
M  V30 5024 C 473.201 2.69003 5.15764 0
M  V30 5025 N 472.177 1.96954 5.06666 0
M  V30 5026 H 475.979 1.46988 2.54503 0
M  V30 5027 H 473.493 0.897785 1.35328 0
M  V30 5028 H 475.49 -0.400653 4.1497 0
M  V30 5029 H 474.15 -0.944813 3.1065 0
M  V30 5030 H 475.161 2.45448 4.56043 0
M  V30 5031 H 471.838 -0.0970656 4.17387 0
M  V30 5032 H 473.228 3.67514 5.6248 0
M  V30 5033 N 475.948 -1.35272 0.808662 0
M  V30 5034 C 477.364 -1.51806 0.492653 0
M  V30 5035 C 477.564 -1.7574 -0.985778 0
M  V30 5036 O 476.62 -1.80003 -1.77074 0
M  V30 5037 C 477.933 -2.69202 1.33981 0
M  V30 5038 C 479.481 -2.8308 1.33547 0
M  V30 5039 C 479.956 -4.03502 2.16679 0
M  V30 5040 N 481.447 -4.10684 2.14227 0
M  V30 5041 C 482.182 -5.02984 2.75308 0
M  V30 5042 N 481.678 -6.00603 3.45323 0
M  V30 5043 N 483.471 -4.95746 2.64938 0
M  V30 5044 H 475.622 -1.17993 1.76611 0
M  V30 5045 H 477.885 -0.577476 0.751814 0
M  V30 5046 H 477.591 -2.581 2.38909 0
M  V30 5047 H 477.465 -3.63854 0.994491 0
M  V30 5048 H 479.852 -2.93631 0.294036 0
M  V30 5049 H 479.933 -1.89278 1.72068 0
M  V30 5050 H 479.577 -3.93711 3.20864 0
M  V30 5051 H 479.507 -4.96489 1.75517 0
M  V30 5052 H 481.998 -3.40802 1.63285 0
M  V30 5053 H 482.311 -6.67633 3.89212 0
M  V30 5054 H 480.656 -6.0077 3.49428 0
M  V30 5055 H 483.847 -4.18439 2.09825 0
M  V30 5056 H 484.02 -5.67487 3.12829 0
M  V30 5057 N 477.426 -0.562348 -1.47226 0
M  V30 5058 C 478.389 0.172056 -2.28553 0
M  V30 5059 C 479.389 0.837928 -1.37242 0
M  V30 5060 O 480.579 0.693001 -1.59822 0
M  V30 5061 C 477.711 1.25223 -3.17068 0
M  V30 5062 H 478.904 -0.542401 -2.94954 0
M  V30 5063 H 476.457 -0.319493 -1.53 0
M  V30 5064 H 477.192 1.99892 -2.55369 0
M  V30 5065 H 476.977 0.779515 -3.84273 0
M  V30 5066 H 478.467 1.76791 -3.78332 0
M  V30 5067 N 478.904 1.54736 -0.299062 0
M  V30 5068 C 480.181 1.92187 0.363802 0
M  V30 5069 C 480.561 1.22607 1.71845 0
M  V30 5070 O 479.909 0.361141 2.25628 0
M  V30 5071 C 480.119 3.45678 0.480377 0
M  V30 5072 C 481.467 4.17885 0.752147 0
M  V30 5073 O 482.491 3.51702 0.564264 0
M  V30 5074 O 481.35 5.35048 1.11294 0
M  V30 5075 H 478.444 0.801681 0.203066 0
M  V30 5076 H 480.99 1.66115 -0.346978 0
M  V30 5077 H 479.762 3.88443 -0.471999 0
M  V30 5078 H 479.385 3.77779 1.2397 0
M  V30 5079 N 480.382 0.0267497 1.57577 0
M  V30 5080 C 481.607 -0.666227 1.96408 0
M  V30 5081 C 482.032 -1.65004 0.903071 0
M  V30 5082 O 481.39 -1.80787 -0.136263 0
M  V30 5083 C 481.438 -1.35101 3.34335 0
M  V30 5084 O 480.542 -2.46623 3.30531 0
M  V30 5085 H 479.883 -0.175206 0.640468 0
M  V30 5086 H 482.413 0.0878977 2.04411 0
M  V30 5087 H 482.423 -1.70834 3.70513 0
M  V30 5088 H 481.098 -0.629844 4.11103 0
M  V30 5089 H 479.675 -2.13019 3.06068 0
M  V30 5090 N 481.861 -1.55662 -0.24637 0
M  V30 5091 C 483.107 -1.77782 -0.975779 0
M  V30 5092 C 483.44 -0.592103 -1.84953 0
M  V30 5093 O 482.715 0.409588 -1.90138 0
M  V30 5094 C 482.998 -3.09788 -1.83584 0
M  V30 5095 C 482.851 -4.38764 -0.990241 0
M  V30 5096 C 484.17 -3.38029 -2.81823 0
M  V30 5097 H 481.289 -0.646789 -0.353317 0
M  V30 5098 H 483.931 -1.88398 -0.246248 0
M  V30 5099 H 482.081 -3.00869 -2.45784 0
M  V30 5100 H 483.753 -4.59675 -0.386897 0
M  V30 5101 H 481.996 -4.32798 -0.294626 0
M  V30 5102 H 482.667 -5.27514 -1.62584 0
M  V30 5103 H 485.143 -3.46915 -2.2976 0
M  V30 5104 H 484.019 -4.3161 -3.39122 0
M  V30 5105 H 484.28 -2.58968 -3.58313 0
M  V30 5106 N 483.339 0.512053 -1.4905 0
M  V30 5107 C 484.302 1.59704 -1.64399 0
M  V30 5108 C 485.302 1.52285 -0.516317 0
M  V30 5109 O 486.492 1.55635 -0.782527 0
M  V30 5110 C 483.624 2.9935 -1.63102 0
M  V30 5111 H 484.817 1.47428 -2.61161 0
M  V30 5112 H 482.37 0.735469 -1.37915 0
M  V30 5113 H 483.105 3.17116 -0.678836 0
M  V30 5114 H 482.89 3.06144 -2.44986 0
M  V30 5115 H 484.38 3.782 -1.77072 0
M  V30 5116 N 484.817 1.37938 0.762283 0
M  V30 5117 C 486.063 1.34873 1.52253 0
M  V30 5118 C 486.418 -0.0635972 1.92295 0
M  V30 5119 O 485.711 -1.02434 1.61919 0
M  V30 5120 C 485.905 2.23042 2.79261 0
M  V30 5121 C 485.734 3.72706 2.51635 0
M  V30 5122 C 484.504 4.41771 2.45289 0
M  V30 5123 C 486.702 4.65345 2.18994 0
M  V30 5124 N 484.684 5.76921 2.09846 0
M  V30 5125 C 486.055 5.88943 1.9377 0
M  V30 5126 C 488.11 4.53636 2.0523 0
M  V30 5127 C 486.813 7.02142 1.5617 0
M  V30 5128 C 488.839 5.6673 1.69031 0
M  V30 5129 C 488.201 6.89383 1.44673 0
M  V30 5130 H 484.3 0.548818 0.557067 0
M  V30 5131 H 486.884 1.73247 0.888458 0
M  V30 5132 H 485.055 1.8687 3.40491 0
M  V30 5133 H 486.787 2.11165 3.45241 0
M  V30 5134 H 483.542 3.94883 2.61465 0
M  V30 5135 H 483.966 6.4837 1.94794 0
M  V30 5136 H 488.608 3.5937 2.2274 0
M  V30 5137 H 486.326 7.96334 1.37399 0
M  V30 5138 H 489.912 5.59645 1.59026 0
M  V30 5139 H 488.792 7.75411 1.17079 0
M  V30 5140 N 486.295 -0.989507 1.22664 0
M  V30 5141 C 487.243 -2.10148 0.997035 0
M  V30 5142 C 488.237 -1.6929 -0.0609783 0
M  V30 5143 O 489.443 -1.79766 0.0917523 0
M  V30 5144 H 485.818 -0.687256 0.305259 0
M  V30 5145 H 487.789 -2.26685 1.94053 0
M  V30 5146 C 486.538 -3.4257 0.595085 0
M  V30 5147 H 485.861 -3.74453 1.40089 0
M  V30 5148 H 487.301 -4.21344 0.473869 0
M  V30 5149 C 485.76 -3.29638 -0.695725 0
M  V30 5150 O 486.29 -3.61709 -1.74727 0
M  V30 5151 N 484.496 -2.82814 -0.668173 0
M  V30 5152 H 484.043 -2.56914 0.18787 0
M  V30 5153 H 484.001 -2.74544 -1.5321 0
M  V30 5154 N 487.773 -1.03688 -1.18687 0
M  V30 5155 C 489.184 -0.766488 -1.70241 0
M  V30 5156 C 489.535 0.713052 -1.82784 0
M  V30 5157 O 488.66 1.55529 -1.50465 0
M  V30 5158 C 489.255 -1.38475 -3.09209 0
M  V30 5159 C 487.814 -1.16276 -3.5799 0
M  V30 5160 C 486.961 -1.4778 -2.34641 0
M  V30 5161 H 489.912 -1.20378 -1.03415 0
M  V30 5162 H 489.933 -0.785939 -3.72295 0
M  V30 5163 H 489.445 -2.46157 -3.00048 0
M  V30 5164 H 487.546 -0.104508 -3.72453 0
M  V30 5165 H 487.659 -1.8571 -4.41643 0
M  V30 5166 H 486.023 -0.897366 -2.38368 0
M  V30 5167 H 486.806 -2.56562 -2.28102 0
M  V30 5168 N 489.251 1.34841 -0.815825 0
M  V30 5169 C 490.201 2.27075 -0.205169 0
M  V30 5170 C 491.185 1.48205 0.626414 0
M  V30 5171 O 492.377 1.70306 0.482157 0
M  V30 5172 C 489.506 3.37322 0.637871 0
M  V30 5173 C 488.592 4.23609 -0.203948 0
M  V30 5174 N 488.983 4.89558 -1.27149 0
M  V30 5175 C 487.281 4.45998 0.0128971 0
M  V30 5176 C 487.982 5.53597 -1.7862 0
M  V30 5177 N 486.958 5.32535 -1.0912 0
M  V30 5178 H 490.76 2.75563 -1.02187 0
M  V30 5179 H 488.274 1.48477 -0.657912 0
M  V30 5180 H 490.271 4.02359 1.09146 0
M  V30 5181 H 488.931 2.90385 1.45281 0
M  V30 5182 H 489.942 4.9077 -1.65423 0
M  V30 5183 H 486.619 4.09837 0.79624 0
M  V30 5184 H 488.009 6.16184 -2.67892 0
M  V30 5185 N 490.729 0.570148 1.46925 0
M  V30 5186 C 491.676 -0.170257 2.30171 0
M  V30 5187 C 492.646 -0.896099 1.39855 0
M  V30 5188 O 493.831 -0.889248 1.68811 0
M  V30 5189 C 490.971 -1.18605 3.24079 0
M  V30 5190 C 490.084 -0.464947 4.29491 0
M  V30 5191 C 489.219 -1.46716 5.10537 0
M  V30 5192 C 488.258 -0.731758 6.0771 0
M  V30 5193 N 487.395 -1.68142 6.81669 0
M  V30 5194 H 492.235 0.545713 2.92961 0
M  V30 5195 H 489.772 0.280938 1.44392 0
M  V30 5196 H 491.73 -1.78771 3.76957 0
M  V30 5197 H 490.36 -1.86989 2.63125 0
M  V30 5198 H 489.412 0.251506 3.79568 0
M  V30 5199 H 490.724 0.110548 4.98677 0
M  V30 5200 H 489.878 -2.14199 5.6763 0
M  V30 5201 H 488.617 -2.07658 4.41282 0
M  V30 5202 H 487.622 -0.0430787 5.49783 0
M  V30 5203 H 488.847 -0.127904 6.7898 0
M  V30 5204 H 486.793 -2.27918 6.15134 0
M  V30 5205 H 486.71 -1.15841 7.47072 0
M  V30 5206 H 487.978 -2.347 7.43328 0
M  V30 5207 N 492.207 -1.54576 0.307264 0
M  V30 5208 C 493.14 -2.19946 -0.608195 0
M  V30 5209 C 494.118 -1.17096 -1.12815 0
M  V30 5210 O 495.302 -1.45766 -1.19518 0
M  V30 5211 C 492.429 -2.84826 -1.8328 0
M  V30 5212 C 491.475 -4.01256 -1.44554 0
M  V30 5213 S 492.308 -5.33197 -0.49612 0
M  V30 5214 C 493.464 -6.01563 -1.72838 0
M  V30 5215 H 493.697 -2.97253 -0.0528544 0
M  V30 5216 H 491.23 -1.54129 0.0913837 0
M  V30 5217 H 493.188 -3.22832 -2.53554 0
M  V30 5218 H 491.849 -2.07353 -2.35931 0
M  V30 5219 H 491.042 -4.45457 -2.35762 0
M  V30 5220 H 490.644 -3.6484 -0.822671 0
M  V30 5221 H 492.936 -6.22751 -2.6681 0
M  V30 5222 H 493.879 -6.9552 -1.32882 0
M  V30 5223 H 494.287 -5.31279 -1.90795 0
M  V30 5224 N 493.685 -0.035106 -1.57561 0
M  V30 5225 C 494.615 0.942993 -2.13612 0
M  V30 5226 C 495.596 1.33531 -1.05373 0
M  V30 5227 O 496.781 1.41287 -1.33235 0
M  V30 5228 C 493.911 2.22332 -2.66807 0
M  V30 5229 C 492.865 1.97156 -3.79886 0
M  V30 5230 C 492.191 3.31506 -4.19533 0
M  V30 5231 C 493.491 1.30596 -5.05709 0
M  V30 5232 H 495.185 0.476179 -2.95589 0
M  V30 5233 H 492.731 0.227602 -1.4219 0
M  V30 5234 H 494.684 2.91142 -3.04654 0
M  V30 5235 H 493.408 2.7119 -1.81999 0
M  V30 5236 H 492.067 1.30763 -3.42486 0
M  V30 5237 H 491.715 3.78134 -3.31698 0
M  V30 5238 H 491.415 3.15465 -4.95738 0
M  V30 5239 H 492.939 4.01574 -4.59968 0
M  V30 5240 H 494.353 1.89416 -5.41105 0
M  V30 5241 H 492.75 1.24934 -5.86951 0
M  V30 5242 H 493.82 0.279742 -4.84092 0
M  V30 5243 N 495.163 1.55791 0.238111 0
M  V30 5244 C 496.096 1.86036 1.32158 0
M  V30 5245 C 497.074 0.716216 1.45976 0
M  V30 5246 O 498.258 0.962882 1.62052 0
M  V30 5247 C 495.385 2.05281 2.69402 0
M  V30 5248 C 494.431 3.27939 2.72687 0
M  V30 5249 S 495.264 4.84342 2.28413 0
M  V30 5250 C 496.42 5.06604 3.67565 0
M  V30 5251 H 496.653 2.77644 1.06306 0
M  V30 5252 H 494.186 1.48012 0.439537 0
M  V30 5253 H 496.144 2.17053 3.48423 0
M  V30 5254 H 494.805 1.14499 2.92487 0
M  V30 5255 H 493.998 3.38398 3.73501 0
M  V30 5256 H 493.6 3.14938 2.01717 0
M  V30 5257 H 495.892 4.94486 4.6313 0
M  V30 5258 H 496.835 6.08554 3.62033 0
M  V30 5259 H 497.243 4.34409 3.60485 0
M  V30 5260 N 496.642 -0.504142 1.49319 0
M  V30 5261 C 497.605 -1.5883 1.65244 0
M  V30 5262 C 498.605 -1.52009 0.524386 0
M  V30 5263 O 499.795 -1.55218 0.79077 0
M  V30 5264 C 496.927 -2.98481 1.64687 0
M  V30 5265 H 498.12 -1.4604 2.61939 0
M  V30 5266 H 495.673 -0.728144 1.38303 0
M  V30 5267 H 496.408 -3.16751 0.695644 0
M  V30 5268 H 496.193 -3.0484 2.46607 0
M  V30 5269 H 497.683 -3.77256 1.79075 0
M  V30 5270 N 498.12 -1.38341 -0.754957 0
M  V30 5271 C 499.368 -1.34208 -1.51105 0
M  V30 5272 C 499.689 0.0677634 -1.94882 0
M  V30 5273 O 498.959 1.01517 -1.67544 0
M  V30 5274 H 497.539 -0.493819 -0.560493 0
M  V30 5275 H 500.201 -1.73005 -0.897507 0
M  V30 5276 H 499.297 -1.99203 -2.4026 0
M  V30 5277 N 499.598 0.982988 -1.23187 0
M  V30 5278 C 500.847 1.71817 -1.05649 0
M  V30 5279 C 501.16 1.91315 0.407176 0
M  V30 5280 O 502.366 2.62256 0.702436 0
M  V30 5281 C 500.822 3.09188 -1.84203 0
M  V30 5282 C 500.43 2.97586 -3.34882 0
M  V30 5283 C 502.174 3.86684 -1.75146 0
M  V30 5284 C 500.081 4.30173 -4.05839 0
M  V30 5285 H 499.011 0.644258 -0.391724 0
M  V30 5286 H 501.662 1.09659 -1.4713 0
M  V30 5287 H 500.044 3.72087 -1.35527 0
M  V30 5288 H 501.218 2.43793 -3.91026 0
M  V30 5289 H 499.533 2.33567 -3.44725 0
M  V30 5290 H 502.13 4.84836 -2.25473 0
M  V30 5291 H 502.473 4.10136 -0.713737 0
M  V30 5292 H 503.006 3.30482 -2.21419 0
M  V30 5293 H 499.745 4.11918 -5.09906 0
M  V30 5294 H 499.265 4.83841 -3.54482 0
M  V30 5295 H 500.944 4.98873 -4.11989 0
M  V30 5296 N 501.076 1.04316 1.18135 0
M  V30 5297 C 502.008 0.594444 2.21357 0
M  V30 5298 C 503.021 -0.337215 1.59269 0
M  V30 5299 O 504.21 -0.131337 1.78016 0
M  V30 5300 C 501.31 -0.151251 3.38562 0
M  V30 5301 C 500.483 0.788907 4.30227 0
M  V30 5302 C 499.542 0.0860572 5.2613 0
M  V30 5303 O 498.568 0.717302 5.64662 0
M  V30 5304 N 499.77 -1.17969 5.68387 0
M  V30 5305 H 502.535 1.48227 2.60478 0
M  V30 5306 H 500.096 0.92396 1.32946 0
M  V30 5307 H 502.088 -0.631352 3.99745 0
M  V30 5308 H 500.658 -0.940639 2.98112 0
M  V30 5309 H 499.878 1.44882 3.6661 0
M  V30 5310 H 501.166 1.42738 4.88368 0
M  V30 5311 H 500.564 -1.71302 5.3914 0
M  V30 5312 H 499.121 -1.60402 6.31755 0
M  V30 5313 N 502.554 -1.34406 0.822964 0
M  V30 5314 C 503.794 -2.00103 0.416915 0
M  V30 5315 C 504.158 -1.63826 -1.00125 0
M  V30 5316 O 505.359 -2.22367 -1.51018 0
M  V30 5317 C 503.63 -3.52101 0.613151 0
M  V30 5318 S 505.189 -4.37774 0.299956 0
M  V30 5319 H 502.007 -0.69333 0.157527 0
M  V30 5320 H 504.609 -1.63698 1.06879 0
M  V30 5321 H 503.313 -3.75991 1.64496 0
M  V30 5322 H 502.844 -3.93364 -0.0534554 0
M  V30 5323 H 504.859 -4.8822 -0.886336 0
M  V30 5324 N 504.032 -0.577932 -1.46621 0
M  V30 5325 C 505.272 -0.0643097 -2.04299 0
M  V30 5326 C 505.636 1.26967 -1.44026 0
M  V30 5327 O 506.837 1.87224 -1.92875 0
M  V30 5328 C 505.108 0.00547588 -3.574 0
M  V30 5329 S 506.667 0.462216 -4.36359 0
M  V30 5330 H 503.485 -0.0351573 -0.71013 0
M  V30 5331 H 506.087 -0.76935 -1.79725 0
M  V30 5332 H 504.791 -0.969423 -3.98786 0
M  V30 5333 H 504.322 0.733435 -3.86503 0
M  V30 5334 H 506.337 1.71791 -4.65513 0
M  V30 5335 N 505.51 1.54411 -0.315457 0
M  V30 5336 C 506.473 2.22713 0.54142 0
M  V30 5337 C 507.473 1.2179 1.04995 0
M  V30 5338 O 508.663 1.46426 0.943667 0
M  V30 5339 C 505.795 2.92485 1.75116 0
M  V30 5340 H 506.988 2.99849 -0.0555508 0
M  V30 5341 H 504.541 1.56159 -0.0664453 0
M  V30 5342 H 505.276 2.19466 2.38758 0
M  V30 5343 H 505.061 3.66483 1.39401 0
M  V30 5344 H 506.551 3.44548 2.35959 0
M  V30 5345 N 506.988 0.0434614 1.5754 0
M  V30 5346 C 507.918 -0.931651 2.14109 0
M  V30 5347 C 508.899 -1.32971 1.06079 0
M  V30 5348 O 510.084 -1.40579 1.33982 0
M  V30 5349 C 507.214 -2.20914 2.67982 0
M  V30 5350 C 506.168 -1.95139 3.80926 0
M  V30 5351 C 505.494 -3.29276 4.21285 0
M  V30 5352 C 506.794 -1.27913 5.06395 0
M  V30 5353 H 508.488 -0.460497 2.95837 0
M  V30 5354 H 506.034 -0.220058 1.42309 0
M  V30 5355 H 507.987 -2.89522 3.06194 0
M  V30 5356 H 506.711 -2.70221 1.83434 0
M  V30 5357 H 505.37 -1.28945 3.43175 0
M  V30 5358 H 505.018 -3.76369 3.33699 0
M  V30 5359 H 504.718 -3.12831 4.97404 0
M  V30 5360 H 506.242 -3.99129 4.62091 0
M  V30 5361 H 507.656 -1.86544 5.42102 0
M  V30 5362 H 506.053 -1.2182 5.87605 0
M  V30 5363 H 507.123 -0.254066 4.84234 0
M  V30 5364 N 508.466 -1.55915 -0.229846 0
M  V30 5365 C 509.396 -1.94754 -1.28815 0
M  V30 5366 C 510.377 -0.814657 -1.49323 0
M  V30 5367 O 511.562 -1.07631 -1.61645 0
M  V30 5368 C 508.692 -2.25705 -2.63959 0
M  V30 5369 C 507.646 -3.41406 -2.5812 0
M  V30 5370 C 506.972 -3.57941 -3.97218 0
M  V30 5371 C 508.272 -4.76616 -2.13623 0
M  V30 5372 H 509.966 -2.83404 -0.965547 0
M  V30 5373 H 507.512 -1.36353 -0.463028 0
M  V30 5374 H 509.465 -2.51467 -3.38146 0
M  V30 5375 H 508.189 -1.339 -2.9789 0
M  V30 5376 H 506.848 -3.1568 -1.86391 0
M  V30 5377 H 506.496 -2.63526 -4.28443 0
M  V30 5378 H 506.196 -4.35757 -3.94195 0
M  V30 5379 H 507.72 -3.86042 -4.73079 0
M  V30 5380 H 509.134 -5.01637 -2.77549 0
M  V30 5381 H 507.531 -5.57655 -2.21677 0
M  V30 5382 H 508.601 -4.7253 -1.08829 0
M  V30 5383 N 509.944 0.496216 -1.49584 0
M  V30 5384 C 511.19 1.25189 -1.59548 0
M  V30 5385 C 511.523 1.9212 -0.283466 0
M  V30 5386 O 510.798 1.80947 0.713324 0
M  V30 5387 C 511.081 2.31516 -2.75812 0
M  V30 5388 C 510.934 1.69054 -4.16822 0
M  V30 5389 C 512.253 3.3304 -2.87702 0
M  V30 5390 H 509.372 0.45379 -0.580727 0
M  V30 5391 H 512.014 0.549327 -1.81886 0
M  V30 5392 H 510.164 2.91438 -2.56897 0
M  V30 5393 H 511.836 1.12923 -4.47265 0
M  V30 5394 H 510.079 0.994485 -4.22247 0
M  V30 5395 H 510.75 2.462 -4.94054 0
M  V30 5396 H 513.226 2.83114 -3.04936 0
M  V30 5397 H 512.102 4.04794 -3.7072 0
M  V30 5398 H 512.363 3.95655 -1.97255 0
M  V30 5399 N 511.423 1.38739 0.74761 0
M  V30 5400 C 512.37 1.36449 1.86146 0
M  V30 5401 C 513.34 0.226098 1.64554 0
M  V30 5402 O 514.525 0.41926 1.86137 0
M  V30 5403 C 511.665 1.2013 3.23516 0
M  V30 5404 C 510.778 2.43407 3.56899 0
M  V30 5405 C 509.913 2.19773 4.83605 0
M  V30 5406 C 508.952 3.3879 5.09792 0
M  V30 5407 N 508.089 3.14553 6.27695 0
M  V30 5408 H 512.929 2.3167 1.87438 0
M  V30 5409 H 510.466 1.15094 0.916063 0
M  V30 5410 H 512.424 1.08683 4.02795 0
M  V30 5411 H 511.054 0.285453 3.21535 0
M  V30 5412 H 510.106 2.65504 2.72418 0
M  V30 5413 H 511.418 3.32094 3.72176 0
M  V30 5414 H 510.572 2.05496 5.70838 0
M  V30 5415 H 509.311 1.28461 4.70478 0
M  V30 5416 H 508.316 3.53579 4.21025 0
M  V30 5417 H 509.541 4.30986 5.24812 0
M  V30 5418 H 507.487 2.25893 6.1588 0
M  V30 5419 H 507.404 3.96791 6.435 0
M  V30 5420 H 508.672 3.03943 7.17801 0
M  V30 5421 N 512.901 -0.976442 1.23707 0
M  V30 5422 C 514.178 -1.69296 0.979699 0
M  V30 5423 C 514.558 -2.0508 -0.500555 0
M  V30 5424 O 513.906 -1.74708 -1.47273 0
M  V30 5425 C 514.116 -2.93143 1.89389 0
M  V30 5426 C 515.464 -3.65572 2.15968 0
M  V30 5427 O 516.488 -3.03184 1.86971 0
M  V30 5428 O 515.347 -4.77859 2.65167 0
M  V30 5429 H 512.441 -0.739708 0.369812 0
M  V30 5430 H 514.987 -1.03131 1.34767 0
M  V30 5431 H 513.759 -2.63327 2.89439 0
M  V30 5432 H 513.382 -3.67044 1.52854 0
M  V30 5433 N 514.379 -1.04941 -1.1758 0
M  V30 5434 C 515.326 -0.648155 -2.21512 0
M  V30 5435 C 516.296 0.348431 -1.62404 0
M  V30 5436 O 517.481 0.240419 -1.89279 0
M  V30 5437 C 514.621 -0.0264291 -3.4509 0
M  V30 5438 C 513.734 -1.07154 -4.185 0
M  V30 5439 C 512.869 -0.417403 -5.29558 0
M  V30 5440 C 511.908 -1.447 -5.94751 0
M  V30 5441 N 511.045 -0.817203 -6.97328 0
M  V30 5442 H 515.885 -1.53891 -2.55189 0
M  V30 5443 H 513.422 -0.769699 -1.25356 0
M  V30 5444 H 515.38 0.351456 -4.15717 0
M  V30 5445 H 514.01 0.827802 -3.12005 0
M  V30 5446 H 513.062 -1.56728 -3.46613 0
M  V30 5447 H 514.374 -1.8532 -4.63096 0
M  V30 5448 H 513.528 0.0142061 -6.06698 0
M  V30 5449 H 512.267 0.396265 -4.86087 0
M  V30 5450 H 511.272 -1.88865 -5.16343 0
M  V30 5451 H 512.497 -2.26252 -6.40302 0
M  V30 5452 H 510.443 -0.0239995 -6.55996 0
M  V30 5453 H 510.36 -1.53644 -7.40223 0
M  V30 5454 H 511.628 -0.410283 -7.7842 0
M  V30 5455 N 515.857 1.33968 -0.830081 0
M  V30 5456 C 517.082 2.02813 -0.433796 0
M  V30 5457 C 517.507 1.62076 0.954614 0
M  V30 5458 O 516.865 0.808955 1.62252 0
M  V30 5459 C 516.913 3.56348 -0.552115 0
M  V30 5460 O 516.017 4.10202 0.425191 0
M  V30 5461 H 515.358 0.639817 -0.177567 0
M  V30 5462 H 517.888 1.7106 -1.12248 0
M  V30 5463 H 517.898 4.05722 -0.430513 0
M  V30 5464 H 516.573 3.85344 -1.56471 0
M  V30 5465 H 515.15 3.71979 0.261878 0
M  V30 5466 N 517.335 0.585699 1.46312 0
M  V30 5467 C 518.612 0.00542031 1.95599 0
M  V30 5468 C 518.992 -1.45619 1.52834 0
M  V30 5469 O 518.34 -2.14759 0.780446 0
M  V30 5470 C 518.55 0.180601 3.48532 0
M  V30 5471 C 519.898 0.049979 4.24571 0
M  V30 5472 O 520.922 0.109589 3.56031 0
M  V30 5473 O 519.781 -0.0832226 5.46437 0
M  V30 5474 H 516.875 -0.0481281 0.825598 0
M  V30 5475 H 519.421 0.654227 1.56582 0
M  V30 5476 H 518.193 1.19657 3.72556 0
M  V30 5477 H 517.816 -0.504498 3.94386 0
M  V30 5478 N 518.813 -1.54241 0.323641 0
M  V30 5479 C 519.743 -2.27289 -0.534993 0
M  V30 5480 C 520.724 -1.28087 -1.11927 0
M  V30 5481 O 521.909 -1.56899 -1.14439 0
M  V30 5482 C 519.039 -3.03075 -1.69596 0
M  V30 5483 C 517.993 -4.09614 -1.24098 0
M  V30 5484 C 517.319 -4.73242 -2.4889 0
M  V30 5485 C 518.619 -5.21087 -0.355789 0
M  V30 5486 H 520.313 -2.99308 0.0743257 0
M  V30 5487 H 517.859 -1.43952 0.0371874 0
M  V30 5488 H 519.812 -3.52907 -2.30293 0
M  V30 5489 H 518.536 -2.28673 -2.33187 0
M  V30 5490 H 517.195 -3.60666 -0.656945 0
M  V30 5491 H 516.843 -3.95455 -3.10845 0
M  V30 5492 H 516.543 -5.45209 -2.19138 0
M  V30 5493 H 518.067 -5.25848 -3.10348 0
M  V30 5494 H 519.481 -5.66675 -0.869042 0
M  V30 5495 H 517.878 -5.9991 -0.151045 0
M  V30 5496 H 518.948 -4.81005 0.613339 0
M  V30 5497 N 520.291 -0.0518155 -1.57515 0
M  V30 5498 C 521.221 0.920283 -2.146 0
M  V30 5499 C 522.202 1.32406 -1.06783 0
M  V30 5500 O 523.387 1.39866 -1.34726 0
M  V30 5501 C 520.517 2.1949 -2.6915 0
M  V30 5502 C 519.471 1.93116 -3.81956 0
M  V30 5503 C 518.797 3.27037 -4.23026 0
M  V30 5504 C 520.097 1.25225 -5.07066 0
M  V30 5505 H 521.791 0.444801 -2.96077 0
M  V30 5506 H 519.337 0.212508 -1.42423 0
M  V30 5507 H 521.29 2.87894 -3.07725 0
M  V30 5508 H 520.014 2.69244 -1.84865 0
M  V30 5509 H 518.673 1.27123 -3.43854 0
M  V30 5510 H 518.321 3.74595 -3.3569 0
M  V30 5511 H 518.021 3.10189 -4.99056 0
M  V30 5512 H 519.545 3.96673 -4.64202 0
M  V30 5513 H 520.959 1.83666 -5.43083 0
M  V30 5514 H 519.356 1.18702 -5.88243 0
M  V30 5515 H 520.426 0.228382 -4.84362 0
M  V30 5516 N 521.769 1.56035 0.221574 0
M  V30 5517 C 522.716 1.92413 1.27459 0
M  V30 5518 C 523.686 0.781323 1.46576 0
M  V30 5519 O 524.871 1.03721 1.60145 0
M  V30 5520 C 522.011 2.24617 2.61995 0
M  V30 5521 C 521.124 3.51831 2.50677 0
M  V30 5522 C 520.259 3.73482 3.77736 0
M  V30 5523 C 519.298 4.94211 3.6114 0
M  V30 5524 N 518.435 5.12252 4.80148 0
M  V30 5525 H 523.275 2.82203 0.957355 0
M  V30 5526 H 520.812 1.39676 0.461415 0
M  V30 5527 H 522.77 2.41298 3.40339 0
M  V30 5528 H 521.4 1.38 2.91815 0
M  V30 5529 H 520.452 3.43343 1.63767 0
M  V30 5530 H 521.764 4.40328 2.34334 0
M  V30 5531 H 520.918 3.9026 4.64523 0
M  V30 5532 H 519.657 2.83266 3.97003 0
M  V30 5533 H 518.662 4.77384 2.72736 0
M  V30 5534 H 519.887 5.85912 3.43343 0
M  V30 5535 H 517.833 4.24978 4.99729 0
M  V30 5536 H 517.75 5.94881 4.66532 0
M  V30 5537 H 519.018 5.33465 5.68362 0
M  V30 5538 N 523.247 -0.488276 1.49845 0
M  V30 5539 C 524.194 -1.58836 1.67451 0
M  V30 5540 C 525.164 -1.57886 0.515857 0
M  V30 5541 O 526.349 -1.75679 0.744403 0
M  V30 5542 C 523.489 -2.96915 1.75885 0
M  V30 5543 C 522.602 -3.07784 3.03138 0
M  V30 5544 C 521.737 -4.36673 3.02473 0
M  V30 5545 C 520.776 -4.41222 4.24252 0
M  V30 5546 N 519.913 -5.61557 4.21424 0
M  V30 5547 H 524.753 -1.43131 2.61376 0
M  V30 5548 H 522.29 -0.696186 1.29583 0
M  V30 5549 H 524.248 -3.76965 1.78755 0
M  V30 5550 H 522.878 -3.11295 0.85414 0
M  V30 5551 H 521.93 -2.20717 3.09819 0
M  V30 5552 H 523.242 -3.07005 3.93128 0
M  V30 5553 H 522.396 -5.25055 3.03977 0
M  V30 5554 H 521.135 -4.40037 2.10283 0
M  V30 5555 H 520.14 -3.5124 4.22978 0
M  V30 5556 H 521.365 -4.39564 5.17649 0
M  V30 5557 H 519.311 -5.65738 3.32078 0
M  V30 5558 H 519.228 -5.62447 5.05163 0
M  V30 5559 H 520.496 -6.52111 4.2705 0
M  V30 5560 N 524.725 -1.39134 -0.740242 0
M  V30 5561 C 525.965 -1.37499 -1.51239 0
M  V30 5562 C 526.329 0.0310084 -1.91975 0
M  V30 5563 O 527.53 0.172319 -2.68247 0
M  V30 5564 C 525.801 -2.31566 -2.72235 0
M  V30 5565 S 527.36 -2.48073 -3.61947 0
M  V30 5566 H 524.178 -0.48768 -0.517387 0
M  V30 5567 H 526.78 -1.75183 -0.867826 0
M  V30 5568 H 525.484 -3.32592 -2.40439 0
M  V30 5569 H 525.015 -1.9508 -3.41625 0
M  V30 5570 H 527.03 -1.71473 -4.6563 0
M  V30 5571 N 526.204 0.969867 -1.24223 0
M  V30 5572 C 527.434 1.74502 -1.106 0
M  V30 5573 C 527.842 1.86038 0.344483 0
M  V30 5574 O 527.185 1.3465 1.24961 0
M  V30 5575 C 527.247 3.18391 -1.66935 0
M  V30 5576 C 526.911 3.30334 -3.15798 0
M  V30 5577 C 527.908 3.15832 -4.12973 0
M  V30 5578 C 525.593 3.54644 -3.55715 0
M  V30 5579 C 527.587 3.25461 -5.48045 0
M  V30 5580 C 525.274 3.63912 -4.90929 0
M  V30 5581 C 526.272 3.49332 -5.86904 0
M  V30 5582 O 525.96 3.58251 -7.1966 0
M  V30 5583 H 525.692 0.554119 -0.387206 0
M  V30 5584 H 528.246 1.22646 -1.64764 0
M  V30 5585 H 526.476 3.71543 -1.07203 0
M  V30 5586 H 528.165 3.77707 -1.48634 0
M  V30 5587 H 528.931 2.96937 -3.83476 0
M  V30 5588 H 524.81 3.65059 -2.81519 0
M  V30 5589 H 528.354 3.13998 -6.22937 0
M  V30 5590 H 524.251 3.82319 -5.20098 0
M  V30 5591 H 525.019 3.7498 -7.27552 0
M  V30 5592 N 527.682 1.05563 1.17022 0
M  V30 5593 C 528.907 0.788437 1.91829 0
M  V30 5594 C 529.332 -0.650356 1.76499 0
M  V30 5595 O 528.69 -1.45229 1.08527 0
M  V30 5596 C 528.738 1.1786 3.40795 0
M  V30 5597 O 527.842 0.312965 4.11211 0
M  V30 5598 H 527.183 0.288794 0.597908 0
M  V30 5599 H 529.713 1.40948 1.48307 0
M  V30 5600 H 529.723 1.14697 3.91546 0
M  V30 5601 H 528.398 2.22666 3.51273 0
M  V30 5602 H 526.975 0.405515 3.70689 0
M  V30 5603 N 529.16 -1.33526 0.837174 0
M  V30 5604 C 530.123 -2.27551 0.274421 0
M  V30 5605 C 531.123 -1.50886 -0.555881 0
M  V30 5606 O 532.313 -1.70227 -0.369918 0
M  V30 5607 C 529.445 -3.35332 -0.613605 0
M  V30 5608 H 530.638 -2.78837 1.10408 0
M  V30 5609 H 528.191 -1.439 0.610126 0
M  V30 5610 H 528.926 -2.89285 -1.46577 0
M  V30 5611 H 528.711 -3.92095 -0.0195341 0
M  V30 5612 H 530.201 -4.05433 -1.00068 0
M  V30 5613 N 530.638 -0.59345 -1.46 0
M  V30 5614 C 531.585 0.133618 -2.30413 0
M  V30 5615 C 532.555 0.873736 -1.41262 0
M  V30 5616 O 533.74 0.862279 -1.70204 0
M  V30 5617 C 530.88 1.13434 -3.25924 0
M  V30 5618 C 529.993 0.39656 -4.30176 0
M  V30 5619 C 529.128 1.38575 -5.12806 0
M  V30 5620 C 528.167 0.634984 -6.08797 0
M  V30 5621 N 527.304 1.57276 -6.84258 0
M  V30 5622 H 532.144 -0.592252 -2.92055 0
M  V30 5623 H 529.681 -0.303874 -1.43927 0
M  V30 5624 H 531.639 1.72752 -3.79753 0
M  V30 5625 H 530.269 1.82779 -2.66067 0
M  V30 5626 H 529.321 -0.311861 -3.79119 0
M  V30 5627 H 530.633 -0.189869 -4.98438 0
M  V30 5628 H 529.787 2.05141 -5.70966 0
M  V30 5629 H 528.526 2.00611 -4.44529 0
M  V30 5630 H 527.531 -0.0443925 -5.49782 0
M  V30 5631 H 528.756 0.0198678 -6.79097 0
M  V30 5632 H 526.702 2.18103 -6.18682 0
M  V30 5633 H 526.619 1.03941 -7.48821 0
M  V30 5634 H 527.887 2.22844 -7.46968 0
M  V30 5635 N 532.116 1.54067 -0.331816 0
M  V30 5636 C 533.079 2.23275 0.517768 0
M  V30 5637 C 534.079 1.22897 1.03697 0
M  V30 5638 O 535.269 1.47419 0.928084 0
M  V30 5639 C 532.401 2.94326 1.72004 0
M  V30 5640 H 533.594 2.99773 -0.0873507 0
M  V30 5641 H 531.147 1.56079 -0.0830042 0
M  V30 5642 H 531.882 2.21986 2.36417 0
M  V30 5643 H 531.667 3.67941 1.35507 0
M  V30 5644 H 533.157 3.47031 2.32291 0
M  V30 5645 N 533.594 0.0601682 1.57485 0
M  V30 5646 C 534.819 -0.624416 1.97777 0
M  V30 5647 C 535.244 -1.63051 0.937867 0
M  V30 5648 O 534.602 -1.81036 -0.0978845 0
M  V30 5649 C 534.65 -1.27979 3.37126 0
M  V30 5650 O 533.754 -2.39556 3.35688 0
M  V30 5651 H 533.095 -0.161581 0.64404 0
M  V30 5652 H 535.625 0.131237 2.04179 0
M  V30 5653 H 535.635 -1.62937 3.74053 0
M  V30 5654 H 534.31 -0.542501 4.12347 0
M  V30 5655 H 532.887 -2.06478 3.10517 0
M  V30 5656 N 535.072 -1.5615 -0.213296 0
M  V30 5657 C 536.302 -1.83372 -0.951757 0
M  V30 5658 C 536.71 -0.638158 -1.78113 0
M  V30 5659 O 536.053 0.402609 -1.79234 0
M  V30 5660 C 536.115 -3.04444 -1.91192 0
M  V30 5661 C 535.779 -4.39107 -1.26627 0
M  V30 5662 C 536.776 -5.15794 -0.652087 0
M  V30 5663 C 534.461 -4.85834 -1.27556 0
M  V30 5664 C 536.455 -6.37376 -0.055814 0
M  V30 5665 C 534.142 -6.07356 -0.675451 0
M  V30 5666 C 535.14 -6.82967 -0.0666367 0
M  V30 5667 O 534.828 -8.0219 0.524119 0
M  V30 5668 H 534.56 -0.613398 -0.284111 0
M  V30 5669 H 537.114 -2.04096 -0.231112 0
M  V30 5670 H 535.344 -2.79559 -2.67178 0
M  V30 5671 H 537.033 -3.18466 -2.51662 0
M  V30 5672 H 537.799 -4.80796 -0.637172 0
M  V30 5673 H 533.678 -4.26949 -1.73883 0
M  V30 5674 H 537.222 -6.96334 0.420004 0
M  V30 5675 H 533.119 -6.41825 -0.687806 0
M  V30 5676 H 533.887 -8.17426 0.419243 0
M  V30 5677 N 536.55 0.480323 -1.50102 0
M  V30 5678 C 537.48 1.58769 -1.71215 0
M  V30 5679 C 538.461 1.60583 -0.560997 0
M  V30 5680 O 539.646 1.76996 -0.799127 0
M  V30 5681 C 536.776 2.97148 -1.79778 0
M  V30 5682 C 535.73 3.10201 -2.94888 0
M  V30 5683 C 535.056 4.50137 -2.88584 0
M  V30 5684 C 536.356 2.88283 -4.35534 0
M  V30 5685 H 538.05 1.41354 -2.6393 0
M  V30 5686 H 535.596 0.678591 -1.27008 0
M  V30 5687 H 537.549 3.74536 -1.93133 0
M  V30 5688 H 536.273 3.15699 -0.836772 0
M  V30 5689 H 534.932 2.35244 -2.81169 0
M  V30 5690 H 534.58 4.65593 -1.90349 0
M  V30 5691 H 534.28 4.59808 -3.65856 0
M  V30 5692 H 535.804 5.29558 -3.03976 0
M  V30 5693 H 537.218 3.55427 -4.49827 0
M  V30 5694 H 535.615 3.09408 -5.14186 0
M  V30 5695 H 536.685 1.84219 -4.48544 0
M  V30 5696 N 538.028 1.39524 0.732853 0
M  V30 5697 C 539.275 1.36865 1.49246 0
M  V30 5698 C 539.603 -0.0347118 1.94469 0
M  V30 5699 O 538.858 -1.01596 1.67262 0
M  V30 5700 C 539.157 2.28916 2.74468 0
M  V30 5701 C 538.823 3.76506 2.481 0
M  V30 5702 C 537.485 4.16721 2.40619 0
M  V30 5703 C 539.837 4.69846 2.25598 0
M  V30 5704 C 537.165 5.48334 2.08679 0
M  V30 5705 C 539.517 6.01739 1.95174 0
M  V30 5706 C 538.181 6.41015 1.86163 0
M  V30 5707 H 537.451 0.500824 0.546129 0
M  V30 5708 H 540.098 1.72047 0.840958 0
M  V30 5709 H 538.403 1.86859 3.4437 0
M  V30 5710 H 540.1 2.2415 3.32502 0
M  V30 5711 H 536.69 3.44635 2.54803 0
M  V30 5712 H 540.874 4.39608 2.30344 0
M  V30 5713 H 536.13 5.77685 2.00226 0
M  V30 5714 H 540.304 6.73591 1.76771 0
M  V30 5715 H 537.931 7.42917 1.61179 0
M  V30 5716 N 539.506 -0.963266 1.24736 0
M  V30 5717 C 540.438 -2.06162 1.0015 0
M  V30 5718 C 541.451 -1.62771 -0.0305905 0
M  V30 5719 O 542.64 -1.77296 0.206966 0
M  V30 5720 C 539.74 -3.35333 0.490385 0
M  V30 5721 C 538.913 -4.07609 1.58663 0
M  V30 5722 C 537.972 -5.15052 1.0774 0
M  V30 5723 O 536.998 -5.4098 1.77002 0
M  V30 5724 N 538.2 -5.80436 -0.0858605 0
M  V30 5725 H 540.965 -2.27825 1.94719 0
M  V30 5726 H 538.526 -1.13121 1.15825 0
M  V30 5727 H 540.518 -4.04477 0.134371 0
M  V30 5728 H 539.088 -3.10507 -0.361155 0
M  V30 5729 H 538.308 -3.32681 2.11463 0
M  V30 5730 H 539.596 -4.52656 2.32336 0
M  V30 5731 H 538.994 -5.6178 -0.664806 0
M  V30 5732 H 537.551 -6.50674 -0.382981 0
M  V30 5733 N 540.985 -1.06182 -1.16461 0
M  V30 5734 C 541.917 -0.629584 -2.20383 0
M  V30 5735 C 542.93 0.311834 -1.59786 0
M  V30 5736 O 544.119 0.103 -1.78203 0
M  V30 5737 C 541.219 0.0973695 -3.3876 0
M  V30 5738 C 540.392 -0.857252 -4.28917 0
M  V30 5739 C 539.451 -0.169749 -5.25926 0
M  V30 5740 O 538.477 -0.807044 -5.6345 0
M  V30 5741 N 539.679 1.08911 -5.70192 0
M  V30 5742 H 542.444 -1.52352 -2.58087 0
M  V30 5743 H 540.005 -0.944993 -1.31459 0
M  V30 5744 H 541.997 0.567676 -4.00699 0
M  V30 5745 H 540.567 0.893093 -2.99571 0
M  V30 5746 H 539.787 -1.50696 -3.64259 0
M  V30 5747 H 541.075 -1.50489 -4.86035 0
M  V30 5748 H 540.473 1.62703 -5.41797 0
M  V30 5749 H 539.03 1.50331 -6.34227 0
M  V30 5750 N 542.463 1.3308 -0.844243 0
M  V30 5751 C 543.74 1.92178 -0.364261 0
M  V30 5752 C 544.12 1.76961 1.15101 0
M  V30 5753 O 543.468 1.16128 1.9679 0
M  V30 5754 C 543.678 3.393 -0.817106 0
M  V30 5755 C 545.026 4.16444 -0.828236 0
M  V30 5756 O 546.05 3.47975 -0.761062 0
M  V30 5757 O 544.909 5.38685 -0.920926 0
M  V30 5758 H 542.003 0.820411 -0.10419 0
M  V30 5759 H 544.549 1.41918 -0.930453 0
M  V30 5760 H 543.321 3.44272 -1.85991 0
M  V30 5761 H 542.944 3.96947 -0.227785 0
M  V30 5762 N 543.941 0.601185 1.45683 0
M  V30 5763 C 544.888 -0.121396 2.30481 0
M  V30 5764 C 545.858 -0.866232 1.41724 0
M  V30 5765 O 547.043 -0.85324 1.70659 0
M  V30 5766 C 544.183 -1.11704 3.26521 0
M  V30 5767 C 543.296 -0.373741 4.3038 0
M  V30 5768 C 542.431 -1.35854 5.13534 0
M  V30 5769 C 541.47 -0.602689 6.09126 0
M  V30 5770 N 540.607 -1.53645 6.85082 0
M  V30 5771 H 545.447 0.607732 2.91737 0
M  V30 5772 H 542.984 0.311502 1.43764 0
M  V30 5773 H 544.942 -1.70735 3.80664 0
M  V30 5774 H 543.572 -1.81366 2.67032 0
M  V30 5775 H 542.624 0.331962 3.78949 0
M  V30 5776 H 543.936 0.2163 4.98331 0
M  V30 5777 H 543.09 -2.02111 5.72046 0
M  V30 5778 H 541.829 -1.98251 4.45587 0
M  V30 5779 H 540.834 0.0735482 5.49751 0
M  V30 5780 H 542.059 0.0161467 6.79098 0
M  V30 5781 H 540.005 -2.14819 6.1983 0
M  V30 5782 H 539.922 -0.999688 7.49361 0
M  V30 5783 H 541.19 -2.1888 7.48139 0
M  V30 5784 N 545.419 -1.53889 0.339982 0
M  V30 5785 C 546.666 -2.00855 -0.257621 0
M  V30 5786 C 546.994 -1.22788 -1.50842 0
M  V30 5787 O 546.249 -0.302567 -1.93347 0
M  V30 5788 C 546.548 -3.51968 -0.620735 0
M  V30 5789 C 546.214 -4.47741 0.532771 0
M  V30 5790 C 544.876 -4.73645 0.849339 0
M  V30 5791 C 547.228 -5.04551 1.3068 0
M  V30 5792 C 544.556 -5.53614 1.94237 0
M  V30 5793 C 546.908 -5.85713 2.39005 0
M  V30 5794 C 545.572 -6.09912 2.71225 0
M  V30 5795 H 544.842 -0.734979 -0.0942703 0
M  V30 5796 H 547.489 -1.85714 0.467159 0
M  V30 5797 H 545.794 -3.64921 -1.42618 0
M  V30 5798 H 547.491 -3.85762 -1.09495 0
M  V30 5799 H 544.081 -4.27711 0.275973 0
M  V30 5800 H 548.265 -4.84507 1.07549 0
M  V30 5801 H 543.521 -5.7059 2.19628 0
M  V30 5802 H 547.695 -6.28748 2.99415 0
M  V30 5803 H 545.322 -6.71665 3.56047 0
M  V30 5804 N 546.897 -0.0685191 -1.57451 0
M  V30 5805 C 548.127 0.609577 -1.97402 0
M  V30 5806 C 548.535 1.63882 -0.945489 0
M  V30 5807 O 547.878 1.8354 0.0766052 0
M  V30 5808 C 547.94 1.3385 -3.33653 0
M  V30 5809 C 547.604 0.463103 -4.54648 0
M  V30 5810 C 548.601 -0.277964 -5.19156 0
M  V30 5811 C 546.286 0.388941 -5.00792 0
M  V30 5812 C 548.28 -1.08145 -6.28159 0
M  V30 5813 C 545.967 -0.418217 -6.09667 0
M  V30 5814 C 546.965 -1.15208 -6.73213 0
M  V30 5815 O 546.653 -1.94594 -7.79993 0
M  V30 5816 H 546.385 0.170197 -0.654224 0
M  V30 5817 H 548.939 -0.13647 -2.04946 0
M  V30 5818 H 547.169 2.13055 -3.22714 0
M  V30 5819 H 548.858 1.90851 -3.58233 0
M  V30 5820 H 549.624 -0.230241 -4.84453 0
M  V30 5821 H 545.503 0.949769 -4.5111 0
M  V30 5822 H 549.047 -1.65476 -6.7769 0
M  V30 5823 H 544.944 -0.467515 -6.43805 0
M  V30 5824 H 545.712 -1.8699 -7.96854 0
M  V30 5825 N 548.375 1.56261 0.205012 0
M  V30 5826 C 549.652 1.70856 0.952233 0
M  V30 5827 C 550.032 0.620501 2.01775 0
M  V30 5828 O 549.38 -0.370035 2.25484 0
M  V30 5829 C 549.59 3.12807 1.54767 0
M  V30 5830 C 550.938 3.72733 2.0336 0
M  V30 5831 O 551.962 3.15873 1.64629 0
M  V30 5832 O 550.821 4.72501 2.746 0
M  V30 5833 H 547.915 0.696496 0.445895 0
M  V30 5834 H 550.461 1.6857 0.195489 0
M  V30 5835 H 549.233 3.83465 0.779132 0
M  V30 5836 H 548.856 3.1928 2.36951 0
M  V30 5837 N 549.853 -0.472356 1.50355 0
M  V30 5838 C 551.099 -1.22634 1.6152 0
M  V30 5839 C 551.432 -1.91645 0.313995 0
M  V30 5840 O 550.707 -1.82059 -0.684446 0
M  V30 5841 C 550.99 -2.27099 2.7946 0
M  V30 5842 C 550.843 -1.62402 4.19459 0
M  V30 5843 C 552.162 -3.28421 2.92964 0
M  V30 5844 H 549.281 -0.444494 0.587873 0
M  V30 5845 H 551.923 -0.520321 1.82737 0
M  V30 5846 H 550.073 -2.87314 2.61501 0
M  V30 5847 H 551.745 -1.05793 4.49005 0
M  V30 5848 H 549.988 -0.927184 4.23776 0
M  V30 5849 H 550.659 -2.38309 4.97909 0
M  V30 5850 H 553.135 -2.78227 3.09401 0
M  V30 5851 H 552.011 -3.98845 3.77113 0
M  V30 5852 H 552.272 -3.92467 2.03525 0
M  V30 5853 N 551.331 -1.39911 -0.725443 0
M  V30 5854 C 552.556 -1.41137 -1.5197 0
M  V30 5855 C 552.981 -0.010262 -1.88097 0
M  V30 5856 O 552.339 0.979184 -1.52583 0
M  V30 5857 C 552.387 -2.2994 -2.77777 0
M  V30 5858 O 551.491 -1.73586 -3.74088 0
M  V30 5859 H 550.832 -0.480219 -0.458569 0
M  V30 5860 H 553.362 -1.84023 -0.894249 0
M  V30 5861 H 553.372 -2.44785 -3.26411 0
M  V30 5862 H 552.047 -3.31759 -2.50816 0
M  V30 5863 H 550.624 -1.68035 -3.32894 0
M  V30 5864 N 552.809 0.956637 -1.25245 0
M  V30 5865 C 554.039 1.7332 -1.12445 0
M  V30 5866 C 554.447 1.86392 0.324732 0
M  V30 5867 O 553.79 1.35967 1.23526 0
M  V30 5868 C 553.852 3.16603 -1.70303 0
M  V30 5869 C 553.516 3.26966 -3.19284 0
M  V30 5870 C 554.513 3.11434 -4.16299 0
M  V30 5871 C 552.198 3.50851 -3.59456 0
M  V30 5872 C 554.192 3.1963 -5.51467 0
M  V30 5873 C 551.879 3.58684 -4.94761 0
M  V30 5874 C 552.877 3.43087 -5.90576 0
M  V30 5875 O 552.565 3.50598 -7.2342 0
M  V30 5876 H 552.297 0.549981 -0.393061 0
M  V30 5877 H 554.851 1.20892 -1.66055 0
M  V30 5878 H 553.081 3.70385 -1.11138 0
M  V30 5879 H 554.77 3.76109 -1.52632 0
M  V30 5880 H 555.536 2.92853 -3.86604 0
M  V30 5881 H 551.415 3.62053 -2.85375 0
M  V30 5882 H 554.959 3.07373 -6.26233 0
M  V30 5883 H 550.856 3.76782 -5.24124 0
M  V30 5884 H 551.624 3.67242 -7.31489 0
M  V30 5885 N 554.287 1.06798 1.15896 0
M  V30 5886 C 555.564 0.701057 1.82605 0
M  V30 5887 C 555.944 -0.817066 1.94646 0
M  V30 5888 O 555.292 -1.72933 1.49353 0
M  V30 5889 C 555.502 1.40895 3.19296 0
M  V30 5890 C 556.85 1.55744 3.95005 0
M  V30 5891 O 557.874 1.36927 3.28831 0
M  V30 5892 O 556.733 1.86658 5.13635 0
M  V30 5893 H 553.827 0.248791 0.78869 0
M  V30 5894 H 556.373 1.16857 1.23055 0
M  V30 5895 H 555.145 2.4439 3.05596 0
M  V30 5896 H 554.768 0.931847 3.86526 0
M  V30 5897 N 555.766 -1.3263 0.851289 0
M  V30 5898 C 556.994 -2.01563 0.466899 0
M  V30 5899 C 557.409 -1.63996 -0.935447 0
M  V30 5900 O 556.766 -0.85957 -1.6099 0
M  V30 5901 C 556.817 -3.56613 0.592433 0
M  V30 5902 O 556.538 -3.92828 1.93954 0
M  V30 5903 C 558.039 -4.42818 0.206612 0
M  V30 5904 H 555.259 -0.645307 0.183902 0
M  V30 5905 H 557.803 -1.69285 1.1473 0
M  V30 5906 H 555.958 -3.87379 -0.0401936 0
M  V30 5907 H 556.372 -4.87545 1.9339 0
M  V30 5908 H 557.846 -5.50918 0.345462 0
M  V30 5909 H 558.323 -4.30844 -0.85264 0
M  V30 5910 H 558.929 -4.17434 0.814176 0
M  V30 5911 N 557.244 -0.608902 -1.45362 0
M  V30 5912 C 558.492 -0.104401 -2.0183 0
M  V30 5913 C 558.813 1.27007 -1.47967 0
M  V30 5914 O 558.083 1.83924 -0.674455 0
M  V30 5915 H 556.663 -0.0356042 -0.746151 0
M  V30 5916 H 559.325 -0.790596 -1.78145 0
M  V30 5917 H 558.421 -0.0551793 -3.12051 0
M  V30 5918 N 558.722 1.53707 -0.348139 0
M  V30 5919 C 559.999 1.93247 0.302475 0
M  V30 5920 C 560.379 1.28012 1.67857 0
M  V30 5921 O 559.727 0.43274 2.24365 0
M  V30 5922 C 559.937 3.47031 0.370159 0
M  V30 5923 C 561.285 4.20066 0.61882 0
M  V30 5924 O 562.309 3.53319 0.452087 0
M  V30 5925 O 561.168 5.38318 0.94215 0
M  V30 5926 H 558.262 0.807736 0.177458 0
M  V30 5927 H 560.808 1.64927 -0.399651 0
M  V30 5928 H 559.58 3.86745 -0.59534 0
M  V30 5929 H 559.203 3.81532 1.11888 0
M  V30 5930 N 560.2 0.0768682 1.57412 0
M  V30 5931 C 561.147 -0.888577 2.13009 0
M  V30 5932 C 562.117 -1.29198 1.0439 0
M  V30 5933 O 563.302 -1.37694 1.3208 0
M  V30 5934 C 560.442 -2.14899 2.70023 0
M  V30 5935 C 559.555 -1.79777 3.92816 0
M  V30 5936 C 558.69 -3.00467 4.38056 0
M  V30 5937 C 557.729 -2.61385 5.53484 0
M  V30 5938 N 556.866 -3.74851 5.93659 0
M  V30 5939 H 561.706 -0.407593 2.95199 0
M  V30 5940 H 559.243 -0.189534 1.45874 0
M  V30 5941 H 561.201 -2.88688 3.0119 0
M  V30 5942 H 559.831 -2.60529 1.9059 0
M  V30 5943 H 558.883 -0.960301 3.68079 0
M  V30 5944 H 560.195 -1.47027 4.76639 0
M  V30 5945 H 559.349 -3.82529 4.7091 0
M  V30 5946 H 558.088 -3.36413 3.53097 0
M  V30 5947 H 557.093 -1.77746 5.20275 0
M  V30 5948 H 558.318 -2.26603 6.40178 0
M  V30 5949 H 556.264 -4.1055 5.11649 0
M  V30 5950 H 556.181 -3.45887 6.72234 0
M  V30 5951 H 557.449 -4.57477 6.31138 0
M  V30 5952 N 561.678 -1.56367 -0.196722 0
M  V30 5953 C 562.903 -1.84991 -0.937714 0
M  V30 5954 C 563.328 -0.660244 -1.76132 0
M  V30 5955 O 562.686 0.390967 -1.77034 0
M  V30 5956 C 562.734 -3.11828 -1.81096 0
M  V30 5957 O 561.838 -2.92266 -2.90955 0
M  V30 5958 H 561.179 -0.609193 -0.264159 0
M  V30 5959 H 563.709 -2.03595 -0.202529 0
M  V30 5960 H 563.719 -3.42579 -2.21594 0
M  V30 5961 H 562.394 -3.98037 -1.2058 0
M  V30 5962 H 560.971 -2.72809 -2.54224 0
M  V30 5963 N 563.156 0.464375 -1.50603 0
M  V30 5964 C 564.405 1.21277 -1.61167 0
M  V30 5965 C 564.718 1.92953 -0.320704 0
M  V30 5966 O 565.924 2.69778 -0.30534 0
M  V30 5967 C 564.38 2.20403 -2.84518 0
M  V30 5968 C 563.988 1.54499 -4.20516 0
M  V30 5969 C 565.732 2.95843 -3.0443 0
M  V30 5970 C 563.639 2.51951 -5.35047 0
M  V30 5971 H 562.569 0.456367 -0.600204 0
M  V30 5972 H 565.22 0.48254 -1.77042 0
M  V30 5973 H 563.602 2.96746 -2.62217 0
M  V30 5974 H 564.776 0.83899 -4.53098 0
M  V30 5975 H 563.091 0.913152 -4.06264 0
M  V30 5976 H 565.688 3.6879 -3.87167 0
M  V30 5977 H 566.031 3.55622 -2.16423 0
M  V30 5978 H 566.564 2.26611 -3.26944 0
M  V30 5979 H 563.303 1.96901 -6.25228 0
M  V30 5980 H 562.823 3.20683 -5.06875 0
M  V30 5981 H 564.502 3.13643 -5.65895 0
M  V30 5982 N 564.634 1.40294 0.718013 0
M  V30 5983 C 565.566 1.36281 1.84283 0
M  V30 5984 C 566.579 0.268621 1.60569 0
M  V30 5985 O 567.768 0.528798 1.70487 0
M  V30 5986 C 564.868 1.09741 3.2064 0
M  V30 5987 C 564.041 2.30767 3.71571 0
M  V30 5988 C 563.1 2.00424 4.86535 0
M  V30 5989 O 562.126 2.73268 4.99313 0
M  V30 5990 N 563.328 0.980724 5.72156 0
M  V30 5991 H 566.093 2.3322 1.88225 0
M  V30 5992 H 563.654 1.34616 0.899453 0
M  V30 5993 H 565.646 0.874322 3.95143 0
M  V30 5994 H 564.216 0.214771 3.11861 0
M  V30 5995 H 563.436 2.68921 2.88228 0
M  V30 5996 H 564.724 3.11455 4.02335 0
M  V30 5997 H 564.122 0.377375 5.6444 0
M  V30 5998 H 562.679 0.817538 6.46653 0
M  V30 5999 N 566.112 -0.949982 1.2575 0
M  V30 6000 C 567.352 -1.70994 1.11984 0
M  V30 6001 C 567.716 -1.89095 -0.332746 0
M  V30 6002 O 568.917 -2.62192 -0.592331 0
M  V30 6003 C 567.188 -3.05286 1.85837 0
M  V30 6004 S 568.747 -3.96477 1.88019 0
M  V30 6005 H 565.565 -0.587689 0.400178 0
M  V30 6006 H 568.167 -1.13271 1.59342 0
M  V30 6007 H 566.871 -2.89785 2.90608 0
M  V30 6008 H 566.402 -3.68069 1.38885 0
M  V30 6009 H 568.417 -4.86814 0.96057 0
M  V30 6010 N 567.59 -1.07411 -1.15328 0
M  V30 6011 C 568.815 -0.818856 -1.90551 0
M  V30 6012 C 569.24 0.622194 -1.77512 0
M  V30 6013 O 568.598 1.43484 -1.10824 0
M  V30 6014 C 568.646 -1.23267 -3.38877 0
M  V30 6015 O 567.75 -0.378345 -4.10661 0
M  V30 6016 H 567.091 -0.29827 -0.593238 0
M  V30 6017 H 569.621 -1.43289 -1.46046 0
M  V30 6018 H 569.631 -1.20912 -3.89672 0
M  V30 6019 H 568.306 -2.28226 -3.47686 0
M  V30 6020 H 566.883 -0.464437 -3.69996 0
M  V30 6021 N 569.068 1.32177 -0.85831 0
M  V30 6022 C 570.484 1.49873 -0.548656 0
M  V30 6023 C 570.684 1.79278 0.919874 0
M  V30 6024 O 569.74 1.86451 1.70271 0
M  V30 6025 C 571.053 2.64043 -1.4388 0
M  V30 6026 C 572.601 2.77928 -1.43961 0
M  V30 6027 C 573.076 3.95182 -2.31506 0
M  V30 6028 N 574.567 4.0245 -2.29321 0
M  V30 6029 C 575.302 4.9242 -2.93786 0
M  V30 6030 N 574.798 5.87373 -3.67376 0
M  V30 6031 N 576.591 4.85572 -2.83155 0
M  V30 6032 H 568.742 1.11357 -1.80868 0
M  V30 6033 H 571.005 0.549175 -0.772729 0
M  V30 6034 H 570.711 2.49055 -2.48324 0
M  V30 6035 H 570.585 3.59912 -1.12885 0
M  V30 6036 H 572.972 2.92338 -0.402813 0
M  V30 6037 H 573.053 1.82762 -1.78974 0
M  V30 6038 H 572.697 3.81531 -3.35256 0
M  V30 6039 H 572.627 4.89633 -1.93823 0
M  V30 6040 H 575.118 3.34507 -1.75822 0
M  V30 6041 H 575.431 6.52728 -4.13722 0
M  V30 6042 H 573.776 5.87388 -3.71484 0
M  V30 6043 H 576.967 4.10363 -2.25211 0
M  V30 6044 H 577.14 5.55486 -3.33676 0
M  V30 6045 N 570.547 0.616602 1.45037 0
M  V30 6046 C 571.963 0.280994 1.57107 0
M  V30 6047 C 572.163 -1.21627 1.60653 0
M  V30 6048 O 571.219 -1.9997 1.54169 0
M  V30 6049 C 572.532 0.960116 2.8496 0
M  V30 6050 C 574.08 0.936884 2.98649 0
M  V30 6051 C 574.555 1.59619 4.29285 0
M  V30 6052 N 576.046 1.5621 4.36065 0
M  V30 6053 C 576.781 2.04131 5.35834 0
M  V30 6054 N 576.277 2.60177 6.4209 0
M  V30 6055 N 578.07 1.94845 5.27249 0
M  V30 6056 H 570.221 1.58867 1.40979 0
M  V30 6057 H 572.484 0.666024 0.674623 0
M  V30 6058 H 572.19 2.01473 2.88273 0
M  V30 6059 H 572.064 0.488921 3.74018 0
M  V30 6060 H 574.451 -0.109209 2.94898 0
M  V30 6061 H 574.532 1.44643 2.10979 0
M  V30 6062 H 574.176 2.64166 4.33796 0
M  V30 6063 H 574.106 1.06159 5.15789 0
M  V30 6064 H 576.597 1.15276 3.59889 0
M  V30 6065 H 576.91 2.94513 7.1448 0
M  V30 6066 H 575.255 2.64221 6.42816 0
M  V30 6067 H 578.446 1.50792 4.43147 0
M  V30 6068 H 578.619 2.32504 6.04852 0
M  V30 6069 N 572.025 -1.5352 0.356285 0
M  V30 6070 C 573.436 -1.86282 -0.12492 0
M  V30 6071 C 573.787 -1.27717 -1.48939 0
M  V30 6072 O 572.912 -0.595614 -2.08042 0
M  V30 6073 C 573.507 -3.37995 -0.23345 0
M  V30 6074 C 572.066 -3.70588 -0.658899 0
M  V30 6075 C 571.213 -2.76581 0.199596 0
M  V30 6076 H 574.164 -1.47901 0.575423 0
M  V30 6077 H 574.185 -3.65475 -1.0587 0
M  V30 6078 H 573.697 -3.8059 0.759776 0
M  V30 6079 H 571.798 -3.33544 -1.66069 0
M  V30 6080 H 571.911 -4.77076 -0.439957 0
M  V30 6081 H 570.275 -2.52552 -0.330076 0
M  V30 6082 H 571.058 -3.22008 1.19019 0
M  V30 6083 N 573.503 -0.0852151 -1.57369 0
M  V30 6084 C 574.78 0.622534 -1.85429 0
M  V30 6085 C 575.16 1.86962 -0.980229 0
M  V30 6086 O 574.508 2.28445 -0.0500219 0
M  V30 6087 C 574.718 0.947374 -3.35896 0
M  V30 6088 C 576.066 1.31509 -4.03721 0
M  V30 6089 O 577.09 1.03869 -3.40719 0
M  V30 6090 O 575.949 1.83231 -5.14868 0
M  V30 6091 H 573.043 0.310513 -0.766492 0
M  V30 6092 H 575.589 -0.117164 -1.69295 0
M  V30 6093 H 574.361 0.0622264 -3.91251 0
M  V30 6094 H 573.984 1.74338 -3.5734 0
M  V30 6095 N 574.981 1.5647 0.188427 0
M  V30 6096 C 575.944 1.9421 1.21718 0
M  V30 6097 C 576.944 0.823901 1.38089 0
M  V30 6098 O 578.134 1.09122 1.35787 0
M  V30 6099 C 575.266 2.22197 2.58537 0
M  V30 6100 H 576.459 2.86252 0.894418 0
M  V30 6101 H 574.012 1.50263 0.430211 0
M  V30 6102 H 574.747 1.32814 2.95856 0
M  V30 6103 H 574.532 3.03688 2.48025 0
M  V30 6104 H 576.022 2.52376 3.3271 0
M  V30 6105 N 576.459 -0.456382 1.50847 0
M  V30 6106 C 577.706 -1.20736 1.62571 0
M  V30 6107 C 578.034 -1.9163 0.332904 0
M  V30 6108 O 577.289 -1.8343 -0.682058 0
M  V30 6109 C 577.588 -2.26336 2.76599 0
M  V30 6110 C 577.254 -1.7259 4.16562 0
M  V30 6111 C 575.916 -1.57654 4.54641 0
M  V30 6112 C 578.268 -1.32877 5.03977 0
M  V30 6113 C 575.596 -1.0145 5.77862 0
M  V30 6114 C 577.948 -0.7811 6.27759 0
M  V30 6115 C 576.612 -0.618488 6.64628 0
M  V30 6116 H 575.882 -0.441803 0.594888 0
M  V30 6117 H 578.529 -0.501169 1.84826 0
M  V30 6118 H 576.834 -3.0292 2.48489 0
M  V30 6119 H 578.531 -2.84227 2.82871 0
M  V30 6120 H 575.121 -1.85187 3.86528 0
M  V30 6121 H 579.305 -1.43245 4.75179 0
M  V30 6122 H 574.561 -0.876109 6.0509 0
M  V30 6123 H 578.735 -0.464783 6.94847 0
M  V30 6124 H 576.362 -0.180838 7.59985 0
M  V30 6125 N 577.937 -1.40673 -0.710563 0
M  V30 6126 C 578.884 -1.41336 -1.82463 0
M  V30 6127 C 579.854 -0.269648 -1.63897 0
M  V30 6128 O 581.039 -0.468463 -1.8496 0
M  V30 6129 C 578.179 -1.28665 -3.20218 0
M  V30 6130 C 577.292 -2.52784 -3.5032 0
M  V30 6131 C 576.427 -2.32517 -4.77608 0
M  V30 6132 C 575.466 -3.52187 -5.0063 0
M  V30 6133 N 574.603 -3.31084 -6.19135 0
M  V30 6134 H 579.443 -2.36558 -1.8123 0
M  V30 6135 H 576.98 -1.17483 -0.885226 0
M  V30 6136 H 578.938 -1.19324 -3.99772 0
M  V30 6137 H 577.568 -0.370602 -3.20666 0
M  V30 6138 H 576.62 -2.72634 -2.65283 0
M  V30 6139 H 577.932 -3.41845 -3.63241 0
M  V30 6140 H 577.086 -2.20558 -5.65189 0
M  V30 6141 H 575.825 -1.40889 -4.66906 0
M  V30 6142 H 574.83 -3.64617 -4.11502 0
M  V30 6143 H 576.055 -4.44749 -5.13201 0
M  V30 6144 H 574.001 -2.42143 -6.09674 0
M  V30 6145 H 573.918 -4.13713 -6.32754 0
M  V30 6146 H 575.186 -3.22868 -7.0949 0
M  V30 6147 N 579.415 0.9433 -1.26252 0
M  V30 6148 C 580.662 1.68925 -1.11672 0
M  V30 6149 C 580.99 1.91499 0.340329 0
M  V30 6150 O 580.245 1.49189 1.26653 0
M  V30 6151 C 580.544 3.07073 -1.82868 0
M  V30 6152 C 580.21 3.04262 -3.32769 0
M  V30 6153 C 578.872 3.03203 -3.7366 0
M  V30 6154 C 581.224 2.96729 -4.28487 0
M  V30 6155 C 578.552 2.92373 -5.0866 0
M  V30 6156 C 580.904 2.87442 -5.63525 0
M  V30 6157 C 579.568 2.84724 -6.03729 0
M  V30 6158 H 578.838 0.618141 -0.408635 0
M  V30 6159 H 581.485 1.10124 -1.56668 0
M  V30 6160 H 579.79 3.69486 -1.30335 0
M  V30 6161 H 581.487 3.63635 -1.69029 0
M  V30 6162 H 578.077 3.05865 -3.00241 0
M  V30 6163 H 582.261 2.96658 -3.97879 0
M  V30 6164 H 577.517 2.88645 -5.38975 0
M  V30 6165 H 581.691 2.80576 -6.37377 0
M  V30 6166 H 579.318 2.76089 -7.08293 0
M  V30 6167 N 580.893 1.08022 1.14757 0
M  V30 6168 C 582.139 0.818552 1.86202 0
M  V30 6169 C 582.494 -0.648563 1.81139 0
M  V30 6170 O 581.787 -1.4704 1.22841 0
M  V30 6171 C 581.981 1.26964 3.34088 0
M  V30 6172 C 581.81 2.77907 3.5355 0
M  V30 6173 C 580.58 3.45604 3.68627 0
M  V30 6174 C 582.778 3.7609 3.50801 0
M  V30 6175 N 580.76 4.85119 3.76209 0
M  V30 6176 C 582.131 5.0148 3.64579 0
M  V30 6177 C 584.186 3.6915 3.34115 0
M  V30 6178 C 582.889 6.20755 3.63395 0
M  V30 6179 C 584.915 4.87896 3.34233 0
M  V30 6180 C 584.277 6.12123 3.48547 0
M  V30 6181 H 580.376 0.352186 0.698204 0
M  V30 6182 H 582.96 1.37781 1.37567 0
M  V30 6183 H 581.131 0.738008 3.81324 0
M  V30 6184 H 582.863 0.954806 3.93275 0
M  V30 6185 H 579.618 2.96016 3.69691 0
M  V30 6186 H 580.042 5.57748 3.83726 0
M  V30 6187 H 584.684 2.74045 3.21961 0
M  V30 6188 H 582.402 7.16175 3.74326 0
M  V30 6189 H 585.988 4.8421 3.2254 0
M  V30 6190 H 584.868 7.02468 3.48581 0
M  V30 6191 N 582.371 -1.3172 0.865308 0
M  V30 6192 C 583.304 -2.26687 0.262376 0
M  V30 6193 C 584.282 -1.50894 -0.605787 0
M  V30 6194 O 585.466 -1.79982 -0.56024 0
M  V30 6195 C 582.593 -3.3281 -0.628915 0
M  V30 6196 C 581.639 -4.26172 0.167278 0
M  V30 6197 S 582.472 -5.12797 1.54272 0
M  V30 6198 C 583.628 -6.22438 0.657427 0
M  V30 6199 H 583.861 -2.77478 1.0674 0
M  V30 6200 H 581.394 -1.39414 0.663555 0
M  V30 6201 H 583.352 -3.94426 -1.13747 0
M  V30 6202 H 582.013 -2.80782 -1.40785 0
M  V30 6203 H 581.206 -5.01392 -0.51203 0
M  V30 6204 H 580.808 -3.69029 0.607777 0
M  V30 6205 H 583.1 -6.77368 -0.133925 0
M  V30 6206 H 584.043 -6.9451 1.38061 0
M  V30 6207 H 584.451 -5.64043 0.227044 0
M  V30 6208 N 583.85 -0.624285 -1.44708 0
M  V30 6209 C 585.077 -0.132919 -2.06473 0
M  V30 6210 C 585.493 1.18967 -1.46602 0
M  V30 6211 O 584.85 1.72824 -0.586341 0
M  V30 6212 C 584.901 -0.00465418 -3.615 0
M  V30 6213 O 584.622 -1.27494 -4.19138 0
M  V30 6214 C 586.123 0.516213 -4.40284 0
M  V30 6215 H 583.343 -0.0765201 -0.666623 0
M  V30 6216 H 585.887 -0.856751 -1.85688 0
M  V30 6217 H 584.042 0.669583 -3.8157 0
M  V30 6218 H 584.456 -1.11536 -5.12504 0
M  V30 6219 H 585.93 0.554994 -5.49203 0
M  V30 6220 H 586.407 1.5419 -4.11245 0
M  V30 6221 H 587.013 -0.124542 -4.25118 0
M  V30 6222 N 585.328 1.53329 -0.364422 0
M  V30 6223 C 586.574 2.02222 0.21855 0
M  V30 6224 C 586.929 1.24702 1.46517 0
M  V30 6225 O 586.222 0.331969 1.88702 0
M  V30 6226 C 586.416 3.52911 0.564661 0
M  V30 6227 C 586.245 4.45023 -0.646862 0
M  V30 6228 C 585.015 4.91838 -1.15858 0
M  V30 6229 C 587.213 4.91581 -1.51172 0
M  V30 6230 N 585.195 5.67955 -2.33025 0
M  V30 6231 C 586.566 5.66028 -2.53006 0
M  V30 6232 C 588.621 4.73656 -1.53473 0
M  V30 6233 C 587.324 6.24457 -3.56996 0
M  V30 6234 C 589.35 5.3295 -2.56356 0
M  V30 6235 C 588.712 6.07282 -3.56914 0
M  V30 6236 H 584.811 0.780832 0.0427199 0
M  V30 6237 H 587.395 1.87937 -0.508704 0
M  V30 6238 H 585.566 3.6736 1.26099 0
M  V30 6239 H 587.298 3.88528 1.13262 0
M  V30 6240 H 584.053 4.68043 -0.723393 0
M  V30 6241 H 584.477 6.10675 -2.92241 0
M  V30 6242 H 589.119 4.15714 -0.770842 0
M  V30 6243 H 586.837 6.81496 -4.34268 0
M  V30 6244 H 590.423 5.20976 -2.58989 0
M  V30 6245 H 589.303 6.52345 -4.35218 0
M  V30 6246 N 586.806 0.0935595 1.57322 0
M  V30 6247 C 587.753 -0.865935 2.1394 0
M  V30 6248 C 588.723 -1.28083 1.05754 0
M  V30 6249 O 589.908 -1.36285 1.33533 0
M  V30 6250 C 587.048 -2.12023 2.72287 0
M  V30 6251 C 586.161 -1.756 3.94701 0
M  V30 6252 C 585.296 -2.95804 4.41218 0
M  V30 6253 C 584.335 -2.555 5.56225 0
M  V30 6254 N 583.472 -3.68534 5.97601 0
M  V30 6255 H 588.312 -0.376261 2.95615 0
M  V30 6256 H 585.849 -0.174052 1.46067 0
M  V30 6257 H 587.807 -2.85477 3.04235 0
M  V30 6258 H 586.437 -2.58492 1.93343 0
M  V30 6259 H 585.489 -0.921208 3.69077 0
M  V30 6260 H 586.801 -1.41964 4.78171 0
M  V30 6261 H 585.955 -3.77513 4.74941 0
M  V30 6262 H 584.694 -3.32649 3.56645 0
M  V30 6263 H 583.699 -1.72218 5.22131 0
M  V30 6264 H 584.924 -2.19801 6.42545 0
M  V30 6265 H 582.87 -4.051 5.15974 0
M  V30 6266 H 582.787 -3.38737 6.75865 0
M  V30 6267 H 584.055 -4.50757 6.35955 0
M  V30 6268 N 588.284 -1.56567 -0.180126 0
M  V30 6269 C 589.247 -1.94852 -1.20686 0
M  V30 6270 C 590.247 -0.831212 -1.3765 0
M  V30 6271 O 591.437 -1.09841 -1.35206 0
M  V30 6272 C 588.569 -2.23565 -2.57355 0
M  V30 6273 H 589.762 -2.86722 -0.879225 0
M  V30 6274 H 587.315 -1.50489 -0.422237 0
M  V30 6275 H 588.05 -1.34381 -2.95148 0
M  V30 6276 H 587.835 -3.04999 -2.46411 0
M  V30 6277 H 589.325 -2.54137 -3.31367 0
M  V30 6278 N 589.762 0.448376 -1.51087 0
M  V30 6279 C 590.692 1.55102 -1.74544 0
M  V30 6280 C 591.673 1.59357 -0.594932 0
M  V30 6281 O 592.858 1.75261 -0.836491 0
M  V30 6282 C 589.988 2.93268 -1.86041 0
M  V30 6283 C 588.942 3.03877 -3.01402 0
M  V30 6284 C 588.268 4.43914 -2.98068 0
M  V30 6285 C 589.568 2.7898 -4.41551 0
M  V30 6286 H 591.262 1.35724 -2.66869 0
M  V30 6287 H 588.808 0.651498 -1.28419 0
M  V30 6288 H 590.761 3.70356 -2.01034 0
M  V30 6289 H 589.485 3.13853 -0.903548 0
M  V30 6290 H 588.144 2.29227 -2.86096 0
M  V30 6291 H 587.792 4.6145 -2.00182 0
M  V30 6292 H 587.492 4.51944 -3.75527 0
M  V30 6293 H 589.016 5.22991 -3.1514 0
M  V30 6294 H 590.43 3.45805 -4.57265 0
M  V30 6295 H 588.827 2.98431 -5.20633 0
M  V30 6296 H 589.897 1.74663 -4.5235 0
M  V30 6297 N 591.24 1.41047 0.703093 0
M  V30 6298 C 592.488 1.39723 1.4602 0
M  V30 6299 C 592.809 0.00461257 1.94999 0
M  V30 6300 O 592.079 -0.952292 1.71196 0
M  V30 6301 H 590.659 0.514281 0.541779 0
M  V30 6302 H 593.321 1.76217 0.832678 0
M  V30 6303 H 592.417 2.07982 2.32701 0
M  V30 6304 N 592.718 -0.936591 1.26751 0
M  V30 6305 C 593.946 -1.71758 1.15355 0
M  V30 6306 C 594.361 -1.86549 -0.290683 0
M  V30 6307 O 593.718 -1.37616 -1.19868 0
M  V30 6308 C 593.769 -3.12193 1.82258 0
M  V30 6309 O 593.49 -2.98105 3.21038 0
M  V30 6310 C 594.991 -4.06485 1.76875 0
M  V30 6311 H 592.211 -0.537636 0.401483 0
M  V30 6312 H 594.755 -1.17382 1.67457 0
M  V30 6313 H 592.91 -3.63456 1.34083 0
M  V30 6314 H 593.324 -3.86824 3.54214 0
M  V30 6315 H 594.798 -5.02569 2.28316 0
M  V30 6316 H 595.275 -4.32986 0.736216 0
M  V30 6317 H 595.881 -3.61144 2.24623 0
M  V30 6318 N 594.196 -1.08629 -1.14182 0
M  V30 6319 C 595.126 -0.740003 -2.21464 0
M  V30 6320 C 596.107 0.278591 -1.67803 0
M  V30 6321 O 597.292 0.148461 -1.93632 0
M  V30 6322 C 594.422 -0.150952 -3.46972 0
M  V30 6323 C 593.376 -1.09815 -4.13672 0
M  V30 6324 C 592.702 -0.3712 -5.3341 0
M  V30 6325 C 594.002 -2.43722 -4.61949 0
M  V30 6326 H 595.696 -1.63697 -2.50686 0
M  V30 6327 H 593.242 -0.788526 -1.20492 0
M  V30 6328 H 595.195 0.103325 -4.21273 0
M  V30 6329 H 593.919 0.781164 -3.1712 0
M  V30 6330 H 592.578 -1.33756 -3.41328 0
M  V30 6331 H 592.226 0.564792 -4.99819 0
M  V30 6332 H 591.926 -1.00267 -5.78982 0
M  V30 6333 H 593.45 -0.12503 -6.10472 0
M  V30 6334 H 594.864 -2.24034 -5.27714 0
M  V30 6335 H 593.261 -3.02582 -5.18232 0
M  V30 6336 H 594.331 -3.05082 -3.76899 0
M  V30 6337 N 595.674 1.31259 -0.872281 0
M  V30 6338 C 596.922 1.96233 -0.483409 0
M  V30 6339 C 597.243 1.69276 0.968012 0
M  V30 6340 O 596.513 1.00943 1.67891 0
M  V30 6341 H 595.093 0.726025 -0.175774 0
M  V30 6342 H 597.755 1.60024 -1.11258 0
M  V30 6343 H 596.851 3.05403 -0.643075 0
M  V30 6344 N 597.152 0.631951 1.44375 0
M  V30 6345 C 598.082 -0.0593243 2.33425 0
M  V30 6346 C 599.063 -0.833964 1.48253 0
M  V30 6347 O 600.248 -0.799682 1.76971 0
M  V30 6348 C 597.378 -1.04096 3.31333 0
M  V30 6349 C 596.332 -0.377899 4.26328 0
M  V30 6350 C 595.658 -1.4695 5.14111 0
M  V30 6351 C 596.958 0.716371 5.17364 0
M  V30 6352 H 598.652 0.684287 2.91475 0
M  V30 6353 H 596.198 0.330518 1.40156 0
M  V30 6354 H 598.151 -1.53331 3.92514 0
M  V30 6355 H 596.875 -1.81547 2.71493 0
M  V30 6356 H 595.534 0.0938054 3.6648 0
M  V30 6357 H 595.182 -2.2349 4.50623 0
M  V30 6358 H 594.882 -1.03121 5.78481 0
M  V30 6359 H 596.406 -1.96363 5.78164 0
M  V30 6360 H 597.82 0.307089 5.72477 0
M  V30 6361 H 596.217 1.07784 5.90341 0
M  V30 6362 H 597.287 1.58316 4.58327 0
M  V30 6363 N 598.631 -1.53133 0.372548 0
M  V30 6364 C 599.541 -2.29671 -0.478379 0
M  V30 6365 C 600.557 -1.35913 -1.08644 0
M  V30 6366 O 601.733 -1.68975 -1.09588 0
M  V30 6367 C 598.798 -3.07625 -1.599 0
M  V30 6368 C 597.859 -4.17061 -1.01776 0
M  V30 6369 C 597.092 -4.91289 -2.08497 0
M  V30 6370 O 597.315 -4.65442 -3.29727 0
M  V30 6371 O 596.249 -5.7705 -1.71164 0
M  V30 6372 H 600.075 -3.03355 0.144649 0
M  V30 6373 H 597.66 -1.48773 0.136729 0
M  V30 6374 H 599.542 -3.56281 -2.25038 0
M  V30 6375 H 598.217 -2.3677 -2.2073 0
M  V30 6376 H 597.124 -3.72641 -0.330098 0
M  V30 6377 H 598.457 -4.90102 -0.453915 0
M  V30 6378 N 600.109 -0.101901 -1.5727 0
M  V30 6379 C 601.019 0.868647 -2.17926 0
M  V30 6380 C 602.035 1.30527 -1.1506 0
M  V30 6381 O 603.211 1.37178 -1.47459 0
M  V30 6382 C 600.276 2.10727 -2.75309 0
M  V30 6383 C 599.337 1.7242 -3.93154 0
M  V30 6384 C 598.57 2.90377 -4.47791 0
M  V30 6385 O 598.793 4.05305 -4.01353 0
M  V30 6386 O 597.727 2.6845 -5.38719 0
M  V30 6387 H 601.553 0.382544 -3.01281 0
M  V30 6388 H 599.138 0.122812 -1.48894 0
M  V30 6389 H 601.02 2.83303 -3.11958 0
M  V30 6390 H 599.695 2.58376 -1.94996 0
M  V30 6391 H 598.602 0.970039 -3.61305 0
M  V30 6392 H 599.935 1.29528 -4.74851 0
M  V30 6393 N 601.587 1.56661 0.17182 0
M  V30 6394 C 603.003 1.50768 0.52357 0
M  V30 6395 C 603.203 0.806072 1.84675 0
M  V30 6396 O 602.259 0.366233 2.4983 0
M  V30 6397 C 603.572 2.955 0.556793 0
M  V30 6398 C 605.12 3.06303 0.644029 0
M  V30 6399 C 605.595 4.52492 0.708148 0
M  V30 6400 N 607.086 4.56737 0.771051 0
M  V30 6401 C 607.821 5.67196 0.841229 0
M  V30 6402 N 607.317 6.87287 0.872272 0
M  V30 6403 N 609.11 5.55165 0.88021 0
M  V30 6404 H 601.261 2.00679 -0.695817 0
M  V30 6405 H 603.524 0.914219 -0.250814 0
M  V30 6406 H 603.23 3.49986 -0.346774 0
M  V30 6407 H 603.104 3.50119 1.40346 0
M  V30 6408 H 605.491 2.51851 1.53802 0
M  V30 6409 H 605.572 2.5477 -0.229297 0
M  V30 6410 H 605.216 5.07575 -0.181585 0
M  V30 6411 H 605.146 5.01781 1.59761 0
M  V30 6412 H 607.637 3.70274 0.755364 0
M  V30 6413 H 607.95 7.6722 0.92698 0
M  V30 6414 H 606.295 6.89898 0.840557 0
M  V30 6415 H 609.486 4.60263 0.852956 0
M  V30 6416 H 609.659 6.41271 0.931439 0
M  V30 6417 N 603.065 -0.440357 1.51323 0
M  V30 6418 C 604.311 -1.19181 1.64085 0
M  V30 6419 C 604.644 -1.90936 0.354575 0
M  V30 6420 O 603.919 -1.8347 -0.645675 0
M  V30 6421 C 604.202 -2.2112 2.84215 0
M  V30 6422 C 604.055 -1.53468 4.22809 0
M  V30 6423 C 605.374 -3.22133 2.99864 0
M  V30 6424 H 602.493 -0.431924 0.597169 0
M  V30 6425 H 605.135 -0.481443 1.83799 0
M  V30 6426 H 603.285 -2.81703 2.67537 0
M  V30 6427 H 604.957 -0.962455 4.51148 0
M  V30 6428 H 603.2 -0.837086 4.25647 0
M  V30 6429 H 603.871 -2.27694 5.02852 0
M  V30 6430 H 606.347 -2.71601 3.15233 0
M  V30 6431 H 605.223 -3.90756 3.85488 0
M  V30 6432 H 605.484 -3.88061 2.11804 0
M  V30 6433 N 604.543 -1.41418 -0.695603 0
M  V30 6434 C 605.491 -1.43467 -1.83084 0
M  V30 6435 C 606.485 -0.312719 -1.66489 0
M  V30 6436 O 607.691 -0.484744 -1.7335 0
M  V30 6437 H 604.066 -0.448891 -0.603325 0
M  V30 6438 H 606.037 -2.39144 -1.78473 0
M  V30 6439 C 604.786 -1.3337 -3.21104 0
M  V30 6440 H 604.109 -2.18989 -3.3449 0
M  V30 6441 H 605.549 -1.38865 -4.00615 0
M  V30 6442 C 604.008 -0.0460484 -3.36869 0
M  V30 6443 O 604.538 0.909258 -3.91274 0
M  V30 6444 N 602.744 0.0300222 -2.90584 0
M  V30 6445 H 602.291 -0.748129 -2.46497 0
M  V30 6446 H 602.249 0.890991 -3.01511 0
M  V30 6447 N 606.021 0.929856 -1.27246 0
M  V30 6448 C 607.437 1.20542 -1.04603 0
M  V30 6449 C 607.637 2.00276 0.221754 0
M  V30 6450 O 606.693 2.34835 0.927833 0
M  V30 6451 C 608.006 1.95566 -2.28417 0
M  V30 6452 C 609.554 2.08513 -2.33433 0
M  V30 6453 C 610.029 2.86943 -3.5697 0
M  V30 6454 N 611.52 2.94512 -3.57515 0
M  V30 6455 C 612.255 3.55656 -4.49774 0
M  V30 6456 N 611.751 4.18209 -5.52334 0
M  V30 6457 N 613.544 3.53038 -4.37402 0
M  V30 6458 H 605.695 0.397113 -2.08655 0
M  V30 6459 H 607.958 0.238277 -0.917566 0
M  V30 6460 H 607.664 1.44395 -3.20691 0
M  V30 6461 H 607.538 2.9619 -2.33563 0
M  V30 6462 H 609.925 2.58872 -1.41666 0
M  V30 6463 H 610.006 1.07117 -2.32292 0
M  V30 6464 H 609.65 2.37268 -4.49072 0
M  V30 6465 H 609.58 3.8862 -3.55362 0
M  V30 6466 H 612.071 2.50053 -2.83341 0
M  V30 6467 H 612.384 4.62796 -6.18902 0
M  V30 6468 H 610.729 4.16761 -5.56179 0
M  V30 6469 H 613.92 3.0337 -3.56489 0
M  V30 6470 H 614.093 4.004 -5.09493 0
M  V30 6471 N 607.499 1.09233 1.13605 0
M  V30 6472 C 608.462 0.733553 2.17144 0
M  V30 6473 C 609.462 -0.235873 1.59061 0
M  V30 6474 O 610.652 -0.0143167 1.74194 0
M  V30 6475 C 607.784 0.084471 3.40795 0
M  V30 6476 H 608.977 1.65049 2.50397 0
M  V30 6477 H 606.53 0.891264 1.28399 0
M  V30 6478 H 607.265 -0.843795 3.1313 0
M  V30 6479 H 607.05 0.781985 3.84223 0
M  V30 6480 H 608.54 -0.151216 4.17326 0
M  V30 6481 N 608.977 -1.30795 0.87923 0
M  V30 6482 C 609.907 -2.30742 0.357796 0
M  V30 6483 C 610.888 -1.60747 -0.556283 0
M  V30 6484 O 612.073 -1.88393 -0.47135 0
M  V30 6485 C 609.203 -3.44583 -0.433555 0
M  V30 6486 C 608.157 -4.26235 0.388251 0
M  V30 6487 C 607.483 -5.32073 -0.529352 0
M  V30 6488 C 608.783 -4.96303 1.62729 0
M  V30 6489 H 610.477 -2.74605 1.19299 0
M  V30 6490 H 608.023 -1.32017 0.575104 0
M  V30 6491 H 609.976 -4.13563 -0.808934 0
M  V30 6492 H 608.7 -2.99511 -1.30234 0
M  V30 6493 H 607.359 -3.58936 0.745695 0
M  V30 6494 H 607.007 -4.83249 -1.39569 0
M  V30 6495 H 606.707 -5.87598 0.0166741 0
M  V30 6496 H 608.231 -6.0391 -0.901373 0
M  V30 6497 H 609.645 -5.5783 1.32283 0
M  V30 6498 H 608.042 -5.61666 2.11309 0
M  V30 6499 H 609.112 -4.22758 2.37494 0
M  V30 6500 N 610.455 -0.639598 -1.44038 0
M  V30 6501 C 611.418 0.0506628 -2.29144 0
M  V30 6502 C 612.418 0.764001 -1.41491 0
M  V30 6503 O 613.608 0.607309 -1.63271 0
M  V30 6504 C 610.74 1.0824 -3.2326 0
M  V30 6505 H 611.933 -0.697987 -2.91664 0
M  V30 6506 H 609.486 -0.400146 -1.51091 0
M  V30 6507 H 610.221 1.86075 -2.65606 0
M  V30 6508 H 610.006 0.574725 -3.87865 0
M  V30 6509 H 611.496 1.56487 -3.87171 0
M  V30 6510 N 611.933 1.52934 -0.380664 0
M  V30 6511 C 612.863 2.29118 0.450268 0
M  V30 6512 C 613.844 1.32153 1.07096 0
M  V30 6513 O 615.029 1.61038 1.08537 0
M  V30 6514 C 612.159 3.09161 1.58231 0
M  V30 6515 C 611.113 4.13938 1.0881 0
M  V30 6516 C 610.439 4.82153 2.31155 0
M  V30 6517 C 611.739 5.22048 0.162146 0
M  V30 6518 H 613.433 2.98826 -0.185361 0
M  V30 6519 H 610.979 1.43715 -0.0905886 0
M  V30 6520 H 612.932 3.61211 2.17036 0
M  V30 6521 H 611.656 2.3717 2.2454 0
M  V30 6522 H 610.315 3.62855 0.522633 0
M  V30 6523 H 609.963 4.06719 2.95953 0
M  V30 6524 H 609.663 5.52966 1.98752 0
M  V30 6525 H 611.187 5.37004 2.90618 0
M  V30 6526 H 612.601 5.6951 0.658126 0
M  V30 6527 H 610.998 6.00057 -0.0717122 0
M  V30 6528 H 612.068 4.78398 -0.791438 0
M  V30 6529 N 613.412 0.11024 1.57214 0
M  V30 6530 C 614.637 -0.561179 1.99664 0
M  V30 6531 C 615.062 -1.59985 0.989266 0
M  V30 6532 O 614.42 -1.81255 -0.0402399 0
M  V30 6533 C 614.468 -1.17189 3.41027 0
M  V30 6534 O 613.572 -2.28755 3.4314 0
M  V30 6535 H 612.913 -0.14101 0.648855 0
M  V30 6536 H 615.443 0.196128 2.03658 0
M  V30 6537 H 615.453 -1.50954 3.79047 0
M  V30 6538 H 614.128 -0.411041 4.13864 0
M  V30 6539 H 612.705 -1.96495 3.16929 0
M  V30 6540 N 614.89 -1.56749 -0.16351 0
M  V30 6541 C 616.306 -1.51043 -0.515567 0
M  V30 6542 C 616.506 -0.815855 -1.84245 0
M  V30 6543 O 615.562 -0.379477 -2.49632 0
M  V30 6544 C 616.875 -2.95791 -0.541114 0
M  V30 6545 C 618.423 -3.0664 -0.627776 0
M  V30 6546 C 618.898 -4.52861 -0.684141 0
M  V30 6547 N 620.389 -4.5714 -0.746818 0
M  V30 6548 C 621.124 -5.67634 -0.811137 0
M  V30 6549 N 620.62 -6.8774 -0.835811 0
M  V30 6550 N 622.413 -5.55624 -0.850756 0
M  V30 6551 H 614.564 -2.00307 0.70645 0
M  V30 6552 H 616.827 -0.912876 0.255659 0
M  V30 6553 H 616.533 -3.49797 0.365329 0
M  V30 6554 H 616.407 -3.50858 -1.38487 0
M  V30 6555 H 618.794 -2.52663 -1.52464 0
M  V30 6556 H 618.875 -2.54645 0.242805 0
M  V30 6557 H 618.519 -5.07472 0.2085 0
M  V30 6558 H 618.449 -5.02621 -1.57098 0
M  V30 6559 H 620.94 -3.70669 -0.735717 0
M  V30 6560 H 621.253 -7.67701 -0.886279 0
M  V30 6561 H 619.598 -6.90334 -0.803958 0
M  V30 6562 H 622.789 -4.60709 -0.828535 0
M  V30 6563 H 622.962 -6.41756 -0.897418 0
M  V30 6564 N 616.368 0.432326 -1.51554 0
M  V30 6565 C 617.598 1.2019 -1.68042 0
M  V30 6566 C 618.006 1.85356 -0.379434 0
M  V30 6567 O 617.349 1.71724 0.652427 0
M  V30 6568 C 617.411 2.32387 -2.74292 0
M  V30 6569 C 617.075 1.87548 -4.16743 0
M  V30 6570 C 618.072 1.37611 -5.01357 0
M  V30 6571 C 615.757 1.95087 -4.62868 0
M  V30 6572 C 617.751 0.958069 -6.30159 0
M  V30 6573 C 615.438 1.52894 -5.91664 0
M  V30 6574 C 616.436 1.03336 -6.75137 0
M  V30 6575 O 616.124 0.617435 -8.01525 0
M  V30 6576 H 615.856 0.368132 -0.56697 0
M  V30 6577 H 618.41 0.517875 -1.98764 0
M  V30 6578 H 616.64 3.04082 -2.38895 0
M  V30 6579 H 618.329 2.94235 -2.79608 0
M  V30 6580 H 619.095 1.31178 -4.66923 0
M  V30 6581 H 614.974 2.32606 -3.98015 0
M  V30 6582 H 618.518 0.570562 -6.95263 0
M  V30 6583 H 614.415 1.58999 -6.25611 0
M  V30 6584 H 615.183 0.742835 -8.15122 0
M  V30 6585 N 617.846 1.41785 0.688094 0
M  V30 6586 C 618.776 1.47 1.8142 0
M  V30 6587 C 619.757 0.327881 1.6691 0
M  V30 6588 O 620.942 0.540362 1.86531 0
M  V30 6589 C 618.072 1.35876 3.19617 0
M  V30 6590 C 617.026 2.47976 3.48844 0
M  V30 6591 C 616.352 2.21915 4.86475 0
M  V30 6592 C 617.652 3.90309 3.47068 0
M  V30 6593 H 619.346 2.41247 1.77314 0
M  V30 6594 H 616.892 1.16116 0.851651 0
M  V30 6595 H 618.845 1.38134 3.98117 0
M  V30 6596 H 617.569 0.38116 3.24368 0
M  V30 6597 H 616.228 2.45013 2.72698 0
M  V30 6598 H 615.876 1.2248 4.8786 0
M  V30 6599 H 615.576 2.97037 5.06994 0
M  V30 6600 H 617.1 2.25901 5.67275 0
M  V30 6601 H 618.514 3.94947 4.1556 0
M  V30 6602 H 616.911 4.65175 3.7912 0
M  V30 6603 H 617.981 4.17927 2.45896 0
M  V30 6604 N 619.324 -0.923095 1.27737 0
M  V30 6605 C 620.57 -1.67375 1.14514 0
M  V30 6606 C 620.903 -1.91751 -0.307424 0
M  V30 6607 O 620.178 -1.51119 -1.22447 0
M  V30 6608 C 620.461 -3.03745 1.9342 0
M  V30 6609 C 620.314 -2.86581 3.46686 0
M  V30 6610 C 621.633 -4.04144 1.74228 0
M  V30 6611 H 618.752 -0.607427 0.417374 0
M  V30 6612 H 621.394 -1.07089 1.56946 0
M  V30 6613 H 619.544 -3.55204 1.5736 0
M  V30 6614 H 621.216 -2.42203 3.92601 0
M  V30 6615 H 619.459 -2.21829 3.72793 0
M  V30 6616 H 620.13 -3.83381 3.97143 0
M  V30 6617 H 622.606 -3.61712 2.05678 0
M  V30 6618 H 621.482 -4.97543 2.31824 0
M  V30 6619 H 621.743 -4.36661 0.691373 0
M  V30 6620 N 620.802 -1.09834 -1.13024 0
M  V30 6621 C 622.079 -0.749225 -1.80682 0
M  V30 6622 C 622.459 0.765171 -1.96744 0
M  V30 6623 O 621.807 1.68912 -1.53886 0
M  V30 6624 C 622.017 -1.49311 -3.15448 0
M  V30 6625 C 623.365 -1.66162 -3.90737 0
M  V30 6626 O 624.389 -1.45597 -3.25085 0
M  V30 6627 O 623.248 -2.00211 -5.08505 0
M  V30 6628 H 620.342 -0.269614 -0.781817 0
M  V30 6629 H 622.888 -1.20078 -1.19914 0
M  V30 6630 H 621.66 -2.52407 -2.99009 0
M  V30 6631 H 621.283 -1.034 -3.8392 0
M  V30 6632 N 622.28 1.30327 -0.886154 0
M  V30 6633 C 623.19 2.31854 -0.357866 0
M  V30 6634 C 624.206 1.65392 0.540502 0
M  V30 6635 O 625.382 1.96683 0.433339 0
M  V30 6636 C 622.447 3.44171 0.417999 0
M  V30 6637 C 621.508 4.26257 -0.510263 0
M  V30 6638 C 620.741 5.3321 0.228669 0
M  V30 6639 O 620.964 5.51542 1.45458 0
M  V30 6640 O 619.898 6.0042 -0.421832 0
M  V30 6641 H 623.724 2.78995 -1.19982 0
M  V30 6642 H 621.309 1.34518 -0.650028 0
M  V30 6643 H 623.191 4.12588 0.857251 0
M  V30 6644 H 621.866 2.99164 1.23623 0
M  V30 6645 H 620.773 3.60533 -0.99835 0
M  V30 6646 H 622.106 4.74871 -1.29454 0
M  V30 6647 N 623.758 0.647228 1.43697 0
M  V30 6648 C 625.007 0.155552 2.01099 0
M  V30 6649 C 625.32 -1.23569 1.51624 0
M  V30 6650 O 626.526 -1.82226 2.01261 0
M  V30 6651 C 624.982 0.227296 3.59182 0
M  V30 6652 C 624.59 1.62086 4.17651 0
M  V30 6653 C 626.334 -0.207085 4.23995 0
M  V30 6654 C 624.241 1.64685 5.68008 0
M  V30 6655 H 623.171 0.0543895 0.752036 0
M  V30 6656 H 625.822 0.808386 1.64734 0
M  V30 6657 H 624.204 -0.492937 3.9292 0
M  V30 6658 H 625.378 2.36597 3.95422 0
M  V30 6659 H 623.693 2.0007 3.65186 0
M  V30 6660 H 626.29 -0.207426 5.34298 0
M  V30 6661 H 626.633 -1.23742 3.97484 0
M  V30 6662 H 627.166 0.461193 3.95118 0
M  V30 6663 H 623.905 2.65608 5.99277 0
M  V30 6664 H 623.425 0.944914 5.9231 0
M  V30 6665 H 625.104 1.38792 6.31938 0
M  V30 6666 N 625.236 -1.5273 0.388769 0
M  V30 6667 C 626.183 -2.26437 -0.446639 0
M  V30 6668 C 627.153 -1.28025 -1.05824 0
M  V30 6669 O 628.338 -1.56852 -1.08637 0
M  V30 6670 C 625.478 -3.07407 -1.56828 0
M  V30 6671 C 624.591 -4.20747 -0.979589 0
M  V30 6672 C 623.726 -4.89113 -2.07224 0
M  V30 6673 C 622.765 -5.94447 -1.45942 0
M  V30 6674 N 621.902 -6.56411 -2.49135 0
M  V30 6675 H 626.742 -2.97404 0.18837 0
M  V30 6676 H 624.279 -1.46727 0.104725 0
M  V30 6677 H 626.237 -3.52642 -2.22934 0
M  V30 6678 H 624.867 -2.3865 -2.17361 0
M  V30 6679 H 623.919 -3.7983 -0.208151 0
M  V30 6680 H 625.231 -4.9637 -0.491747 0
M  V30 6681 H 624.385 -5.3765 -2.81101 0
M  V30 6682 H 623.124 -4.13013 -2.59368 0
M  V30 6683 H 622.129 -5.4525 -0.705894 0
M  V30 6684 H 623.354 -6.7248 -0.945932 0
M  V30 6685 H 621.3 -5.83152 -3.00449 0
M  V30 6686 H 621.217 -7.27645 -2.05105 0
M  V30 6687 H 622.485 -7.09592 -3.22644 0
M  V30 6688 N 626.714 -0.118576 -1.57153 0
M  V30 6689 C 627.661 0.831789 -2.1529 0
M  V30 6690 C 628.631 1.26385 -1.07778 0
M  V30 6691 O 629.816 1.34144 -1.35684 0
M  V30 6692 C 626.956 2.07664 -2.75626 0
M  V30 6693 C 626.069 1.69298 -3.97444 0
M  V30 6694 C 625.204 2.88747 -4.45868 0
M  V30 6695 C 624.243 2.46619 -5.60219 0
M  V30 6696 N 623.38 3.5898 -6.03389 0
M  V30 6697 H 628.22 0.329183 -2.96176 0
M  V30 6698 H 625.757 0.150792 -1.46325 0
M  V30 6699 H 627.715 2.80601 -3.08738 0
M  V30 6700 H 626.345 2.55384 -1.97431 0
M  V30 6701 H 625.397 0.862374 -3.70496 0
M  V30 6702 H 626.709 1.34338 -4.80369 0
M  V30 6703 H 625.863 3.69909 -4.80887 0
M  V30 6704 H 624.602 3.26933 -3.61892 0
M  V30 6705 H 623.607 1.63889 -5.24805 0
M  V30 6706 H 624.832 2.0955 -6.45961 0
M  V30 6707 H 622.778 3.9684 -5.22354 0
M  V30 6708 H 622.695 3.27942 -6.81168 0
M  V30 6709 H 623.963 4.40583 -6.43045 0
M  V30 6710 N 628.193 1.56834 0.155195 0
M  V30 6711 C 629.609 1.51315 0.50755 0
M  V30 6712 C 629.809 0.825614 1.83809 0
M  V30 6713 O 628.865 0.39271 2.49427 0
M  V30 6714 C 630.178 2.96074 0.52542 0
M  V30 6715 C 631.726 3.06968 0.611505 0
M  V30 6716 C 632.201 4.53218 0.660115 0
M  V30 6717 N 633.692 4.5753 0.722564 0
M  V30 6718 C 634.427 5.68056 0.781023 0
M  V30 6719 N 633.923 6.88173 0.799327 0
M  V30 6720 N 635.716 5.56068 0.821278 0
M  V30 6721 H 627.867 1.9993 -0.717063 0
M  V30 6722 H 630.13 0.911507 -0.260496 0
M  V30 6723 H 629.836 3.49599 -0.383875 0
M  V30 6724 H 629.71 3.51587 1.36624 0
M  V30 6725 H 632.097 2.53468 1.51122 0
M  V30 6726 H 632.178 2.54513 -0.256306 0
M  V30 6727 H 631.822 5.07354 -0.23541 0
M  V30 6728 H 631.752 5.03447 1.5443 0
M  V30 6729 H 634.243 3.71054 0.716049 0
M  V30 6730 H 634.556 7.6816 0.845553 0
M  V30 6731 H 632.901 6.90751 0.767337 0
M  V30 6732 H 636.092 4.61142 0.804091 0
M  V30 6733 H 636.265 6.42223 0.863372 0
M  V30 6734 N 629.671 -0.424282 1.51781 0
M  V30 6735 C 630.581 -1.54087 1.76902 0
M  V30 6736 C 631.597 -1.61249 0.653826 0
M  V30 6737 O 632.773 -1.78247 0.937552 0
M  V30 6738 C 629.838 -2.8996 1.90063 0
M  V30 6739 C 628.899 -2.92809 3.13945 0
M  V30 6740 C 628.132 -4.22201 3.26469 0
M  V30 6741 O 628.355 -5.15286 2.44616 0
M  V30 6742 O 627.289 -4.31599 4.1953 0
M  V30 6743 H 631.115 -1.358 2.71647 0
M  V30 6744 H 628.7 -0.608618 1.36441 0
M  V30 6745 H 630.582 -3.70575 2.0063 0
M  V30 6746 H 629.257 -3.08347 0.985067 0
M  V30 6747 H 628.164 -2.11102 3.08847 0
M  V30 6748 H 629.497 -2.79369 4.05233 0
M  V30 6749 N 631.149 -1.42148 -0.680565 0
M  V30 6750 C 632.397 -1.42029 -1.43779 0
M  V30 6751 C 632.718 -0.0356347 -1.94967 0
M  V30 6752 O 631.988 0.924936 -1.7269 0
M  V30 6753 H 630.568 -0.522835 -0.533529 0
M  V30 6754 H 633.23 -1.7752 -0.804538 0
M  V30 6755 H 632.326 -2.11658 -2.29363 0
M  V30 6756 N 632.627 0.916307 -1.28225 0
M  V30 6757 C 633.874 1.66518 -1.1523 0
M  V30 6758 C 634.202 1.92178 0.299632 0
M  V30 6759 O 633.457 1.51842 1.2346 0
M  V30 6760 C 633.756 3.03125 -1.8934 0
M  V30 6761 C 633.422 2.97135 -3.39148 0
M  V30 6762 C 632.084 2.95208 -3.80007 0
M  V30 6763 C 634.436 2.87574 -4.34685 0
M  V30 6764 C 631.764 2.81518 -5.14747 0
M  V30 6765 C 634.116 2.75424 -5.69495 0
M  V30 6766 C 632.78 2.71854 -6.09632 0
M  V30 6767 H 632.05 0.609334 -0.421655 0
M  V30 6768 H 634.697 1.06776 -1.58969 0
M  V30 6769 H 633.002 3.66639 -1.38143 0
M  V30 6770 H 634.699 3.59968 -1.76704 0
M  V30 6771 H 631.289 2.99428 -3.06661 0
M  V30 6772 H 635.473 2.88152 -4.04082 0
M  V30 6773 H 630.729 2.77148 -5.44976 0
M  V30 6774 H 634.903 2.66993 -6.43185 0
M  V30 6775 H 632.53 2.61003 -7.1399 0
M  V30 6776 N 634.105 1.10431 1.1244 0
M  V30 6777 C 635.052 0.753103 2.18167 0
M  V30 6778 C 636.022 -0.270549 1.63882 0
M  V30 6779 O 637.207 -0.149837 1.90211 0
M  V30 6780 C 634.347 0.191046 3.44571 0
M  V30 6781 C 633.46 1.26999 4.12911 0
M  V30 6782 C 632.595 0.669586 5.26963 0
M  V30 6783 C 631.634 1.72912 5.87169 0
M  V30 6784 N 630.771 1.14898 6.92635 0
M  V30 6785 H 635.611 1.65892 2.47556 0
M  V30 6786 H 633.148 0.828631 1.21541 0
M  V30 6787 H 635.106 -0.152712 4.1692 0
M  V30 6788 H 633.736 -0.677997 3.15599 0
M  V30 6789 H 632.788 1.73087 3.3874 0
M  V30 6790 H 634.1 2.07204 4.53727 0
M  V30 6791 H 633.254 0.275274 6.06075 0
M  V30 6792 H 631.993 -0.163895 4.87425 0
M  V30 6793 H 630.998 2.13286 5.06744 0
M  V30 6794 H 632.223 2.56544 6.28778 0
M  V30 6795 H 630.169 0.336956 6.55134 0
M  V30 6796 H 630.086 1.88786 7.32049 0
M  V30 6797 H 631.354 0.78121 7.75576 0
M  V30 6798 N 635.583 -1.29855 0.893053 0
M  V30 6799 C 636.513 -2.3035 0.382249 0
M  V30 6800 C 637.494 -1.61328 -0.539203 0
M  V30 6801 O 638.679 -1.88882 -0.451342 0
M  V30 6802 C 635.809 -3.45024 -0.396983 0
M  V30 6803 C 634.763 -4.258 0.433437 0
M  V30 6804 C 634.089 -5.32605 -0.472889 0
M  V30 6805 C 635.389 -4.94549 1.67984 0
M  V30 6806 H 637.083 -2.73325 1.22205 0
M  V30 6807 H 634.629 -1.314 0.589073 0
M  V30 6808 H 636.582 -4.14398 -0.765024 0
M  V30 6809 H 635.306 -3.00875 -1.2705 0
M  V30 6810 H 633.965 -3.58125 0.783723 0
M  V30 6811 H 633.613 -4.84702 -1.34435 0
M  V30 6812 H 633.313 -5.87547 0.0789958 0
M  V30 6813 H 634.837 -6.04832 -0.837269 0
M  V30 6814 H 636.251 -5.56395 1.38192 0
M  V30 6815 H 634.648 -5.59393 2.17254 0
M  V30 6816 H 635.718 -4.20215 2.41965 0
M  V30 6817 N 637.061 -0.65484 -1.43351 0
M  V30 6818 C 637.991 0.0221809 -2.33489 0
M  V30 6819 C 638.972 0.810272 -1.49561 0
M  V30 6820 O 640.157 0.771426 -1.78221 0
M  V30 6821 C 637.287 0.988117 -3.32947 0
M  V30 6822 C 636.241 0.310026 -4.26876 0
M  V30 6823 C 635.567 1.38752 -5.16384 0
M  V30 6824 C 636.867 -0.798589 -5.16159 0
M  V30 6825 H 638.561 -0.730571 -2.9035 0
M  V30 6826 H 636.107 -0.352773 -1.39612 0
M  V30 6827 H 638.06 1.47067 -3.94904 0
M  V30 6828 H 636.784 1.77205 -2.74346 0
M  V30 6829 H 635.443 -0.152097 -3.66284 0
M  V30 6830 H 635.091 2.16293 -4.54121 0
M  V30 6831 H 634.791 0.939051 -5.80048 0
M  V30 6832 H 636.315 1.87141 -5.81215 0
M  V30 6833 H 637.729 -0.398126 -5.71916 0
M  V30 6834 H 636.126 -1.17163 -5.88552 0
M  V30 6835 H 637.196 -1.65588 -4.55751 0
M  V30 6836 N 638.539 1.52521 -0.396863 0
M  V30 6837 C 639.472 2.23118 0.478926 0
M  V30 6838 C 640.45 1.23475 1.05796 0
M  V30 6839 O 641.634 1.52486 1.10817 0
M  V30 6840 C 638.761 2.95028 1.66362 0
M  V30 6841 C 637.807 4.09002 1.20913 0
M  V30 6842 S 638.64 5.35182 0.184407 0
M  V30 6843 C 639.796 6.10616 1.37471 0
M  V30 6844 H 640.029 2.97056 -0.120542 0
M  V30 6845 H 637.562 1.53334 -0.18109 0
M  V30 6846 H 639.52 3.37066 2.34301 0
M  V30 6847 H 638.181 2.20756 2.23441 0
M  V30 6848 H 637.374 4.58445 2.09389 0
M  V30 6849 H 636.976 3.69016 0.608559 0
M  V30 6850 H 639.268 6.37247 2.30048 0
M  V30 6851 H 640.211 7.02084 0.921051 0
M  V30 6852 H 640.619 5.41499 1.59495 0
M  V30 6853 N 640.017 0.126909 1.57088 0
M  V30 6854 C 640.927 -0.833867 2.1928 0
M  V30 6855 C 641.943 -1.2868 1.17122 0
M  V30 6856 O 643.119 -1.34815 1.49622 0
M  V30 6857 C 640.184 -2.0632 2.78627 0
M  V30 6858 C 639.245 -1.66143 3.95847 0
M  V30 6859 C 638.478 -2.83217 4.52354 0
M  V30 6860 O 638.701 -3.98868 4.0775 0
M  V30 6861 O 637.635 -2.59846 5.42922 0
M  V30 6862 H 641.461 -0.334564 3.01852 0
M  V30 6863 H 639.046 -0.0991091 1.49071 0
M  V30 6864 H 640.928 -2.78304 3.16425 0
M  V30 6865 H 639.603 -2.55242 1.99082 0
M  V30 6866 H 638.51 -0.912435 3.62802 0
M  V30 6867 H 639.843 -1.21957 4.76852 0
M  V30 6868 N 641.495 -1.56914 -0.146875 0
M  V30 6869 C 642.906 -1.72799 -0.706928 0
M  V30 6870 C 643.257 -0.741329 -1.81656 0
M  V30 6871 O 642.382 0.0920162 -2.16204 0
M  V30 6872 C 642.977 -3.13317 -1.28911 0
M  V30 6873 C 641.536 -3.30803 -1.79573 0
M  V30 6874 C 640.683 -2.68725 -0.684252 0
M  V30 6875 H 643.634 -1.58504 0.0787931 0
M  V30 6876 H 643.655 -3.13323 -2.15891 0
M  V30 6877 H 643.167 -3.85104 -0.481284 0
M  V30 6878 H 641.268 -2.64012 -2.62923 0
M  V30 6879 H 641.381 -4.38754 -1.92436 0
M  V30 6880 H 639.745 -2.29196 -1.11091 0
M  V30 6881 H 640.528 -3.43117 0.112134 0
M  V30 6882 N 642.974 0.416227 -1.52004 0
M  V30 6883 C 643.884 1.53147 -1.77717 0
M  V30 6884 C 644.9 1.609 -0.662368 0
M  V30 6885 O 646.076 1.77747 -0.946991 0
M  V30 6886 C 643.141 2.88948 -1.91598 0
M  V30 6887 C 642.202 2.9114 -3.15493 0
M  V30 6888 C 641.435 4.20464 -3.28703 0
M  V30 6889 O 641.658 5.13981 -2.47345 0
M  V30 6890 O 640.592 4.29368 -4.21813 0
M  V30 6891 H 644.418 1.34357 -2.72363 0
M  V30 6892 H 642.003 0.601373 -1.36762 0
M  V30 6893 H 643.885 3.69505 -2.02593 0
M  V30 6894 H 642.56 3.07821 -1.00141 0
M  V30 6895 H 641.467 2.09461 -3.09962 0
M  V30 6896 H 642.8 2.77216 -4.06709 0
M  V30 6897 N 644.452 1.42507 0.673017 0
M  V30 6898 C 645.682 1.46261 1.45916 0
M  V30 6899 C 646.09 0.0729724 1.89059 0
M  V30 6900 O 645.433 -0.922987 1.58829 0
M  V30 6901 C 645.495 2.32853 2.73898 0
M  V30 6902 C 645.159 3.80699 2.52819 0
M  V30 6903 C 646.156 4.72307 2.17306 0
M  V30 6904 C 643.841 4.24983 2.67758 0
M  V30 6905 C 645.835 6.06192 1.97003 0
M  V30 6906 C 643.522 5.58927 2.4707 0
M  V30 6907 C 644.52 6.49348 2.11746 0
M  V30 6908 O 644.208 7.80817 1.91259 0
M  V30 6909 H 643.94 0.499561 0.455428 0
M  V30 6910 H 646.494 1.87697 0.834196 0
M  V30 6911 H 644.724 1.86268 3.38882 0
M  V30 6912 H 646.413 2.28041 3.35786 0
M  V30 6913 H 647.179 4.39378 2.05359 0
M  V30 6914 H 643.058 3.54893 2.94231 0
M  V30 6915 H 646.602 6.76731 1.69355 0
M  V30 6916 H 642.499 5.91429 2.58615 0
M  V30 6917 H 643.267 7.92194 2.05843 0
M  V30 6918 N 645.93 -0.909495 1.28709 0
M  V30 6919 C 646.893 -1.99399 1.13016 0
M  V30 6920 C 647.893 -1.60654 0.068536 0
M  V30 6921 O 649.083 -1.71334 0.314671 0
M  V30 6922 C 646.215 -3.33078 0.726085 0
M  V30 6923 H 647.408 -2.14751 2.09338 0
M  V30 6924 H 644.961 -1.09272 1.11756 0
M  V30 6925 H 645.696 -3.23428 -0.23771 0
M  V30 6926 H 645.481 -3.62562 1.49302 0
M  V30 6927 H 646.971 -4.12681 0.639058 0
M  V30 6928 N 647.408 -1.11026 -1.11852 0
M  V30 6929 C 648.356 -0.759643 -2.19846 0
M  V30 6930 C 649.35 0.246964 -1.6759 0
M  V30 6931 O 650.556 0.106693 -1.79684 0
M  V30 6932 H 646.931 -0.22775 -0.716683 0
M  V30 6933 H 648.902 -1.6792 -2.46669 0
M  V30 6934 C 647.651 -0.214364 -3.47039 0
M  V30 6935 H 646.974 -0.980175 -3.87599 0
M  V30 6936 H 648.414 -0.00717047 -4.23999 0
M  V30 6937 C 646.873 1.05436 -3.19976 0
M  V30 6938 O 647.403 2.13483 -3.40276 0
M  V30 6939 N 645.609 0.975436 -2.7374 0
M  V30 6940 H 645.156 0.0960853 -2.57421 0
M  V30 6941 H 645.114 1.82501 -2.5601 0
M  V30 6942 N 648.886 1.2938 -0.899927 0
M  V30 6943 C 650.135 1.9483 -0.521937 0
M  V30 6944 C 650.448 1.71725 0.936473 0
M  V30 6945 O 651.654 2.31282 1.42199 0
M  V30 6946 C 650.11 3.48911 -0.88255 0
M  V30 6947 C 649.718 3.80815 -2.35974 0
M  V30 6948 C 651.462 4.20595 -0.57448 0
M  V30 6949 C 649.369 5.28142 -2.66121 0
M  V30 6950 H 648.299 0.729285 -0.191468 0
M  V30 6951 H 650.95 1.47103 -1.09695 0
M  V30 6952 H 649.332 3.95293 -0.236459 0
M  V30 6953 H 650.506 3.45291 -3.05141 0
M  V30 6954 H 648.821 3.22271 -2.63686 0
M  V30 6955 H 651.418 5.29031 -0.776556 0
M  V30 6956 H 651.761 4.13442 0.487005 0
M  V30 6957 H 652.294 3.79945 -1.17842 0
M  V30 6958 H 649.033 5.4036 -3.71068 0
M  V30 6959 H 648.553 5.64913 -2.01578 0
M  V30 6960 H 650.232 5.95738 -2.52399 0
M  V30 6961 N 650.364 0.662433 1.43002 0
M  V30 6962 C 651.604 0.183312 2.03576 0
M  V30 6963 C 651.968 -1.18354 1.51183 0
M  V30 6964 O 653.169 -1.7566 2.03462 0
M  V30 6965 C 651.44 0.202908 3.56824 0
M  V30 6966 S 652.999 -0.20702 4.38311 0
M  V30 6967 H 649.817 0.0765001 0.706872 0
M  V30 6968 H 652.419 0.872827 1.74934 0
M  V30 6969 H 651.123 1.20028 3.92456 0
M  V30 6970 H 650.654 -0.506845 3.90121 0
M  V30 6971 H 652.669 -1.44358 4.74737 0
M  V30 6972 N 651.842 -1.52309 0.404946 0
M  V30 6973 C 653.089 -2.01767 -0.1722 0
M  V30 6974 C 653.417 -1.29075 -1.45498 0
M  V30 6975 O 652.672 -0.3843 -1.9189 0
M  V30 6976 C 652.971 -3.54284 -0.470895 0
M  V30 6977 C 652.637 -4.45079 0.722194 0
M  V30 6978 C 651.299 -4.69617 1.04946 0
M  V30 6979 C 653.651 -4.98555 1.51962 0
M  V30 6980 C 650.979 -5.44878 2.17543 0
M  V30 6981 C 653.331 -5.75049 2.63632 0
M  V30 6982 C 651.995 -5.9786 2.9685 0
M  V30 6983 H 651.265 -0.738316 -0.0630125 0
M  V30 6984 H 653.912 -1.83566 0.545506 0
M  V30 6985 H 652.217 -3.70642 -1.27012 0
M  V30 6986 H 653.914 -3.90058 -0.930346 0
M  V30 6987 H 650.504 -4.26155 0.457131 0
M  V30 6988 H 654.688 -4.79509 1.28002 0
M  V30 6989 H 649.944 -5.60762 2.43631 0
M  V30 6990 H 654.118 -6.15483 3.25813 0
M  V30 6991 H 651.745 -6.5596 3.84215 0
M  V30 6992 N 653.32 -0.135238 -1.57019 0
M  V30 6993 C 654.566 0.513232 -1.96818 0
M  V30 6994 C 654.921 1.63245 -1.01827 0
M  V30 6995 O 654.214 1.91532 -0.0511756 0
M  V30 6996 C 654.408 1.07694 -3.40788 0
M  V30 6997 C 654.237 0.0138667 -4.49698 0
M  V30 6998 C 653.007 -0.423532 -5.03522 0
M  V30 6999 C 655.205 -0.77322 -5.08454 0
M  V30 7000 N 653.187 -1.47068 -5.96024 0
M  V30 7001 C 654.558 -1.67115 -5.97053 0
M  V30 7002 C 656.613 -0.822313 -4.91063 0
M  V30 7003 C 655.316 -2.61395 -6.70123 0
M  V30 7004 C 657.342 -1.75288 -5.64826 0
M  V30 7005 C 656.704 -2.63836 -6.53123 0
M  V30 7006 H 652.803 0.156956 -0.766087 0
M  V30 7007 H 655.387 -0.227118 -1.93371 0
M  V30 7008 H 653.558 1.78694 -3.44852 0
M  V30 7009 H 655.29 1.69106 -3.67675 0
M  V30 7010 H 652.045 -0.0280202 -4.73592 0
M  V30 7011 H 652.469 -1.99366 -6.46979 0
M  V30 7012 H 657.111 -0.151822 -4.22527 0
M  V30 7013 H 654.829 -3.2945 -7.37895 0
M  V30 7014 H 658.415 -1.79652 -5.53368 0
M  V30 7015 H 657.295 -3.34672 -7.092 0
M  V30 7016 N 654.798 1.5699 0.138552 0
M  V30 7017 C 656.028 1.87704 0.863184 0
M  V30 7018 C 656.436 0.722411 1.74865 0
M  V30 7019 O 655.779 -0.316636 1.80951 0
M  V30 7020 C 655.841 3.13219 1.76449 0
M  V30 7021 C 655.505 4.44648 1.05532 0
M  V30 7022 C 656.502 5.18318 0.405252 0
M  V30 7023 C 654.187 4.91367 1.04231 0
M  V30 7024 C 656.181 6.36916 -0.24835 0
M  V30 7025 C 653.868 6.09887 0.384904 0
M  V30 7026 C 654.866 6.82508 -0.259292 0
M  V30 7027 O 654.554 7.98775 -0.906258 0
M  V30 7028 H 654.286 0.626255 0.254521 0
M  V30 7029 H 656.84 2.04966 0.133472 0
M  V30 7030 H 655.07 2.91988 2.53535 0
M  V30 7031 H 656.759 3.30111 2.36181 0
M  V30 7032 H 657.525 4.83289 0.407053 0
M  V30 7033 H 653.404 4.34759 1.53315 0
M  V30 7034 H 656.948 6.93538 -0.751755 0
M  V30 7035 H 652.845 6.44376 0.380799 0
M  V30 7036 H 653.613 8.14494 -0.80877 0
M  V30 7037 N 656.276 -0.40816 1.52223 0
M  V30 7038 C 657.525 -1.15212 1.65557 0
M  V30 7039 C 657.838 -1.9163 0.392096 0
M  V30 7040 O 659.044 -2.68458 0.405256 0
M  V30 7041 C 657.5 -2.09691 2.92502 0
M  V30 7042 C 657.108 -1.38785 4.25961 0
M  V30 7043 C 658.852 -2.8434 3.152 0
M  V30 7044 C 656.759 -2.31919 5.44029 0
M  V30 7045 H 655.689 -0.433776 0.616729 0
M  V30 7046 H 658.34 -0.4165 1.78711 0
M  V30 7047 H 656.722 -2.8681 2.7305 0
M  V30 7048 H 657.896 -0.670248 4.55899 0
M  V30 7049 H 656.211 -0.761741 4.09373 0
M  V30 7050 H 658.808 -3.54166 4.00587 0
M  V30 7051 H 659.151 -3.47344 2.29473 0
M  V30 7052 H 659.684 -2.14321 3.35129 0
M  V30 7053 H 656.423 -1.7356 6.32105 0
M  V30 7054 H 655.943 -3.0165 5.18428 0
M  V30 7055 H 657.622 -2.92424 5.77146 0
M  V30 7056 N 657.755 -1.42862 -0.66545 0
M  V30 7057 C 659.166 -1.3901 -1.24632 0
M  V30 7058 C 659.517 -0.0880285 -1.96002 0
M  V30 7059 O 658.642 0.812947 -2.0055 0
M  V30 7060 C 659.237 -2.51806 -2.2667 0
M  V30 7061 C 657.796 -2.51257 -2.80262 0
M  V30 7062 C 656.943 -2.30124 -1.5472 0
M  V30 7063 H 659.894 -1.5194 -0.458237 0
M  V30 7064 H 659.915 -2.22593 -3.08598 0
M  V30 7065 H 659.427 -3.46558 -1.74697 0
M  V30 7066 H 657.528 -1.60349 -3.36332 0
M  V30 7067 H 657.641 -3.48614 -3.28641 0
M  V30 7068 H 656.005 -1.7856 -1.81627 0
M  V30 7069 H 656.788 -3.26945 -1.04699 0
M  V30 7070 N 659.233 0.902656 -1.29189 0
M  V30 7071 C 660.644 1.46809 -1.15343 0
M  V30 7072 C 660.995 1.94568 0.252517 0
M  V30 7073 O 660.12 1.83454 1.14777 0
M  V30 7074 C 660.715 2.66829 -2.08776 0
M  V30 7075 C 659.274 3.19518 -1.98961 0
M  V30 7076 C 658.421 1.92212 -1.99874 0
M  V30 7077 H 661.372 0.714282 -1.41717 0
M  V30 7078 H 661.393 3.42465 -1.65826 0
M  V30 7079 H 660.905 2.32039 -3.11094 0
M  V30 7080 H 659.006 3.59008 -0.99721 0
M  V30 7081 H 659.119 3.84016 -2.86477 0
M  V30 7082 H 657.483 2.0979 -1.44431 0
M  V30 7083 H 658.266 1.59702 -3.03891 0
M  V30 7084 N 660.711 1.11618 1.11262 0
M  V30 7085 C 661.936 0.889013 1.8738 0
M  V30 7086 C 662.361 -0.555884 1.79698 0
M  V30 7087 O 661.719 -1.39272 1.16073 0
M  V30 7088 C 661.767 1.35759 3.34069 0
M  V30 7089 O 660.871 0.530499 4.08974 0
M  V30 7090 H 660.212 0.320082 0.581759 0
M  V30 7091 H 662.742 1.48611 1.40627 0
M  V30 7092 H 662.752 1.35291 3.84916 0
M  V30 7093 H 661.427 2.40973 3.38976 0
M  V30 7094 H 660.004 0.601439 3.68018 0
M  V30 7095 N 662.189 -1.289 0.906776 0
M  V30 7096 C 663.119 -2.29932 0.406659 0
M  V30 7097 C 664.1 -1.6189 -0.522061 0
M  V30 7098 O 665.285 -1.8935 -0.431283 0
M  V30 7099 C 662.415 -3.45425 -0.360366 0
M  V30 7100 C 661.369 -4.25316 0.478574 0
M  V30 7101 C 660.695 -5.33076 -0.416373 0
M  V30 7102 C 661.995 -4.92739 1.7322 0
M  V30 7103 H 663.689 -2.72013 1.25097 0
M  V30 7104 H 661.235 -1.30768 0.602977 0
M  V30 7105 H 663.188 -4.15186 -0.721029 0
M  V30 7106 H 661.912 -3.02206 -1.23852 0
M  V30 7107 H 660.571 -3.57273 0.821662 0
M  V30 7108 H 660.219 -4.86101 -1.29287 0
M  V30 7109 H 659.919 -5.8743 0.141309 0
M  V30 7110 H 661.443 -6.05686 -0.773072 0
M  V30 7111 H 662.857 -5.54898 1.44086 0
M  V30 7112 H 661.254 -5.57057 2.23175 0
M  V30 7113 H 662.324 -4.17625 2.46408 0
M  V30 7114 N 663.667 -0.670007 -1.42649 0
M  V30 7115 C 665.083 -0.33911 -1.55956 0
M  V30 7116 C 665.283 1.1558 -1.65056 0
M  V30 7117 O 664.339 1.94111 -1.61485 0
M  V30 7118 C 665.652 -1.06522 -2.812 0
M  V30 7119 C 667.2 -1.04708 -2.94966 0
M  V30 7120 C 667.675 -1.75442 -4.23065 0
M  V30 7121 N 669.166 -1.72286 -4.29967 0
M  V30 7122 C 669.901 -2.23877 -5.27889 0
M  V30 7123 N 669.397 -2.83829 -6.31991 0
M  V30 7124 N 671.19 -2.14279 -5.19654 0
M  V30 7125 H 663.341 -1.6399 -1.34986 0
M  V30 7126 H 665.604 -0.690603 -0.649439 0
M  V30 7127 H 665.31 -2.12033 -2.80597 0
M  V30 7128 H 665.184 -0.627398 -3.71946 0
M  V30 7129 H 667.571 -0.000315966 -2.951 0
M  V30 7130 H 667.652 -1.52374 -2.05465 0
M  V30 7131 H 667.296 -2.80084 -4.23693 0
M  V30 7132 H 667.226 -1.25229 -5.11493 0
M  V30 7133 H 669.717 -1.28554 -3.55362 0
M  V30 7134 H 670.03 -3.20827 -7.03057 0
M  V30 7135 H 668.375 -2.87896 -6.32567 0
M  V30 7136 H 671.566 -1.67135 -4.37245 0
M  V30 7137 H 671.739 -2.54792 -5.95806 0
M  V30 7138 N 665.145 1.52092 -0.413018 0
M  V30 7139 C 666.055 2.30858 0.417318 0
M  V30 7140 C 667.071 1.38746 1.05003 0
M  V30 7141 O 668.247 1.71821 1.05069 0
M  V30 7142 C 665.312 3.11756 1.51687 0
M  V30 7143 C 664.373 4.19613 0.906825 0
M  V30 7144 C 663.606 4.96644 1.95399 0
M  V30 7145 O 663.829 4.7402 3.17271 0
M  V30 7146 O 662.763 5.81385 1.55805 0
M  V30 7147 H 666.589 3.02865 -0.225028 0
M  V30 7148 H 664.174 1.48358 -0.176126 0
M  V30 7149 H 666.056 3.62122 2.15512 0
M  V30 7150 H 664.731 2.42539 2.14375 0
M  V30 7151 H 663.638 3.73385 0.231183 0
M  V30 7152 H 664.971 4.91134 0.323814 0
M  V30 7153 N 666.623 0.143563 1.56945 0
M  V30 7154 C 667.556 -0.835367 2.1236 0
M  V30 7155 C 668.534 -1.24466 1.04627 0
M  V30 7156 O 669.718 -1.34138 1.32436 0
M  V30 7157 C 666.845 -2.12123 2.64048 0
M  V30 7158 C 665.891 -1.85812 3.83896 0
M  V30 7159 S 666.724 -1.05222 5.25061 0
M  V30 7160 C 667.88 -2.34935 5.80135 0
M  V30 7161 H 668.113 -0.364109 2.95062 0
M  V30 7162 H 665.646 -0.0706601 1.54238 0
M  V30 7163 H 667.604 -2.85993 2.94479 0
M  V30 7164 H 666.265 -2.56364 1.81483 0
M  V30 7165 H 665.458 -2.81151 4.18294 0
M  V30 7166 H 665.06 -1.20052 3.54208 0
M  V30 7167 H 667.352 -3.3061 5.91357 0
M  V30 7168 H 668.295 -2.05046 6.77762 0
M  V30 7169 H 668.703 -2.45426 5.08356 0
M  V30 7170 N 668.101 -1.57061 -0.130224 0
M  V30 7171 C 669.011 -2.02802 -1.17934 0
M  V30 7172 C 670.027 -0.946378 -1.46013 0
M  V30 7173 O 671.203 -1.25708 -1.57351 0
M  V30 7174 C 668.268 -2.41368 -2.48882 0
M  V30 7175 C 667.329 -3.63561 -2.28301 0
M  V30 7176 C 666.562 -4.00279 -3.53005 0
M  V30 7177 O 666.785 -3.37463 -4.59864 0
M  V30 7178 O 665.719 -4.93441 -3.44673 0
M  V30 7179 H 669.545 -2.92394 -0.820958 0
M  V30 7180 H 667.13 -1.45475 -0.340197 0
M  V30 7181 H 669.012 -2.66958 -3.26054 0
M  V30 7182 H 667.687 -1.54926 -2.84217 0
M  V30 7183 H 666.594 -3.43136 -1.49025 0
M  V30 7184 H 667.927 -4.50673 -1.97875 0
M  V30 7185 N 669.579 0.400081 -1.52437 0
M  V30 7186 C 670.489 1.51253 -1.79331 0
M  V30 7187 C 671.505 1.60188 -0.679396 0
M  V30 7188 O 672.681 1.76733 -0.965791 0
M  V30 7189 C 669.746 2.869 -1.94652 0
M  V30 7190 C 668.807 2.87777 -3.18564 0
M  V30 7191 C 668.04 4.16954 -3.33145 0
M  V30 7192 O 668.263 5.11329 -2.52783 0
M  V30 7193 O 667.197 4.2487 -4.26343 0
M  V30 7194 H 671.023 1.31461 -2.73773 0
M  V30 7195 H 668.608 0.586834 -1.37392 0
M  V30 7196 H 670.49 3.67336 -2.065 0
M  V30 7197 H 669.165 3.06741 -1.034 0
M  V30 7198 H 668.072 2.06162 -3.12167 0
M  V30 7199 H 669.405 2.72886 -4.09627 0
M  V30 7200 N 671.057 1.43213 0.657864 0
M  V30 7201 C 672.305 1.44298 1.41501 0
M  V30 7202 C 672.626 0.0666478 1.94886 0
M  V30 7203 O 671.896 -0.897345 1.74139 0
M  V30 7204 H 670.476 0.531257 0.525143 0
M  V30 7205 H 673.138 1.78777 0.776195 0
M  V30 7206 H 672.234 2.1528 2.25966 0
M  V30 7207 N 672.536 -0.895792 1.29666 0
M  V30 7208 C 673.947 -1.46195 1.1612 0
M  V30 7209 C 674.298 -1.94699 -0.242195 0
M  V30 7210 O 673.423 -1.8406 -1.13802 0
M  V30 7211 C 674.018 -2.65718 2.10189 0
M  V30 7212 C 672.577 -3.18458 2.00653 0
M  V30 7213 C 671.724 -1.91149 2.00891 0
M  V30 7214 H 674.675 -0.706756 1.42094 0
M  V30 7215 H 674.696 -3.4158 1.6764 0
M  V30 7216 H 674.208 -2.30386 3.12321 0
M  V30 7217 H 672.309 -3.58474 1.01623 0
M  V30 7218 H 672.422 -3.82491 2.88509 0
M  V30 7219 H 670.786 -2.09021 1.45542 0
M  V30 7220 H 671.569 -1.58089 3.04734 0
M  V30 7221 N 674.014 -1.12206 -1.10668 0
M  V30 7222 C 674.924 -0.800686 -2.20513 0
M  V30 7223 C 675.94 0.209512 -1.72734 0
M  V30 7224 O 677.116 0.043705 -2.01353 0
M  V30 7225 C 674.181 -0.257353 -3.45744 0
M  V30 7226 C 673.242 -1.32718 -4.0827 0
M  V30 7227 C 672.475 -0.809674 -5.27522 0
M  V30 7228 O 672.698 0.35742 -5.69279 0
M  V30 7229 O 671.632 -1.57816 -5.80842 0
M  V30 7230 H 675.458 -1.71807 -2.50432 0
M  V30 7231 H 673.043 -0.898546 -1.19359 0
M  V30 7232 H 674.925 0.0408849 -4.2138 0
M  V30 7233 H 673.6 0.632627 -3.17458 0
M  V30 7234 H 672.507 -1.67855 -3.34329 0
M  V30 7235 H 673.84 -2.19083 -4.40753 0
M  V30 7236 N 675.492 1.28418 -0.913599 0
M  V30 7237 C 676.739 1.94981 -0.546674 0
M  V30 7238 C 677.067 1.7192 0.909606 0
M  V30 7239 O 676.322 1.03314 1.66207 0
M  V30 7240 C 676.621 3.48283 -0.802099 0
M  V30 7241 C 676.287 3.91444 -2.2379 0
M  V30 7242 C 674.949 4.02939 -2.63046 0
M  V30 7243 C 677.301 4.13542 -3.17227 0
M  V30 7244 C 674.629 4.3391 -3.94891 0
M  V30 7245 C 676.981 4.45992 -4.48636 0
M  V30 7246 C 675.645 4.55698 -4.87746 0
M  V30 7247 H 674.915 0.713487 -0.200042 0
M  V30 7248 H 677.562 1.52756 -1.15489 0
M  V30 7249 H 675.867 3.91643 -0.111076 0
M  V30 7250 H 677.564 3.97903 -0.497375 0
M  V30 7251 H 674.154 3.83024 -1.9233 0
M  V30 7252 H 678.338 4.04114 -2.88107 0
M  V30 7253 H 673.594 4.39631 -4.24894 0
M  V30 7254 H 677.768 4.62038 -5.21051 0
M  V30 7255 H 675.395 4.79451 -5.89942 0
M  V30 7256 N 676.97 0.677563 1.42291 0
M  V30 7257 C 678.216 0.209962 2.02313 0
M  V30 7258 C 678.571 -1.1714 1.52631 0
M  V30 7259 O 677.864 -1.7756 0.719938 0
M  V30 7260 C 678.058 0.187229 3.56909 0
M  V30 7261 C 677.887 1.56484 4.21595 0
M  V30 7262 C 676.657 2.16329 4.56651 0
M  V30 7263 C 678.855 2.50805 4.49 0
M  V30 7264 N 676.837 3.46842 5.06531 0
M  V30 7265 C 678.208 3.65976 5.00461 0
M  V30 7266 C 680.263 2.493 4.30992 0
M  V30 7267 C 678.966 4.79899 5.35807 0
M  V30 7268 C 680.992 3.62322 4.67415 0
M  V30 7269 C 680.354 4.76221 5.19031 0
M  V30 7270 H 676.453 0.121815 0.772454 0
M  V30 7271 H 679.037 0.891148 1.73109 0
M  V30 7272 H 677.208 -0.46338 3.85626 0
M  V30 7273 H 678.94 -0.293512 4.03634 0
M  V30 7274 H 675.695 1.6879 4.42501 0
M  V30 7275 H 676.119 4.13694 5.35898 0
M  V30 7276 H 680.761 1.62467 3.90339 0
M  V30 7277 H 678.479 5.67406 5.75392 0
M  V30 7278 H 682.065 3.62388 4.55155 0
M  V30 7279 H 680.945 5.62228 5.46689 0
M  V30 7280 N 678.448 -1.51871 0.421078 0
M  V30 7281 C 679.411 -2.25914 -0.386712 0
M  V30 7282 C 680.411 -1.28733 -0.963555 0
M  V30 7283 O 681.601 -1.52579 -0.840556 0
M  V30 7284 C 678.733 -3.03853 -1.54551 0
M  V30 7285 H 679.926 -2.98754 0.261978 0
M  V30 7286 H 677.479 -1.5533 0.173862 0
M  V30 7287 H 678.214 -2.35392 -2.23072 0
M  V30 7288 H 677.999 -3.75215 -1.13824 0
M  V30 7289 H 679.489 -3.59984 -2.11663 0
M  V30 7290 N 679.926 -0.151884 -1.56866 0
M  V30 7291 C 680.873 0.785936 -2.17006 0
M  V30 7292 C 681.843 1.2407 -1.10435 0
M  V30 7293 O 683.028 1.31235 -1.38499 0
M  V30 7294 C 680.168 2.01771 -2.79969 0
M  V30 7295 C 679.281 1.6083 -4.00946 0
M  V30 7296 C 678.416 2.79224 -4.51893 0
M  V30 7297 C 677.455 2.3468 -5.65324 0
M  V30 7298 N 676.592 3.461 -6.10867 0
M  V30 7299 H 681.432 0.266286 -2.96808 0
M  V30 7300 H 678.969 0.11972 -1.46612 0
M  V30 7301 H 680.927 2.73989 -3.14621 0
M  V30 7302 H 679.557 2.51139 -2.02803 0
M  V30 7303 H 678.609 0.783592 -3.72242 0
M  V30 7304 H 679.921 1.24119 -4.83111 0
M  V30 7305 H 679.075 3.59625 -4.88625 0
M  V30 7306 H 677.814 3.19183 -3.68746 0
M  V30 7307 H 676.819 1.52721 -5.28163 0
M  V30 7308 H 678.044 1.95801 -6.5026 0
M  V30 7309 H 675.99 3.85671 -5.30654 0
M  V30 7310 H 675.907 3.1342 -6.87971 0
M  V30 7311 H 677.175 4.26844 -6.52246 0
M  V30 7312 N 681.404 1.57128 0.121893 0
M  V30 7313 C 682.334 2.03165 1.15092 0
M  V30 7314 C 683.315 0.915587 1.43356 0
M  V30 7315 O 684.5 1.1851 1.53847 0
M  V30 7316 C 681.63 2.43352 2.47784 0
M  V30 7317 C 680.584 3.58376 2.33989 0
M  V30 7318 C 679.91 3.84454 3.71617 0
M  V30 7319 C 681.21 4.90199 1.80283 0
M  V30 7320 H 682.904 2.89382 0.768023 0
M  V30 7321 H 680.45 1.39218 0.367998 0
M  V30 7322 H 682.403 2.74163 3.20019 0
M  V30 7323 H 681.127 1.54103 2.87958 0
M  V30 7324 H 679.786 3.2777 1.64202 0
M  V30 7325 H 679.434 2.92414 4.09271 0
M  V30 7326 H 679.134 4.61877 3.6324 0
M  V30 7327 H 680.658 4.17714 4.45362 0
M  V30 7328 H 682.072 5.19565 2.42333 0
M  V30 7329 H 680.469 5.71601 1.82735 0
M  V30 7330 H 681.539 4.78904 0.760184 0
M  V30 7331 N 682.882 -0.391992 1.52647 0
M  V30 7332 C 683.83 -1.4991 1.77848 0
M  V30 7333 C 684.824 -1.56587 0.646282 0
M  V30 7334 O 686.03 -1.59789 0.828698 0
M  V30 7335 H 682.405 -0.498883 0.56269 0
M  V30 7336 H 684.376 -1.25847 2.70564 0
M  V30 7337 C 683.125 -2.87081 1.96163 0
M  V30 7338 H 682.448 -2.82692 2.82711 0
M  V30 7339 H 683.888 -3.63792 2.17787 0
M  V30 7340 C 682.347 -3.28822 0.733348 0
M  V30 7341 O 682.877 -4.01598 -0.0906481 0
M  V30 7342 N 681.083 -2.85068 0.564317 0
M  V30 7343 H 680.63 -2.26012 1.23598 0
M  V30 7344 H 680.588 -3.13355 -0.256166 0
M  V30 7345 N 684.36 -1.4356 -0.65026 0
M  V30 7346 C 685.29 -1.51758 -1.77459 0
M  V30 7347 C 686.271 -0.372019 -1.65982 0
M  V30 7348 O 687.456 -0.589627 -1.85033 0
M  V30 7349 C 684.586 -1.44302 -3.15902 0
M  V30 7350 C 683.54 -2.57138 -3.42146 0
M  V30 7351 C 682.866 -2.34735 -4.8042 0
M  V30 7352 C 684.166 -3.99373 -3.36598 0
M  V30 7353 H 685.86 -2.45863 -1.70855 0
M  V30 7354 H 683.406 -1.18333 -0.820566 0
M  V30 7355 H 685.359 -1.48641 -3.94314 0
M  V30 7356 H 684.083 -0.467026 -3.23244 0
M  V30 7357 H 682.742 -2.52157 -2.66106 0
M  V30 7358 H 682.39 -1.35372 -4.84441 0
M  V30 7359 H 682.09 -3.10375 -4.9894 0
M  V30 7360 H 683.614 -2.40862 -5.61086 0
M  V30 7361 H 685.028 -4.05826 -4.04942 0
M  V30 7362 H 683.425 -4.75063 -3.66654 0
M  V30 7363 H 684.495 -4.243 -2.34729 0
M  V30 7364 N 685.838 0.888903 -1.30139 0
M  V30 7365 C 687.084 1.6428 -1.18912 0
M  V30 7366 C 687.417 1.92499 0.256477 0
M  V30 7367 O 686.692 1.54312 1.18397 0
M  V30 7368 C 686.975 2.9851 -2.01405 0
M  V30 7369 C 686.828 2.77288 -3.54163 0
M  V30 7370 C 688.147 3.99383 -1.84882 0
M  V30 7371 H 685.266 0.596148 -0.433333 0
M  V30 7372 H 687.908 1.0289 -1.5973 0
M  V30 7373 H 686.058 3.50907 -1.66722 0
M  V30 7374 H 687.73 2.31709 -3.98884 0
M  V30 7375 H 685.973 2.11867 -3.78543 0
M  V30 7376 H 686.644 3.72717 -4.07168 0
M  V30 7377 H 689.12 3.56132 -2.15196 0
M  V30 7378 H 687.996 4.91222 -2.44934 0
M  V30 7379 H 688.257 4.34674 -0.806902 0
M  V30 7380 N 687.317 1.12792 1.10072 0
M  V30 7381 C 688.28 0.802264 2.14701 0
M  V30 7382 C 689.28 -0.18515 1.59731 0
M  V30 7383 O 690.47 0.041109 1.74151 0
M  V30 7384 C 687.602 0.19285 3.40354 0
M  V30 7385 H 688.795 1.72932 2.45019 0
M  V30 7386 H 686.348 0.931662 1.25498 0
M  V30 7387 H 687.083 -0.743748 3.15656 0
M  V30 7388 H 686.868 0.903827 3.81541 0
M  V30 7389 H 688.358 -0.0183704 4.17596 0
M  V30 7390 N 688.795 -1.27931 0.920396 0
M  V30 7391 C 690.206 -1.76707 0.602616 0
M  V30 7392 C 690.557 -1.75249 -0.882159 0
M  V30 7393 O 689.682 -1.35135 -1.69019 0
M  V30 7394 C 690.277 -3.20884 1.08714 0
M  V30 7395 C 688.836 -3.67356 0.820157 0
M  V30 7396 C 687.983 -2.47525 1.25006 0
M  V30 7397 H 690.934 -1.14301 1.10095 0
M  V30 7398 H 690.955 -3.78045 0.431535 0
M  V30 7399 H 690.467 -3.21913 2.1678 0
M  V30 7400 H 688.568 -3.7178 -0.247012 0
M  V30 7401 H 688.681 -4.57181 1.43257 0
M  V30 7402 H 687.045 -2.45765 0.668698 0
M  V30 7403 H 687.828 -2.51269 2.3392 0
M  V30 7404 N 690.273 -0.685099 -1.4193 0
M  V30 7405 C 691.236 -0.0222632 -2.29189 0
M  V30 7406 C 692.236 0.7186 -1.4385 0
M  V30 7407 O 693.426 0.555058 -1.6512 0
M  V30 7408 C 690.558 0.979013 -3.2654 0
M  V30 7409 H 691.751 -0.790424 -2.89296 0
M  V30 7410 H 689.304 -0.448012 -1.49742 0
M  V30 7411 H 690.039 1.77531 -2.71392 0
M  V30 7412 H 689.824 0.451037 -3.89497 0
M  V30 7413 H 691.314 1.44091 -3.91954 0
M  V30 7414 N 691.751 1.51645 -0.429126 0
M  V30 7415 C 693 2.01203 0.141538 0
M  V30 7416 C 693.313 1.31828 1.44502 0
M  V30 7417 O 694.519 1.7231 2.09813 0
M  V30 7418 C 692.975 3.58624 0.302786 0
M  V30 7419 C 692.583 4.3693 -0.989775 0
M  V30 7420 C 694.327 4.16353 0.827661 0
M  V30 7421 C 692.234 5.86037 -0.794619 0
M  V30 7422 H 691.164 0.751867 0.05667 0
M  V30 7423 H 693.815 1.74822 -0.557633 0
M  V30 7424 H 692.197 3.81417 1.06476 0
M  V30 7425 H 693.371 4.25887 -1.75945 0
M  V30 7426 H 691.686 3.90614 -1.44256 0
M  V30 7427 H 694.283 5.25455 0.990026 0
M  V30 7428 H 694.626 3.74995 1.80787 0
M  V30 7429 H 695.159 3.97606 0.124213 0
M  V30 7430 H 691.898 6.31792 -1.74697 0
M  V30 7431 H 691.418 5.99765 -0.0645968 0
M  V30 7432 H 693.097 6.45471 -0.444591 0
M  V30 7433 N 693.229 0.160201 1.56784 0
M  V30 7434 C 694.176 -0.774416 2.1742 0
M  V30 7435 C 695.146 -1.23483 1.11091 0
M  V30 7436 O 696.331 -1.30499 1.39193 0
M  V30 7437 C 693.471 -2.00283 2.81035 0
M  V30 7438 C 692.584 -1.58701 4.01793 0
M  V30 7439 C 691.719 -2.76824 4.53367 0
M  V30 7440 C 690.758 -2.31679 5.66561 0
M  V30 7441 N 689.895 -3.42856 6.12694 0
M  V30 7442 H 694.735 -0.250542 2.96945 0
M  V30 7443 H 692.272 -0.111943 1.46673 0
M  V30 7444 H 694.23 -2.72316 3.16069 0
M  V30 7445 H 692.86 -2.5006 2.04132 0
M  V30 7446 H 691.912 -0.76384 3.72652 0
M  V30 7447 H 693.224 -1.21555 4.83762 0
M  V30 7448 H 692.378 -3.57029 4.90525 0
M  V30 7449 H 691.117 -3.17223 3.70433 0
M  V30 7450 H 690.122 -1.49917 5.28966 0
M  V30 7451 H 691.347 -1.9235 6.5129 0
M  V30 7452 H 689.293 -3.82852 5.32692 0
M  V30 7453 H 689.21 -3.09767 6.89624 0
M  V30 7454 H 690.478 -4.23379 6.545 0
M  V30 7455 N 694.707 -1.5719 -0.113559 0
M  V30 7456 C 695.617 -2.04041 -1.15777 0
M  V30 7457 C 696.633 -0.961812 -1.45001 0
M  V30 7458 O 697.809 -1.2737 -1.56009 0
M  V30 7459 C 694.874 -2.43994 -2.46308 0
M  V30 7460 C 693.935 -3.65962 -2.24433 0
M  V30 7461 C 693.168 -4.04 -3.4874 0
M  V30 7462 O 693.391 -3.42321 -4.56259 0
M  V30 7463 O 692.325 -4.97069 -3.3942 0
M  V30 7464 H 696.151 -2.93248 -0.789899 0
M  V30 7465 H 693.736 -1.45828 -0.324748 0
M  V30 7466 H 695.618 -2.70401 -3.23204 0
M  V30 7467 H 694.293 -1.57932 -2.82558 0
M  V30 7468 H 693.2 -3.44697 -1.45377 0
M  V30 7469 H 694.533 -4.52746 -1.93084 0
M  V30 7470 N 696.185 0.383891 -1.52853 0
M  V30 7471 C 697.601 0.724316 -1.42218 0
M  V30 7472 C 697.801 1.93943 -0.546654 0
M  V30 7473 O 696.857 2.5249 -0.0220562 0
M  V30 7474 C 698.17 0.954635 -2.85144 0
M  V30 7475 C 699.718 1.05579 -2.94656 0
M  V30 7476 C 700.193 1.3187 -4.38605 0
M  V30 7477 N 701.684 1.38681 -4.41952 0
M  V30 7478 C 702.419 1.60699 -5.50421 0
M  V30 7479 N 701.915 1.80154 -6.68967 0
M  V30 7480 N 703.708 1.6292 -5.37972 0
M  V30 7481 H 695.859 -0.4156 -2.08294 0
M  V30 7482 H 698.122 -0.123776 -0.939885 0
M  V30 7483 H 697.828 0.133829 -3.51445 0
M  V30 7484 H 697.702 1.86788 -3.27704 0
M  V30 7485 H 700.089 1.86716 -2.2852 0
M  V30 7486 H 700.17 0.120338 -2.55517 0
M  V30 7487 H 699.814 0.512416 -5.05309 0
M  V30 7488 H 699.744 2.26708 -4.75301 0
M  V30 7489 H 702.235 1.25334 -3.56511 0
M  V30 7490 H 702.548 1.96476 -7.47407 0
M  V30 7491 H 700.893 1.77368 -6.71986 0
M  V30 7492 H 704.084 1.47276 -4.44328 0
M  V30 7493 H 704.257 1.79739 -6.22574 0
M  V30 7494 N 697.663 1.43903 0.642637 0
M  V30 7495 C 698.596 1.44339 1.76753 0
M  V30 7496 C 699.574 0.303558 1.59741 0
M  V30 7497 O 700.758 0.498775 1.81781 0
M  V30 7498 C 697.885 1.26508 3.14187 0
M  V30 7499 C 696.931 2.43905 3.49875 0
M  V30 7500 S 697.764 4.0645 3.48653 0
M  V30 7501 C 698.92 3.91021 4.88726 0
M  V30 7502 H 699.153 2.39523 1.76113 0
M  V30 7503 H 696.686 1.31061 0.81623 0
M  V30 7504 H 698.644 1.16908 3.93501 0
M  V30 7505 H 697.305 0.328548 3.12377 0
M  V30 7506 H 696.498 2.27262 4.49853 0
M  V30 7507 H 696.1 2.50186 2.77998 0
M  V30 7508 H 698.392 3.54 5.77659 0
M  V30 7509 H 699.335 4.9079 5.10423 0
M  V30 7510 H 699.743 3.23287 4.62759 0
M  V30 7511 N 699.141 -0.881989 1.30609 0
M  V30 7512 C 700.074 -1.99066 1.11571 0
M  V30 7513 C 701.052 -1.62584 0.022516 0
M  V30 7514 O 702.236 -1.87671 0.176644 0
M  V30 7515 C 699.363 -3.3134 0.702237 0
M  V30 7516 C 698.409 -3.86807 1.79673 0
M  V30 7517 S 699.242 -4.13735 3.39976 0
M  V30 7518 C 700.398 -5.49024 3.00538 0
M  V30 7519 H 700.631 -2.1491 2.05429 0
M  V30 7520 H 698.164 -1.03074 1.14957 0
M  V30 7521 H 700.122 -4.07796 0.470415 0
M  V30 7522 H 698.783 -3.13349 -0.217034 0
M  V30 7523 H 697.976 -4.82397 1.45977 0
M  V30 7524 H 697.578 -3.17102 1.98298 0
M  V30 7525 H 699.87 -6.30208 2.48684 0
M  V30 7526 H 700.813 -5.8766 3.95046 0
M  V30 7527 H 701.221 -5.11726 2.3832 0
M  V30 7528 N 700.619 -1.13374 -1.09472 0
M  V30 7529 C 701.566 -0.810682 -2.16094 0
M  V30 7530 C 702.536 0.227003 -1.64541 0
M  V30 7531 O 703.721 0.0993538 -1.90541 0
M  V30 7532 C 700.861 -0.282336 -3.43943 0
M  V30 7533 C 699.974 -1.37902 -4.09398 0
M  V30 7534 C 699.109 -0.809066 -5.25002 0
M  V30 7535 C 698.148 -1.88419 -5.82379 0
M  V30 7536 N 697.285 -1.33221 -6.89345 0
M  V30 7537 H 702.125 -1.72397 -2.43071 0
M  V30 7538 H 699.662 -0.860564 -1.19301 0
M  V30 7539 H 701.62 0.0421189 -4.17179 0
M  V30 7540 H 700.25 0.594083 -3.17286 0
M  V30 7541 H 699.302 -1.82008 -3.34032 0
M  V30 7542 H 700.614 -2.19161 -4.48074 0
M  V30 7543 H 699.768 -0.435867 -6.05132 0
M  V30 7544 H 698.507 0.0346058 -4.87688 0
M  V30 7545 H 697.512 -2.26646 -5.00911 0
M  V30 7546 H 698.737 -2.73125 -6.21755 0
M  V30 7547 H 696.683 -0.510535 -6.5401 0
M  V30 7548 H 696.6 -2.08129 -7.26786 0
M  V30 7549 H 697.868 -0.986565 -7.73232 0
M  V30 7550 N 702.098 1.27442 -0.927168 0
M  V30 7551 C 703.045 2.26863 -0.424459 0
M  V30 7552 C 704.015 1.5813 0.508346 0
M  V30 7553 O 705.2 1.85946 0.42762 0
M  V30 7554 C 702.34 3.43639 0.31718 0
M  V30 7555 C 701.453 4.27087 -0.649675 0
M  V30 7556 C 700.588 5.31082 0.111753 0
M  V30 7557 C 699.627 6.062 -0.847843 0
M  V30 7558 N 698.764 7.01999 -0.119074 0
M  V30 7559 H 703.604 2.69239 -1.27728 0
M  V30 7560 H 701.141 1.32394 -0.641106 0
M  V30 7561 H 703.099 4.10155 0.763486 0
M  V30 7562 H 701.729 3.02217 1.13424 0
M  V30 7563 H 700.781 3.60491 -1.21451 0
M  V30 7564 H 702.093 4.79242 -1.38307 0
M  V30 7565 H 701.247 6.03544 0.618 0
M  V30 7566 H 699.986 4.7973 0.878114 0
M  V30 7567 H 698.991 5.32577 -1.36534 0
M  V30 7568 H 700.216 6.59642 -1.61398 0
M  V30 7569 H 698.162 6.52977 0.629051 0
M  V30 7570 H 698.079 7.5184 -0.792046 0
M  V30 7571 H 699.347 7.78638 0.366537 0
M  V30 7572 N 703.576 0.692616 1.41565 0
M  V30 7573 C 704.824 0.221896 2.00878 0
M  V30 7574 C 705.145 -1.18164 1.5512 0
M  V30 7575 O 704.415 -1.79679 0.78054 0
M  V30 7576 H 702.995 0.0790463 0.742806 0
M  V30 7577 H 705.657 0.893115 1.73232 0
M  V30 7578 H 704.753 0.23702 3.11199 0
M  V30 7579 N 705.054 -1.51416 0.437162 0
M  V30 7580 C 706.279 -2.0699 -0.130424 0
M  V30 7581 C 706.704 -1.30249 -1.35709 0
M  V30 7582 O 706.062 -0.340388 -1.78076 0
M  V30 7583 C 706.11 -3.5801 -0.43142 0
M  V30 7584 O 705.214 -3.8345 -1.5179 0
M  V30 7585 H 704.555 -0.663997 -0.00194339 0
M  V30 7586 H 707.085 -1.95029 0.618445 0
M  V30 7587 H 707.095 -4.02261 -0.681926 0
M  V30 7588 H 705.77 -4.13291 0.465137 0
M  V30 7589 H 704.347 -3.51062 -1.25737 0
M  V30 7590 N 706.532 -0.168513 -1.56696 0
M  V30 7591 C 707.462 0.758563 -2.20835 0
M  V30 7592 C 708.443 1.24121 -1.1631 0
M  V30 7593 O 709.628 1.29487 -1.4473 0
M  V30 7594 C 706.758 1.9892 -2.8469 0
M  V30 7595 C 705.712 1.64252 -3.95228 0
M  V30 7596 C 705.038 2.94757 -4.46119 0
M  V30 7597 C 706.338 0.872675 -5.14958 0
M  V30 7598 H 708.032 0.223953 -2.98561 0
M  V30 7599 H 705.578 0.106277 -1.43607 0
M  V30 7600 H 707.531 2.64275 -3.28233 0
M  V30 7601 H 706.255 2.5479 -2.04327 0
M  V30 7602 H 704.914 1.01266 -3.52336 0
M  V30 7603 H 704.562 3.48662 -3.62552 0
M  V30 7604 H 704.262 2.72316 -5.2069 0
M  V30 7605 H 705.786 3.61147 -4.92347 0
M  V30 7606 H 707.2 1.42875 -5.55211 0
M  V30 7607 H 705.597 0.747402 -5.95428 0
M  V30 7608 H 706.667 -0.131535 -4.84722 0
M  V30 7609 N 708.01 1.57248 0.105221 0
M  V30 7610 C 708.943 1.96567 1.15916 0
M  V30 7611 C 709.921 0.837355 1.39381 0
M  V30 7612 O 711.105 1.09676 1.53308 0
M  V30 7613 C 708.232 2.27375 2.51035 0
M  V30 7614 C 707.278 3.49869 2.43913 0
M  V30 7615 S 708.111 5.01958 1.86543 0
M  V30 7616 C 709.267 5.35932 3.23307 0
M  V30 7617 H 709.5 2.85655 0.823931 0
M  V30 7618 H 707.033 1.51204 0.312515 0
M  V30 7619 H 708.991 2.45801 3.28774 0
M  V30 7620 H 707.652 1.38876 2.81731 0
M  V30 7621 H 706.845 3.68835 3.43477 0
M  V30 7622 H 706.447 3.30901 1.743 0
M  V30 7623 H 708.739 5.31958 4.19556 0
M  V30 7624 H 709.682 6.37047 3.09155 0
M  V30 7625 H 710.09 4.63397 3.22372 0
M  V30 7626 N 709.488 -0.375779 1.53054 0
M  V30 7627 C 710.418 -1.46598 1.81745 0
M  V30 7628 C 711.399 -1.56337 0.670286 0
M  V30 7629 O 712.584 -1.71071 0.919158 0
M  V30 7630 C 709.714 -2.84058 1.99821 0
M  V30 7631 C 708.668 -2.8915 3.15557 0
M  V30 7632 C 707.994 -4.29187 3.18908 0
M  V30 7633 C 709.294 -2.57595 4.54359 0
M  V30 7634 H 710.988 -1.22837 2.73041 0
M  V30 7635 H 708.534 -0.589485 1.31381 0
M  V30 7636 H 710.487 -3.60342 2.18475 0
M  V30 7637 H 709.211 -3.09184 1.05226 0
M  V30 7638 H 707.87 -2.15316 2.96706 0
M  V30 7639 H 707.518 -4.51374 2.2197 0
M  V30 7640 H 707.218 -4.33512 3.96662 0
M  V30 7641 H 708.742 -5.07359 3.39734 0
M  V30 7642 H 710.156 -3.23595 4.73243 0
M  V30 7643 H 708.553 -2.73252 5.34279 0
M  V30 7644 H 709.623 -1.52882 4.60169 0
M  V30 7645 N 710.966 -1.44241 -0.634997 0
M  V30 7646 C 712.214 -1.46531 -1.39187 0
M  V30 7647 C 712.535 -0.0976441 -1.94755 0
M  V30 7648 O 711.805 0.869528 -1.75545 0
M  V30 7649 H 710.385 -0.539544 -0.516625 0
M  V30 7650 H 713.047 -1.79989 -0.747655 0
M  V30 7651 H 712.143 -2.18848 -2.22513 0
M  V30 7652 N 712.444 0.87505 -1.31075 0
M  V30 7653 C 713.674 1.65818 -1.2324 0
M  V30 7654 C 714.082 1.8808 0.205536 0
M  V30 7655 O 713.425 1.43548 1.14628 0
M  V30 7656 C 713.487 3.05131 -1.90093 0
M  V30 7657 C 713.151 3.05999 -3.39432 0
M  V30 7658 C 714.148 2.84328 -4.35263 0
M  V30 7659 C 711.833 3.27281 -3.81041 0
M  V30 7660 C 713.827 2.83912 -5.70678 0
M  V30 7661 C 711.514 3.26493 -5.16571 0
M  V30 7662 C 712.512 3.04834 -6.112 0
M  V30 7663 O 712.2 3.03882 -7.44252 0
M  V30 7664 H 711.932 0.52387 -0.427242 0
M  V30 7665 H 714.486 1.10086 -1.73408 0
M  V30 7666 H 712.716 3.62568 -1.34468 0
M  V30 7667 H 714.405 3.65641 -1.76242 0
M  V30 7668 H 715.171 2.67673 -4.04445 0
M  V30 7669 H 711.05 3.43171 -3.07822 0
M  V30 7670 H 714.594 2.66925 -6.44513 0
M  V30 7671 H 710.491 3.42687 -5.47025 0
M  V30 7672 H 711.259 3.19979 -7.53363 0
M  V30 7673 N 713.922 1.13953 1.08869 0
M  V30 7674 C 714.854 0.779906 2.15523 0
M  V30 7675 C 715.867 -0.20102 1.61554 0
M  V30 7676 O 717.056 0.0200049 1.78489 0
M  V30 7677 C 714.156 0.136226 3.38626 0
M  V30 7678 C 713.329 1.15069 4.21993 0
M  V30 7679 C 712.388 0.531645 5.23507 0
M  V30 7680 O 711.414 1.19327 5.56552 0
M  V30 7681 N 712.616 -0.693734 5.7634 0
M  V30 7682 H 715.381 1.69769 2.46979 0
M  V30 7683 H 712.942 1.03331 1.24637 0
M  V30 7684 H 714.934 -0.290295 4.03658 0
M  V30 7685 H 713.504 -0.684603 3.05011 0
M  V30 7686 H 712.724 1.75431 3.53012 0
M  V30 7687 H 714.012 1.83614 4.74514 0
M  V30 7688 H 713.41 -1.24994 5.51718 0
M  V30 7689 H 711.967 -1.06283 6.43076 0
M  V30 7690 N 715.4 -1.26948 0.933913 0
M  V30 7691 C 716.811 -1.76058 0.621324 0
M  V30 7692 C 717.162 -1.76175 -0.863522 0
M  V30 7693 O 716.287 -1.36921 -1.67576 0
M  V30 7694 C 716.882 -3.19713 1.12111 0
M  V30 7695 C 715.441 -3.66465 0.859074 0
M  V30 7696 C 714.588 -2.46186 1.27624 0
M  V30 7697 H 717.539 -1.13127 1.11301 0
M  V30 7698 H 717.56 -3.77566 0.471608 0
M  V30 7699 H 717.072 -3.19596 2.20182 0
M  V30 7700 H 715.173 -3.72021 -0.207566 0
M  V30 7701 H 715.286 -4.55636 1.48098 0
M  V30 7702 H 713.65 -2.45042 0.694727 0
M  V30 7703 H 714.433 -2.48774 2.36572 0
M  V30 7704 N 716.879 -0.700114 -1.41195 0
M  V30 7705 C 717.829 -0.0144098 -2.27995 0
M  V30 7706 C 718.813 0.748249 -1.42443 0
M  V30 7707 O 720.005 0.622995 -1.65674 0
M  V30 7708 C 717.134 0.917938 -3.308 0
M  V30 7709 C 716.22 0.151286 -4.2383 0
M  V30 7710 N 716.611 -0.85732 -4.98481 0
M  V30 7711 C 714.909 0.386108 -4.44326 0
M  V30 7712 C 715.61 -1.31663 -5.66604 0
M  V30 7713 N 714.586 -0.641689 -5.39799 0
M  V30 7714 H 718.388 -0.787662 -2.83149 0
M  V30 7715 H 715.902 -0.531344 -1.53462 0
M  V30 7716 H 717.899 1.42437 -3.91813 0
M  V30 7717 H 716.559 1.69074 -2.77208 0
M  V30 7718 H 717.57 -1.2377 -5.02893 0
M  V30 7719 H 714.247 1.13644 -4.01735 0
M  V30 7720 H 715.637 -2.15384 -6.36443 0
M  V30 7721 N 718.357 1.51182 -0.445186 0
M  V30 7722 C 719.773 1.59299 -0.0978954 0
M  V30 7723 C 719.973 1.4555 1.39346 0
M  V30 7724 O 719.029 1.30073 2.16419 0
M  V30 7725 C 720.342 2.94133 -0.625005 0
M  V30 7726 C 721.89 3.07463 -0.586137 0
M  V30 7727 C 722.365 4.44832 -1.09035 0
M  V30 7728 N 723.856 4.51173 -1.04867 0
M  V30 7729 C 724.591 5.55804 -1.40959 0
M  V30 7730 N 724.087 6.67816 -1.84375 0
M  V30 7731 N 725.88 5.46205 -1.32726 0
M  V30 7732 H 718.031 1.58363 -1.41544 0
M  V30 7733 H 720.294 0.746946 -0.58376 0
M  V30 7734 H 720 3.09589 -1.66876 0
M  V30 7735 H 719.874 3.77161 -0.0542262 0
M  V30 7736 H 722.261 2.9167 0.448646 0
M  V30 7737 H 722.342 2.26255 -1.19341 0
M  V30 7738 H 721.986 4.61372 -2.12364 0
M  V30 7739 H 721.916 5.24591 -0.459539 0
M  V30 7740 H 724.407 3.70783 -0.729932 0
M  V30 7741 H 724.72 7.43683 -2.10131 0
M  V30 7742 H 723.065 6.69003 -1.88308 0
M  V30 7743 H 726.256 4.57583 -0.986678 0
M  V30 7744 H 726.429 6.27634 -1.61182 0
M  V30 7745 N 719.835 0.176821 1.56605 0
M  V30 7746 C 721.083 -0.465793 1.96659 0
M  V30 7747 C 721.404 -1.63406 1.06412 0
M  V30 7748 O 720.674 -1.95457 0.131603 0
M  V30 7749 H 719.254 -0.175072 0.726195 0
M  V30 7750 H 721.916 0.25929 1.93168 0
M  V30 7751 H 721.012 -0.822138 3.01077 0
M  V30 7752 N 721.313 -1.57302 -0.09688 0
M  V30 7753 C 722.26 -2.01933 -1.11766 0
M  V30 7754 C 723.23 -0.895329 -1.39904 0
M  V30 7755 O 724.415 -1.16119 -1.51397 0
M  V30 7756 C 721.555 -2.44726 -2.43317 0
M  V30 7757 C 720.668 -3.70639 -2.21925 0
M  V30 7758 C 719.803 -4.02318 -3.46862 0
M  V30 7759 C 718.842 -5.21346 -3.20725 0
M  V30 7760 N 717.979 -5.48787 -4.37924 0
M  V30 7761 H 722.819 -2.88919 -0.730075 0
M  V30 7762 H 720.356 -1.42901 -0.348962 0
M  V30 7763 H 722.314 -2.6758 -3.20088 0
M  V30 7764 H 720.944 -1.60753 -2.79926 0
M  V30 7765 H 719.996 -3.55271 -1.35965 0
M  V30 7766 H 721.308 -4.57557 -1.98603 0
M  V30 7767 H 720.462 -4.25939 -4.32042 0
M  V30 7768 H 719.201 -3.13918 -3.73238 0
M  V30 7769 H 718.206 -4.97547 -2.33938 0
M  V30 7770 H 719.431 -6.11343 -2.95697 0
M  V30 7771 H 717.377 -4.63346 -4.64378 0
M  V30 7772 H 717.294 -6.30073 -4.17785 0
M  V30 7773 H 718.562 -5.76943 -5.24173 0
M  V30 7774 N 722.791 0.367657 -1.53252 0
M  V30 7775 C 724.037 1.11216 -1.69584 0
M  V30 7776 C 724.37 1.89026 -0.445269 0
M  V30 7777 O 723.645 1.86342 0.557404 0
M  V30 7778 C 723.928 2.07308 -2.94441 0
M  V30 7779 C 723.781 1.3312 -4.2965 0
M  V30 7780 C 725.1 3.07459 -3.14892 0
M  V30 7781 H 722.219 0.40294 -0.617096 0
M  V30 7782 H 724.861 0.393201 -1.85887 0
M  V30 7783 H 723.011 2.68617 -2.80673 0
M  V30 7784 H 724.683 0.746111 -4.55226 0
M  V30 7785 H 722.926 0.633051 -4.29156 0
M  V30 7786 H 723.597 2.03443 -5.13142 0
M  V30 7787 H 726.073 2.56252 -3.27832 0
M  V30 7788 H 724.949 3.71919 -4.03693 0
M  V30 7789 H 725.21 3.77514 -2.30077 0
M  V30 7790 N 724.269 1.44576 0.627338 0
M  V30 7791 C 725.217 1.52039 1.76031 0
M  V30 7792 C 726.211 0.391796 1.64807 0
M  V30 7793 O 727.417 0.5669 1.7084 0
M  V30 7794 H 723.792 0.477165 0.581221 0
M  V30 7795 H 725.763 2.47387 1.6686 0
M  V30 7796 C 724.512 1.48539 3.14375 0
M  V30 7797 H 723.835 2.34699 3.23661 0
M  V30 7798 H 725.275 1.57821 3.93534 0
M  V30 7799 C 723.734 0.20672 3.36265 0
M  V30 7800 O 724.264 -0.72154 3.95167 0
M  V30 7801 N 722.47 0.108654 2.90397 0
M  V30 7802 H 722.017 0.864884 2.42647 0
M  V30 7803 H 721.975 -0.746121 3.05418 0
M  V30 7804 N 725.747 -0.868086 1.31537 0
M  V30 7805 C 726.994 -1.62127 1.2133 0
M  V30 7806 C 727.322 -1.93158 -0.2281 0
M  V30 7807 O 726.577 -1.5632 -1.1774 0
M  V30 7808 C 726.876 -2.95889 2.0046 0
M  V30 7809 C 726.542 -2.84343 3.49943 0
M  V30 7810 C 725.204 -2.80901 3.90702 0
M  V30 7811 C 727.556 -2.71243 4.45058 0
M  V30 7812 C 724.884 -2.6222 5.24841 0
M  V30 7813 C 727.236 -2.54098 5.79325 0
M  V30 7814 C 725.9 -2.4904 6.19302 0
M  V30 7815 H 725.17 -0.593265 0.443979 0
M  V30 7816 H 727.817 -1.00803 1.62822 0
M  V30 7817 H 726.122 -3.61259 1.51655 0
M  V30 7818 H 727.819 -3.53161 1.89942 0
M  V30 7819 H 724.409 -2.8784 3.17563 0
M  V30 7820 H 728.593 -2.72956 4.14498 0
M  V30 7821 H 723.849 -2.56731 5.54887 0
M  V30 7822 H 728.023 -2.42938 6.52652 0
M  V30 7823 H 725.65 -2.34324 7.23185 0
M  V30 7824 N 727.225 -1.14528 -1.08264 0
M  V30 7825 C 728.472 -0.914405 -1.80679 0
M  V30 7826 C 728.8 0.558952 -1.86295 0
M  V30 7827 O 728.055 1.43017 -1.33584 0
M  V30 7828 C 728.354 -1.46226 -3.26117 0
M  V30 7829 C 728.02 -2.95451 -3.40616 0
M  V30 7830 C 726.682 -3.36191 -3.4428 0
M  V30 7831 C 729.034 -3.91399 -3.44175 0
M  V30 7832 C 726.362 -4.71539 -3.49096 0
M  V30 7833 C 728.714 -5.26606 -3.50526 0
M  V30 7834 C 727.378 -5.66856 -3.52464 0
M  V30 7835 H 726.648 -0.334604 -0.661151 0
M  V30 7836 H 729.295 -1.4292 -1.27461 0
M  V30 7837 H 727.6 -0.868442 -3.82054 0
M  V30 7838 H 729.297 -1.25955 -3.80705 0
M  V30 7839 H 725.887 -2.62955 -3.38456 0
M  V30 7840 H 730.071 -3.61004 -3.40573 0
M  V30 7841 H 725.327 -5.02082 -3.4889 0
M  V30 7842 H 729.501 -6.00758 -3.52225 0
M  V30 7843 H 727.128 -6.71718 -3.55948 0
M  V30 7844 N 728.703 1.26451 -0.940633 0
M  V30 7845 C 730.119 1.4608 -0.642859 0
M  V30 7846 C 730.319 1.84765 0.803998 0
M  V30 7847 O 729.375 1.96902 1.58069 0
M  V30 7848 C 730.688 2.54359 -1.60381 0
M  V30 7849 C 732.236 2.6821 -1.61345 0
M  V30 7850 C 732.711 3.79659 -2.56169 0
M  V30 7851 N 734.202 3.87051 -2.54452 0
M  V30 7852 C 734.937 4.72739 -3.24507 0
M  V30 7853 N 734.433 5.6282 -4.03987 0
M  V30 7854 N 736.226 4.66581 -3.13462 0
M  V30 7855 H 728.377 0.996289 -1.87584 0
M  V30 7856 H 730.64 0.498921 -0.80609 0
M  V30 7857 H 730.346 2.32758 -2.6366 0
M  V30 7858 H 730.22 3.52005 -1.35545 0
M  V30 7859 H 732.607 2.89184 -0.587913 0
M  V30 7860 H 732.688 1.7101 -1.90235 0
M  V30 7861 H 732.332 3.59438 -3.58841 0
M  V30 7862 H 732.262 4.76315 -2.2457 0
M  V30 7863 H 734.753 3.22649 -1.96739 0
M  V30 7864 H 735.066 6.25095 -4.54396 0
M  V30 7865 H 733.411 5.62574 -4.08088 0
M  V30 7866 H 736.602 3.9521 -2.50852 0
M  V30 7867 H 736.775 5.33141 -3.68327 0
M  V30 7868 N 730.181 0.707592 1.40822 0
M  V30 7869 C 731.113 0.0105968 2.29198 0
M  V30 7870 C 732.126 -0.732035 1.45414 0
M  V30 7871 O 733.315 -0.580741 1.68789 0
M  V30 7872 C 730.415 -1.00921 3.23525 0
M  V30 7873 C 729.588 -0.333747 4.36125 0
M  V30 7874 C 728.647 -1.25783 5.10945 0
M  V30 7875 O 727.673 -0.745646 5.64295 0
M  V30 7876 N 728.875 -2.58947 5.19545 0
M  V30 7877 H 731.64 0.76938 2.89656 0
M  V30 7878 H 729.201 0.554579 1.52105 0
M  V30 7879 H 731.193 -1.6294 3.70449 0
M  V30 7880 H 729.763 -1.66942 2.6429 0
M  V30 7881 H 728.983 0.466518 3.9143 0
M  V30 7882 H 730.271 0.135444 5.0862 0
M  V30 7883 H 729.669 -3.03065 4.7767 0
M  V30 7884 H 728.226 -3.16131 5.70004 0
M  V30 7885 N 731.66 -1.50943 0.453197 0
M  V30 7886 C 732.906 -2.02512 -0.108082 0
M  V30 7887 C 733.239 -1.33574 -1.40967 0
M  V30 7888 O 732.514 -0.455671 -1.89087 0
M  V30 7889 C 732.797 -3.58759 -0.310453 0
M  V30 7890 C 732.65 -4.38293 1.0109 0
M  V30 7891 C 733.969 -4.26816 -1.07313 0
M  V30 7892 H 731.088 -0.73603 -0.0378064 0
M  V30 7893 H 733.73 -1.80433 0.595295 0
M  V30 7894 H 731.88 -3.77702 -0.909582 0
M  V30 7895 H 733.552 -4.30964 1.64523 0
M  V30 7896 H 731.795 -4.02745 1.61179 0
M  V30 7897 H 732.466 -5.45828 0.82315 0
M  V30 7898 H 734.942 -4.1224 -0.565473 0
M  V30 7899 H 733.818 -5.35989 -1.1835 0
M  V30 7900 H 734.079 -3.88757 -2.10525 0
M  V30 7901 N 733.138 -0.185124 -1.56509 0
M  V30 7902 C 734.384 0.456934 -1.97585 0
M  V30 7903 C 734.717 1.61957 -1.07161 0
M  V30 7904 O 733.992 1.9412 -0.121546 0
M  V30 7905 C 734.275 0.926666 -3.47973 0
M  V30 7906 C 734.128 -0.237097 -4.49175 0
M  V30 7907 C 735.447 1.79561 -4.01803 0
M  V30 7908 H 732.566 0.164619 -0.71838 0
M  V30 7909 H 735.208 -0.274039 -1.88013 0
M  V30 7910 H 733.358 1.54954 -3.56261 0
M  V30 7911 H 735.03 -0.87454 -4.52934 0
M  V30 7912 H 733.273 -0.890446 -4.24563 0
M  V30 7913 H 733.944 0.133924 -5.51838 0
M  V30 7914 H 736.42 1.27039 -3.96232 0
M  V30 7915 H 735.296 2.09327 -5.07418 0
M  V30 7916 H 735.557 2.74629 -3.46455 0
M  V30 7917 N 734.616 1.57351 0.0885366 0
M  V30 7918 C 735.865 1.85604 0.789556 0
M  V30 7919 C 736.178 0.775352 1.79576 0
M  V30 7920 O 737.384 0.945206 2.54515 0
M  V30 7921 C 735.84 3.29175 1.45506 0
M  V30 7922 C 735.448 4.45331 0.488278 0
M  V30 7923 C 737.192 3.66646 2.13942 0
M  V30 7924 C 735.099 5.79937 1.15874 0
M  V30 7925 H 734.029 0.692346 0.298619 0
M  V30 7926 H 736.68 1.83451 0.0425821 0
M  V30 7927 H 735.062 3.25889 2.24972 0
M  V30 7928 H 736.236 4.59977 -0.275359 0
M  V30 7929 H 734.551 4.16301 -0.0907363 0
M  V30 7930 H 737.148 4.64498 2.6485 0
M  V30 7931 H 737.491 2.956 2.93132 0
M  V30 7932 H 738.024 3.71848 1.41328 0
M  V30 7933 H 734.763 6.54232 0.407508 0
M  V30 7934 H 734.283 5.69123 1.89364 0
M  V30 7935 H 735.962 6.24718 1.68336 0
M  V30 7936 N 736.094 -0.359525 1.53444 0
M  V30 7937 C 737.319 -1.12644 1.74144 0
M  V30 7938 C 737.744 -1.82082 0.472007 0
M  V30 7939 O 737.102 -1.71962 -0.57436 0
M  V30 7940 C 737.15 -2.12781 2.9113 0
M  V30 7941 O 736.254 -3.19984 2.60162 0
M  V30 7942 H 735.595 -0.326553 0.578152 0
M  V30 7943 H 738.125 -0.414798 2.00351 0
M  V30 7944 H 738.135 -2.56278 3.17467 0
M  V30 7945 H 736.81 -1.61634 3.83207 0
M  V30 7946 H 735.387 -2.81417 2.44661 0
M  V30 7947 N 737.572 -1.44907 -0.619662 0
M  V30 7948 C 738.983 -1.42905 -1.20146 0
M  V30 7949 C 739.334 -0.150341 -1.95623 0
M  V30 7950 O 738.459 0.748732 -2.03034 0
M  V30 7951 C 739.054 -2.58889 -2.18545 0
M  V30 7952 C 737.613 -2.60046 -2.72127 0
M  V30 7953 C 736.76 -2.3493 -1.4732 0
M  V30 7954 H 739.711 -1.53321 -0.409666 0
M  V30 7955 H 739.732 -2.32298 -3.0136 0
M  V30 7956 H 739.244 -3.51941 -1.63583 0
M  V30 7957 H 737.345 -1.70968 -3.3106 0
M  V30 7958 H 737.458 -3.58893 -3.17384 0
M  V30 7959 H 735.822 -1.84248 -1.75855 0
M  V30 7960 H 736.605 -3.3011 -0.942442 0
M  V30 7961 N 739.05 0.861098 -1.31996 0
M  V30 7962 C 739.982 1.97551 -1.16216 0
M  V30 7963 C 740.995 1.625 -0.0988527 0
M  V30 7964 O 742.184 1.75091 -0.3472 0
M  V30 7965 C 739.284 3.30376 -0.755307 0
M  V30 7966 C 738.457 3.93711 -1.90552 0
M  V30 7967 C 737.516 5.04862 -1.48328 0
M  V30 7968 O 736.542 5.25204 -2.19431 0
M  V30 7969 N 737.744 5.79283 -0.375656 0
M  V30 7970 H 740.509 2.11632 -2.12208 0
M  V30 7971 H 738.07 1.03559 -1.24448 0
M  V30 7972 H 740.062 4.0213 -0.455364 0
M  V30 7973 H 738.632 3.12395 0.113269 0
M  V30 7974 H 737.852 3.14825 -2.37231 0
M  V30 7975 H 739.14 4.32762 -2.67571 0
M  V30 7976 H 738.538 5.65286 0.216284 0
M  V30 7977 H 737.095 6.5166 -0.135289 0
M  V30 7978 N 740.528 1.15101 1.07655 0
M  V30 7979 C 741.774 0.925343 1.80458 0
M  V30 7980 C 742.107 -0.546354 1.86356 0
M  V30 7981 O 741.382 -1.40496 1.34503 0
M  V30 7982 C 741.665 1.53646 3.25676 0
M  V30 7983 C 741.518 3.07854 3.27942 0
M  V30 7984 C 742.837 1.21968 4.22861 0
M  V30 7985 H 739.956 0.337592 0.655134 0
M  V30 7986 H 742.598 1.42217 1.25993 0
M  V30 7987 H 740.748 1.11395 3.72187 0
M  V30 7988 H 742.42 3.58989 2.89697 0
M  V30 7989 H 740.663 3.41904 2.66991 0
M  V30 7990 H 741.334 3.45725 4.30324 0
M  V30 7991 H 743.81 1.5851 3.84726 0
M  V30 7992 H 742.686 1.67349 5.22767 0
M  V30 7993 H 742.947 0.136207 4.4189 0
M  V30 7994 N 742.006 -1.2595 0.947325 0
M  V30 7995 C 743.231 -1.98083 0.614633 0
M  V30 7996 C 743.656 -1.70013 -0.804815 0
M  V30 7997 O 743.014 -0.95175 -1.54309 0
M  V30 7998 C 743.062 -3.4993 0.870706 0
M  V30 7999 O 742.166 -4.12364 -0.0541451 0
M  V30 8000 H 741.507 -0.621232 0.234451 0
M  V30 8001 H 744.037 -1.60259 1.27193 0
M  V30 8002 H 744.047 -4.00198 0.794051 0
M  V30 8003 H 742.722 -3.69691 1.90529 0
M  V30 8004 H 741.299 -3.72826 0.0740917 0
M  V30 8005 N 743.484 -0.715051 -1.40445 0
M  V30 8006 C 744.9 -0.388555 -1.54798 0
M  V30 8007 C 745.1 1.10271 -1.68649 0
M  V30 8008 O 744.156 1.88875 -1.67578 0
M  V30 8009 C 745.469 -1.15414 -2.77669 0
M  V30 8010 C 747.017 -1.14039 -2.91486 0
M  V30 8011 C 747.492 -1.88812 -4.1727 0
M  V30 8012 N 748.983 -1.85878 -4.24268 0
M  V30 8013 C 749.718 -2.40558 -5.20499 0
M  V30 8014 N 749.214 -3.03791 -6.22642 0
M  V30 8015 N 751.007 -2.30703 -5.12574 0
M  V30 8016 H 743.158 -1.68201 -1.297 0
M  V30 8017 H 745.421 -0.710915 -0.627139 0
M  V30 8018 H 745.127 -2.20853 -2.7371 0
M  V30 8019 H 745.001 -0.745412 -3.69761 0
M  V30 8020 H 747.388 -0.0941996 -2.9495 0
M  V30 8021 H 747.469 -1.58834 -2.00513 0
M  V30 8022 H 747.113 -2.93422 -4.14568 0
M  V30 8023 H 747.043 -1.41438 -5.0725 0
M  V30 8024 H 749.534 -1.39794 -3.51093 0
M  V30 8025 H 749.847 -3.43032 -6.92495 0
M  V30 8026 H 748.192 -3.07875 -6.23087 0
M  V30 8027 H 751.383 -1.80961 -4.31707 0
M  V30 8028 H 751.556 -2.73618 -5.87398 0
M  V30 8029 N 744.962 1.50701 -0.461195 0
M  V30 8030 C 745.872 2.32069 0.343661 0
M  V30 8031 C 746.888 1.42016 1.00535 0
M  V30 8032 O 748.064 1.75077 0.995498 0
M  V30 8033 C 745.129 3.16424 1.41692 0
M  V30 8034 C 744.19 4.22286 0.772869 0
M  V30 8035 C 743.423 5.02609 1.79499 0
M  V30 8036 O 743.646 4.83874 3.0203 0
M  V30 8037 O 742.58 5.86047 1.3723 0
M  V30 8038 H 746.406 3.01996 -0.321268 0
M  V30 8039 H 743.991 1.47723 -0.223235 0
M  V30 8040 H 745.873 3.68795 2.03883 0
M  V30 8041 H 744.548 2.49236 2.0655 0
M  V30 8042 H 743.455 3.73931 0.112277 0
M  V30 8043 H 744.788 4.91915 0.167399 0
M  V30 8044 N 746.441 0.193421 1.56409 0
M  V30 8045 C 747.718 -0.493318 1.89277 0
M  V30 8046 C 748.098 -1.79765 1.10669 0
M  V30 8047 O 747.446 -2.27558 0.207274 0
M  V30 8048 C 747.656 -0.713732 3.41624 0
M  V30 8049 C 749.004 -1.03385 4.11821 0
M  V30 8050 O 750.028 -0.801511 3.47065 0
M  V30 8051 O 748.887 -1.47327 5.26267 0
M  V30 8052 H 745.981 -0.256973 0.786062 0
M  V30 8053 H 748.527 0.23351 1.68086 0
M  V30 8054 H 747.299 0.207446 3.9075 0
M  V30 8055 H 746.922 -1.49308 3.68501 0
M  V30 8056 N 747.919 -1.57396 -0.0801906 0
M  V30 8057 C 748.852 -1.98386 -1.12774 0
M  V30 8058 C 749.83 -0.859423 -1.38031 0
M  V30 8059 O 751.014 -1.12101 -1.51544 0
M  V30 8060 C 748.141 -2.3134 -2.47386 0
M  V30 8061 C 747.187 -3.53706 -2.38316 0
M  V30 8062 S 748.02 -5.04862 -1.78534 0
M  V30 8063 C 749.176 -5.41008 -3.1474 0
M  V30 8064 H 749.409 -2.86929 -0.778382 0
M  V30 8065 H 746.942 -1.51682 -0.28842 0
M  V30 8066 H 748.9 -2.51 -3.24822 0
M  V30 8067 H 747.561 -1.4334 -2.79486 0
M  V30 8068 H 746.754 -3.74253 -3.37566 0
M  V30 8069 H 746.356 -3.33632 -1.69014 0
M  V30 8070 H 748.648 -5.38565 -4.1104 0
M  V30 8071 H 749.591 -6.41885 -2.98981 0
M  V30 8072 H 749.999 -4.68467 -3.14958 0
M  V30 8073 N 749.397 0.351382 -1.53633 0
M  V30 8074 C 750.674 1.10903 -1.6112 0
M  V30 8075 C 751.054 2.06725 -0.427556 0
M  V30 8076 O 750.402 2.20992 0.580916 0
M  V30 8077 C 750.612 1.83561 -2.96827 0
M  V30 8078 C 751.96 2.37587 -3.51906 0
M  V30 8079 O 752.984 1.93669 -2.9895 0
M  V30 8080 O 751.843 3.17913 -4.44515 0
M  V30 8081 H 748.937 0.509558 -0.651368 0
M  V30 8082 H 751.483 0.353504 -1.65977 0
M  V30 8083 H 750.255 1.1371 -3.74414 0
M  V30 8084 H 749.878 2.6599 -2.95525 0
M  V30 8085 N 750.875 1.45233 0.611969 0
M  V30 8086 C 752.122 1.49021 1.37109 0
M  V30 8087 C 752.45 0.130227 1.94064 0
M  V30 8088 O 751.705 -0.870551 1.75271 0
M  V30 8089 C 752.004 2.51353 2.54079 0
M  V30 8090 C 751.67 3.96178 2.15299 0
M  V30 8091 C 750.332 4.35614 2.04436 0
M  V30 8092 C 752.684 4.87275 1.84966 0
M  V30 8093 C 750.012 5.64047 1.61456 0
M  V30 8094 C 752.364 6.16115 1.43474 0
M  V30 8095 C 751.028 6.54486 1.31167 0
M  V30 8096 H 750.298 0.545307 0.501719 0
M  V30 8097 H 752.945 1.78555 0.692122 0
M  V30 8098 H 751.25 2.15372 3.27295 0
M  V30 8099 H 752.947 2.51523 3.12309 0
M  V30 8100 H 749.537 3.6499 2.24678 0
M  V30 8101 H 753.721 4.57548 1.92258 0
M  V30 8102 H 748.977 5.92575 1.50547 0
M  V30 8103 H 753.151 6.86149 1.19048 0
M  V30 8104 H 750.778 7.53904 0.97637 0
M  V30 8105 N 752.353 -0.854086 1.3245 0
M  V30 8106 C 753.283 -1.97827 1.24044 0
M  V30 8107 C 754.264 -1.69646 0.124166 0
M  V30 8108 O 755.449 -1.91687 0.31143 0
M  V30 8109 C 752.579 -3.33673 0.963324 0
M  V30 8110 C 751.533 -3.76207 2.04089 0
M  V30 8111 C 750.859 -5.0969 1.61618 0
M  V30 8112 C 752.159 -3.91612 3.45597 0
M  V30 8113 H 753.853 -2.05118 2.18099 0
M  V30 8114 H 751.399 -0.985489 1.04996 0
M  V30 8115 H 753.352 -4.11871 0.891061 0
M  V30 8116 H 752.076 -3.26597 -0.0128649 0
M  V30 8117 H 750.735 -3.0026 2.10332 0
M  V30 8118 H 750.383 -4.99072 0.627418 0
M  V30 8119 H 750.083 -5.3912 2.33717 0
M  V30 8120 H 751.607 -5.90381 1.55829 0
M  V30 8121 H 753.021 -4.60163 3.4194 0
M  V30 8122 H 751.418 -4.3246 4.16051 0
M  V30 8123 H 752.488 -2.9451 3.85217 0
M  V30 8124 N 753.831 -1.1567 -1.07043 0
M  V30 8125 C 754.761 -0.879348 -2.16309 0
M  V30 8126 C 755.742 0.171311 -1.69235 0
M  V30 8127 O 756.927 0.0250175 -1.94184 0
M  V30 8128 C 754.057 -0.371307 -3.45309 0
M  V30 8129 C 753.011 -1.359 -4.05851 0
M  V30 8130 C 752.337 -0.709678 -5.29969 0
M  V30 8131 C 753.637 -2.72606 -4.45514 0
M  V30 8132 H 755.331 -1.79308 -2.39768 0
M  V30 8133 H 752.877 -0.863558 -1.15233 0
M  V30 8134 H 754.83 -0.164798 -4.21078 0
M  V30 8135 H 753.554 0.577906 -3.21446 0
M  V30 8136 H 752.213 -1.55193 -3.32131 0
M  V30 8137 H 751.861 0.245782 -5.02399 0
M  V30 8138 H 751.561 -1.36886 -5.71433 0
M  V30 8139 H 753.085 -0.513015 -6.08441 0
M  V30 8140 H 754.499 -2.57141 -5.12398 0
M  V30 8141 H 752.896 -3.34927 -4.97939 0
M  V30 8142 H 753.966 -3.28434 -3.56734 0
M  V30 8143 N 755.309 1.25446 -0.953992 0
M  V30 8144 C 756.586 1.884 -0.525823 0
M  V30 8145 C 756.966 1.86079 0.996891 0
M  V30 8146 O 756.314 1.32389 1.8624 0
M  V30 8147 C 756.524 3.31154 -1.10172 0
M  V30 8148 C 757.872 4.07926 -1.17819 0
M  V30 8149 O 758.896 3.40273 -1.05323 0
M  V30 8150 O 757.755 5.28942 -1.37415 0
M  V30 8151 H 754.849 0.808629 -0.173345 0
M  V30 8152 H 757.395 1.33522 -1.04738 0
M  V30 8153 H 756.167 3.27271 -2.14499 0
M  V30 8154 H 755.79 3.93588 -0.56338 0
M  V30 8155 N 756.787 0.722489 1.40064 0
M  V30 8156 C 757.697 0.0755984 2.34478 0
M  V30 8157 C 758.713 -0.736046 1.57665 0
M  V30 8158 O 759.889 -0.667407 1.9002 0
M  V30 8159 C 756.954 -0.830075 3.36616 0
M  V30 8160 C 756.015 -0.00759884 4.29299 0
M  V30 8161 C 755.248 -0.870139 5.26559 0
M  V30 8162 O 755.471 -2.10921 5.2997 0
M  V30 8163 O 754.405 -0.305454 6.01124 0
M  V30 8164 H 758.231 0.854545 2.9143 0
M  V30 8165 H 755.816 0.483032 1.41376 0
M  V30 8166 H 757.698 -1.34864 3.99236 0
M  V30 8167 H 756.373 -1.58805 2.82069 0
M  V30 8168 H 755.28 0.556199 3.69942 0
M  V30 8169 H 756.613 0.712312 4.87018 0
M  V30 8170 N 758.265 -1.50454 0.469181 0
M  V30 8171 C 759.514 -2.01507 -0.0881425 0
M  V30 8172 C 759.827 -1.35613 -1.40956 0
M  V30 8173 O 761.033 -1.77812 -2.05171 0
M  V30 8174 C 759.489 -3.59301 -0.207596 0
M  V30 8175 C 759.097 -4.34152 1.10527 0
M  V30 8176 C 760.841 -4.18401 -0.716981 0
M  V30 8177 C 758.748 -5.83725 0.949717 0
M  V30 8178 H 757.678 -0.753106 -0.0367156 0
M  V30 8179 H 760.329 -1.73282 0.603788 0
M  V30 8180 H 758.711 -3.84106 -0.963265 0
M  V30 8181 H 759.885 -4.21073 1.87175 0
M  V30 8182 H 758.2 -3.86652 1.54562 0
M  V30 8183 H 760.797 -5.27895 -0.850363 0
M  V30 8184 H 761.14 -3.79657 -1.70782 0
M  V30 8185 H 761.673 -3.97796 -0.0187511 0
M  V30 8186 H 758.412 -6.26938 1.91387 0
M  V30 8187 H 757.932 -5.99383 0.223591 0
M  V30 8188 H 759.611 -6.44065 0.61557 0
M  V30 8189 N 759.743 -0.201713 -1.56304 0
M  V30 8190 C 761.02 0.483273 -1.89536 0
M  V30 8191 C 761.4 1.79176 -1.11621 0
M  V30 8192 O 760.748 2.27445 -0.219339 0
M  V30 8193 C 760.958 0.695604 -3.41998 0
M  V30 8194 C 762.306 1.012 -4.12364 0
M  V30 8195 O 763.33 0.783094 -3.47485 0
M  V30 8196 O 762.189 1.44534 -5.27041 0
M  V30 8197 H 759.283 0.252801 -0.787414 0
M  V30 8198 H 761.829 -0.24242 -1.6796 0
M  V30 8199 H 760.601 -0.228165 -3.90634 0
M  V30 8200 H 760.224 1.47351 -3.69288 0
M  V30 8201 N 761.222 1.57436 0.0718424 0
M  V30 8202 C 762.152 2.06724 1.08571 0
M  V30 8203 C 763.133 0.960731 1.40371 0
M  V30 8204 O 764.318 1.23345 1.49999 0
M  V30 8205 C 761.448 2.51112 2.39916 0
M  V30 8206 C 760.402 3.65639 2.22469 0
M  V30 8207 C 759.728 3.96082 3.59198 0
M  V30 8208 C 761.028 4.95687 1.64596 0
M  V30 8209 H 762.722 2.91679 0.675569 0
M  V30 8210 H 760.268 1.40319 0.32352 0
M  V30 8211 H 762.221 2.84206 3.11135 0
M  V30 8212 H 760.945 1.63186 2.8291 0
M  V30 8213 H 759.604 3.32828 1.53691 0
M  V30 8214 H 759.252 3.05287 3.99761 0
M  V30 8215 H 758.952 4.73199 3.48362 0
M  V30 8216 H 760.476 4.31672 4.31847 0
M  V30 8217 H 761.89 5.27011 2.25681 0
M  V30 8218 H 760.287 5.77126 1.64457 0
M  V30 8219 H 761.357 4.8108 0.60744 0
M  V30 8220 N 762.7 -0.34323 1.53817 0
M  V30 8221 C 763.63 -1.42709 1.84814 0
M  V30 8222 C 764.611 -1.5488 0.703297 0
M  V30 8223 O 765.796 -1.69082 0.955237 0
M  V30 8224 C 762.926 -2.79756 2.05801 0
M  V30 8225 C 761.88 -2.82392 3.21619 0
M  V30 8226 C 761.206 -4.22326 3.2794 0
M  V30 8227 C 762.506 -2.479 4.59721 0
M  V30 8228 H 764.2 -1.17018 2.75585 0
M  V30 8229 H 761.746 -0.561485 1.32602 0
M  V30 8230 H 763.699 -3.55627 2.26069 0
M  V30 8231 H 762.423 -3.06883 1.11761 0
M  V30 8232 H 761.082 -2.08974 3.01207 0
M  V30 8233 H 760.73 -4.46564 2.31494 0
M  V30 8234 H 760.43 -4.25001 4.05768 0
M  V30 8235 H 761.954 -5.00039 3.50419 0
M  V30 8236 H 763.368 -3.13484 4.80001 0
M  V30 8237 H 761.765 -2.61857 5.39954 0
M  V30 8238 H 762.835 -1.43087 4.63308 0
M  V30 8239 N 764.178 -1.45556 -0.604258 0
M  V30 8240 C 765.426 -1.4945 -1.36048 0
M  V30 8241 C 765.747 -0.138933 -1.94504 0
M  V30 8242 O 765.017 0.832097 -1.7735 0
M  V30 8243 H 763.597 -0.550381 -0.505064 0
M  V30 8244 H 766.259 -1.81535 -0.709308 0
M  V30 8245 H 765.355 -2.23519 -2.17821 0
M  V30 8246 N 765.656 0.84705 -1.32902 0
M  V30 8247 C 766.603 1.95624 -1.22473 0
M  V30 8248 C 767.573 1.65767 -0.105178 0
M  V30 8249 O 768.758 1.88704 -0.282042 0
M  V30 8250 C 765.898 3.31434 -0.961542 0
M  V30 8251 C 765.011 3.73741 -2.1666 0
M  V30 8252 C 764.146 4.98379 -1.83825 0
M  V30 8253 C 763.185 5.33199 -3.00609 0
M  V30 8254 N 762.322 6.49014 -2.67816 0
M  V30 8255 H 767.162 2.03875 -2.17345 0
M  V30 8256 H 764.699 0.997764 -1.08088 0
M  V30 8257 H 766.657 4.09663 -0.789411 0
M  V30 8258 H 765.287 3.22762 -0.0495938 0
M  V30 8259 H 764.339 2.91102 -2.44875 0
M  V30 8260 H 765.651 3.95462 -3.03993 0
M  V30 8261 H 764.805 5.84336 -1.63208 0
M  V30 8262 H 763.544 4.78611 -0.937172 0
M  V30 8263 H 762.549 4.4575 -3.21849 0
M  V30 8264 H 763.774 5.5492 -3.9146 0
M  V30 8265 H 761.72 6.30748 -1.80258 0
M  V30 8266 H 761.637 6.7079 -3.48679 0
M  V30 8267 H 762.905 7.38103 -2.50647 0
M  V30 8268 N 767.134 1.16236 1.06428 0
M  V30 8269 C 768.411 0.853294 1.76006 0
M  V30 8270 C 768.791 -0.649162 2.00871 0
M  V30 8271 O 768.139 -1.59653 1.63472 0
M  V30 8272 C 768.349 1.67448 3.06206 0
M  V30 8273 C 769.697 1.8866 3.80385 0
M  V30 8274 O 770.721 1.64303 3.16043 0
M  V30 8275 O 769.58 2.29518 4.95968 0
M  V30 8276 H 766.674 0.314737 0.764767 0
M  V30 8277 H 769.22 1.26865 1.12709 0
M  V30 8278 H 767.992 2.69411 2.83784 0
M  V30 8279 H 767.615 1.25608 3.77238 0
M  V30 8280 N 768.612 -1.24939 0.960631 0
M  V30 8281 C 769.545 -2.24116 0.429804 0
M  V30 8282 C 770.523 -1.54972 -0.492188 0
M  V30 8283 O 771.707 -1.83642 -0.42519 0
M  V30 8284 C 768.834 -3.36558 -0.380312 0
M  V30 8285 C 767.88 -4.23757 0.482941 0
M  V30 8286 S 768.713 -4.9994 1.91885 0
M  V30 8287 C 769.869 -6.15846 1.11732 0
M  V30 8288 H 770.102 -2.68795 1.27029 0
M  V30 8289 H 767.635 -1.34108 0.765141 0
M  V30 8290 H 769.593 -4.01777 -0.841764 0
M  V30 8291 H 768.254 -2.90451 -1.19569 0
M  V30 8292 H 767.447 -5.03809 -0.138699 0
M  V30 8293 H 767.049 -3.63504 0.879839 0
M  V30 8294 H 769.341 -6.76495 0.368898 0
M  V30 8295 H 770.284 -6.82356 1.89198 0
M  V30 8296 H 770.692 -5.60805 0.644812 0
M  V30 8297 O 770.129 -0.867795 -1.36204 0
M  V30 8298 H 770.82 -0.466586 -1.87996 0
M  V30 END ATOM
M  V30 BEGIN BOND
M  V30 END BOND
M  V30 END CTAB
M  END
$$$$
