drugbank_target|P23458 Tyrosine-protein kinase JAK1 (DB02375; DB04716; DB08877; DB08895; DB11817; DB12010; DB12500; DB14845; DB15091; DB15822)
 OpenBabel12092120473D

  0  0  0     0  0            999 V3000
M  V30 BEGIN CTAB
M  V30 COUNTS 18688 18892 0 0 0
M  V30 BEGIN ATOM
M  V30 1 H -0.908 1.98254 -0.117106 0
M  V30 2 N 0 1.576 0 0
M  V30 3 C 0.933 2.03868 1.02534 0
M  V30 4 C 1.911 0.928543 1.3348 0
M  V30 5 O 3.095 1.19667 1.45644 0
M  V30 6 C 0.222 2.43627 2.35294 0
M  V30 7 C -0.732 3.65373 2.2001 0
M  V30 8 S 0.101 5.13292 1.52614 0
M  V30 9 C 1.257 5.56322 2.86805 0
M  V30 10 H 1.49 2.90518 0.631377 0
M  V30 11 H -0.977 1.52953 0.210867 0
M  V30 12 H 0.981 2.67203 3.11629 0
M  V30 13 H -0.358 1.57376 2.7183 0
M  V30 14 H -1.165 3.90944 3.18086 0
M  V30 15 H -1.563 3.418 1.51819 0
M  V30 16 H 0.729 5.58782 3.83104 0
M  V30 17 H 1.672 6.56266 2.65933 0
M  V30 18 H 2.08 4.83886 2.90714 0
M  V30 19 N 1.4781 -0.272755 1.55222 0
M  V30 20 C 2.4101 -1.35946 1.8453 0
M  V30 21 C 3.4231 -1.45525 0.729818 0
M  V30 22 O 4.6121 -1.47337 1.00767 0
M  V30 23 C 1.7121 -2.74069 1.99347 0
M  V30 24 C 0.8851 -2.87079 3.30007 0
M  V30 25 C -0.0559 -4.05879 3.34886 0
M  V30 26 O -1.0299 -3.96626 4.08261 0
M  V30 27 N 0.1721 -5.17857 2.62307 0
M  V30 28 H 2.9371 -1.11149 2.78327 0
M  V30 29 H 0.4981 -0.462869 1.55142 0
M  V30 30 H 2.4901 -3.51838 1.99981 0
M  V30 31 H 1.0601 -2.91688 1.12415 0
M  V30 32 H 0.2801 -1.96193 3.41909 0
M  V30 33 H 1.5681 -2.92701 4.16177 0
M  V30 34 H 0.9661 -5.28261 2.02377 0
M  V30 35 H -0.4769 -5.93855 2.68663 0
M  V30 36 N 2.9562 -1.48159 -0.537278 0
M  V30 37 C 4.1862 -1.59223 -1.3165 0
M  V30 38 C 4.5942 -0.248849 -1.87556 0
M  V30 39 O 3.9372 0.770949 -1.6674 0
M  V30 40 C 3.9992 -2.57365 -2.51005 0
M  V30 41 C 3.6632 -4.02603 -2.16239 0
M  V30 42 C 4.6602 -4.90503 -1.72344 0
M  V30 43 C 2.3452 -4.48088 -2.26986 0
M  V30 44 C 4.3392 -6.21913 -1.39651 0
M  V30 45 C 2.0262 -5.7952 -1.93906 0
M  V30 46 C 3.0242 -6.66255 -1.50309 0
M  V30 47 O 2.7122 -7.95243 -1.17659 0
M  V30 48 H 2.4442 -0.539831 -0.406889 0
M  V30 49 H 4.9982 -1.94655 -0.655641 0
M  V30 50 H 3.2282 -2.1704 -3.20048 0
M  V30 51 H 4.9172 -2.58342 -3.13072 0
M  V30 52 H 5.6832 -4.56604 -1.63517 0
M  V30 53 H 1.5622 -3.80769 -2.59877 0
M  V30 54 H 5.1062 -6.89569 -1.0555 0
M  V30 55 H 1.0032 -6.12957 -2.02371 0
M  V30 56 H 1.7712 -8.0793 -1.31119 0
M  V30 57 N 4.4343 0.785586 -1.36625 0
M  V30 58 C 5.3643 1.91259 -1.33949 0
M  V30 59 C 6.3453 1.68795 -0.210325 0
M  V30 60 O 7.5303 1.89854 -0.408561 0
M  V30 61 C 4.6603 3.28339 -1.13186 0
M  V30 62 C 3.6143 3.65335 -2.22967 0
M  V30 63 C 2.9403 5.00806 -1.87342 0
M  V30 64 C 4.2403 3.7352 -3.65075 0
M  V30 65 H 5.9343 1.93755 -2.28253 0
M  V30 66 H 3.4803 0.930788 -1.09874 0
M  V30 67 H 5.4333 4.06804 -1.09948 0
M  V30 68 H 4.1573 3.2624 -0.153332 0
M  V30 69 H 2.8163 2.89169 -2.25337 0
M  V30 70 H 2.4643 4.95233 -0.880545 0
M  V30 71 H 2.1643 5.26529 -2.60846 0
M  V30 72 H 3.6883 5.81687 -1.85667 0
M  V30 73 H 5.1023 4.42168 -3.64911 0
M  V30 74 H 3.4993 4.10731 -4.37516 0
M  V30 75 H 4.5693 2.74527 -3.99703 0
M  V30 76 N 5.9124 1.20967 1.01018 0
M  V30 77 C 6.8604 0.961223 2.1181 0
M  V30 78 C 7.8544 -0.0897034 1.69162 0
M  V30 79 O 9.0604 0.0612271 1.79896 0
M  V30 80 H 5.4354 0.29355 0.692338 0
M  V30 81 H 7.4064 1.90178 2.29946 0
M  V30 82 C 6.1554 0.536854 3.4353 0
M  V30 83 H 5.4784 1.33713 3.76777 0
M  V30 84 H 6.9184 0.402286 4.22087 0
M  V30 85 C 5.3774 -0.751574 3.2841 0
M  V30 86 O 5.9074 -1.80841 3.58691 0
M  V30 87 N 4.1134 -0.716079 2.81639 0
M  V30 88 H 3.6604 0.144236 2.57196 0
M  V30 89 H 3.6184 -1.57847 2.71904 0
M  V30 90 N 7.3905 -1.2043 1.01659 0
M  V30 91 C 8.6395 -1.89118 0.701237 0
M  V30 92 C 8.9525 -1.79705 -0.772358 0
M  V30 93 O 10.1585 -2.43528 -1.20026 0
M  V30 94 C 8.6145 -3.39168 1.20388 0
M  V30 95 C 8.2225 -3.57166 2.70438 0
M  V30 96 C 9.9665 -4.1341 0.963953 0
M  V30 97 C 7.8735 -5.01042 3.14183 0
M  V30 98 H 6.8035 -0.708267 0.2586 0
M  V30 99 H 9.4545 -1.36239 1.22927 0
M  V30 100 H 7.8365 -3.91369 0.603824 0
M  V30 101 H 9.0105 -3.15351 3.35992 0
M  V30 102 H 7.3255 -2.96294 2.92572 0
M  V30 103 H 9.9225 -5.19491 1.26621 0
M  V30 104 H 10.2655 -4.16181 -0.099578 0
M  V30 105 H 10.7985 -3.67309 1.52738 0
M  V30 106 H 7.5375 -5.03426 4.19812 0
M  V30 107 H 7.0575 -5.43668 2.53348 0
M  V30 108 H 8.7365 -5.69623 3.0682 0
M  V30 109 N 8.8686 -0.792821 -1.36206 0
M  V30 110 C 9.8156 -0.191653 -2.30003 0
M  V30 111 C 10.7856 0.666453 -1.52143 0
M  V30 112 O 11.9706 0.61442 -1.80636 0
M  V30 113 C 9.1106 0.664848 -3.38635 0
M  V30 114 C 8.2236 -0.212175 -4.31479 0
M  V30 115 C 7.3586 0.651022 -5.27196 0
M  V30 116 C 6.3976 -0.227247 -6.11678 0
M  V30 117 N 5.5346 0.595127 -6.99573 0
M  V30 118 H 10.3746 -0.996978 -2.80828 0
M  V30 119 H 7.9116 -0.503206 -1.38225 0
M  V30 120 H 9.8696 1.17645 -4.00269 0
M  V30 121 H 8.4996 1.43557 -2.89122 0
M  V30 122 H 7.5516 -0.841777 -3.70969 0
M  V30 123 H 8.8636 -0.888751 -4.90818 0
M  V30 124 H 8.0176 1.2283 -5.94136 0
M  V30 125 H 6.7566 1.36121 -4.68319 0
M  V30 126 H 5.7616 -0.816904 -5.43697 0
M  V30 127 H 6.9866 -0.93509 -6.72631 0
M  V30 128 H 4.9326 1.28955 -6.432 0
M  V30 129 H 4.8496 -0.0236952 -7.55996 0
M  V30 130 H 6.1176 1.15613 -7.70879 0
M  V30 131 N 10.3467 1.47872 -0.545128 0
M  V30 132 C 11.2567 2.33633 0.212746 0
M  V30 133 C 12.2727 1.4744 0.923983 0
M  V30 134 O 13.4487 1.80393 0.895572 0
M  V30 135 C 10.5137 3.23884 1.23693 0
M  V30 136 C 9.5747 4.25961 0.534417 0
M  V30 137 C 8.8077 5.11899 1.5098 0
M  V30 138 O 9.0307 5.00077 2.7437 0
M  V30 139 O 7.9647 5.92831 1.0409 0
M  V30 140 H 11.7907 2.99714 -0.490416 0
M  V30 141 H 9.3757 1.46235 -0.305871 0
M  V30 142 H 11.2577 3.79666 1.82843 0
M  V30 143 H 9.9327 2.60446 1.92222 0
M  V30 144 H 8.8397 3.73972 -0.0979679 0
M  V30 145 H 10.1727 4.92079 -0.109213 0
M  V30 146 N 11.8248 0.280983 1.55075 0
M  V30 147 C 13.1018 -0.386207 1.91749 0
M  V30 148 C 13.4818 -1.73264 1.20594 0
M  V30 149 O 12.8298 -2.26034 0.334784 0
M  V30 150 C 13.0398 -0.520687 3.45094 0
M  V30 151 C 14.3878 -0.800865 4.16979 0
M  V30 152 O 15.4118 -0.605271 3.5102 0
M  V30 153 O 14.2708 -1.1753 5.33712 0
M  V30 154 H 11.3648 -0.212408 0.799257 0
M  V30 155 H 13.9108 0.327568 1.66509 0
M  V30 156 H 12.6828 0.426633 3.88967 0
M  V30 157 H 12.3058 -1.2837 3.76307 0
M  V30 158 N 13.3029 -1.57598 0.00835791 0
M  V30 159 C 14.5429 -1.92788 -0.679136 0
M  V30 160 C 14.9069 -0.883378 -1.70471 0
M  V30 161 O 16.1079 -1.12079 -2.44319 0
M  V30 162 C 14.3789 -3.32994 -1.29807 0
M  V30 163 S 15.9379 -3.90082 -2.00952 0
M  V30 164 H 12.7559 -0.67475 -0.224127 0
M  V30 165 H 15.3579 -1.95385 0.0670497 0
M  V30 166 H 14.0619 -4.06846 -0.538922 0
M  V30 167 H 13.5929 -3.33791 -2.082 0
M  V30 168 H 15.6079 -3.71834 -3.28563 0
M  V30 169 N 14.781 0.264519 -1.55364 0
M  V30 170 C 15.729 1.34702 -1.89626 0
M  V30 171 C 16.723 1.50712 -0.773459 0
M  V30 172 O 17.929 1.52395 -0.957897 0
M  V30 173 H 14.304 0.450682 -0.601988 0
M  V30 174 H 16.275 1.0306 -2.80038 0
M  V30 175 C 15.024 2.6989 -2.19214 0
M  V30 176 H 14.347 2.58365 -3.05103 0
M  V30 177 H 15.787 3.44553 -2.47102 0
M  V30 178 C 14.246 3.21637 -1.00254 0
M  V30 179 O 14.776 4.00973 -0.241501 0
M  V30 180 N 12.982 2.7943 -0.797938 0
M  V30 181 H 12.529 2.15026 -1.4185 0
M  V30 182 H 12.487 3.144 -0.00363422 0
M  V30 183 N 16.2591 1.48442 0.529413 0
M  V30 184 C 17.2221 1.62524 1.61612 0
M  V30 185 C 18.2221 0.498509 1.52877 0
M  V30 186 O 19.4121 0.76431 1.56537 0
M  V30 187 C 16.5441 1.59597 3.01233 0
M  V30 188 H 17.7371 2.59423 1.50465 0
M  V30 189 H 15.2901 1.37047 0.751514 0
M  V30 190 H 16.0251 0.641781 3.17886 0
M  V30 191 H 15.8101 2.41397 3.08982 0
M  V30 192 H 17.3001 1.72646 3.80241 0
M  V30 193 N 17.7372 -0.778329 1.37039 0
M  V30 194 C 18.6702 -1.8984 1.26633 0
M  V30 195 C 19.6482 -1.61923 0.148197 0
M  V30 196 O 20.8322 -1.85742 0.321265 0
M  V30 197 C 17.9592 -3.24916 0.956403 0
M  V30 198 C 17.0052 -3.71752 2.09051 0
M  V30 199 S 17.8382 -3.86201 3.70957 0
M  V30 200 C 18.9942 -5.24135 3.42101 0
M  V30 201 H 19.2272 -1.98377 2.21436 0
M  V30 202 H 16.7602 -0.938738 1.22585 0
M  V30 203 H 18.7182 -4.02936 0.784409 0
M  V30 204 H 17.3792 -3.14089 0.0259713 0
M  V30 205 H 16.5722 -4.69661 1.8285 0
M  V30 206 H 16.1742 -3.00815 2.2223 0
M  V30 207 H 18.4662 -6.09086 2.96682 0
M  V30 208 H 19.4092 -5.55346 4.39314 0
M  V30 209 H 19.8172 -4.91761 2.77185 0
M  V30 210 N 19.2153 -1.21501 -1.00376 0
M  V30 211 C 20.1783 -0.976927 -2.07337 0
M  V30 212 C 21.1783 0.0525322 -1.60714 0
M  V30 213 O 22.3683 -0.184869 -1.73216 0
M  V30 214 C 19.5003 -0.473423 -3.37597 0
M  V30 215 H 20.6933 -1.92587 -2.29892 0
M  V30 216 H 18.2463 -1.03217 -1.17371 0
M  V30 217 H 18.9813 0.480379 -3.20722 0
M  V30 218 H 18.7663 -1.216 -3.72768 0
M  V30 219 H 20.2563 -0.32675 -4.1632 0
M  V30 220 N 20.6934 1.19889 -1.02296 0
M  V30 221 C 21.9404 1.8942 -0.715972 0
M  V30 222 C 22.2684 1.79251 0.754944 0
M  V30 223 O 21.5234 1.17526 1.56481 0
M  V30 224 C 21.8224 3.39883 -1.10518 0
M  V30 225 C 21.4884 3.70254 -2.57337 0
M  V30 226 C 20.1504 3.78254 -2.97452 0
M  V30 227 C 22.5024 3.84052 -3.52354 0
M  V30 228 C 19.8304 3.97514 -4.31509 0
M  V30 229 C 22.1824 4.04824 -4.86108 0
M  V30 230 C 20.8464 4.11054 -5.25919 0
M  V30 231 H 20.1164 0.693138 -0.261993 0
M  V30 232 H 22.7634 1.42012 -1.28472 0
M  V30 233 H 21.0684 3.8915 -0.454953 0
M  V30 234 H 22.7654 3.9199 -0.845261 0
M  V30 235 H 19.3554 3.64632 -2.25258 0
M  V30 236 H 23.5394 3.77221 -3.22518 0
M  V30 237 H 18.7954 4.00574 -4.61898 0
M  V30 238 H 22.9694 4.14442 -5.59653 0
M  V30 239 H 20.5964 4.2573 -6.29808 0
M  V30 240 N 22.1715 0.800033 1.35784 0
M  V30 241 C 23.4115 0.382891 2.00782 0
M  V30 242 C 23.7755 -1.02891 1.62103 0
M  V30 243 O 24.9765 -1.54771 2.19771 0
M  V30 244 C 23.2475 0.553299 3.53091 0
M  V30 245 S 24.8065 0.225608 4.3822 0
M  V30 246 H 21.6245 0.145737 0.695904 0
M  V30 247 H 24.2265 1.04085 1.65489 0
M  V30 248 H 22.9305 1.58091 3.78729 0
M  V30 249 H 22.4615 -0.120214 3.93216 0
M  V30 250 H 24.4765 -0.969074 4.86645 0
M  V30 251 N 23.6496 -1.47581 0.552962 0
M  V30 252 C 24.6126 -2.28439 -0.186605 0
M  V30 253 C 25.6126 -1.36706 -0.84665 0
M  V30 254 O 26.8026 -1.59378 -0.703164 0
M  V30 255 C 23.9346 -3.16264 -1.2724 0
M  V30 256 H 25.1276 -2.95294 0.523609 0
M  V30 257 H 22.6806 -1.532 0.309745 0
M  V30 258 H 23.4156 -2.54091 -2.01514 0
M  V30 259 H 23.2006 -3.83769 -0.803968 0
M  V30 260 H 24.6906 -3.77198 -1.79196 0
M  V30 261 N 25.1277 -0.289203 -1.54924 0
M  V30 262 C 26.0747 0.592115 -2.23075 0
M  V30 263 C 27.0447 1.13881 -1.20915 0
M  V30 264 O 28.2297 1.18551 -1.495 0
M  V30 265 C 25.3697 1.76376 -2.96623 0
M  V30 266 C 24.4827 1.24959 -4.13533 0
M  V30 267 C 23.6177 2.38416 -4.74691 0
M  V30 268 C 22.6567 1.84072 -5.83767 0
M  V30 269 N 21.7937 2.91057 -6.38929 0
M  V30 270 H 26.6337 0.00432038 -2.98 0
M  V30 271 H 24.1707 -0.00963529 -1.47097 0
M  V30 272 H 26.1287 2.45268 -3.3749 0
M  V30 273 H 24.7587 2.32337 -2.24097 0
M  V30 274 H 23.8107 0.453307 -3.77689 0
M  V30 275 H 25.1227 0.811662 -4.92152 0
M  V30 276 H 24.2767 3.15276 -5.18349 0
M  V30 277 H 23.0157 2.8553 -3.95378 0
M  V30 278 H 22.0207 1.05697 -5.39545 0
M  V30 279 H 23.2457 1.37877 -6.64956 0
M  V30 280 H 21.1917 3.37526 -5.62505 0
M  V30 281 H 21.1087 2.51724 -7.12861 0
M  V30 282 H 22.3767 3.6785 -6.87246 0
M  V30 283 N 26.6058 1.57591 -0.0167156 0
M  V30 284 C 27.5388 2.04944 1.00366 0
M  V30 285 C 28.5168 0.942648 1.32487 0
M  V30 286 O 29.7008 1.21205 1.44367 0
M  V30 287 C 26.8278 2.46109 2.32697 0
M  V30 288 C 25.8738 3.67686 2.16123 0
M  V30 289 S 26.7068 5.14882 1.47161 0
M  V30 290 C 27.8628 5.59332 2.80888 0
M  V30 291 H 28.0958 2.91172 0.600528 0
M  V30 292 H 25.6288 1.53168 0.194632 0
M  V30 293 H 27.5868 2.70493 3.08778 0
M  V30 294 H 26.2478 1.6025 2.70146 0
M  V30 295 H 25.4408 3.94296 3.13922 0
M  V30 296 H 25.0428 3.43391 1.48185 0
M  V30 297 H 27.3348 5.62814 3.77156 0
M  V30 298 H 28.2778 6.5905 2.58958 0
M  V30 299 H 28.6858 4.86942 2.85565 0
M  V30 300 N 28.0839 -0.256276 1.55502 0
M  V30 301 C 29.4999 -0.604325 1.47716 0
M  V30 302 C 29.6999 -1.88763 0.705039 0
M  V30 303 O 28.7559 -2.51445 0.230613 0
M  V30 304 C 30.0689 -0.715756 2.92057 0
M  V30 305 C 31.6169 -0.808706 3.02372 0
M  V30 306 C 32.0919 -0.951777 4.48001 0
M  V30 307 N 33.5829 -1.01688 4.519 0
M  V30 308 C 34.3179 -1.14668 5.61817 0
M  V30 309 N 33.8139 -1.24261 6.81565 0
M  V30 310 N 35.6069 -1.1791 5.49594 0
M  V30 311 H 27.7579 0.586291 2.04148 0
M  V30 312 H 30.0209 0.201015 0.926443 0
M  V30 313 H 29.7269 0.157027 3.51349 0
M  V30 314 H 29.6009 -1.59071 3.42018 0
M  V30 315 H 31.9879 -1.67195 2.43166 0
M  V30 316 H 32.0689 0.0912063 2.55637 0
M  V30 317 H 31.7129 -0.0931291 5.07815 0
M  V30 318 H 31.6429 -1.86659 4.92408 0
M  V30 319 H 34.1339 -0.954468 3.65648 0
M  V30 320 H 34.4469 -1.34046 7.61086 0
M  V30 321 H 32.7919 -1.21236 6.84344 0
M  V30 322 H 35.9829 -1.10057 4.54978 0
M  V30 323 H 36.1559 -1.27681 6.35296 0
M  V30 324 N 29.562 -1.4872 -0.521534 0
M  V30 325 C 30.787 -1.61101 -1.30618 0
M  V30 326 C 31.212 -0.274611 -1.86085 0
M  V30 327 O 30.57 0.754937 -1.64834 0
M  V30 328 C 30.618 -2.66709 -2.4269 0
M  V30 329 O 29.722 -2.24456 -3.45967 0
M  V30 330 H 29.063 -0.539921 -0.386499 0
M  V30 331 H 31.593 -1.94767 -0.626645 0
M  V30 332 H 31.603 -2.88245 -2.88754 0
M  V30 333 H 30.278 -3.63727 -2.01682 0
M  V30 334 H 28.855 -2.13168 -3.05964 0
M  V30 335 N 31.0401 0.771051 -1.3745 0
M  V30 336 C 32.2651 1.56529 -1.36065 0
M  V30 337 C 32.6901 1.88029 0.0515859 0
M  V30 338 O 32.0481 1.49282 1.02882 0
M  V30 339 C 32.0961 2.85187 -2.20683 0
M  V30 340 O 31.2001 3.79593 -1.61193 0
M  V30 341 H 30.5411 0.47411 -0.464883 0
M  V30 342 H 33.0711 0.954269 -1.80983 0
M  V30 343 H 33.0811 3.34283 -2.33921 0
M  V30 344 H 31.7561 2.61588 -3.23334 0
M  V30 345 H 30.3331 3.38239 -1.56999 0
M  V30 346 N 32.5182 1.22032 0.997298 0
M  V30 347 C 33.4652 0.986467 2.08656 0
M  V30 348 C 34.4352 -0.0902671 1.65855 0
M  V30 349 O 35.6202 0.0584294 1.90711 0
M  V30 350 C 32.7602 0.565569 3.40434 0
M  V30 351 C 31.8732 1.71259 3.96604 0
M  V30 352 C 31.0082 1.24011 5.16522 0
M  V30 353 C 30.0472 2.35896 5.64818 0
M  V30 354 N 29.1842 1.89726 6.7598 0
M  V30 355 H 34.0242 1.91892 2.27994 0
M  V30 356 H 31.5612 0.956199 1.11782 0
M  V30 357 H 33.5192 0.302738 4.161 0
M  V30 358 H 32.1492 -0.329879 3.2111 0
M  V30 359 H 31.2012 2.08986 3.17851 0
M  V30 360 H 32.5132 2.55436 4.28432 0
M  V30 361 H 31.6672 0.934395 5.99461 0
M  V30 362 H 30.4062 0.368487 4.86306 0
M  V30 363 H 29.4112 2.67261 4.8047 0
M  V30 364 H 30.6362 3.23567 5.97061 0
M  V30 365 H 28.5822 1.0492 6.47555 0
M  V30 366 H 28.4992 2.67471 7.07103 0
M  V30 367 H 29.7672 1.62211 7.62435 0
M  V30 368 N 33.9963 -1.19345 1.0293 0
M  V30 369 C 34.9433 -2.2258 0.610464 0
M  V30 370 C 35.9133 -1.6179 -0.375946 0
M  V30 371 O 37.0983 -1.88844 -0.272511 0
M  V30 372 C 34.2383 -3.45085 -0.0321473 0
M  V30 373 C 33.3513 -4.20258 1.00035 0
M  V30 374 C 32.4863 -5.3019 0.32746 0
M  V30 375 C 31.5253 -5.97121 1.34584 0
M  V30 376 N 30.6623 -6.98615 0.698726 0
M  V30 377 H 35.5023 -2.57764 1.49538 0
M  V30 378 H 33.0393 -1.26644 0.748311 0
M  V30 379 H 34.9973 -4.15061 -0.421966 0
M  V30 380 H 33.6273 -3.10555 -0.88064 0
M  V30 381 H 32.6793 -3.49223 1.50823 0
M  V30 382 H 33.9913 -4.66175 1.77433 0
M  V30 383 H 33.1453 -6.06587 -0.11718 0
M  V30 384 H 31.8843 -4.85345 -0.478713 0
M  V30 385 H 30.8893 -5.19474 1.80074 0
M  V30 386 H 32.1143 -6.4405 2.15352 0
M  V30 387 H 30.0603 -6.55942 -0.0873471 0
M  V30 388 H 29.9773 -7.42724 1.41058 0
M  V30 389 H 31.2453 -7.79004 0.278102 0
M  V30 390 N 35.4744 -0.807222 -1.35358 0
M  V30 391 C 36.7024 -0.400377 -2.02989 0
M  V30 392 C 37.1174 0.988859 -1.60832 0
M  V30 393 O 36.4744 1.63729 -0.806175 0
M  V30 394 C 36.5254 -0.474867 -3.58368 0
M  V30 395 O 36.2464 -1.80933 -3.98992 0
M  V30 396 C 37.7474 -0.0609112 -4.43258 0
M  V30 397 H 34.9674 -0.162587 -0.651004 0
M  V30 398 H 37.5114 -1.09102 -1.72965 0
M  V30 399 H 35.6664 0.167534 -3.87038 0
M  V30 400 H 36.0804 -1.77256 -4.9364 0
M  V30 401 H 37.5544 -0.164145 -5.51756 0
M  V30 402 H 38.0314 0.993831 -4.27808 0
M  V30 403 H 38.6374 -0.676492 -4.19885 0
M  V30 404 N 36.9525 1.47285 -0.560781 0
M  V30 405 C 37.8625 2.33846 0.187954 0
M  V30 406 C 38.8785 1.48412 0.908293 0
M  V30 407 O 40.0545 1.81332 0.876388 0
M  V30 408 C 37.1195 3.25178 1.2025 0
M  V30 409 C 36.1805 4.26504 0.489208 0
M  V30 410 C 35.4135 5.13472 1.45542 0
M  V30 411 O 35.6365 5.02959 2.6905 0
M  V30 412 O 34.5705 5.93902 0.977963 0
M  V30 413 H 38.3965 2.99177 -0.522177 0
M  V30 414 H 35.9815 1.45903 -0.321364 0
M  V30 415 H 37.8635 3.81584 1.78805 0
M  V30 416 H 36.5385 2.6247 1.89449 0
M  V30 417 H 35.4455 3.73847 -0.137627 0
M  V30 418 H 36.7785 4.91935 -0.161399 0
M  V30 419 N 38.4306 0.297415 1.54768 0
M  V30 420 C 39.6766 -0.313376 2.00364 0
M  V30 421 C 40.0096 -1.53815 1.18553 0
M  V30 422 O 39.2846 -1.92739 0.261103 0
M  V30 423 C 39.5676 -0.673525 3.53745 0
M  V30 424 C 39.4206 0.560133 4.46299 0
M  V30 425 C 40.7396 -1.50143 4.13697 0
M  V30 426 H 37.8586 -0.112428 0.728374 0
M  V30 427 H 40.5006 0.4088 1.8555 0
M  V30 428 H 38.6506 -1.28881 3.665 0
M  V30 429 H 40.3226 1.19863 4.45455 0
M  V30 430 H 38.5656 1.19405 4.17043 0
M  V30 431 H 39.2366 0.26405 5.51368 0
M  V30 432 H 41.7126 -0.981588 4.04356 0
M  V30 433 H 40.5886 -1.72221 5.21182 0
M  V30 434 H 40.8496 -2.48952 3.65343 0
M  V30 435 N 39.9087 -1.5758 0.0250728 0
M  V30 436 C 40.8567 -2.11125 -0.97617 0
M  V30 437 C 41.8507 -1.03689 -1.33959 0
M  V30 438 O 43.0567 -1.22128 -1.3223 0
M  V30 439 H 39.4317 -0.674468 -0.332561 0
M  V30 440 H 41.4027 -2.94194 -0.499223 0
M  V30 441 C 40.1517 -2.65017 -2.2508 0
M  V30 442 H 39.4747 -3.47333 -1.9799 0
M  V30 443 H 40.9147 -3.06133 -2.93357 0
M  V30 444 C 39.3737 -1.57574 -2.97779 0
M  V30 445 O 39.9037 -0.973203 -3.89733 0
M  V30 446 N 38.1097 -1.29716 -2.60043 0
M  V30 447 H 37.6567 -1.789 -1.85345 0
M  V30 448 H 37.6147 -0.58051 -3.08994 0
M  V30 449 N 41.3868 0.248026 -1.55636 0
M  V30 450 C 42.3168 1.31079 -1.93237 0
M  V30 451 C 43.2978 1.50264 -0.797174 0
M  V30 452 O 44.4828 1.62891 -1.05737 0
M  V30 453 C 41.6128 2.66575 -2.22609 0
M  V30 454 C 40.5668 2.62087 -3.3837 0
M  V30 455 C 39.8928 4.01369 -3.53281 0
M  V30 456 C 41.1928 2.19171 -4.7409 0
M  V30 457 H 42.8868 0.998556 -2.82257 0
M  V30 458 H 40.4328 0.47891 -1.35803 0
M  V30 459 H 42.3858 3.41057 -2.47503 0
M  V30 460 H 41.1098 2.99432 -1.30414 0
M  V30 461 H 39.7688 1.90063 -3.13483 0
M  V30 462 H 39.4168 4.31489 -2.58508 0
M  V30 463 H 39.1168 3.99254 -4.31127 0
M  V30 464 H 40.6408 4.77552 -3.80495 0
M  V30 465 H 42.0548 2.83384 -4.98363 0
M  V30 466 H 40.4518 2.2817 -5.5503 0
M  V30 467 H 41.5218 1.14336 -4.71227 0
M  V30 468 N 42.8649 1.48995 0.513639 0
M  V30 469 C 43.7749 1.67443 1.64317 0
M  V30 470 C 44.7909 0.556947 1.64846 0
M  V30 471 O 45.9669 0.830082 1.83498 0
M  V30 472 C 43.0319 1.72515 3.00732 0
M  V30 473 C 42.0929 2.96009 3.1093 0
M  V30 474 C 41.3259 3.00829 4.40837 0
M  V30 475 O 41.5489 2.13594 5.28898 0
M  V30 476 O 40.4829 3.93168 4.55744 0
M  V30 477 H 44.3089 2.63106 1.51687 0
M  V30 478 H 41.8939 1.32588 0.688543 0
M  V30 479 H 43.7759 1.78277 3.81831 0
M  V30 480 H 42.4509 0.800278 3.13651 0
M  V30 481 H 41.3579 2.9577 2.29065 0
M  V30 482 H 42.6909 3.87934 3.02933 0
M  V30 483 N 44.343 -0.763751 1.37857 0
M  V30 484 C 45.306 -1.85889 1.34081 0
M  V30 485 C 46.306 -1.58949 0.243277 0
M  V30 486 O 47.496 -1.66882 0.499589 0
M  V30 487 C 44.628 -3.23176 1.08489 0
M  V30 488 H 45.821 -1.90648 2.31502 0
M  V30 489 H 43.374 -0.964367 1.23003 0
M  V30 490 H 44.109 -3.24091 0.116318 0
M  V30 491 H 43.894 -3.44124 1.8794 0
M  V30 492 H 45.384 -4.03254 1.08517 0
M  V30 493 N 45.8211 -1.22559 -0.990812 0
M  V30 494 C 47.2321 -1.04791 -1.54518 0
M  V30 495 C 47.5831 0.387998 -1.92325 0
M  V30 496 O 46.7081 1.27328 -1.74976 0
M  V30 497 C 47.3031 -1.896 -2.80779 0
M  V30 498 C 45.8621 -1.76124 -3.32652 0
M  V30 499 C 45.0091 -1.8594 -2.05722 0
M  V30 500 H 47.9601 -1.36374 -0.811662 0
M  V30 501 H 47.9811 -1.41464 -3.53225 0
M  V30 502 H 47.4931 -2.94101 -2.53231 0
M  V30 503 H 45.5941 -0.743643 -3.65104 0
M  V30 504 H 45.7071 -2.58913 -4.03114 0
M  V30 505 H 44.0711 -1.29403 -2.19379 0
M  V30 506 H 44.8541 -2.91976 -1.80568 0
M  V30 507 N 47.2992 1.18797 -1.03562 0
M  V30 508 C 48.2092 2.25913 -0.632505 0
M  V30 509 C 49.2252 1.70668 0.338882 0
M  V30 510 O 50.4012 2.00453 0.195076 0
M  V30 511 C 47.4662 3.467 0.00350942 0
M  V30 512 C 46.5272 4.17098 -1.01624 0
M  V30 513 C 45.7602 5.32119 -0.410478 0
M  V30 514 O 45.9832 5.64976 0.784725 0
M  V30 515 O 44.9172 5.9107 -1.13667 0
M  V30 516 H 48.7432 2.62648 -1.52478 0
M  V30 517 H 46.3282 1.25781 -0.806195 0
M  V30 518 H 48.2102 4.19878 0.35781 0
M  V30 519 H 46.8852 3.11798 0.869686 0
M  V30 520 H 45.7922 3.4601 -1.42224 0
M  V30 521 H 47.1252 4.55987 -1.85301 0
M  V30 522 N 48.7773 0.814389 1.34928 0
M  V30 523 C 50.1883 0.458364 1.80986 0
M  V30 524 C 50.5393 -1.02042 1.67577 0
M  V30 525 O 49.6643 -1.79352 1.21086 0
M  V30 526 C 50.2593 0.825212 3.28597 0
M  V30 527 C 48.8183 0.521677 3.72767 0
M  V30 528 C 47.9653 1.04668 2.56788 0
M  V30 529 H 50.9163 1.00533 1.22795 0
M  V30 530 H 50.9373 0.12571 3.80292 0
M  V30 531 H 50.4493 1.90154 3.38324 0
M  V30 532 H 48.5503 -0.545589 3.68584 0
M  V30 533 H 48.6633 1.05977 4.67232 0
M  V30 534 H 47.0273 0.468622 2.50352 0
M  V30 535 H 47.8103 2.12927 2.6929 0
M  V30 536 N 50.2554 -1.46986 0.568584 0
M  V30 537 C 51.5034 -2.02041 0.0487022 0
M  V30 538 C 51.8244 -1.44408 -1.31039 0
M  V30 539 O 51.0944 -0.623477 -1.85714 0
M  V30 540 H 49.6744 -0.746849 0.015014 0
M  V30 541 H 52.3364 -1.80257 0.741168 0
M  V30 542 H 51.4324 -3.12085 -0.0308961 0
M  V30 543 N 51.7335 -0.305618 -1.54608 0
M  V30 544 C 52.9795 0.302746 -2.00528 0
M  V30 545 C 53.3125 1.53184 -1.19367 0
M  V30 546 O 52.5875 1.92598 -0.271321 0
M  V30 547 C 52.8705 0.654756 -3.54097 0
M  V30 548 C 52.7235 -0.583793 -4.45995 0
M  V30 549 C 54.0425 1.47947 -4.14487 0
M  V30 550 H 51.1615 0.108564 -0.72896 0
M  V30 551 H 53.8035 -0.418634 -1.85331 0
M  V30 552 H 51.9535 1.26935 -3.67178 0
M  V30 553 H 53.6255 -1.22224 -4.44814 0
M  V30 554 H 51.8685 -1.21615 -4.16404 0
M  V30 555 H 52.5395 -0.293287 -5.5122 0
M  V30 556 H 55.0155 0.96013 -4.04871 0
M  V30 557 H 53.8915 1.69454 -5.22088 0
M  V30 558 H 54.1525 2.47011 -3.66658 0
M  V30 559 N 53.2116 1.57565 -0.0334293 0
M  V30 560 C 54.1216 2.13943 0.962572 0
M  V30 561 C 55.1376 1.09276 1.35406 0
M  V30 562 O 56.3136 1.41355 1.4346 0
M  V30 563 C 53.3786 2.65887 2.22497 0
M  V30 564 C 52.4396 3.85286 1.8935 0
M  V30 565 C 51.6726 4.34743 3.09571 0
M  V30 566 O 51.8956 3.83352 4.22371 0
M  V30 567 O 50.8296 5.26538 2.91618 0
M  V30 568 H 54.6556 2.99333 0.513169 0
M  V30 569 H 52.2406 1.4822 0.18743 0
M  V30 570 H 54.1226 2.99346 2.96598 0
M  V30 571 H 52.7976 1.83578 2.6661 0
M  V30 572 H 51.7046 3.56746 1.1262 0
M  V30 573 H 53.0376 4.68771 1.5005 0
M  V30 574 N 54.6897 -0.239769 1.55765 0
M  V30 575 C 55.9357 -0.968234 1.78194 0
M  V30 576 C 56.2687 -1.84701 0.599938 0
M  V30 577 O 55.5437 -1.9031 -0.401524 0
M  V30 578 C 55.8267 -1.8227 3.10564 0
M  V30 579 C 55.6797 -0.971633 4.3918 0
M  V30 580 C 56.9987 -2.80388 3.39221 0
M  V30 581 H 54.1177 -0.350572 0.648281 0
M  V30 582 H 56.7597 -0.238259 1.885 0
M  V30 583 H 54.9097 -2.44507 3.01908 0
M  V30 584 H 56.5817 -0.367408 4.59835 0
M  V30 585 H 54.8247 -0.276276 4.32919 0
M  V30 586 H 55.4957 -1.60346 5.28198 0
M  V30 587 H 57.9717 -2.28287 3.47885 0
M  V30 588 H 56.8477 -3.3729 4.33044 0
M  V30 589 H 57.1087 -3.57212 2.60484 0
M  V30 590 N 56.1678 -1.49265 -0.50573 0
M  V30 591 C 57.4168 -1.57761 -1.25675 0
M  V30 592 C 57.7298 -0.267371 -1.93764 0
M  V30 593 O 58.9358 -0.230827 -2.70517 0
M  V30 594 C 57.3918 -2.78332 -2.28165 0
M  V30 595 C 56.9998 -4.16096 -1.66037 0
M  V30 596 C 58.7438 -2.96155 -3.04125 0
M  V30 597 C 56.6508 -5.27895 -2.6661 0
M  V30 598 H 55.5808 -0.587391 -0.472745 0
M  V30 599 H 58.2318 -1.75644 -0.53118 0
M  V30 600 H 56.6138 -2.53934 -3.03865 0
M  V30 601 H 57.7878 -4.50612 -0.963622 0
M  V30 602 H 56.1028 -4.03591 -1.02484 0
M  V30 603 H 58.6998 -3.76849 -3.79327 0
M  V30 604 H 59.0428 -2.06534 -3.61455 0
M  V30 605 H 59.5758 -3.2057 -2.35541 0
M  V30 606 H 56.3148 -6.1956 -2.14068 0
M  V30 607 H 55.8348 -4.97839 -3.34539 0
M  V30 608 H 57.5138 -5.57031 -3.29129 0
M  V30 609 N 57.6459 0.756429 -1.3826 0
M  V30 610 C 58.8929 1.51547 -1.34312 0
M  V30 611 C 59.2209 1.94382 0.0677144 0
M  V30 612 O 58.4759 1.65514 1.04421 0
M  V30 613 C 58.7749 2.78313 -2.24224 0
M  V30 614 C 58.4409 2.54455 -3.72241 0
M  V30 615 C 57.1029 2.47657 -4.12576 0
M  V30 616 C 59.4549 2.3354 -4.65949 0
M  V30 617 C 56.7829 2.17956 -5.44713 0
M  V30 618 C 59.1349 2.05359 -5.9834 0
M  V30 619 C 57.7989 1.97016 -6.37762 0
M  V30 620 H 57.0689 0.55455 -0.491482 0
M  V30 621 H 59.7159 0.870039 -1.70595 0
M  V30 622 H 58.0209 3.47492 -1.80987 0
M  V30 623 H 59.7179 3.36259 -2.18474 0
M  V30 624 H 56.3079 2.60616 -3.40261 0
M  V30 625 H 60.4919 2.37772 -4.35635 0
M  V30 626 H 55.7479 2.10003 -5.74203 0
M  V30 627 H 59.9219 1.88179 -6.70494 0
M  V30 628 H 57.5489 1.73766 -7.40074 0
M  V30 629 N 59.124 1.23083 0.984299 0
M  V30 630 C 60.354 1.08556 1.75781 0
M  V30 631 C 60.762 -0.366171 1.85623 0
M  V30 632 O 60.105 -1.26524 1.33182 0
M  V30 633 C 60.167 1.63208 3.20318 0
M  V30 634 C 59.831 3.11922 3.33997 0
M  V30 635 C 60.828 4.09259 3.2063 0
M  V30 636 C 58.513 3.51552 3.58771 0
M  V30 637 C 60.507 5.4421 3.31835 0
M  V30 638 C 58.194 4.86649 3.69616 0
M  V30 639 C 59.192 5.82787 3.56157 0
M  V30 640 O 58.88 7.15431 3.66626 0
M  V30 641 H 58.612 0.380713 0.5586 0
M  V30 642 H 61.166 1.63321 1.2456 0
M  V30 643 H 59.396 1.0286 3.72769 0
M  V30 644 H 61.085 1.44216 3.79416 0
M  V30 645 H 61.851 3.79984 3.01392 0
M  V30 646 H 57.73 2.77239 3.6832 0
M  V30 647 H 61.274 6.1923 3.21247 0
M  V30 648 H 57.171 5.15601 3.88363 0
M  V30 649 H 57.939 7.23127 3.83445 0
M  V30 650 N 60.6021 -1.18246 1.0419 0
M  V30 651 C 61.5321 -2.24127 0.654914 0
M  V30 652 C 62.5131 -1.66617 -0.342451 0
M  V30 653 O 63.6981 -1.92924 -0.222277 0
M  V30 654 C 60.8281 -3.47295 0.0183757 0
M  V30 655 C 59.7821 -4.17563 0.939414 0
M  V30 656 C 59.1081 -5.34438 0.167286 0
M  V30 657 C 60.4081 -4.70917 2.25908 0
M  V30 658 H 62.1021 -2.56753 1.54007 0
M  V30 659 H 59.6481 -1.23414 0.74195 0
M  V30 660 H 61.6011 -4.20572 -0.264082 0
M  V30 661 H 60.3251 -3.13907 -0.901664 0
M  V30 662 H 58.9841 -3.46186 1.20628 0
M  V30 663 H 58.6321 -4.97298 -0.7552 0
M  V30 664 H 58.3321 -5.82388 0.780901 0
M  V30 665 H 59.8561 -6.10504 -0.108125 0
M  V30 666 H 61.2701 -5.35882 2.03724 0
M  V30 667 H 59.6671 -5.29406 2.82577 0
M  V30 668 H 60.7371 -3.88272 2.9047 0
M  V30 669 N 62.0802 -0.821533 -1.34494 0
M  V30 670 C 63.3052 -0.420873 -2.03085 0
M  V30 671 C 63.7302 0.964915 -1.61465 0
M  V30 672 O 63.0882 1.62763 -0.798607 0
M  V30 673 C 63.1362 -0.529414 -3.56693 0
M  V30 674 O 62.2402 0.451302 -4.09923 0
M  V30 675 H 61.5812 -0.173489 -0.640935 0
M  V30 676 H 64.1112 -1.11157 -1.71771 0
M  V30 677 H 64.1212 -0.404671 -4.05988 0
M  V30 678 H 62.7962 -1.54014 -3.86332 0
M  V30 679 H 61.3732 0.285558 -3.71805 0
M  V30 680 N 63.5583 1.46682 -0.576371 0
M  V30 681 C 64.8353 1.95599 0.00703437 0
M  V30 682 C 65.2153 1.51904 1.46589 0
M  V30 683 O 64.5633 0.766755 2.15251 0
M  V30 684 C 64.7733 3.4864 -0.158404 0
M  V30 685 C 66.1213 4.24594 -0.0229439 0
M  V30 686 O 67.1453 3.56094 -0.0869173 0
M  V30 687 O 66.0043 5.46373 0.118015 0
M  V30 688 H 63.0983 0.825275 0.053384 0
M  V30 689 H 65.6443 1.56996 -0.644244 0
M  V30 690 H 64.4163 3.7331 -1.17282 0
M  V30 691 H 64.0393 3.94057 0.5296 0
M  V30 692 N 65.0364 0.313813 1.54444 0
M  V30 693 C 66.4524 -0.0391619 1.59552 0
M  V30 694 C 66.6524 -1.51322 1.33056 0
M  V30 695 O 65.7084 -2.26782 1.11022 0
M  V30 696 C 67.0214 0.370302 2.98411 0
M  V30 697 C 68.5694 0.320139 3.11358 0
M  V30 698 C 69.0444 0.704617 4.52547 0
M  V30 699 N 70.5354 0.657645 4.58508 0
M  V30 700 C 71.2704 0.927453 5.6585 0
M  V30 701 N 70.7664 1.26389 6.81174 0
M  V30 702 N 72.5594 0.853662 5.5558 0
M  V30 703 H 64.7104 1.27433 1.69925 0
M  V30 704 H 66.9734 0.517511 0.794284 0
M  V30 705 H 66.6794 1.39694 3.22767 0
M  V30 706 H 66.5534 -0.269619 3.76235 0
M  V30 707 H 68.9404 -0.697275 2.86744 0
M  V30 708 H 69.0214 0.99486 2.35661 0
M  V30 709 H 68.6654 1.7199 4.77893 0
M  V30 710 H 68.5954 0.00768843 5.26599 0
M  V30 711 H 71.0864 0.409067 3.75679 0
M  V30 712 H 71.3994 1.4554 7.58972 0
M  V30 713 H 69.7444 1.30206 6.82694 0
M  V30 714 H 72.9354 0.590383 4.64362 0
M  V30 715 H 73.1084 1.0673 6.3915 0
M  V30 716 N 66.5145 -1.57545 0.0417849 0
M  V30 717 C 67.4245 -2.14451 -0.951213 0
M  V30 718 C 68.4405 -1.09992 -1.34825 0
M  V30 719 O 69.6165 -1.42114 -1.42708 0
M  V30 720 C 66.6815 -2.67063 -2.21084 0
M  V30 721 C 65.7425 -3.86284 -1.87304 0
M  V30 722 C 64.9755 -4.36378 -3.07261 0
M  V30 723 O 65.1985 -3.85587 -4.20332 0
M  V30 724 O 64.1325 -5.28077 -2.88822 0
M  V30 725 H 67.9585 -2.99601 -0.497287 0
M  V30 726 H 65.5435 -1.48317 -0.179567 0
M  V30 727 H 67.4255 -3.00914 -2.95006 0
M  V30 728 H 66.1005 -1.84989 -2.65633 0
M  V30 729 H 65.0075 -3.57338 -1.10727 0
M  V30 730 H 66.3405 -4.6956 -1.47562 0
M  V30 731 N 67.9926 0.231505 -1.5589 0
M  V30 732 C 69.4036 0.799327 -1.68724 0
M  V30 733 C 69.7546 1.85398 -0.642022 0
M  V30 734 O 68.8796 2.1539 0.208784 0
M  V30 735 C 69.4746 1.45664 -3.05888 0
M  V30 736 C 68.0336 1.97197 -3.20609 0
M  V30 737 C 67.1806 0.828552 -2.64632 0
M  V30 738 H 70.1316 0.00702616 -1.58698 0
M  V30 739 H 70.1526 2.32517 -3.01191 0
M  V30 740 H 69.6646 0.688808 -3.81939 0
M  V30 741 H 67.7656 2.76813 -2.4941 0
M  V30 742 H 67.8786 2.15878 -4.27707 0
M  V30 743 H 66.2426 1.23321 -2.22854 0
M  V30 744 H 67.0256 0.0735544 -3.43221 0
M  V30 745 N 69.4707 1.49531 0.497807 0
M  V30 746 C 70.4007 1.6935 1.60757 0
M  V30 747 C 71.3817 0.542218 1.61227 0
M  V30 748 O 72.5667 0.778417 1.77917 0
M  V30 749 C 69.6967 1.76298 2.99226 0
M  V30 750 C 68.6507 2.91248 3.13622 0
M  V30 751 C 67.9767 2.83312 4.53474 0
M  V30 752 C 69.2767 4.3214 2.93346 0
M  V30 753 H 70.9707 2.62263 1.44425 0
M  V30 754 H 68.5167 1.26208 0.693367 0
M  V30 755 H 70.4697 1.88749 3.76765 0
M  V30 756 H 69.1937 0.799871 3.16654 0
M  V30 757 H 67.8527 2.78404 2.38509 0
M  V30 758 H 67.5007 1.84902 4.67782 0
M  V30 759 H 67.2007 3.60465 4.64046 0
M  V30 760 H 68.7247 2.97775 5.33069 0
M  V30 761 H 70.1387 4.45649 3.60652 0
M  V30 762 H 68.5357 5.1054 3.15387 0
M  V30 763 H 69.6057 4.46363 1.89441 0
M  V30 764 N 70.9488 -0.749086 1.3866 0
M  V30 765 C 72.3648 -1.05276 1.19955 0
M  V30 766 C 72.5648 -2.01435 0.05134 0
M  V30 767 O 71.6208 -2.45232 -0.60147 0
M  V30 768 C 72.9338 -1.62853 2.52783 0
M  V30 769 C 74.4818 -1.75002 2.59506 0
M  V30 770 C 74.9568 -2.35991 3.92521 0
M  V30 771 N 76.4478 -2.43416 3.94085 0
M  V30 772 C 77.1828 -2.91511 4.9377 0
M  V30 773 N 76.6788 -3.39608 6.03853 0
M  V30 774 N 78.4718 -2.90592 4.81157 0
M  V30 775 H 70.6228 -0.111066 2.12109 0
M  V30 776 H 72.8858 -0.111901 0.941373 0
M  V30 777 H 72.5918 -0.99664 3.37283 0
M  V30 778 H 72.4658 -2.61854 2.715 0
M  V30 779 H 74.8528 -2.37317 1.75398 0
M  V30 780 H 74.9338 -0.74693 2.44652 0
M  V30 781 H 74.5778 -1.74308 4.77053 0
M  V30 782 H 74.5078 -3.3695 4.04688 0
M  V30 783 H 76.9988 -2.09405 3.14576 0
M  V30 784 H 77.3118 -3.74775 6.75843 0
M  V30 785 H 75.6568 -3.37653 6.07466 0
M  V30 786 H 78.8478 -2.52332 3.94267 0
M  V30 787 H 79.0208 -3.27762 5.58996 0
M  V30 788 N 72.4269 -1.23603 -0.977757 0
M  V30 789 C 73.3569 -1.04401 -2.0886 0
M  V30 790 C 74.3379 0.0399052 -1.70053 0
M  V30 791 O 75.5229 -0.125246 -1.93796 0
M  V30 792 C 72.6529 -0.637269 -3.41403 0
M  V30 793 C 71.6069 -1.66883 -3.94124 0
M  V30 794 C 70.9329 -1.11745 -5.22893 0
M  V30 795 C 72.2329 -3.06247 -4.23096 0
M  V30 796 H 73.9269 -1.97316 -2.25182 0
M  V30 797 H 71.4729 -0.950096 -1.08209 0
M  V30 798 H 73.4259 -0.48998 -4.18542 0
M  V30 799 H 72.1499 0.327557 -3.24953 0
M  V30 800 H 70.8089 -1.80416 -3.19133 0
M  V30 801 H 70.4569 -0.143527 -5.02795 0
M  V30 802 H 70.1569 -1.80672 -5.59134 0
M  V30 803 H 71.6809 -0.982067 -6.02651 0
M  V30 804 H 73.0949 -2.96001 -4.90975 0
M  V30 805 H 71.4919 -3.72436 -4.70544 0
M  V30 806 H 72.5619 -3.55041 -3.30263 0
M  V30 807 N 73.905 1.17692 -1.04816 0
M  V30 808 C 75.153 1.87488 -0.754497 0
M  V30 809 C 75.474 1.81205 0.720407 0
M  V30 810 O 74.744 1.23544 1.52032 0
M  V30 811 H 73.324 0.694101 -0.276102 0
M  V30 812 H 75.986 1.42793 -1.32651 0
M  V30 813 H 75.082 2.93328 -1.06606 0
M  V30 814 N 75.3831 0.828654 1.34056 0
M  V30 815 C 76.6081 0.431637 2.02859 0
M  V30 816 C 77.0331 -0.956339 1.61975 0
M  V30 817 O 76.3911 -1.62338 0.807228 0
M  V30 818 C 76.4391 0.548323 3.56407 0
M  V30 819 O 75.5431 -0.429556 4.10157 0
M  V30 820 H 74.8841 0.176886 0.640006 0
M  V30 821 H 77.4141 1.12066 1.71179 0
M  V30 822 H 77.4241 0.426196 4.05768 0
M  V30 823 H 76.0991 1.5606 3.8551 0
M  V30 824 H 74.6761 -0.265836 3.71951 0
M  V30 825 N 76.8612 -1.46375 0.584142 0
M  V30 826 C 78.1092 -2.01978 0.0701287 0
M  V30 827 C 78.4302 -1.4579 -1.295 0
M  V30 828 O 77.7002 -0.64314 -1.85042 0
M  V30 829 H 76.2802 -0.746648 0.0229345 0
M  V30 830 H 78.9422 -1.79461 0.760245 0
M  V30 831 H 78.0382 -3.121 0.0022064 0
M  V30 832 N 78.3393 -0.321999 -1.54275 0
M  V30 833 C 79.2493 0.553631 -2.27974 0
M  V30 834 C 80.2653 1.13054 -1.32268 0
M  V30 835 O 81.4413 1.15084 -1.6528 0
M  V30 836 C 78.5063 1.69927 -3.02201 0
M  V30 837 C 77.5673 1.15433 -4.1349 0
M  V30 838 C 76.8003 2.24537 -4.84168 0
M  V30 839 O 77.0233 3.44852 -4.5435 0
M  V30 840 O 75.9573 1.90044 -5.7111 0
M  V30 841 H 79.7833 -0.0448345 -3.03667 0
M  V30 842 H 77.3683 -0.0877418 -1.49142 0
M  V30 843 H 79.2503 2.3663 -3.48689 0
M  V30 844 H 77.9253 2.28395 -2.29385 0
M  V30 845 H 76.8323 0.452436 -3.71354 0
M  V30 846 H 78.1653 0.614805 -4.88345 0
M  V30 847 N 79.8174 1.5752 -0.0501392 0
M  V30 848 C 81.0474 1.96678 0.632573 0
M  V30 849 C 81.4554 0.926298 1.64974 0
M  V30 850 O 80.7984 -0.09802 1.83438 0
M  V30 851 C 80.8604 3.32068 1.37735 0
M  V30 852 C 80.5244 4.54076 0.516131 0
M  V30 853 C 81.5214 5.19445 -0.217357 0
M  V30 854 C 79.2064 5.00304 0.44736 0
M  V30 855 C 81.2004 6.29378 -1.00807 0
M  V30 856 C 78.8874 6.10114 -0.347038 0
M  V30 857 C 79.8854 6.74512 -1.07344 0
M  V30 858 O 79.5734 7.82211 -1.85477 0
M  V30 859 H 79.3054 0.652193 0.177821 0
M  V30 860 H 81.8594 2.05091 -0.112543 0
M  V30 861 H 80.0894 3.20206 2.16807 0
M  V30 862 H 81.7784 3.55981 1.95019 0
M  V30 863 H 82.5444 4.84689 -0.173688 0
M  V30 864 H 78.4234 4.49971 1.00235 0
M  V30 865 H 81.9674 6.79575 -1.57556 0
M  V30 866 H 77.8644 6.44307 -0.392349 0
M  V30 867 H 78.6324 7.98982 -1.77678 0
M  V30 868 N 81.2955 -0.223234 1.56011 0
M  V30 869 C 82.5235 -0.964812 1.83027 0
M  V30 870 C 82.9385 -1.78013 0.62904 0
M  V30 871 O 82.2955 -1.78008 -0.402414 0
M  V30 872 C 82.3465 -1.88373 3.08542 0
M  V30 873 O 82.0675 -1.10137 4.2403 0
M  V30 874 C 83.5685 -2.73934 3.48533 0
M  V30 875 H 80.7885 -0.282842 0.608475 0
M  V30 876 H 83.3325 -0.238971 2.03099 0
M  V30 877 H 81.4875 -2.56354 2.9045 0
M  V30 878 H 81.9015 -1.72501 4.95322 0
M  V30 879 H 83.3755 -3.34117 4.39397 0
M  V30 880 H 83.8525 -3.46244 2.70207 0
M  V30 881 H 84.4585 -2.11369 3.69057 0
M  V30 882 N 82.7736 -1.49793 -0.48987 0
M  V30 883 C 83.7366 -1.66752 -1.57246 0
M  V30 884 C 84.7366 -0.538867 -1.51502 0
M  V30 885 O 85.9266 -0.805545 -1.54456 0
M  V30 886 C 83.0586 -1.67528 -2.96896 0
M  V30 887 H 84.2516 -2.63321 -1.43534 0
M  V30 888 H 81.8046 -1.38992 -0.714914 0
M  V30 889 H 82.5396 -0.725837 -3.16073 0
M  V30 890 H 82.3246 -2.49504 -3.02473 0
M  V30 891 H 83.8146 -1.82667 -3.7553 0
M  V30 892 N 84.2517 0.741722 -1.39055 0
M  V30 893 C 85.1617 1.88621 -1.39496 0
M  V30 894 C 86.1777 1.71557 -0.290578 0
M  V30 895 O 87.3537 1.94275 -0.530954 0
M  V30 896 C 84.4187 3.24134 -1.23037 0
M  V30 897 C 83.4797 3.5364 -2.43387 0
M  V30 898 C 82.7127 4.82687 -2.27703 0
M  V30 899 O 82.9357 5.55922 -1.27696 0
M  V30 900 O 81.8697 5.1194 -3.16545 0
M  V30 901 H 85.6957 1.91203 -2.35956 0
M  V30 902 H 83.2807 0.888625 -1.20099 0
M  V30 903 H 85.1627 4.0513 -1.15964 0
M  V30 904 H 83.8377 3.22337 -0.296691 0
M  V30 905 H 82.7447 2.72758 -2.56035 0
M  V30 906 H 84.0777 3.60209 -3.35425 0
M  V30 907 N 85.7298 1.2412 0.971189 0
M  V30 908 C 86.6398 1.04747 2.09917 0
M  V30 909 C 87.6558 -0.0107162 1.73997 0
M  V30 910 O 88.8318 0.186714 2.00533 0
M  V30 911 C 85.8968 0.650828 3.40537 0
M  V30 912 C 84.9578 1.7851 3.90426 0
M  V30 913 C 84.1908 1.40729 5.14812 0
M  V30 914 O 84.4138 0.29557 5.69634 0
M  V30 915 O 83.3478 2.23168 5.58999 0
M  V30 916 H 87.1738 1.99304 2.29154 0
M  V30 917 H 84.7588 1.02908 1.08307 0
M  V30 918 H 86.6408 0.440992 4.19086 0
M  V30 919 H 85.3158 -0.265649 3.22608 0
M  V30 920 H 84.2228 2.04966 3.12953 0
M  V30 921 H 85.5558 2.68023 4.12825 0
M  V30 922 N 87.2079 -1.17134 1.05439 0
M  V30 923 C 88.1379 -2.2342 0.678649 0
M  V30 924 C 89.1189 -1.66971 -0.32476 0
M  V30 925 O 90.3039 -1.93149 -0.201802 0
M  V30 926 C 87.4339 -3.47256 0.0552099 0
M  V30 927 C 86.3879 -4.16543 0.98365 0
M  V30 928 C 85.7139 -5.34231 0.223961 0
M  V30 929 C 87.0139 -4.68495 2.3089 0
M  V30 930 H 88.7079 -2.55105 1.56722 0
M  V30 931 H 86.2539 -1.2262 0.754998 0
M  V30 932 H 88.2069 -4.20828 -0.21946 0
M  V30 933 H 86.9309 -3.14846 -0.868319 0
M  V30 934 H 85.5899 -3.44887 1.24293 0
M  V30 935 H 85.2379 -4.98071 -0.702412 0
M  V30 936 H 84.9379 -5.81527 0.842627 0
M  V30 937 H 86.4619 -6.10585 -0.0433671 0
M  V30 938 H 87.8759 -5.33691 2.09396 0
M  V30 939 H 86.2729 -5.26379 2.88176 0
M  V30 940 H 87.3429 -3.85169 2.94572 0
M  V30 941 N 88.686 -0.835752 -1.33615 0
M  V30 942 C 89.926 -0.43599 -1.99696 0
M  V30 943 C 90.29 0.98557 -1.64774 0
M  V30 944 O 91.491 1.48889 -2.23798 0
M  V30 945 C 89.762 -0.646721 -3.515 0
M  V30 946 S 91.321 -0.341715 -4.37467 0
M  V30 947 H 88.139 -0.164136 -0.691795 0
M  V30 948 H 90.741 -1.08436 -1.62671 0
M  V30 949 H 89.445 -1.68077 -3.74404 0
M  V30 950 H 88.976 0.0159173 -3.93397 0
M  V30 951 H 90.991 0.839708 -4.89043 0
M  V30 952 N 90.1641 1.46063 -0.591896 0
M  V30 953 C 91.4131 2.01547 -0.0786637 0
M  V30 954 C 91.7261 1.46796 1.29268 0
M  V30 955 O 92.9321 1.94157 1.89777 0
M  V30 956 C 91.3881 3.59787 -0.0900024 0
M  V30 957 C 90.9961 4.23534 -1.46023 0
M  V30 958 C 92.7401 4.22895 0.368806 0
M  V30 959 C 90.6471 5.73881 -1.4288 0
M  V30 960 H 89.5771 0.753564 -0.0256388 0
M  V30 961 H 92.2281 1.677 -0.744905 0
M  V30 962 H 90.6101 3.90752 0.642586 0
M  V30 963 H 91.7841 4.04167 -2.21328 0
M  V30 964 H 90.0991 3.72558 -1.85982 0
M  V30 965 H 92.6961 5.33116 0.411258 0
M  V30 966 H 93.0391 3.9247 1.38827 0
M  V30 967 H 93.5721 3.9659 -0.31001 0
M  V30 968 H 90.3111 6.0898 -2.42536 0
M  V30 969 H 89.8311 5.95486 -0.718095 0
M  V30 970 H 91.5101 6.36776 -1.14565 0
M  V30 971 N 91.6422 0.330177 1.54103 0
M  V30 972 C 93.0582 -0.0222371 1.59585 0
M  V30 973 C 93.2582 -1.49902 1.34654 0
M  V30 974 O 92.3142 -2.25592 1.13421 0
M  V30 975 C 93.6272 0.401932 2.98002 0
M  V30 976 C 95.1752 0.353145 3.11001 0
M  V30 977 C 95.6502 0.752576 4.51775 0
M  V30 978 N 97.1412 0.706239 4.57784 0
M  V30 979 C 97.8762 0.987417 5.64834 0
M  V30 980 N 97.3722 1.33607 6.79795 0
M  V30 981 N 99.1652 0.91254 5.54643 0
M  V30 982 H 91.3162 1.29228 1.68564 0
M  V30 983 H 93.5792 0.525906 0.78875 0
M  V30 984 H 93.2852 1.4311 3.21267 0
M  V30 985 H 93.1592 -0.229699 3.765 0
M  V30 986 H 95.5462 -0.666822 2.87467 0
M  V30 987 H 95.6272 1.0198 2.34593 0
M  V30 988 H 95.2712 1.77049 4.76042 0
M  V30 989 H 95.2012 0.0635409 5.26562 0
M  V30 990 H 97.6922 0.44889 3.75224 0
M  V30 991 H 98.0052 1.53582 7.57385 0
M  V30 992 H 96.3502 1.37439 6.81275 0
M  V30 993 H 99.5412 0.639601 4.6371 0
M  V30 994 H 99.7142 1.13503 6.37982 0
M  V30 995 N 93.1203 -1.57491 0.0584922 0
M  V30 996 C 94.0833 -2.1085 -0.898617 0
M  V30 997 C 95.0833 -1.02964 -1.23511 0
M  V30 998 O 96.2733 -1.29007 -1.17059 0
M  V30 999 C 93.4053 -2.59881 -2.20623 0
M  V30 1000 H 94.5983 -2.96715 -0.435936 0
M  V30 1001 H 92.1513 -1.55141 -0.190023 0
M  V30 1002 H 92.8863 -1.77431 -2.71457 0
M  V30 1003 H 92.6713 -3.38727 -1.97501 0
M  V30 1004 H 94.1613 -3.01285 -2.89166 0
M  V30 1005 N 94.5984 0.214957 -1.56127 0
M  V30 1006 C 95.5614 1.24997 -1.92116 0
M  V30 1007 C 96.5614 1.39467 -0.800344 0
M  V30 1008 O 97.7514 1.37619 -1.06802 0
M  V30 1009 C 94.8834 2.62271 -2.17777 0
M  V30 1010 H 96.0764 0.942875 -2.84693 0
M  V30 1011 H 93.6294 0.455654 -1.49511 0
M  V30 1012 H 94.3644 2.98068 -1.27773 0
M  V30 1013 H 94.1494 2.53143 -2.99434 0
M  V30 1014 H 95.6394 3.36946 -2.46693 0
M  V30 1015 N 96.0765 1.50051 0.48192 0
M  V30 1016 C 97.0085 1.64263 1.59844 0
M  V30 1017 C 98.0215 0.52451 1.54119 0
M  V30 1018 O 99.2105 0.797293 1.59704 0
M  V30 1019 C 96.3105 1.60102 2.98698 0
M  V30 1020 C 95.4835 2.87767 3.29407 0
M  V30 1021 C 94.5425 2.76397 4.47762 0
M  V30 1022 O 93.5685 3.50348 4.48603 0
M  V30 1023 N 94.7705 1.89222 5.48794 0
M  V30 1024 H 97.5355 2.60566 1.48073 0
M  V30 1025 H 95.0965 1.47379 0.670149 0
M  V30 1026 H 97.0885 1.50123 3.75826 0
M  V30 1027 H 95.6585 0.715798 3.04294 0
M  V30 1028 H 94.8785 3.11954 2.40994 0
M  V30 1029 H 96.1665 3.72365 3.4673 0
M  V30 1030 H 95.5645 1.28434 5.50928 0
M  V30 1031 H 94.1215 1.85154 6.24949 0
M  V30 1032 N 97.5546 -0.734337 1.39446 0
M  V30 1033 C 98.5176 -1.83004 1.37994 0
M  V30 1034 C 99.5176 -1.58397 0.276938 0
M  V30 1035 O 100.708 -1.65785 0.534875 0
M  V30 1036 C 97.8396 -3.20802 1.1532 0
M  V30 1037 H 99.0326 -1.85694 2.35494 0
M  V30 1038 H 96.5856 -0.938059 1.25021 0
M  V30 1039 H 97.3206 -3.23772 0.185036 0
M  V30 1040 H 97.1056 -3.4006 1.95197 0
M  V30 1041 H 98.5956 -4.00862 1.17046 0
M  V30 1042 N 99.0327 -1.24633 -0.964593 0
M  V30 1043 C 100.273 -1.09981 -1.72289 0
M  V30 1044 C 100.637 0.354792 -1.88693 0
M  V30 1045 O 101.838 0.62289 -2.61483 0
M  V30 1046 C 100.109 -1.82262 -3.07434 0
M  V30 1047 S 101.668 -1.83379 -3.98645 0
M  V30 1048 H 98.4857 -0.393292 -0.59232 0
M  V30 1049 H 101.088 -1.58009 -1.15123 0
M  V30 1050 H 99.7917 -2.87206 -2.93157 0
M  V30 1051 H 99.3227 -1.3458 -3.69664 0
M  V30 1052 H 101.338 -0.903691 -4.87901 0
M  V30 1053 N 100.511 1.16574 -1.06058 0
M  V30 1054 C 101.927 1.3904 -0.783585 0
M  V30 1055 C 102.127 1.91784 0.618145 0
M  V30 1056 O 101.183 2.11511 1.37911 0
M  V30 1057 C 102.496 2.37329 -1.84649 0
M  V30 1058 C 104.044 2.51018 -1.86973 0
M  V30 1059 C 104.519 3.52588 -2.92311 0
M  V30 1060 N 106.01 3.60113 -2.91329 0
M  V30 1061 C 106.745 4.38486 -3.69482 0
M  V30 1062 N 106.241 5.20302 -4.57447 0
M  V30 1063 N 108.034 4.33446 -3.57885 0
M  V30 1064 H 100.185 0.806725 -1.96483 0
M  V30 1065 H 102.448 0.417117 -0.851303 0
M  V30 1066 H 102.154 2.05663 -2.85299 0
M  V30 1067 H 102.028 3.36946 -1.6955 0
M  V30 1068 H 104.415 2.81989 -0.869827 0
M  V30 1069 H 104.496 1.51445 -2.0615 0
M  V30 1070 H 104.14 3.22354 -3.92492 0
M  V30 1071 H 104.07 4.51886 -2.70383 0
M  V30 1072 H 106.561 3.01707 -2.27555 0
M  V30 1073 H 106.874 5.77311 -5.13743 0
M  V30 1074 H 105.219 5.19653 -4.61503 0
M  V30 1075 H 108.41 3.68586 -2.88551 0
M  V30 1076 H 108.583 4.94279 -4.19037 0
M  V30 1077 N 101.989 0.842826 1.3317 0
M  V30 1078 C 103.238 0.436738 1.96915 0
M  V30 1079 C 103.551 -1.01025 1.67491 0
M  V30 1080 O 104.757 -1.5212 2.24881 0
M  V30 1081 C 103.213 0.730021 3.52418 0
M  V30 1082 C 102.821 2.19195 3.90714 0
M  V30 1083 C 104.565 0.391076 4.22695 0
M  V30 1084 C 102.472 2.42907 5.39212 0
M  V30 1085 H 101.402 0.15958 0.736919 0
M  V30 1086 H 104.053 1.03196 1.51733 0
M  V30 1087 H 102.435 0.0643755 3.95948 0
M  V30 1088 H 103.609 2.8984 3.58231 0
M  V30 1089 H 101.924 2.49425 3.33431 0
M  V30 1090 H 104.521 0.545817 5.31907 0
M  V30 1091 H 104.864 -0.666294 4.10933 0
M  V30 1092 H 105.397 1.01212 3.84709 0
M  V30 1093 H 102.136 3.47224 5.55982 0
M  V30 1094 H 101.656 1.76827 5.73142 0
M  V30 1095 H 103.335 2.2626 6.06148 0
M  V30 1096 N 103.467 -1.45747 0.599634 0
M  V30 1097 C 104.692 -2.07178 0.0960198 0
M  V30 1098 C 105.117 -1.44268 -1.207 0
M  V30 1099 O 104.475 -0.532503 -1.73303 0
M  V30 1100 C 104.523 -3.60579 -0.0385348 0
M  V30 1101 O 103.627 -3.97713 -1.0908 0
M  V30 1102 H 102.968 -0.660251 0.0704593 0
M  V30 1103 H 105.498 -1.87124 0.827385 0
M  V30 1104 H 105.508 -4.07298 -0.239304 0
M  V30 1105 H 104.183 -4.05756 0.912947 0
M  V30 1106 H 102.76 -3.62678 -0.867135 0
M  V30 1107 N 104.945 -0.338344 -1.53925 0
M  V30 1108 C 106.356 0.146651 -1.86123 0
M  V30 1109 C 106.707 1.5042 -1.2597 0
M  V30 1110 O 105.832 2.08723 -0.571294 0
M  V30 1111 C 106.427 0.272879 -3.37699 0
M  V30 1112 C 104.986 0.702103 -3.69794 0
M  V30 1113 C 104.133 -0.167304 -2.76795 0
M  V30 1114 H 107.084 -0.558123 -1.48562 0
M  V30 1115 H 107.105 1.10128 -3.64214 0
M  V30 1116 H 106.617 -0.715307 -3.81451 0
M  V30 1117 H 104.718 1.6995 -3.31584 0
M  V30 1118 H 104.831 0.495604 -4.7653 0
M  V30 1119 H 103.195 0.359527 -2.5215 0
M  V30 1120 H 103.978 -1.15253 -3.23375 0
M  V30 1121 N 106.423 1.57458 -0.0668435 0
M  V30 1122 C 107.353 2.15468 0.899764 0
M  V30 1123 C 108.334 1.08042 1.31381 0
M  V30 1124 O 109.519 1.36054 1.38574 0
M  V30 1125 C 106.649 2.71232 2.16911 0
M  V30 1126 C 105.603 3.83781 1.89463 0
M  V30 1127 C 104.929 4.26127 3.22986 0
M  V30 1128 C 106.229 5.08238 1.20381 0
M  V30 1129 H 107.923 2.96488 0.416529 0
M  V30 1130 H 105.469 1.4262 0.198908 0
M  V30 1131 H 107.422 3.10458 2.84945 0
M  V30 1132 H 106.146 1.87426 2.67468 0
M  V30 1133 H 104.805 3.45051 1.23836 0
M  V30 1134 H 104.453 3.39249 3.71374 0
M  V30 1135 H 104.153 5.01993 3.05413 0
M  V30 1136 H 105.677 4.67966 3.92225 0
M  V30 1137 H 107.091 5.44811 1.78475 0
M  V30 1138 H 105.488 5.89349 1.13083 0
M  V30 1139 H 106.558 4.84558 0.182153 0
M  V30 1140 N 107.901 -0.206675 1.56239 0
M  V30 1141 C 109.141 -0.93574 1.81723 0
M  V30 1142 C 109.505 -1.80927 0.642609 0
M  V30 1143 O 110.706 -2.57323 0.777081 0
M  V30 1144 C 108.977 -1.74012 3.12177 0
M  V30 1145 S 110.536 -2.52279 3.59028 0
M  V30 1146 H 107.354 -0.314065 0.637875 0
M  V30 1147 H 109.956 -0.200071 1.94474 0
M  V30 1148 H 108.66 -1.0888 3.95693 0
M  V30 1149 H 108.191 -2.51782 3.02274 0
M  V30 1150 H 110.206 -3.76209 3.23545 0
M  V30 1151 N 109.379 -1.50304 -0.473955 0
M  V30 1152 C 110.329 -1.65347 -1.56985 0
M  V30 1153 C 111.313 -0.508176 -1.52664 0
M  V30 1154 O 112.505 -0.762446 -1.59737 0
M  V30 1155 C 109.634 -1.74832 -2.95447 0
M  V30 1156 C 108.72 -2.95028 -3.04662 0
M  V30 1157 N 109.111 -4.18747 -2.83698 0
M  V30 1158 C 107.409 -2.93527 -3.35795 0
M  V30 1159 C 108.11 -4.99687 -2.97805 0
M  V30 1160 N 107.086 -4.33585 -3.2788 0
M  V30 1161 H 110.888 -2.58698 -1.39472 0
M  V30 1162 H 108.402 -1.47449 -0.680629 0
M  V30 1163 H 110.399 -1.83712 -3.7424 0
M  V30 1164 H 109.059 -0.826376 -3.14008 0
M  V30 1165 H 110.07 -4.48291 -2.59337 0
M  V30 1166 H 106.747 -2.10821 -3.60362 0
M  V30 1167 H 108.137 -6.08057 -2.85861 0
M  V30 1168 N 110.857 0.726932 -1.39834 0
M  V30 1169 C 111.805 1.86235 -1.39353 0
M  V30 1170 C 112.799 1.67144 -0.275555 0
M  V30 1171 O 114.005 1.74387 -0.44601 0
M  V30 1172 H 110.38 0.613174 -0.43534 0
M  V30 1173 H 112.351 1.83756 -2.35109 0
M  V30 1174 C 111.1 3.23995 -1.26185 0
M  V30 1175 H 110.423 3.39285 -2.11484 0
M  V30 1176 H 111.863 4.03609 -1.29907 0
M  V30 1177 C 110.322 3.36888 0.0290018 0
M  V30 1178 O 110.852 3.89152 0.99619 0
M  V30 1179 N 109.058 2.90446 0.0947437 0
M  V30 1180 H 108.605 2.48102 -0.693035 0
M  V30 1181 H 108.563 2.99451 0.957932 0
M  V30 1182 N 112.336 1.25143 0.95797 0
M  V30 1183 C 113.266 1.07711 2.07173 0
M  V30 1184 C 114.247 -0.0128462 1.70095 0
M  V30 1185 O 115.432 0.156061 1.93572 0
M  V30 1186 C 112.562 0.691503 3.40346 0
M  V30 1187 C 111.516 1.73132 3.9142 0
M  V30 1188 C 110.842 1.20049 5.21049 0
M  V30 1189 C 112.142 3.1294 4.1817 0
M  V30 1190 H 113.836 2.00873 2.22014 0
M  V30 1191 H 111.382 0.967191 1.06684 0
M  V30 1192 H 113.335 0.556505 4.17709 0
M  V30 1193 H 112.059 -0.275819 3.25433 0
M  V30 1194 H 110.718 1.8547 3.16222 0
M  V30 1195 H 110.366 0.223499 5.02503 0
M  V30 1196 H 110.066 1.89545 5.56189 0
M  V30 1197 H 111.59 1.07782 6.01012 0
M  V30 1198 H 113.004 3.03775 4.86203 0
M  V30 1199 H 111.401 3.79875 4.64559 0
M  V30 1200 H 112.471 3.6025 3.24573 0
M  V30 1201 N 113.814 -1.1601 1.06675 0
M  V30 1202 C 115.061 -1.86633 0.785781 0
M  V30 1203 C 115.389 -1.81929 -0.687896 0
M  V30 1204 O 114.644 -1.23253 -1.52011 0
M  V30 1205 C 114.943 -3.35547 1.23057 0
M  V30 1206 C 114.609 -3.60448 2.70902 0
M  V30 1207 C 113.271 -3.66954 3.11285 0
M  V30 1208 C 115.623 -3.7071 3.66365 0
M  V30 1209 C 112.951 -3.81225 4.45965 0
M  V30 1210 C 115.303 -3.86503 5.00797 0
M  V30 1211 C 113.967 -3.91252 5.40813 0
M  V30 1212 H 113.237 -0.682937 0.287538 0
M  V30 1213 H 115.884 -1.37146 1.33654 0
M  V30 1214 H 114.189 -3.87193 0.59907 0
M  V30 1215 H 115.886 -3.88583 0.990163 0
M  V30 1216 H 112.476 -3.56021 2.38636 0
M  V30 1217 H 116.66 -3.64991 3.36296 0
M  V30 1218 H 111.916 -3.83155 4.76447 0
M  V30 1219 H 116.09 -3.93385 5.74649 0
M  V30 1220 H 113.717 -4.02062 6.45174 0
M  V30 1221 N 115.292 -0.849877 -1.32721 0
M  V30 1222 C 116.255 -0.296122 -2.27279 0
M  V30 1223 C 117.255 0.541458 -1.5141 0
M  V30 1224 O 118.445 0.353658 -1.70572 0
M  V30 1225 C 115.577 0.581579 -3.35902 0
M  V30 1226 H 116.77 -1.13064 -2.77771 0
M  V30 1227 H 114.323 -0.62383 -1.43311 0
M  V30 1228 H 115.058 1.43809 -2.9067 0
M  V30 1229 H 114.843 -0.0178814 -3.92096 0
M  V30 1230 H 116.333 0.961951 -4.0637 0
M  V30 1231 N 116.77 1.45427 -0.607355 0
M  V30 1232 C 117.7 2.3329 0.0989352 0
M  V30 1233 C 118.681 1.46816 0.859007 0
M  V30 1234 O 119.866 1.75588 0.829604 0
M  V30 1235 C 116.996 3.29518 1.09705 0
M  V30 1236 C 115.95 4.25626 0.450206 0
M  V30 1237 C 115.276 5.11542 1.55655 0
M  V30 1238 C 116.576 5.18505 -0.628455 0
M  V30 1239 H 118.27 2.92595 -0.634716 0
M  V30 1240 H 115.816 1.40696 -0.306681 0
M  V30 1241 H 117.769 3.89855 1.59971 0
M  V30 1242 H 116.493 2.68372 1.86129 0
M  V30 1243 H 115.152 3.66586 -0.0315886 0
M  V30 1244 H 114.8 4.46765 2.31107 0
M  V30 1245 H 114.5 5.76647 1.12925 0
M  V30 1246 H 116.024 5.74748 2.06148 0
M  V30 1247 H 117.438 5.72916 -0.209877 0
M  V30 1248 H 115.835 5.92085 -0.977489 0
M  V30 1249 H 116.905 4.60948 -1.50514 0
M  V30 1250 N 118.248 0.346503 1.53744 0
M  V30 1251 C 119.478 -0.250047 2.05081 0
M  V30 1252 C 119.886 -1.44529 1.22098 0
M  V30 1253 O 119.229 -1.81992 0.249917 0
M  V30 1254 C 119.291 -0.725934 3.52094 0
M  V30 1255 C 118.955 0.350053 4.55657 0
M  V30 1256 C 119.952 1.19372 5.0601 0
M  V30 1257 C 117.637 0.504827 4.99757 0
M  V30 1258 C 119.631 2.17768 5.99046 0
M  V30 1259 C 117.318 1.49218 5.92602 0
M  V30 1260 C 118.316 2.32706 6.42135 0
M  V30 1261 O 118.004 3.2976 7.33153 0
M  V30 1262 H 117.736 -0.0515469 0.674032 0
M  V30 1263 H 120.29 0.497559 1.99282 0
M  V30 1264 H 118.52 -1.52483 3.55367 0
M  V30 1265 H 120.209 -1.24336 3.86388 0
M  V30 1266 H 120.975 1.08525 4.72702 0
M  V30 1267 H 116.854 -0.135178 4.60802 0
M  V30 1268 H 120.398 2.82971 6.37631 0
M  V30 1269 H 116.295 1.6012 6.25325 0
M  V30 1270 H 117.063 3.25265 7.51096 0
M  V30 1271 N 119.726 -1.57421 0.075193 0
M  V30 1272 C 121.003 -1.85029 -0.634329 0
M  V30 1273 C 121.383 -0.968305 -1.87582 0
M  V30 1274 O 120.731 -0.0354749 -2.28472 0
M  V30 1275 C 120.941 -3.35286 -0.968742 0
M  V30 1276 C 122.289 -4.02875 -1.34077 0
M  V30 1277 O 123.313 -3.40051 -1.06037 0
M  V30 1278 O 122.172 -5.13691 -1.86506 0
M  V30 1279 H 119.266 -0.7645 -0.315387 0
M  V30 1280 H 121.812 -1.69366 0.106382 0
M  V30 1281 H 120.584 -3.91203 -0.0871376 0
M  V30 1282 H 120.207 -3.56223 -1.7661 0
M  V30 1283 N 121.204 0.198386 -1.56346 0
M  V30 1284 C 122.114 1.2664 -1.97483 0
M  V30 1285 C 123.13 1.49989 -0.882002 0
M  V30 1286 O 124.306 1.62668 -1.18748 0
M  V30 1287 C 121.371 2.59141 -2.30319 0
M  V30 1288 C 120.432 2.43892 -3.53292 0
M  V30 1289 C 119.665 3.70074 -3.84553 0
M  V30 1290 O 119.888 4.74101 -3.1715 0
M  V30 1291 O 118.822 3.658 -4.7799 0
M  V30 1292 H 122.648 0.947304 -2.88548 0
M  V30 1293 H 120.233 0.403123 -1.43859 0
M  V30 1294 H 122.115 3.37352 -2.5253 0
M  V30 1295 H 120.79 2.90684 -1.42423 0
M  V30 1296 H 119.697 1.63803 -3.36332 0
M  V30 1297 H 121.03 2.17282 -4.41644 0
M  V30 1298 N 122.682 1.50554 0.465978 0
M  V30 1299 C 123.63 1.70324 1.58406 0
M  V30 1300 C 124.624 0.569139 1.59553 0
M  V30 1301 O 125.83 0.749776 1.63641 0
M  V30 1302 H 122.205 0.537688 0.525734 0
M  V30 1303 H 124.176 2.64104 1.38894 0
M  V30 1304 C 122.925 1.81928 2.96307 0
M  V30 1305 H 122.248 2.68586 2.96144 0
M  V30 1306 H 123.688 1.99784 3.73982 0
M  V30 1307 C 122.147 0.572095 3.32007 0
M  V30 1308 O 122.677 -0.286416 4.00678 0
M  V30 1309 N 120.883 0.424606 2.87481 0
M  V30 1310 H 120.43 1.12427 2.31771 0
M  V30 1311 H 120.388 -0.408697 3.11732 0
M  V30 1312 N 124.16 -0.719506 1.40217 0
M  V30 1313 C 125.388 -1.50864 1.41589 0
M  V30 1314 C 125.803 -1.88794 0.0145275 0
M  V30 1315 O 125.16 -1.55174 -0.960594 0
M  V30 1316 C 125.211 -2.78646 2.30302 0
M  V30 1317 O 124.932 -2.42321 3.64983 0
M  V30 1318 C 126.433 -3.72569 2.40224 0
M  V30 1319 H 123.653 -0.465709 0.48307 0
M  V30 1320 H 126.197 -0.88785 1.84221 0
M  V30 1321 H 124.352 -3.37019 1.91042 0
M  V30 1322 H 124.766 -3.24514 4.12057 0
M  V30 1323 H 126.24 -4.5908 3.06512 0
M  V30 1324 H 126.717 -4.15403 1.42608 0
M  V30 1325 H 127.323 -3.20109 2.80019 0
M  V30 1326 N 125.638 -1.25649 -0.95132 0
M  V30 1327 C 126.585 -1.06323 -2.04851 0
M  V30 1328 C 127.555 0.0286491 -1.66075 0
M  V30 1329 O 128.74 -0.12917 -1.90362 0
M  V30 1330 C 125.88 -0.691529 -3.381 0
M  V30 1331 C 124.993 -1.85861 -3.89974 0
M  V30 1332 C 124.128 -1.43096 -5.11563 0
M  V30 1333 C 123.167 -2.56696 -5.55674 0
M  V30 1334 N 122.304 -2.14684 -6.68472 0
M  V30 1335 H 127.144 -2.00222 -2.20715 0
M  V30 1336 H 124.681 -0.997027 -1.08156 0
M  V30 1337 H 126.639 -0.456963 -4.1469 0
M  V30 1338 H 125.269 0.210474 -3.22113 0
M  V30 1339 H 124.321 -2.20639 -3.09875 0
M  V30 1340 H 125.633 -2.71161 -4.18657 0
M  V30 1341 H 124.787 -1.15624 -5.9558 0
M  V30 1342 H 123.526 -0.548722 -4.84603 0
M  V30 1343 H 122.531 -2.84909 -4.7022 0
M  V30 1344 H 123.756 -3.45503 -5.8464 0
M  V30 1345 H 121.702 -1.28881 -6.43215 0
M  V30 1346 H 121.619 -2.9353 -6.96689 0
M  V30 1347 H 122.887 -1.90397 -7.5589 0
M  V30 1348 N 127.117 1.15442 -1.07289 0
M  V30 1349 C 128.047 2.22312 -0.714107 0
M  V30 1350 C 129.028 1.67467 0.298155 0
M  V30 1351 O 130.213 1.93445 0.171048 0
M  V30 1352 C 127.343 3.47124 -0.110448 0
M  V30 1353 C 126.297 4.14926 -1.04979 0
M  V30 1354 C 125.623 5.33807 -0.308924 0
M  V30 1355 C 126.923 4.64762 -2.38314 0
M  V30 1356 H 128.617 2.5258 -1.6076 0
M  V30 1357 H 126.163 1.21404 -0.77441 0
M  V30 1358 H 128.116 4.21124 0.152482 0
M  V30 1359 H 126.84 3.16187 0.81812 0
M  V30 1360 H 125.499 3.42866 -1.29764 0
M  V30 1361 H 125.147 4.99126 0.623084 0
M  V30 1362 H 124.847 5.80113 -0.935036 0
M  V30 1363 H 126.371 6.10576 -0.0537771 0
M  V30 1364 H 127.785 5.30292 -2.1786 0
M  V30 1365 H 126.182 5.21728 -2.96514 0
M  V30 1366 H 127.252 3.80434 -3.00663 0
M  V30 1367 N 128.595 0.856903 1.32268 0
M  V30 1368 C 129.841 0.471355 1.97863 0
M  V30 1369 C 130.196 -0.962896 1.66572 0
M  V30 1370 O 129.489 -1.66686 0.944797 0
M  V30 1371 C 129.683 0.649919 3.51441 0
M  V30 1372 C 129.512 2.09997 3.97657 0
M  V30 1373 C 128.282 2.73893 4.2463 0
M  V30 1374 C 130.48 3.07081 4.1256 0
M  V30 1375 N 128.462 4.09786 4.57109 0
M  V30 1376 C 129.833 4.27968 4.48602 0
M  V30 1377 C 131.888 3.03247 3.949 0
M  V30 1378 C 130.591 5.45521 4.68827 0
M  V30 1379 C 132.617 4.20046 4.16311 0
M  V30 1380 C 131.979 5.39692 4.52672 0
M  V30 1381 H 128.078 0.221263 0.750044 0
M  V30 1382 H 130.662 1.10876 1.60045 0
M  V30 1383 H 128.833 0.0421938 3.88377 0
M  V30 1384 H 130.565 0.234044 4.04023 0
M  V30 1385 H 127.32 2.24918 4.16784 0
M  V30 1386 H 127.744 4.7989 4.7753 0
M  V30 1387 H 132.386 2.11863 3.65888 0
M  V30 1388 H 130.104 6.37434 4.96693 0
M  V30 1389 H 133.69 4.18517 4.04147 0
M  V30 1390 H 132.57 6.28566 4.68907 0
M  V30 1391 N 130.073 -1.45103 0.615059 0
M  V30 1392 C 131.303 -2.06254 0.119596 0
M  V30 1393 C 131.711 -1.4591 -1.20445 0
M  V30 1394 O 131.054 -0.570384 -1.7462 0
M  V30 1395 C 131.116 -3.59396 -0.0865591 0
M  V30 1396 C 130.78 -4.42116 1.15683 0
M  V30 1397 C 131.777 -4.7662 2.07676 0
M  V30 1398 C 129.462 -4.82749 1.38775 0
M  V30 1399 C 131.456 -5.50622 3.21082 0
M  V30 1400 C 129.143 -5.56504 2.52481 0
M  V30 1401 C 130.141 -5.90358 3.43463 0
M  V30 1402 O 129.829 -6.62615 4.55189 0
M  V30 1403 H 129.561 -0.672423 0.0694512 0
M  V30 1404 H 132.115 -1.87219 0.844885 0
M  V30 1405 H 130.345 -3.76859 -0.866823 0
M  V30 1406 H 132.034 -4.02365 -0.534555 0
M  V30 1407 H 132.8 -4.4578 1.91063 0
M  V30 1408 H 128.679 -4.55829 0.688545 0
M  V30 1409 H 132.223 -5.76965 3.92119 0
M  V30 1410 H 128.12 -5.86759 2.69043 0
M  V30 1411 H 128.888 -6.81071 4.53966 0
M  V30 1412 N 131.551 -0.354651 -1.53558 0
M  V30 1413 C 132.514 0.484566 -2.24019 0
M  V30 1414 C 133.514 1.01861 -1.24422 0
M  V30 1415 O 134.704 0.906097 -1.4878 0
M  V30 1416 C 131.836 1.67615 -2.96847 0
M  V30 1417 H 133.029 -0.131843 -2.9961 0
M  V30 1418 H 130.582 -0.106165 -1.55939 0
M  V30 1419 H 131.317 2.33095 -2.25471 0
M  V30 1420 H 131.102 1.30029 -3.69912 0
M  V30 1421 H 132.592 2.27114 -3.50441 0
M  V30 1422 N 133.029 1.57378 -0.0835403 0
M  V30 1423 C 134.44 1.81261 0.447358 0
M  V30 1424 C 134.791 0.998331 1.68902 0
M  V30 1425 O 133.916 0.224282 2.15235 0
M  V30 1426 C 134.511 3.28767 0.818386 0
M  V30 1427 C 133.07 3.53455 1.29409 0
M  V30 1428 C 132.217 2.75831 0.285024 0
M  V30 1429 H 135.168 1.5566 -0.309115 0
M  V30 1430 H 135.189 3.41459 1.67887 0
M  V30 1431 H 134.701 3.88006 -0.0855019 0
M  V30 1432 H 132.802 2.99534 2.21608 0
M  V30 1433 H 132.915 4.62128 1.2639 0
M  V30 1434 H 131.279 2.42947 0.764767 0
M  V30 1435 H 132.062 3.37813 -0.611341 0
M  V30 1436 N 134.507 -0.190092 1.56449 0
M  V30 1437 C 135.455 -1.25501 1.95837 0
M  V30 1438 C 136.449 -1.4685 0.844485 0
M  V30 1439 O 137.655 -1.47651 1.02952 0
M  V30 1440 H 134.03 -0.421447 0.622805 0
M  V30 1441 H 136.001 -0.895821 2.84636 0
M  V30 1442 C 134.75 -2.59124 2.31841 0
M  V30 1443 H 134.073 -2.43514 3.17082 0
M  V30 1444 H 135.513 -3.32371 2.6326 0
M  V30 1445 C 133.972 -3.16488 1.15486 0
M  V30 1446 O 134.502 -3.99365 0.432535 0
M  V30 1447 N 132.708 -2.75305 0.930349 0
M  V30 1448 H 132.255 -2.08013 1.51948 0
M  V30 1449 H 132.213 -3.14024 0.153634 0
M  V30 1450 N 135.985 -1.50799 -0.457987 0
M  V30 1451 C 137.401 -1.38515 -0.792819 0
M  V30 1452 C 137.601 -0.451409 -1.96379 0
M  V30 1453 O 136.657 0.10112 -2.52297 0
M  V30 1454 C 137.97 -2.80149 -1.09258 0
M  V30 1455 C 139.518 -2.89156 -1.19825 0
M  V30 1456 C 139.993 -4.31651 -1.53106 0
M  V30 1457 N 141.484 -4.34662 -1.60072 0
M  V30 1458 C 142.219 -5.41928 -1.87354 0
M  V30 1459 N 141.715 -6.59384 -2.12568 0
M  V30 1460 N 143.508 -5.29385 -1.88965 0
M  V30 1461 H 135.659 -2.10073 0.313511 0
M  V30 1462 H 137.922 -0.944803 0.0777862 0
M  V30 1463 H 137.628 -3.50374 -0.305084 0
M  V30 1464 H 137.502 -3.18204 -2.02549 0
M  V30 1465 H 139.889 -2.19141 -1.97639 0
M  V30 1466 H 139.97 -2.54626 -0.244821 0
M  V30 1467 H 139.614 -5.02208 -0.758266 0
M  V30 1468 H 139.544 -4.63678 -2.49621 0
M  V30 1469 H 142.035 -3.49973 -1.42573 0
M  V30 1470 H 142.348 -7.36934 -2.32696 0
M  V30 1471 H 140.693 -6.62535 -2.09933 0
M  V30 1472 H 143.884 -4.36616 -1.68772 0
M  V30 1473 H 144.057 -6.13066 -2.09891 0
M  V30 1474 N 137.463 0.71206 -1.40597 0
M  V30 1475 C 138.691 1.50111 -1.42388 0
M  V30 1476 C 139.106 1.88784 -0.0245395 0
M  V30 1477 O 138.463 1.55681 0.952351 0
M  V30 1478 C 138.514 2.7742 -2.31776 0
M  V30 1479 O 138.235 2.40382 -3.66262 0
M  V30 1480 C 139.736 3.7129 -2.42196 0
M  V30 1481 H 136.956 0.46314 -0.485533 0
M  V30 1482 H 139.5 0.878068 -1.8469 0
M  V30 1483 H 137.655 3.36001 -1.92827 0
M  V30 1484 H 138.069 3.22324 -4.13772 0
M  V30 1485 H 139.543 4.57448 -3.08943 0
M  V30 1486 H 140.02 4.14641 -1.44809 0
M  V30 1487 H 140.626 3.18619 -2.81712 0
M  V30 1488 N 138.941 1.26152 0.944643 0
M  V30 1489 C 140.19 1.10883 1.68487 0
M  V30 1490 C 140.503 -0.348153 1.92477 0
M  V30 1491 O 141.709 -0.621459 2.64292 0
M  V30 1492 C 140.165 1.93624 3.03377 0
M  V30 1493 C 139.773 3.43875 2.87148 0
M  V30 1494 C 141.517 1.86954 3.81115 0
M  V30 1495 C 139.424 4.18875 4.1749 0
M  V30 1496 H 138.354 0.41135 0.631907 0
M  V30 1497 H 141.005 1.50433 1.05082 0
M  V30 1498 H 139.387 1.46904 3.67743 0
M  V30 1499 H 140.561 3.98338 2.31653 0
M  V30 1500 H 138.876 3.51744 2.22856 0
M  V30 1501 H 141.473 2.40275 4.77673 0
M  V30 1502 H 141.816 0.839518 4.07747 0
M  V30 1503 H 142.349 2.31477 3.23517 0
M  V30 1504 H 139.088 5.22332 3.96043 0
M  V30 1505 H 138.608 3.69193 4.72712 0
M  V30 1506 H 140.287 4.27134 4.85968 0
M  V30 1507 N 140.419 -1.14872 1.07899 0
M  V30 1508 C 141.647 -1.89661 0.82683 0
M  V30 1509 C 142.062 -1.78312 -0.620519 0
M  V30 1510 O 141.419 -1.13888 -1.42604 0
M  V30 1511 C 141.47 -3.39817 1.23316 0
M  V30 1512 O 141.191 -3.50845 2.62372 0
M  V30 1513 C 142.692 -4.31615 1.0111 0
M  V30 1514 H 139.912 -0.60092 0.298557 0
M  V30 1515 H 142.456 -1.4551 1.43691 0
M  V30 1516 H 140.611 -3.8161 0.667286 0
M  V30 1517 H 141.025 -4.44076 2.79101 0
M  V30 1518 H 142.499 -5.35367 1.34486 0
M  V30 1519 H 142.976 -4.39169 -0.0522168 0
M  V30 1520 H 143.582 -3.95572 1.56215 0
M  V30 1521 N 141.898 -0.863906 -1.31812 0
M  V30 1522 C 143.144 -0.472535 -1.97218 0
M  V30 1523 C 143.477 0.971394 -1.68159 0
M  V30 1524 O 142.752 1.68309 -0.974798 0
M  V30 1525 C 143.035 -0.723054 -3.52766 0
M  V30 1526 C 142.888 -2.21608 -3.91421 0
M  V30 1527 C 144.207 -0.185522 -4.39709 0
M  V30 1528 H 141.326 -0.173158 -0.71637 0
M  V30 1529 H 143.968 -1.08403 -1.56041 0
M  V30 1530 H 142.118 -0.202577 -3.87971 0
M  V30 1531 H 143.79 -2.80334 -3.66347 0
M  V30 1532 H 142.033 -2.691 -3.40246 0
M  V30 1533 H 142.704 -2.34203 -4.99853 0
M  V30 1534 H 145.18 -0.630726 -4.11292 0
M  V30 1535 H 144.056 -0.390306 -5.47511 0
M  V30 1536 H 144.317 0.912229 -4.32586 0
M  V30 1537 N 143.376 1.44774 -0.622745 0
M  V30 1538 C 144.653 1.95522 -0.0551974 0
M  V30 1539 C 145.033 1.5649 1.41683 0
M  V30 1540 O 144.381 0.834848 2.12703 0
M  V30 1541 C 144.591 3.4796 -0.269242 0
M  V30 1542 C 145.939 4.24306 -0.158014 0
M  V30 1543 O 146.963 3.55637 -0.200162 0
M  V30 1544 O 145.822 5.46471 -0.0558693 0
M  V30 1545 H 142.916 0.826556 0.0271015 0
M  V30 1546 H 145.462 1.54866 -0.693864 0
M  V30 1547 H 144.234 3.6939 -1.29099 0
M  V30 1548 H 143.857 3.95543 0.403966 0
M  V30 1549 N 144.854 0.36279 1.53368 0
M  V30 1550 C 146.131 -0.284021 1.93527 0
M  V30 1551 C 146.511 -1.66628 1.29608 0
M  V30 1552 O 145.859 -2.23942 0.45413 0
M  V30 1553 C 146.069 -0.337028 3.47369 0
M  V30 1554 C 147.417 -0.578708 4.20638 0
M  V30 1555 O 148.441 -0.418352 3.53735 0
M  V30 1556 O 147.3 -0.89074 5.39192 0
M  V30 1557 H 144.394 -0.169743 0.809393 0
M  V30 1558 H 146.94 0.41537 1.64538 0
M  V30 1559 H 145.712 0.632217 3.86159 0
M  V30 1560 H 145.335 -1.08243 3.82582 0
M  V30 1561 N 146.332 -1.57332 0.0918853 0
M  V30 1562 C 147.279 -2.13847 -0.868211 0
M  V30 1563 C 148.249 -1.05618 -1.28196 0
M  V30 1564 O 149.434 -1.33387 -1.36427 0
M  V30 1565 C 146.574 -2.72062 -2.12312 0
M  V30 1566 C 145.687 -3.94514 -1.7602 0
M  V30 1567 C 144.822 -4.40903 -2.96273 0
M  V30 1568 C 143.861 -5.55953 -2.56092 0
M  V30 1569 N 142.998 -5.97209 -3.69169 0
M  V30 1570 H 147.838 -2.95575 -0.379406 0
M  V30 1571 H 145.375 -1.46048 -0.175606 0
M  V30 1572 H 147.333 -3.03931 -2.858 0
M  V30 1573 H 145.963 -1.93068 -2.58698 0
M  V30 1574 H 145.015 -3.68979 -0.925135 0
M  V30 1575 H 146.327 -4.7802 -1.42472 0
M  V30 1576 H 145.481 -4.74539 -3.78018 0
M  V30 1577 H 144.22 -3.56291 -3.33029 0
M  V30 1578 H 143.225 -5.21948 -1.72773 0
M  V30 1579 H 144.45 -6.42311 -2.20484 0
M  V30 1580 H 142.396 -5.15543 -4.05649 0
M  V30 1581 H 142.313 -6.75504 -3.39456 0
M  V30 1582 H 143.581 -6.35475 -4.51434 0
M  V30 1583 N 147.81 0.181792 -1.56548 0
M  V30 1584 C 148.743 1.25366 -1.90679 0
M  V30 1585 C 149.721 1.43299 -0.768376 0
M  V30 1586 O 150.905 1.58475 -1.02068 0
M  V30 1587 C 148.032 2.61826 -2.1486 0
M  V30 1588 C 147.078 2.60688 -3.37556 0
M  V30 1589 S 147.911 2.10804 -4.92262 0
M  V30 1590 C 149.067 3.49062 -5.19525 0
M  V30 1591 H 149.3 0.962277 -2.81296 0
M  V30 1592 H 146.833 0.385892 -1.495 0
M  V30 1593 H 148.791 3.40371 -2.29473 0
M  V30 1594 H 147.452 2.88169 -1.24969 0
M  V30 1595 H 146.645 3.61058 -3.51643 0
M  V30 1596 H 146.247 1.90232 -3.22006 0
M  V30 1597 H 148.539 4.45003 -5.10861 0
M  V30 1598 H 149.482 3.39859 -6.2121 0
M  V30 1599 H 149.89 3.4459 -4.47122 0
M  V30 1600 N 149.288 1.51039 0.449983 0
M  V30 1601 C 150.513 1.6715 1.22783 0
M  V30 1602 C 150.938 0.363081 1.84563 0
M  V30 1603 O 150.296 -0.675433 1.68249 0
M  V30 1604 C 150.344 2.77985 2.29689 0
M  V30 1605 O 149.448 2.40707 3.34864 0
M  V30 1606 H 148.789 0.557746 0.360299 0
M  V30 1607 H 151.319 1.97535 0.533005 0
M  V30 1608 H 151.329 3.01693 2.74673 0
M  V30 1609 H 150.004 3.72935 1.84098 0
M  V30 1610 H 148.581 2.27523 2.95445 0
M  V30 1611 N 150.766 -0.704594 1.40972 0
M  V30 1612 C 151.696 -1.83124 1.44872 0
M  V30 1613 C 152.677 -1.67281 0.30838 0
M  V30 1614 O 153.862 -1.87149 0.518556 0
M  V30 1615 C 150.992 -3.21181 1.32136 0
M  V30 1616 C 149.946 -3.51714 2.43888 0
M  V30 1617 C 149.272 -4.89032 2.16222 0
M  V30 1618 C 150.572 -3.516 3.86232 0
M  V30 1619 H 152.266 -1.80117 2.39161 0
M  V30 1620 H 149.812 -0.865145 1.15114 0
M  V30 1621 H 151.765 -3.99702 1.33479 0
M  V30 1622 H 150.489 -3.24791 0.343279 0
M  V30 1623 H 149.148 -2.75539 2.41813 0
M  V30 1624 H 148.796 -4.89256 1.16778 0
M  V30 1625 H 148.496 -5.10426 2.911 0
M  V30 1626 H 150.02 -5.69873 2.19265 0
M  V30 1627 H 151.434 -4.2014 3.9007 0
M  V30 1628 H 149.831 -3.84523 4.60719 0
M  V30 1629 H 150.901 -2.50757 4.15029 0
M  V30 1630 N 152.244 -1.26651 -0.937939 0
M  V30 1631 C 153.66 -1.03834 -1.21205 0
M  V30 1632 C 153.86 0.234502 -2.00131 0
M  V30 1633 O 152.916 0.942767 -2.3424 0
M  V30 1634 C 154.229 -2.27167 -1.97017 0
M  V30 1635 C 155.777 -2.32101 -2.09996 0
M  V30 1636 C 156.252 -3.55136 -2.8921 0
M  V30 1637 N 157.743 -3.55632 -2.96783 0
M  V30 1638 C 158.478 -4.475 -3.58512 0
M  V30 1639 N 157.974 -5.4966 -4.21717 0
M  V30 1640 N 159.767 -4.35145 -3.55816 0
M  V30 1641 H 151.918 -2.08398 -0.410391 0
M  V30 1642 H 154.181 -0.916031 -0.244114 0
M  V30 1643 H 153.887 -3.19765 -1.46434 0
M  V30 1644 H 153.761 -2.31672 -2.97671 0
M  V30 1645 H 156.148 -1.40015 -2.59769 0
M  V30 1646 H 156.229 -2.31605 -1.08594 0
M  V30 1647 H 155.873 -4.47553 -2.40123 0
M  V30 1648 H 155.803 -3.5288 -3.90875 0
M  V30 1649 H 158.294 -2.81743 -2.51852 0
M  V30 1650 H 158.607 -6.15943 -4.66727 0
M  V30 1651 H 156.952 -5.53514 -4.20294 0
M  V30 1652 H 160.143 -3.5455 -3.05634 0
M  V30 1653 H 160.316 -5.06934 -4.03636 0
M  V30 1654 N 153.722 1.14298 -1.08507 0
M  V30 1655 C 154.652 2.21542 -0.737646 0
M  V30 1656 C 155.633 1.67773 0.280377 0
M  V30 1657 O 156.818 1.93616 0.150521 0
M  V30 1658 C 153.948 3.46988 -0.147259 0
M  V30 1659 C 152.902 4.13789 -1.09374 0
M  V30 1660 C 152.228 5.33449 -0.365524 0
M  V30 1661 C 153.528 4.62208 -2.4323 0
M  V30 1662 H 155.222 2.5086 -1.6343 0
M  V30 1663 H 152.768 1.20576 -0.787243 0
M  V30 1664 H 154.721 4.21262 0.107808 0
M  V30 1665 H 153.445 3.17037 0.784538 0
M  V30 1666 H 152.104 3.4147 -1.33393 0
M  V30 1667 H 151.752 4.99759 0.57011 0
M  V30 1668 H 151.452 5.79088 -0.996512 0
M  V30 1669 H 152.976 6.10485 -0.118534 0
M  V30 1670 H 154.39 5.27952 -2.23472 0
M  V30 1671 H 152.787 5.18553 -3.02031 0
M  V30 1672 H 153.857 3.77224 -3.04681 0
M  V30 1673 N 155.201 0.870884 1.31352 0
M  V30 1674 C 156.151 0.298889 2.26032 0
M  V30 1675 C 157.135 -0.564595 1.50669 0
M  V30 1676 O 158.327 -0.411323 1.72154 0
M  V30 1677 C 155.456 -0.497842 3.39671 0
M  V30 1678 C 154.542 0.378937 4.22404 0
M  V30 1679 N 154.933 1.47284 4.83881 0
M  V30 1680 C 153.231 0.171535 4.4567 0
M  V30 1681 C 153.932 2.01359 5.45738 0
M  V30 1682 N 152.908 1.31047 5.27568 0
M  V30 1683 H 156.71 1.13494 2.71102 0
M  V30 1684 H 154.224 0.718745 1.45629 0
M  V30 1685 H 156.221 -0.924155 4.06528 0
M  V30 1686 H 154.881 -1.33149 2.96144 0
M  V30 1687 H 155.892 1.85575 4.8351 0
M  V30 1688 H 152.569 -0.626091 4.12779 0
M  V30 1689 H 153.959 2.93143 6.0458 0
M  V30 1690 N 156.679 -1.44442 0.630414 0
M  V30 1691 C 157.909 -2.06115 0.141465 0
M  V30 1692 C 158.317 -1.47179 -1.1889 0
M  V30 1693 O 157.66 -0.588873 -1.74006 0
M  V30 1694 C 157.722 -3.59467 -0.0484355 0
M  V30 1695 C 157.386 -4.40864 1.20366 0
M  V30 1696 C 158.383 -4.74391 2.12719 0
M  V30 1697 C 156.068 -4.8125 1.43887 0
M  V30 1698 C 158.062 -5.47186 3.26904 0
M  V30 1699 C 155.749 -5.53795 2.5837 0
M  V30 1700 C 156.747 -5.86682 3.49705 0
M  V30 1701 O 156.435 -6.57749 4.62191 0
M  V30 1702 H 156.167 -0.671648 0.0765792 0
M  V30 1703 H 158.721 -1.86312 0.864695 0
M  V30 1704 H 156.951 -3.77758 -0.826803 0
M  V30 1705 H 158.64 -4.02909 -0.491849 0
M  V30 1706 H 159.406 -4.43728 1.95781 0
M  V30 1707 H 155.285 -4.55073 0.736853 0
M  V30 1708 H 158.829 -5.72773 3.98217 0
M  V30 1709 H 154.726 -5.83872 2.75251 0
M  V30 1710 H 155.494 -6.76217 4.61164 0
M  V30 1711 N 158.157 -0.370918 -1.53173 0
M  V30 1712 C 159.573 -0.0200818 -1.59587 0
M  V30 1713 C 159.773 1.46279 -1.38581 0
M  V30 1714 O 158.829 2.22506 -1.19363 0
M  V30 1715 C 160.142 -0.4808 -2.96831 0
M  V30 1716 C 161.69 -0.435477 -3.09956 0
M  V30 1717 C 162.165 -0.872092 -4.4962 0
M  V30 1718 N 163.656 -0.827364 -4.55751 0
M  V30 1719 C 164.391 -1.13683 -5.62018 0
M  V30 1720 N 163.887 -1.51584 -6.76014 0
M  V30 1721 N 165.68 -1.05927 -5.52029 0
M  V30 1722 H 157.831 -1.33652 -1.65079 0
M  V30 1723 H 160.094 -0.546634 -0.774529 0
M  V30 1724 H 159.8 -1.51577 -3.1736 0
M  V30 1725 H 159.674 0.129796 -3.76977 0
M  V30 1726 H 162.061 0.590371 -2.89134 0
M  V30 1727 H 162.142 -1.08164 -2.31806 0
M  V30 1728 H 161.786 -1.89608 -4.71181 0
M  V30 1729 H 161.716 -0.203127 -5.26208 0
M  V30 1730 H 164.207 -0.548216 -3.73902 0
M  V30 1731 H 164.52 -1.73609 -7.53047 0
M  V30 1732 H 162.865 -1.55454 -6.77391 0
M  V30 1733 H 166.056 -0.762321 -4.61851 0
M  V30 1734 H 166.229 -1.30378 -6.34749 0
M  V30 1735 N 159.635 1.57281 -0.100228 0
M  V30 1736 C 160.568 2.09976 0.893612 0
M  V30 1737 C 161.546 1.01155 1.27304 0
M  V30 1738 O 162.73 1.28687 1.37739 0
M  V30 1739 C 159.857 2.58098 2.19324 0
M  V30 1740 C 158.903 3.78626 1.96328 0
M  V30 1741 S 159.736 5.21959 1.19662 0
M  V30 1742 C 160.892 5.73435 2.50844 0
M  V30 1743 H 161.125 2.93946 0.44534 0
M  V30 1744 H 158.658 1.53985 0.113167 0
M  V30 1745 H 160.616 2.8648 2.94005 0
M  V30 1746 H 159.277 1.74344 2.61272 0
M  V30 1747 H 158.47 4.10382 2.92579 0
M  V30 1748 H 158.072 3.50763 1.29775 0
M  V30 1749 H 160.364 5.82015 3.46792 0
M  V30 1750 H 161.307 6.7185 2.23659 0
M  V30 1751 H 161.715 5.01395 2.59352 0
M  V30 1752 N 161.113 -0.173488 1.56642 0
M  V30 1753 C 162.529 -0.525174 1.50712 0
M  V30 1754 C 162.729 -1.8476 0.804107 0
M  V30 1755 O 161.785 -2.49869 0.363574 0
M  V30 1756 C 163.098 -0.559937 2.95441 0
M  V30 1757 C 164.646 -0.647288 3.06234 0
M  V30 1758 C 165.121 -0.712963 4.52417 0
M  V30 1759 N 166.612 -0.775911 4.56655 0
M  V30 1760 C 167.347 -0.847264 5.67106 0
M  V30 1761 N 166.843 -0.879585 6.87194 0
M  V30 1762 N 168.636 -0.886117 5.55071 0
M  V30 1763 H 160.787 0.693681 2.00753 0
M  V30 1764 H 163.05 0.249841 0.914485 0
M  V30 1765 H 162.756 0.343049 3.50023 0
M  V30 1766 H 162.63 -1.40718 3.49969 0
M  V30 1767 H 165.017 -1.5407 2.51687 0
M  V30 1768 H 165.098 0.226586 2.54794 0
M  V30 1769 H 164.742 0.176183 5.07594 0
M  V30 1770 H 164.672 -1.60295 5.0161 0
M  V30 1771 H 167.163 -0.759304 3.70193 0
M  V30 1772 H 167.476 -0.935144 7.67121 0
M  V30 1773 H 165.821 -0.847898 6.89808 0
M  V30 1774 H 169.012 -0.857853 4.60172 0
M  V30 1775 H 169.185 -0.938263 6.41171 0
M  V30 1776 N 162.591 -1.51276 -0.441967 0
M  V30 1777 C 163.838 -1.63715 -1.19179 0
M  V30 1778 C 164.166 -0.351175 -1.91303 0
M  V30 1779 O 163.421 0.664524 -1.84072 0
M  V30 1780 C 163.72 -2.78746 -2.23686 0
M  V30 1781 C 163.386 -4.18189 -1.68607 0
M  V30 1782 C 162.048 -4.56125 -1.53308 0
M  V30 1783 C 164.4 -5.05222 -1.28062 0
M  V30 1784 C 161.728 -5.78804 -0.959317 0
M  V30 1785 C 164.08 -6.28476 -0.721162 0
M  V30 1786 C 162.744 -6.65188 -0.55504 0
M  V30 1787 H 162.014 -0.599076 -0.436106 0
M  V30 1788 H 164.661 -1.85296 -0.48351 0
M  V30 1789 H 162.966 -2.51369 -3.00535 0
M  V30 1790 H 164.663 -2.8557 -2.81515 0
M  V30 1791 H 161.253 -3.88277 -1.8149 0
M  V30 1792 H 165.437 -4.76524 -1.38704 0
M  V30 1793 H 160.693 -6.05899 -0.81833 0
M  V30 1794 H 164.867 -6.95259 -0.398458 0
M  V30 1795 H 162.494 -7.60123 -0.108311 0
M  V30 1796 N 164.069 0.697108 -1.41344 0
M  V30 1797 C 165.299 1.48377 -1.43763 0
M  V30 1798 C 165.707 1.89156 -0.0408726 0
M  V30 1799 O 165.05 1.57239 0.949812 0
M  V30 1800 C 165.112 2.7781 -2.2817 0
M  V30 1801 C 164.776 2.59244 -3.76353 0
M  V30 1802 C 165.773 2.25292 -4.68551 0
M  V30 1803 C 163.458 2.74933 -4.20378 0
M  V30 1804 C 165.452 2.07264 -6.02761 0
M  V30 1805 C 163.139 2.56521 -5.54653 0
M  V30 1806 C 164.137 2.22737 -6.4566 0
M  V30 1807 O 163.825 2.04485 -7.77458 0
M  V30 1808 H 163.557 0.463842 -0.491759 0
M  V30 1809 H 166.111 0.865934 -1.86255 0
M  V30 1810 H 164.341 3.41995 -1.8049 0
M  V30 1811 H 166.03 3.39608 -2.22309 0
M  V30 1812 H 166.796 2.12787 -4.35829 0
M  V30 1813 H 162.675 3.00213 -3.49848 0
M  V30 1814 H 166.219 1.80817 -6.73759 0
M  V30 1815 H 162.116 2.68616 -5.86955 0
M  V30 1816 H 162.884 2.1926 -7.88586 0
M  V30 1817 N 165.547 1.27147 0.931209 0
M  V30 1818 C 166.794 1.13278 1.67852 0
M  V30 1819 C 167.122 -0.32204 1.91815 0
M  V30 1820 O 166.377 -1.25224 1.50391 0
M  V30 1821 C 166.676 1.8579 3.05314 0
M  V30 1822 C 166.342 3.35657 3.01073 0
M  V30 1823 C 165.004 3.76536 2.99623 0
M  V30 1824 C 167.356 4.31299 2.92627 0
M  V30 1825 C 164.684 5.11426 2.87506 0
M  V30 1826 C 167.036 5.66242 2.82051 0
M  V30 1827 C 165.7 6.06418 2.7895 0
M  V30 1828 H 164.97 0.414515 0.614214 0
M  V30 1829 H 167.617 1.57712 1.08624 0
M  V30 1830 H 165.922 1.33854 3.68226 0
M  V30 1831 H 167.619 1.72491 3.62005 0
M  V30 1832 H 164.209 3.03146 3.02986 0
M  V30 1833 H 168.393 4.00692 2.92848 0
M  V30 1834 H 163.649 5.41705 2.83489 0
M  V30 1835 H 167.823 6.40026 2.74481 0
M  V30 1836 H 165.45 7.10895 2.69318 0
M  V30 1837 N 167.025 -1.13721 1.09112 0
M  V30 1838 C 168.253 -1.88773 0.846899 0
M  V30 1839 C 168.668 -1.7896 -0.601572 0
M  V30 1840 O 168.025 -1.15394 -1.41388 0
M  V30 1841 C 168.076 -3.3849 1.26913 0
M  V30 1842 O 167.797 -3.48043 2.66079 0
M  V30 1843 C 169.298 -4.30518 1.05682 0
M  V30 1844 H 166.518 -0.59772 0.304914 0
M  V30 1845 H 169.062 -1.43977 1.45227 0
M  V30 1846 H 167.217 -3.80881 0.707723 0
M  V30 1847 H 167.631 -4.4109 2.83795 0
M  V30 1848 H 169.105 -5.3391 1.40156 0
M  V30 1849 H 169.582 -4.392 -0.00563416 0
M  V30 1850 H 170.188 -3.93893 1.60402 0
M  V30 1851 N 168.503 -0.877838 -1.30888 0
M  V30 1852 C 169.451 -0.328662 -2.30266 0
M  V30 1853 C 170.445 0.560496 -1.59859 0
M  V30 1854 O 171.651 0.445722 -1.74394 0
M  V30 1855 H 168.026 -0.0876142 -0.746879 0
M  V30 1856 H 169.997 -1.18061 -2.74051 0
M  V30 1857 C 168.746 0.448071 -3.44801 0
M  V30 1858 H 168.069 -0.226859 -3.99156 0
M  V30 1859 H 169.509 0.797541 -4.16432 0
M  V30 1860 C 167.968 1.64239 -2.94155 0
M  V30 1861 O 168.498 2.74175 -2.93583 0
M  V30 1862 N 166.704 1.47716 -2.50256 0
M  V30 1863 H 166.251 0.582821 -2.5092 0
M  V30 1864 H 166.209 2.27765 -2.16727 0
M  V30 1865 N 169.982 1.44106 -0.638065 0
M  V30 1866 C 171.228 2.02815 -0.15409 0
M  V30 1867 C 171.583 1.49342 1.21304 0
M  V30 1868 O 170.876 0.670699 1.79478 0
M  V30 1869 C 171.07 3.5729 -0.0887327 0
M  V30 1870 C 170.899 4.2575 -1.44799 0
M  V30 1871 C 169.669 4.62443 -2.03653 0
M  V30 1872 C 171.867 4.55746 -2.38327 0
M  V30 1873 N 169.849 5.15903 -3.32741 0
M  V30 1874 C 171.22 5.10364 -3.52036 0
M  V30 1875 C 173.275 4.37703 -2.3732 0
M  V30 1876 C 171.978 5.48837 -4.64941 0
M  V30 1877 C 174.004 4.77229 -3.49294 0
M  V30 1878 C 173.366 5.31966 -4.61726 0
M  V30 1879 H 169.465 0.775519 -0.100466 0
M  V30 1880 H 172.049 1.755 -0.843071 0
M  V30 1881 H 170.22 3.84201 0.569548 0
M  V30 1882 H 171.952 4.02671 0.404711 0
M  V30 1883 H 168.707 4.46987 -1.56523 0
M  V30 1884 H 169.131 5.47102 -3.98758 0
M  V30 1885 H 173.773 3.94671 -1.51641 0
M  V30 1886 H 171.491 5.9082 -5.51323 0
M  V30 1887 H 175.077 4.64976 -3.49698 0
M  V30 1888 H 173.957 5.61986 -5.46939 0
M  V30 1889 N 171.46 0.379036 1.52974 0
M  V30 1890 C 172.41 -0.477772 2.22938 0
M  V30 1891 C 173.394 -1.03792 1.22948 0
M  V30 1892 O 174.586 -0.965725 1.48333 0
M  V30 1893 C 171.715 -1.60994 3.03209 0
M  V30 1894 C 170.801 -1.06203 4.10587 0
M  V30 1895 N 171.192 -0.238214 5.05239 0
M  V30 1896 C 169.49 -1.33554 4.25534 0
M  V30 1897 C 170.191 0.0633235 5.81666 0
M  V30 1898 N 169.167 -0.537901 5.40932 0
M  V30 1899 H 172.969 0.158295 2.93473 0
M  V30 1900 H 170.483 0.187778 1.61311 0
M  V30 1901 H 172.48 -2.23607 3.5186 0
M  V30 1902 H 171.14 -2.24893 2.34207 0
M  V30 1903 H 172.151 0.123695 5.17752 0
M  V30 1904 H 168.828 -1.97632 3.6776 0
M  V30 1905 H 170.218 0.730161 6.67921 0
M  V30 1906 N 172.938 -1.57226 0.108567 0
M  V30 1907 C 174.186 -1.94448 -0.550853 0
M  V30 1908 C 174.507 -0.992074 -1.67878 0
M  V30 1909 O 173.777 -0.0465 -1.95845 0
M  V30 1910 H 172.357 -0.717897 -0.206479 0
M  V30 1911 H 175.019 -1.94112 0.175062 0
M  V30 1912 H 174.115 -2.97218 -0.952259 0
M  V30 1913 N 174.416 0.165178 -1.56732 0
M  V30 1914 C 175.644 0.896218 -1.86482 0
M  V30 1915 C 176.059 1.75555 -0.694675 0
M  V30 1916 O 175.416 1.79379 0.33607 0
M  V30 1917 C 175.467 1.76792 -3.1532 0
M  V30 1918 O 175.188 0.943239 -4.27825 0
M  V30 1919 C 176.689 2.6081 -3.58459 0
M  V30 1920 H 173.909 0.260064 -0.618553 0
M  V30 1921 H 176.453 0.163428 -2.03846 0
M  V30 1922 H 174.608 2.45398 -2.99764 0
M  V30 1923 H 175.022 1.53998 -5.01383 0
M  V30 1924 H 176.496 3.17579 -4.51495 0
M  V30 1925 H 176.973 3.35977 -2.82872 0
M  V30 1926 H 177.579 1.97526 -3.76648 0
M  V30 1927 N 175.894 1.51508 0.433938 0
M  V30 1928 C 176.842 1.73646 1.54757 0
M  V30 1929 C 177.836 0.602854 1.5831 0
M  V30 1930 O 179.042 0.784318 1.62014 0
M  V30 1931 H 175.417 0.548718 0.51421 0
M  V30 1932 H 177.388 2.66991 1.33261 0
M  V30 1933 C 176.137 1.88172 2.92381 0
M  V30 1934 H 175.46 2.74808 2.90381 0
M  V30 1935 H 176.9 2.07672 3.6966 0
M  V30 1936 C 175.359 0.64239 3.30719 0
M  V30 1937 O 175.889 -0.201362 4.01195 0
M  V30 1938 N 174.095 0.485489 2.86516 0
M  V30 1939 H 173.642 1.17318 2.29334 0
M  V30 1940 H 173.6 -0.342482 3.12529 0
M  V30 1941 N 177.372 -0.689602 1.41712 0
M  V30 1942 C 178.649 -1.44457 1.31877 0
M  V30 1943 C 179.029 -2.11039 -0.0508537 0
M  V30 1944 O 178.377 -2.02138 -1.06547 0
M  V30 1945 C 178.587 -2.45913 2.47645 0
M  V30 1946 C 179.935 -3.10991 2.89084 0
M  V30 1947 O 180.959 -2.56238 2.47428 0
M  V30 1948 O 179.818 -4.10174 3.61137 0
M  V30 1949 H 176.912 -0.64362 0.519309 0
M  V30 1950 H 179.458 -0.719576 1.53689 0
M  V30 1951 H 178.23 -1.95409 3.39015 0
M  V30 1952 H 177.853 -3.25913 2.27742 0
M  V30 1953 N 178.85 -1.27639 -0.924453 0
M  V30 1954 C 179.798 -1.10485 -2.04685 0
M  V30 1955 C 180.792 -0.0270421 -1.69378 0
M  V30 1956 O 181.998 -0.185008 -1.79047 0
M  V30 1957 H 178.373 -0.340546 -0.670472 0
M  V30 1958 H 180.344 -2.05566 -2.16298 0
M  V30 1959 C 179.093 -0.772229 -3.39016 0
M  V30 1960 H 178.416 -1.59351 -3.66671 0
M  V30 1961 H 179.856 -0.692097 -4.18313 0
M  V30 1962 C 178.315 0.523554 -3.32807 0
M  V30 1963 O 178.845 1.55702 -3.70297 0
M  V30 1964 N 177.051 0.520363 -2.85903 0
M  V30 1965 H 176.598 -0.32107 -2.55591 0
M  V30 1966 H 176.556 1.38742 -2.82131 0
M  V30 1967 N 180.328 1.1314 -1.09713 0
M  V30 1968 C 181.238 2.22242 -0.751367 0
M  V30 1969 C 182.254 1.72224 0.247938 0
M  V30 1970 O 183.43 2.01205 0.0885463 0
M  V30 1971 C 180.495 3.46231 -0.180274 0
M  V30 1972 C 179.556 4.11125 -1.2359 0
M  V30 1973 C 178.789 5.29195 -0.691966 0
M  V30 1974 O 179.012 5.68342 0.48414 0
M  V30 1975 O 177.946 5.84214 -1.44838 0
M  V30 1976 H 181.772 2.54197 -1.66186 0
M  V30 1977 H 179.357 1.21331 -0.871735 0
M  V30 1978 H 181.239 4.21185 0.134739 0
M  V30 1979 H 179.914 3.1597 0.703185 0
M  V30 1980 H 178.821 3.37985 -1.60366 0
M  V30 1981 H 180.154 4.45524 -2.09211 0
M  V30 1982 N 181.806 0.884767 1.30421 0
M  V30 1983 C 182.738 0.308655 2.27112 0
M  V30 1984 C 183.751 -0.536655 1.53701 0
M  V30 1985 O 184.94 -0.35624 1.74909 0
M  V30 1986 C 182.04 -0.579782 3.33904 0
M  V30 1987 C 181.213 0.236417 4.36761 0
M  V30 1988 C 180.272 -0.582482 5.22966 0
M  V30 1989 O 179.298 -0.00525502 5.692 0
M  V30 1990 N 180.5 -1.89163 5.48815 0
M  V30 1991 H 183.265 1.13964 2.77186 0
M  V30 1992 H 180.826 0.747731 1.43599 0
M  V30 1993 H 182.818 -1.13366 3.88497 0
M  V30 1994 H 181.388 -1.31144 2.83761 0
M  V30 1995 H 180.608 0.97174 3.82035 0
M  V30 1996 H 181.896 0.795924 5.02536 0
M  V30 1997 H 181.294 -2.38352 5.13035 0
M  V30 1998 H 179.851 -2.39296 6.06284 0
M  V30 1999 N 183.284 -1.43765 0.645699 0
M  V30 2000 C 184.509 -2.06767 0.161883 0
M  V30 2001 C 184.934 -1.48034 -1.16049 0
M  V30 2002 O 184.292 -0.587369 -1.71522 0
M  V30 2003 C 184.34 -3.60519 0.0762003 0
M  V30 2004 O 183.444 -4.00982 -0.963721 0
M  V30 2005 H 182.785 -0.657675 0.091429 0
M  V30 2006 H 185.315 -1.84397 0.886499 0
M  V30 2007 H 185.325 -4.07853 -0.109604 0
M  V30 2008 H 184 -4.02646 1.04157 0
M  V30 2009 H 182.577 -3.65253 -0.751312 0
M  V30 2010 N 184.763 -0.387143 -1.52771 0
M  V30 2011 C 186.009 0.196025 -2.0185 0
M  V30 2012 C 186.342 1.46641 -1.27319 0
M  V30 2013 O 185.617 1.90889 -0.373032 0
M  V30 2014 C 185.9 0.466136 -3.5707 0
M  V30 2015 C 185.753 -0.819385 -4.42274 0
M  V30 2016 C 187.072 1.25768 -4.21747 0
M  V30 2017 H 184.191 0.0697708 -0.73369 0
M  V30 2018 H 186.833 -0.516286 -1.82851 0
M  V30 2019 H 184.983 1.07293 -3.7339 0
M  V30 2020 H 186.655 -1.4563 -4.37709 0
M  V30 2021 H 184.898 -1.43517 -4.09372 0
M  V30 2022 H 185.569 -0.585065 -5.48891 0
M  V30 2023 H 188.045 0.744167 -4.09391 0
M  V30 2024 H 186.921 1.41541 -5.30337 0
M  V30 2025 H 187.182 2.27228 -3.79236 0
M  V30 2026 N 186.241 1.57166 -0.116904 0
M  V30 2027 C 187.487 1.96206 0.536166 0
M  V30 2028 C 187.842 0.99915 1.64422 0
M  V30 2029 O 187.135 0.0288195 1.91578 0
M  V30 2030 C 187.329 3.39508 1.11664 0
M  V30 2031 C 187.158 4.49651 0.0663474 0
M  V30 2032 C 185.928 5.03982 -0.36474 0
M  V30 2033 C 188.126 5.09322 -0.713829 0
M  V30 2034 N 186.108 5.97699 -1.40102 0
M  V30 2035 C 187.479 5.98963 -1.60136 0
M  V30 2036 C 189.534 4.91989 -0.764948 0
M  V30 2037 C 188.237 6.73128 -2.53556 0
M  V30 2038 C 190.263 5.66833 -1.68685 0
M  V30 2039 C 189.625 6.56158 -2.56196 0
M  V30 2040 H 185.724 0.764203 0.165886 0
M  V30 2041 H 188.308 1.93623 -0.204535 0
M  V30 2042 H 186.479 3.42743 1.82707 0
M  V30 2043 H 188.211 3.65677 1.73386 0
M  V30 2044 H 184.966 4.73592 0.027252 0
M  V30 2045 H 185.39 6.49262 -1.91802 0
M  V30 2046 H 190.032 4.22676 -0.102501 0
M  V30 2047 H 187.75 7.41689 -3.20816 0
M  V30 2048 H 191.336 5.55427 -1.73181 0
M  V30 2049 H 190.216 7.13057 -3.26372 0
M  V30 2050 N 187.719 -0.156864 1.56817 0
M  V30 2051 C 189.135 -0.50916 1.5126 0
M  V30 2052 C 189.335 -1.83897 0.823658 0
M  V30 2053 O 188.391 -2.49469 0.390055 0
M  V30 2054 C 189.704 -0.52857 2.96018 0
M  V30 2055 C 191.252 -0.614771 3.06903 0
M  V30 2056 C 191.727 -0.664938 4.53147 0
M  V30 2057 N 193.218 -0.727433 4.57452 0
M  V30 2058 C 193.953 -0.787067 5.67973 0
M  V30 2059 N 193.449 -0.806649 6.88088 0
M  V30 2060 N 195.242 -0.827195 5.5598 0
M  V30 2061 H 187.393 0.714935 2.00006 0
M  V30 2062 H 189.656 0.259526 0.911784 0
M  V30 2063 H 189.362 0.380154 3.49639 0
M  V30 2064 H 189.236 -1.36998 3.51442 0
M  V30 2065 H 191.623 -1.51392 2.53307 0
M  V30 2066 H 191.704 0.253597 2.5454 0
M  V30 2067 H 191.348 0.230011 5.07379 0
M  V30 2068 H 191.278 -1.54966 5.03282 0
M  V30 2069 H 193.769 -0.719998 3.70978 0
M  V30 2070 H 194.082 -0.853727 7.6807 0
M  V30 2071 H 192.427 -0.774687 6.90669 0
M  V30 2072 H 195.618 -0.808998 4.61056 0
M  V30 2073 H 195.791 -0.870206 6.4213 0
M  V30 2074 N 189.197 -1.51736 -0.425897 0
M  V30 2075 C 190.147 -1.70258 -1.51645 0
M  V30 2076 C 191.131 -0.556488 -1.5097 0
M  V30 2077 O 192.323 -0.812879 -1.5723 0
M  V30 2078 C 189.452 -1.84143 -2.89735 0
M  V30 2079 C 188.538 -3.04572 -2.95122 0
M  V30 2080 N 188.929 -4.2756 -2.70233 0
M  V30 2081 C 187.227 -3.04061 -3.26286 0
M  V30 2082 C 187.928 -5.08908 -2.81757 0
M  V30 2083 N 186.904 -4.43797 -3.13919 0
M  V30 2084 H 190.706 -2.63004 -1.31172 0
M  V30 2085 H 188.22 -1.4954 -0.633375 0
M  V30 2086 H 190.217 -1.95525 -3.68206 0
M  V30 2087 H 188.877 -0.925857 -3.1122 0
M  V30 2088 H 189.888 -4.56315 -2.44943 0
M  V30 2089 H 186.565 -2.22179 -3.53473 0
M  V30 2090 H 187.955 -6.16843 -2.66372 0
M  V30 2091 N 190.675 0.682077 -1.42076 0
M  V30 2092 C 191.9 1.47558 -1.45744 0
M  V30 2093 C 192.325 1.87977 -0.0680981 0
M  V30 2094 O 191.683 1.55522 0.9318 0
M  V30 2095 C 191.731 2.70575 -2.38373 0
M  V30 2096 O 190.835 3.68573 -1.85007 0
M  V30 2097 H 190.176 0.443585 -0.494093 0
M  V30 2098 H 192.706 0.837238 -1.86686 0
M  V30 2099 H 192.716 3.18729 -2.54707 0
M  V30 2100 H 191.391 2.40495 -3.39315 0
M  V30 2101 H 189.968 3.2757 -1.78192 0
M  V30 2102 N 192.153 1.28127 0.917671 0
M  V30 2103 C 193.564 1.13622 1.48145 0
M  V30 2104 C 193.915 -0.275207 1.9426 0
M  V30 2105 O 193.04 -1.1691 1.82102 0
M  V30 2106 C 193.635 2.05648 2.69248 0
M  V30 2107 C 192.194 1.95219 3.21818 0
M  V30 2108 C 191.341 1.97618 1.94532 0
M  V30 2109 H 194.292 1.40874 0.730772 0
M  V30 2110 H 194.313 1.61818 3.44377 0
M  V30 2111 H 193.825 3.08365 2.35653 0
M  V30 2112 H 191.926 0.955244 3.60147 0
M  V30 2113 H 192.039 2.81976 3.87333 0
M  V30 2114 H 190.403 1.41973 2.11461 0
M  V30 2115 H 191.186 3.02007 1.63238 0
M  V30 2116 N 193.631 -1.12557 1.10312 0
M  V30 2117 C 194.578 -2.18247 0.750781 0
M  V30 2118 C 195.548 -1.63853 -0.272293 0
M  V30 2119 O 196.733 -1.90195 -0.151862 0
M  V30 2120 C 193.873 -3.44591 0.187379 0
M  V30 2121 C 192.986 -4.13046 1.2656 0
M  V30 2122 C 192.121 -5.27034 0.663978 0
M  V30 2123 C 191.16 -5.87353 1.72287 0
M  V30 2124 N 190.297 -6.92757 1.1416 0
M  V30 2125 H 195.137 -2.47732 1.65628 0
M  V30 2126 H 192.674 -1.21629 0.827337 0
M  V30 2127 H 194.632 -4.16904 -0.157148 0
M  V30 2128 H 193.262 -3.15527 -0.681355 0
M  V30 2129 H 192.314 -3.38924 1.72727 0
M  V30 2130 H 193.626 -4.53947 2.06721 0
M  V30 2131 H 192.78 -6.06104 0.268824 0
M  V30 2132 H 191.519 -4.87407 -0.169082 0
M  V30 2133 H 190.524 -5.06971 2.12746 0
M  V30 2134 H 191.749 -6.29051 2.55875 0
M  V30 2135 H 189.695 -6.5517 0.329984 0
M  V30 2136 H 189.612 -7.3225 1.88007 0
M  V30 2137 H 190.88 -7.75658 0.772956 0
M  V30 2138 N 195.109 -0.891671 -1.2995 0
M  V30 2139 C 196.056 -0.361736 -2.27948 0
M  V30 2140 C 197.026 0.551761 -1.56668 0
M  V30 2141 O 198.211 0.478736 -1.84696 0
M  V30 2142 C 195.351 0.411825 -3.42634 0
M  V30 2143 C 194.464 -0.531651 -4.28716 0
M  V30 2144 C 193.599 0.258167 -5.30572 0
M  V30 2145 C 192.638 -0.680349 -6.08307 0
M  V30 2146 N 191.775 0.0745613 -7.0206 0
M  V30 2147 H 196.615 -1.20254 -2.72659 0
M  V30 2148 H 194.152 -0.604352 -1.34112 0
M  V30 2149 H 196.11 0.876304 -4.07893 0
M  V30 2150 H 194.74 1.21715 -2.98974 0
M  V30 2151 H 193.792 -1.11463 -3.63703 0
M  V30 2152 H 195.104 -1.25038 -4.82874 0
M  V30 2153 H 194.258 0.784204 -6.0161 0
M  V30 2154 H 192.997 1.01008 -4.77126 0
M  V30 2155 H 192.002 -1.21796 -5.3614 0
M  V30 2156 H 193.227 -1.43145 -6.63842 0
M  V30 2157 H 191.173 0.808883 -6.50994 0
M  V30 2158 H 191.09 -0.584409 -7.53738 0
M  V30 2159 H 192.358 0.581123 -7.77331 0
M  V30 2160 N 196.587 1.43421 -0.653314 0
M  V30 2161 C 197.519 2.29071 0.0769134 0
M  V30 2162 C 198.532 1.42513 0.787017 0
M  V30 2163 O 199.721 1.66449 0.644757 0
M  V30 2164 C 196.821 3.19436 1.13199 0
M  V30 2165 C 195.994 4.34533 0.500006 0
M  V30 2166 C 195.053 5.05771 1.45198 0
M  V30 2167 O 194.079 5.61037 0.960538 0
M  V30 2168 N 195.281 5.0928 2.78594 0
M  V30 2169 H 198.046 2.92382 -0.658235 0
M  V30 2170 H 195.607 1.54112 -0.496104 0
M  V30 2171 H 197.599 3.63958 1.76964 0
M  V30 2172 H 196.169 2.57724 1.7691 0
M  V30 2173 H 195.389 3.92925 -0.316738 0
M  V30 2174 H 196.677 5.08766 0.0588345 0
M  V30 2175 H 196.075 4.65751 3.2108 0
M  V30 2176 H 194.632 5.57519 3.37662 0
M  V30 2177 N 198.065 0.39524 1.52563 0
M  V30 2178 C 199.012 -0.437036 2.26624 0
M  V30 2179 C 199.982 -1.05281 1.28472 0
M  V30 2180 O 201.167 -1.07971 1.57311 0
M  V30 2181 C 198.307 -1.55524 3.08069 0
M  V30 2182 C 197.42 -0.961745 4.21158 0
M  V30 2183 C 196.555 -2.05149 4.89987 0
M  V30 2184 C 195.594 -1.4342 5.95061 0
M  V30 2185 N 194.731 -2.46351 6.57462 0
M  V30 2186 H 199.571 0.200976 2.97322 0
M  V30 2187 H 197.108 0.110944 1.46681 0
M  V30 2188 H 199.066 -2.21437 3.53584 0
M  V30 2189 H 197.696 -2.16348 2.3957 0
M  V30 2190 H 196.748 -0.192048 3.79915 0
M  V30 2191 H 198.06 -0.470701 4.96574 0
M  V30 2192 H 197.214 -2.78819 5.38837 0
M  V30 2193 H 195.953 -2.57615 4.14109 0
M  V30 2194 H 194.958 -0.682774 5.45544 0
M  V30 2195 H 196.183 -0.917416 6.72875 0
M  V30 2196 H 194.129 -2.97975 5.8442 0
M  V30 2197 H 194.046 -2.02019 7.28508 0
M  V30 2198 H 195.314 -3.19633 7.10954 0
M  V30 2199 N 199.544 -1.57102 0.125237 0
M  V30 2200 C 200.492 -2.16905 -0.839927 0
M  V30 2201 C 201.486 -1.11998 -1.27094 0
M  V30 2202 O 202.692 -1.3029 -1.24195 0
M  V30 2203 H 199.067 -0.694252 -0.288995 0
M  V30 2204 H 201.038 -2.96774 -0.311115 0
M  V30 2205 C 199.787 -2.78795 -2.07771 0
M  V30 2206 H 199.11 -3.59221 -1.755 0
M  V30 2207 H 200.55 -3.2417 -2.73295 0
M  V30 2208 C 199.009 -1.76193 -2.87155 0
M  V30 2209 O 199.539 -1.21909 -3.82755 0
M  V30 2210 N 197.745 -1.45991 -2.51267 0
M  V30 2211 H 197.292 -1.90325 -1.73592 0
M  V30 2212 H 197.25 -0.775844 -3.04677 0
M  V30 2213 N 201.022 0.148545 -1.56898 0
M  V30 2214 C 202.27 0.859717 -1.82902 0
M  V30 2215 C 202.591 1.81775 -0.70588 0
M  V30 2216 O 201.861 1.93994 0.272586 0
M  V30 2217 H 200.441 0.320469 -0.674766 0
M  V30 2218 H 203.103 0.142918 -1.94375 0
M  V30 2219 H 202.199 1.4229 -2.77777 0
M  V30 2220 N 202.5 1.5196 0.417844 0
M  V30 2221 C 203.73 1.69181 1.18581 0
M  V30 2222 C 204.138 0.397104 1.84986 0
M  V30 2223 O 203.481 -0.636011 1.72339 0
M  V30 2224 C 203.543 2.76497 2.29759 0
M  V30 2225 C 203.207 4.18514 1.83563 0
M  V30 2226 C 204.204 5.02648 1.32821 0
M  V30 2227 C 201.889 4.64708 1.90661 0
M  V30 2228 C 203.883 6.31044 0.897894 0
M  V30 2229 C 201.57 5.93096 1.47241 0
M  V30 2230 C 202.568 6.76093 0.968891 0
M  V30 2231 O 202.256 8.02078 0.540924 0
M  V30 2232 H 201.988 0.570457 0.362705 0
M  V30 2233 H 204.542 1.99249 0.498885 0
M  V30 2234 H 202.772 2.41786 3.01789 0
M  V30 2235 H 204.461 2.82403 2.91553 0
M  V30 2236 H 205.227 4.68154 1.26716 0
M  V30 2237 H 201.106 4.00216 2.28797 0
M  V30 2238 H 204.65 6.95776 0.504192 0
M  V30 2239 H 200.547 6.271 1.53022 0
M  V30 2240 H 201.315 8.15794 0.66502 0
M  V30 2241 N 203.978 -0.674533 1.42435 0
M  V30 2242 C 204.888 -1.81751 1.48337 0
M  V30 2243 C 205.904 -1.69975 0.372099 0
M  V30 2244 O 207.08 -1.91521 0.62304 0
M  V30 2245 C 204.145 -3.17895 1.38361 0
M  V30 2246 C 203.206 -3.41625 2.59982 0
M  V30 2247 C 202.439 -4.71274 2.50473 0
M  V30 2248 O 202.662 -5.49197 1.54075 0
M  V30 2249 O 201.596 -4.96254 3.4061 0
M  V30 2250 H 205.422 -1.79728 2.44809 0
M  V30 2251 H 203.007 -0.830312 1.24202 0
M  V30 2252 H 204.889 -3.99136 1.35161 0
M  V30 2253 H 203.564 -3.20555 0.450144 0
M  V30 2254 H 202.471 -2.60231 2.68757 0
M  V30 2255 H 203.804 -3.43796 3.52229 0
M  V30 2256 N 205.456 -1.28612 -0.910864 0
M  V30 2257 C 206.403 -1.12786 -2.01365 0
M  V30 2258 C 207.373 -0.024201 -1.66082 0
M  V30 2259 O 208.558 -0.189667 -1.89855 0
M  V30 2260 C 205.698 -0.798743 -3.35729 0
M  V30 2261 C 204.811 -1.98173 -3.83864 0
M  V30 2262 C 203.946 -1.59298 -5.06752 0
M  V30 2263 C 202.985 -2.74245 -5.47226 0
M  V30 2264 N 202.122 -2.35842 -6.61304 0
M  V30 2265 H 206.962 -2.07142 -2.14234 0
M  V30 2266 H 204.499 -1.03093 -1.0493 0
M  V30 2267 H 206.457 -0.588662 -4.13026 0
M  V30 2268 H 205.087 0.10789 -3.2262 0
M  V30 2269 H 204.139 -2.30386 -3.02699 0
M  V30 2270 H 205.451 -2.84343 -4.09818 0
M  V30 2271 H 204.605 -1.34513 -5.916 0
M  V30 2272 H 203.344 -0.702618 -4.82612 0
M  V30 2273 H 202.349 -2.99725 -4.60918 0
M  V30 2274 H 203.574 -3.63928 -5.73353 0
M  V30 2275 H 201.52 -1.49279 -6.38789 0
M  V30 2276 H 201.437 -3.15546 -6.86998 0
M  V30 2277 H 202.705 -2.14348 -7.4945 0
M  V30 2278 N 206.934 1.1197 -1.10907 0
M  V30 2279 C 207.881 2.17846 -0.762345 0
M  V30 2280 C 208.851 1.63995 0.263599 0
M  V30 2281 O 210.036 1.90273 0.141773 0
M  V30 2282 C 207.176 3.44487 -0.205651 0
M  V30 2283 C 206.289 4.12369 -1.28748 0
M  V30 2284 C 205.424 5.26674 -0.691919 0
M  V30 2285 C 204.463 5.86431 -1.75399 0
M  V30 2286 N 203.6 6.92142 -1.17833 0
M  V30 2287 H 208.44 2.46851 -1.6694 0
M  V30 2288 H 205.977 1.21188 -0.833776 0
M  V30 2289 H 207.935 4.16981 0.135037 0
M  V30 2290 H 206.565 3.15884 0.664613 0
M  V30 2291 H 205.617 3.38003 -1.74522 0
M  V30 2292 H 206.929 4.52844 -2.09125 0
M  V30 2293 H 206.083 6.05953 -0.300963 0
M  V30 2294 H 204.822 4.8749 0.143232 0
M  V30 2295 H 203.827 5.05835 -2.15432 0
M  V30 2296 H 205.052 6.27685 -2.59208 0
M  V30 2297 H 202.998 6.54985 -0.364725 0
M  V30 2298 H 202.915 7.31242 -1.91887 0
M  V30 2299 H 204.183 7.75237 -0.81408 0
M  V30 2300 N 208.412 0.89855 1.29475 0
M  V30 2301 C 209.359 0.373819 2.27753 0
M  V30 2302 C 210.329 -0.543444 1.56958 0
M  V30 2303 O 211.514 -0.468934 1.84948 0
M  V30 2304 C 208.654 -0.393648 3.42848 0
M  V30 2305 C 207.767 0.554379 4.28428 0
M  V30 2306 C 206.902 -0.230026 5.30702 0
M  V30 2307 C 205.941 0.712599 6.07938 0
M  V30 2308 N 205.078 -0.0373283 7.0209 0
M  V30 2309 H 209.918 1.21699 2.72017 0
M  V30 2310 H 207.455 0.611456 1.33789 0
M  V30 2311 H 209.413 -0.85466 4.08352 0
M  V30 2312 H 208.043 -1.20128 2.99615 0
M  V30 2313 H 207.095 1.13391 3.63107 0
M  V30 2314 H 208.407 1.27597 4.82204 0
M  V30 2315 H 207.561 -0.752288 6.02018 0
M  V30 2316 H 206.3 -0.984758 4.77654 0
M  V30 2317 H 205.305 1.24637 5.35486 0
M  V30 2318 H 206.53 1.46664 6.63074 0
M  V30 2319 H 204.476 -0.774348 6.51414 0
M  V30 2320 H 204.393 0.624374 7.53417 0
M  V30 2321 H 205.661 -0.539891 7.77628 0
M  V30 2322 N 209.89 -1.43072 0.660911 0
M  V30 2323 C 211.139 -2.00942 0.174735 0
M  V30 2324 C 211.452 -1.52797 -1.22117 0
M  V30 2325 O 212.658 -2.02991 -1.80297 0
M  V30 2326 C 211.114 -3.58948 0.261559 0
M  V30 2327 C 210.722 -4.16085 1.66064 0
M  V30 2328 C 212.466 -4.24173 -0.166617 0
M  V30 2329 C 210.373 -5.6641 1.70098 0
M  V30 2330 H 209.303 -0.751483 0.0615631 0
M  V30 2331 H 211.954 -1.63955 0.824069 0
M  V30 2332 H 210.336 -3.93372 -0.455421 0
M  V30 2333 H 211.51 -3.93147 2.40359 0
M  V30 2334 H 209.825 -3.6326 2.03546 0
M  V30 2335 H 212.422 -5.34471 -0.156433 0
M  V30 2336 H 212.765 -3.98647 -1.19943 0
M  V30 2337 H 213.298 -3.94659 0.498875 0
M  V30 2338 H 210.037 -5.96715 2.71315 0
M  V30 2339 H 209.557 -5.91382 1.00139 0
M  V30 2340 H 211.236 -6.30585 1.44816 0
M  V30 2341 N 211.368 -0.403325 -1.52352 0
M  V30 2342 C 212.779 0.0675782 -1.86578 0
M  V30 2343 C 213.13 1.44941 -1.32236 0
M  V30 2344 O 212.255 2.06112 -0.659307 0
M  V30 2345 C 212.85 0.129404 -3.38553 0
M  V30 2346 C 211.409 0.544629 -3.72439 0
M  V30 2347 C 210.556 -0.284551 -2.75836 0
M  V30 2348 H 213.507 -0.620631 -1.46061 0
M  V30 2349 H 213.528 0.94581 -3.68558 0
M  V30 2350 H 213.04 -0.87645 -3.78074 0
M  V30 2351 H 211.141 1.55734 -3.38493 0
M  V30 2352 H 211.254 0.293046 -4.78203 0
M  V30 2353 H 209.618 0.252258 -2.53448 0
M  V30 2354 H 210.401 -1.28865 -3.18196 0
M  V30 2355 N 212.846 1.57033 -0.133567 0
M  V30 2356 C 214.123 1.87256 0.56522 0
M  V30 2357 C 214.503 1.03726 1.83859 0
M  V30 2358 O 213.851 0.120247 2.28183 0
M  V30 2359 C 214.061 3.3865 0.843636 0
M  V30 2360 C 215.409 4.07574 1.19032 0
M  V30 2361 O 216.433 3.43752 0.933429 0
M  V30 2362 O 215.292 5.20259 1.67312 0
M  V30 2363 H 212.386 0.775678 0.286796 0
M  V30 2364 H 214.932 1.68855 -0.169168 0
M  V30 2365 H 213.704 3.91257 -0.0581149 0
M  V30 2366 H 213.327 3.62532 1.63268 0
M  V30 2367 N 214.325 -0.140222 1.56975 0
M  V30 2368 C 215.288 -1.15689 1.97861 0
M  V30 2369 C 216.288 -1.3549 0.865974 0
M  V30 2370 O 217.478 -1.32367 1.13246 0
M  V30 2371 C 214.61 -2.51582 2.30042 0
M  V30 2372 H 215.803 -0.805971 2.88867 0
M  V30 2373 H 213.356 -0.383801 1.51515 0
M  V30 2374 H 214.091 -2.91632 1.41849 0
M  V30 2375 H 213.876 -2.38569 3.11171 0
M  V30 2376 H 215.366 -3.24792 2.62488 0
M  V30 2377 N 215.803 -1.52179 -0.40978 0
M  V30 2378 C 217.031 -1.70054 -1.17853 0
M  V30 2379 C 217.446 -0.409735 -1.843 0
M  V30 2380 O 216.803 0.614183 -1.71855 0
M  V30 2381 C 216.854 -2.83568 -2.24213 0
M  V30 2382 O 216.575 -4.0765 -1.60478 0
M  V30 2383 C 218.076 -3.12947 -3.13973 0
M  V30 2384 H 215.296 -0.569917 -0.354169 0
M  V30 2385 H 217.84 -1.98734 -0.482198 0
M  V30 2386 H 215.995 -2.57409 -2.89516 0
M  V30 2387 H 216.409 -4.70899 -2.30986 0
M  V30 2388 H 217.883 -3.95889 -3.84677 0
M  V30 2389 H 218.36 -2.26472 -3.76307 0
M  V30 2390 H 218.966 -3.40868 -2.5434 0
M  V30 2391 N 217.281 0.66697 -1.42791 0
M  V30 2392 C 218.692 1.2478 -1.38877 0
M  V30 2393 C 219.043 1.96012 -0.0859426 0
M  V30 2394 O 218.168 2.00463 0.815081 0
M  V30 2395 C 218.763 2.26938 -2.51564 0
M  V30 2396 C 217.322 2.80529 -2.50959 0
M  V30 2397 C 216.469 1.54965 -2.29959 0
M  V30 2398 H 219.42 0.459853 -1.51892 0
M  V30 2399 H 219.441 3.08834 -2.22265 0
M  V30 2400 H 218.953 1.75065 -3.46372 0
M  V30 2401 H 217.054 3.36502 -1.59991 0
M  V30 2402 H 217.167 3.29012 -3.48265 0
M  V30 2403 H 215.531 1.81817 -1.78366 0
M  V30 2404 H 216.314 1.05047 -3.26833 0
M  V30 2405 N 218.759 1.29093 0.90403 0
M  V30 2406 C 219.689 1.16401 2.02418 0
M  V30 2407 C 220.67 0.0593085 1.69997 0
M  V30 2408 O 221.855 0.238021 1.92736 0
M  V30 2409 C 218.985 0.835233 3.37107 0
M  V30 2410 C 217.939 1.89578 3.83724 0
M  V30 2411 C 217.265 1.42041 5.15489 0
M  V30 2412 C 218.565 3.30394 4.04521 0
M  V30 2413 H 220.259 2.10109 2.13295 0
M  V30 2414 H 217.805 1.01157 1.02486 0
M  V30 2415 H 219.758 0.733169 4.14973 0
M  V30 2416 H 218.482 -0.137543 3.2631 0
M  V30 2417 H 217.141 1.98715 3.08071 0
M  V30 2418 H 216.789 0.436426 5.01103 0
M  V30 2419 H 216.489 2.12964 5.4765 0
M  V30 2420 H 218.013 1.33176 5.959 0
M  V30 2421 H 219.427 3.24123 4.72882 0
M  V30 2422 H 217.824 3.99237 4.48029 0
M  V30 2423 H 218.894 3.73692 3.09002 0
M  V30 2424 N 220.237 -1.11381 1.11499 0
M  V30 2425 C 221.167 -2.19509 0.796125 0
M  V30 2426 C 222.148 -1.68458 -0.235796 0
M  V30 2427 O 223.333 -1.93947 -0.0991344 0
M  V30 2428 C 220.463 -3.46475 0.239205 0
M  V30 2429 C 219.417 -4.10744 1.20307 0
M  V30 2430 C 218.743 -5.32293 0.50683 0
M  V30 2431 C 220.043 -4.55597 2.55399 0
M  V30 2432 H 221.737 -2.46439 1.70024 0
M  V30 2433 H 219.283 -1.18446 0.818935 0
M  V30 2434 H 221.236 -4.214 0.00392006 0
M  V30 2435 H 219.96 -3.19006 -0.700206 0
M  V30 2436 H 218.619 -3.37813 1.42399 0
M  V30 2437 H 218.267 -5.01095 -0.437408 0
M  V30 2438 H 217.967 -5.76243 1.1497 0
M  V30 2439 H 219.491 -6.09956 0.280351 0
M  V30 2440 H 220.905 -5.21841 2.37391 0
M  V30 2441 H 219.302 -5.10363 3.15673 0
M  V30 2442 H 220.372 -3.69013 3.14575 0
M  V30 2443 N 221.715 -0.905404 -1.28997 0
M  V30 2444 C 222.992 -0.453513 -1.9027 0
M  V30 2445 C 223.372 1.06721 -1.82137 0
M  V30 2446 O 222.72 1.91159 -1.25182 0
M  V30 2447 C 222.93 -0.974494 -3.35119 0
M  V30 2448 C 224.278 -1.0216 -4.12127 0
M  V30 2449 O 225.302 -0.922557 -3.44046 0
M  V30 2450 O 224.161 -1.17121 -5.33802 0
M  V30 2451 H 221.255 -0.142347 -0.814657 0
M  V30 2452 H 223.801 -0.995642 -1.37423 0
M  V30 2453 H 222.573 -2.01848 -3.35221 0
M  V30 2454 H 222.196 -0.412706 -3.95452 0
M  V30 2455 N 223.193 1.4272 -0.668489 0
M  V30 2456 C 224.156 2.292 0.00448567 0
M  V30 2457 C 225.156 1.43001 0.735339 0
M  V30 2458 O 226.346 1.64461 0.57429 0
M  V30 2459 C 223.478 3.25375 1.01705 0
M  V30 2460 H 224.671 2.90199 -0.756608 0
M  V30 2461 H 222.224 1.50254 -0.430506 0
M  V30 2462 H 222.959 2.69301 1.80686 0
M  V30 2463 H 222.744 3.88944 0.496463 0
M  V30 2464 H 224.234 3.90245 1.48655 0
M  V30 2465 N 224.671 0.411399 1.52136 0
M  V30 2466 C 225.896 -0.165538 2.06738 0
M  V30 2467 C 226.321 -1.379 1.27926 0
M  V30 2468 O 225.679 -1.78628 0.310114 0
M  V30 2469 C 225.727 -0.492124 3.57226 0
M  V30 2470 O 224.831 -1.58276 3.80818 0
M  V30 2471 H 224.172 -0.0132132 0.663869 0
M  V30 2472 H 226.702 0.585253 1.96051 0
M  V30 2473 H 226.712 -0.750104 4.01045 0
M  V30 2474 H 225.387 0.394922 4.14021 0
M  V30 2475 H 223.964 -1.31677 3.48877 0
M  V30 2476 N 226.149 -1.5696 0.141893 0
M  V30 2477 C 227.374 -2.00754 -0.520838 0
M  V30 2478 C 227.799 -1.0213 -1.57959 0
M  V30 2479 O 227.157 0.00371324 -1.813 0
M  V30 2480 C 227.205 -3.43318 -1.10294 0
M  V30 2481 O 226.309 -3.47679 -2.21795 0
M  V30 2482 H 225.65 -0.651564 -0.127908 0
M  V30 2483 H 228.18 -2.03221 0.23712 0
M  V30 2484 H 228.19 -3.82012 -1.43287 0
M  V30 2485 H 226.865 -4.14608 -0.327574 0
M  V30 2486 H 225.442 -3.20824 -1.9007 0
M  V30 2487 N 227.627 0.131896 -1.57047 0
M  V30 2488 C 228.557 1.16384 -2.02428 0
M  V30 2489 C 229.538 1.43936 -0.90644 0
M  V30 2490 O 230.723 1.54599 -1.17528 0
M  V30 2491 C 227.853 2.49328 -2.4177 0
M  V30 2492 C 226.807 2.36266 -3.56879 0
M  V30 2493 C 226.133 3.74057 -3.8208 0
M  V30 2494 C 227.433 1.834 -4.89042 0
M  V30 2495 H 229.127 0.786433 -2.88887 0
M  V30 2496 H 226.673 0.376855 -1.38981 0
M  V30 2497 H 228.626 3.21759 -2.7212 0
M  V30 2498 H 227.35 2.88934 -1.52266 0
M  V30 2499 H 226.009 1.66286 -3.26718 0
M  V30 2500 H 225.657 4.11125 -2.89803 0
M  V30 2501 H 225.357 3.66174 -4.59554 0
M  V30 2502 H 226.881 4.48012 -4.1487 0
M  V30 2503 H 228.295 2.45636 -5.18011 0
M  V30 2504 H 226.692 1.8637 -5.70426 0
M  V30 2505 H 227.762 0.790662 -4.7841 0
M  V30 2506 N 229.106 1.52395 0.401703 0
M  V30 2507 C 230.016 1.7917 1.51444 0
M  V30 2508 C 231.032 0.677691 1.6026 0
M  V30 2509 O 232.208 0.963909 1.76835 0
M  V30 2510 C 229.273 1.94347 2.87107 0
M  V30 2511 C 228.334 3.18257 2.88116 0
M  V30 2512 C 227.567 3.32701 4.17308 0
M  V30 2513 O 227.79 2.52238 5.11598 0
M  V30 2514 O 226.724 4.25891 4.25324 0
M  V30 2515 H 230.55 2.73633 1.31752 0
M  V30 2516 H 228.135 1.3733 0.588296 0
M  V30 2517 H 230.017 2.06109 3.67555 0
M  V30 2518 H 228.692 1.03073 3.06851 0
M  V30 2519 H 227.599 3.11947 2.06494 0
M  V30 2520 H 228.932 4.09336 2.73322 0
M  V30 2521 N 230.584 -0.659388 1.43143 0
M  V30 2522 C 231.814 -1.44513 1.47646 0
M  V30 2523 C 232.222 -1.88981 0.0910095 0
M  V30 2524 O 231.565 -1.59702 -0.907789 0
M  V30 2525 C 231.627 -2.71663 2.35456 0
M  V30 2526 C 231.291 -2.49175 3.83094 0
M  V30 2527 C 232.288 -2.1279 4.74359 0
M  V30 2528 C 229.973 -2.63691 4.27519 0
M  V30 2529 C 231.967 -1.9121 6.08044 0
M  V30 2530 C 229.654 -2.41726 5.61259 0
M  V30 2531 C 230.652 -2.0554 6.51339 0
M  V30 2532 O 230.34 -1.838 7.82606 0
M  V30 2533 H 230.072 -0.45064 0.503884 0
M  V30 2534 H 232.626 -0.816248 1.88485 0
M  V30 2535 H 230.856 -3.37089 1.89493 0
M  V30 2536 H 232.545 -3.33595 2.31235 0
M  V30 2537 H 233.311 -2.01157 4.41317 0
M  V30 2538 H 229.19 -2.90832 3.57684 0
M  V30 2539 H 232.734 -1.62889 6.78316 0
M  V30 2540 H 228.631 -2.52959 5.9387 0
M  V30 2541 H 229.399 -1.98275 7.94122 0
M  V30 2542 N 232.062 -1.29571 -0.897171 0
M  V30 2543 C 232.992 -1.17473 -2.01798 0
M  V30 2544 C 233.973 -0.068323 -1.69963 0
M  V30 2545 O 235.158 -0.248239 -1.92607 0
M  V30 2546 C 232.288 -0.853099 -3.36659 0
M  V30 2547 C 231.242 -1.9161 -3.82713 0
M  V30 2548 C 230.568 -1.44773 -5.14728 0
M  V30 2549 C 231.868 -3.32535 -4.02763 0
M  V30 2550 H 233.562 -2.11237 -2.12177 0
M  V30 2551 H 231.108 -1.01699 -1.01948 0
M  V30 2552 H 233.061 -0.755165 -4.14578 0
M  V30 2553 H 231.785 0.120236 -3.26379 0
M  V30 2554 H 230.444 -2.00346 -3.07013 0
M  V30 2555 H 230.092 -0.462995 -5.00865 0
M  V30 2556 H 229.792 -2.15865 -5.46513 0
M  V30 2557 H 231.316 -1.36334 -5.95185 0
M  V30 2558 H 232.73 -3.26626 -4.71156 0
M  V30 2559 H 231.127 -4.01607 -4.45905 0
M  V30 2560 H 232.197 -3.75326 -3.07016 0
M  V30 2561 N 233.54 1.10788 -1.12088 0
M  V30 2562 C 234.787 1.82671 -0.873931 0
M  V30 2563 C 235.115 1.85004 0.600311 0
M  V30 2564 O 234.37 1.30365 1.45957 0
M  V30 2565 C 234.669 3.29294 -1.38926 0
M  V30 2566 C 234.335 3.47113 -2.87791 0
M  V30 2567 C 232.997 3.51684 -3.28439 0
M  V30 2568 C 235.349 3.52808 -3.83635 0
M  V30 2569 C 232.677 3.59513 -4.63646 0
M  V30 2570 C 235.029 3.62169 -5.18668 0
M  V30 2571 C 233.693 3.65003 -5.58864 0
M  V30 2572 H 232.963 0.668441 -0.319794 0
M  V30 2573 H 235.61 1.30613 -1.40045 0
M  V30 2574 H 233.915 3.83894 -0.783122 0
M  V30 2575 H 235.612 3.83416 -1.17443 0
M  V30 2576 H 232.202 3.4423 -2.5535 0
M  V30 2577 H 236.386 3.4853 -3.53328 0
M  V30 2578 H 231.642 3.59987 -4.94185 0
M  V30 2579 H 235.816 3.6552 -5.92763 0
M  V30 2580 H 233.443 3.70822 -6.63623 0
M  V30 2581 N 235.018 0.912232 1.28515 0
M  V30 2582 C 235.981 0.404223 2.25607 0
M  V30 2583 C 236.981 -0.468602 1.53821 0
M  V30 2584 O 238.171 -0.271873 1.72065 0
M  V30 2585 C 235.303 -0.420653 3.38295 0
M  V30 2586 H 236.496 1.26188 2.7206 0
M  V30 2587 H 234.049 0.691495 1.40171 0
M  V30 2588 H 234.784 -1.29777 2.97201 0
M  V30 2589 H 234.569 0.204935 3.91564 0
M  V30 2590 H 236.059 -0.766971 4.10496 0
M  V30 2591 N 236.496 -1.42363 0.676048 0
M  V30 2592 C 237.428 -2.29164 -0.0404605 0
M  V30 2593 C 238.441 -1.43747 -0.764245 0
M  V30 2594 O 239.63 -1.67453 -0.618195 0
M  V30 2595 C 236.73 -3.21196 -1.08103 0
M  V30 2596 C 235.903 -4.35273 -0.430812 0
M  V30 2597 C 234.962 -5.08017 -1.37133 0
M  V30 2598 O 233.988 -5.62494 -0.87116 0
M  V30 2599 N 235.19 -5.13647 -2.70456 0
M  V30 2600 H 237.955 -2.91298 0.704667 0
M  V30 2601 H 235.516 -1.53303 0.520559 0
M  V30 2602 H 237.508 -3.66728 -1.71152 0
M  V30 2603 H 236.078 -2.60505 -1.72788 0
M  V30 2604 H 235.298 -3.92372 0.379209 0
M  V30 2605 H 236.586 -5.08795 0.0221132 0
M  V30 2606 H 235.984 -4.708 -3.1363 0
M  V30 2607 H 234.541 -5.62821 -3.28749 0
M  V30 2608 N 237.974 -0.419461 -1.51915 0
M  V30 2609 C 239.222 0.152637 -2.01523 0
M  V30 2610 C 239.543 1.44762 -1.30649 0
M  V30 2611 O 238.813 1.90997 -0.435535 0
M  V30 2612 H 237.393 0.0593966 -0.744635 0
M  V30 2613 H 240.055 -0.558073 -1.86739 0
M  V30 2614 H 239.151 0.341369 -3.10227 0
M  V30 2615 N 239.452 1.56882 -0.150215 0
M  V30 2616 C 240.384 2.14057 0.819286 0
M  V30 2617 C 241.397 1.09082 1.20851 0
M  V30 2618 O 242.586 1.36347 1.15203 0
M  V30 2619 C 239.686 2.65102 2.11127 0
M  V30 2620 C 238.859 3.94511 1.88891 0
M  V30 2621 C 237.918 4.30834 3.02107 0
M  V30 2622 O 236.944 4.99099 2.73659 0
M  V30 2623 N 238.146 3.90676 4.29363 0
M  V30 2624 H 240.911 2.97871 0.330618 0
M  V30 2625 H 238.472 1.61866 0.0332538 0
M  V30 2626 H 240.464 2.86411 2.85921 0
M  V30 2627 H 239.034 1.85994 2.51247 0
M  V30 2628 H 238.254 3.81795 0.981152 0
M  V30 2629 H 239.542 4.7907 1.71376 0
M  V30 2630 H 238.94 3.35677 4.55343 0
M  V30 2631 H 237.497 4.1703 5.00928 0
M  V30 2632 N 240.93 -0.123565 1.57115 0
M  V30 2633 C 242.16 -0.845233 1.88519 0
M  V30 2634 C 242.568 -1.74168 0.739064 0
M  V30 2635 O 241.911 -1.81244 -0.299355 0
M  V30 2636 C 241.973 -1.73452 3.14888 0
M  V30 2637 C 241.637 -1.01285 4.45635 0
M  V30 2638 C 242.634 -0.355774 5.18681 0
M  V30 2639 C 240.319 -0.99538 4.92339 0
M  V30 2640 C 242.313 0.309114 6.3665 0
M  V30 2641 C 240 -0.32669 6.10226 0
M  V30 2642 C 240.998 0.324406 6.82229 0
M  V30 2643 O 240.686 0.982437 7.97874 0
M  V30 2644 H 240.418 -0.248534 0.628655 0
M  V30 2645 H 242.972 -0.113907 2.05084 0
M  V30 2646 H 241.202 -2.50737 2.94394 0
M  V30 2647 H 242.891 -2.33021 3.32349 0
M  V30 2648 H 243.657 -0.360918 4.83655 0
M  V30 2649 H 239.536 -1.49159 4.36202 0
M  V30 2650 H 243.08 0.8179 6.92789 0
M  V30 2651 H 238.977 -0.319294 6.4471 0
M  V30 2652 H 239.745 0.886454 8.13686 0
M  V30 2653 N 242.408 -1.52605 -0.393616 0
M  V30 2654 C 243.685 -1.58001 -1.15304 0
M  V30 2655 C 244.065 -0.370385 -2.07825 0
M  V30 2656 O 243.413 0.641638 -2.19306 0
M  V30 2657 C 243.623 -2.91652 -1.91677 0
M  V30 2658 C 244.971 -3.4522 -2.47201 0
M  V30 2659 O 245.995 -2.93495 -2.01839 0
M  V30 2660 O 244.854 -4.35579 -3.3005 0
M  V30 2661 H 241.948 -0.637068 -0.527327 0
M  V30 2662 H 244.494 -1.64939 -0.399141 0
M  V30 2663 H 243.266 -3.71136 -1.23992 0
M  V30 2664 H 242.889 -2.88077 -2.74039 0
M  V30 2665 N 243.887 0.651787 -1.4349 0
M  V30 2666 C 244.817 1.77621 -1.51569 0
M  V30 2667 C 245.798 1.66022 -0.370253 0
M  V30 2668 O 246.983 1.85095 -0.587658 0
M  V30 2669 C 244.113 3.16056 -1.43966 0
M  V30 2670 C 243.067 3.4242 -2.56774 0
M  V30 2671 C 242.393 4.8067 -2.34223 0
M  V30 2672 C 243.693 3.37023 -3.99015 0
M  V30 2673 H 245.387 1.71117 -2.45681 0
M  V30 2674 H 242.933 0.821825 -1.18246 0
M  V30 2675 H 244.886 3.94472 -1.48221 0
M  V30 2676 H 243.61 3.23293 -0.463586 0
M  V30 2677 H 242.269 2.66375 -2.51873 0
M  V30 2678 H 241.917 4.84585 -1.34856 0
M  V30 2679 H 241.617 4.9927 -3.09844 0
M  V30 2680 H 243.141 5.61342 -2.40265 0
M  V30 2681 H 244.555 4.05374 -4.05395 0
M  V30 2682 H 242.952 3.67159 -4.74673 0
M  V30 2683 H 244.022 2.3518 -4.2405 0
M  V30 2684 N 245.365 1.30045 0.890287 0
M  V30 2685 C 246.611 1.18737 1.64406 0
M  V30 2686 C 246.944 -0.258525 1.92472 0
M  V30 2687 O 246.219 -1.18562 1.54186 0
M  V30 2688 C 246.502 2.01087 2.98724 0
M  V30 2689 C 246.355 3.53867 2.77665 0
M  V30 2690 C 247.674 1.84457 3.9958 0
M  V30 2691 H 244.793 0.432698 0.596608 0
M  V30 2692 H 247.435 1.5962 1.0306 0
M  V30 2693 H 245.585 1.66349 3.51084 0
M  V30 2694 H 247.257 3.98637 2.32133 0
M  V30 2695 H 245.5 3.78318 2.12269 0
M  V30 2696 H 246.171 4.06772 3.7315 0
M  V30 2697 H 248.647 2.14817 3.56361 0
M  V30 2698 H 247.523 2.44411 4.91482 0
M  V30 2699 H 247.784 0.802276 4.3476 0
M  V30 2700 N 246.843 -1.10192 1.12674 0
M  V30 2701 C 247.79 -2.16606 0.796906 0
M  V30 2702 C 248.76 -1.64394 -0.237476 0
M  V30 2703 O 249.945 -1.90474 -0.111484 0
M  V30 2704 C 247.085 -3.44116 0.26043 0
M  V30 2705 C 246.198 -4.10268 1.35293 0
M  V30 2706 C 245.333 -5.25507 0.775621 0
M  V30 2707 C 244.372 -5.83567 1.84706 0
M  V30 2708 N 243.509 -6.90179 1.28829 0
M  V30 2709 H 248.349 -2.44163 1.70846 0
M  V30 2710 H 245.886 -1.19846 0.85295 0
M  V30 2711 H 247.844 -4.17143 -0.0686814 0
M  V30 2712 H 246.474 -3.16901 -0.614274 0
M  V30 2713 H 245.526 -3.35184 1.79877 0
M  V30 2714 H 246.838 -4.4946 2.16303 0
M  V30 2715 H 245.992 -6.05398 0.397327 0
M  V30 2716 H 244.731 -4.87656 -0.0656581 0
M  V30 2717 H 243.736 -5.02344 2.23452 0
M  V30 2718 H 244.961 -6.23482 2.69161 0
M  V30 2719 H 242.907 -6.54322 0.468881 0
M  V30 2720 H 242.824 -7.28097 2.03497 0
M  V30 2721 H 244.092 -7.73844 0.937311 0
M  V30 2722 N 248.321 -0.919034 -1.28029 0
M  V30 2723 C 249.561 -0.562107 -1.96519 0
M  V30 2724 C 249.925 0.878784 -1.70708 0
M  V30 2725 O 251.126 1.34355 -2.32813 0
M  V30 2726 C 249.397 -0.868953 -3.46676 0
M  V30 2727 S 250.956 -0.619237 -4.34409 0
M  V30 2728 H 247.774 -0.2078 -0.679956 0
M  V30 2729 H 250.376 -1.18562 -1.55446 0
M  V30 2730 H 249.08 -1.91547 -3.62957 0
M  V30 2731 H 248.611 -0.234301 -3.92702 0
M  V30 2732 H 250.626 0.526995 -4.93394 0
M  V30 2733 N 249.799 1.42003 -0.683588 0
M  V30 2734 C 250.729 2.33487 -0.024866 0
M  V30 2735 C 251.71 1.51163 0.779975 0
M  V30 2736 O 252.895 1.79739 0.735362 0
M  V30 2737 C 250.025 3.3487 0.920836 0
M  V30 2738 C 248.979 4.27414 0.223958 0
M  V30 2739 C 248.305 5.19074 1.2832 0
M  V30 2740 C 249.605 5.14445 -0.90242 0
M  V30 2741 H 251.299 2.88819 -0.788921 0
M  V30 2742 H 248.845 1.38873 -0.38083 0
M  V30 2743 H 250.798 3.97787 1.39081 0
M  V30 2744 H 249.522 2.77861 1.71642 0
M  V30 2745 H 248.181 3.65904 -0.225864 0
M  V30 2746 H 247.829 4.58387 2.071 0
M  V30 2747 H 247.529 5.81822 0.821995 0
M  V30 2748 H 249.053 5.84867 1.75392 0
M  V30 2749 H 250.467 5.70998 -0.513272 0
M  V30 2750 H 248.864 5.86072 -1.28997 0
M  V30 2751 H 249.934 4.52322 -1.74737 0
M  V30 2752 N 251.277 0.427512 1.51691 0
M  V30 2753 C 252.24 -0.377132 2.26076 0
M  V30 2754 C 253.24 -0.958089 1.29141 0
M  V30 2755 O 254.43 -0.83408 1.52934 0
M  V30 2756 C 251.562 -1.53262 3.04506 0
M  V30 2757 H 252.755 0.27464 2.9864 0
M  V30 2758 H 250.308 0.180445 1.55255 0
M  V30 2759 H 251.043 -2.22072 2.36335 0
M  V30 2760 H 250.828 -1.12232 3.75694 0
M  V30 2761 H 252.318 -2.10135 3.60878 0
M  V30 2762 N 252.755 -1.56801 0.158532 0
M  V30 2763 C 254.166 -1.83189 -0.360366 0
M  V30 2764 C 254.517 -1.07778 -1.63946 0
M  V30 2765 O 253.642 -0.326718 -2.13919 0
M  V30 2766 C 254.237 -3.32297 -0.660595 0
M  V30 2767 C 252.796 -3.59227 -1.12398 0
M  V30 2768 C 251.943 -2.76877 -0.153097 0
M  V30 2769 H 254.894 -1.54008 0.383031 0
M  V30 2770 H 254.915 -3.4908 -1.51405 0
M  V30 2771 H 254.427 -3.87156 0.270527 0
M  V30 2772 H 252.528 -3.09766 -2.07064 0
M  V30 2773 H 252.641 -4.67632 -1.04197 0
M  V30 2774 H 251.005 -2.46319 -0.647983 0
M  V30 2775 H 251.788 -3.34511 0.77182 0
M  V30 2776 N 254.233 0.115231 -1.57178 0
M  V30 2777 C 255.482 0.820945 -1.84237 0
M  V30 2778 C 255.795 1.80866 -0.744761 0
M  V30 2779 O 257.001 2.56083 -0.901871 0
M  V30 2780 C 255.457 1.51072 -3.26658 0
M  V30 2781 C 255.065 0.563795 -4.44438 0
M  V30 2782 C 256.809 2.20134 -3.62962 0
M  V30 2783 C 254.716 1.25701 -5.77887 0
M  V30 2784 H 253.646 0.310328 -0.687177 0
M  V30 2785 H 256.297 0.0737134 -1.83352 0
M  V30 2786 H 254.679 2.30471 -3.22024 0
M  V30 2787 H 255.853 -0.197247 -4.60378 0
M  V30 2788 H 254.168 -0.0200638 -4.16395 0
M  V30 2789 H 256.765 2.72696 -4.59936 0
M  V30 2790 H 257.108 2.98107 -2.90582 0
M  V30 2791 H 257.641 1.47619 -3.69396 0
M  V30 2792 H 254.38 0.518493 -6.53446 0
M  V30 2793 H 253.9 1.98997 -5.65827 0
M  V30 2794 H 255.579 1.78915 -6.2177 0
M  V30 2795 N 255.711 1.52812 0.385517 0
M  V30 2796 C 257.127 1.4214 0.725829 0
M  V30 2797 C 257.327 0.544589 1.94001 0
M  V30 2798 O 256.383 0.0193693 2.52493 0
M  V30 2799 C 257.696 2.85042 0.957668 0
M  V30 2800 C 259.244 2.94543 1.05892 0
M  V30 2801 C 259.719 4.38464 1.32337 0
M  V30 2802 N 261.21 4.41804 1.39151 0
M  V30 2803 C 261.945 5.5025 1.61285 0
M  V30 2804 N 261.441 6.68775 1.80866 0
M  V30 2805 N 263.234 5.37798 1.63492 0
M  V30 2806 H 255.385 2.08338 -0.413383 0
M  V30 2807 H 257.648 0.940016 -0.122775 0
M  V30 2808 H 257.354 3.51431 0.137568 0
M  V30 2809 H 257.228 3.27505 1.87137 0
M  V30 2810 H 259.615 2.28321 1.86959 0
M  V30 2811 H 259.696 2.55504 0.123057 0
M  V30 2812 H 259.34 5.05254 0.517793 0
M  V30 2813 H 259.27 4.75059 2.27214 0
M  V30 2814 H 261.761 3.56377 1.25713 0
M  V30 2815 H 262.074 7.47197 1.97271 0
M  V30 2816 H 260.419 6.71797 1.78083 0
M  V30 2817 H 263.61 4.44171 1.47749 0
M  V30 2818 H 263.783 6.22382 1.80402 0
M  V30 2819 N 257.189 -0.644168 1.43834 0
M  V30 2820 C 258.466 -1.40188 1.36406 0
M  V30 2821 C 258.846 -2.11094 0.0163124 0
M  V30 2822 O 258.194 -2.05426 -1.00062 0
M  V30 2823 C 258.404 -2.3791 2.55343 0
M  V30 2824 C 259.752 -3.01637 2.98832 0
M  V30 2825 O 260.776 -2.48237 2.55455 0
M  V30 2826 O 259.635 -3.98477 3.74003 0
M  V30 2827 H 256.729 -0.626773 0.539523 0
M  V30 2828 H 259.275 -0.670317 1.559 0
M  V30 2829 H 258.047 -1.84525 3.4506 0
M  V30 2830 H 257.67 -3.18503 2.37995 0
M  V30 2831 N 258.668 -1.30515 -0.883378 0
M  V30 2832 C 260.079 -1.17509 -1.45081 0
M  V30 2833 C 260.43 0.223605 -1.94922 0
M  V30 2834 O 259.555 1.12041 -1.85137 0
M  V30 2835 C 260.15 -2.12715 -2.63701 0
M  V30 2836 C 258.709 -2.03682 -3.16529 0
M  V30 2837 C 257.856 -2.02706 -1.89224 0
M  V30 2838 H 260.807 -1.42762 -0.693165 0
M  V30 2839 H 260.828 -1.70891 -3.39965 0
M  V30 2840 H 260.34 -3.14505 -2.27395 0
M  V30 2841 H 258.441 -1.05039 -3.57488 0
M  V30 2842 H 258.554 -2.92146 -3.7972 0
M  V30 2843 H 256.918 -1.4753 -2.07622 0
M  V30 2844 H 257.701 -3.06229 -1.55174 0
M  V30 2845 N 260.146 1.09593 -1.13257 0
M  V30 2846 C 261.093 2.1618 -0.808381 0
M  V30 2847 C 262.063 1.64517 0.228754 0
M  V30 2848 O 263.248 1.9053 0.101381 0
M  V30 2849 C 260.388 3.43973 -0.278675 0
M  V30 2850 C 259.501 4.09545 -1.37466 0
M  V30 2851 C 258.636 5.25088 -0.803479 0
M  V30 2852 C 257.675 5.82579 -1.87799 0
M  V30 2853 N 256.812 6.89486 -1.32488 0
M  V30 2854 H 261.652 2.43254 -1.72138 0
M  V30 2855 H 259.189 1.19392 -0.859294 0
M  V30 2856 H 261.147 4.17174 0.0465583 0
M  V30 2857 H 259.777 3.17223 0.597459 0
M  V30 2858 H 258.829 3.34226 -1.81652 0
M  V30 2859 H 260.141 4.48307 -2.18684 0
M  V30 2860 H 259.295 6.05178 -0.429427 0
M  V30 2861 H 258.034 4.87684 0.0397956 0
M  V30 2862 H 257.039 5.01152 -2.26113 0
M  V30 2863 H 258.264 6.22045 -2.72463 0
M  V30 2864 H 256.21 6.54064 -0.503575 0
M  V30 2865 H 256.127 7.27007 -2.07355 0
M  V30 2866 H 257.395 7.73336 -0.978336 0
M  V30 2867 N 261.624 0.925811 1.2754 0
M  V30 2868 C 262.852 0.581509 1.9856 0
M  V30 2869 C 263.267 -0.840041 1.69082 0
M  V30 2870 O 262.624 -1.55805 0.950312 0
M  V30 2871 C 262.675 0.795589 3.52637 0
M  V30 2872 O 262.396 2.16121 3.81082 0
M  V30 2873 C 263.897 0.459744 4.4091 0
M  V30 2874 H 261.117 0.220538 0.633722 0
M  V30 2875 H 263.661 1.24232 1.6244 0
M  V30 2876 H 261.816 0.18161 3.86974 0
M  V30 2877 H 262.23 2.2098 4.75676 0
M  V30 2878 H 263.704 0.660244 5.48037 0
M  V30 2879 H 264.181 -0.604625 4.35018 0
M  V30 2880 H 264.787 1.05178 4.12089 0
M  V30 2881 N 263.102 -1.41638 0.69111 0
M  V30 2882 C 264.012 -2.34588 0.0233487 0
M  V30 2883 C 265.028 -1.55987 -0.770984 0
M  V30 2884 O 266.204 -1.88486 -0.709569 0
M  V30 2885 C 263.269 -3.34684 -0.904851 0
M  V30 2886 C 262.33 -4.29176 -0.103225 0
M  V30 2887 C 261.563 -5.2449 -0.987216 0
M  V30 2888 O 261.786 -5.2514 -2.22674 0
M  V30 2889 O 260.72 -6.00295 -0.439281 0
M  V30 2890 H 264.546 -2.93261 0.789416 0
M  V30 2891 H 262.131 -1.42417 0.45142 0
M  V30 2892 H 264.013 -3.96133 -1.43724 0
M  V30 2893 H 262.688 -2.78461 -1.65049 0
M  V30 2894 H 261.595 -3.71089 0.473655 0
M  V30 2895 H 262.928 -4.88484 0.60365 0
M  V30 2896 N 264.58 -0.43555 -1.51462 0
M  V30 2897 C 265.512 0.41257 -2.25456 0
M  V30 2898 C 266.525 0.987822 -1.29406 0
M  V30 2899 O 267.714 0.882266 -1.55172 0
M  V30 2900 C 264.814 1.58894 -2.99342 0
M  V30 2901 C 263.987 1.13288 -4.22474 0
M  V30 2902 C 263.046 2.17917 -4.78956 0
M  V30 2903 O 262.072 1.77425 -5.40841 0
M  V30 2904 N 263.274 3.50382 -4.62832 0
M  V30 2905 H 266.039 -0.221603 -2.9888 0
M  V30 2906 H 263.6 -0.264342 -1.59727 0
M  V30 2907 H 265.592 2.28508 -3.34015 0
M  V30 2908 H 264.162 2.12849 -2.28941 0
M  V30 2909 H 263.382 0.263881 -3.93316 0
M  V30 2910 H 264.67 0.805542 -5.02383 0
M  V30 2911 H 264.068 3.86013 -4.13534 0
M  V30 2912 H 262.625 4.15895 -5.01871 0
M  V30 2913 N 266.058 1.56714 -0.166846 0
M  V30 2914 C 267.335 1.88412 0.525373 0
M  V30 2915 C 267.715 1.07602 1.81618 0
M  V30 2916 O 267.063 0.168621 2.27877 0
M  V30 2917 C 267.273 3.40363 0.771613 0
M  V30 2918 C 268.621 4.10007 1.1036 0
M  V30 2919 O 269.645 3.45655 0.860304 0
M  V30 2920 O 268.504 5.2369 1.56239 0
M  V30 2921 H 265.598 0.781587 0.270278 0
M  V30 2922 H 268.144 1.68458 -0.204946 0
M  V30 2923 H 266.916 3.91046 -0.141093 0
M  V30 2924 H 266.539 3.65914 1.55541 0
M  V30 2925 N 267.536 -0.106894 1.57237 0
M  V30 2926 C 268.784 -0.810921 1.85117 0
M  V30 2927 C 269.105 -1.7984 0.753827 0
M  V30 2928 O 268.375 -1.94649 -0.221056 0
M  V30 2929 H 266.955 -0.302466 0.683025 0
M  V30 2930 H 269.617 -0.0913324 1.94686 0
M  V30 2931 H 268.713 -1.34875 2.81452 0
M  V30 2932 N 269.014 -1.53014 -0.377408 0
M  V30 2933 C 269.964 -1.74996 -1.46152 0
M  V30 2934 C 270.948 -0.604236 -1.49123 0
M  V30 2935 O 272.14 -0.862489 -1.54564 0
M  V30 2936 C 269.269 -1.93267 -2.8373 0
M  V30 2937 C 268.355 -3.13807 -2.85283 0
M  V30 2938 N 268.746 -4.35941 -2.56493 0
M  V30 2939 C 267.044 -3.14288 -3.16448 0
M  V30 2940 C 267.745 -5.17615 -2.65424 0
M  V30 2941 N 266.721 -4.53559 -2.99641 0
M  V30 2942 H 270.523 -2.67044 -1.22738 0
M  V30 2943 H 268.037 -1.51479 -0.585479 0
M  V30 2944 H 270.034 -2.0714 -3.61799 0
M  V30 2945 H 268.694 -1.0244 -3.08117 0
M  V30 2946 H 269.705 -4.63876 -2.30302 0
M  V30 2947 H 266.382 -2.33312 -3.46225 0
M  V30 2948 H 267.772 -6.25006 -2.46612 0
M  V30 2949 N 270.492 0.636531 -1.44174 0
M  V30 2950 C 271.769 1.39463 -1.37148 0
M  V30 2951 C 272.149 2.11082 -0.027507 0
M  V30 2952 O 271.497 2.05954 0.989716 0
M  V30 2953 C 271.707 2.36552 -2.56601 0
M  V30 2954 C 273.055 3.00048 -3.00427 0
M  V30 2955 O 274.079 2.46878 -2.56767 0
M  V30 2956 O 272.938 3.96488 -3.76111 0
M  V30 2957 H 270.032 0.623903 -0.542839 0
M  V30 2958 H 272.578 0.662039 -1.56253 0
M  V30 2959 H 271.35 1.82692 -3.46034 0
M  V30 2960 H 270.973 3.17236 -2.39681 0
M  V30 2961 N 271.97 1.30982 0.876444 0
M  V30 2962 C 273.219 1.19658 1.62373 0
M  V30 2963 C 273.532 -0.245636 1.94052 0
M  V30 2964 O 274.738 -0.48049 2.67214 0
M  V30 2965 C 273.194 2.09433 2.92687 0
M  V30 2966 C 272.802 3.58613 2.68516 0
M  V30 2967 C 274.546 2.06893 3.70669 0
M  V30 2968 C 272.453 4.40416 3.94699 0
M  V30 2969 H 271.383 0.444268 0.609214 0
M  V30 2970 H 274.034 1.55791 0.969605 0
M  V30 2971 H 272.416 1.66191 3.59439 0
M  V30 2972 H 273.59 4.10058 2.10212 0
M  V30 2973 H 271.905 3.63063 2.03898 0
M  V30 2974 H 274.502 2.65258 4.64265 0
M  V30 2975 H 274.845 1.05448 4.02724 0
M  V30 2976 H 275.378 2.48301 3.10792 0
M  V30 2977 H 272.117 5.42591 3.67798 0
M  V30 2978 H 271.637 3.93731 4.52477 0
M  V30 2979 H 273.316 4.52294 4.62644 0
M  V30 2980 N 273.449 -1.08991 1.13837 0
M  V30 2981 C 274.359 -2.19301 0.833333 0
M  V30 2982 C 275.375 -1.73026 -0.183847 0
M  V30 2983 O 276.551 -2.01395 -0.0138092 0
M  V30 2984 C 273.616 -3.45323 0.308651 0
M  V30 2985 C 272.677 -4.06255 1.38764 0
M  V30 2986 C 271.91 -5.26262 0.887896 0
M  V30 2987 O 272.133 -5.69747 -0.27287 0
M  V30 2988 O 271.067 -5.78435 1.66421 0
M  V30 2989 H 274.893 -2.47854 1.75506 0
M  V30 2990 H 272.478 -1.18012 0.916166 0
M  V30 2991 H 274.36 -4.21394 0.0216739 0
M  V30 2992 H 273.035 -3.18362 -0.585431 0
M  V30 2993 H 271.942 -3.318 1.72799 0
M  V30 2994 H 273.275 -4.37452 2.25602 0
M  V30 2995 N 274.927 -0.932562 -1.27047 0
M  V30 2996 C 275.875 -0.42603 -2.28665 0
M  V30 2997 C 276.869 0.49219 -1.62092 0
M  V30 2998 O 278.075 0.371355 -1.76128 0
M  V30 2999 H 274.45 -0.119213 -0.742491 0
M  V30 3000 H 276.421 -1.29579 -2.68797 0
M  V30 3001 C 275.17 0.301426 -3.46391 0
M  V30 3002 H 274.493 -0.39595 -3.97834 0
M  V30 3003 H 275.933 0.6202 -4.1944 0
M  V30 3004 C 274.392 1.51616 -3.00856 0
M  V30 3005 O 274.922 2.61476 -3.04948 0
M  V30 3006 N 273.128 1.36969 -2.56296 0
M  V30 3007 H 272.675 0.475873 -2.53166 0
M  V30 3008 H 272.633 2.18368 -2.26192 0
M  V30 3009 N 276.405 1.4127 -0.698611 0
M  V30 3010 C 277.315 2.34573 -0.0357891 0
M  V30 3011 C 278.331 1.56393 0.762701 0
M  V30 3012 O 279.507 1.8886 0.699564 0
M  V30 3013 C 276.572 3.35159 0.887089 0
M  V30 3014 C 275.633 4.29225 0.0804634 0
M  V30 3015 C 274.866 5.25006 0.959387 0
M  V30 3016 O 275.089 5.26314 2.19886 0
M  V30 3017 O 274.023 6.00519 0.407439 0
M  V30 3018 H 277.849 2.92838 -0.804957 0
M  V30 3019 H 275.434 1.42175 -0.458966 0
M  V30 3020 H 277.316 3.9689 1.41621 0
M  V30 3021 H 275.991 2.79333 1.6357 0
M  V30 3022 H 274.898 3.70833 -0.493328 0
M  V30 3023 H 276.231 4.88157 -0.629547 0
M  V30 3024 N 277.883 0.443576 1.51229 0
M  V30 3025 C 279.123 -0.119889 2.04048 0
M  V30 3026 C 279.487 -1.39418 1.32009 0
M  V30 3027 O 280.688 -2.03829 1.75235 0
M  V30 3028 C 278.959 -0.327233 3.55899 0
M  V30 3029 S 280.518 -0.853208 4.30425 0
M  V30 3030 H 277.336 -0.028921 0.710412 0
M  V30 3031 H 279.938 0.604413 1.85922 0
M  V30 3032 H 278.642 0.606445 4.05895 0
M  V30 3033 H 278.173 -1.07844 3.7833 0
M  V30 3034 H 280.188 -2.13005 4.48155 0
M  V30 3035 N 279.361 -1.56624 0.175154 0
M  V30 3036 C 280.291 -2.21155 -0.749195 0
M  V30 3037 C 281.272 -1.16836 -1.23626 0
M  V30 3038 O 282.457 -1.45277 -1.28873 0
M  V30 3039 C 279.587 -2.8553 -1.97711 0
M  V30 3040 C 278.541 -3.95921 -1.62575 0
M  V30 3041 C 277.867 -4.47365 -2.92864 0
M  V30 3042 C 279.167 -5.15323 -0.850838 0
M  V30 3043 H 280.861 -2.98653 -0.211295 0
M  V30 3044 H 278.407 -1.43651 -0.100188 0
M  V30 3045 H 280.36 -3.2935 -2.62881 0
M  V30 3046 H 279.084 -2.05406 -2.53921 0
M  V30 3047 H 277.743 -3.52762 -0.997719 0
M  V30 3048 H 277.391 -3.64027 -3.47122 0
M  V30 3049 H 277.091 -5.21839 -2.70106 0
M  V30 3050 H 278.615 -4.93873 -3.59056 0
M  V30 3051 H 280.029 -5.55812 -1.40521 0
M  V30 3052 H 278.426 -5.95739 -0.722154 0
M  V30 3053 H 279.496 -4.84661 0.152082 0
M  V30 3054 N 280.839 0.0985539 -1.57292 0
M  V30 3055 C 282.087 0.801092 -1.85545 0
M  V30 3056 C 282.408 1.79438 -0.763353 0
M  V30 3057 O 281.678 1.94763 0.21073 0
M  V30 3058 H 280.258 0.29884 -0.684619 0
M  V30 3059 H 282.92 0.0810064 -1.94732 0
M  V30 3060 H 282.016 1.3338 -2.82163 0
M  V30 3061 N 282.317 1.53212 0.369288 0
M  V30 3062 C 283.25 1.74166 1.4745 0
M  V30 3063 C 284.228 0.589923 1.51521 0
M  V30 3064 O 285.412 0.822078 1.69629 0
M  V30 3065 C 282.539 1.81711 2.8583 0
M  V30 3066 C 281.585 3.03649 2.99499 0
M  V30 3067 S 282.418 4.63242 2.6864 0
M  V30 3068 C 283.574 4.7363 4.09177 0
M  V30 3069 H 283.807 2.67636 1.29454 0
M  V30 3070 H 281.34 1.43754 0.563396 0
M  V30 3071 H 283.298 1.86743 3.65564 0
M  V30 3072 H 281.959 0.89299 3.01139 0
M  V30 3073 H 281.152 3.05526 4.00836 0
M  V30 3074 H 280.754 2.9671 2.27683 0
M  V30 3075 H 283.046 4.53456 5.03372 0
M  V30 3076 H 283.989 5.75682 4.12306 0
M  V30 3077 H 284.397 4.02295 3.96004 0
M  V30 3078 N 283.795 -0.628877 1.44509 0
M  V30 3079 C 284.758 -1.72263 1.51188 0
M  V30 3080 C 285.758 -1.55907 0.39367 0
M  V30 3081 O 286.948 -1.61361 0.656377 0
M  V30 3082 C 284.08 -3.11365 1.38798 0
M  V30 3083 H 285.273 -1.67714 2.4862 0
M  V30 3084 H 282.826 -0.842737 1.31634 0
M  V30 3085 H 283.561 -3.21507 0.424693 0
M  V30 3086 H 283.346 -3.24644 2.19884 0
M  V30 3087 H 284.836 -3.91075 1.46458 0
M  V30 3088 N 285.273 -1.31445 -0.869486 0
M  V30 3089 C 286.519 -1.21337 -1.62496 0
M  V30 3090 C 286.852 0.227872 -1.92858 0
M  V30 3091 O 286.127 1.16094 -1.56053 0
M  V30 3092 C 286.41 -2.05814 -2.95487 0
M  V30 3093 C 286.263 -3.5824 -2.72 0
M  V30 3094 C 287.582 -1.9079 -3.96594 0
M  V30 3095 H 284.701 -0.442135 -0.589649 0
M  V30 3096 H 287.343 -1.6124 -1.00507 0
M  V30 3097 H 285.493 -1.71913 -3.48394 0
M  V30 3098 H 287.165 -4.0228 -2.25762 0
M  V30 3099 H 285.408 -3.81647 -2.06224 0
M  V30 3100 H 286.079 -4.12657 -3.66631 0
M  V30 3101 H 288.555 -2.20459 -3.52898 0
M  V30 3102 H 287.431 -2.52199 -4.87531 0
M  V30 3103 H 287.692 -0.871341 -4.33428 0
M  V30 3104 N 286.751 1.08385 -1.14413 0
M  V30 3105 C 287.681 2.17321 -0.854044 0
M  V30 3106 C 288.662 1.69024 0.191049 0
M  V30 3107 O 289.847 1.94141 0.0476779 0
M  V30 3108 C 286.977 3.45719 -0.330983 0
M  V30 3109 C 285.931 4.07409 -1.31155 0
M  V30 3110 C 285.257 5.30762 -0.64778 0
M  V30 3111 C 286.557 4.48665 -2.67388 0
M  V30 3112 H 288.251 2.41845 -1.76498 0
M  V30 3113 H 285.797 1.16233 -0.850051 0
M  V30 3114 H 287.75 4.21241 -0.115645 0
M  V30 3115 H 286.474 3.2075 0.615381 0
M  V30 3116 H 285.133 3.33919 -1.51306 0
M  V30 3117 H 284.781 5.02078 0.304398 0
M  V30 3118 H 284.481 5.72992 -1.30207 0
M  V30 3119 H 286.005 6.08998 -0.441972 0
M  V30 3120 H 287.419 5.15364 -2.51143 0
M  V30 3121 H 285.816 5.01814 -3.29093 0
M  V30 3122 H 286.886 3.60543 -3.24248 0
M  V30 3123 N 288.23 0.939286 1.26551 0
M  V30 3124 C 289.193 0.451987 2.24699 0
M  V30 3125 C 290.193 -0.435869 1.5478 0
M  V30 3126 O 291.383 -0.235314 1.72603 0
M  V30 3127 C 288.515 -0.348801 3.39111 0
M  V30 3128 H 289.708 1.3193 2.69322 0
M  V30 3129 H 287.261 0.721072 1.38673 0
M  V30 3130 H 287.996 -1.23444 2.99887 0
M  V30 3131 H 287.781 0.287945 3.91041 0
M  V30 3132 H 289.271 -0.679726 4.12031 0
M  V30 3133 N 289.708 -1.40897 0.706093 0
M  V30 3134 C 290.957 -2.00284 0.238574 0
M  V30 3135 C 291.27 -1.56604 -1.17194 0
M  V30 3136 O 292.476 -2.08624 -1.73748 0
M  V30 3137 C 290.932 -3.57934 0.375623 0
M  V30 3138 C 290.54 -4.10591 1.79217 0
M  V30 3139 C 292.284 -4.24488 -0.0315857 0
M  V30 3140 C 290.191 -5.60712 1.88032 0
M  V30 3141 H 289.121 -0.749144 0.0854398 0
M  V30 3142 H 291.772 -1.61251 0.875813 0
M  V30 3143 H 290.154 -3.94622 -0.330042 0
M  V30 3144 H 291.328 -3.85301 2.52745 0
M  V30 3145 H 289.643 -3.56601 2.15 0
M  V30 3146 H 292.24 -5.34698 0.0136842 0
M  V30 3147 H 292.583 -4.02261 -1.072 0
M  V30 3148 H 293.116 -3.92873 0.624181 0
M  V30 3149 H 289.855 -5.87781 2.90161 0
M  V30 3150 H 289.375 -5.87896 1.18903 0
M  V30 3151 H 291.054 -6.25658 1.64805 0
M  V30 3152 N 291.186 -0.45159 -1.50991 0
M  V30 3153 C 292.411 0.110667 -2.07105 0
M  V30 3154 C 292.836 1.3446 -1.31538 0
M  V30 3155 O 292.194 1.77743 -0.357365 0
M  V30 3156 C 292.242 0.397238 -3.58405 0
M  V30 3157 O 291.346 1.48124 -3.84881 0
M  V30 3158 H 290.687 -0.00439271 -0.663985 0
M  V30 3159 H 293.217 -0.637026 -1.9443 0
M  V30 3160 H 293.227 0.64351 -4.02893 0
M  V30 3161 H 291.902 -0.504553 -4.12828 0
M  V30 3162 H 290.479 1.22381 -3.52246 0
M  V30 3163 N 292.664 1.56529 -0.183458 0
M  V30 3164 C 293.614 2.1515 0.754605 0
M  V30 3165 C 294.598 1.08904 1.18443 0
M  V30 3166 O 295.79 1.34997 1.14476 0
M  V30 3167 C 292.919 2.80531 1.97881 0
M  V30 3168 C 292.005 3.93952 1.57043 0
M  V30 3169 N 292.396 4.98221 0.87231 0
M  V30 3170 C 290.694 4.05338 1.86057 0
M  V30 3171 C 291.395 5.77836 0.669377 0
M  V30 3172 N 290.371 5.29858 1.21454 0
M  V30 3173 H 294.173 2.93132 0.212387 0
M  V30 3174 H 291.687 1.62391 0.0167725 0
M  V30 3175 H 293.684 3.20914 2.6612 0
M  V30 3176 H 292.344 2.04035 2.52586 0
M  V30 3177 H 293.355 5.15191 0.529033 0
M  V30 3178 H 290.032 3.39957 2.42354 0
M  V30 3179 H 291.422 6.71799 0.116422 0
M  V30 3180 N 294.142 -0.090211 1.57342 0
M  V30 3181 C 295.372 -0.805055 1.90269 0
M  V30 3182 C 295.78 -1.72561 0.775842 0
M  V30 3183 O 295.123 -1.81839 -0.260843 0
M  V30 3184 C 295.185 -1.66734 3.18497 0
M  V30 3185 C 294.849 -0.918092 4.47683 0
M  V30 3186 C 295.846 -0.245674 5.19319 0
M  V30 3187 C 293.531 -0.890724 4.94339 0
M  V30 3188 C 295.525 0.444088 6.35851 0
M  V30 3189 C 293.212 -0.197179 6.10782 0
M  V30 3190 C 294.21 0.469044 6.81388 0
M  V30 3191 O 293.898 1.15146 7.95611 0
M  V30 3192 H 293.63 -0.235143 0.633785 0
M  V30 3193 H 296.184 -0.0703805 2.05279 0
M  V30 3194 H 294.414 -2.44437 2.99646 0
M  V30 3195 H 296.103 -2.25919 3.37217 0
M  V30 3196 H 296.869 -0.258246 4.84312 0
M  V30 3197 H 292.748 -1.39873 4.39268 0
M  V30 3198 H 296.292 0.964667 6.90898 0
M  V30 3199 H 292.189 -0.18247 6.45242 0
M  V30 3200 H 292.957 1.05885 8.11622 0
M  V30 3201 N 295.62 -1.53406 -0.361157 0
M  V30 3202 C 296.583 -1.79479 -1.42548 0
M  V30 3203 C 297.583 -0.665327 -1.4639 0
M  V30 3204 O 298.773 -0.933549 -1.47073 0
M  V30 3205 C 295.905 -1.92087 -2.8163 0
M  V30 3206 H 297.098 -2.74538 -1.20701 0
M  V30 3207 H 294.651 -1.4455 -0.594546 0
M  V30 3208 H 295.386 -0.991099 -3.08784 0
M  V30 3209 H 295.171 -2.74241 -2.80239 0
M  V30 3210 H 296.661 -2.13836 -3.58697 0
M  V30 3211 N 297.098 0.621204 -1.44841 0
M  V30 3212 C 298.031 1.7459 -1.46947 0
M  V30 3213 C 299.009 1.59273 -0.327238 0
M  V30 3214 O 300.193 1.81021 -0.525706 0
M  V30 3215 C 297.32 3.12274 -1.31159 0
M  V30 3216 C 296.366 3.46216 -2.49072 0
M  V30 3217 S 297.199 3.4258 -4.11581 0
M  V30 3218 C 298.355 4.82867 -3.98233 0
M  V30 3219 H 298.588 1.72538 -2.42111 0
M  V30 3220 H 296.121 0.796683 -1.32259 0
M  V30 3221 H 298.079 3.91722 -1.22737 0
M  V30 3222 H 296.74 3.11855 -0.374885 0
M  V30 3223 H 295.933 4.4643 -2.33915 0
M  V30 3224 H 295.535 2.74253 -2.54286 0
M  V30 3225 H 297.827 5.7234 -3.62537 0
M  V30 3226 H 298.77 5.0308 -4.98313 0
M  V30 3227 H 299.178 4.57908 -3.30121 0
M  V30 3228 N 298.576 1.31904 0.862503 0
M  V30 3229 C 299.509 1.14514 1.97388 0
M  V30 3230 C 300.487 0.0466493 1.62533 0
M  V30 3231 O 301.671 0.204484 1.87388 0
M  V30 3232 C 298.798 0.751347 3.30261 0
M  V30 3233 C 297.844 1.85395 3.84098 0
M  V30 3234 S 298.677 3.46081 4.08642 0
M  V30 3235 C 299.833 3.08655 5.44502 0
M  V30 3236 H 300.066 2.08597 2.11836 0
M  V30 3237 H 297.599 1.16475 1.01356 0
M  V30 3238 H 299.557 0.530901 4.07052 0
M  V30 3239 H 298.218 -0.170493 3.13637 0
M  V30 3240 H 297.411 1.53122 4.80177 0
M  V30 3241 H 297.013 2.02984 3.14123 0
M  V30 3242 H 299.305 2.58012 6.26447 0
M  V30 3243 H 300.248 4.03726 5.81731 0
M  V30 3244 H 300.656 2.45891 5.08132 0
M  V30 3245 N 300.054 -1.07777 1.14986 0
M  V30 3246 C 301.001 -2.14867 0.842672 0
M  V30 3247 C 301.971 -1.6486 -0.202552 0
M  V30 3248 O 303.156 -1.90668 -0.0710568 0
M  V30 3249 C 300.296 -3.43486 0.333363 0
M  V30 3250 C 299.409 -4.07306 1.43965 0
M  V30 3251 C 298.544 -5.23744 0.886914 0
M  V30 3252 C 297.583 -5.79517 1.97043 0
M  V30 3253 N 296.72 -6.87291 1.4344 0
M  V30 3254 H 301.56 -2.40485 1.75986 0
M  V30 3255 H 299.097 -1.1801 0.878179 0
M  V30 3256 H 301.055 -4.17195 0.0198163 0
M  V30 3257 H 299.685 -3.18133 -0.546916 0
M  V30 3258 H 298.737 -3.31293 1.86946 0
M  V30 3259 H 300.049 -4.44771 2.25788 0
M  V30 3260 H 299.203 -6.04419 0.525651 0
M  V30 3261 H 297.942 -4.87685 0.0377957 0
M  V30 3262 H 296.947 -4.97491 2.34057 0
M  V30 3263 H 298.172 -6.17632 2.82325 0
M  V30 3264 H 296.118 -6.5318 0.607567 0
M  V30 3265 H 296.035 -7.23617 2.18895 0
M  V30 3266 H 297.303 -7.71682 1.10124 0
M  V30 3267 N 301.532 -0.945985 -1.26051 0
M  V30 3268 C 302.479 -0.45809 -2.26208 0
M  V30 3269 C 303.449 0.484816 -1.58867 0
M  V30 3270 O 304.634 0.399969 -1.86561 0
M  V30 3271 C 301.774 0.266131 -3.44072 0
M  V30 3272 C 300.887 -0.713005 -4.26075 0
M  V30 3273 C 300.022 0.0329013 -5.3119 0
M  V30 3274 C 299.061 -0.93774 -6.04874 0
M  V30 3275 N 298.198 -0.223274 -7.01745 0
M  V30 3276 H 303.038 -1.3171 -2.67313 0
M  V30 3277 H 300.575 -0.66069 -1.31428 0
M  V30 3278 H 302.533 0.702514 -4.11243 0
M  V30 3279 H 301.163 1.08925 -3.03867 0
M  V30 3280 H 300.215 -1.26789 -3.58648 0
M  V30 3281 H 301.527 -1.45406 -4.77136 0
M  V30 3282 H 300.681 0.528335 -6.04395 0
M  V30 3283 H 299.42 0.806801 -4.8098 0
M  V30 3284 H 298.425 -1.44425 -5.30492 0
M  V30 3285 H 299.65 -1.71172 -6.57173 0
M  V30 3286 H 297.596 0.532046 -6.53839 0
M  V30 3287 H 297.513 -0.90357 -7.50581 0
M  V30 3288 H 298.781 0.250907 -7.79096 0
M  V30 3289 N 303.011 1.40521 -0.713556 0
M  V30 3290 C 303.944 2.28198 -0.00881422 0
M  V30 3291 C 304.922 1.43227 0.769735 0
M  V30 3292 O 306.106 1.72641 0.756799 0
M  V30 3293 C 303.233 3.23758 0.994899 0
M  V30 3294 C 302.279 4.25391 0.3074 0
M  V30 3295 S 303.112 5.26765 -0.963247 0
M  V30 3296 C 304.268 6.25888 0.0384143 0
M  V30 3297 H 304.501 2.87622 -0.752407 0
M  V30 3298 H 302.034 1.45925 -0.504502 0
M  V30 3299 H 303.992 3.79341 1.56879 0
M  V30 3300 H 302.653 2.63396 1.71118 0
M  V30 3301 H 301.846 4.92596 1.0661 0
M  V30 3302 H 301.448 3.73497 -0.193879 0
M  V30 3303 H 303.74 6.71683 0.885912 0
M  V30 3304 H 304.683 7.05552 -0.60019 0
M  V30 3305 H 305.091 5.63072 0.401233 0
M  V30 3306 N 304.489 0.459591 1.5075 0
M  V30 3307 C 305.421 -0.37665 2.26084 0
M  V30 3308 C 306.434 -0.967109 1.30961 0
M  V30 3309 O 307.623 -0.857468 1.56556 0
M  V30 3310 C 304.723 -1.54112 3.01832 0
M  V30 3311 C 303.896 -1.06553 4.24223 0
M  V30 3312 C 302.955 -2.1027 4.82362 0
M  V30 3313 O 301.981 -1.68798 5.43595 0
M  V30 3314 N 303.183 -3.42974 4.68347 0
M  V30 3315 H 305.948 0.269124 2.98489 0
M  V30 3316 H 303.509 0.28972 1.59287 0
M  V30 3317 H 305.501 -2.23165 3.37608 0
M  V30 3318 H 304.071 -2.0918 2.32298 0
M  V30 3319 H 303.291 -0.201274 3.93686 0
M  V30 3320 H 304.579 -0.725516 5.03601 0
M  V30 3321 H 303.977 -3.79385 4.19623 0
M  V30 3322 H 302.534 -4.07858 5.08424 0
M  V30 3323 N 305.967 -1.56429 0.191757 0
M  V30 3324 C 306.897 -2.21937 -0.725696 0
M  V30 3325 C 307.878 -1.1814 -1.2238 0
M  V30 3326 O 309.063 -1.46636 -1.27325 0
M  V30 3327 C 306.193 -2.87611 -1.94672 0
M  V30 3328 C 305.147 -3.97623 -1.58366 0
M  V30 3329 C 304.473 -4.50446 -2.88102 0
M  V30 3330 C 305.773 -5.16197 -0.796133 0
M  V30 3331 H 307.467 -2.98861 -0.179606 0
M  V30 3332 H 305.013 -1.43749 -0.0849464 0
M  V30 3333 H 306.966 -3.3212 -2.59373 0
M  V30 3334 H 305.69 -2.08087 -2.51728 0
M  V30 3335 H 304.349 -3.53801 -0.960247 0
M  V30 3336 H 303.997 -3.67688 -3.43241 0
M  V30 3337 H 303.697 -5.24675 -2.64556 0
M  V30 3338 H 305.221 -4.97654 -3.53798 0
M  V30 3339 H 306.635 -5.57271 -1.34618 0
M  V30 3340 H 305.032 -5.96471 -0.658928 0
M  V30 3341 H 306.102 -4.84473 0.203478 0
M  V30 3342 N 307.445 0.0818655 -1.57387 0
M  V30 3343 C 308.856 0.634871 -1.75574 0
M  V30 3344 C 309.207 1.78435 -0.815809 0
M  V30 3345 O 308.332 2.164 0.0025366 0
M  V30 3346 C 308.927 1.15845 -3.18379 0
M  V30 3347 C 307.486 1.65741 -3.37945 0
M  V30 3348 C 306.633 0.572549 -2.71325 0
M  V30 3349 H 309.584 -0.144268 -1.58043 0
M  V30 3350 H 309.605 2.02751 -3.21982 0
M  V30 3351 H 309.117 0.321631 -3.86765 0
M  V30 3352 H 307.218 2.51781 -2.74658 0
M  V30 3353 H 307.331 1.74129 -4.46336 0
M  V30 3354 H 305.695 1.01518 -2.33594 0
M  V30 3355 H 306.478 -0.253918 -3.4236 0
M  V30 3356 N 308.923 1.53595 0.353017 0
M  V30 3357 C 309.833 1.83897 1.45667 0
M  V30 3358 C 310.849 0.728334 1.58023 0
M  V30 3359 O 312.025 1.01968 1.73679 0
M  V30 3360 C 309.09 2.03383 2.80778 0
M  V30 3361 C 308.151 3.27262 2.77845 0
M  V30 3362 C 307.384 3.45809 4.06512 0
M  V30 3363 O 307.607 2.68387 5.03314 0
M  V30 3364 O 306.541 4.39207 4.11559 0
M  V30 3365 H 310.367 2.77686 1.2298 0
M  V30 3366 H 307.952 1.39132 0.544308 0
M  V30 3367 H 309.834 2.17698 3.60812 0
M  V30 3368 H 308.509 1.12783 3.03417 0
M  V30 3369 H 307.416 3.18359 1.96465 0
M  V30 3370 H 308.749 4.17824 2.60161 0
M  V30 3371 N 310.401 -0.613514 1.45168 0
M  V30 3372 C 311.331 -1.7354 1.56225 0
M  V30 3373 C 312.312 -1.64981 0.41414 0
M  V30 3374 O 313.497 -1.83472 0.636526 0
M  V30 3375 C 310.627 -3.12128 1.52295 0
M  V30 3376 C 309.581 -3.35491 2.65762 0
M  V30 3377 C 308.907 -4.74291 2.46885 0
M  V30 3378 C 310.207 -3.26325 4.0781 0
M  V30 3379 H 311.901 -1.64543 2.50132 0
M  V30 3380 H 309.447 -0.790185 1.20383 0
M  V30 3381 H 311.4 -3.90404 1.58628 0
M  V30 3382 H 310.124 -3.2195 0.549139 0
M  V30 3383 H 308.783 -2.59603 2.58847 0
M  V30 3384 H 308.431 -4.80839 1.47657 0
M  V30 3385 H 308.131 -4.9088 3.22972 0
M  V30 3386 H 309.655 -5.54775 2.55063 0
M  V30 3387 H 311.069 -3.94483 4.16 0
M  V30 3388 H 309.466 -3.54445 4.8424 0
M  V30 3389 H 310.536 -2.23855 4.30136 0
M  V30 3390 N 311.879 -1.3236 -0.855495 0
M  V30 3391 C 313.29 -1.2056 -1.42556 0
M  V30 3392 C 313.641 0.182209 -1.95352 0
M  V30 3393 O 312.766 1.08088 -1.87472 0
M  V30 3394 C 313.361 -2.1826 -2.59129 0
M  V30 3395 C 311.92 -2.10351 -3.12137 0
M  V30 3396 C 311.067 -2.06674 -1.84882 0
M  V30 3397 H 314.018 -1.442 -0.662727 0
M  V30 3398 H 314.039 -1.78064 -3.36264 0
M  V30 3399 H 313.551 -3.19257 -2.20673 0
M  V30 3400 H 311.652 -1.12599 -3.55179 0
M  V30 3401 H 311.765 -3.00135 -3.73438 0
M  V30 3402 H 310.129 -1.51901 -2.04446 0
M  V30 3403 H 310.912 -3.09451 -1.48643 0
M  V30 3404 N 313.357 1.07166 -1.15556 0
M  V30 3405 C 314.304 2.14417 -0.854055 0
M  V30 3406 C 315.274 1.64965 0.193806 0
M  V30 3407 O 316.459 1.90703 0.0609443 0
M  V30 3408 C 313.599 3.43304 -0.351574 0
M  V30 3409 C 312.712 4.06537 -1.46123 0
M  V30 3410 C 311.847 5.23266 -0.914677 0
M  V30 3411 C 310.886 5.78464 -2.00114 0
M  V30 3412 N 310.023 6.86521 -1.47083 0
M  V30 3413 H 314.863 2.39548 -1.77259 0
M  V30 3414 H 312.4 1.17543 -0.884425 0
M  V30 3415 H 314.358 4.17179 -0.0419409 0
M  V30 3416 H 312.988 3.18419 0.530037 0
M  V30 3417 H 312.04 3.30297 -1.88701 0
M  V30 3418 H 313.352 4.43567 -2.28144 0
M  V30 3419 H 312.506 6.04131 -0.557698 0
M  V30 3420 H 311.245 4.87658 -0.0636583 0
M  V30 3421 H 310.25 4.96243 -2.36692 0
M  V30 3422 H 311.475 6.16126 -2.85597 0
M  V30 3423 H 309.421 6.52849 -0.642198 0
M  V30 3424 H 309.338 7.22446 -2.22729 0
M  V30 3425 H 310.606 7.71087 -1.14215 0
M  V30 3426 N 314.835 0.952656 1.25548 0
M  V30 3427 C 316.112 0.523818 1.88456 0
M  V30 3428 C 316.492 -0.998871 1.85973 0
M  V30 3429 O 315.84 -1.86381 1.3219 0
M  V30 3430 C 316.05 1.0982 3.31271 0
M  V30 3431 C 317.398 1.17385 4.08051 0
M  V30 3432 O 318.422 1.04961 3.40384 0
M  V30 3433 O 317.281 1.36852 5.29088 0
M  V30 3434 H 314.375 0.172485 0.808813 0
M  V30 3435 H 316.921 1.04596 1.33633 0
M  V30 3436 H 315.693 2.1415 3.27499 0
M  V30 3437 H 315.316 0.559191 3.93648 0
M  V30 3438 N 316.313 -1.40141 0.720998 0
M  V30 3439 C 317.562 -2.0002 0.259804 0
M  V30 3440 C 317.875 -1.57839 -1.15526 0
M  V30 3441 O 319.081 -2.10455 -1.71525 0
M  V30 3442 C 317.537 -3.57516 0.413566 0
M  V30 3443 C 317.145 -4.08667 1.83562 0
M  V30 3444 C 318.889 -4.24498 0.0134387 0
M  V30 3445 C 316.796 -5.58686 1.93968 0
M  V30 3446 H 315.726 -0.748195 0.0933806 0
M  V30 3447 H 318.377 -1.60313 0.892866 0
M  V30 3448 H 316.759 -3.9495 -0.288169 0
M  V30 3449 H 317.933 -3.82598 2.56817 0
M  V30 3450 H 316.248 -3.543 2.1877 0
M  V30 3451 H 318.845 -5.34654 0.0703954 0
M  V30 3452 H 319.188 -4.03375 -1.02927 0
M  V30 3453 H 319.721 -3.92188 0.665815 0
M  V30 3454 H 316.46 -5.8467 2.96379 0
M  V30 3455 H 315.98 -5.86602 1.25131 0
M  V30 3456 H 317.659 -6.23875 1.71431 0
M  V30 3457 N 317.792 -0.46758 -1.50504 0
M  V30 3458 C 319.017 0.0886943 -2.0721 0
M  V30 3459 C 319.442 1.33057 -1.32956 0
M  V30 3460 O 318.8 1.77354 -0.376197 0
M  V30 3461 C 318.848 0.359202 -3.58806 0
M  V30 3462 O 317.952 1.44034 -3.8643 0
M  V30 3463 H 317.293 -0.0114349 -0.663902 0
M  V30 3464 H 319.823 -0.657613 -1.93744 0
M  V30 3465 H 319.833 0.600742 -4.03553 0
M  V30 3466 H 318.508 -0.548311 -4.1227 0
M  V30 3467 H 317.085 1.18638 -3.53524 0
M  V30 3468 N 319.27 1.56325 -0.20005 0
M  V30 3469 C 320.5 2.01811 0.442232 0
M  V30 3470 C 320.908 1.07932 1.55394 0
M  V30 3471 O 320.251 0.0772685 1.83537 0
M  V30 3472 C 320.313 3.43685 1.05457 0
M  V30 3473 C 319.977 4.56928 0.0809833 0
M  V30 3474 C 320.974 5.15009 -0.711471 0
M  V30 3475 C 318.659 5.0229 -0.0315364 0
M  V30 3476 C 320.653 6.16904 -1.60336 0
M  V30 3477 C 318.34 6.04028 -0.926981 0
M  V30 3478 C 319.338 6.6121 -1.71146 0
M  V30 3479 O 319.026 7.60971 -2.59189 0
M  V30 3480 H 318.758 0.666173 0.114848 0
M  V30 3481 H 321.312 2.03085 -0.307511 0
M  V30 3482 H 319.542 3.39413 1.85299 0
M  V30 3483 H 321.231 3.72948 1.60201 0
M  V30 3484 H 321.997 4.80827 -0.634873 0
M  V30 3485 H 317.876 4.57476 0.568902 0
M  V30 3486 H 321.42 6.61464 -2.21611 0
M  V30 3487 H 317.317 6.37634 -1.00468 0
M  V30 3488 H 318.085 7.7841 -2.53023 0
M  V30 3489 N 320.748 -0.0735177 1.57428 0
M  V30 3490 C 321.695 -1.08756 2.0357 0
M  V30 3491 C 322.665 -1.38559 0.916 0
M  V30 3492 O 323.85 -1.49656 1.18354 0
M  V30 3493 C 320.99 -2.39657 2.48311 0
M  V30 3494 C 320.103 -2.16399 3.73892 0
M  V30 3495 C 319.238 -3.40852 4.07423 0
M  V30 3496 C 318.277 -3.1295 5.2605 0
M  V30 3497 N 317.414 -4.29729 5.55228 0
M  V30 3498 H 322.254 -0.687104 2.8997 0
M  V30 3499 H 319.791 -0.327709 1.43403 0
M  V30 3500 H 321.749 -3.16081 2.72303 0
M  V30 3501 H 320.379 -2.77508 1.64891 0
M  V30 3502 H 319.431 -1.30676 3.57251 0
M  V30 3503 H 320.743 -1.91788 4.60455 0
M  V30 3504 H 319.897 -4.25671 4.32306 0
M  V30 3505 H 318.636 -3.68537 3.19425 0
M  V30 3506 H 317.641 -2.26526 5.00965 0
M  V30 3507 H 318.866 -2.86589 6.15665 0
M  V30 3508 H 316.812 -4.57448 4.70188 0
M  V30 3509 H 316.729 -4.08385 6.36206 0
M  V30 3510 H 317.997 -5.1555 5.84661 0
M  V30 3511 N 322.226 -1.5378 -0.344866 0
M  V30 3512 C 323.642 -1.44015 -0.687888 0
M  V30 3513 C 323.842 -0.595834 -1.92489 0
M  V30 3514 O 322.898 -0.0863064 -2.52352 0
M  V30 3515 C 324.211 -2.87481 -0.881758 0
M  V30 3516 C 325.759 -2.97247 -0.980459 0
M  V30 3517 C 326.234 -4.41819 -1.20665 0
M  V30 3518 N 327.725 -4.45339 -1.27389 0
M  V30 3519 C 328.46 -5.54333 -1.46639 0
M  V30 3520 N 327.956 -6.73335 -1.63071 0
M  V30 3521 N 329.749 -5.41944 -1.49176 0
M  V30 3522 H 321.9 -2.07169 0.468475 0
M  V30 3523 H 324.163 -0.93643 0.147655 0
M  V30 3524 H 323.869 -3.51672 -0.0443444 0
M  V30 3525 H 323.743 -3.32352 -1.78388 0
M  V30 3526 H 326.13 -2.33197 -1.8084 0
M  V30 3527 H 326.211 -2.5574 -0.0552713 0
M  V30 3528 H 325.855 -5.06449 -0.383652 0
M  V30 3529 H 325.785 -4.80917 -2.14539 0
M  V30 3530 H 328.276 -3.59585 -1.1622 0
M  V30 3531 H 328.589 -7.52165 -1.77391 0
M  V30 3532 H 326.934 -6.76282 -1.60209 0
M  V30 3533 H 330.125 -4.47932 -1.3592 0
M  V30 3534 H 330.298 -6.26946 -1.63837 0
M  V30 3535 N 323.704 0.605807 -1.45491 0
M  V30 3536 C 324.934 1.38934 -1.52908 0
M  V30 3537 C 325.342 1.88513 -0.161086 0
M  V30 3538 O 324.685 1.62962 0.847891 0
M  V30 3539 C 324.747 2.62737 -2.45376 0
M  V30 3540 C 324.411 2.34785 -3.92078 0
M  V30 3541 C 325.408 1.95038 -4.8193 0
M  V30 3542 C 323.093 2.47642 -4.37011 0
M  V30 3543 C 325.087 1.68511 -6.14722 0
M  V30 3544 C 322.774 2.20728 -5.69844 0
M  V30 3545 C 323.772 1.81225 -6.58519 0
M  V30 3546 O 323.46 1.54627 -7.88889 0
M  V30 3547 H 323.192 0.431629 -0.520262 0
M  V30 3548 H 325.746 0.74573 -1.91384 0
M  V30 3549 H 323.976 3.29824 -2.01874 0
M  V30 3550 H 325.665 3.24783 -2.43456 0
M  V30 3551 H 326.431 1.84639 -4.48479 0
M  V30 3552 H 322.31 2.77356 -3.68232 0
M  V30 3553 H 325.854 1.37602 -6.83894 0
M  V30 3554 H 321.751 2.30744 -6.02849 0
M  V30 3555 H 322.519 1.68665 -8.00933 0
M  V30 3556 N 325.182 1.32811 0.848464 0
M  V30 3557 C 326.431 1.23075 1.59798 0
M  V30 3558 C 326.744 -0.204419 1.94529 0
M  V30 3559 O 327.95 -0.423701 2.68173 0
M  V30 3560 C 326.406 2.15594 2.88179 0
M  V30 3561 C 326.014 3.64228 2.60849 0
M  V30 3562 C 327.758 2.14709 3.66197 0
M  V30 3563 C 325.665 4.48689 3.85269 0
M  V30 3564 H 324.595 0.457091 0.599653 0
M  V30 3565 H 327.246 1.57813 0.936342 0
M  V30 3566 H 325.628 1.73778 3.55833 0
M  V30 3567 H 326.802 4.14424 2.01467 0
M  V30 3568 H 325.117 3.67306 1.96151 0
M  V30 3569 H 327.714 2.75046 4.58534 0
M  V30 3570 H 328.057 1.13966 4.00397 0
M  V30 3571 H 328.59 2.54837 3.05455 0
M  V30 3572 H 325.329 5.5027 3.56207 0
M  V30 3573 H 324.849 4.03241 4.44024 0
M  V30 3574 H 326.528 4.62006 4.52946 0
M  V30 3575 N 326.66 -1.06551 1.16123 0
M  V30 3576 C 328.071 -1.60768 0.949232 0
M  V30 3577 C 328.422 -1.89523 -0.507508 0
M  V30 3578 O 327.547 -1.66671 -1.38021 0
M  V30 3579 C 328.142 -2.92086 1.71671 0
M  V30 3580 C 326.701 -3.43015 1.54977 0
M  V30 3581 C 325.848 -2.16947 1.72711 0
M  V30 3582 H 328.799 -0.895354 1.31031 0
M  V30 3583 H 328.82 -3.6138 1.19099 0
M  V30 3584 H 328.332 -2.71127 2.7769 0
M  V30 3585 H 326.433 -3.69039 0.513873 0
M  V30 3586 H 326.546 -4.18516 2.33198 0
M  V30 3587 H 324.91 -2.27041 1.15431 0
M  V30 3588 H 325.693 -1.98473 2.80113 0
M  V30 3589 N 328.138 -0.959301 -1.25041 0
M  V30 3590 C 329.048 -0.489994 -2.29426 0
M  V30 3591 C 330.064 0.444944 -1.68215 0
M  V30 3592 O 331.24 0.320046 -1.98841 0
M  V30 3593 C 328.305 0.220309 -3.45999 0
M  V30 3594 C 327.366 -0.753418 -4.22637 0
M  V30 3595 C 326.599 -0.076918 -5.33645 0
M  V30 3596 O 326.822 1.13649 -5.58963 0
M  V30 3597 O 325.756 -0.764824 -5.97021 0
M  V30 3598 H 329.582 -1.35755 -2.71669 0
M  V30 3599 H 327.167 -0.725961 -1.30576 0
M  V30 3600 H 329.049 0.619677 -4.16819 0
M  V30 3601 H 327.724 1.06296 -3.0575 0
M  V30 3602 H 326.631 -1.20308 -3.54227 0
M  V30 3603 H 327.964 -1.56423 -4.66683 0
M  V30 3604 N 329.616 1.39756 -0.72842 0
M  V30 3605 C 330.844 2.04948 -0.283528 0
M  V30 3606 C 331.259 1.54908 1.0793 0
M  V30 3607 O 330.616 0.711135 1.68075 0
M  V30 3608 C 330.667 3.60498 -0.268957 0
M  V30 3609 O 330.388 4.08695 -1.57798 0
M  V30 3610 C 331.889 4.4288 0.192912 0
M  V30 3611 H 329.109 0.659243 -0.125056 0
M  V30 3612 H 331.653 1.78927 -0.990226 0
M  V30 3613 H 329.808 3.85444 0.388801 0
M  V30 3614 H 330.222 5.02977 -1.48709 0
M  V30 3615 H 331.696 5.51791 0.151952 0
M  V30 3616 H 332.173 4.21418 1.23708 0
M  V30 3617 H 332.779 4.23069 -0.435039 0
M  V30 3618 N 331.094 0.475555 1.50254 0
M  V30 3619 C 332.024 -0.30611 2.31485 0
M  V30 3620 C 333.005 -0.986228 1.38591 0
M  V30 3621 O 334.19 -0.982541 1.67511 0
M  V30 3622 C 331.32 -1.38588 3.1845 0
M  V30 3623 C 330.274 -0.827115 4.19932 0
M  V30 3624 C 329.6 -2.00551 4.95665 0
M  V30 3625 C 330.9 0.16463 5.2204 0
M  V30 3626 H 332.594 0.371866 2.97082 0
M  V30 3627 H 330.14 0.180282 1.42867 0
M  V30 3628 H 332.093 -1.94023 3.74076 0
M  V30 3629 H 330.817 -2.09269 2.50747 0
M  V30 3630 H 329.476 -0.294702 3.65414 0
M  V30 3631 H 329.124 -2.6994 4.2443 0
M  V30 3632 H 328.824 -1.63784 5.64313 0
M  V30 3633 H 330.348 -2.56468 5.54127 0
M  V30 3634 H 331.762 -0.300699 5.72511 0
M  V30 3635 H 330.159 0.446813 5.98434 0
M  V30 3636 H 331.229 1.08905 4.72512 0
M  V30 3637 N 332.573 -1.56217 0.208337 0
M  V30 3638 C 333.521 -2.21053 -0.723769 0
M  V30 3639 C 334.515 -1.18578 -1.20978 0
M  V30 3640 O 335.721 -1.36691 -1.17114 0
M  V30 3641 H 332.096 -0.708595 -0.251788 0
M  V30 3642 H 334.067 -2.98006 -0.153365 0
M  V30 3643 C 332.816 -2.89417 -1.927 0
M  V30 3644 H 332.139 -3.68019 -1.56212 0
M  V30 3645 H 333.579 -3.38201 -2.55727 0
M  V30 3646 C 332.038 -1.91166 -2.77411 0
M  V30 3647 O 332.568 -1.42026 -3.75754 0
M  V30 3648 N 330.774 -1.59105 -2.43175 0
M  V30 3649 H 330.321 -1.99259 -1.63259 0
M  V30 3650 H 330.279 -0.936255 -3.00136 0
M  V30 3651 N 334.051 0.0651679 -1.57465 0
M  V30 3652 C 334.998 1.07675 -2.04144 0
M  V30 3653 C 335.968 1.38071 -0.923335 0
M  V30 3654 O 337.153 1.49026 -1.19146 0
M  V30 3655 C 334.293 2.38337 -2.49579 0
M  V30 3656 C 333.406 2.14413 -3.75035 0
M  V30 3657 C 332.541 3.38686 -4.09225 0
M  V30 3658 C 331.58 3.10156 -5.27702 0
M  V30 3659 N 330.717 4.26778 -5.57499 0
M  V30 3660 H 335.557 0.671716 -2.90331 0
M  V30 3661 H 333.094 0.3201 -1.43575 0
M  V30 3662 H 335.052 3.14632 -2.73975 0
M  V30 3663 H 333.682 2.7663 -1.6636 0
M  V30 3664 H 332.734 1.2878 -3.57939 0
M  V30 3665 H 334.046 1.89344 -4.61466 0
M  V30 3666 H 333.2 4.23373 -4.34558 0
M  V30 3667 H 331.939 3.66837 -3.21374 0
M  V30 3668 H 330.944 2.23866 -5.02159 0
M  V30 3669 H 332.169 2.8332 -6.17176 0
M  V30 3670 H 330.115 4.54948 -4.72608 0
M  V30 3671 H 330.032 4.05005 -6.38362 0
M  V30 3672 H 331.3 5.12443 -5.87386 0
M  V30 3673 N 335.529 1.53961 0.336706 0
M  V30 3674 C 336.754 1.75797 1.10046 0
M  V30 3675 C 337.179 0.498985 1.81361 0
M  V30 3676 O 336.537 -0.548769 1.72795 0
M  V30 3677 C 336.585 2.94257 2.08436 0
M  V30 3678 O 335.689 2.64883 3.16087 0
M  V30 3679 H 335.03 0.582936 0.317934 0
M  V30 3680 H 337.56 2.00945 0.38501 0
M  V30 3681 H 337.57 3.21237 2.51537 0
M  V30 3682 H 336.245 3.85564 1.55927 0
M  V30 3683 H 334.822 2.48812 2.77753 0
M  V30 3684 N 337.007 -0.598083 1.45811 0
M  V30 3685 C 338.256 -1.35295 1.49594 0
M  V30 3686 C 338.569 -1.95057 0.145679 0
M  V30 3687 O 339.775 -2.71431 0.0612099 0
M  V30 3688 C 338.231 -2.45124 2.63519 0
M  V30 3689 C 337.839 -1.91732 4.04899 0
M  V30 3690 C 339.583 -3.2205 2.76558 0
M  V30 3691 C 337.49 -2.991 5.1019 0
M  V30 3692 H 336.42 -0.508552 0.556679 0
M  V30 3693 H 339.071 -0.639977 1.71978 0
M  V30 3694 H 337.453 -3.19149 2.34435 0
M  V30 3695 H 338.627 -1.24352 4.43704 0
M  V30 3696 H 336.942 -1.27522 3.96393 0
M  V30 3697 H 339.539 -4.0215 3.52391 0
M  V30 3698 H 339.882 -3.73663 1.83526 0
M  V30 3699 H 340.415 -2.55127 3.05213 0
M  V30 3700 H 337.154 -2.52393 6.04961 0
M  V30 3701 H 336.674 -3.65017 4.75944 0
M  V30 3702 H 338.353 -3.63318 5.35359 0
M  V30 3703 N 338.485 -1.33259 -0.841409 0
M  V30 3704 C 339.901 -1.12538 -1.13169 0
M  V30 3705 C 340.101 0.0854037 -2.01319 0
M  V30 3706 O 339.157 0.766417 -2.40587 0
M  V30 3707 C 340.47 -2.41156 -1.79623 0
M  V30 3708 C 342.018 -2.47038 -1.922 0
M  V30 3709 C 342.493 -3.7561 -2.6207 0
M  V30 3710 N 343.984 -3.76667 -2.69585 0
M  V30 3711 C 344.719 -4.72861 -3.2433 0
M  V30 3712 N 344.215 -5.79428 -3.79783 0
M  V30 3713 N 346.008 -4.6034 -3.22558 0
M  V30 3714 H 338.159 -2.10868 -0.254676 0
M  V30 3715 H 340.422 -0.931615 -0.175493 0
M  V30 3716 H 340.128 -3.29747 -1.22311 0
M  V30 3717 H 340.002 -2.53114 -2.79666 0
M  V30 3718 H 342.389 -1.58898 -2.48667 0
M  V30 3719 H 342.47 -2.39022 -0.911148 0
M  V30 3720 H 342.114 -4.64131 -2.06263 0
M  V30 3721 H 342.044 -3.80902 -3.63622 0
M  V30 3722 H 344.535 -2.99648 -2.30259 0
M  V30 3723 H 344.848 -6.48867 -4.19752 0
M  V30 3724 H 343.193 -5.83166 -3.78078 0
M  V30 3725 H 346.384 -3.76244 -2.78492 0
M  V30 3726 H 346.557 -5.35478 -3.64921 0
M  V30 3727 N 339.963 1.05934 -1.16686 0
M  V30 3728 C 340.895 2.13468 -0.834503 0
M  V30 3729 C 341.908 1.62013 0.15984 0
M  V30 3730 O 343.097 1.7838 -0.0654228 0
M  V30 3731 C 340.197 3.3817 -0.222361 0
M  V30 3732 C 339.37 4.18928 -1.25771 0
M  V30 3733 C 338.429 5.21985 -0.664703 0
M  V30 3734 O 337.455 5.53334 -1.33453 0
M  V30 3735 N 338.657 5.77919 0.546834 0
M  V30 3736 H 341.422 2.42578 -1.75999 0
M  V30 3737 H 338.983 1.21967 -1.06469 0
M  V30 3738 H 340.975 4.04266 0.187472 0
M  V30 3739 H 339.545 3.06655 0.606758 0
M  V30 3740 H 338.765 3.48433 -1.84358 0
M  V30 3741 H 340.053 4.69687 -1.95631 0
M  V30 3742 H 339.451 5.54721 1.10912 0
M  V30 3743 H 338.008 6.45573 0.898829 0
M  V30 3744 N 341.441 0.965919 1.2453 0
M  V30 3745 C 342.857 0.67216 1.44756 0
M  V30 3746 C 343.057 -0.766609 1.86347 0
M  V30 3747 O 342.113 -1.5407 2.00047 0
M  V30 3748 C 343.426 1.65473 2.51076 0
M  V30 3749 C 344.974 1.66716 2.64905 0
M  V30 3750 C 345.449 2.63766 3.74421 0
M  V30 3751 N 346.94 2.62198 3.81846 0
M  V30 3752 C 347.675 3.33966 4.66106 0
M  V30 3753 N 347.171 4.15245 5.54566 0
M  V30 3754 N 348.964 3.22799 4.60171 0
M  V30 3755 H 341.115 1.89553 0.958293 0
M  V30 3756 H 343.378 0.815979 0.482579 0
M  V30 3757 H 343.084 2.68296 2.27399 0
M  V30 3758 H 342.958 1.4261 3.49202 0
M  V30 3759 H 345.345 0.646057 2.87941 0
M  V30 3760 H 345.426 1.93642 1.67142 0
M  V30 3761 H 345.07 3.6601 3.52135 0
M  V30 3762 H 345 2.34121 4.71694 0
M  V30 3763 H 347.491 2.032 3.18619 0
M  V30 3764 H 347.804 4.66898 6.15814 0
M  V30 3765 H 346.149 4.1934 5.54237 0
M  V30 3766 H 349.34 2.58764 3.90075 0
M  V30 3767 H 349.513 3.78994 5.25612 0
M  V30 3768 N 342.919 -1.39368 0.735821 0
M  V30 3769 C 343.867 -2.32443 0.0855131 0
M  V30 3770 C 344.861 -1.53104 -0.724954 0
M  V30 3771 O 346.067 -1.68762 -0.626047 0
M  V30 3772 H 342.442 -0.751948 0.00885257 0
M  V30 3773 H 344.413 -2.84916 0.886883 0
M  V30 3774 C 343.162 -3.38206 -0.806983 0
M  V30 3775 H 342.485 -3.99335 -0.19274 0
M  V30 3776 H 343.925 -4.05779 -1.2296 0
M  V30 3777 C 342.384 -2.75321 -1.94165 0
M  V30 3778 O 342.914 -2.63231 -3.03435 0
M  V30 3779 N 341.12 -2.33396 -1.73132 0
M  V30 3780 H 340.667 -2.4343 -0.842596 0
M  V30 3781 H 340.625 -1.91661 -2.49225 0
M  V30 3782 N 344.397 -0.483516 -1.5 0
M  V30 3783 C 345.327 0.293829 -2.31644 0
M  V30 3784 C 346.308 0.978864 -1.39112 0
M  V30 3785 O 347.493 0.973644 -1.68029 0
M  V30 3786 C 344.623 1.36897 -3.19181 0
M  V30 3787 C 343.577 0.804833 -4.20365 0
M  V30 3788 C 342.903 1.9792 -4.96721 0
M  V30 3789 C 344.203 -0.192313 -5.21946 0
M  V30 3790 H 345.897 -0.387616 -2.9688 0
M  V30 3791 H 343.443 -0.187856 -1.42769 0
M  V30 3792 H 345.396 1.92037 -3.751 0
M  V30 3793 H 344.12 2.07936 -2.51853 0
M  V30 3794 H 342.779 0.275319 -3.65565 0
M  V30 3795 H 342.427 2.67686 -4.25856 0
M  V30 3796 H 342.127 1.60789 -5.65173 0
M  V30 3797 H 343.651 2.53526 -5.55479 0
M  V30 3798 H 345.065 0.270333 -5.72662 0
M  V30 3799 H 343.462 -0.478543 -5.98189 0
M  V30 3800 H 344.532 -1.11409 -4.71928 0
M  V30 3801 N 345.875 1.56104 -0.216619 0
M  V30 3802 C 346.805 2.23063 0.690296 0
M  V30 3803 C 347.786 1.20072 1.20485 0
M  V30 3804 O 348.971 1.48643 1.24976 0
M  V30 3805 C 346.101 2.90672 1.90072 0
M  V30 3806 C 345.055 4.00092 1.5202 0
M  V30 3807 C 344.381 4.54972 2.80899 0
M  V30 3808 C 345.681 5.17398 0.71391 0
M  V30 3809 H 347.375 2.99109 0.132038 0
M  V30 3810 H 344.921 1.43866 0.0620664 0
M  V30 3811 H 346.874 3.36204 2.54057 0
M  V30 3812 H 345.598 2.12066 2.48386 0
M  V30 3813 H 344.257 3.55283 0.903839 0
M  V30 3814 H 343.905 3.73102 3.37348 0
M  V30 3815 H 343.605 5.28817 2.56176 0
M  V30 3816 H 345.129 5.0322 3.45836 0
M  V30 3817 H 346.543 5.59342 1.25735 0
M  V30 3818 H 344.94 5.97444 0.563951 0
M  V30 3819 H 346.01 4.84088 -0.280527 0
M  V30 3820 N 347.353 -0.0568162 1.57498 0
M  V30 3821 C 348.581 -0.765626 1.92213 0
M  V30 3822 C 348.996 -1.70353 0.813961 0
M  V30 3823 O 348.353 -1.81268 -0.211701 0
M  V30 3824 C 348.404 -1.5465 3.2675 0
M  V30 3825 O 348.125 -0.646278 4.33307 0
M  V30 3826 C 349.626 -2.35497 3.75574 0
M  V30 3827 H 346.846 -0.216835 0.634999 0
M  V30 3828 H 349.39 -0.0226146 2.04487 0
M  V30 3829 H 347.545 -2.24165 3.15957 0
M  V30 3830 H 347.959 -1.19093 5.108 0
M  V30 3831 H 349.433 -2.85722 4.72299 0
M  V30 3832 H 349.91 -3.15692 3.05344 0
M  V30 3833 H 350.516 -1.7111 3.8936 0
M  V30 3834 N 348.832 -1.54138 -0.328536 0
M  V30 3835 C 350.248 -1.44736 -0.672574 0
M  V30 3836 C 350.448 -0.616217 -1.91846 0
M  V30 3837 O 349.504 -0.113067 -2.52247 0
M  V30 3838 C 350.817 -2.884 -0.851217 0
M  V30 3839 C 352.365 -2.98271 -0.948877 0
M  V30 3840 C 352.84 -4.43074 -1.15973 0
M  V30 3841 N 354.331 -4.46665 -1.22658 0
M  V30 3842 C 355.066 -5.55857 -1.40751 0
M  V30 3843 N 354.562 -6.75026 -1.5592 0
M  V30 3844 N 356.355 -5.43495 -1.4342 0
M  V30 3845 H 348.506 -2.06661 0.490421 0
M  V30 3846 H 350.769 -0.934812 0.157579 0
M  V30 3847 H 350.475 -3.51699 -0.00704236 0
M  V30 3848 H 350.349 -3.34225 -1.74853 0
M  V30 3849 H 352.736 -2.35102 -1.78356 0
M  V30 3850 H 352.817 -2.55785 -0.0281435 0
M  V30 3851 H 352.461 -5.06827 -0.329915 0
M  V30 3852 H 352.391 -4.83165 -2.09426 0
M  V30 3853 H 354.882 -3.60797 -1.124 0
M  V30 3854 H 355.195 -7.54004 -1.69404 0
M  V30 3855 H 353.54 -6.77944 -1.53027 0
M  V30 3856 H 356.731 -4.49349 -1.31162 0
M  V30 3857 H 356.904 -6.28649 -1.57178 0
M  V30 3858 N 350.31 0.590341 -1.46126 0
M  V30 3859 C 351.243 1.71434 -1.50617 0
M  V30 3860 C 352.221 1.58543 -0.360948 0
M  V30 3861 O 353.405 1.79865 -0.563985 0
M  V30 3862 C 350.532 3.09422 -1.37753 0
M  V30 3863 C 349.578 3.40854 -2.5636 0
M  V30 3864 S 350.411 3.33773 -4.18755 0
M  V30 3865 C 351.567 4.74312 -4.08386 0
M  V30 3866 H 351.8 1.67364 -2.45717 0
M  V30 3867 H 349.333 0.76845 -1.33919 0
M  V30 3868 H 351.291 3.8903 -1.31018 0
M  V30 3869 H 349.952 3.10989 -0.440949 0
M  V30 3870 H 349.145 4.41368 -2.43332 0
M  V30 3871 H 348.747 2.68798 -2.60046 0
M  V30 3872 H 351.039 5.64522 -3.74595 0
M  V30 3873 H 351.982 4.92397 -5.08872 0
M  V30 3874 H 352.39 4.50803 -3.3976 0
M  V30 3875 N 351.788 1.33704 0.83433 0
M  V30 3876 C 353.204 1.13137 1.12571 0
M  V30 3877 C 353.404 -0.0747261 2.01361 0
M  V30 3878 O 352.46 -0.753647 2.4099 0
M  V30 3879 C 353.773 2.42105 1.78342 0
M  V30 3880 C 355.321 2.48054 1.90888 0
M  V30 3881 C 355.796 3.76995 2.60075 0
M  V30 3882 N 357.287 3.78092 2.67584 0
M  V30 3883 C 358.022 4.74574 3.21818 0
M  V30 3884 N 357.518 5.81434 3.76705 0
M  V30 3885 N 359.311 4.62044 3.20112 0
M  V30 3886 H 351.462 2.11 0.243489 0
M  V30 3887 H 353.725 0.932532 0.17055 0
M  V30 3888 H 353.431 3.30391 1.20561 0
M  V30 3889 H 353.305 2.54594 2.7832 0
M  V30 3890 H 355.692 1.60215 2.47821 0
M  V30 3891 H 355.773 2.39502 0.898459 0
M  V30 3892 H 355.417 4.65219 2.03799 0
M  V30 3893 H 355.347 3.82825 3.61597 0
M  V30 3894 H 357.838 3.00865 2.28667 0
M  V30 3895 H 358.151 6.51084 4.16305 0
M  V30 3896 H 356.496 5.85163 3.7498 0
M  V30 3897 H 359.687 3.77716 2.76493 0
M  V30 3898 H 359.86 5.37406 3.62076 0
M  V30 3899 N 353.266 -1.05314 1.17247 0
M  V30 3900 C 354.515 -1.77685 0.954521 0
M  V30 3901 C 354.828 -1.88616 -0.518025 0
M  V30 3902 O 356.034 -2.57714 -0.854144 0
M  V30 3903 C 354.49 -3.19402 1.65863 0
M  V30 3904 C 354.098 -3.16605 3.16963 0
M  V30 3905 C 355.842 -3.96237 1.52303 0
M  V30 3906 C 353.749 -4.53103 3.80068 0
M  V30 3907 H 352.679 -0.666 0.353496 0
M  V30 3908 H 355.33 -1.1805 1.40486 0
M  V30 3909 H 353.712 -3.79355 1.13602 0
M  V30 3910 H 354.886 -2.66176 3.76148 0
M  V30 3911 H 353.201 -2.53268 3.30521 0
M  V30 3912 H 355.798 -4.97157 1.96822 0
M  V30 3913 H 356.141 -4.136 0.473401 0
M  V30 3914 H 356.674 -3.42829 2.01775 0
M  V30 3915 H 353.413 -4.40946 4.85023 0
M  V30 3916 H 352.933 -5.03686 3.2567 0
M  V30 3917 H 354.612 -5.22045 3.82202 0
M  V30 3918 N 354.744 -0.972509 -1.24016 0
M  V30 3919 C 355.692 -0.498562 -2.27194 0
M  V30 3920 C 356.686 0.440372 -1.63576 0
M  V30 3921 O 357.892 0.315133 -1.7722 0
M  V30 3922 H 354.267 -0.142775 -0.738322 0
M  V30 3923 H 356.238 -1.38065 -2.64539 0
M  V30 3924 C 354.987 0.191072 -3.47175 0
M  V30 3925 H 354.31 -0.522318 -3.96373 0
M  V30 3926 H 355.75 0.486445 -4.212 0
M  V30 3927 C 354.209 1.41967 -3.05527 0
M  V30 3928 O 354.739 2.51642 -3.13112 0
M  V30 3929 N 352.945 1.28746 -2.60524 0
M  V30 3930 H 352.492 0.395089 -2.54552 0
M  V30 3931 H 352.45 2.11061 -2.33025 0
M  V30 3932 N 356.222 1.38976 -0.743202 0
M  V30 3933 C 357.17 2.32394 -0.0978389 0
M  V30 3934 C 358.164 1.53486 0.716824 0
M  V30 3935 O 359.37 1.69092 0.617088 0
M  V30 3936 H 355.745 0.75189 -0.0128402 0
M  V30 3937 H 357.716 2.84441 -0.901981 0
M  V30 3938 C 356.465 3.38629 0.789036 0
M  V30 3939 H 355.788 3.99432 0.171559 0
M  V30 3940 H 357.228 4.06426 1.20807 0
M  V30 3941 C 355.687 2.76347 1.92702 0
M  V30 3942 O 356.217 2.64836 3.02034 0
M  V30 3943 N 354.423 2.34311 1.71891 0
M  V30 3944 H 353.97 2.43873 0.829675 0
M  V30 3945 H 353.928 1.9298 2.48205 0
M  V30 3946 N 357.7 0.491464 1.49741 0
M  V30 3947 C 358.946 -0.0565092 2.02721 0
M  V30 3948 C 359.279 -1.37522 1.37118 0
M  V30 3949 O 358.554 -1.87866 0.503645 0
M  V30 3950 C 358.837 -0.219051 3.59433 0
M  V30 3951 C 358.69 1.12211 4.35579 0
M  V30 3952 C 360.009 -0.964157 4.29409 0
M  V30 3953 H 357.128 -0.0190627 0.736753 0
M  V30 3954 H 359.77 0.641021 1.7886 0
M  V30 3955 H 357.92 -0.813165 3.79895 0
M  V30 3956 H 359.592 1.75437 4.26637 0
M  V30 3957 H 357.835 1.71377 3.98513 0
M  V30 3958 H 358.506 0.961794 5.43556 0
M  V30 3959 H 360.982 -0.460378 4.13545 0
M  V30 3960 H 359.858 -1.04671 5.38828 0
M  V30 3961 H 360.119 -2.00563 3.93988 0
M  V30 3962 N 359.178 -1.55987 0.224894 0
M  V30 3963 C 360.425 -1.9839 -0.4059 0
M  V30 3964 C 360.753 -1.11261 -1.59535 0
M  V30 3965 O 360.008 -0.158314 -1.95059 0
M  V30 3966 C 360.307 -3.46394 -0.880106 0
M  V30 3967 C 359.973 -4.5046 0.19918 0
M  V30 3968 C 358.635 -4.7864 0.495661 0
M  V30 3969 C 360.987 -5.12855 0.928939 0
M  V30 3970 C 358.315 -5.66497 1.52636 0
M  V30 3971 C 360.667 -6.01828 1.949 0
M  V30 3972 C 359.331 -6.28351 2.25236 0
M  V30 3973 H 358.601 -0.725961 -0.148529 0
M  V30 3974 H 361.248 -1.88668 0.328113 0
M  V30 3975 H 359.553 -3.53337 -1.69294 0
M  V30 3976 H 361.25 -3.76577 -1.37808 0
M  V30 3977 H 357.84 -4.28579 -0.0420526 0
M  V30 3978 H 362.024 -4.9115 0.713129 0
M  V30 3979 H 357.28 -5.8531 1.76698 0
M  V30 3980 H 361.454 -6.49225 2.51951 0
M  V30 3981 H 359.081 -6.96226 3.05244 0
M  V30 3982 N 360.656 0.0484629 -1.57525 0
M  V30 3983 C 361.603 1.05504 -2.05275 0
M  V30 3984 C 362.573 1.37084 -0.937927 0
M  V30 3985 O 363.758 1.47754 -1.2072 0
M  V30 3986 C 360.898 2.35676 -2.52093 0
M  V30 3987 C 360.011 2.10423 -3.77288 0
M  V30 3988 C 359.146 3.34327 -4.12794 0
M  V30 3989 C 358.185 3.04542 -5.30962 0
M  V30 3990 N 357.322 4.20841 -5.61994 0
M  V30 3991 H 362.162 0.640885 -2.91027 0
M  V30 3992 H 359.699 0.304854 -1.43906 0
M  V30 3993 H 361.657 3.11709 -2.77297 0
M  V30 3994 H 360.287 2.7485 -1.69285 0
M  V30 3995 H 359.339 1.24976 -3.59284 0
M  V30 3996 H 360.651 1.84438 -4.63448 0
M  V30 3997 H 359.805 4.1874 -4.39024 0
M  V30 3998 H 358.544 3.63408 -3.25247 0
M  V30 3999 H 357.549 2.18528 -5.04505 0
M  V30 4000 H 358.774 2.76758 -6.20146 0
M  V30 4001 H 356.72 4.4991 -4.77406 0
M  V30 4002 H 356.637 3.98212 -6.42622 0
M  V30 4003 H 357.905 5.06184 -5.92789 0
M  V30 4004 N 362.134 1.5431 0.320358 0
M  V30 4005 C 363.411 1.63322 1.07635 0
M  V30 4006 C 363.791 0.46912 2.05821 0
M  V30 4007 O 363.139 -0.536274 2.22118 0
M  V30 4008 C 363.349 3.00465 1.77544 0
M  V30 4009 C 364.697 3.56621 2.30449 0
M  V30 4010 O 365.721 3.02791 1.87606 0
M  V30 4011 O 364.58 4.5083 3.08892 0
M  V30 4012 H 361.674 0.661502 0.496331 0
M  V30 4013 H 364.22 1.66656 0.319992 0
M  V30 4014 H 362.992 3.76629 1.06143 0
M  V30 4015 H 362.615 3.00824 2.59982 0
M  V30 4016 N 363.613 -0.582584 1.46437 0
M  V30 4017 C 364.86 -1.34079 1.51753 0
M  V30 4018 C 365.188 -1.93762 0.169299 0
M  V30 4019 O 364.443 -1.76989 -0.835062 0
M  V30 4020 C 364.742 -2.48964 2.56421 0
M  V30 4021 C 364.408 -2.07273 4.00436 0
M  V30 4022 C 363.07 -1.95618 4.39644 0
M  V30 4023 C 365.422 -1.75111 4.90903 0
M  V30 4024 C 362.75 -1.5006 5.67185 0
M  V30 4025 C 365.102 -1.31032 6.18881 0
M  V30 4026 C 363.766 -1.17954 6.56996 0
M  V30 4027 H 363.036 -0.49063 0.555304 0
M  V30 4028 H 365.683 -0.656007 1.79913 0
M  V30 4029 H 363.988 -3.22889 2.21923 0
M  V30 4030 H 365.685 -3.07178 2.57765 0
M  V30 4031 H 362.275 -2.17279 3.69443 0
M  V30 4032 H 366.459 -1.83001 4.61329 0
M  V30 4033 H 361.715 -1.38577 5.95488 0
M  V30 4034 H 365.889 -1.052 6.88408 0
M  V30 4035 H 363.516 -0.824279 7.55718 0
M  V30 4036 N 365.091 -1.34144 -0.827227 0
M  V30 4037 C 366.021 -1.28005 -1.95287 0
M  V30 4038 C 367.002 -0.158321 -1.69362 0
M  V30 4039 O 368.187 -0.349987 -1.9102 0
M  V30 4040 C 365.317 -1.03036 -3.31664 0
M  V30 4041 C 364.271 -2.11628 -3.72019 0
M  V30 4042 C 363.597 -1.71854 -5.0633 0
M  V30 4043 C 364.897 -3.53417 -3.8457 0
M  V30 4044 H 366.591 -2.22187 -2.00682 0
M  V30 4045 H 364.137 -1.0696 -0.964135 0
M  V30 4046 H 366.09 -0.973863 -4.09993 0
M  V30 4047 H 364.814 -0.0529391 -3.26557 0
M  V30 4048 H 363.473 -2.16339 -2.95961 0
M  V30 4049 H 363.121 -0.727841 -4.97706 0
M  V30 4050 H 362.821 -2.44531 -5.34302 0
M  V30 4051 H 364.345 -1.67692 -5.87122 0
M  V30 4052 H 365.759 -3.51142 -4.5318 0
M  V30 4053 H 364.156 -4.24679 -4.2399 0
M  V30 4054 H 365.226 -3.91072 -2.86689 0
M  V30 4055 N 366.569 1.04691 -1.17803 0
M  V30 4056 C 367.516 2.12557 -0.899343 0
M  V30 4057 C 368.486 1.65339 0.158771 0
M  V30 4058 O 369.671 1.90789 0.0204797 0
M  V30 4059 C 366.811 3.42481 -0.424315 0
M  V30 4060 C 365.924 4.03346 -1.54713 0
M  V30 4061 C 365.059 5.21208 -1.02546 0
M  V30 4062 C 364.098 5.74089 -2.12339 0
M  V30 4063 N 363.235 6.83247 -1.61612 0
M  V30 4064 H 368.075 2.35734 -1.823 0
M  V30 4065 H 365.612 1.1564 -0.909159 0
M  V30 4066 H 367.57 4.16996 -0.130421 0
M  V30 4067 H 366.2 3.19471 0.462377 0
M  V30 4068 H 365.252 3.2622 -1.95664 0
M  V30 4069 H 366.564 4.38628 -2.37501 0
M  V30 4070 H 365.718 6.02812 -0.685718 0
M  V30 4071 H 364.457 4.87414 -0.167084 0
M  V30 4072 H 363.462 4.91111 -2.47165 0
M  V30 4073 H 364.687 6.0993 -2.98601 0
M  V30 4074 H 362.633 6.5134 -0.780533 0
M  V30 4075 H 362.55 7.17559 -2.38003 0
M  V30 4076 H 363.818 7.68491 -1.30545 0
M  V30 4077 N 368.047 0.979072 1.23499 0
M  V30 4078 C 368.957 0.526431 2.28617 0
M  V30 4079 C 369.973 -0.418126 1.68901 0
M  V30 4080 O 371.149 -0.288372 1.99325 0
M  V30 4081 C 368.214 -0.165235 3.46306 0
M  V30 4082 C 367.275 0.82056 4.21385 0
M  V30 4083 C 366.508 0.161807 5.33455 0
M  V30 4084 O 366.731 -1.04742 5.60701 0
M  V30 4085 O 365.665 0.859708 5.95729 0
M  V30 4086 H 369.491 1.4006 2.69475 0
M  V30 4087 H 367.076 0.746643 1.29405 0
M  V30 4088 H 368.958 -0.553287 4.17752 0
M  V30 4089 H 367.633 -1.01419 3.07402 0
M  V30 4090 H 366.54 1.25929 3.52268 0
M  V30 4091 H 367.873 1.63828 4.64135 0
M  V30 4092 N 369.525 -1.3858 0.750561 0
M  V30 4093 C 370.772 -2.00184 0.305373 0
M  V30 4094 C 371.1 -1.59575 -1.11203 0
M  V30 4095 O 370.355 -0.823236 -1.77542 0
M  V30 4096 C 370.654 -3.55455 0.372373 0
M  V30 4097 C 370.32 -4.15765 1.745 0
M  V30 4098 C 368.982 -4.31951 2.12065 0
M  V30 4099 C 371.334 -4.49067 2.64553 0
M  V30 4100 C 368.662 -4.78734 3.39162 0
M  V30 4101 C 371.014 -4.97265 3.91038 0
M  V30 4102 C 369.678 -5.11658 4.28676 0
M  V30 4103 H 368.948 -0.732526 0.111744 0
M  V30 4104 H 371.595 -1.65673 0.960451 0
M  V30 4105 H 369.9 -3.90084 -0.366272 0
M  V30 4106 H 371.597 -4.00999 0.00953918 0
M  V30 4107 H 368.187 -4.03579 1.44297 0
M  V30 4108 H 372.371 -4.36166 2.36796 0
M  V30 4109 H 367.627 -4.88062 3.68246 0
M  V30 4110 H 371.801 -5.22003 4.60962 0
M  V30 4111 H 369.428 -5.47668 5.27222 0
M  V30 4112 N 371.003 -0.499398 -1.49478 0
M  V30 4113 C 371.951 0.293604 -2.3074 0
M  V30 4114 C 372.945 0.96427 -1.39277 0
M  V30 4115 O 374.151 0.892141 -1.56336 0
M  V30 4116 H 370.526 0.113541 -0.743379 0
M  V30 4117 H 372.497 -0.411772 -2.95545 0
M  V30 4118 C 371.246 1.3462 -3.20582 0
M  V30 4119 H 370.569 0.83954 -3.90886 0
M  V30 4120 H 372.009 1.87308 -3.80384 0
M  V30 4121 C 370.468 2.36351 -2.40083 0
M  V30 4122 O 370.998 3.422 -2.10385 0
M  V30 4123 N 369.204 2.0878 -2.02137 0
M  V30 4124 H 368.751 1.22723 -2.26488 0
M  V30 4125 H 368.709 2.77075 -1.48583 0
M  V30 4126 N 372.481 1.55866 -0.233164 0
M  V30 4127 C 373.429 2.22176 0.68851 0
M  V30 4128 C 374.423 1.20487 1.19076 0
M  V30 4129 O 375.629 1.38536 1.14925 0
M  V30 4130 H 372.004 0.712511 0.240483 0
M  V30 4131 H 373.975 2.98212 0.105935 0
M  V30 4132 C 372.724 2.92446 1.88071 0
M  V30 4133 H 372.047 3.70458 1.50337 0
M  V30 4134 H 373.487 3.42226 2.50314 0
M  V30 4135 C 371.946 1.95555 2.74335 0
M  V30 4136 O 372.476 1.47986 3.73447 0
M  V30 4137 N 370.682 1.62953 2.40613 0
M  V30 4138 H 370.229 2.01831 1.60069 0
M  V30 4139 H 370.187 0.983886 2.98609 0
M  V30 4140 N 373.959 -0.0401083 1.57549 0
M  V30 4141 C 374.906 -1.04413 2.05831 0
M  V30 4142 C 375.876 -1.36585 0.945184 0
M  V30 4143 O 377.061 -1.47112 1.21502 0
M  V30 4144 C 374.201 -2.34336 2.53339 0
M  V30 4145 C 373.314 -2.08419 3.78398 0
M  V30 4146 C 372.449 -3.32133 4.14561 0
M  V30 4147 C 371.488 -3.01721 5.3257 0
M  V30 4148 N 370.625 -4.17855 5.64218 0
M  V30 4149 H 375.465 -0.625442 2.91363 0
M  V30 4150 H 373.002 -0.297218 1.44066 0
M  V30 4151 H 374.96 -3.10234 2.78946 0
M  V30 4152 H 373.59 -2.73948 1.7074 0
M  V30 4153 H 372.642 -1.23069 3.59942 0
M  V30 4154 H 373.954 -1.81978 4.64419 0
M  V30 4155 H 373.108 -4.16406 4.41238 0
M  V30 4156 H 371.847 -3.61678 3.2717 0
M  V30 4157 H 370.852 -2.15849 5.05657 0
M  V30 4158 H 372.077 -2.73466 6.21605 0
M  V30 4159 H 370.023 -4.47372 4.79786 0
M  V30 4160 H 369.94 -3.94798 6.44725 0
M  V30 4161 H 371.208 -5.03033 5.95465 0
M  V30 4162 N 375.437 -1.54477 -0.31217 0
M  V30 4163 C 376.665 -1.77205 -1.068 0
M  V30 4164 C 377.08 -0.526114 -1.81321 0
M  V30 4165 O 376.437 0.503647 -1.75413 0
M  V30 4166 C 376.488 -2.97253 -2.05725 0
M  V30 4167 O 376.209 -4.1703 -1.34228 0
M  V30 4168 C 377.71 -3.32281 -2.93435 0
M  V30 4169 H 374.93 -0.591287 -0.317208 0
M  V30 4170 H 377.474 -2.01398 -0.354834 0
M  V30 4171 H 375.629 -2.753 -2.72559 0
M  V30 4172 H 376.043 -4.84636 -2.00571 0
M  V30 4173 H 377.517 -4.19551 -3.58721 0
M  V30 4174 H 377.994 -2.49945 -3.61143 0
M  V30 4175 H 378.6 -3.56353 -2.32147 0
M  V30 4176 N 376.915 0.57481 -1.46744 0
M  V30 4177 C 378.164 1.32898 -1.51727 0
M  V30 4178 C 378.477 1.948 -0.176692 0
M  V30 4179 O 379.683 2.71299 -0.104385 0
M  V30 4180 C 378.139 2.40901 -2.67385 0
M  V30 4181 C 377.747 1.85266 -4.07898 0
M  V30 4182 C 379.491 3.17609 -2.81646 0
M  V30 4183 C 377.398 2.90945 -5.14883 0
M  V30 4184 H 376.328 0.499631 -0.564699 0
M  V30 4185 H 378.979 0.612536 -1.72975 0
M  V30 4186 H 377.361 3.15379 -2.39483 0
M  V30 4187 H 378.535 1.17278 -4.45626 0
M  V30 4188 H 376.85 1.21199 -3.98371 0
M  V30 4189 H 379.447 3.96493 -3.58744 0
M  V30 4190 H 379.79 3.70696 -1.89448 0
M  V30 4191 H 380.323 2.50239 -3.09233 0
M  V30 4192 H 377.062 2.42736 -6.089 0
M  V30 4193 H 376.582 3.57398 -4.81691 0
M  V30 4194 H 378.261 3.54755 -5.41071 0
M  V30 4195 N 378.394 1.34581 0.820102 0
M  V30 4196 C 379.634 1.28448 1.58998 0
M  V30 4197 C 379.998 -0.142883 1.91468 0
M  V30 4198 O 381.199 -0.328422 2.66786 0
M  V30 4199 C 379.47 2.153 2.85273 0
M  V30 4200 S 381.029 2.26548 3.75794 0
M  V30 4201 H 377.847 0.456685 0.54494 0
M  V30 4202 H 380.449 1.69825 0.968487 0
M  V30 4203 H 379.153 3.18008 2.59421 0
M  V30 4204 H 378.684 1.7483 3.52417 0
M  V30 4205 H 380.699 1.44034 4.74835 0
M  V30 4206 N 379.872 -1.04064 1.18357 0
M  V30 4207 C 381.149 -1.74252 0.888581 0
M  V30 4208 C 381.529 -2.02138 -0.60856 0
M  V30 4209 O 380.877 -1.66656 -1.56327 0
M  V30 4210 C 381.087 -3.0277 1.73584 0
M  V30 4211 C 382.435 -3.76506 1.96286 0
M  V30 4212 O 383.459 -3.12668 1.70637 0
M  V30 4213 O 382.318 -4.91243 2.39464 0
M  V30 4214 H 379.412 -0.758271 0.330082 0
M  V30 4215 H 381.958 -1.1013 1.2911 0
M  V30 4216 H 380.73 -2.78299 2.75073 0
M  V30 4217 H 380.353 -3.74631 1.33183 0
M  V30 4218 N 381.35 -0.985608 -1.22978 0
M  V30 4219 C 382.575 -0.675254 -1.961 0
M  V30 4220 C 383 0.752154 -1.72407 0
M  V30 4221 O 382.358 1.5131 -0.998751 0
M  V30 4222 C 382.406 -0.977899 -3.47087 0
M  V30 4223 O 381.51 -0.072685 -4.12336 0
M  V30 4224 H 380.851 -0.253443 -0.613728 0
M  V30 4225 H 383.381 -1.32061 -1.56272 0
M  V30 4226 H 383.391 -0.916739 -3.97567 0
M  V30 4227 H 382.066 -2.01807 -3.63657 0
M  V30 4228 H 380.643 -0.188703 -3.72422 0
M  V30 4229 N 382.828 1.3818 -0.7579 0
M  V30 4230 C 384.053 2.04827 -0.325679 0
M  V30 4231 C 384.478 1.56788 1.03919 0
M  V30 4232 O 383.836 0.721811 1.66312 0
M  V30 4233 C 383.884 3.58774 -0.362447 0
M  V30 4234 O 382.988 4.07372 0.642033 0
M  V30 4235 H 382.329 0.64833 -0.143402 0
M  V30 4236 H 384.859 1.7677 -1.03023 0
M  V30 4237 H 384.869 4.07434 -0.214844 0
M  V30 4238 H 383.544 3.93096 -1.35824 0
M  V30 4239 H 382.121 3.70068 0.458688 0
M  V30 4240 N 384.306 0.507319 1.49211 0
M  V30 4241 C 385.552 -0.0350047 2.0277 0
M  V30 4242 C 385.885 -1.3606 1.38569 0
M  V30 4243 O 385.16 -1.87321 0.523542 0
M  V30 4244 C 385.443 -0.180916 3.59645 0
M  V30 4245 C 385.296 1.16825 4.34364 0
M  V30 4246 C 386.615 -0.918558 4.30407 0
M  V30 4247 H 383.734 -0.0112473 0.736914 0
M  V30 4248 H 386.376 0.659956 1.7817 0
M  V30 4249 H 384.526 -0.772826 3.80736 0
M  V30 4250 H 386.198 1.79952 4.24753 0
M  V30 4251 H 384.441 1.75594 3.96673 0
M  V30 4252 H 385.112 1.01939 5.42506 0
M  V30 4253 H 387.588 -0.41649 4.1401 0
M  V30 4254 H 386.464 -0.989505 5.39907 0
M  V30 4255 H 386.725 -1.96373 3.96093 0
M  V30 4256 N 385.784 -1.5574 0.241426 0
M  V30 4257 C 387.009 -2.0366 -0.392111 0
M  V30 4258 C 387.434 -1.11969 -1.51144 0
M  V30 4259 O 386.792 -0.111594 -1.80956 0
M  V30 4260 C 386.84 -3.49638 -0.882371 0
M  V30 4261 O 385.944 -3.6108 -1.99235 0
M  V30 4262 H 385.285 -0.658379 -0.0862122 0
M  V30 4263 H 387.815 -2.01302 0.365881 0
M  V30 4264 H 387.825 -3.90351 -1.18702 0
M  V30 4265 H 386.5 -4.15852 -0.0632361 0
M  V30 4266 H 385.077 -3.32262 -1.69282 0
M  V30 4267 N 387.262 0.0317525 -1.57568 0
M  V30 4268 C 388.49 0.734949 -1.93407 0
M  V30 4269 C 388.905 1.69036 -0.84096 0
M  V30 4270 O 388.262 1.81582 0.182836 0
M  V30 4271 C 388.313 1.49432 -3.29169 0
M  V30 4272 O 388.034 0.577261 -4.3428 0
M  V30 4273 C 389.535 2.29492 -3.79273 0
M  V30 4274 H 386.755 0.206706 -0.638368 0
M  V30 4275 H 389.299 -0.00992046 -2.04498 0
M  V30 4276 H 387.454 2.1911 -3.19483 0
M  V30 4277 H 387.868 1.10952 -5.1263 0
M  V30 4278 H 389.342 2.78172 -4.76785 0
M  V30 4279 H 389.819 3.10794 -3.10328 0
M  V30 4280 H 390.425 1.64894 -3.92033 0
M  V30 4281 N 388.74 1.54641 0.303973 0
M  V30 4282 C 389.69 1.8177 1.37636 0
M  V30 4283 C 390.674 0.674697 1.46071 0
M  V30 4284 O 391.866 0.935251 1.50273 0
M  V30 4285 C 388.995 2.06584 2.74186 0
M  V30 4286 C 388.081 3.2706 2.69986 0
M  V30 4287 N 388.472 4.47682 2.35402 0
M  V30 4288 C 386.77 3.29028 3.01092 0
M  V30 4289 C 387.471 5.29689 2.40426 0
M  V30 4290 N 386.447 4.67339 2.7766 0
M  V30 4291 H 390.249 2.72596 1.09857 0
M  V30 4292 H 387.763 1.541 0.51254 0
M  V30 4293 H 389.76 2.24166 3.51504 0
M  V30 4294 H 388.42 1.17024 3.02879 0
M  V30 4295 H 389.431 4.74336 2.07908 0
M  V30 4296 H 386.108 2.49565 3.34699 0
M  V30 4297 H 387.498 6.3606 2.16512 0
M  V30 4298 N 390.218 -0.567019 1.47046 0
M  V30 4299 C 391.495 -1.3276 1.43646 0
M  V30 4300 C 391.875 -2.1071 0.128186 0
M  V30 4301 O 391.223 -2.10441 -0.890326 0
M  V30 4302 C 391.433 -2.2404 2.67595 0
M  V30 4303 C 392.781 -2.85372 3.14401 0
M  V30 4304 O 393.805 -2.34346 2.68254 0
M  V30 4305 O 392.664 -3.78091 3.946 0
M  V30 4306 H 389.758 -0.597293 0.571988 0
M  V30 4307 H 392.304 -0.586735 1.59234 0
M  V30 4308 H 391.076 -1.65975 3.54356 0
M  V30 4309 H 390.699 -3.05439 2.54544 0
M  V30 4310 N 391.696 -1.35014 -0.812953 0
M  V30 4311 C 392.626 -1.30069 -1.93919 0
M  V30 4312 C 393.607 -0.176275 -1.69184 0
M  V30 4313 O 394.792 -0.370227 -1.90638 0
M  V30 4314 C 391.922 -1.06547 -3.30552 0
M  V30 4315 C 390.876 -2.15561 -3.69753 0
M  V30 4316 C 390.202 -1.77214 -5.04479 0
M  V30 4317 C 391.502 -3.57476 -3.808 0
M  V30 4318 H 393.196 -2.24303 -1.98314 0
M  V30 4319 H 390.742 -1.07977 -0.952736 0
M  V30 4320 H 392.695 -1.01729 -4.08937 0
M  V30 4321 H 391.419 -0.0875719 -3.26483 0
M  V30 4322 H 390.078 -2.19466 -2.9365 0
M  V30 4323 H 389.726 -0.780589 -4.96906 0
M  V30 4324 H 389.426 -2.50184 -5.31678 0
M  V30 4325 H 390.95 -1.7391 -5.8531 0
M  V30 4326 H 392.364 -3.55929 -4.4943 0
M  V30 4327 H 390.761 -4.29152 -4.19462 0
M  V30 4328 H 391.831 -3.94091 -2.82525 0
M  V30 4329 N 393.175 1.03435 -1.18907 0
M  V30 4330 C 394.122 2.11591 -0.921837 0
M  V30 4331 C 395.092 1.65499 0.141226 0
M  V30 4332 O 396.277 1.908 0.000242829 0
M  V30 4333 C 393.417 3.42012 -0.460616 0
M  V30 4334 C 392.53 4.01682 -1.58982 0
M  V30 4335 C 391.665 5.20091 -1.08069 0
M  V30 4336 C 390.704 5.71805 -2.18416 0
M  V30 4337 N 389.841 6.81494 -1.68849 0
M  V30 4338 H 394.681 2.33787 -1.8479 0
M  V30 4339 H 392.218 1.1467 -0.921373 0
M  V30 4340 H 394.176 4.16834 -0.174642 0
M  V30 4341 H 392.806 3.19944 0.428467 0
M  V30 4342 H 391.858 3.24127 -1.99113 0
M  V30 4343 H 393.17 4.36084 -2.4214 0
M  V30 4344 H 392.324 6.02051 -0.749615 0
M  V30 4345 H 391.063 4.87209 -0.218771 0
M  V30 4346 H 390.068 4.88461 -2.5236 0
M  V30 4347 H 391.293 6.06728 -3.05054 0
M  V30 4348 H 389.239 6.50475 -0.849572 0
M  V30 4349 H 389.156 7.14994 -2.45601 0
M  V30 4350 H 390.424 7.67063 -1.38689 0
M  V30 4351 N 394.653 0.992116 1.22453 0
M  V30 4352 C 395.899 0.668523 1.91464 0
M  V30 4353 C 396.232 -0.797313 1.77078 0
M  V30 4354 O 395.507 -1.5765 1.13916 0
M  V30 4355 C 395.79 1.07424 3.43703 0
M  V30 4356 C 395.643 2.59857 3.67143 0
M  V30 4357 C 396.962 0.626891 4.35612 0
M  V30 4358 H 394.081 0.244341 0.695318 0
M  V30 4359 H 396.723 1.2355 1.44345 0
M  V30 4360 H 394.873 0.591816 3.83966 0
M  V30 4361 H 396.545 3.15764 3.3629 0
M  V30 4362 H 394.788 3.01961 3.11451 0
M  V30 4363 H 395.459 2.83296 4.73759 0
M  V30 4364 H 397.935 1.04125 4.02861 0
M  V30 4365 H 396.811 0.939076 5.40807 0
M  V30 4366 H 397.072 -0.472457 4.39568 0
M  V30 4367 N 396.131 -1.37776 0.765217 0
M  V30 4368 C 397.078 -2.30342 0.145274 0
M  V30 4369 C 398.048 -1.5077 -0.696971 0
M  V30 4370 O 399.233 -1.79362 -0.650689 0
M  V30 4371 C 396.373 -3.37227 -0.732939 0
M  V30 4372 C 395.486 -4.31819 0.125199 0
M  V30 4373 C 394.621 -5.25777 -0.757107 0
M  V30 4374 C 393.66 -6.12012 0.103963 0
M  V30 4375 N 392.797 -6.98232 -0.735953 0
M  V30 4376 H 397.637 -2.8278 0.940195 0
M  V30 4377 H 395.174 -1.39211 0.475255 0
M  V30 4378 H 397.132 -3.97818 -1.25686 0
M  V30 4379 H 395.762 -2.86171 -1.49353 0
M  V30 4380 H 394.814 -3.7259 0.766865 0
M  V30 4381 H 396.126 -4.92509 0.789683 0
M  V30 4382 H 395.28 -5.91541 -1.34776 0
M  V30 4383 H 394.019 -4.65481 -1.45529 0
M  V30 4384 H 393.024 -5.45233 0.707197 0
M  V30 4385 H 394.249 -6.74379 0.799381 0
M  V30 4386 H 392.195 -6.40472 -1.41887 0
M  V30 4387 H 392.112 -7.55891 -0.128624 0
M  V30 4388 H 393.38 -7.68393 -1.31121 0
M  V30 4389 N 397.609 -0.515225 -1.4894 0
M  V30 4390 C 398.839 0.0205735 -2.0659 0
M  V30 4391 C 399.247 1.30064 -1.37405 0
M  V30 4392 O 398.59 1.78087 -0.450632 0
M  V30 4393 C 398.652 0.330124 -3.57981 0
M  V30 4394 C 398.316 -0.854295 -4.48944 0
M  V30 4395 C 399.313 -1.7487 -4.89609 0
M  V30 4396 C 396.998 -1.05712 -4.9105 0
M  V30 4397 C 398.992 -2.82996 -5.71132 0
M  V30 4398 C 396.679 -2.14154 -5.72347 0
M  V30 4399 C 397.677 -3.0263 -6.12294 0
M  V30 4400 O 397.365 -4.09198 -6.91962 0
M  V30 4401 H 397.097 -0.0236833 -0.675585 0
M  V30 4402 H 399.651 -0.715956 -1.92518 0
M  V30 4403 H 397.881 1.12044 -3.70112 0
M  V30 4404 H 399.57 0.806233 -3.97812 0
M  V30 4405 H 400.336 -1.60388 -4.57712 0
M  V30 4406 H 396.215 -0.377788 -4.59449 0
M  V30 4407 H 399.759 -3.52083 -6.02232 0
M  V30 4408 H 395.656 -2.28626 -6.03656 0
M  V30 4409 H 396.424 -4.06726 -7.10293 0
M  V30 4410 N 399.087 1.5561 -0.249682 0
M  V30 4411 C 400.017 2.24477 0.642826 0
M  V30 4412 C 400.998 1.22601 1.17911 0
M  V30 4413 O 402.183 1.5126 1.21795 0
M  V30 4414 C 399.313 2.94638 1.83863 0
M  V30 4415 C 398.267 4.03227 1.435 0
M  V30 4416 C 397.593 4.60828 2.71186 0
M  V30 4417 C 398.893 5.18796 0.604002 0
M  V30 4418 H 400.587 2.99321 0.0685625 0
M  V30 4419 H 398.133 1.43965 0.0315363 0
M  V30 4420 H 400.086 3.41517 2.46868 0
M  V30 4421 H 398.81 2.17287 2.43832 0
M  V30 4422 H 397.469 3.57121 0.828275 0
M  V30 4423 H 397.117 3.80174 3.29358 0
M  V30 4424 H 396.817 5.34132 2.44901 0
M  V30 4425 H 398.341 5.10442 3.35084 0
M  V30 4426 H 399.755 5.61883 1.13842 0
M  V30 4427 H 398.152 5.98506 0.437097 0
M  V30 4428 H 399.222 4.83384 -0.383147 0
M  V30 4429 N 400.565 -0.0233959 1.57583 0
M  V30 4430 C 401.528 -1.00693 2.05897 0
M  V30 4431 C 402.528 -1.28693 0.964092 0
M  V30 4432 O 403.718 -1.23602 1.22753 0
M  V30 4433 C 400.85 -2.33825 2.4807 0
M  V30 4434 H 402.043 -0.589476 2.9405 0
M  V30 4435 H 399.596 -0.270354 1.53944 0
M  V30 4436 H 400.331 -2.80307 1.6309 0
M  V30 4437 H 400.116 -2.1483 3.2801 0
M  V30 4438 H 401.606 -3.04426 2.85857 0
M  V30 4439 N 402.043 -1.548 -0.295768 0
M  V30 4440 C 403.271 -1.78327 -1.04914 0
M  V30 4441 C 403.686 -0.545316 -1.80753 0
M  V30 4442 O 403.043 0.485013 -1.75937 0
M  V30 4443 C 403.094 -2.99418 -2.02561 0
M  V30 4444 O 402.815 -4.18431 -1.29798 0
M  V30 4445 C 404.316 -3.35375 -2.89895 0
M  V30 4446 H 401.536 -0.594618 -0.310918 0
M  V30 4447 H 404.08 -2.01763 -0.333454 0
M  V30 4448 H 402.235 -2.78175 -2.69624 0
M  V30 4449 H 402.649 -4.86736 -1.95419 0
M  V30 4450 H 404.123 -4.23332 -3.54251 0
M  V30 4451 H 404.6 -2.53761 -3.58472 0
M  V30 4452 H 405.206 -3.58796 -2.28355 0
M  V30 4453 N 403.521 0.559213 -1.47345 0
M  V30 4454 C 404.451 1.67622 -1.62558 0
M  V30 4455 C 405.432 1.63331 -0.475087 0
M  V30 4456 O 406.617 1.80983 -0.704182 0
M  V30 4457 C 403.747 3.0626 -1.63774 0
M  V30 4458 C 402.701 3.25397 -2.7803 0
M  V30 4459 C 402.027 4.64801 -2.64318 0
M  V30 4460 C 403.327 3.10965 -4.19641 0
M  V30 4461 H 405.021 1.55146 -2.56067 0
M  V30 4462 H 402.567 0.744961 -1.23233 0
M  V30 4463 H 404.52 3.84247 -1.73008 0
M  V30 4464 H 403.244 3.1969 -0.66825 0
M  V30 4465 H 401.903 2.49817 -2.68304 0
M  V30 4466 H 401.551 4.75028 -1.65401 0
M  V30 4467 H 401.251 4.78555 -3.40968 0
M  V30 4468 H 402.775 5.44926 -2.75478 0
M  V30 4469 H 404.189 3.78772 -4.30354 0
M  V30 4470 H 402.586 3.36229 -4.97062 0
M  V30 4471 H 403.656 2.07736 -4.38148 0
M  V30 4472 N 404.999 1.35443 0.805782 0
M  V30 4473 C 405.909 1.30546 1.94923 0
M  V30 4474 C 406.925 0.210233 1.72725 0
M  V30 4475 O 408.101 0.43975 1.9654 0
M  V30 4476 C 405.166 1.07782 3.29521 0
M  V30 4477 C 404.227 2.26625 3.64609 0
M  V30 4478 C 403.46 2.04938 4.92784 0
M  V30 4479 O 403.683 1.01624 5.61274 0
M  V30 4480 O 402.617 2.9232 5.26149 0
M  V30 4481 H 406.443 2.26779 2.02002 0
M  V30 4482 H 404.028 1.15823 0.943682 0
M  V30 4483 H 405.91 0.969392 4.10098 0
M  V30 4484 H 404.585 0.146003 3.23371 0
M  V30 4485 H 403.492 2.43033 2.84404 0
M  V30 4486 H 404.825 3.18257 3.75464 0
M  V30 4487 N 406.477 -1.02803 1.19454 0
M  V30 4488 C 407.705 -1.79841 1.02297 0
M  V30 4489 C 408.12 -1.83879 -0.428259 0
M  V30 4490 O 407.477 -1.28345 -1.29745 0
M  V30 4491 C 407.528 -3.24852 1.58598 0
M  V30 4492 O 407.249 -3.21097 2.98041 0
M  V30 4493 C 408.75 -4.18485 1.46236 0
M  V30 4494 H 405.97 -0.565936 0.360496 0
M  V30 4495 H 408.514 -1.2948 1.58288 0
M  V30 4496 H 406.669 -3.72401 1.06753 0
M  V30 4497 H 407.083 -4.12033 3.24545 0
M  V30 4498 H 408.557 -5.18121 1.90407 0
M  V30 4499 H 409.034 -4.37254 0.41301 0
M  V30 4500 H 409.64 -3.76811 1.97215 0
M  V30 4501 N 407.956 -0.998596 -1.21925 0
M  V30 4502 C 408.886 -0.573688 -2.26343 0
M  V30 4503 C 409.867 0.402296 -1.65274 0
M  V30 4504 O 411.052 0.291683 -1.91997 0
M  V30 4505 C 408.182 0.106839 -3.47136 0
M  V30 4506 C 407.136 -0.788269 -4.20678 0
M  V30 4507 C 406.462 0.0254927 -5.34694 0
M  V30 4508 C 407.762 -2.08784 -4.78755 0
M  V30 4509 H 409.456 -1.44651 -2.62138 0
M  V30 4510 H 407.002 -0.696975 -1.26009 0
M  V30 4511 H 408.955 0.415531 -4.19346 0
M  V30 4512 H 407.679 1.01424 -3.10452 0
M  V30 4513 H 406.338 -1.08069 -3.50309 0
M  V30 4514 H 405.986 0.933989 -4.94253 0
M  V30 4515 H 405.686 -0.570437 -5.84825 0
M  V30 4516 H 407.21 0.328147 -6.09718 0
M  V30 4517 H 408.624 -1.84272 -5.42878 0
M  V30 4518 H 407.021 -2.63307 -5.39249 0
M  V30 4519 H 408.091 -2.76284 -3.98491 0
M  V30 4520 N 409.434 1.37368 -0.772513 0
M  V30 4521 C 410.662 2.03942 -0.348588 0
M  V30 4522 C 411.077 1.58264 1.02947 0
M  V30 4523 O 410.434 0.764246 1.65727 0
M  V30 4524 C 410.485 3.5946 -0.38351 0
M  V30 4525 O 410.206 4.03468 -1.70721 0
M  V30 4526 C 411.707 4.4327 0.0519152 0
M  V30 4527 H 408.927 0.654931 -0.145966 0
M  V30 4528 H 411.471 1.75686 -1.04665 0
M  V30 4529 H 409.626 3.86486 0.265978 0
M  V30 4530 H 410.04 4.97991 -1.64636 0
M  V30 4531 H 411.514 5.51995 -0.0236733 0
M  V30 4532 H 411.991 4.2514 1.10238 0
M  V30 4533 H 412.597 4.21471 -0.569415 0
M  V30 4534 N 410.912 0.523116 1.48665 0
M  V30 4535 C 411.859 -0.243398 2.29513 0
M  V30 4536 C 412.829 -0.940139 1.36933 0
M  V30 4537 O 414.014 -0.942503 1.65896 0
M  V30 4538 C 411.154 -1.28855 3.20141 0
M  V30 4539 C 410.267 -0.60135 4.27794 0
M  V30 4540 C 409.402 -1.62884 5.05611 0
M  V30 4541 C 408.441 -0.924726 6.05075 0
M  V30 4542 N 407.578 -1.89744 6.75975 0
M  V30 4543 H 412.418 0.452234 2.94549 0
M  V30 4544 H 409.955 0.234858 1.45213 0
M  V30 4545 H 411.913 -1.90674 3.71079 0
M  V30 4546 H 410.543 -1.95266 2.57043 0
M  V30 4547 H 409.595 0.130623 3.80176 0
M  V30 4548 H 410.907 -0.0481585 4.98777 0
M  V30 4549 H 410.061 -2.32149 5.60528 0
M  V30 4550 H 408.8 -2.21592 4.34452 0
M  V30 4551 H 407.805 -0.217966 5.49368 0
M  V30 4552 H 409.03 -0.343851 6.78229 0
M  V30 4553 H 406.976 -2.47373 6.07571 0
M  V30 4554 H 406.893 -1.3955 7.43009 0
M  V30 4555 H 408.161 -2.58229 7.35485 0
M  V30 4556 N 412.39 -1.55475 0.257931 0
M  V30 4557 C 413.34 -2.18506 -0.651094 0
M  V30 4558 C 414.324 -1.14431 -1.13112 0
M  V30 4559 O 415.516 -1.40305 -1.07905 0
M  V30 4560 C 412.645 -2.89653 -1.84272 0
M  V30 4561 C 411.731 -4.00996 -1.38068 0
M  V30 4562 N 412.122 -5.01816 -0.633609 0
M  V30 4563 C 410.42 -4.13753 -1.66506 0
M  V30 4564 C 411.121 -5.80371 -0.392922 0
M  V30 4565 N 410.097 -5.3505 -0.960359 0
M  V30 4566 H 413.899 -2.93811 -0.0722883 0
M  V30 4567 H 411.413 -1.62286 0.0607256 0
M  V30 4568 H 413.41 -3.33245 -2.50506 0
M  V30 4569 H 412.07 -2.15854 -2.42564 0
M  V30 4570 H 413.081 -5.17128 -0.282626 0
M  V30 4571 H 409.758 -3.51133 -2.25858 0
M  V30 4572 H 411.148 -6.7159 0.204235 0
M  V30 4573 N 413.868 0.0150385 -1.57593 0
M  V30 4574 C 415.098 0.713359 -1.93894 0
M  V30 4575 C 415.506 1.68663 -0.857289 0
M  V30 4576 O 414.849 1.82876 0.173788 0
M  V30 4577 C 414.911 1.51348 -3.26089 0
M  V30 4578 C 414.575 0.703451 -4.51554 0
M  V30 4579 C 415.572 -0.00237924 -5.199 0
M  V30 4580 C 413.257 0.653854 -4.98026 0
M  V30 4581 C 415.251 -0.746955 -6.33008 0
M  V30 4582 C 412.938 -0.0944578 -6.11027 0
M  V30 4583 C 413.936 -0.793609 -6.78374 0
M  V30 4584 O 413.624 -1.52974 -7.89211 0
M  V30 4585 H 413.356 0.204637 -0.644282 0
M  V30 4586 H 415.91 -0.0276411 -2.05381 0
M  V30 4587 H 414.14 2.29862 -3.10967 0
M  V30 4588 H 415.829 2.09572 -3.47612 0
M  V30 4589 H 416.595 0.0268803 -4.84993 0
M  V30 4590 H 412.474 1.18756 -4.45441 0
M  V30 4591 H 416.018 -1.2932 -6.85509 0
M  V30 4592 H 411.915 -0.125591 -6.45378 0
M  V30 4593 H 412.683 -1.44488 -8.05646 0
M  V30 4594 N 415.346 1.54954 0.287554 0
M  V30 4595 C 416.594 1.74528 1.01904 0
M  V30 4596 C 416.915 0.541349 1.87335 0
M  V30 4597 O 416.185 -0.444108 1.908 0
M  V30 4598 H 414.765 0.643576 0.379235 0
M  V30 4599 H 417.427 1.92333 0.315294 0
M  V30 4600 H 416.523 2.64015 1.6644 0
M  V30 4601 N 416.824 -0.551391 1.4764 0
M  V30 4602 C 417.787 -1.64007 1.60107 0
M  V30 4603 C 418.787 -1.53601 0.47576 0
M  V30 4604 O 419.977 -1.57655 0.740988 0
M  V30 4605 C 417.109 -3.03569 1.55108 0
M  V30 4606 H 418.302 -1.543 2.57161 0
M  V30 4607 H 415.855 -0.771776 1.35917 0
M  V30 4608 H 416.59 -3.18804 0.594519 0
M  V30 4609 H 416.375 -3.12532 2.36783 0
M  V30 4610 H 417.865 -3.82762 1.66982 0
M  V30 4611 N 418.302 -1.35869 -0.798587 0
M  V30 4612 C 419.212 -1.31578 -1.94228 0
M  V30 4613 C 420.228 -0.21939 -1.72611 0
M  V30 4614 O 421.404 -0.450167 -1.96305 0
M  V30 4615 C 418.469 -1.09528 -3.28944 0
M  V30 4616 C 417.53 -2.28556 -3.63402 0
M  V30 4617 C 416.763 -2.07549 -4.9169 0
M  V30 4618 O 416.986 -1.046 -5.60727 0
M  V30 4619 O 415.92 -2.95106 -5.24591 0
M  V30 4620 H 419.746 -2.27847 -2.00796 0
M  V30 4621 H 417.331 -1.16322 -0.937526 0
M  V30 4622 H 419.213 -0.991127 -4.09579 0
M  V30 4623 H 417.888 -0.16315 -3.23289 0
M  V30 4624 H 416.795 -2.44538 -2.83112 0
M  V30 4625 H 418.128 -3.20244 -3.73771 0
M  V30 4626 N 419.78 1.02168 -1.19998 0
M  V30 4627 C 421.029 1.75091 -1.0013 0
M  V30 4628 C 421.342 1.89923 0.467835 0
M  V30 4629 O 422.548 2.59888 0.785515 0
M  V30 4630 C 421.004 3.14892 -1.74273 0
M  V30 4631 C 420.612 3.0809 -3.25245 0
M  V30 4632 C 422.356 3.9206 -1.62755 0
M  V30 4633 C 420.263 4.42867 -3.91948 0
M  V30 4634 H 419.193 0.656394 -0.37103 0
M  V30 4635 H 421.844 1.14284 -1.43567 0
M  V30 4636 H 420.226 3.7621 -1.2362 0
M  V30 4637 H 421.4 2.5611 -3.83072 0
M  V30 4638 H 419.715 2.44416 -3.3712 0
M  V30 4639 H 422.312 4.91764 -2.09934 0
M  V30 4640 H 422.655 4.12199 -0.582894 0
M  V30 4641 H 423.188 3.37359 -2.10793 0
M  V30 4642 H 419.927 4.27931 -4.96543 0
M  V30 4643 H 419.447 4.94874 -3.3891 0
M  V30 4644 H 421.126 5.11728 -3.95909 0
M  V30 4645 N 421.258 1.00505 1.21394 0
M  V30 4646 C 422.505 0.687774 1.90462 0
M  V30 4647 C 422.833 -0.78147 1.7811 0
M  V30 4648 O 422.088 -1.58208 1.1519 0
M  V30 4649 C 422.387 1.0546 3.41486 0
M  V30 4650 C 422.053 2.51812 3.74034 0
M  V30 4651 C 420.715 2.91804 3.82628 0
M  V30 4652 C 423.067 3.46614 3.8924 0
M  V30 4653 C 420.395 4.2556 4.03876 0
M  V30 4654 C 422.747 4.80044 4.11995 0
M  V30 4655 C 421.411 5.19759 4.18816 0
M  V30 4656 H 420.681 0.251674 0.696951 0
M  V30 4657 H 423.328 1.26349 1.43903 0
M  V30 4658 H 421.633 0.397133 3.89782 0
M  V30 4659 H 423.33 0.786976 3.93202 0
M  V30 4660 H 419.92 2.1982 3.67936 0
M  V30 4661 H 424.104 3.16883 3.81967 0
M  V30 4662 H 419.36 4.55901 4.07387 0
M  V30 4663 H 423.534 5.53439 4.22704 0
M  V30 4664 H 421.161 6.23418 4.35033 0
M  V30 4665 N 422.737 -1.36956 0.779787 0
M  V30 4666 C 423.647 -2.33965 0.172491 0
M  V30 4667 C 424.663 -1.60574 -0.670222 0
M  V30 4668 O 425.839 -1.92617 -0.588263 0
M  V30 4669 C 422.904 -3.39761 -0.690173 0
M  V30 4670 C 421.965 -4.28964 0.169924 0
M  V30 4671 C 421.198 -5.29707 -0.651662 0
M  V30 4672 O 421.421 -5.38238 -1.88827 0
M  V30 4673 O 420.355 -6.01873 -0.0566264 0
M  V30 4674 H 424.181 -2.87647 0.974321 0
M  V30 4675 H 421.766 -1.39258 0.541078 0
M  V30 4676 H 423.648 -4.04471 -1.1824 0
M  V30 4677 H 422.323 -2.88394 -1.47006 0
M  V30 4678 H 421.23 -3.67326 0.708696 0
M  V30 4679 H 422.563 -4.83656 0.913085 0
M  V30 4680 N 424.215 -0.530993 -1.48385 0
M  V30 4681 C 425.443 -0.00134122 -2.069 0
M  V30 4682 C 425.858 1.2805 -1.3874 0
M  V30 4683 O 425.215 1.76204 -0.475244 0
M  V30 4684 C 425.266 0.225256 -3.60798 0
M  V30 4685 O 424.987 -1.0058 -4.26398 0
M  V30 4686 C 426.488 0.795172 -4.3611 0
M  V30 4687 H 423.708 -0.0339704 -0.67014 0
M  V30 4688 H 426.252 -0.736926 -1.90761 0
M  V30 4689 H 424.407 0.910891 -3.76539 0
M  V30 4690 H 424.821 -0.787165 -5.1856 0
M  V30 4691 H 426.295 0.903143 -5.44562 0
M  V30 4692 H 426.772 1.80031 -4.00606 0
M  V30 4693 H 427.378 0.146069 -4.25049 0
M  V30 4694 N 425.693 1.55336 -0.266172 0
M  V30 4695 C 426.918 2.04258 0.359661 0
M  V30 4696 C 427.343 1.14359 1.49344 0
M  V30 4697 O 426.701 0.140369 1.80756 0
M  V30 4698 C 426.749 3.50997 0.826635 0
M  V30 4699 O 425.853 3.64204 1.93466 0
M  V30 4700 H 425.194 0.659668 0.075727 0
M  V30 4701 H 427.724 2.00694 -0.39786 0
M  V30 4702 H 427.734 3.9219 1.12477 0
M  V30 4703 H 426.409 4.159 -0.00293032 0
M  V30 4704 H 424.986 3.34913 1.63974 0
M  V30 4705 N 427.171 -0.0066808 1.57599 0
M  V30 4706 C 428.104 -1.03397 2.03431 0
M  V30 4707 C 429.082 -1.33872 0.922877 0
M  V30 4708 O 430.266 -1.4615 1.19048 0
M  V30 4709 C 427.393 -2.36325 2.42628 0
M  V30 4710 C 426.439 -2.21557 3.64438 0
M  V30 4711 S 427.272 -1.54789 5.12641 0
M  V30 4712 C 428.428 -2.8916 5.55101 0
M  V30 4713 H 428.661 -0.643687 2.90248 0
M  V30 4714 H 426.194 -0.217349 1.52863 0
M  V30 4715 H 428.152 -3.12759 2.65879 0
M  V30 4716 H 426.813 -2.72495 1.56222 0
M  V30 4717 H 426.006 -3.1974 3.89592 0
M  V30 4718 H 425.608 -1.53267 3.41153 0
M  V30 4719 H 427.9 -3.8547 5.57153 0
M  V30 4720 H 428.843 -2.68713 6.55133 0
M  V30 4721 H 429.251 -2.92762 4.82649 0
M  V30 4722 N 428.649 -1.55105 -0.279332 0
M  V30 4723 C 429.579 -1.90557 -1.34945 0
M  V30 4724 C 430.56 -0.766738 -1.51839 0
M  V30 4725 O 431.745 -1.02434 -1.64988 0
M  V30 4726 C 428.875 -2.17193 -2.71006 0
M  V30 4727 C 427.829 -3.33021 -2.68851 0
M  V30 4728 C 427.155 -3.45123 -4.08405 0
M  V30 4729 C 428.455 -4.69578 -2.28678 0
M  V30 4730 H 430.149 -2.80188 -1.05522 0
M  V30 4731 H 427.695 -1.34811 -0.506173 0
M  V30 4732 H 429.648 -2.40581 -3.45975 0
M  V30 4733 H 428.372 -1.24355 -3.01999 0
M  V30 4734 H 427.031 -3.0959 -1.9634 0
M  V30 4735 H 426.679 -2.49762 -4.3661 0
M  V30 4736 H 426.379 -4.22995 -4.07859 0
M  V30 4737 H 427.903 -3.70796 -4.85121 0
M  V30 4738 H 429.317 -4.92553 -2.93368 0
M  V30 4739 H 427.714 -5.5032 -2.39306 0
M  V30 4740 H 428.784 -4.68828 -1.23807 0
M  V30 4741 N 430.127 0.543554 -1.4793 0
M  V30 4742 C 431.057 1.65888 -1.64327 0
M  V30 4743 C 432.038 1.62818 -0.492383 0
M  V30 4744 O 433.223 1.80226 -0.723338 0
M  V30 4745 C 430.353 3.04506 -1.67013 0
M  V30 4746 C 429.307 3.2243 -2.81466 0
M  V30 4747 C 428.633 4.61972 -2.69233 0
M  V30 4748 C 429.933 3.06496 -4.22915 0
M  V30 4749 H 431.627 1.52421 -2.57698 0
M  V30 4750 H 429.173 0.731849 -1.24016 0
M  V30 4751 H 431.126 3.82391 -1.77074 0
M  V30 4752 H 429.85 3.18964 -0.70212 0
M  V30 4753 H 428.509 2.46957 -2.70938 0
M  V30 4754 H 428.157 4.73247 -1.7043 0
M  V30 4755 H 427.857 4.74911 -3.46025 0
M  V30 4756 H 429.381 5.41974 -2.81242 0
M  V30 4757 H 430.795 3.74186 -4.34348 0
M  V30 4758 H 429.192 3.30938 -5.006 0
M  V30 4759 H 430.262 2.03077 -4.40327 0
M  V30 4760 N 431.605 1.3629 0.791371 0
M  V30 4761 C 432.854 1.29742 1.54434 0
M  V30 4762 C 433.167 -0.121729 1.95221 0
M  V30 4763 O 434.373 -0.309579 2.69729 0
M  V30 4764 C 432.829 2.27623 2.78776 0
M  V30 4765 C 432.437 3.74963 2.45166 0
M  V30 4766 C 434.181 2.30047 3.56761 0
M  V30 4767 C 432.088 4.64626 3.65891 0
M  V30 4768 H 431.018 0.482113 0.579727 0
M  V30 4769 H 433.669 1.61642 0.868565 0
M  V30 4770 H 432.051 1.88714 3.48142 0
M  V30 4771 H 433.225 4.22596 1.83709 0
M  V30 4772 H 431.54 3.75295 1.80396 0
M  V30 4773 H 434.137 2.94247 4.46456 0
M  V30 4774 H 434.48 1.30846 3.95203 0
M  V30 4775 H 435.013 2.67563 2.94372 0
M  V30 4776 H 431.752 5.64883 3.32547 0
M  V30 4777 H 431.272 4.2171 4.26521 0
M  V30 4778 H 432.951 4.80801 4.32943 0
M  V30 4779 N 433.083 -1.0153 1.20538 0
M  V30 4780 C 434.308 -1.79283 1.04271 0
M  V30 4781 C 434.733 -1.8372 -0.403544 0
M  V30 4782 O 434.091 -1.27321 -1.2907 0
M  V30 4783 C 434.139 -3.21535 1.63241 0
M  V30 4784 O 433.243 -4.03099 0.870908 0
M  V30 4785 H 432.584 -0.55293 0.367647 0
M  V30 4786 H 435.114 -1.27696 1.59859 0
M  V30 4787 H 435.124 -3.72243 1.6703 0
M  V30 4788 H 433.799 -3.1762 2.68497 0
M  V30 4789 H 432.376 -3.61693 0.907323 0
M  V30 4790 N 434.561 -1.01147 -1.20859 0
M  V30 4791 C 435.786 -0.716698 -1.94623 0
M  V30 4792 C 436.211 0.715415 -1.73964 0
M  V30 4793 O 435.569 1.49157 -1.03062 0
M  V30 4794 C 435.617 -1.0513 -3.44935 0
M  V30 4795 O 434.721 -0.160131 -4.12089 0
M  V30 4796 H 434.062 -0.266404 -0.608214 0
M  V30 4797 H 436.592 -1.35346 -1.53436 0
M  V30 4798 H 436.602 -1.00086 -3.95533 0
M  V30 4799 H 435.277 -2.09475 -3.59295 0
M  V30 4800 H 433.854 -0.267657 -3.71938 0
M  V30 4801 N 436.039 1.36541 -0.78704 0
M  V30 4802 C 436.949 2.3387 -0.184896 0
M  V30 4803 C 437.965 1.60927 0.661697 0
M  V30 4804 O 439.141 1.92927 0.57804 0
M  V30 4805 C 436.206 3.40122 0.672145 0
M  V30 4806 C 435.267 4.28867 -0.19267 0
M  V30 4807 C 434.5 5.30045 0.623561 0
M  V30 4808 O 434.723 5.39232 1.8597 0
M  V30 4809 O 433.657 6.01895 0.0247068 0
M  V30 4810 H 437.483 2.87126 -0.989562 0
M  V30 4811 H 435.068 1.38969 -0.548455 0
M  V30 4812 H 436.95 4.05093 1.16094 0
M  V30 4813 H 435.625 2.89169 1.45474 0
M  V30 4814 H 434.532 3.66945 -0.728166 0
M  V30 4815 H 435.865 4.83165 -0.938722 0
M  V30 4816 N 437.518 0.538854 1.48102 0
M  V30 4817 C 438.466 -0.232325 2.31437 0
M  V30 4818 C 439.46 -0.927004 1.41785 0
M  V30 4819 O 440.666 -0.850378 1.58646 0
M  V30 4820 H 437.041 -0.0937916 0.746128 0
M  V30 4821 H 439.012 0.489986 2.9435 0
M  V30 4822 C 437.761 -1.26074 3.24038 0
M  V30 4823 H 437.084 -0.735609 3.92974 0
M  V30 4824 H 438.524 -1.77157 3.85216 0
M  V30 4825 C 436.983 -2.29902 2.46265 0
M  V30 4826 O 437.513 -3.36502 2.19384 0
M  V30 4827 N 435.719 -2.03348 2.07601 0
M  V30 4828 H 435.266 -1.16675 2.29662 0
M  V30 4829 H 435.224 -2.73038 1.55877 0
M  V30 4830 N 438.996 -1.55193 0.274407 0
M  V30 4831 C 439.906 -2.26164 -0.623473 0
M  V30 4832 C 440.922 -1.28729 -1.17068 0
M  V30 4833 O 442.098 -1.61663 -1.20112 0
M  V30 4834 C 439.163 -2.96833 -1.7914 0
M  V30 4835 C 438.224 -4.09745 -1.28093 0
M  V30 4836 C 437.457 -4.77034 -2.3932 0
M  V30 4837 O 437.68 -4.4353 -3.5866 0
M  V30 4838 O 436.614 -5.64996 -2.07516 0
M  V30 4839 H 440.44 -3.03661 -0.0485661 0
M  V30 4840 H 438.025 -1.49341 0.0418382 0
M  V30 4841 H 439.907 -3.41248 -2.4724 0
M  V30 4842 H 438.582 -2.22253 -2.35341 0
M  V30 4843 H 437.489 -3.69787 -0.566416 0
M  V30 4844 H 438.822 -4.86224 -0.764683 0
M  V30 4845 N 440.474 -0.00167713 -1.576 0
M  V30 4846 C 441.407 1.02317 -2.03977 0
M  V30 4847 C 442.385 1.33381 -0.929963 0
M  V30 4848 O 443.569 1.45517 -1.19822 0
M  V30 4849 C 440.696 2.35035 -2.43878 0
M  V30 4850 C 439.742 2.19621 -3.65607 0
M  V30 4851 S 440.575 1.52068 -5.13455 0
M  V30 4852 C 441.731 2.86212 -5.56627 0
M  V30 4853 H 441.964 0.628285 -2.90585 0
M  V30 4854 H 439.497 0.209239 -1.52976 0
M  V30 4855 H 441.455 3.11345 -2.67534 0
M  V30 4856 H 440.116 2.71663 -1.57665 0
M  V30 4857 H 439.309 3.1767 -3.91282 0
M  V30 4858 H 438.911 1.51455 -3.41961 0
M  V30 4859 H 441.203 3.82509 -5.59189 0
M  V30 4860 H 442.146 2.65235 -6.56549 0
M  V30 4861 H 442.554 2.90199 -4.84195 0
M  V30 4862 N 441.952 1.55251 0.271103 0
M  V30 4863 C 442.9 1.89054 1.35504 0
M  V30 4864 C 443.894 0.767064 1.51038 0
M  V30 4865 O 445.1 0.951429 1.528 0
M  V30 4866 H 441.475 0.600072 0.45323 0
M  V30 4867 H 443.446 2.79598 1.04247 0
M  V30 4868 C 442.195 2.18068 2.70817 0
M  V30 4869 H 441.518 3.04005 2.59656 0
M  V30 4870 H 442.958 2.4564 3.45597 0
M  V30 4871 C 441.417 0.988901 3.2206 0
M  V30 4872 O 441.947 0.224501 4.01072 0
M  V30 4873 N 440.153 0.786085 2.79766 0
M  V30 4874 H 439.7 1.40937 2.15626 0
M  V30 4875 H 439.658 -0.00969349 3.14399 0
M  V30 4876 N 443.43 -0.535701 1.48216 0
M  V30 4877 C 444.676 -1.2913 1.57153 0
M  V30 4878 C 445.031 -1.90899 0.239823 0
M  V30 4879 O 444.324 -1.76022 -0.756748 0
M  V30 4880 C 444.518 -2.4068 2.64212 0
M  V30 4881 C 444.347 -1.89844 4.07663 0
M  V30 4882 C 443.117 -1.72708 4.74869 0
M  V30 4883 C 445.315 -1.43031 4.94011 0
M  V30 4884 N 443.297 -1.16437 6.02757 0
M  V30 4885 C 444.668 -0.986691 6.12098 0
M  V30 4886 C 446.723 -1.3128 4.80281 0
M  V30 4887 C 445.426 -0.437231 7.1797 0
M  V30 4888 C 447.452 -0.777346 5.86269 0
M  V30 4889 C 446.814 -0.343774 7.03561 0
M  V30 4890 H 442.913 -0.463753 0.629648 0
M  V30 4891 H 445.497 -0.604736 1.8507 0
M  V30 4892 H 443.668 -3.06839 2.38126 0
M  V30 4893 H 445.4 -3.07706 2.62867 0
M  V30 4894 H 442.155 -1.96061 4.31111 0
M  V30 4895 H 442.579 -0.903281 6.70947 0
M  V30 4896 H 447.221 -1.63408 3.89946 0
M  V30 4897 H 444.939 -0.103621 8.08034 0
M  V30 4898 H 448.525 -0.689688 5.77698 0
M  V30 4899 H 447.405 0.0641219 7.84174 0
M  V30 4900 N 444.908 -1.36708 -0.784132 0
M  V30 4901 C 446.155 -1.31231 -1.54222 0
M  V30 4902 C 446.483 0.106864 -1.94206 0
M  V30 4903 O 445.738 1.07734 -1.63376 0
M  V30 4904 C 446.037 -2.18571 -2.82774 0
M  V30 4905 C 445.703 -3.67039 -2.61903 0
M  V30 4906 C 444.365 -4.07503 -2.55919 0
M  V30 4907 C 446.717 -4.61149 -2.4288 0
M  V30 4908 C 444.045 -5.40211 -2.28886 0
M  V30 4909 C 446.397 -5.94081 -2.17373 0
M  V30 4910 C 445.061 -6.33664 -2.09825 0
M  V30 4911 H 444.331 -0.48021 -0.56434 0
M  V30 4912 H 446.978 -1.68807 -0.904233 0
M  V30 4913 H 445.283 -1.73949 -3.51068 0
M  V30 4914 H 446.98 -2.11655 -3.40592 0
M  V30 4915 H 443.57 -3.34941 -2.67418 0
M  V30 4916 H 447.754 -4.30756 -2.46501 0
M  V30 4917 H 443.01 -5.69855 -2.21529 0
M  V30 4918 H 447.184 -6.66566 -2.01649 0
M  V30 4919 H 444.811 -7.36423 -1.88641 0
M  V30 4920 N 446.386 1.0089 -1.21074 0
M  V30 4921 C 447.336 2.0799 -0.934034 0
M  V30 4922 C 448.32 1.60529 0.10919 0
M  V30 4923 O 449.512 1.76722 -0.0992198 0
M  V30 4924 C 446.641 3.39693 -0.496334 0
M  V30 4925 C 445.727 3.93833 -1.57341 0
M  V30 4926 N 446.118 4.21388 -2.7976 0
M  V30 4927 C 444.416 4.22067 -1.44137 0
M  V30 4928 C 445.117 4.65156 -3.49292 0
M  V30 4929 N 444.093 4.67895 -2.76722 0
M  V30 4930 H 447.895 2.27213 -1.86417 0
M  V30 4931 H 445.409 1.18927 -1.10589 0
M  V30 4932 H 447.406 4.15962 -0.279471 0
M  V30 4933 H 446.066 3.21879 0.427084 0
M  V30 4934 H 447.077 4.10061 -3.1634 0
M  V30 4935 H 443.754 4.1341 -0.582947 0
M  V30 4936 H 445.144 4.95231 -4.54088 0
M  V30 4937 N 447.864 1.01787 1.20321 0
M  V30 4938 C 449.089 0.727009 1.9424 0
M  V30 4939 C 449.514 -0.706179 1.74341 0
M  V30 4940 O 448.872 -1.48609 1.03852 0
M  V30 4941 C 448.92 1.06958 3.44372 0
M  V30 4942 O 448.024 0.181983 4.11998 0
M  V30 4943 H 447.365 0.269626 0.606793 0
M  V30 4944 H 449.895 1.36158 1.52716 0
M  V30 4945 H 449.905 1.02182 3.94997 0
M  V30 4946 H 448.58 2.11378 3.58179 0
M  V30 4947 H 447.157 0.287378 3.71791 0
M  V30 4948 N 449.342 -1.36122 0.79427 0
M  V30 4949 C 450.29 -2.31871 0.184023 0
M  V30 4950 C 451.284 -1.56041 -0.659365 0
M  V30 4951 O 452.49 -1.71266 -0.553906 0
M  V30 4952 H 448.865 -0.750896 0.0407373 0
M  V30 4953 H 450.836 -2.80898 1.00693 0
M  V30 4954 C 449.585 -3.41324 -0.662813 0
M  V30 4955 H 448.908 -3.99793 -0.0231944 0
M  V30 4956 H 450.348 -4.10629 -1.05639 0
M  V30 4957 C 448.807 -2.83308 -1.82313 0
M  V30 4958 O 449.337 -2.75863 -2.91997 0
M  V30 4959 N 447.543 -2.40529 -1.63077 0
M  V30 4960 H 447.09 -2.46785 -0.738591 0
M  V30 4961 H 447.048 -2.02059 -2.40872 0
M  V30 4962 N 450.82 -0.546701 -1.47814 0
M  V30 4963 C 452.097 0.0464413 -1.95545 0
M  V30 4964 C 452.477 1.4962 -1.48919 0
M  V30 4965 O 451.825 2.16752 -0.723232 0
M  V30 4966 C 452.035 -0.0881298 -3.48889 0
M  V30 4967 C 453.383 0.0626059 -4.24554 0
M  V30 4968 O 454.407 -0.0151555 -3.56197 0
M  V30 4969 O 453.266 0.228071 -5.46024 0
M  V30 4970 H 450.36 0.0700004 -0.824032 0
M  V30 4971 H 452.906 -0.612482 -1.58262 0
M  V30 4972 H 451.678 -1.09737 -3.75597 0
M  V30 4973 H 451.301 0.608886 -3.9291 0
M  V30 4974 N 452.299 1.55045 -0.282633 0
M  V30 4975 C 453.547 1.99365 0.331334 0
M  V30 4976 C 453.868 1.1725 1.55812 0
M  V30 4977 O 453.138 0.263871 1.94115 0
M  V30 4978 H 451.718 0.736397 0.125414 0
M  V30 4979 H 454.38 1.90964 -0.389711 0
M  V30 4980 H 453.476 3.0596 0.616036 0
M  V30 4981 N 453.777 0.010035 1.57597 0
M  V30 4982 C 455.025 -0.671371 1.90623 0
M  V30 4983 C 455.346 -1.73753 0.885151 0
M  V30 4984 O 454.616 -1.95752 -0.0760611 0
M  V30 4985 H 453.196 -0.250968 0.703579 0
M  V30 4986 H 455.858 0.0533325 1.94827 0
M  V30 4987 H 454.954 -1.13626 2.90681 0
M  V30 4988 N 455.255 -1.55392 -0.262866 0
M  V30 4989 C 456.203 -1.8977 -1.345 0
M  V30 4990 C 457.197 -0.775063 -1.50629 0
M  V30 4991 O 458.403 -0.959519 -1.52293 0
M  V30 4992 H 454.778 -0.602467 -0.450041 0
M  V30 4993 H 456.749 -2.80147 -1.02762 0
M  V30 4994 C 455.498 -2.19501 -2.69657 0
M  V30 4995 H 454.821 -3.05378 -2.5804 0
M  V30 4996 H 456.261 -2.47469 -3.44289 0
M  V30 4997 C 454.72 -1.00597 -3.21531 0
M  V30 4998 O 455.25 -0.245768 -4.00947 0
M  V30 4999 N 453.456 -0.800911 -2.79345 0
M  V30 5000 H 453.003 -1.42079 -2.14875 0
M  V30 5001 H 452.961 -0.00697996 -3.14399 0
M  V30 5002 N 456.733 0.527833 -1.48498 0
M  V30 5003 C 457.979 1.28545 -1.56857 0
M  V30 5004 C 458.312 1.92678 -0.242651 0
M  V30 5005 O 457.587 1.79394 0.751545 0
M  V30 5006 C 457.87 2.37314 -2.70839 0
M  V30 5007 C 457.723 1.77858 -4.13142 0
M  V30 5008 C 459.042 3.39068 -2.80573 0
M  V30 5009 H 456.161 0.466006 -0.570971 0
M  V30 5010 H 458.803 0.587784 -1.8068 0
M  V30 5011 H 456.953 2.96821 -2.50658 0
M  V30 5012 H 458.625 1.22385 -4.44769 0
M  V30 5013 H 456.868 1.08383 -4.20042 0
M  V30 5014 H 457.539 2.56624 -4.88721 0
M  V30 5015 H 460.015 2.89518 -2.98862 0
M  V30 5016 H 458.891 4.12566 -3.6205 0
M  V30 5017 H 459.152 3.9975 -1.88818 0
M  V30 5018 N 458.211 1.37122 0.776871 0
M  V30 5019 C 459.141 1.35164 1.90402 0
M  V30 5020 C 460.122 0.221069 1.68657 0
M  V30 5021 O 461.307 0.420642 1.8959 0
M  V30 5022 C 458.437 1.15274 3.27611 0
M  V30 5023 C 457.391 2.25289 3.63908 0
M  V30 5024 C 456.717 1.90527 4.99603 0
M  V30 5025 C 458.017 3.67446 3.71188 0
M  V30 5026 H 459.711 2.29482 1.92297 0
M  V30 5027 H 457.257 1.10465 0.923773 0
M  V30 5028 H 459.21 1.12536 4.06096 0
M  V30 5029 H 457.934 0.174102 3.26136 0
M  V30 5030 H 456.593 2.27174 2.87728 0
M  V30 5031 H 456.241 0.91206 4.94662 0
M  V30 5032 H 455.941 2.64193 5.24858 0
M  V30 5033 H 457.465 1.89367 5.80493 0
M  V30 5034 H 458.879 3.67719 4.39836 0
M  V30 5035 H 457.276 4.40123 4.07936 0
M  V30 5036 H 458.346 4.01443 2.71977 0
M  V30 5037 N 459.689 -1.00246 1.21608 0
M  V30 5038 C 460.919 -1.77373 1.05935 0
M  V30 5039 C 461.327 -1.85059 -0.393686 0
M  V30 5040 O 460.67 -1.31289 -1.28487 0
M  V30 5041 C 460.732 -3.22705 1.58435 0
M  V30 5042 C 460.396 -3.38591 3.06929 0
M  V30 5043 C 461.393 -3.2667 4.04454 0
M  V30 5044 C 459.078 -3.6395 3.46187 0
M  V30 5045 C 461.072 -3.39877 5.39224 0
M  V30 5046 C 458.759 -3.768 4.81108 0
M  V30 5047 C 459.757 -3.6477 5.77436 0
M  V30 5048 O 459.445 -3.77206 7.09909 0
M  V30 5049 H 459.177 -0.56419 0.372378 0
M  V30 5050 H 461.731 -1.26971 1.61454 0
M  V30 5051 H 459.961 -3.74255 0.973147 0
M  V30 5052 H 461.65 -3.81515 1.38568 0
M  V30 5053 H 462.416 -3.06999 3.75468 0
M  V30 5054 H 458.295 -3.72395 2.71741 0
M  V30 5055 H 461.839 -3.30404 6.14393 0
M  V30 5056 H 457.736 -3.95975 5.09779 0
M  V30 5057 H 458.504 -3.94138 7.17355 0
M  V30 5058 N 461.167 -1.02423 -1.1978 0
M  V30 5059 C 462.397 -0.736387 -1.93031 0
M  V30 5060 C 462.805 0.708023 -1.75453 0
M  V30 5061 O 462.148 1.4927 -1.07071 0
M  V30 5062 C 462.21 -1.00194 -3.45255 0
M  V30 5063 C 461.874 -2.43698 -3.86601 0
M  V30 5064 C 462.871 -3.41814 -3.91738 0
M  V30 5065 C 460.556 -2.77975 -4.18372 0
M  V30 5066 C 462.55 -4.72265 -4.28071 0
M  V30 5067 C 460.237 -4.08636 -4.54378 0
M  V30 5068 C 461.235 -5.05592 -4.59201 0
M  V30 5069 O 460.923 -6.33914 -4.94376 0
M  V30 5070 H 460.655 -0.269116 -0.620123 0
M  V30 5071 H 463.209 -1.37043 -1.52998 0
M  V30 5072 H 461.439 -0.310747 -3.85449 0
M  V30 5073 H 463.128 -0.704488 -3.9974 0
M  V30 5074 H 463.894 -3.16671 -3.67348 0
M  V30 5075 H 459.773 -2.0319 -4.13805 0
M  V30 5076 H 463.317 -5.4794 -4.3175 0
M  V30 5077 H 459.214 -4.33556 -4.78226 0
M  V30 5078 H 459.982 -6.38317 -5.12341 0
M  V30 5079 N 462.645 1.35699 -0.801477 0
M  V30 5080 C 463.555 2.33661 -0.209691 0
M  V30 5081 C 464.571 1.6162 0.644591 0
M  V30 5082 O 465.747 1.93529 0.557545 0
M  V30 5083 C 462.812 3.40816 0.636033 0
M  V30 5084 C 461.873 4.28639 -0.238147 0
M  V30 5085 C 461.106 5.30676 0.567307 0
M  V30 5086 O 461.329 5.41174 1.8024 0
M  V30 5087 O 460.263 6.01887 -0.0391336 0
M  V30 5088 H 464.089 2.8606 -1.01996 0
M  V30 5089 H 461.674 1.38379 -0.563164 0
M  V30 5090 H 463.556 4.06301 1.11791 0
M  V30 5091 H 462.231 2.90696 1.42399 0
M  V30 5092 H 461.138 3.66152 -0.767044 0
M  V30 5093 H 462.471 4.82143 -0.989915 0
M  V30 5094 N 464.123 0.554532 1.47522 0
M  V30 5095 C 465.369 0.0295227 2.02779 0
M  V30 5096 C 465.702 -1.31582 1.42828 0
M  V30 5097 O 464.977 -1.85561 0.582872 0
M  V30 5098 C 465.26 -0.0664057 3.60039 0
M  V30 5099 C 465.113 1.30585 4.30427 0
M  V30 5100 C 466.432 -0.781162 4.33112 0
M  V30 5101 H 463.551 0.0122027 0.736899 0
M  V30 5102 H 466.193 0.716305 1.7598 0
M  V30 5103 H 464.343 -0.651307 3.83002 0
M  V30 5104 H 466.015 1.93374 4.18813 0
M  V30 5105 H 464.258 1.88125 3.90886 0
M  V30 5106 H 464.929 1.19147 5.38988 0
M  V30 5107 H 467.405 -0.284565 4.15126 0
M  V30 5108 H 466.281 -0.817237 5.42782 0
M  V30 5109 H 466.542 -1.83672 4.0214 0
M  V30 5110 N 465.601 -1.54893 0.290851 0
M  V30 5111 C 466.534 -2.19289 -0.631489 0
M  V30 5112 C 467.512 -1.15893 -1.14051 0
M  V30 5113 O 468.696 -1.4449 -1.21058 0
M  V30 5114 C 465.823 -2.82866 -1.86291 0
M  V30 5115 C 464.869 -3.997 -1.48801 0
M  V30 5116 S 465.702 -5.32641 -0.552644 0
M  V30 5117 C 466.858 -5.99696 -1.79209 0
M  V30 5118 H 467.091 -2.9718 -0.0843791 0
M  V30 5119 H 464.624 -1.54218 0.075031 0
M  V30 5120 H 466.582 -3.20124 -2.56964 0
M  V30 5121 H 465.243 -2.04839 -2.38117 0
M  V30 5122 H 464.436 -4.42932 -2.40473 0
M  V30 5123 H 464.038 -3.63947 -0.861321 0
M  V30 5124 H 466.33 -6.19886 -2.734 0
M  V30 5125 H 467.273 -6.94071 -1.40251 0
M  V30 5126 H 467.681 -5.29226 -1.96419 0
M  V30 5127 N 467.08 -0.0183926 -1.57589 0
M  V30 5128 C 468.326 0.663543 -1.91638 0
M  V30 5129 C 468.659 1.72392 -0.894134 0
M  V30 5130 O 467.934 1.94316 0.0846449 0
M  V30 5131 C 468.217 1.28984 -3.36207 0
M  V30 5132 C 468.07 0.239761 -4.49161 0
M  V30 5133 C 469.389 2.2109 -3.80536 0
M  V30 5134 H 466.508 0.239746 -0.696915 0
M  V30 5135 H 469.15 -0.073456 -1.89858 0
M  V30 5136 H 467.3 1.91799 -3.37854 0
M  V30 5137 H 468.972 -0.390119 -4.59647 0
M  V30 5138 H 467.215 -0.435972 -4.31604 0
M  V30 5139 H 467.886 0.717383 -5.47319 0
M  V30 5140 H 470.362 1.68273 -3.80557 0
M  V30 5141 H 469.238 2.61869 -4.82406 0
M  V30 5142 H 469.499 3.09764 -3.15434 0
M  V30 5143 N 468.558 1.5553 0.254621 0
M  V30 5144 C 469.786 1.81046 1.00149 0
M  V30 5145 C 470.201 0.593047 1.79244 0
M  V30 5146 O 469.558 -0.438196 1.77161 0
M  V30 5147 C 469.609 3.04684 1.94551 0
M  V30 5148 O 469.33 4.21725 1.18658 0
M  V30 5149 C 470.831 3.42943 2.80901 0
M  V30 5150 H 468.051 0.602653 0.295044 0
M  V30 5151 H 470.595 2.02576 0.279842 0
M  V30 5152 H 468.75 2.85226 2.62154 0
M  V30 5153 H 469.164 4.91746 1.82445 0
M  V30 5154 H 470.638 4.32576 3.42902 0
M  V30 5155 H 471.115 2.63176 3.51617 0
M  V30 5156 H 471.721 3.64724 2.18762 0
M  V30 5157 N 470.036 -0.519951 1.48776 0
M  V30 5158 C 471.284 -1.2727 1.56993 0
M  V30 5159 C 471.605 -1.9339 0.25004 0
M  V30 5160 O 470.875 -1.81822 -0.729216 0
M  V30 5161 H 469.455 -0.472732 0.578389 0
M  V30 5162 H 472.117 -0.604234 1.85297 0
M  V30 5163 H 471.213 -2.04669 2.3562 0
M  V30 5164 N 471.514 -1.37532 -0.769588 0
M  V30 5165 C 472.462 -1.33561 -1.90432 0
M  V30 5166 C 473.456 -0.224027 -1.67912 0
M  V30 5167 O 474.662 -0.392174 -1.75676 0
M  V30 5168 H 471.037 -0.416279 -0.626271 0
M  V30 5169 H 473.008 -2.29348 -1.90899 0
M  V30 5170 C 471.757 -1.16162 -3.27722 0
M  V30 5171 H 471.08 -2.00951 -3.45628 0
M  V30 5172 H 472.52 -1.17434 -4.07413 0
M  V30 5173 C 470.979 0.132583 -3.36639 0
M  V30 5174 O 471.509 1.11539 -3.85904 0
M  V30 5175 N 469.715 0.184013 -2.90017 0
M  V30 5176 H 469.262 -0.616415 -2.50116 0
M  V30 5177 H 469.22 1.04956 -2.96364 0
M  V30 5178 N 472.992 0.995999 -1.22138 0
M  V30 5179 C 473.922 2.10387 -1.01289 0
M  V30 5180 C 474.903 1.69975 0.0651454 0
M  V30 5181 O 476.088 1.9396 -0.0964628 0
M  V30 5182 C 473.218 3.42312 -0.586517 0
M  V30 5183 C 472.172 3.96558 -1.61014 0
M  V30 5184 C 471.498 5.24494 -1.0397 0
M  V30 5185 C 472.798 4.27595 -2.99933 0
M  V30 5186 H 474.492 2.28086 -1.93951 0
M  V30 5187 H 472.038 1.09607 -0.933928 0
M  V30 5188 H 473.991 4.19223 -0.427793 0
M  V30 5189 H 472.715 3.24431 0.375761 0
M  V30 5190 H 471.374 3.21776 -1.75658 0
M  V30 5191 H 471.022 5.02953 -0.0688703 0
M  V30 5192 H 470.722 5.61755 -1.72352 0
M  V30 5193 H 472.246 6.04042 -0.892494 0
M  V30 5194 H 473.66 4.95315 -2.8868 0
M  V30 5195 H 472.057 4.76021 -3.6541 0
M  V30 5196 H 473.127 3.35498 -3.50099 0
M  V30 5197 N 474.47 1.03057 1.19235 0
M  V30 5198 C 475.718 0.726581 1.88587 0
M  V30 5199 C 476.039 -0.747227 1.80115 0
M  V30 5200 O 475.309 -1.53849 1.21274 0
M  V30 5201 H 473.889 0.265768 0.698124 0
M  V30 5202 H 476.551 1.30516 1.44746 0
M  V30 5203 H 475.647 1.0224 2.94879 0
M  V30 5204 N 475.948 -1.35272 0.808662 0
M  V30 5205 C 477.197 -1.97963 0.386483 0
M  V30 5206 C 477.51 -1.64866 -1.05255 0
M  V30 5207 O 478.716 -2.20937 -1.57794 0
M  V30 5208 C 477.172 -3.54162 0.640096 0
M  V30 5209 C 476.78 -3.96166 2.0918 0
M  V30 5210 C 478.524 -4.23553 0.283376 0
M  V30 5211 C 476.431 -5.4522 2.29106 0
M  V30 5212 H 475.361 -0.740742 0.140774 0
M  V30 5213 H 478.012 -1.5431 0.993012 0
M  V30 5214 H 476.394 -3.95983 -0.0364117 0
M  V30 5215 H 477.568 -3.65491 2.80629 0
M  V30 5216 H 475.883 -3.3967 2.40859 0
M  V30 5217 H 478.48 -5.33124 0.410273 0
M  V30 5218 H 478.823 -4.09105 -0.770659 0
M  V30 5219 H 479.356 -3.8716 0.913884 0
M  V30 5220 H 476.095 -5.64638 3.32962 0
M  V30 5221 H 475.615 -5.77457 1.62184 0
M  V30 5222 H 477.294 -6.1171 2.1076 0
M  V30 5223 N 477.426 -0.562348 -1.47226 0
M  V30 5224 C 478.358 0.220011 -2.28142 0
M  V30 5225 C 479.371 0.874596 -1.37312 0
M  V30 5226 O 480.56 0.747583 -1.62091 0
M  V30 5227 C 477.66 1.32953 -3.11732 0
M  V30 5228 C 476.833 0.770759 -4.30556 0
M  V30 5229 C 475.892 1.76541 -4.95701 0
M  V30 5230 O 474.918 1.3095 -5.53932 0
M  V30 5231 N 476.12 3.09896 -4.90861 0
M  V30 5232 H 478.885 -0.474107 -2.95926 0
M  V30 5233 H 476.446 -0.398761 -1.56912 0
M  V30 5234 H 478.438 1.99378 -3.5218 0
M  V30 5235 H 477.008 1.92681 -2.46156 0
M  V30 5236 H 476.228 -0.0704056 -3.94137 0
M  V30 5237 H 477.516 0.376872 -5.07402 0
M  V30 5238 H 476.914 3.49577 -4.44761 0
M  V30 5239 H 475.471 3.71865 -5.35313 0
M  V30 5240 N 478.904 1.54736 -0.299062 0
M  V30 5241 C 480.15 2.01114 0.304123 0
M  V30 5242 C 480.505 1.18376 1.51674 0
M  V30 5243 O 479.798 0.251635 1.8994 0
M  V30 5244 C 479.992 3.50199 0.713835 0
M  V30 5245 C 479.821 4.47366 -0.457531 0
M  V30 5246 C 478.591 4.9631 -0.948933 0
M  V30 5247 C 480.789 4.9755 -1.30186 0
M  V30 5248 N 478.771 5.77327 -2.08726 0
M  V30 5249 C 480.142 5.7625 -2.28771 0
M  V30 5250 C 482.197 4.79739 -1.33246 0
M  V30 5251 C 480.9 6.39036 -3.3019 0
M  V30 5252 C 482.926 5.43343 -2.33521 0
M  V30 5253 C 482.288 6.21874 -3.30836 0
M  V30 5254 H 478.387 0.778318 0.0757992 0
M  V30 5255 H 480.971 1.89925 -0.428536 0
M  V30 5256 H 479.142 3.61681 1.41567 0
M  V30 5257 H 480.874 3.83374 1.29639 0
M  V30 5258 H 477.629 4.7069 -0.52423 0
M  V30 5259 H 478.053 6.22521 -2.66077 0
M  V30 5260 H 482.695 4.18609 -0.59383 0
M  V30 5261 H 480.413 6.99302 -4.04973 0
M  V30 5262 H 483.999 5.31492 -2.3666 0
M  V30 5263 H 482.879 6.70217 -4.07159 0
M  V30 5264 N 480.382 0.0267497 1.57577 0
M  V30 5265 C 481.798 -0.32962 1.56159 0
M  V30 5266 C 481.998 -1.73059 1.03213 0
M  V30 5267 O 481.054 -2.43233 0.677804 0
M  V30 5268 C 482.367 -0.18039 3.00158 0
M  V30 5269 C 483.915 -0.253334 3.11973 0
M  V30 5270 C 484.39 -0.132921 4.57807 0
M  V30 5271 N 485.881 -0.189979 4.6281 0
M  V30 5272 C 486.616 -0.120554 5.73273 0
M  V30 5273 N 486.112 -0.000180315 6.928 0
M  V30 5274 N 487.905 -0.174369 5.61829 0
M  V30 5275 H 480.056 0.942896 1.90324 0
M  V30 5276 H 482.319 0.3639 0.875375 0
M  V30 5277 H 482.025 0.784576 3.42837 0
M  V30 5278 H 481.899 -0.951565 3.65 0
M  V30 5279 H 484.286 -1.20876 2.69208 0
M  V30 5280 H 484.367 0.548177 2.49857 0
M  V30 5281 H 484.011 0.819073 5.01252 0
M  V30 5282 H 483.941 -0.953264 5.179 0
M  V30 5283 H 486.432 -0.283257 3.76837 0
M  V30 5284 H 486.745 0.0461666 7.72786 0
M  V30 5285 H 485.09 0.034569 6.94991 0
M  V30 5286 H 488.281 -0.266794 4.67339 0
M  V30 5287 H 488.454 -0.116802 6.47895 0
M  V30 5288 N 481.861 -1.55662 -0.24637 0
M  V30 5289 C 482.811 -1.86753 -1.30795 0
M  V30 5290 C 483.795 -0.728445 -1.43466 0
M  V30 5291 O 484.987 -0.99038 -1.46699 0
M  V30 5292 C 482.116 -2.16618 -2.66329 0
M  V30 5293 C 481.202 -3.36855 -2.57661 0
M  V30 5294 N 481.593 -4.56111 -2.18624 0
M  V30 5295 C 479.891 -3.39976 -2.88673 0
M  V30 5296 C 480.592 -5.38247 -2.20601 0
M  V30 5297 N 479.568 -4.77322 -2.60124 0
M  V30 5298 H 483.37 -2.76486 -0.996642 0
M  V30 5299 H 480.884 -1.55896 -0.454994 0
M  V30 5300 H 482.881 -2.37057 -3.42942 0
M  V30 5301 H 481.541 -1.28185 -2.98327 0
M  V30 5302 H 482.552 -4.81726 -1.9016 0
M  V30 5303 H 479.229 -2.61815 -3.25206 0
M  V30 5304 H 480.619 -6.43657 -1.92756 0
M  V30 5305 N 483.339 0.512053 -1.4905 0
M  V30 5306 C 484.286 1.6148 -1.64902 0
M  V30 5307 C 485.256 1.58687 -0.490673 0
M  V30 5308 O 486.441 1.76842 -0.71636 0
M  V30 5309 C 483.581 2.99676 -1.71139 0
M  V30 5310 C 482.694 3.12568 -2.98203 0
M  V30 5311 C 481.829 4.4143 -2.95487 0
M  V30 5312 C 480.868 4.47916 -4.17179 0
M  V30 5313 N 480.005 5.68191 -4.12437 0
M  V30 5314 H 484.845 1.47271 -2.59066 0
M  V30 5315 H 482.382 0.716713 -1.28459 0
M  V30 5316 H 484.34 3.79761 -1.72736 0
M  V30 5317 H 482.97 3.12614 -0.804508 0
M  V30 5318 H 482.022 2.25618 -3.06269 0
M  V30 5319 H 483.334 3.1322 -3.88194 0
M  V30 5320 H 482.488 5.29825 -2.95585 0
M  V30 5321 H 481.227 4.43326 -2.03256 0
M  V30 5322 H 480.232 3.57925 -4.17337 0
M  V30 5323 H 481.457 4.47744 -5.1059 0
M  V30 5324 H 479.403 5.7095 -3.23036 0
M  V30 5325 H 479.32 5.70413 -4.96151 0
M  V30 5326 H 480.588 6.58823 -4.16621 0
M  V30 5327 N 484.817 1.37938 0.762283 0
M  V30 5328 C 486.228 1.30094 1.33912 0
M  V30 5329 C 486.579 -0.0472026 1.96143 0
M  V30 5330 O 485.704 -0.94917 1.94473 0
M  V30 5331 C 486.299 2.35592 2.43478 0
M  V30 5332 C 484.858 2.31353 2.96905 0
M  V30 5333 C 484.005 2.18919 1.70205 0
M  V30 5334 H 486.956 1.48423 0.561816 0
M  V30 5335 H 486.977 2.00806 3.23199 0
M  V30 5336 H 486.489 3.33701 1.98155 0
M  V30 5337 H 484.59 1.36799 3.46579 0
M  V30 5338 H 484.703 3.25147 3.51875 0
M  V30 5339 H 483.067 1.65624 1.93496 0
M  V30 5340 H 483.85 3.18956 1.26973 0
M  V30 5341 N 486.295 -0.989507 1.22664 0
M  V30 5342 C 487.243 -2.10148 0.997035 0
M  V30 5343 C 488.237 -1.6929 -0.0609783 0
M  V30 5344 O 489.443 -1.79766 0.0917523 0
M  V30 5345 H 485.818 -0.687256 0.305259 0
M  V30 5346 H 487.789 -2.26685 1.94053 0
M  V30 5347 C 486.538 -3.4257 0.595085 0
M  V30 5348 H 485.861 -3.74453 1.40089 0
M  V30 5349 H 487.301 -4.21344 0.473869 0
M  V30 5350 C 485.76 -3.29638 -0.695725 0
M  V30 5351 O 486.29 -3.61709 -1.74727 0
M  V30 5352 N 484.496 -2.82814 -0.668173 0
M  V30 5353 H 484.043 -2.56914 0.18787 0
M  V30 5354 H 484.001 -2.74544 -1.5321 0
M  V30 5355 N 487.773 -1.03688 -1.18687 0
M  V30 5356 C 489.019 -0.739123 -1.88851 0
M  V30 5357 C 489.352 0.731042 -1.79915 0
M  V30 5358 O 488.627 1.53313 -1.19688 0
M  V30 5359 C 488.91 -1.20106 -3.3948 0
M  V30 5360 C 488.763 -2.73304 -3.57246 0
M  V30 5361 C 490.082 -0.788134 -4.32986 0
M  V30 5362 H 487.201 -0.269978 -0.68577 0
M  V30 5363 H 489.843 -1.28822 -1.3966 0
M  V30 5364 H 487.993 -0.733915 -3.81505 0
M  V30 5365 H 489.665 -3.28027 -3.24339 0
M  V30 5366 H 487.908 -3.13313 -3.00029 0
M  V30 5367 H 488.579 -3.00684 -4.62918 0
M  V30 5368 H 491.055 -1.19005 -3.98719 0
M  V30 5369 H 489.931 -1.13915 -5.36949 0
M  V30 5370 H 490.192 0.308988 -4.41019 0
M  V30 5371 N 489.251 1.34841 -0.815825 0
M  V30 5372 C 490.497 1.98793 -0.401129 0
M  V30 5373 C 490.83 1.64548 1.03139 0
M  V30 5374 O 490.105 0.913487 1.71714 0
M  V30 5375 C 490.388 3.55143 -0.595409 0
M  V30 5376 C 490.241 3.99155 -2.07352 0
M  V30 5377 C 491.56 4.40092 -0.0268823 0
M  V30 5378 H 488.679 0.722146 -0.14722 0
M  V30 5379 H 491.321 1.59847 -1.02707 0
M  V30 5380 H 489.471 3.8845 -0.0625779 0
M  V30 5381 H 491.143 3.76216 -2.66945 0
M  V30 5382 H 489.386 3.49726 -2.56659 0
M  V30 5383 H 490.057 5.07971 -2.1603 0
M  V30 5384 H 492.533 4.13298 -0.482042 0
M  V30 5385 H 491.409 5.48562 -0.19267 0
M  V30 5386 H 491.67 4.29016 1.06759 0
M  V30 5387 N 490.729 0.570148 1.46925 0
M  V30 5388 C 491.954 0.0542592 2.07329 0
M  V30 5389 C 492.379 -1.23582 1.41806 0
M  V30 5390 O 491.737 -1.74341 0.497479 0
M  V30 5391 C 491.785 -0.111175 3.60429 0
M  V30 5392 O 490.889 -1.17071 3.95434 0
M  V30 5393 H 490.23 0.0571425 0.661537 0
M  V30 5394 H 492.76 0.789516 1.88753 0
M  V30 5395 H 492.77 -0.321315 4.06733 0
M  V30 5396 H 491.445 0.831012 4.07513 0
M  V30 5397 H 490.022 -0.940029 3.60857 0
M  V30 5398 N 492.207 -1.54576 0.307264 0
M  V30 5399 C 493.453 -2.0056 -0.300612 0
M  V30 5400 C 493.786 -1.1953 -1.53057 0
M  V30 5401 O 493.061 -0.27337 -1.92569 0
M  V30 5402 C 493.344 -3.54167 -0.650987 0
M  V30 5403 C 493.197 -4.45933 0.588539 0
M  V30 5404 C 494.516 -4.14645 -1.47506 0
M  V30 5405 H 491.635 -0.729075 -0.107788 0
M  V30 5406 H 494.277 -1.85286 0.420606 0
M  V30 5407 H 492.427 -3.67313 -1.26544 0
M  V30 5408 H 494.099 -4.44683 1.22697 0
M  V30 5409 H 492.342 -4.16274 1.22058 0
M  V30 5410 H 493.013 -5.51189 0.299153 0
M  V30 5411 H 495.489 -4.04973 -0.955821 0
M  V30 5412 H 494.365 -5.22269 -1.68899 0
M  V30 5413 H 494.626 -3.66921 -2.4662 0
M  V30 5414 N 493.685 -0.035106 -1.57561 0
M  V30 5415 C 494.595 0.960295 -2.14046 0
M  V30 5416 C 495.611 1.3529 -1.0942 0
M  V30 5417 O 496.787 1.43309 -1.41508 0
M  V30 5418 C 493.852 2.22214 -2.66124 0
M  V30 5419 C 492.913 1.8894 -3.85487 0
M  V30 5420 C 492.146 3.09109 -4.35072 0
M  V30 5421 O 492.369 4.21963 -3.83802 0
M  V30 5422 O 491.303 2.91058 -5.26848 0
M  V30 5423 H 495.129 0.509983 -2.99387 0
M  V30 5424 H 492.714 0.185853 -1.48239 0
M  V30 5425 H 494.596 2.96279 -2.99661 0
M  V30 5426 H 493.271 2.66414 -1.83862 0
M  V30 5427 H 492.178 1.12241 -3.56865 0
M  V30 5428 H 493.511 1.49551 -4.6893 0
M  V30 5429 N 495.163 1.55791 0.238111 0
M  V30 5430 C 496.11 1.9105 1.29493 0
M  V30 5431 C 497.08 0.765733 1.47397 0
M  V30 5432 O 498.265 1.02017 1.61236 0
M  V30 5433 C 495.405 2.21826 2.64362 0
M  V30 5434 C 494.518 3.49153 2.54394 0
M  V30 5435 C 493.653 3.69455 3.81676 0
M  V30 5436 C 492.692 4.90353 3.66361 0
M  V30 5437 N 491.829 5.07131 4.85554 0
M  V30 5438 H 496.669 2.81172 0.987233 0
M  V30 5439 H 494.206 1.39179 0.476203 0
M  V30 5440 H 496.164 2.37675 3.4288 0
M  V30 5441 H 494.794 1.34897 2.93262 0
M  V30 5442 H 493.846 3.41587 1.67399 0
M  V30 5443 H 495.158 4.37818 2.38991 0
M  V30 5444 H 494.312 3.85311 4.68636 0
M  V30 5445 H 493.051 2.7904 3.99985 0
M  V30 5446 H 492.056 4.74464 2.77784 0
M  V30 5447 H 493.281 5.82237 3.49538 0
M  V30 5448 H 491.227 4.19654 5.04209 0
M  V30 5449 H 491.144 5.89899 4.72816 0
M  V30 5450 H 492.412 5.27407 5.73988 0
M  V30 5451 N 496.642 -0.504142 1.49319 0
M  V30 5452 C 497.552 -1.63248 1.68486 0
M  V30 5453 C 498.568 -1.64488 0.567432 0
M  V30 5454 O 499.744 -1.82966 0.841749 0
M  V30 5455 C 496.809 -2.99627 1.74426 0
M  V30 5456 C 495.87 -3.09039 2.97982 0
M  V30 5457 C 495.103 -4.38913 3.0363 0
M  V30 5458 O 495.326 -5.27528 2.16958 0
M  V30 5459 O 494.26 -4.53231 3.96062 0
M  V30 5460 H 498.086 -1.50008 2.64067 0
M  V30 5461 H 495.671 -0.680086 1.33023 0
M  V30 5462 H 497.553 -3.80689 1.80705 0
M  V30 5463 H 496.228 -3.13136 0.820233 0
M  V30 5464 H 495.135 -2.27177 2.97223 0
M  V30 5465 H 496.468 -3.00456 3.89855 0
M  V30 5466 N 498.12 -1.38341 -0.754957 0
M  V30 5467 C 499.067 -1.3546 -1.86867 0
M  V30 5468 C 500.037 -0.217369 -1.64672 0
M  V30 5469 O 501.222 -0.409383 -1.86356 0
M  V30 5470 C 498.362 -1.18413 -3.24149 0
M  V30 5471 C 497.475 -2.41511 -3.58185 0
M  V30 5472 C 496.61 -2.17205 -4.84763 0
M  V30 5473 C 495.649 -3.36081 -5.11582 0
M  V30 5474 N 494.786 -3.11219 -6.29354 0
M  V30 5475 H 499.626 -2.30672 -1.88664 0
M  V30 5476 H 497.163 -1.14607 -0.922154 0
M  V30 5477 H 499.121 -1.06545 -4.03366 0
M  V30 5478 H 497.751 -0.268397 -3.21682 0
M  V30 5479 H 496.803 -2.64056 -2.73822 0
M  V30 5480 H 498.115 -3.30115 -3.73932 0
M  V30 5481 H 497.269 -2.02465 -5.7192 0
M  V30 5482 H 496.008 -1.25964 -4.71152 0
M  V30 5483 H 495.013 -3.51341 -4.22894 0
M  V30 5484 H 496.238 -4.28196 -5.27091 0
M  V30 5485 H 494.184 -2.22624 -6.17069 0
M  V30 5486 H 494.101 -3.93373 -6.45596 0
M  V30 5487 H 495.369 -3.00132 -7.19403 0
M  V30 5488 N 499.598 0.982988 -1.23187 0
M  V30 5489 C 500.546 2.09616 -1.00817 0
M  V30 5490 C 501.54 1.6932 0.0519995 0
M  V30 5491 O 502.746 1.79715 -0.101284 0
M  V30 5492 H 499.121 0.685628 -0.308899 0
M  V30 5493 H 501.092 2.25652 -1.95253 0
M  V30 5494 C 499.841 3.42249 -0.613243 0
M  V30 5495 H 499.164 3.73705 -1.42073 0
M  V30 5496 H 500.604 4.21086 -0.496208 0
M  V30 5497 C 499.063 3.30002 0.678233 0
M  V30 5498 O 499.593 3.6263 1.72807 0
M  V30 5499 N 497.799 2.83164 0.653165 0
M  V30 5500 H 497.346 2.56811 -0.201492 0
M  V30 5501 H 497.304 2.75352 1.51752 0
M  V30 5502 N 501.076 1.04316 1.18135 0
M  V30 5503 C 502.023 0.636398 2.21853 0
M  V30 5504 C 502.993 -0.357039 1.62217 0
M  V30 5505 O 504.178 -0.250453 1.89149 0
M  V30 5506 C 501.318 0.00812779 3.45099 0
M  V30 5507 C 500.431 1.04933 4.19062 0
M  V30 5508 C 499.566 0.389313 5.29771 0
M  V30 5509 C 498.605 1.41544 5.9551 0
M  V30 5510 N 497.742 0.78021 6.97751 0
M  V30 5511 H 502.582 1.52536 2.56002 0
M  V30 5512 H 500.119 0.76304 1.25762 0
M  V30 5513 H 502.077 -0.373497 4.15525 0
M  V30 5514 H 500.707 -0.844336 3.11562 0
M  V30 5515 H 499.759 1.54888 3.47439 0
M  V30 5516 H 501.071 1.82862 4.64072 0
M  V30 5517 H 500.225 -0.0463805 6.06682 0
M  V30 5518 H 498.964 -0.422038 4.8587 0
M  V30 5519 H 497.969 1.86124 5.17337 0
M  V30 5520 H 499.194 2.22854 6.41493 0
M  V30 5521 H 497.14 -0.0107899 6.55999 0
M  V30 5522 H 497.057 1.49716 7.41027 0
M  V30 5523 H 498.325 0.368996 7.78626 0
M  V30 5524 N 502.554 -1.34406 0.822964 0
M  V30 5525 C 503.484 -2.32052 0.259608 0
M  V30 5526 C 504.465 -1.58243 -0.623961 0
M  V30 5527 O 505.65 -1.86224 -0.55083 0
M  V30 5528 C 502.78 -3.42434 -0.579314 0
M  V30 5529 C 501.734 -4.27499 0.20712 0
M  V30 5530 C 501.06 -5.29349 -0.754547 0
M  V30 5531 C 502.36 -5.02758 1.41533 0
M  V30 5532 H 504.054 -2.79418 1.07545 0
M  V30 5533 H 501.6 -1.34338 0.518593 0
M  V30 5534 H 503.553 -4.0976 -0.983612 0
M  V30 5535 H 502.277 -2.93717 -1.4282 0
M  V30 5536 H 500.936 -3.61776 0.592787 0
M  V30 5537 H 500.584 -4.76895 -1.59939 0
M  V30 5538 H 500.284 -5.8714 -0.232561 0
M  V30 5539 H 501.808 -5.99544 -1.1567 0
M  V30 5540 H 503.222 -5.62938 1.08504 0
M  V30 5541 H 501.619 -5.70123 1.87296 0
M  V30 5542 H 502.689 -4.32451 2.1935 0
M  V30 5543 N 504.032 -0.577932 -1.46621 0
M  V30 5544 C 504.979 0.158048 -2.30258 0
M  V30 5545 C 505.949 0.888669 -1.40328 0
M  V30 5546 O 507.134 0.880283 -1.6928 0
M  V30 5547 C 504.274 1.16884 -3.24703 0
M  V30 5548 C 503.387 0.442163 -4.29731 0
M  V30 5549 C 502.522 1.44007 -5.11308 0
M  V30 5550 C 501.561 0.69952 -6.0809 0
M  V30 5551 N 500.698 1.64525 -6.82551 0
M  V30 5552 H 505.538 -0.561242 -2.92667 0
M  V30 5553 H 503.075 -0.288591 -1.44241 0
M  V30 5554 H 505.033 1.7677 -3.779 0
M  V30 5555 H 503.663 1.85591 -2.64113 0
M  V30 5556 H 502.715 -0.271632 -3.79429 0
M  V30 5557 H 504.027 -0.136992 -4.98612 0
M  V30 5558 H 503.181 2.11186 -5.68758 0
M  V30 5559 H 501.92 2.05315 -4.42377 0
M  V30 5560 H 500.925 0.0139217 -5.49798 0
M  V30 5561 H 502.15 0.091894 -6.79038 0
M  V30 5562 H 500.096 2.24653 -6.16334 0
M  V30 5563 H 500.013 1.11878 -7.47676 0
M  V30 5564 H 501.281 2.30754 -7.44562 0
M  V30 5565 N 505.51 1.54411 -0.315457 0
M  V30 5566 C 506.926 1.59556 0.037464 0
M  V30 5567 C 507.126 1.33217 1.5118 0
M  V30 5568 O 506.182 1.11264 2.26664 0
M  V30 5569 C 507.495 2.98372 -0.373477 0
M  V30 5570 C 509.043 3.11324 -0.323452 0
M  V30 5571 C 509.518 4.52472 -0.709433 0
M  V30 5572 N 511.009 4.58437 -0.662524 0
M  V30 5573 C 511.744 5.65751 -0.933474 0
M  V30 5574 N 511.24 6.81039 -1.27114 0
M  V30 5575 N 513.033 5.55489 -0.859573 0
M  V30 5576 H 505.184 1.6979 -1.27614 0
M  V30 5577 H 507.447 0.793732 -0.518356 0
M  V30 5578 H 507.153 3.22618 -1.40037 0
M  V30 5579 H 507.027 3.76264 0.265615 0
M  V30 5580 H 509.414 2.86818 0.694223 0
M  V30 5581 H 509.495 2.35555 -0.997367 0
M  V30 5582 H 509.139 4.7771 -1.72498 0
M  V30 5583 H 509.069 5.26598 -0.0132923 0
M  V30 5584 H 511.56 3.75636 -0.413065 0
M  V30 5585 H 511.873 7.58816 -1.46348 0
M  V30 5586 H 510.218 6.82555 -1.30932 0
M  V30 5587 H 513.409 4.64299 -0.595324 0
M  V30 5588 H 513.582 6.39036 -1.0741 0
M  V30 5589 N 506.988 0.0434614 1.5754 0
M  V30 5590 C 507.935 -0.93356 2.11077 0
M  V30 5591 C 508.905 -1.31383 1.01626 0
M  V30 5592 O 510.09 -1.40465 1.29129 0
M  V30 5593 C 507.23 -2.20578 2.65404 0
M  V30 5594 C 506.343 -1.88068 3.88914 0
M  V30 5595 C 505.478 -3.09691 4.31584 0
M  V30 5596 C 504.517 -2.73067 5.47815 0
M  V30 5597 N 503.654 -3.87359 5.85574 0
M  V30 5598 H 508.494 -0.470118 2.94268 0
M  V30 5599 H 506.031 -0.220434 1.45439 0
M  V30 5600 H 507.989 -2.95011 2.94999 0
M  V30 5601 H 506.619 -2.64513 1.85021 0
M  V30 5602 H 505.671 -1.03816 3.6596 0
M  V30 5603 H 506.983 -1.57104 4.73413 0
M  V30 5604 H 506.137 -3.92431 4.62691 0
M  V30 5605 H 504.876 -3.43827 3.45882 0
M  V30 5606 H 503.881 -1.88742 5.16388 0
M  V30 5607 H 505.106 -2.40131 6.35227 0
M  V30 5608 H 503.052 -4.21311 5.02825 0
M  V30 5609 H 502.969 -3.60068 6.64746 0
M  V30 5610 H 504.237 -4.70761 6.21292 0
M  V30 5611 N 508.466 -1.55915 -0.229846 0
M  V30 5612 C 509.413 -1.91734 -1.28478 0
M  V30 5613 C 510.383 -0.773539 -1.46988 0
M  V30 5614 O 511.568 -1.02871 -1.60693 0
M  V30 5615 C 508.708 -2.23224 -2.63182 0
M  V30 5616 C 507.821 -3.50497 -2.52539 0
M  V30 5617 C 506.956 -3.71474 -3.79711 0
M  V30 5618 C 505.995 -4.92289 -3.63755 0
M  V30 5619 N 505.132 -5.09698 -4.82858 0
M  V30 5620 H 509.972 -2.81692 -0.972308 0
M  V30 5621 H 507.509 -1.39429 -0.468815 0
M  V30 5622 H 509.467 -2.3949 -3.41614 0
M  V30 5623 H 508.097 -1.36451 -2.92542 0
M  V30 5624 H 507.149 -3.4247 -1.65585 0
M  V30 5625 H 508.461 -4.39079 -2.36666 0
M  V30 5626 H 507.615 -3.87791 -4.66586 0
M  V30 5627 H 506.354 -2.81157 -3.985 0
M  V30 5628 H 505.359 -4.7593 -2.75264 0
M  V30 5629 H 506.584 -5.84083 -3.46445 0
M  V30 5630 H 504.53 -4.22322 -5.01976 0
M  V30 5631 H 504.447 -5.92399 -4.69681 0
M  V30 5632 H 505.715 -5.30443 -5.71183 0
M  V30 5633 N 509.944 0.496216 -1.49584 0
M  V30 5634 C 510.874 1.60576 -1.69521 0
M  V30 5635 C 511.855 1.61169 -0.543933 0
M  V30 5636 O 513.04 1.77834 -0.78031 0
M  V30 5637 C 510.17 2.99038 -1.76616 0
M  V30 5638 C 509.124 3.13312 -2.91581 0
M  V30 5639 C 508.45 4.53172 -2.83794 0
M  V30 5640 C 509.75 2.92886 -4.32452 0
M  V30 5641 H 511.444 1.44146 -2.62416 0
M  V30 5642 H 508.99 0.692024 -1.26282 0
M  V30 5643 H 510.943 3.76564 -1.8915 0
M  V30 5644 H 509.667 3.16568 -0.80324 0
M  V30 5645 H 508.326 2.38213 -2.78658 0
M  V30 5646 H 507.974 4.67585 -1.854 0
M  V30 5647 H 507.674 4.63662 -3.60958 0
M  V30 5648 H 509.198 5.32752 -2.98342 0
M  V30 5649 H 510.612 3.60178 -4.46032 0
M  V30 5650 H 509.009 3.14844 -5.10875 0
M  V30 5651 H 510.079 1.88966 -4.46565 0
M  V30 5652 N 511.423 1.38739 0.74761 0
M  V30 5653 C 512.333 1.38696 1.89211 0
M  V30 5654 C 513.349 0.283303 1.71678 0
M  V30 5655 O 514.525 0.522713 1.94498 0
M  V30 5656 C 511.59 1.21662 3.24653 0
M  V30 5657 C 510.651 2.41886 3.54669 0
M  V30 5658 C 509.884 2.25655 4.83648 0
M  V30 5659 O 510.107 1.25339 5.56459 0
M  V30 5660 O 509.041 3.14372 5.13277 0
M  V30 5661 H 512.867 2.35143 1.92202 0
M  V30 5662 H 510.452 1.19721 0.893708 0
M  V30 5663 H 512.334 1.14246 4.05618 0
M  V30 5664 H 511.009 0.283024 3.2246 0
M  V30 5665 H 509.916 2.54877 2.73841 0
M  V30 5666 H 511.249 3.33895 3.61628 0
M  V30 5667 N 512.901 -0.976442 1.23707 0
M  V30 5668 C 513.849 -2.09078 1.01927 0
M  V30 5669 C 514.843 -1.69345 -0.0430193 0
M  V30 5670 O 516.049 -1.79659 0.110814 0
M  V30 5671 H 512.424 -0.68398 0.312531 0
M  V30 5672 H 514.395 -2.24614 1.96447 0
M  V30 5673 C 513.144 -3.41919 0.631385 0
M  V30 5674 H 512.467 -3.72946 1.44053 0
M  V30 5675 H 513.907 -4.20817 0.518532 0
M  V30 5676 C 512.366 -3.30357 -0.660723 0
M  V30 5677 O 512.896 -3.63542 -1.70881 0
M  V30 5678 N 511.102 -2.83507 -0.638139 0
M  V30 5679 H 510.649 -2.567 0.215108 0
M  V30 5680 H 510.607 -2.76153 -1.50289 0
M  V30 5681 N 514.379 -1.04941 -1.1758 0
M  V30 5682 C 515.326 -0.648155 -2.21512 0
M  V30 5683 C 516.296 0.348431 -1.62404 0
M  V30 5684 O 517.481 0.240419 -1.89279 0
M  V30 5685 C 514.621 -0.0264291 -3.4509 0
M  V30 5686 C 513.734 -1.07154 -4.185 0
M  V30 5687 C 512.869 -0.417403 -5.29558 0
M  V30 5688 C 511.908 -1.447 -5.94751 0
M  V30 5689 N 511.045 -0.817203 -6.97328 0
M  V30 5690 H 515.885 -1.53891 -2.55189 0
M  V30 5691 H 513.422 -0.769699 -1.25356 0
M  V30 5692 H 515.38 0.351456 -4.15717 0
M  V30 5693 H 514.01 0.827802 -3.12005 0
M  V30 5694 H 513.062 -1.56728 -3.46613 0
M  V30 5695 H 514.374 -1.8532 -4.63096 0
M  V30 5696 H 513.528 0.0142061 -6.06698 0
M  V30 5697 H 512.267 0.396265 -4.86087 0
M  V30 5698 H 511.272 -1.88865 -5.16343 0
M  V30 5699 H 512.497 -2.26252 -6.40302 0
M  V30 5700 H 510.443 -0.0239995 -6.55996 0
M  V30 5701 H 510.36 -1.53644 -7.40223 0
M  V30 5702 H 511.628 -0.410283 -7.7842 0
M  V30 5703 N 515.857 1.33968 -0.830081 0
M  V30 5704 C 516.807 2.26845 -0.229242 0
M  V30 5705 C 517.791 1.48862 0.610659 0
M  V30 5706 O 518.983 1.70808 0.464067 0
M  V30 5707 C 516.112 3.3798 0.602057 0
M  V30 5708 C 515.198 4.23369 -0.248866 0
M  V30 5709 N 515.589 4.88182 -1.32334 0
M  V30 5710 C 513.887 4.45987 -0.0344077 0
M  V30 5711 C 514.588 5.51671 -1.84482 0
M  V30 5712 N 513.564 5.31348 -1.14762 0
M  V30 5713 H 517.366 2.74464 -1.05104 0
M  V30 5714 H 514.88 1.4777 -0.673623 0
M  V30 5715 H 516.877 4.03494 1.04873 0
M  V30 5716 H 515.537 2.9191 1.42193 0
M  V30 5717 H 516.548 4.88988 -1.70619 0
M  V30 5718 H 513.225 4.10658 0.752727 0
M  V30 5719 H 514.615 6.13308 -2.74413 0
M  V30 5720 N 517.335 0.585699 1.46312 0
M  V30 5721 C 518.282 -0.145835 2.30339 0
M  V30 5722 C 519.252 -0.881215 1.40797 0
M  V30 5723 O 520.437 -0.871293 1.69744 0
M  V30 5724 C 517.577 -1.15161 3.25318 0
M  V30 5725 C 516.69 -0.419367 4.2996 0
M  V30 5726 C 515.825 -1.41293 5.12064 0
M  V30 5727 C 514.864 -0.667261 6.08452 0
M  V30 5728 N 514.001 -1.60903 6.83414 0
M  V30 5729 H 518.841 0.576755 2.92365 0
M  V30 5730 H 516.378 0.296237 1.44086 0
M  V30 5731 H 518.336 -1.74763 3.78832 0
M  V30 5732 H 516.966 -1.84188 2.65094 0
M  V30 5733 H 516.018 0.291751 3.7928 0
M  V30 5734 H 517.33 0.163433 4.98532 0
M  V30 5735 H 516.484 -2.08167 5.6987 0
M  V30 5736 H 515.223 -2.02966 4.43459 0
M  V30 5737 H 514.228 0.0152356 5.49798 0
M  V30 5738 H 515.453 -0.0558817 6.79077 0
M  V30 5739 H 513.399 -2.21381 6.17516 0
M  V30 5740 H 513.316 -1.07911 7.48259 0
M  V30 5741 H 514.584 -2.26802 7.45775 0
M  V30 5742 N 518.813 -1.54241 0.323641 0
M  V30 5743 C 519.76 -2.24339 -0.542277 0
M  V30 5744 C 520.73 -1.23421 -1.11159 0
M  V30 5745 O 521.915 -1.52104 -1.15192 0
M  V30 5746 C 519.055 -3.00479 -1.69725 0
M  V30 5747 C 518.168 -4.16214 -1.15716 0
M  V30 5748 C 517.303 -4.79884 -2.27783 0
M  V30 5749 C 516.342 -5.87722 -1.71023 0
M  V30 5750 N 515.479 -6.45254 -2.76752 0
M  V30 5751 H 520.319 -2.97935 0.0620613 0
M  V30 5752 H 517.856 -1.47039 0.0423993 0
M  V30 5753 H 519.814 -3.42869 -2.3769 0
M  V30 5754 H 518.444 -2.29217 -2.27288 0
M  V30 5755 H 517.496 -3.78605 -0.369063 0
M  V30 5756 H 518.808 -4.93838 -0.701832 0
M  V30 5757 H 517.962 -5.25243 -3.03651 0
M  V30 5758 H 516.701 -4.01641 -2.76652 0
M  V30 5759 H 515.706 -5.41765 -0.936518 0
M  V30 5760 H 516.931 -6.67863 -1.2303 0
M  V30 5761 H 514.877 -5.69884 -3.24912 0
M  V30 5762 H 514.794 -7.18292 -2.35782 0
M  V30 5763 H 516.062 -6.95269 -3.5245 0
M  V30 5764 N 520.291 -0.0518155 -1.57515 0
M  V30 5765 C 521.568 0.661727 -1.84067 0
M  V30 5766 C 521.948 1.88999 -0.940351 0
M  V30 5767 O 521.296 2.285 -0.00155404 0
M  V30 5768 C 521.506 1.01841 -3.3381 0
M  V30 5769 C 522.854 1.40043 -4.00841 0
M  V30 5770 O 523.878 1.11073 -3.38439 0
M  V30 5771 O 522.737 1.94111 -5.10865 0
M  V30 5772 H 519.831 0.326702 -0.759733 0
M  V30 5773 H 522.377 -0.0812277 -1.69505 0
M  V30 5774 H 521.149 0.145202 -3.91031 0
M  V30 5775 H 520.772 1.81879 -3.53562 0
M  V30 5776 N 521.769 1.56035 0.221574 0
M  V30 5777 C 522.679 1.95581 1.29558 0
M  V30 5778 C 523.695 0.859639 1.51282 0
M  V30 5779 O 524.871 1.16321 1.64413 0
M  V30 5780 C 521.936 2.26447 2.62531 0
M  V30 5781 C 520.997 3.49632 2.4911 0
M  V30 5782 C 520.23 3.79017 3.75742 0
M  V30 5783 O 520.453 3.10077 4.78757 0
M  V30 5784 O 519.387 4.72507 3.72855 0
M  V30 5785 H 523.213 2.8711 0.990035 0
M  V30 5786 H 520.798 1.43244 0.424434 0
M  V30 5787 H 522.68 2.47494 3.41064 0
M  V30 5788 H 521.355 1.38092 2.92766 0
M  V30 5789 H 520.262 3.33864 1.68777 0
M  V30 5790 H 521.595 4.3837 2.23814 0
M  V30 5791 N 523.247 -0.488276 1.49845 0
M  V30 5792 C 524.157 -1.61451 1.70207 0
M  V30 5793 C 525.173 -1.63877 0.584846 0
M  V30 5794 O 526.349 -1.82063 0.861107 0
M  V30 5795 C 523.414 -2.9776 1.77594 0
M  V30 5796 C 522.475 -3.05861 3.01243 0
M  V30 5797 C 521.708 -4.35668 3.08268 0
M  V30 5798 O 521.931 -5.25197 2.22541 0
M  V30 5799 O 520.865 -4.49005 4.00847 0
M  V30 5800 H 524.691 -1.47199 2.65643 0
M  V30 5801 H 522.276 -0.665939 1.33737 0
M  V30 5802 H 524.158 -3.7875 1.84732 0
M  V30 5803 H 522.833 -3.12248 0.8534 0
M  V30 5804 H 521.74 -2.24012 2.99616 0
M  V30 5805 H 523.073 -2.96304 3.9302 0
M  V30 5806 N 524.725 -1.39134 -0.740242 0
M  V30 5807 C 525.672 -1.37434 -1.8542 0
M  V30 5808 C 526.642 -0.234822 -1.64432 0
M  V30 5809 O 527.827 -0.429125 -1.85912 0
M  V30 5810 C 524.967 -1.21844 -3.22875 0
M  V30 5811 C 524.08 -2.45296 -3.55603 0
M  V30 5812 C 523.215 -2.22334 -4.82432 0
M  V30 5813 C 522.254 -3.41488 -5.07988 0
M  V30 5814 N 521.391 -3.17877 -6.26018 0
M  V30 5815 H 526.231 -2.3266 -1.86207 0
M  V30 5816 H 523.768 -1.15578 -0.909946 0
M  V30 5817 H 525.726 -1.10818 -4.02213 0
M  V30 5818 H 524.356 -0.3025 -3.21379 0
M  V30 5819 H 523.408 -2.66945 -2.71006 0
M  V30 5820 H 524.72 -3.34063 -3.7041 0
M  V30 5821 H 523.874 -2.0852 -5.69741 0
M  V30 5822 H 522.613 -1.30954 -4.6979 0
M  V30 5823 H 521.618 -3.55807 -4.19144 0
M  V30 5824 H 522.843 -4.33763 -5.22519 0
M  V30 5825 H 520.789 -2.29156 -6.14673 0
M  V30 5826 H 520.706 -4.00198 -6.41387 0
M  V30 5827 H 521.974 -3.07746 -7.16179 0
M  V30 5828 N 526.204 0.969867 -1.24223 0
M  V30 5829 C 527.152 2.08535 -1.03034 0
M  V30 5830 C 528.146 1.69366 0.0340379 0
M  V30 5831 O 529.352 1.79597 -0.12034 0
M  V30 5832 H 525.727 0.682313 -0.316154 0
M  V30 5833 H 527.698 2.23569 -1.97635 0
M  V30 5834 C 526.447 3.4158 -0.649509 0
M  V30 5835 H 525.77 3.72177 -1.46028 0
M  V30 5836 H 527.21 4.20536 -0.540841 0
M  V30 5837 C 525.669 3.30703 0.643194 0
M  V30 5838 O 526.199 3.64443 1.68951 0
M  V30 5839 N 524.405 2.83841 0.623095 0
M  V30 5840 H 523.952 2.56583 -0.228719 0
M  V30 5841 H 523.91 2.76946 1.48823 0
M  V30 5842 N 527.682 1.05563 1.17022 0
M  V30 5843 C 528.629 0.659893 2.21165 0
M  V30 5844 C 529.599 -0.339813 1.62587 0
M  V30 5845 O 530.784 -0.230378 1.89404 0
M  V30 5846 C 527.924 0.0447297 3.45071 0
M  V30 5847 C 527.037 1.09372 4.17926 0
M  V30 5848 C 526.172 0.445481 5.29329 0
M  V30 5849 C 525.211 1.47852 5.93975 0
M  V30 5850 N 524.348 0.854172 6.96885 0
M  V30 5851 H 529.188 1.55243 2.54369 0
M  V30 5852 H 526.725 0.776336 1.24946 0
M  V30 5853 H 528.683 -0.329404 4.15898 0
M  V30 5854 H 527.313 -0.811244 3.1244 0
M  V30 5855 H 526.365 1.58564 3.45777 0
M  V30 5856 H 527.677 1.87773 4.62107 0
M  V30 5857 H 526.831 0.0179688 6.06697 0
M  V30 5858 H 525.57 -0.370481 4.86291 0
M  V30 5859 H 524.575 1.91601 5.15334 0
M  V30 5860 H 525.8 2.29645 6.39093 0
M  V30 5861 H 523.746 0.0587882 6.55974 0
M  V30 5862 H 523.663 1.57567 7.39397 0
M  V30 5863 H 524.931 0.451559 7.78191 0
M  V30 5864 N 529.16 -1.33526 0.837174 0
M  V30 5865 C 530.409 -1.97098 0.428387 0
M  V30 5866 C 530.722 -1.67062 -1.01734 0
M  V30 5867 O 531.928 -2.24235 -1.53072 0
M  V30 5868 C 530.384 -3.52725 0.715075 0
M  V30 5869 C 529.992 -3.9164 2.17537 0
M  V30 5870 C 531.736 -4.22857 0.373154 0
M  V30 5871 C 529.643 -5.40237 2.40619 0
M  V30 5872 H 528.573 -0.737589 0.156455 0
M  V30 5873 H 531.224 -1.52169 1.02552 0
M  V30 5874 H 529.606 -3.95971 0.0475904 0
M  V30 5875 H 530.78 -3.59456 2.88319 0
M  V30 5876 H 529.095 -3.34485 2.4801 0
M  V30 5877 H 531.692 -5.32133 0.523264 0
M  V30 5878 H 532.035 -4.10647 -0.683708 0
M  V30 5879 H 532.568 -3.85135 0.995801 0
M  V30 5880 H 529.307 -5.57449 3.44864 0
M  V30 5881 H 528.827 -5.73887 1.74396 0
M  V30 5882 H 530.506 -6.07102 2.23688 0
M  V30 5883 N 530.638 -0.59345 -1.46 0
M  V30 5884 C 532.054 -0.255965 -1.57534 0
M  V30 5885 C 532.254 1.24167 -1.58697 0
M  V30 5886 O 531.31 2.02398 -1.50968 0
M  V30 5887 C 532.623 -0.91466 -2.86451 0
M  V30 5888 C 534.171 -0.889253 -3.00102 0
M  V30 5889 C 534.646 -1.52769 -4.3177 0
M  V30 5890 N 536.137 -1.49253 -4.38495 0
M  V30 5891 C 536.872 -1.9558 -5.39014 0
M  V30 5892 N 536.368 -2.49929 -6.46148 0
M  V30 5893 N 538.161 -1.86432 -5.30282 0
M  V30 5894 H 530.312 -1.56604 -1.43489 0
M  V30 5895 H 532.575 -0.655207 -0.685133 0
M  V30 5896 H 532.281 -1.96861 -2.91442 0
M  V30 5897 H 532.155 -0.429356 -3.74748 0
M  V30 5898 H 534.542 0.156111 -2.94687 0
M  V30 5899 H 534.623 -1.41268 -2.13253 0
M  V30 5900 H 534.267 -2.57231 -4.37944 0
M  V30 5901 H 534.197 -0.979398 -5.17412 0
M  V30 5902 H 536.688 -1.09536 -3.61677 0
M  V30 5903 H 537.001 -2.83109 -7.19075 0
M  V30 5904 H 535.346 -2.53961 -6.46938 0
M  V30 5905 H 538.537 -1.43722 -4.4549 0
M  V30 5906 H 538.71 -2.22852 -6.08474 0
M  V30 5907 N 532.116 1.54067 -0.331816 0
M  V30 5908 C 533.026 2.28322 0.539104 0
M  V30 5909 C 534.042 1.32985 1.1221 0
M  V30 5910 O 535.218 1.6601 1.1403 0
M  V30 5911 C 532.283 3.03277 1.68 0
M  V30 5912 C 531.344 4.14216 1.12798 0
M  V30 5913 C 530.577 4.85588 2.2145 0
M  V30 5914 O 530.8 4.56536 3.41952 0
M  V30 5915 O 529.734 5.72309 1.86404 0
M  V30 5916 H 533.56 3.03632 -0.0641692 0
M  V30 5917 H 531.145 1.49083 -0.0972365 0
M  V30 5918 H 533.027 3.50189 2.34405 0
M  V30 5919 H 531.702 2.30834 2.2693 0
M  V30 5920 H 530.609 3.71635 0.428782 0
M  V30 5921 H 531.942 4.88727 0.583698 0
M  V30 5922 N 533.594 0.0601682 1.57485 0
M  V30 5923 C 534.504 -0.926121 2.15546 0
M  V30 5924 C 535.52 -1.33532 1.11558 0
M  V30 5925 O 536.696 -1.4104 1.4377 0
M  V30 5926 C 533.761 -2.17952 2.69625 0
M  V30 5927 C 532.822 -1.82783 3.88444 0
M  V30 5928 C 532.055 -3.02148 4.39935 0
M  V30 5929 O 532.278 -4.15803 3.90466 0
M  V30 5930 O 531.212 -2.82639 5.31412 0
M  V30 5931 H 535.038 -0.462289 3.00161 0
M  V30 5932 H 532.623 -0.162246 1.48516 0
M  V30 5933 H 534.505 -2.91474 3.04337 0
M  V30 5934 H 533.18 -2.63456 1.88077 0
M  V30 5935 H 532.087 -1.06549 3.58606 0
M  V30 5936 H 533.42 -1.42072 4.7125 0
M  V30 5937 N 535.072 -1.5615 -0.213296 0
M  V30 5938 C 536.318 -1.80718 -0.933402 0
M  V30 5939 C 536.673 -0.634441 -1.81639 0
M  V30 5940 O 535.966 0.371182 -1.8797 0
M  V30 5941 C 536.16 -3.08772 -1.79985 0
M  V30 5942 C 535.989 -4.38389 -1.00224 0
M  V30 5943 C 534.759 -5.00513 -0.693885 0
M  V30 5944 C 536.957 -5.13013 -0.363598 0
M  V30 5945 N 534.939 -6.13774 0.124266 0
M  V30 5946 C 536.31 -6.19186 0.31757 0
M  V30 5947 C 538.365 -4.97126 -0.277468 0
M  V30 5948 C 537.068 -7.11197 1.07664 0
M  V30 5949 C 539.094 -5.89544 0.468155 0
M  V30 5950 C 538.456 -6.95149 1.13784 0
M  V30 5951 H 534.555 -0.712833 -0.321549 0
M  V30 5952 H 537.139 -1.93633 -0.203588 0
M  V30 5953 H 535.31 -2.97126 -2.50142 0
M  V30 5954 H 537.042 -3.21499 -2.45806 0
M  V30 5955 H 533.797 -4.62619 -1.01391 0
M  V30 5956 H 534.221 -6.74981 0.522418 0
M  V30 5957 H 538.863 -4.15526 -0.78087 0
M  V30 5958 H 536.581 -7.92273 1.59153 0
M  V30 5959 H 540.167 -5.79327 0.535911 0
M  V30 5960 H 539.047 -7.65428 1.70557 0
M  V30 5961 N 536.55 0.480323 -1.50102 0
M  V30 5962 C 537.498 1.60024 -1.68805 0
M  V30 5963 C 538.492 1.60089 -0.553888 0
M  V30 5964 O 539.698 1.64349 -0.734127 0
M  V30 5965 H 536.073 0.530841 -0.532646 0
M  V30 5966 H 538.044 1.41408 -2.62767 0
M  V30 5967 C 536.793 2.98029 -1.79092 0
M  V30 5968 H 536.116 2.98694 -2.65748 0
M  V30 5969 H 537.556 3.75871 -1.96206 0
M  V30 5970 C 536.015 3.32538 -0.540388 0
M  V30 5971 O 536.545 4.00386 0.324637 0
M  V30 5972 N 534.751 2.87873 -0.397154 0
M  V30 5973 H 534.298 2.32834 -1.1021 0
M  V30 5974 H 534.256 3.11328 0.438425 0
M  V30 5975 N 538.028 1.39524 0.732853 0
M  V30 5976 C 538.976 1.38563 1.86824 0
M  V30 5977 C 539.97 0.268467 1.67259 0
M  V30 5978 O 541.176 0.438613 1.74574 0
M  V30 5979 H 537.551 0.432737 0.615014 0
M  V30 5980 H 539.522 2.34328 1.84751 0
M  V30 5981 C 538.271 1.2481 3.24527 0
M  V30 5982 H 537.594 2.10044 3.40179 0
M  V30 5983 H 539.034 1.28194 4.04156 0
M  V30 5984 C 537.493 -0.0432825 3.36872 0
M  V30 5985 O 538.023 -1.01268 3.88726 0
M  V30 5986 N 536.229 -0.107055 2.90403 0
M  V30 5987 H 535.776 0.682512 2.48394 0
M  V30 5988 H 535.734 -0.970618 2.99042 0
M  V30 5989 N 539.506 -0.963266 1.24736 0
M  V30 5990 C 540.753 -1.7068 1.0897 0
M  V30 5991 C 541.081 -1.90934 -0.370751 0
M  V30 5992 O 540.336 -1.47155 -1.29011 0
M  V30 5993 C 540.635 -3.09944 1.7796 0
M  V30 5994 C 540.301 -3.09518 3.27887 0
M  V30 5995 C 538.963 -3.09109 3.68789 0
M  V30 5996 C 541.315 -3.03509 4.23712 0
M  V30 5997 C 538.643 -3.00429 5.03944 0
M  V30 5998 C 540.995 -2.96371 5.5888 0
M  V30 5999 C 539.659 -2.94293 5.99123 0
M  V30 6000 H 538.929 -0.624564 0.398749 0
M  V30 6001 H 541.576 -1.12603 1.54896 0
M  V30 6002 H 539.881 -3.71513 1.2444 0
M  V30 6003 H 541.578 -3.66278 1.63222 0
M  V30 6004 H 538.168 -3.10603 2.95337 0
M  V30 6005 H 542.352 -3.0295 3.93109 0
M  V30 6006 H 537.608 -2.97183 5.34314 0
M  V30 6007 H 541.782 -2.90681 6.32833 0
M  V30 6008 H 539.409 -2.87322 7.03811 0
M  V30 6009 N 540.985 -1.06182 -1.16461 0
M  V30 6010 C 542.21 -0.798599 -1.91408 0
M  V30 6011 C 542.635 0.640987 -1.76842 0
M  V30 6012 O 541.993 1.44652 -1.09296 0
M  V30 6013 C 542.041 -1.19665 -3.40165 0
M  V30 6014 O 541.145 -0.334768 -4.11039 0
M  V30 6015 H 540.486 -0.291961 -0.596368 0
M  V30 6016 H 543.016 -1.41732 -1.47557 0
M  V30 6017 H 543.026 -1.16772 -3.90933 0
M  V30 6018 H 541.701 -2.24526 -3.50087 0
M  V30 6019 H 540.278 -0.425168 -3.70468 0
M  V30 6020 N 542.463 1.3308 -0.844243 0
M  V30 6021 C 543.693 2.01515 -0.455541 0
M  V30 6022 C 544.101 1.63655 0.949406 0
M  V30 6023 O 543.444 0.84848 1.62931 0
M  V30 6024 C 543.506 3.55967 -0.502801 0
M  V30 6025 C 543.17 4.17222 -1.86481 0
M  V30 6026 C 544.167 4.36205 -2.8288 0
M  V30 6027 C 541.852 4.53528 -2.15911 0
M  V30 6028 C 543.846 4.90649 -4.06869 0
M  V30 6029 C 541.533 5.07679 -3.40155 0
M  V30 6030 C 542.531 5.26186 -4.35451 0
M  V30 6031 O 542.219 5.79183 -5.57496 0
M  V30 6032 H 541.951 0.65199 -0.178565 0
M  V30 6033 H 544.505 1.70867 -1.1399 0
M  V30 6034 H 542.735 3.85965 0.23836 0
M  V30 6035 H 544.424 4.05688 -0.131169 0
M  V30 6036 H 545.19 4.085 -2.61444 0
M  V30 6037 H 541.069 4.38414 -1.42528 0
M  V30 6038 H 544.613 5.0501 -4.81259 0
M  V30 6039 H 540.51 5.34815 -3.61446 0
M  V30 6040 H 541.278 5.97591 -5.5931 0
M  V30 6041 N 543.941 0.601185 1.45683 0
M  V30 6042 C 545.188 0.0938811 2.02282 0
M  V30 6043 C 545.516 -1.27315 1.47041 0
M  V30 6044 O 544.771 -1.85193 0.632623 0
M  V30 6045 C 545.07 -0.00222425 3.574 0
M  V30 6046 C 544.736 1.29963 4.31764 0
M  V30 6047 C 543.398 1.65625 4.51798 0
M  V30 6048 C 545.75 2.1603 4.74321 0
M  V30 6049 C 543.078 2.87119 5.11644 0
M  V30 6050 C 545.43 3.36766 5.3551 0
M  V30 6051 C 544.094 3.72689 5.53768 0
M  V30 6052 H 543.364 0.0343535 0.740203 0
M  V30 6053 H 546.011 0.781522 1.74827 0
M  V30 6054 H 544.316 -0.773096 3.84097 0
M  V30 6055 H 546.013 -0.410794 3.9889 0
M  V30 6056 H 542.603 1.01204 4.1648 0
M  V30 6057 H 546.787 1.89778 4.58582 0
M  V30 6058 H 542.043 3.15065 5.2397 0
M  V30 6059 H 546.217 4.03713 5.67441 0
M  V30 6060 H 543.844 4.66918 5.99909 0
M  V30 6061 N 545.419 -1.53889 0.339982 0
M  V30 6062 C 546.83 -1.86139 -0.144671 0
M  V30 6063 C 547.181 -1.2613 -1.50285 0
M  V30 6064 O 546.306 -0.573515 -2.08662 0
M  V30 6065 C 546.901 -3.37728 -0.269285 0
M  V30 6066 C 545.46 -3.69868 -0.698168 0
M  V30 6067 C 544.607 -2.76777 0.170249 0
M  V30 6068 H 547.558 -1.48503 0.559704 0
M  V30 6069 H 547.579 -3.64331 -1.0974 0
M  V30 6070 H 547.091 -3.81375 0.719366 0
M  V30 6071 H 545.192 -3.31764 -1.69597 0
M  V30 6072 H 545.305 -4.76582 -0.490533 0
M  V30 6073 H 543.669 -2.52188 -0.356844 0
M  V30 6074 H 544.452 -3.23253 1.15597 0
M  V30 6075 N 546.897 -0.0685191 -1.57451 0
M  V30 6076 C 547.807 0.914677 -2.16034 0
M  V30 6077 C 548.823 1.32938 -1.12265 0
M  V30 6078 O 549.999 1.40275 -1.44516 0
M  V30 6079 C 547.064 2.16519 -2.70777 0
M  V30 6080 C 546.125 1.80721 -3.89408 0
M  V30 6081 C 545.358 2.9981 -4.41531 0
M  V30 6082 O 545.581 4.13727 -3.92666 0
M  V30 6083 O 544.515 2.79817 -5.32903 0
M  V30 6084 H 548.341 0.446364 -3.00402 0
M  V30 6085 H 545.926 0.154367 -1.486 0
M  V30 6086 H 547.808 2.89856 -3.05878 0
M  V30 6087 H 546.483 2.62454 -1.89471 0
M  V30 6088 H 545.39 1.04646 -3.59166 0
M  V30 6089 H 546.723 1.39571 -4.71997 0
M  V30 6090 N 548.375 1.56261 0.205012 0
M  V30 6091 C 549.624 1.79236 0.925058 0
M  V30 6092 C 549.937 0.640011 1.84833 0
M  V30 6093 O 551.143 0.753809 2.60826 0
M  V30 6094 C 549.599 3.17475 1.69522 0
M  V30 6095 C 549.207 4.40482 0.817269 0
M  V30 6096 C 550.951 3.49766 2.4055 0
M  V30 6097 C 548.858 5.69744 1.58573 0
M  V30 6098 H 547.788 0.668287 0.349153 0
M  V30 6099 H 550.439 1.82629 0.178544 0
M  V30 6100 H 548.821 3.08304 2.48526 0
M  V30 6101 H 549.995 4.60752 0.0665988 0
M  V30 6102 H 548.31 4.15827 0.218316 0
M  V30 6103 H 550.907 4.43573 2.98575 0
M  V30 6104 H 551.25 2.73041 3.14252 0
M  V30 6105 H 551.783 3.60341 1.68522 0
M  V30 6106 H 548.522 6.49407 0.891679 0
M  V30 6107 H 548.042 5.53509 2.31059 0
M  V30 6108 H 549.721 6.1051 2.14212 0
M  V30 6109 N 549.853 -0.472356 1.50355 0
M  V30 6110 C 551.081 -1.24784 1.65035 0
M  V30 6111 C 551.496 -1.85837 0.333176 0
M  V30 6112 O 550.853 -1.69168 -0.68472 0
M  V30 6113 C 550.904 -2.35747 2.74054 0
M  V30 6114 O 550.625 -1.77197 4.00665 0
M  V30 6115 C 552.126 -3.26645 2.99696 0
M  V30 6116 H 549.346 -0.377432 0.554785 0
M  V30 6117 H 551.89 -0.563962 1.9657 0
M  V30 6118 H 550.045 -2.99912 2.45217 0
M  V30 6119 H 550.459 -2.5026 4.60945 0
M  V30 6120 H 551.933 -4.00718 3.79644 0
M  V30 6121 H 552.41 -3.8535 2.10718 0
M  V30 6122 H 553.016 -2.68218 3.3006 0
M  V30 6123 N 551.331 -1.39911 -0.725443 0
M  V30 6124 C 552.281 -1.35878 -1.83088 0
M  V30 6125 C 553.265 -0.237989 -1.5913 0
M  V30 6126 O 554.457 -0.476302 -1.70471 0
M  V30 6127 C 551.586 -1.21403 -3.21117 0
M  V30 6128 C 550.672 -2.38223 -3.50871 0
M  V30 6129 N 551.063 -3.63703 -3.51502 0
M  V30 6130 C 549.361 -2.31388 -3.81281 0
M  V30 6131 C 550.062 -4.4101 -3.79322 0
M  V30 6132 N 549.038 -3.7072 -3.97577 0
M  V30 6133 H 552.84 -2.3085 -1.81895 0
M  V30 6134 H 550.354 -1.33543 -0.924125 0
M  V30 6135 H 552.351 -1.16597 -4.00263 0
M  V30 6136 H 551.011 -0.273902 -3.23543 0
M  V30 6137 H 552.022 -3.96998 -3.32586 0
M  V30 6138 H 548.699 -1.45689 -3.91256 0
M  V30 6139 H 550.089 -5.49819 -3.86198 0
M  V30 6140 N 552.809 0.956637 -1.25245 0
M  V30 6141 C 554.058 1.69537 -1.0927 0
M  V30 6142 C 554.371 1.92136 0.366503 0
M  V30 6143 O 555.577 2.63687 0.64665 0
M  V30 6144 C 554.033 3.05211 -1.9072 0
M  V30 6145 C 553.641 2.90416 -3.41119 0
M  V30 6146 C 555.385 3.82882 -1.83308 0
M  V30 6147 C 553.292 4.21468 -4.14872 0
M  V30 6148 H 552.222 0.635804 -0.405302 0
M  V30 6149 H 554.873 1.06513 -1.49423 0
M  V30 6150 H 553.255 3.69128 -1.43389 0
M  V30 6151 H 554.429 2.35444 -3.9611 0
M  V30 6152 H 552.744 2.26203 -3.49602 0
M  V30 6153 H 555.341 4.79944 -2.35706 0
M  V30 6154 H 555.684 4.0853 -0.800572 0
M  V30 6155 H 556.217 3.25711 -2.28379 0
M  V30 6156 H 552.956 4.01009 -5.18529 0
M  V30 6157 H 552.476 4.76213 -3.64665 0
M  V30 6158 H 554.155 4.90022 -4.22478 0
M  V30 6159 N 554.287 1.06798 1.15896 0
M  V30 6160 C 555.533 0.788934 1.86825 0
M  V30 6161 C 555.866 -0.683084 1.8179 0
M  V30 6162 O 555.141 -1.50086 1.23711 0
M  V30 6163 C 555.424 1.29065 3.36176 0
M  V30 6164 C 555.277 2.8268 3.49874 0
M  V30 6165 C 556.596 0.902655 4.30744 0
M  V30 6166 H 553.715 0.288066 0.678371 0
M  V30 6167 H 556.357 1.32479 1.36195 0
M  V30 6168 H 554.507 0.834806 3.79425 0
M  V30 6169 H 556.179 3.36511 3.15528 0
M  V30 6170 H 554.422 3.21157 2.91617 0
M  V30 6171 H 555.093 3.12852 4.54783 0
M  V30 6172 H 557.569 1.29535 3.95424 0
M  V30 6173 H 556.445 1.28111 5.3374 0
M  V30 6174 H 556.706 -0.191951 4.41683 0
M  V30 6175 N 555.766 -1.3263 0.851289 0
M  V30 6176 C 557.015 -1.96633 0.449267 0
M  V30 6177 C 557.328 -1.68131 -0.999562 0
M  V30 6178 O 558.534 -2.25845 -1.50685 0
M  V30 6179 C 556.99 -3.51946 0.752446 0
M  V30 6180 C 556.598 -3.89311 2.21678 0
M  V30 6181 C 558.342 -4.22437 0.417983 0
M  V30 6182 C 556.249 -5.37655 2.46336 0
M  V30 6183 H 555.179 -0.735888 0.164269 0
M  V30 6184 H 557.83 -1.51073 1.0416 0
M  V30 6185 H 556.212 -3.95899 0.0895858 0
M  V30 6186 H 557.386 -3.56378 2.92115 0
M  V30 6187 H 555.701 -3.31836 2.51543 0
M  V30 6188 H 558.298 -5.31549 0.579674 0
M  V30 6189 H 558.641 -4.11349 -0.640115 0
M  V30 6190 H 559.174 -3.84057 1.03659 0
M  V30 6191 H 555.913 -5.5376 3.50757 0
M  V30 6192 H 555.433 -5.72005 1.80473 0
M  V30 6193 H 557.112 -6.04695 2.30115 0
M  V30 6194 N 557.244 -0.608902 -1.45362 0
M  V30 6195 C 558.191 0.109172 -2.30542 0
M  V30 6196 C 559.161 0.858704 -1.42181 0
M  V30 6197 O 560.346 0.844178 -1.71109 0
M  V30 6198 C 557.486 1.09971 -3.27109 0
M  V30 6199 C 556.599 0.350911 -4.30572 0
M  V30 6200 C 555.734 1.33129 -5.14247 0
M  V30 6201 C 554.773 0.570377 -6.09437 0
M  V30 6202 N 553.91 1.5001 -6.85887 0
M  V30 6203 H 558.75 -0.623195 -2.91411 0
M  V30 6204 H 556.287 -0.319122 -1.43597 0
M  V30 6205 H 558.245 1.68714 -3.81564 0
M  V30 6206 H 556.875 1.79947 -2.67991 0
M  V30 6207 H 555.927 -0.352054 -3.78767 0
M  V30 6208 H 557.239 -0.242725 -4.98209 0
M  V30 6209 H 556.393 1.99074 -5.73109 0
M  V30 6210 H 555.132 1.95885 -4.46632 0
M  V30 6211 H 554.137 -0.102702 -5.49704 0
M  V30 6212 H 555.362 -0.0521607 -6.7908 0
M  V30 6213 H 553.308 2.11529 -6.2096 0
M  V30 6214 H 553.225 0.959934 -7.49881 0
M  V30 6215 H 554.493 2.14909 -7.49289 0
M  V30 6216 N 558.722 1.53707 -0.348139 0
M  V30 6217 C 559.632 2.28881 0.514857 0
M  V30 6218 C 560.648 1.34168 1.10793 0
M  V30 6219 O 561.824 1.6721 1.12262 0
M  V30 6220 C 558.889 3.05042 1.64774 0
M  V30 6221 C 557.95 4.15389 1.08398 0
M  V30 6222 C 557.183 4.87909 2.16287 0
M  V30 6223 O 557.406 4.60137 3.3709 0
M  V30 6224 O 556.34 5.74254 1.80323 0
M  V30 6225 H 560.166 3.03547 -0.0963699 0
M  V30 6226 H 557.751 1.48972 -0.113043 0
M  V30 6227 H 559.633 3.52656 2.30677 0
M  V30 6228 H 558.308 2.33228 2.24469 0
M  V30 6229 H 557.215 3.72068 0.389341 0
M  V30 6230 H 558.548 4.89318 0.531829 0
M  V30 6231 N 560.2 0.0768682 1.57412 0
M  V30 6232 C 561.425 -0.603404 1.98428 0
M  V30 6233 C 561.85 -1.62047 0.955108 0
M  V30 6234 O 561.208 -1.81129 -0.0786778 0
M  V30 6235 C 561.256 -1.24396 3.38464 0
M  V30 6236 O 560.36 -2.35982 3.3821 0
M  V30 6237 H 559.701 -0.154741 0.645718 0
M  V30 6238 H 562.231 0.152885 2.04028 0
M  V30 6239 H 562.241 -1.5896 3.7576 0
M  V30 6240 H 560.916 -0.498735 4.12899 0
M  V30 6241 H 559.493 -2.03173 3.1269 0
M  V30 6242 N 561.678 -1.56367 -0.196722 0
M  V30 6243 C 562.924 -1.80796 -0.918725 0
M  V30 6244 C 563.257 -0.650645 -1.82976 0
M  V30 6245 O 562.532 0.348889 -1.91345 0
M  V30 6246 C 562.815 -3.15472 -1.73636 0
M  V30 6247 C 562.668 -4.41693 -0.85015 0
M  V30 6248 C 563.987 -3.46824 -2.70927 0
M  V30 6249 H 561.106 -0.657702 -0.332561 0
M  V30 6250 H 563.748 -1.89086 -0.186186 0
M  V30 6251 H 561.898 -3.08536 -2.36088 0
M  V30 6252 H 563.57 -4.60673 -0.240459 0
M  V30 6253 H 561.813 -4.33517 -0.156785 0
M  V30 6254 H 562.484 -5.32419 -1.45719 0
M  V30 6255 H 564.96 -3.54049 -2.18607 0
M  V30 6256 H 563.836 -4.4218 -3.25219 0
M  V30 6257 H 564.097 -2.70236 -3.49893 0
M  V30 6258 N 563.156 0.464375 -1.50603 0
M  V30 6259 C 564.402 1.21776 -1.62168 0
M  V30 6260 C 564.735 1.91476 -0.324154 0
M  V30 6261 O 564.01 1.8242 0.674782 0
M  V30 6262 C 564.293 2.25614 -2.80661 0
M  V30 6263 C 564.146 1.60175 -4.20314 0
M  V30 6264 C 565.465 3.26862 -2.94702 0
M  V30 6265 H 562.584 0.44137 -0.590222 0
M  V30 6266 H 565.226 0.510623 -1.8301 0
M  V30 6267 H 563.376 2.85923 -2.63021 0
M  V30 6268 H 565.048 1.03411 -4.4956 0
M  V30 6269 H 563.291 0.904697 -4.24261 0
M  V30 6270 H 563.962 2.35665 -4.99165 0
M  V30 6271 H 566.438 2.76582 -3.10872 0
M  V30 6272 H 565.314 3.96839 -3.79223 0
M  V30 6273 H 565.575 3.91382 -2.05603 0
M  V30 6274 N 564.634 1.40294 0.718013 0
M  V30 6275 C 565.859 1.41941 1.5122 0
M  V30 6276 C 566.284 0.0202371 1.88089 0
M  V30 6277 O 565.642 -0.971078 1.53101 0
M  V30 6278 C 565.69 2.3141 2.76554 0
M  V30 6279 O 564.794 1.75567 3.73162 0
M  V30 6280 H 564.135 0.482644 0.456016 0
M  V30 6281 H 566.665 1.84494 0.884478 0
M  V30 6282 H 566.675 2.46513 3.25108 0
M  V30 6283 H 565.35 3.33085 2.49053 0
M  V30 6284 H 563.927 1.69798 3.31999 0
M  V30 6285 N 566.112 -0.949982 1.2575 0
M  V30 6286 C 567.361 -1.68956 1.10168 0
M  V30 6287 C 567.674 -1.92327 -0.356309 0
M  V30 6288 O 568.88 -2.64026 -0.632657 0
M  V30 6289 C 567.336 -3.04196 1.92336 0
M  V30 6290 C 566.944 -2.88603 3.42655 0
M  V30 6291 C 568.688 -3.81904 1.85336 0
M  V30 6292 C 566.595 -4.19262 4.17101 0
M  V30 6293 H 565.525 -0.633645 0.408668 0
M  V30 6294 H 568.176 -1.05719 1.49986 0
M  V30 6295 H 566.558 -3.68363 1.45344 0
M  V30 6296 H 567.732 -2.3334 3.97353 0
M  V30 6297 H 566.047 -2.24345 3.50796 0
M  V30 6298 H 568.644 -4.78688 2.38248 0
M  V30 6299 H 568.987 -4.08099 0.822226 0
M  V30 6300 H 569.52 -3.24495 2.30104 0
M  V30 6301 H 566.259 -3.98254 5.20648 0
M  V30 6302 H 565.779 -4.74273 3.67186 0
M  V30 6303 H 567.458 -4.87775 4.25071 0
M  V30 6304 N 567.59 -1.07411 -1.15328 0
M  V30 6305 C 568.538 -0.689316 -2.22151 0
M  V30 6306 C 569.532 0.300156 -1.6672 0
M  V30 6307 O 570.738 0.163804 -1.79253 0
M  V30 6308 H 567.113 -0.204834 -0.723566 0
M  V30 6309 H 569.084 -1.59988 -2.51886 0
M  V30 6310 C 567.833 -0.103848 -3.47545 0
M  V30 6311 H 567.156 -0.856367 -3.90521 0
M  V30 6312 H 568.596 0.127725 -4.23808 0
M  V30 6313 C 567.055 1.15563 -3.1646 0
M  V30 6314 O 567.585 2.242 -3.33312 0
M  V30 6315 N 565.791 1.06203 -2.70498 0
M  V30 6316 H 565.338 0.177933 -2.56985 0
M  V30 6317 H 565.296 1.90553 -2.50074 0
M  V30 6318 N 569.068 1.32177 -0.85831 0
M  V30 6319 C 570.015 2.28794 -0.303607 0
M  V30 6320 C 570.985 1.55213 0.591453 0
M  V30 6321 O 572.17 1.83418 0.525585 0
M  V30 6322 C 569.31 3.41475 0.49889 0
M  V30 6323 C 568.423 4.2993 -0.422373 0
M  V30 6324 C 567.558 5.29743 0.393111 0
M  V30 6325 C 566.597 6.09842 -0.525317 0
M  V30 6326 N 565.734 7.01643 0.253208 0
M  V30 6327 H 570.574 2.75631 -1.13276 0
M  V30 6328 H 568.111 1.35606 -0.570026 0
M  V30 6329 H 570.069 4.05531 0.979826 0
M  V30 6330 H 568.699 2.95779 1.29284 0
M  V30 6331 H 567.751 3.66422 -1.02171 0
M  V30 6332 H 569.063 4.85899 -1.12709 0
M  V30 6333 H 568.217 5.9942 0.937056 0
M  V30 6334 H 566.956 4.744 1.13117 0
M  V30 6335 H 565.961 5.39066 -1.08112 0
M  V30 6336 H 567.186 6.6727 -1.26205 0
M  V30 6337 H 565.132 6.48725 0.974295 0
M  V30 6338 H 565.049 7.54981 -0.392398 0
M  V30 6339 H 566.317 7.756 0.778761 0
M  V30 6340 N 570.547 0.616602 1.45037 0
M  V30 6341 C 571.479 -0.135186 2.28801 0
M  V30 6342 C 572.492 -0.82303 1.40464 0
M  V30 6343 O 573.681 -0.686909 1.64754 0
M  V30 6344 C 570.781 -1.21292 3.16451 0
M  V30 6345 C 569.954 -0.61043 4.3312 0
M  V30 6346 C 569.013 -1.58022 5.01912 0
M  V30 6347 O 568.039 -1.10301 5.58411 0
M  V30 6348 N 569.241 -2.91464 5.02025 0
M  V30 6349 H 572.006 0.583612 2.93963 0
M  V30 6350 H 569.567 0.456723 1.55324 0
M  V30 6351 H 571.559 -1.86169 3.59337 0
M  V30 6352 H 570.129 -1.83412 2.53138 0
M  V30 6353 H 569.349 0.216638 3.93604 0
M  V30 6354 H 570.637 -0.188293 5.08451 0
M  V30 6355 H 570.035 -3.32829 4.57429 0
M  V30 6356 H 568.592 -3.51741 5.48745 0
M  V30 6357 N 572.025 -1.5352 0.356285 0
M  V30 6358 C 573.302 -1.93405 -0.292223 0
M  V30 6359 C 573.682 -1.28901 -1.67176 0
M  V30 6360 O 573.03 -0.444632 -2.24132 0
M  V30 6361 C 573.24 -3.47223 -0.35175 0
M  V30 6362 C 574.588 -4.20389 -0.596534 0
M  V30 6363 O 575.612 -3.53554 -0.433344 0
M  V30 6364 O 574.471 -5.3881 -0.913589 0
M  V30 6365 H 571.565 -0.808666 -0.173172 0
M  V30 6366 H 574.111 -1.64713 0.408391 0
M  V30 6367 H 572.883 -3.86423 0.615841 0
M  V30 6368 H 572.506 -3.8212 -1.09864 0
M  V30 6369 N 573.503 -0.0852151 -1.57369 0
M  V30 6370 C 574.451 0.894856 -2.14698 0
M  V30 6371 C 575.445 1.29903 -1.08727 0
M  V30 6372 O 576.651 1.27471 -1.27088 0
M  V30 6373 H 573.026 0.306569 -0.686673 0
M  V30 6374 H 574.997 0.386542 -2.95886 0
M  V30 6375 C 573.746 2.14798 -2.73417 0
M  V30 6376 H 573.069 1.84585 -3.54638 0
M  V30 6377 H 574.509 2.81456 -3.1711 0
M  V30 6378 C 572.968 2.91546 -1.68828 0
M  V30 6379 O 573.498 3.85733 -1.12129 0
M  V30 6380 N 571.704 2.54901 -1.39549 0
M  V30 6381 H 571.251 1.7838 -1.85845 0
M  V30 6382 H 571.209 3.06553 -0.698054 0
M  V30 6383 N 574.981 1.5647 0.188427 0
M  V30 6384 C 575.928 1.95073 1.23349 0
M  V30 6385 C 576.898 0.812238 1.44886 0
M  V30 6386 O 578.083 1.07095 1.57909 0
M  V30 6387 C 575.223 2.30124 2.57171 0
M  V30 6388 C 574.336 3.57069 2.43157 0
M  V30 6389 C 573.471 3.81411 3.69729 0
M  V30 6390 C 572.51 5.0176 3.50575 0
M  V30 6391 N 571.647 5.22321 4.69175 0
M  V30 6392 H 576.487 2.84171 0.89728 0
M  V30 6393 H 574.024 1.40623 0.431683 0
M  V30 6394 H 575.982 2.48463 3.35145 0
M  V30 6395 H 574.612 1.44159 2.88822 0
M  V30 6396 H 573.664 3.4674 1.56447 0
M  V30 6397 H 574.976 4.452 2.24942 0
M  V30 6398 H 574.13 4.00026 4.56141 0
M  V30 6399 H 572.869 2.91624 3.90905 0
M  V30 6400 H 571.874 4.83061 2.62549 0
M  V30 6401 H 573.099 5.93063 3.30837 0
M  V30 6402 H 571.045 4.35483 4.90602 0
M  V30 6403 H 570.962 6.04643 4.53809 0
M  V30 6404 H 572.23 5.45401 5.56919 0
M  V30 6405 N 576.459 -0.456382 1.50847 0
M  V30 6406 C 577.406 -1.55249 1.70782 0
M  V30 6407 C 578.376 -1.56757 0.549231 0
M  V30 6408 O 579.561 -1.74061 0.7815 0
M  V30 6409 C 576.701 -2.93118 1.82143 0
M  V30 6410 C 575.814 -3.01285 3.09598 0
M  V30 6411 C 574.949 -4.30159 3.11667 0
M  V30 6412 C 573.988 -4.32124 4.33515 0
M  V30 6413 N 573.125 -5.52492 4.3324 0
M  V30 6414 H 577.965 -1.37555 2.64353 0
M  V30 6415 H 575.502 -0.668543 1.3103 0
M  V30 6416 H 577.46 -3.73088 1.86711 0
M  V30 6417 H 576.09 -3.09413 0.919978 0
M  V30 6418 H 575.142 -2.14096 3.14431 0
M  V30 6419 H 576.454 -2.98597 3.99551 0
M  V30 6420 H 575.608 -5.18489 3.15046 0
M  V30 6421 H 574.347 -4.35477 2.1957 0
M  V30 6422 H 573.352 -3.42189 4.30333 0
M  V30 6423 H 574.577 -4.28485 5.26856 0
M  V30 6424 H 572.523 -5.58567 3.44004 0
M  V30 6425 H 572.44 -5.51605 5.16979 0
M  V30 6426 H 573.708 -6.42906 4.40786 0
M  V30 6427 N 577.937 -1.40673 -0.710563 0
M  V30 6428 C 578.87 -1.35742 -1.83438 0
M  V30 6429 C 579.848 -0.226997 -1.61008 0
M  V30 6430 O 581.032 -0.411477 -1.83954 0
M  V30 6431 C 578.159 -1.11374 -3.19865 0
M  V30 6432 C 577.205 -2.26935 -3.61113 0
M  V30 6433 S 578.038 -3.89352 -3.67648 0
M  V30 6434 C 579.194 -3.67258 -5.06826 0
M  V30 6435 H 579.427 -2.30848 -1.87341 0
M  V30 6436 H 576.96 -1.27018 -0.877831 0
M  V30 6437 H 578.918 -0.980004 -3.9863 0
M  V30 6438 H 577.579 -0.179135 -3.13589 0
M  V30 6439 H 576.772 -2.0554 -4.60184 0
M  V30 6440 H 576.374 -2.36638 -2.89618 0
M  V30 6441 H 578.666 -3.26036 -5.93891 0
M  V30 6442 H 579.609 -4.65878 -5.33257 0
M  V30 6443 H 580.017 -3.0084 -4.77656 0
M  V30 6444 N 579.415 0.9433 -1.26252 0
M  V30 6445 C 580.325 2.07532 -1.09397 0
M  V30 6446 C 581.341 1.73977 -0.0280449 0
M  V30 6447 O 582.517 2.00067 -0.231337 0
M  V30 6448 C 579.582 3.39002 -0.726523 0
M  V30 6449 C 578.643 3.86353 -1.87163 0
M  V30 6450 C 577.876 5.11549 -1.52162 0
M  V30 6451 O 578.099 5.68834 -0.422385 0
M  V30 6452 O 577.033 5.53889 -2.35565 0
M  V30 6453 H 580.859 2.24658 -2.04359 0
M  V30 6454 H 578.444 1.05988 -1.05295 0
M  V30 6455 H 580.326 4.18 -0.534236 0
M  V30 6456 H 579.001 3.2312 0.193721 0
M  V30 6457 H 577.908 3.0831 -2.11886 0
M  V30 6458 H 579.241 4.06752 -2.77152 0
M  V30 6459 N 580.893 1.08022 1.14757 0
M  V30 6460 C 581.823 0.728248 2.21853 0
M  V30 6461 C 582.804 -0.287486 1.67653 0
M  V30 6462 O 583.989 -0.158727 1.9355 0
M  V30 6463 C 581.119 0.132549 3.47047 0
M  V30 6464 C 580.073 1.07619 4.14249 0
M  V30 6465 C 579.399 0.342907 5.33599 0
M  V30 6466 C 580.699 2.41268 4.63235 0
M  V30 6467 H 582.393 1.62365 2.51551 0
M  V30 6468 H 579.939 0.782125 1.20908 0
M  V30 6469 H 581.892 -0.125665 4.21213 0
M  V30 6470 H 580.616 -0.797971 3.16702 0
M  V30 6471 H 579.275 1.31944 3.42033 0
M  V30 6472 H 578.923 -0.59129 4.99513 0
M  V30 6473 H 578.623 0.971955 5.79506 0
M  V30 6474 H 580.147 0.0926538 6.1053 0
M  V30 6475 H 581.561 2.21232 5.28894 0
M  V30 6476 H 579.958 2.9983 5.19829 0
M  V30 6477 H 581.028 3.03079 3.78512 0
M  V30 6478 N 582.371 -1.3172 0.865308 0
M  V30 6479 C 583.318 -2.2863 0.315736 0
M  V30 6480 C 584.288 -1.55524 -0.583213 0
M  V30 6481 O 585.473 -1.83694 -0.51585 0
M  V30 6482 C 582.613 -3.41735 -0.480773 0
M  V30 6483 C 581.726 -4.297 0.445167 0
M  V30 6484 C 580.861 -5.29944 -0.365012 0
M  V30 6485 C 579.9 -6.09554 0.557651 0
M  V30 6486 N 579.037 -7.01768 -0.215994 0
M  V30 6487 H 583.877 -2.75026 1.14736 0
M  V30 6488 H 581.414 -1.35302 0.577209 0
M  V30 6489 H 583.372 -4.06045 -0.958306 0
M  V30 6490 H 582.002 -2.96461 -1.27714 0
M  V30 6491 H 581.054 -3.65875 1.04113 0
M  V30 6492 H 582.366 -4.85295 1.15284 0
M  V30 6493 H 581.52 -5.99908 -0.905255 0
M  V30 6494 H 580.259 -4.74994 -1.106 0
M  V30 6495 H 579.264 -5.38485 1.10969 0
M  V30 6496 H 580.489 -6.66591 1.29742 0
M  V30 6497 H 578.435 -6.49232 -0.939878 0
M  V30 6498 H 578.352 -7.54762 0.432431 0
M  V30 6499 H 579.62 -7.76002 -0.737618 0
M  V30 6500 N 583.85 -0.624285 -1.44708 0
M  V30 6501 C 584.779 0.0717025 -2.3339 0
M  V30 6502 C 585.76 0.841814 -1.47809 0
M  V30 6503 O 586.946 0.809056 -1.76544 0
M  V30 6504 C 584.076 1.05852 -3.30776 0
M  V30 6505 C 583.029 0.400503 -4.26122 0
M  V30 6506 C 582.356 1.49674 -5.13324 0
M  V30 6507 C 583.656 -0.688924 -5.17737 0
M  V30 6508 H 585.35 -0.668819 -2.91834 0
M  V30 6509 H 582.896 -0.32308 -1.40329 0
M  V30 6510 H 584.849 1.5541 -3.91696 0
M  V30 6511 H 583.572 1.82984 -2.70526 0
M  V30 6512 H 582.231 -0.0743687 -3.66525 0
M  V30 6513 H 581.88 2.25877 -4.49431 0
M  V30 6514 H 581.58 1.06188 -5.77926 0
M  V30 6515 H 583.104 1.99427 -5.77115 0
M  V30 6516 H 584.518 -0.276724 -5.72632 0
M  V30 6517 H 582.915 -1.04652 -5.90904 0
M  V30 6518 H 583.985 -1.55884 -4.5916 0
M  V30 6519 N 585.328 1.53329 -0.364422 0
M  V30 6520 C 586.553 2.06132 0.229033 0
M  V30 6521 C 586.978 1.23625 1.41769 0
M  V30 6522 O 586.336 0.255038 1.79497 0
M  V30 6523 C 586.384 3.55544 0.60174 0
M  V30 6524 O 585.488 3.75771 1.69912 0
M  V30 6525 H 584.829 0.663148 0.0336213 0
M  V30 6526 H 587.359 1.97758 -0.524689 0
M  V30 6527 H 587.369 3.98549 0.873073 0
M  V30 6528 H 586.044 4.15039 -0.267421 0
M  V30 6529 H 584.621 3.44663 1.42343 0
M  V30 6530 N 586.806 0.0935595 1.57322 0
M  V30 6531 C 588.031 -0.582324 1.99057 0
M  V30 6532 C 588.456 -1.61025 0.972242 0
M  V30 6533 O 587.814 -1.81202 -0.0594622 0
M  V30 6534 C 587.862 -1.20799 3.39765 0
M  V30 6535 O 586.966 -2.32382 3.40694 0
M  V30 6536 H 586.307 -0.147884 0.647323 0
M  V30 6537 H 588.837 0.174516 2.03854 0
M  V30 6538 H 588.847 -1.54966 3.77425 0
M  V30 6539 H 587.522 -0.454914 4.13405 0
M  V30 6540 H 586.099 -1.99845 3.14827 0
M  V30 6541 N 588.284 -1.56567 -0.180126 0
M  V30 6542 C 589.234 -1.92132 -1.22756 0
M  V30 6543 C 590.218 -0.788639 -1.40247 0
M  V30 6544 O 591.41 -1.05171 -1.42366 0
M  V30 6545 C 588.539 -2.27719 -2.56902 0
M  V30 6546 C 587.625 -3.47481 -2.43142 0
M  V30 6547 N 588.016 -4.64973 -1.99082 0
M  V30 6548 C 586.314 -3.51914 -2.73994 0
M  V30 6549 C 587.015 -5.47119 -1.97574 0
M  V30 6550 N 585.991 -4.87925 -2.39645 0
M  V30 6551 H 589.793 -2.80464 -0.878478 0
M  V30 6552 H 587.307 -1.57686 -0.388463 0
M  V30 6553 H 589.304 -2.51389 -3.32579 0
M  V30 6554 H 587.964 -1.40722 -2.92621 0
M  V30 6555 H 588.975 -4.89358 -1.69557 0
M  V30 6556 H 585.652 -2.75372 -3.13809 0
M  V30 6557 H 587.042 -6.51254 -1.65282 0
M  V30 6558 N 589.762 0.448376 -1.51087 0
M  V30 6559 C 590.672 1.56882 -1.74428 0
M  V30 6560 C 591.688 1.62268 -0.62809 0
M  V30 6561 O 592.864 1.79716 -0.909075 0
M  V30 6562 C 589.929 2.92947 -1.85426 0
M  V30 6563 C 588.99 2.97766 -3.09247 0
M  V30 6564 C 588.223 4.27341 -3.19711 0
M  V30 6565 O 588.446 5.19112 -2.36387 0
M  V30 6566 O 587.38 4.38219 -4.12611 0
M  V30 6567 H 591.206 1.40104 -2.69452 0
M  V30 6568 H 588.791 0.630247 -1.35456 0
M  V30 6569 H 590.673 3.73719 -1.94709 0
M  V30 6570 H 589.348 3.09876 -0.935887 0
M  V30 6571 H 588.255 2.15989 -3.0545 0
M  V30 6572 H 589.588 2.8578 -4.00738 0
M  V30 6573 N 591.24 1.41047 0.703093 0
M  V30 6574 C 592.15 1.44645 1.84703 0
M  V30 6575 C 593.166 0.337778 1.7069 0
M  V30 6576 O 594.342 0.584327 1.92737 0
M  V30 6577 C 591.407 1.31928 3.20618 0
M  V30 6578 C 590.468 2.53047 3.46794 0
M  V30 6579 C 589.701 2.40927 4.76224 0
M  V30 6580 O 589.924 1.42978 5.5219 0
M  V30 6581 O 588.858 3.30543 5.03016 0
M  V30 6582 H 592.684 2.41139 1.84624 0
M  V30 6583 H 590.269 1.22504 0.855167 0
M  V30 6584 H 592.151 1.27092 4.01778 0
M  V30 6585 H 590.826 0.385469 3.21397 0
M  V30 6586 H 589.733 2.6346 2.65593 0
M  V30 6587 H 591.066 3.45231 3.50822 0
M  V30 6588 N 592.718 -0.936591 1.26751 0
M  V30 6589 C 593.681 -2.01752 1.08761 0
M  V30 6590 C 594.681 -1.60763 0.0344435 0
M  V30 6591 O 595.871 -1.71963 0.278258 0
M  V30 6592 C 593.003 -3.34543 0.655271 0
M  V30 6593 H 594.196 -2.19143 2.04735 0
M  V30 6594 H 591.749 -1.11618 1.09413 0
M  V30 6595 H 592.484 -3.22851 -0.30626 0
M  V30 6596 H 592.269 -3.65647 1.41578 0
M  V30 6597 H 593.759 -4.13944 0.551378 0
M  V30 6598 N 594.196 -1.08629 -1.14182 0
M  V30 6599 C 595.126 -0.740003 -2.21464 0
M  V30 6600 C 596.107 0.278591 -1.67803 0
M  V30 6601 O 597.292 0.148461 -1.93632 0
M  V30 6602 C 594.422 -0.150952 -3.46972 0
M  V30 6603 C 593.376 -1.09815 -4.13672 0
M  V30 6604 C 592.702 -0.3712 -5.3341 0
M  V30 6605 C 594.002 -2.43722 -4.61949 0
M  V30 6606 H 595.696 -1.63697 -2.50686 0
M  V30 6607 H 593.242 -0.788526 -1.20492 0
M  V30 6608 H 595.195 0.103325 -4.21273 0
M  V30 6609 H 593.919 0.781164 -3.1712 0
M  V30 6610 H 592.578 -1.33756 -3.41328 0
M  V30 6611 H 592.226 0.564792 -4.99819 0
M  V30 6612 H 591.926 -1.00267 -5.78982 0
M  V30 6613 H 593.45 -0.12503 -6.10472 0
M  V30 6614 H 594.864 -2.24034 -5.27714 0
M  V30 6615 H 593.261 -3.02582 -5.18232 0
M  V30 6616 H 594.331 -3.05082 -3.76899 0
M  V30 6617 N 595.674 1.31259 -0.872281 0
M  V30 6618 C 596.899 2.0133 -0.498099 0
M  V30 6619 C 597.324 1.65031 0.902568 0
M  V30 6620 O 596.682 0.860164 1.59596 0
M  V30 6621 C 596.73 3.54411 -0.665205 0
M  V30 6622 O 595.834 4.11347 0.294473 0
M  V30 6623 H 595.175 0.633844 -0.197832 0
M  V30 6624 H 597.705 1.67402 -1.17633 0
M  V30 6625 H 597.715 4.04147 -0.559373 0
M  V30 6626 H 596.39 3.80171 -1.68651 0
M  V30 6627 H 594.967 3.72624 0.143403 0
M  V30 6628 N 597.152 0.631951 1.44375 0
M  V30 6629 C 598.399 0.136767 2.02038 0
M  V30 6630 C 598.727 -1.24168 1.49709 0
M  V30 6631 O 597.982 -1.83809 0.671763 0
M  V30 6632 C 598.281 0.0735861 3.57324 0
M  V30 6633 C 597.947 1.39092 4.28911 0
M  V30 6634 C 596.609 1.75171 4.48184 0
M  V30 6635 C 598.961 2.26042 4.69632 0
M  V30 6636 C 596.289 2.97907 5.05439 0
M  V30 6637 C 598.641 3.4805 5.28246 0
M  V30 6638 C 597.305 3.84351 5.45738 0
M  V30 6639 H 596.575 0.0500466 0.739308 0
M  V30 6640 H 599.222 0.818429 1.7313 0
M  V30 6641 H 597.527 -0.691449 3.8565 0
M  V30 6642 H 599.224 -0.326091 3.99672 0
M  V30 6643 H 595.814 1.10015 4.1424 0
M  V30 6644 H 599.998 1.99463 4.54454 0
M  V30 6645 H 595.254 3.26108 5.17169 0
M  V30 6646 H 599.428 4.15658 5.5875 0
M  V30 6647 H 597.055 4.79538 5.8987 0
M  V30 6648 N 598.631 -1.53133 0.372548 0
M  V30 6649 C 599.877 -2.01654 -0.215277 0
M  V30 6650 C 600.21 -1.25914 -1.47849 0
M  V30 6651 O 599.485 -0.3548 -1.91237 0
M  V30 6652 C 599.768 -3.56609 -0.500187 0
M  V30 6653 C 599.621 -4.43036 0.777145 0
M  V30 6654 C 600.94 -4.20528 -1.29786 0
M  V30 6655 H 598.059 -0.732991 -0.0767686 0
M  V30 6656 H 600.701 -1.83335 0.498814 0
M  V30 6657 H 598.851 -3.7235 -1.10852 0
M  V30 6658 H 600.523 -4.39079 1.41447 0
M  V30 6659 H 598.766 -4.10723 1.39604 0
M  V30 6660 H 599.437 -5.49424 0.532662 0
M  V30 6661 H 601.913 -4.08663 -0.783198 0
M  V30 6662 H 600.789 -5.28962 -1.46596 0
M  V30 6663 H 601.05 -3.77051 -2.30836 0
M  V30 6664 N 600.109 -0.101901 -1.5727 0
M  V30 6665 C 601.334 0.571759 -1.99363 0
M  V30 6666 C 601.759 1.60507 -0.980768 0
M  V30 6667 O 601.117 1.81231 0.0498517 0
M  V30 6668 C 601.165 1.18996 -3.404 0
M  V30 6669 O 600.269 2.30572 -3.41922 0
M  V30 6670 H 599.61 0.144449 -0.648098 0
M  V30 6671 H 602.14 -0.185325 -2.03759 0
M  V30 6672 H 602.15 1.52962 -3.78241 0
M  V30 6673 H 600.825 0.432984 -4.1364 0
M  V30 6674 H 599.402 1.98173 -3.15883 0
M  V30 6675 N 601.587 1.56661 0.17182 0
M  V30 6676 C 602.517 1.99401 1.21498 0
M  V30 6677 C 603.498 0.869516 1.46197 0
M  V30 6678 O 604.683 1.13556 1.57539 0
M  V30 6679 C 601.813 2.35346 2.55401 0
M  V30 6680 C 600.767 3.5075 2.45272 0
M  V30 6681 C 600.093 3.72437 3.8366 0
M  V30 6682 C 601.393 4.84216 1.95787 0
M  V30 6683 H 603.087 2.86792 0.859699 0
M  V30 6684 H 600.633 1.37977 0.412103 0
M  V30 6685 H 602.586 2.63843 3.2858 0
M  V30 6686 H 601.31 1.44864 2.92715 0
M  V30 6687 H 599.969 3.2238 1.74547 0
M  V30 6688 H 599.617 2.79246 4.18367 0
M  V30 6689 H 599.317 4.50087 3.77751 0
M  V30 6690 H 600.841 4.03334 4.58426 0
M  V30 6691 H 602.255 5.11592 2.5874 0
M  V30 6692 H 600.652 5.65498 2.00827 0
M  V30 6693 H 601.722 4.76243 0.912159 0
M  V30 6694 N 603.065 -0.440357 1.51323 0
M  V30 6695 C 604.311 -1.19181 1.64085 0
M  V30 6696 C 604.644 -1.90936 0.354575 0
M  V30 6697 O 603.919 -1.8347 -0.645675 0
M  V30 6698 C 604.202 -2.2112 2.84215 0
M  V30 6699 C 604.055 -1.53468 4.22809 0
M  V30 6700 C 605.374 -3.22133 2.99864 0
M  V30 6701 H 602.493 -0.431924 0.597169 0
M  V30 6702 H 605.135 -0.481443 1.83799 0
M  V30 6703 H 603.285 -2.81703 2.67537 0
M  V30 6704 H 604.957 -0.962455 4.51148 0
M  V30 6705 H 603.2 -0.837086 4.25647 0
M  V30 6706 H 603.871 -2.27694 5.02852 0
M  V30 6707 H 606.347 -2.71601 3.15233 0
M  V30 6708 H 605.223 -3.90756 3.85488 0
M  V30 6709 H 605.484 -3.88061 2.11804 0
M  V30 6710 N 604.543 -1.41418 -0.695603 0
M  V30 6711 C 605.82 -1.31264 -1.45014 0
M  V30 6712 C 606.2 0.0597994 -2.11015 0
M  V30 6713 O 605.548 1.07403 -2.01685 0
M  V30 6714 C 605.758 -2.466 -2.4696 0
M  V30 6715 C 607.106 -2.87763 -3.12214 0
M  V30 6716 O 608.13 -2.46339 -2.57285 0
M  V30 6717 O 606.989 -3.59395 -4.11701 0
M  V30 6718 H 604.083 -0.516576 -0.645816 0
M  V30 6719 H 606.629 -1.53382 -0.726084 0
M  V30 6720 H 605.401 -3.38183 -1.96845 0
M  V30 6721 H 605.024 -2.26358 -3.26876 0
M  V30 6722 N 606.021 0.929856 -1.27246 0
M  V30 6723 C 607.269 1.674 -1.13233 0
M  V30 6724 C 607.59 1.92311 0.322744 0
M  V30 6725 O 606.86 1.52784 1.22612 0
M  V30 6726 H 605.44 0.620411 -0.416052 0
M  V30 6727 H 608.102 1.11663 -1.59741 0
M  V30 6728 H 607.198 2.64308 -1.65975 0
M  V30 6729 N 607.499 1.09233 1.13605 0
M  V30 6730 C 608.729 0.847677 1.88409 0
M  V30 6731 C 609.137 -0.604524 1.79282 0
M  V30 6732 O 608.48 -1.42773 1.15592 0
M  V30 6733 C 608.542 1.20153 3.38827 0
M  V30 6734 C 608.206 2.65824 3.71735 0
M  V30 6735 C 609.203 3.64072 3.71143 0
M  V30 6736 C 606.888 3.01894 4.01454 0
M  V30 6737 C 608.882 4.96419 3.99808 0
M  V30 6738 C 606.569 4.34433 4.29781 0
M  V30 6739 C 607.567 5.31505 4.28942 0
M  V30 6740 O 607.255 6.61659 4.56576 0
M  V30 6741 H 606.987 0.304813 0.603378 0
M  V30 6742 H 609.541 1.4573 1.44748 0
M  V30 6743 H 607.771 0.534946 3.82982 0
M  V30 6744 H 609.46 0.936349 3.94952 0
M  V30 6745 H 610.226 3.37549 3.4826 0
M  V30 6746 H 606.105 2.26971 4.01255 0
M  V30 6747 H 609.649 5.7218 3.99069 0
M  V30 6748 H 605.546 4.607 4.52135 0
M  V30 6749 H 606.314 6.67102 4.74254 0
M  V30 6750 N 608.977 -1.30795 0.87923 0
M  V30 6751 C 610.224 -1.96362 0.494786 0
M  V30 6752 C 610.552 -1.69448 -0.954868 0
M  V30 6753 O 609.807 -0.988711 -1.68888 0
M  V30 6754 C 610.106 -3.50287 0.709476 0
M  V30 6755 C 609.772 -3.9724 2.13333 0
M  V30 6756 C 608.434 -4.09772 2.52271 0
M  V30 6757 C 610.786 -4.21807 3.06151 0
M  V30 6758 C 608.114 -4.44227 3.83248 0
M  V30 6759 C 610.466 -4.5773 4.36654 0
M  V30 6760 C 609.13 -4.68469 4.75492 0
M  V30 6761 H 608.4 -0.71854 0.181055 0
M  V30 6762 H 611.047 -1.55764 1.11399 0
M  V30 6763 H 609.352 -3.91799 0.0072 0
M  V30 6764 H 611.049 -3.99082 0.391703 0
M  V30 6765 H 607.639 -3.87988 1.82107 0
M  V30 6766 H 611.823 -4.11611 2.77291 0
M  V30 6767 H 607.079 -4.50741 4.13089 0
M  V30 6768 H 611.253 -4.7569 5.08617 0
M  V30 6769 H 608.88 -4.94923 5.77022 0
M  V30 6770 N 610.455 -0.639598 -1.44038 0
M  V30 6771 C 611.871 -0.305953 -1.5664 0
M  V30 6772 C 612.071 1.19055 -1.62567 0
M  V30 6773 O 611.127 1.97492 -1.57331 0
M  V30 6774 C 612.44 -1.00533 -2.83397 0
M  V30 6775 C 613.988 -0.984278 -2.97121 0
M  V30 6776 C 614.463 -1.66428 -4.26691 0
M  V30 6777 N 615.954 -1.63127 -4.33525 0
M  V30 6778 C 616.689 -2.12629 -5.32519 0
M  V30 6779 N 616.185 -2.70359 -6.3787 0
M  V30 6780 N 617.978 -2.03208 -5.24083 0
M  V30 6781 H 610.129 -1.6109 -1.38434 0
M  V30 6782 H 612.392 -0.676672 -0.663942 0
M  V30 6783 H 612.098 -2.06034 -2.85032 0
M  V30 6784 H 611.972 -0.548362 -3.73193 0
M  V30 6785 H 614.359 0.0622792 -2.95034 0
M  V30 6786 H 614.44 -1.47981 -2.08651 0
M  V30 6787 H 614.084 -2.71034 -4.29538 0
M  V30 6788 H 614.014 -1.14351 -5.14034 0
M  V30 6789 H 616.505 -1.20987 -3.58009 0
M  V30 6790 H 616.818 -3.05842 -7.09704 0
M  V30 6791 H 615.163 -2.74414 -6.38531 0
M  V30 6792 H 618.354 -1.57823 -4.40692 0
M  V30 6793 H 618.527 -2.42097 -6.01077 0
M  V30 6794 N 611.933 1.52934 -0.380664 0
M  V30 6795 C 612.863 2.29118 0.450268 0
M  V30 6796 C 613.844 1.32153 1.07096 0
M  V30 6797 O 615.029 1.61038 1.08537 0
M  V30 6798 C 612.159 3.09161 1.58231 0
M  V30 6799 C 611.113 4.13938 1.0881 0
M  V30 6800 C 610.439 4.82153 2.31155 0
M  V30 6801 C 611.739 5.22048 0.162146 0
M  V30 6802 H 613.433 2.98826 -0.185361 0
M  V30 6803 H 610.979 1.43715 -0.0905886 0
M  V30 6804 H 612.932 3.61211 2.17036 0
M  V30 6805 H 611.656 2.3717 2.2454 0
M  V30 6806 H 610.315 3.62855 0.522633 0
M  V30 6807 H 609.963 4.06719 2.95953 0
M  V30 6808 H 609.663 5.52966 1.98752 0
M  V30 6809 H 611.187 5.37004 2.90618 0
M  V30 6810 H 612.601 5.6951 0.658126 0
M  V30 6811 H 610.998 6.00057 -0.0717122 0
M  V30 6812 H 612.068 4.78398 -0.791438 0
M  V30 6813 N 613.412 0.11024 1.57214 0
M  V30 6814 C 614.64 -0.557834 1.99238 0
M  V30 6815 C 615.055 -1.60778 0.989734 0
M  V30 6816 O 614.412 -1.82491 -0.0186092 0
M  V30 6817 C 614.463 -1.19189 3.41286 0
M  V30 6818 O 614.184 -0.183919 4.37714 0
M  V30 6819 C 615.685 -1.94413 3.98395 0
M  V30 6820 H 612.905 -0.148392 0.654386 0
M  V30 6821 H 615.449 0.193996 2.03578 0
M  V30 6822 H 613.604 -1.89456 3.37913 0
M  V30 6823 H 614.018 -0.643475 5.20538 0
M  V30 6824 H 615.492 -2.34116 4.99894 0
M  V30 6825 H 615.969 -2.81592 3.3705 0
M  V30 6826 H 616.575 -1.28928 4.05287 0
M  V30 6827 N 614.89 -1.56749 -0.16351 0
M  V30 6828 C 615.853 -1.96121 -1.18613 0
M  V30 6829 C 616.853 -0.845765 -1.36761 0
M  V30 6830 O 618.043 -1.11268 -1.34033 0
M  V30 6831 C 615.175 -2.26282 -2.54969 0
M  V30 6832 H 616.368 -2.87639 -0.848764 0
M  V30 6833 H 613.921 -1.50928 -0.406251 0
M  V30 6834 H 614.656 -1.37504 -2.93706 0
M  V30 6835 H 614.441 -3.07595 -2.43162 0
M  V30 6836 H 615.931 -2.57638 -3.28653 0
M  V30 6837 N 616.368 0.432326 -1.51554 0
M  V30 6838 C 617.645 1.19288 -1.55015 0
M  V30 6839 C 618.025 2.08701 -0.317375 0
M  V30 6840 O 617.373 2.17602 0.697243 0
M  V30 6841 C 617.583 1.99037 -2.86679 0
M  V30 6842 C 618.931 2.55907 -3.38817 0
M  V30 6843 O 619.955 2.09243 -2.88263 0
M  V30 6844 O 618.814 3.41029 -4.27038 0
M  V30 6845 H 615.908 0.543369 -0.623441 0
M  V30 6846 H 618.454 0.440988 -1.6387 0
M  V30 6847 H 617.226 1.33397 -3.6786 0
M  V30 6848 H 616.849 2.81281 -2.8101 0
M  V30 6849 N 617.846 1.41785 0.688094 0
M  V30 6850 C 618.809 1.43936 1.78368 0
M  V30 6851 C 619.809 0.328866 1.57401 0
M  V30 6852 O 620.999 0.589093 1.63937 0
M  V30 6853 C 618.131 1.25804 3.16838 0
M  V30 6854 H 619.324 2.41472 1.77852 0
M  V30 6855 H 616.877 1.28037 0.896448 0
M  V30 6856 H 617.612 0.291386 3.22988 0
M  V30 6857 H 617.397 2.06272 3.33458 0
M  V30 6858 H 618.887 1.30162 3.96797 0
M  V30 6859 N 619.324 -0.923095 1.27737 0
M  V30 6860 C 620.274 -2.01061 1.0751 0
M  V30 6861 C 621.258 -1.609 0.00165451 0
M  V30 6862 O 622.45 -1.75618 0.220724 0
M  V30 6863 C 619.579 -3.35467 0.729162 0
M  V30 6864 C 618.665 -3.82059 1.84098 0
M  V30 6865 N 619.056 -4.01115 3.08124 0
M  V30 6866 C 617.354 -4.11135 1.7287 0
M  V30 6867 C 618.055 -4.39989 3.80506 0
M  V30 6868 N 617.031 -4.47721 3.08297 0
M  V30 6869 H 620.833 -2.13832 2.01626 0
M  V30 6870 H 618.347 -1.11027 1.18519 0
M  V30 6871 H 620.344 -4.13049 0.565355 0
M  V30 6872 H 619.004 -3.24056 -0.204334 0
M  V30 6873 H 620.015 -3.87294 3.43836 0
M  V30 6874 H 616.692 -4.08412 0.866352 0
M  V30 6875 H 618.082 -4.62773 4.87125 0
M  V30 6876 N 620.802 -1.09834 -1.13024 0
M  V30 6877 C 621.752 -0.710899 -2.16634 0
M  V30 6878 C 622.736 0.276836 -1.58501 0
M  V30 6879 O 623.928 0.0865457 -1.76788 0
M  V30 6880 C 621.057 -0.137574 -3.43024 0
M  V30 6881 C 620.143 -1.15198 -4.08155 0
M  V30 6882 N 620.534 -2.34054 -4.48388 0
M  V30 6883 C 618.832 -0.991074 -4.34849 0
M  V30 6884 C 619.533 -2.98616 -4.99203 0
M  V30 6885 N 618.509 -2.26159 -4.94321 0
M  V30 6886 H 622.311 -1.61576 -2.455 0
M  V30 6887 H 619.825 -0.975158 -1.29863 0
M  V30 6888 H 621.822 0.158031 -4.166 0
M  V30 6889 H 620.482 0.762088 -3.1563 0
M  V30 6890 H 621.493 -2.7162 -4.40957 0
M  V30 6891 H 618.17 -0.146448 -4.17243 0
M  V30 6892 H 619.56 -3.99683 -5.40096 0
M  V30 6893 N 622.28 1.30327 -0.886154 0
M  V30 6894 C 623.51 1.99964 -0.519421 0
M  V30 6895 C 623.918 1.66593 0.89686 0
M  V30 6896 O 623.261 0.899886 1.60149 0
M  V30 6897 C 623.323 3.54187 -0.615795 0
M  V30 6898 C 622.987 4.11078 -1.9966 0
M  V30 6899 C 623.984 4.26985 -2.96614 0
M  V30 6900 C 621.669 4.46429 -2.30231 0
M  V30 6901 C 623.663 4.77456 -4.22273 0
M  V30 6902 C 621.35 4.966 -3.56135 0
M  V30 6903 C 622.348 5.12066 -4.5197 0
M  V30 6904 O 622.036 5.61154 -5.7564 0
M  V30 6905 H 621.768 0.645979 -0.199217 0
M  V30 6906 H 624.322 1.67154 -1.19368 0
M  V30 6907 H 622.552 3.86528 0.115448 0
M  V30 6908 H 624.241 4.05065 -0.26017 0
M  V30 6909 H 625.007 3.99975 -2.74308 0
M  V30 6910 H 620.886 4.33658 -1.56404 0
M  V30 6911 H 624.43 4.89444 -4.97082 0
M  V30 6912 H 620.327 5.23045 -3.78277 0
M  V30 6913 H 621.095 5.79494 -5.78039 0
M  V30 6914 N 623.758 0.647228 1.43697 0
M  V30 6915 C 624.688 -0.0345631 2.33474 0
M  V30 6916 C 625.669 -0.818193 1.4913 0
M  V30 6917 O 626.854 -0.780867 1.77809 0
M  V30 6918 C 623.984 -1.00576 3.32418 0
M  V30 6919 C 622.938 -0.33266 4.26705 0
M  V30 6920 C 622.264 -1.41489 5.1564 0
M  V30 6921 C 623.564 0.771204 5.16575 0
M  V30 6922 H 625.258 0.715163 2.90733 0
M  V30 6923 H 622.804 0.345364 1.39797 0
M  V30 6924 H 624.757 -1.49159 3.94119 0
M  V30 6925 H 623.481 -1.78657 2.73403 0
M  V30 6926 H 622.14 0.13267 3.6636 0
M  V30 6927 H 621.788 -2.18698 4.52968 0
M  V30 6928 H 621.488 -0.969799 5.79542 0
M  V30 6929 H 623.012 -1.9022 5.80214 0
M  V30 6930 H 624.426 0.36779 5.72119 0
M  V30 6931 H 622.823 1.1404 5.89165 0
M  V30 6932 H 623.893 1.63169 4.56622 0
M  V30 6933 N 625.236 -1.5273 0.388769 0
M  V30 6934 C 626.476 -2.03483 -0.193372 0
M  V30 6935 C 626.84 -1.26897 -1.44087 0
M  V30 6936 O 628.041 -1.67773 -2.10014 0
M  V30 6937 C 626.312 -3.54488 -0.455325 0
M  V30 6938 S 627.871 -4.27069 -1.00783 0
M  V30 6939 H 624.689 -0.708907 -0.0545131 0
M  V30 6940 H 627.291 -1.8798 0.536993 0
M  V30 6941 H 625.995 -4.07817 0.459722 0
M  V30 6942 H 625.526 -3.74196 -1.21413 0
M  V30 6943 H 627.541 -4.40185 -2.29023 0
M  V30 6944 N 626.714 -0.118576 -1.57153 0
M  V30 6945 C 627.942 0.54726 -1.99531 0
M  V30 6946 C 628.357 1.60251 -0.998246 0
M  V30 6947 O 627.714 1.82498 0.00893106 0
M  V30 6948 C 627.765 1.17378 -3.41913 0
M  V30 6949 O 627.486 0.160703 -4.37805 0
M  V30 6950 C 628.987 1.92297 -3.9942 0
M  V30 6951 H 626.207 0.144919 -0.655164 0
M  V30 6952 H 628.751 -0.20479 -2.03472 0
M  V30 6953 H 626.906 1.87661 -3.38913 0
M  V30 6954 H 627.32 0.61586 -5.20872 0
M  V30 6955 H 628.794 2.31462 -5.01128 0
M  V30 6956 H 629.271 2.79801 -3.38538 0
M  V30 6957 H 629.877 1.26777 -4.05965 0
M  V30 6958 N 628.193 1.56834 0.155195 0
M  V30 6959 C 629.47 1.73799 0.897395 0
M  V30 6960 C 629.85 0.684379 1.99698 0
M  V30 6961 O 629.198 -0.298111 2.26547 0
M  V30 6962 C 629.408 3.17572 1.44737 0
M  V30 6963 C 630.756 3.79014 1.91399 0
M  V30 6964 O 631.78 3.20951 1.54496 0
M  V30 6965 O 630.639 4.80998 2.59429 0
M  V30 6966 H 627.733 0.710329 0.423511 0
M  V30 6967 H 630.279 1.69107 0.141761 0
M  V30 6968 H 629.051 3.85749 0.656741 0
M  V30 6969 H 628.674 3.26657 2.26674 0
M  V30 6970 N 629.671 -0.424282 1.51781 0
M  V30 6971 C 630.917 -1.17434 1.6534 0
M  V30 6972 C 631.25 -1.90549 0.374806 0
M  V30 6973 O 630.525 -1.84145 -0.626179 0
M  V30 6974 C 630.808 -2.18093 2.86544 0
M  V30 6975 C 630.661 -1.48975 4.24413 0
M  V30 6976 C 631.98 -3.18934 3.03264 0
M  V30 6977 H 629.099 -0.425566 0.601716 0
M  V30 6978 H 631.741 -0.461921 1.84299 0
M  V30 6979 H 629.891 -2.78849 2.7051 0
M  V30 6980 H 631.563 -0.914551 4.52143 0
M  V30 6981 H 629.806 -0.791893 4.26511 0
M  V30 6982 H 630.477 -2.22347 5.05238 0
M  V30 6983 H 632.953 -2.68243 3.18096 0
M  V30 6984 H 631.829 -3.86645 3.89611 0
M  V30 6985 H 632.09 -3.85793 2.15908 0
M  V30 6986 N 631.149 -1.42148 -0.680565 0
M  V30 6987 C 632.112 -1.4488 -1.77602 0
M  V30 6988 C 633.112 -0.337209 -1.57224 0
M  V30 6989 O 634.302 -0.597778 -1.63622 0
M  V30 6990 C 631.434 -1.27483 -3.16166 0
M  V30 6991 H 632.627 -2.42412 -1.76568 0
M  V30 6992 H 630.18 -1.28511 -0.889645 0
M  V30 6993 H 630.915 -0.30851 -3.22829 0
M  V30 6994 H 630.7 -2.08037 -3.3236 0
M  V30 6995 H 632.19 -1.32265 -3.96101 0
M  V30 6996 N 632.627 0.916307 -1.28225 0
M  V30 6997 C 634.038 1.48024 -1.13779 0
M  V30 6998 C 634.389 1.94289 0.273139 0
M  V30 6999 O 633.514 1.82226 1.16716 0
M  V30 7000 C 634.109 2.69029 -2.05935 0
M  V30 7001 C 632.668 3.2161 -1.95561 0
M  V30 7002 C 631.815 1.94321 -1.97825 0
M  V30 7003 H 634.766 0.729272 -1.40951 0
M  V30 7004 H 634.787 3.44204 -1.62184 0
M  V30 7005 H 634.299 2.35325 -3.08616 0
M  V30 7006 H 632.4 3.60045 -0.959076 0
M  V30 7007 H 632.513 3.87032 -2.82388 0
M  V30 7008 H 630.877 2.1131 -1.42198 0
M  V30 7009 H 631.66 1.62917 -3.0218 0
M  V30 7010 N 634.105 1.10431 1.1244 0
M  V30 7011 C 635.516 0.864439 1.65482 0
M  V30 7012 C 635.867 -0.60527 1.8663 0
M  V30 7013 O 634.992 -1.46492 1.59276 0
M  V30 7014 C 635.587 1.56267 3.0061 0
M  V30 7015 C 634.146 1.3695 3.50602 0
M  V30 7016 C 633.293 1.61209 2.25626 0
M  V30 7017 H 636.244 1.26203 0.962209 0
M  V30 7018 H 636.265 1.00166 3.67079 0
M  V30 7019 H 635.777 2.63231 2.85186 0
M  V30 7020 H 633.878 0.321481 3.71211 0
M  V30 7021 H 633.991 2.11143 4.30064 0
M  V30 7022 H 632.355 1.03482 2.32731 0
M  V30 7023 H 633.138 2.69425 2.12756 0
M  V30 7024 N 635.583 -1.29855 0.893053 0
M  V30 7025 C 636.513 -2.3035 0.382249 0
M  V30 7026 C 637.494 -1.61328 -0.539203 0
M  V30 7027 O 638.679 -1.88882 -0.451342 0
M  V30 7028 C 635.809 -3.45024 -0.396983 0
M  V30 7029 C 634.763 -4.258 0.433437 0
M  V30 7030 C 634.089 -5.32605 -0.472889 0
M  V30 7031 C 635.389 -4.94549 1.67984 0
M  V30 7032 H 637.083 -2.73325 1.22205 0
M  V30 7033 H 634.629 -1.314 0.589073 0
M  V30 7034 H 636.582 -4.14398 -0.765024 0
M  V30 7035 H 635.306 -3.00875 -1.2705 0
M  V30 7036 H 633.965 -3.58125 0.783723 0
M  V30 7037 H 633.613 -4.84702 -1.34435 0
M  V30 7038 H 633.313 -5.87547 0.0789958 0
M  V30 7039 H 634.837 -6.04832 -0.837269 0
M  V30 7040 H 636.251 -5.56395 1.38192 0
M  V30 7041 H 634.648 -5.59393 2.17254 0
M  V30 7042 H 635.718 -4.20215 2.41965 0
M  V30 7043 N 637.061 -0.65484 -1.43351 0
M  V30 7044 C 638.31 -0.166215 -2.01014 0
M  V30 7045 C 638.623 1.22764 -1.52278 0
M  V30 7046 O 639.829 1.81156 -2.02224 0
M  V30 7047 C 638.285 -0.246341 -3.59056 0
M  V30 7048 C 637.893 -1.64299 -4.16785 0
M  V30 7049 C 639.637 0.184597 -4.24098 0
M  V30 7050 C 637.544 -1.67695 -5.67126 0
M  V30 7051 H 636.474 -0.0583769 -0.751737 0
M  V30 7052 H 639.125 -0.817111 -1.64303 0
M  V30 7053 H 637.507 0.472092 -3.93176 0
M  V30 7054 H 638.681 -2.3869 -3.94162 0
M  V30 7055 H 636.996 -2.02004 -3.6412 0
M  V30 7056 H 639.593 0.179088 -5.344 0
M  V30 7057 H 639.936 1.21632 -3.98135 0
M  V30 7058 H 640.469 -0.482141 -3.94867 0
M  V30 7059 H 637.208 -2.68783 -5.9786 0
M  V30 7060 H 636.728 -0.976313 -5.91801 0
M  V30 7061 H 638.407 -1.42142 -6.31193 0
M  V30 7062 N 638.539 1.52521 -0.396863 0
M  V30 7063 C 639.785 2.01971 0.183169 0
M  V30 7064 C 640.118 1.2825 1.45827 0
M  V30 7065 O 639.393 0.385179 1.90648 0
M  V30 7066 C 639.676 3.5736 0.443391 0
M  V30 7067 C 639.529 4.41743 -0.84753 0
M  V30 7068 C 640.848 4.22539 1.2308 0
M  V30 7069 H 637.967 0.734119 0.0650976 0
M  V30 7070 H 640.609 1.82519 -0.527918 0
M  V30 7071 H 638.759 3.74066 1.04914 0
M  V30 7072 H 640.431 4.36773 -1.48414 0
M  V30 7073 H 638.674 4.0845 -1.4612 0
M  V30 7074 H 639.345 5.48507 -0.620003 0
M  V30 7075 H 641.821 4.09857 0.718084 0
M  V30 7076 H 640.697 5.31227 1.38162 0
M  V30 7077 H 640.958 3.80675 2.24808 0
M  V30 7078 N 640.017 0.126909 1.57088 0
M  V30 7079 C 640.967 -0.831678 2.1229 0
M  V30 7080 C 641.951 -1.22292 1.04564 0
M  V30 7081 O 643.143 -1.19269 1.30782 0
M  V30 7082 C 640.272 -2.07866 2.73215 0
M  V30 7083 C 639.358 -1.71143 3.88035 0
M  V30 7084 N 639.749 -1.05136 4.94753 0
M  V30 7085 C 638.047 -2.00549 3.98367 0
M  V30 7086 C 638.748 -0.877257 5.75047 0
M  V30 7087 N 637.724 -1.40477 5.25135 0
M  V30 7088 H 641.526 -0.317926 2.92175 0
M  V30 7089 H 639.04 -0.0753052 1.62225 0
M  V30 7090 H 641.037 -2.77516 3.11111 0
M  V30 7091 H 639.697 -2.59778 1.94796 0
M  V30 7092 H 640.708 -0.71442 5.12949 0
M  V30 7093 H 637.385 -2.54452 3.30999 0
M  V30 7094 H 638.775 -0.358536 6.70943 0
M  V30 7095 N 641.495 -1.56914 -0.146875 0
M  V30 7096 C 642.443 -1.99224 -1.20053 0
M  V30 7097 C 643.437 -0.884661 -1.44465 0
M  V30 7098 O 644.643 -1.06984 -1.44756 0
M  V30 7099 H 641.018 -0.634191 -0.404112 0
M  V30 7100 H 642.989 -2.86998 -0.816987 0
M  V30 7101 C 641.738 -2.38899 -2.52632 0
M  V30 7102 H 641.061 -3.23677 -2.34677 0
M  V30 7103 H 642.501 -2.72326 -3.24984 0
M  V30 7104 C 640.96 -1.2417 -3.13183 0
M  V30 7105 O 641.49 -0.542503 -3.9802 0
M  V30 7106 N 639.696 -1.00592 -2.72635 0
M  V30 7107 H 639.243 -1.57627 -2.03744 0
M  V30 7108 H 639.201 -0.240174 -3.13481 0
M  V30 7109 N 642.974 0.416227 -1.52004 0
M  V30 7110 C 644.223 1.16088 -1.64944 0
M  V30 7111 C 644.536 1.91835 -0.381928 0
M  V30 7112 O 645.742 2.6867 -0.391013 0
M  V30 7113 C 644.198 2.1124 -2.91386 0
M  V30 7114 C 643.806 1.41042 -4.25219 0
M  V30 7115 C 645.55 2.86008 -3.13688 0
M  V30 7116 C 643.457 2.34801 -5.42791 0
M  V30 7117 H 642.387 0.437041 -0.61442 0
M  V30 7118 H 645.038 0.425971 -1.78487 0
M  V30 7119 H 643.42 2.88254 -2.71525 0
M  V30 7120 H 644.594 0.694416 -4.55538 0
M  V30 7121 H 642.909 0.78344 -4.08964 0
M  V30 7122 H 645.506 3.56286 -3.98703 0
M  V30 7123 H 645.849 3.48556 -2.27628 0
M  V30 7124 H 646.382 2.16095 -3.33988 0
M  V30 7125 H 643.121 1.7691 -6.31176 0
M  V30 7126 H 642.641 3.04395 -5.16821 0
M  V30 7127 H 644.32 2.9548 -5.75587 0
M  V30 7128 N 644.452 1.42507 0.673017 0
M  V30 7129 C 645.384 1.42074 1.79854 0
M  V30 7130 C 646.397 0.319569 1.59633 0
M  V30 7131 O 647.586 0.582769 1.68719 0
M  V30 7132 C 644.686 1.19886 3.16987 0
M  V30 7133 C 643.859 2.42471 3.64042 0
M  V30 7134 C 642.918 2.15802 4.79913 0
M  V30 7135 O 641.944 2.89015 4.90366 0
M  V30 7136 N 643.146 1.16225 5.68746 0
M  V30 7137 H 645.911 2.3909 1.8071 0
M  V30 7138 H 643.472 1.37409 0.856171 0
M  V30 7139 H 645.464 0.999591 3.92161 0
M  V30 7140 H 644.034 0.313879 3.1102 0
M  V30 7141 H 643.254 2.77954 2.79526 0
M  V30 7142 H 644.542 3.24097 3.92223 0
M  V30 7143 H 643.94 0.556756 5.62954 0
M  V30 7144 H 642.497 1.02285 6.43724 0
M  V30 7145 N 645.93 -0.909495 1.28709 0
M  V30 7146 C 646.878 -2.03381 1.12866 0
M  V30 7147 C 647.872 -1.69335 0.0468074 0
M  V30 7148 O 649.078 -1.78819 0.205891 0
M  V30 7149 H 645.453 -0.666452 0.348348 0
M  V30 7150 H 647.424 -2.13885 2.08077 0
M  V30 7151 C 646.173 -3.38092 0.811742 0
M  V30 7152 H 645.496 -3.64786 1.63619 0
M  V30 7153 H 646.936 -4.17477 0.740869 0
M  V30 7154 C 645.395 -3.33395 -0.484679 0
M  V30 7155 O 645.925 -3.72089 -1.5137 0
M  V30 7156 N 644.131 -2.86491 -0.486961 0
M  V30 7157 H 643.678 -2.55199 0.350877 0
M  V30 7158 H 643.636 -2.83731 -1.3544 0
M  V30 7159 N 647.408 -1.11026 -1.11852 0
M  V30 7160 C 648.656 -0.854769 -1.83134 0
M  V30 7161 C 648.977 0.621375 -1.84835 0
M  V30 7162 O 648.247 1.45129 -1.31584 0
M  V30 7163 H 646.827 -0.313229 -0.678157 0
M  V30 7164 H 649.489 -1.40178 -1.35411 0
M  V30 7165 H 648.585 -1.22311 -2.87135 0
M  V30 7166 N 648.886 1.2938 -0.899927 0
M  V30 7167 C 650.126 1.97332 -0.532871 0
M  V30 7168 C 650.49 1.69385 0.904029 0
M  V30 7169 O 651.691 2.30793 1.37797 0
M  V30 7170 C 649.962 3.47927 -0.817393 0
M  V30 7171 S 651.521 4.3528 -0.55468 0
M  V30 7172 H 648.339 0.682966 -0.197683 0
M  V30 7173 H 650.941 1.57189 -1.16241 0
M  V30 7174 H 649.645 3.65761 -1.86138 0
M  V30 7175 H 649.176 3.93006 -0.175978 0
M  V30 7176 H 651.191 4.92557 0.600182 0
M  V30 7177 N 650.364 0.662433 1.43002 0
M  V30 7178 C 651.314 -0.0460442 2.27954 0
M  V30 7179 C 652.298 -0.785753 1.40409 0
M  V30 7180 O 653.49 -0.666701 1.63964 0
M  V30 7181 C 650.619 -1.00532 3.2825 0
M  V30 7182 C 649.705 -0.263604 4.2328 0
M  V30 7183 N 650.096 0.724855 5.00579 0
M  V30 7184 C 648.394 -0.503778 4.43146 0
M  V30 7185 C 649.095 1.16594 5.69895 0
M  V30 7186 N 648.071 0.498345 5.41311 0
M  V30 7187 H 651.873 0.712314 2.85137 0
M  V30 7188 H 649.387 0.490469 1.54817 0
M  V30 7189 H 651.384 -1.52775 3.87899 0
M  V30 7190 H 650.044 -1.76364 2.72628 0
M  V30 7191 H 651.055 1.10393 5.05998 0
M  V30 7192 H 647.732 -1.24255 3.98581 0
M  V30 7193 H 649.122 1.98434 6.4193 0
M  V30 7194 N 651.842 -1.52309 0.404946 0
M  V30 7195 C 653.09 -2.01368 -0.17186 0
M  V30 7196 C 653.411 -1.29261 -1.46002 0
M  V30 7197 O 652.681 -0.41729 -1.91404 0
M  V30 7198 H 651.261 -0.744034 -0.0664993 0
M  V30 7199 H 653.923 -1.87263 0.540228 0
M  V30 7200 H 653.019 -3.09888 -0.370957 0
M  V30 7201 N 653.32 -0.135238 -1.57019 0
M  V30 7202 C 654.731 0.387521 -1.82634 0
M  V30 7203 C 655.082 1.65528 -1.05332 0
M  V30 7204 O 654.207 2.14381 -0.294926 0
M  V30 7205 C 654.802 0.709852 -3.3128 0
M  V30 7206 C 653.361 1.17718 -3.57518 0
M  V30 7207 C 652.508 0.194183 -2.76619 0
M  V30 7208 H 655.459 -0.360126 -1.5456 0
M  V30 7209 H 655.48 1.5657 -3.46794 0
M  V30 7210 H 654.992 -0.213024 -3.87515 0
M  V30 7211 H 653.093 2.1164 -3.06658 0
M  V30 7212 H 653.206 1.11128 -4.66034 0
M  V30 7213 H 651.57 0.684478 -2.4533 0
M  V30 7214 H 652.353 -0.722076 -3.3562 0
M  V30 7215 N 654.798 1.5699 0.138552 0
M  V30 7216 C 656.047 1.82998 0.848205 0
M  V30 7217 C 656.36 0.717829 1.81952 0
M  V30 7218 O 657.566 0.863756 2.57394 0
M  V30 7219 C 656.022 3.24379 1.55904 0
M  V30 7220 C 655.63 4.43552 0.62971 0
M  V30 7221 C 657.374 3.59654 2.25498 0
M  V30 7222 C 655.281 5.75957 1.34266 0
M  V30 7223 H 654.211 0.682495 0.320495 0
M  V30 7224 H 656.862 1.83222 0.100924 0
M  V30 7225 H 655.244 3.18567 2.35226 0
M  V30 7226 H 656.418 4.6062 -0.128882 0
M  V30 7227 H 654.733 4.16379 0.0417526 0
M  V30 7228 H 657.33 4.55837 2.79493 0
M  V30 7229 H 657.673 2.86124 3.02388 0
M  V30 7230 H 658.206 3.67164 1.53087 0
M  V30 7231 H 654.945 6.52604 0.615441 0
M  V30 7232 H 654.465 5.62811 2.07375 0
M  V30 7233 H 656.144 6.19046 1.88126 0
M  V30 7234 N 656.276 -0.40816 1.52223 0
M  V30 7235 C 657.516 -1.16418 1.68006 0
M  V30 7236 C 657.88 -1.87749 0.401793 0
M  V30 7237 O 659.081 -2.65245 0.435743 0
M  V30 7238 C 657.352 -2.13143 2.86889 0
M  V30 7239 S 658.911 -2.96839 3.2316 0
M  V30 7240 H 655.729 -0.394373 0.5916 0
M  V30 7241 H 658.331 -0.451349 1.90219 0
M  V30 7242 H 657.035 -1.59428 3.78168 0
M  V30 7243 H 656.566 -2.88963 2.66953 0
M  V30 7244 H 658.581 -4.151 2.71857 0
M  V30 7245 N 657.755 -1.42862 -0.66545 0
M  V30 7246 C 658.983 -1.47246 -1.45349 0
M  V30 7247 C 659.398 -0.0865944 -1.88601 0
M  V30 7248 O 658.755 0.900652 -1.58728 0
M  V30 7249 C 658.806 -2.40772 -2.6965 0
M  V30 7250 O 658.527 -3.73968 -2.2821 0
M  V30 7251 C 660.028 -2.54272 -3.63126 0
M  V30 7252 H 657.248 -0.500497 -0.446927 0
M  V30 7253 H 659.792 -1.87477 -0.816871 0
M  V30 7254 H 657.947 -2.0377 -3.29479 0
M  V30 7255 H 658.361 -4.24146 -3.08546 0
M  V30 7256 H 659.835 -3.23815 -4.47043 0
M  V30 7257 H 660.312 -1.58364 -4.09656 0
M  V30 7258 H 660.918 -2.92036 -3.09185 0
M  V30 7259 N 659.233 0.902656 -1.29189 0
M  V30 7260 C 660.143 2.03946 -1.15944 0
M  V30 7261 C 661.159 1.738 -0.0833803 0
M  V30 7262 O 662.335 1.9923 -0.29487 0
M  V30 7263 C 659.4 3.36519 -0.834006 0
M  V30 7264 C 658.461 3.80203 -1.9936 0
M  V30 7265 C 657.694 5.06449 -1.68359 0
M  V30 7266 O 657.917 5.67202 -0.603141 0
M  V30 7267 O 656.851 5.46114 -2.53067 0
M  V30 7268 H 660.677 2.18043 -2.11403 0
M  V30 7269 H 658.262 1.02584 -1.08613 0
M  V30 7270 H 660.144 4.16089 -0.666949 0
M  V30 7271 H 658.819 3.23573 0.0908245 0
M  V30 7272 H 657.726 3.01413 -2.21588 0
M  V30 7273 H 659.059 3.97729 -2.89952 0
M  V30 7274 N 660.711 1.11618 1.11262 0
M  V30 7275 C 661.941 0.88745 1.86569 0
M  V30 7276 C 662.349 -0.56636 1.80524 0
M  V30 7277 O 661.692 -1.40289 1.18594 0
M  V30 7278 C 661.754 1.27313 3.36202 0
M  V30 7279 C 661.418 2.73649 3.66013 0
M  V30 7280 C 662.415 3.71863 3.63337 0
M  V30 7281 C 660.1 3.10342 3.9496 0
M  V30 7282 C 662.094 5.04788 3.89188 0
M  V30 7283 C 659.781 4.43451 4.20469 0
M  V30 7284 C 660.779 5.40484 4.17572 0
M  V30 7285 O 660.467 6.71195 4.42439 0
M  V30 7286 H 660.199 0.317543 0.596777 0
M  V30 7287 H 662.753 1.48768 1.41624 0
M  V30 7288 H 660.983 0.616062 3.81761 0
M  V30 7289 H 662.672 1.01991 3.92877 0
M  V30 7290 H 663.438 3.44861 3.41022 0
M  V30 7291 H 659.317 2.35431 3.9635 0
M  V30 7292 H 662.861 5.80516 3.86842 0
M  V30 7293 H 658.758 4.70187 4.42261 0
M  V30 7294 H 659.526 6.77012 4.59997 0
M  V30 7295 N 662.189 -1.289 0.906776 0
M  V30 7296 C 663.152 -2.25777 0.394656 0
M  V30 7297 C 664.152 -1.53621 -0.475119 0
M  V30 7298 O 665.342 -1.71949 -0.279165 0
M  V30 7299 C 662.474 -3.38113 -0.43499 0
M  V30 7300 H 663.667 -2.72592 1.25033 0
M  V30 7301 H 661.22 -1.40463 0.685547 0
M  V30 7302 H 661.955 -2.96648 -1.31036 0
M  V30 7303 H 661.74 -3.91647 0.188334 0
M  V30 7304 H 663.23 -4.10168 -0.784365 0
M  V30 7305 N 663.667 -0.670007 -1.42649 0
M  V30 7306 C 664.916 -0.187526 -2.00826 0
M  V30 7307 C 665.229 1.21142 -1.53571 0
M  V30 7308 O 666.435 1.79001 -2.04134 0
M  V30 7309 C 664.891 -0.284409 -3.58774 0
M  V30 7310 C 664.499 -1.6871 -4.15019 0
M  V30 7311 C 666.243 0.139605 -4.2427 0
M  V30 7312 C 664.15 -1.73701 -5.65316 0
M  V30 7313 H 663.08 -0.0663468 -0.751075 0
M  V30 7314 H 665.731 -0.834492 -1.63427 0
M  V30 7315 H 664.113 0.430364 -3.93655 0
M  V30 7316 H 665.287 -2.42857 -3.91608 0
M  V30 7317 H 663.602 -2.05855 -3.61957 0
M  V30 7318 H 666.199 0.122398 -5.3456 0
M  V30 7319 H 666.542 1.17403 -3.99402 0
M  V30 7320 H 667.075 -0.523995 -3.94334 0
M  V30 7321 H 663.814 -2.75109 -5.94975 0
M  V30 7322 H 663.334 -1.03903 -5.90732 0
M  V30 7323 H 665.013 -1.48829 -6.2965 0
M  V30 7324 N 665.145 1.52092 -0.413018 0
M  V30 7325 C 666.093 2.28681 0.425199 0
M  V30 7326 C 667.087 1.3353 1.04241 0
M  V30 7327 O 668.293 1.50973 0.980166 0
M  V30 7328 H 664.668 0.735661 0.155906 0
M  V30 7329 H 666.639 2.97418 -0.241926 0
M  V30 7330 C 665.388 3.1235 1.5275 0
M  V30 7331 H 664.711 3.85439 1.06191 0
M  V30 7332 H 666.151 3.69038 2.08774 0
M  V30 7333 C 664.61 2.26161 2.49706 0
M  V30 7334 O 665.14 1.90452 3.53682 0
M  V30 7335 N 663.346 1.89854 2.20008 0
M  V30 7336 H 662.893 2.19092 1.35486 0
M  V30 7337 H 662.851 1.3248 2.85125 0
M  V30 7338 N 666.623 0.143563 1.56945 0
M  V30 7339 C 667.57 -0.797433 2.16586 0
M  V30 7340 C 668.54 -1.24654 1.09775 0
M  V30 7341 O 669.725 -1.31968 1.37801 0
M  V30 7342 C 666.865 -2.03253 2.78895 0
M  V30 7343 C 665.978 -1.62954 4.00087 0
M  V30 7344 C 665.113 -2.81617 4.50406 0
M  V30 7345 C 664.152 -2.37675 5.64072 0
M  V30 7346 N 663.289 -3.49335 6.09023 0
M  V30 7347 H 668.129 -0.282023 2.96662 0
M  V30 7348 H 665.666 -0.127494 1.46546 0
M  V30 7349 H 667.624 -2.75653 3.13163 0
M  V30 7350 H 666.254 -2.52211 2.01469 0
M  V30 7351 H 665.306 -0.803322 3.71821 0
M  V30 7352 H 666.618 -1.26679 4.82446 0
M  V30 7353 H 665.772 -3.62212 4.86711 0
M  V30 7354 H 664.511 -3.21134 3.67048 0
M  V30 7355 H 663.516 -1.55519 5.27346 0
M  V30 7356 H 664.741 -1.99247 6.49213 0
M  V30 7357 H 662.687 -3.8848 5.28601 0
M  V30 7358 H 662.604 -3.17064 6.86299 0
M  V30 7359 H 663.872 -4.30297 6.49973 0
M  V30 7360 N 668.101 -1.57061 -0.130224 0
M  V30 7361 C 669.031 -2.02552 -1.16168 0
M  V30 7362 C 670.012 -0.907971 -1.4384 0
M  V30 7363 O 671.197 -1.17693 -1.54473 0
M  V30 7364 C 668.327 -2.42035 -2.49071 0
M  V30 7365 C 667.281 -3.5713 -2.35886 0
M  V30 7366 C 666.607 -3.82478 -3.7365 0
M  V30 7367 C 667.907 -4.89236 -1.8288 0
M  V30 7368 H 669.601 -2.8897 -0.783359 0
M  V30 7369 H 667.147 -1.39021 -0.375376 0
M  V30 7370 H 669.1 -2.72462 -3.21469 0
M  V30 7371 H 667.824 -1.52573 -2.88771 0
M  V30 7372 H 666.483 -3.26895 -1.65938 0
M  V30 7373 H 666.131 -2.9024 -4.10816 0
M  V30 7374 H 665.831 -4.59944 -3.65685 0
M  V30 7375 H 667.355 -4.15347 -4.47571 0
M  V30 7376 H 668.769 -5.18272 -2.45085 0
M  V30 7377 H 667.166 -5.70624 -1.85763 0
M  V30 7378 H 668.236 -4.78494 -0.785571 0
M  V30 7379 N 669.579 0.400081 -1.52437 0
M  V30 7380 C 670.995 0.739359 -1.41441 0
M  V30 7381 C 671.195 1.94512 -0.526053 0
M  V30 7382 O 670.251 2.525 0.00472502 0
M  V30 7383 C 671.564 0.984824 -2.84116 0
M  V30 7384 C 673.112 1.08698 -2.93519 0
M  V30 7385 C 673.587 1.36515 -4.37181 0
M  V30 7386 N 675.078 1.43361 -4.40457 0
M  V30 7387 C 675.813 1.66528 -5.48686 0
M  V30 7388 N 675.309 1.87239 -6.67018 0
M  V30 7389 N 677.102 1.68617 -5.36213 0
M  V30 7390 H 669.253 -0.393484 -2.08723 0
M  V30 7391 H 671.516 -0.1138 -0.941145 0
M  V30 7392 H 671.222 0.171096 -3.51284 0
M  V30 7393 H 671.096 1.90253 -3.25705 0
M  V30 7394 H 673.483 1.89129 -2.26526 0
M  V30 7395 H 673.564 0.147432 -2.55375 0
M  V30 7396 H 673.208 0.565982 -5.04737 0
M  V30 7397 H 673.138 2.31737 -4.7287 0
M  V30 7398 H 675.629 1.29108 -3.55161 0
M  V30 7399 H 675.942 2.04392 -7.45281 0
M  V30 7400 H 674.287 1.84486 -6.70067 0
M  V30 7401 H 677.478 1.5198 -4.42741 0
M  V30 7402 H 677.651 1.86332 -6.20632 0
M  V30 7403 N 671.057 1.43213 0.657864 0
M  V30 7404 C 671.989 1.43974 1.78337 0
M  V30 7405 C 673.002 0.336482 1.59285 0
M  V30 7406 O 674.191 0.600631 1.68091 0
M  V30 7407 C 671.291 1.23242 3.15697 0
M  V30 7408 C 670.464 2.46319 3.61449 0
M  V30 7409 C 669.523 2.2088 4.77597 0
M  V30 7410 O 668.549 2.942 4.87273 0
M  V30 7411 N 669.751 1.22251 5.67481 0
M  V30 7412 H 672.516 2.40993 1.78164 0
M  V30 7413 H 670.077 1.3831 0.841549 0
M  V30 7414 H 672.069 1.04113 3.91079 0
M  V30 7415 H 670.639 0.346849 3.1067 0
M  V30 7416 H 669.859 2.80904 2.76563 0
M  V30 7417 H 671.147 3.28239 3.88763 0
M  V30 7418 H 670.545 0.616433 5.62331 0
M  V30 7419 H 669.102 1.09107 6.42603 0
M  V30 7420 N 672.536 -0.895792 1.29666 0
M  V30 7421 C 673.446 -2.03329 1.17024 0
M  V30 7422 C 674.462 -1.73753 0.0925962 0
M  V30 7423 O 675.638 -1.99071 0.305431 0
M  V30 7424 C 672.703 -3.36072 0.851841 0
M  V30 7425 C 671.764 -3.7914 2.01373 0
M  V30 7426 C 670.997 -5.05549 1.71043 0
M  V30 7427 O 671.22 -5.66874 0.633213 0
M  V30 7428 O 670.154 -5.44764 2.5596 0
M  V30 7429 H 673.98 -2.16918 2.12556 0
M  V30 7430 H 671.565 -1.02007 1.09156 0
M  V30 7431 H 673.447 -4.15729 0.689006 0
M  V30 7432 H 672.122 -3.23616 -0.0736634 0
M  V30 7433 H 671.029 -3.00233 2.23183 0
M  V30 7434 H 672.362 -3.96186 2.92058 0
M  V30 7435 N 674.014 -1.12206 -1.10668 0
M  V30 7436 C 675.262 -0.874144 -1.82217 0
M  V30 7437 C 675.583 0.601736 -1.85484 0
M  V30 7438 O 674.853 1.43725 -1.33116 0
M  V30 7439 H 673.433 -0.320404 -0.674797 0
M  V30 7440 H 676.095 -1.41606 -1.33917 0
M  V30 7441 H 675.191 -1.25349 -2.85822 0
M  V30 7442 N 675.492 1.28418 -0.913599 0
M  V30 7443 C 676.717 1.99643 -0.561899 0
M  V30 7444 C 677.142 1.67819 0.849608 0
M  V30 7445 O 676.5 0.910503 1.56779 0
M  V30 7446 C 676.548 3.52116 -0.777622 0
M  V30 7447 O 675.652 4.12076 0.163457 0
M  V30 7448 H 674.993 0.627229 -0.217898 0
M  V30 7449 H 677.523 1.63575 -1.229 0
M  V30 7450 H 677.533 4.02163 -0.687666 0
M  V30 7451 H 676.208 3.74613 -1.8066 0
M  V30 7452 H 674.785 3.72892 0.0247827 0
M  V30 7453 N 676.97 0.677563 1.42291 0
M  V30 7454 C 677.88 0.000962654 2.346 0
M  V30 7455 C 678.896 -0.785833 1.55244 0
M  V30 7456 O 680.072 -0.727523 1.87801 0
M  V30 7457 C 677.137 -0.936746 3.33805 0
M  V30 7458 C 676.198 -0.144173 4.29058 0
M  V30 7459 C 675.431 -1.03722 5.23524 0
M  V30 7460 O 675.654 -2.27675 5.22992 0
M  V30 7461 O 674.588 -0.496542 5.99848 0
M  V30 7462 H 678.414 0.761397 2.94001 0
M  V30 7463 H 675.999 0.43781 1.42841 0
M  V30 7464 H 677.881 -1.47497 3.94744 0
M  V30 7465 H 676.556 -1.67698 2.76874 0
M  V30 7466 H 675.463 0.438224 3.71524 0
M  V30 7467 H 676.796 0.55701 4.89038 0
M  V30 7468 N 678.448 -1.51871 0.421078 0
M  V30 7469 C 679.358 -2.31077 -0.405069 0
M  V30 7470 C 680.374 -1.39301 -1.04265 0
M  V30 7471 O 681.55 -1.72376 -1.04157 0
M  V30 7472 C 678.615 -3.12556 -1.50032 0
M  V30 7473 C 677.676 -4.20088 -0.884559 0
M  V30 7474 C 676.909 -4.97673 -1.92762 0
M  V30 7475 O 677.132 -4.75696 -3.14753 0
M  V30 7476 O 676.066 -5.82203 -1.52719 0
M  V30 7477 H 679.892 -3.02742 0.241086 0
M  V30 7478 H 677.477 -1.48263 0.183991 0
M  V30 7479 H 679.359 -3.6326 -2.13589 0
M  V30 7480 H 678.034 -2.43672 -2.13086 0
M  V30 7481 H 676.941 -3.73502 -0.211379 0
M  V30 7482 H 678.274 -4.91298 -0.297763 0
M  V30 7483 N 679.926 -0.151884 -1.56866 0
M  V30 7484 C 681.174 0.497021 -1.95893 0
M  V30 7485 C 681.495 1.65078 -1.03799 0
M  V30 7486 O 680.765 1.95642 -0.10049 0
M  V30 7487 H 679.345 0.186603 -0.723318 0
M  V30 7488 H 682.007 -0.228525 -1.93556 0
M  V30 7489 H 681.103 0.869933 -2.99731 0
M  V30 7490 N 681.404 1.57128 0.121893 0
M  V30 7491 C 682.337 1.95327 1.17995 0
M  V30 7492 C 683.315 0.822524 1.40262 0
M  V30 7493 O 684.499 1.08044 1.54463 0
M  V30 7494 C 681.626 2.24699 2.53432 0
M  V30 7495 C 680.672 3.47263 2.4761 0
M  V30 7496 S 681.505 4.99951 1.91857 0
M  V30 7497 C 682.661 5.32473 3.28973 0
M  V30 7498 H 682.894 2.84765 0.854182 0
M  V30 7499 H 680.427 1.50864 0.328534 0
M  V30 7500 H 682.385 2.423 3.31362 0
M  V30 7501 H 681.046 1.3588 2.83188 0
M  V30 7502 H 680.239 3.65171 3.4737 0
M  V30 7503 H 679.841 3.29034 1.778 0
M  V30 7504 H 682.133 5.27478 4.25175 0
M  V30 7505 H 683.076 6.33732 3.15895 0
M  V30 7506 H 683.484 4.59952 3.27268 0
M  V30 7507 N 682.882 -0.391992 1.52647 0
M  V30 7508 C 684.112 -1.15692 1.71169 0
M  V30 7509 C 684.52 -1.84285 0.428444 0
M  V30 7510 O 683.863 -1.73393 -0.606669 0
M  V30 7511 C 683.925 -2.25033 2.80357 0
M  V30 7512 C 683.589 -1.76433 4.21569 0
M  V30 7513 C 684.586 -1.2427 5.0483 0
M  V30 7514 C 682.271 -1.82746 4.67877 0
M  V30 7515 C 684.265 -0.790657 6.32477 0
M  V30 7516 C 681.952 -1.37153 5.9551 0
M  V30 7517 C 682.95 -0.853997 6.7764 0
M  V30 7518 O 682.638 -0.404708 8.02881 0
M  V30 7519 H 682.37 -0.35297 0.576531 0
M  V30 7520 H 684.924 -0.464994 2.00067 0
M  V30 7521 H 683.154 -2.97641 2.46874 0
M  V30 7522 H 684.843 -2.86718 2.87311 0
M  V30 7523 H 685.609 -1.18752 4.70237 0
M  V30 7524 H 681.488 -2.21971 4.04042 0
M  V30 7525 H 685.032 -0.386024 6.96531 0
M  V30 7526 H 680.929 -1.42356 6.29607 0
M  V30 7527 H 681.697 -0.526459 8.16805 0
M  V30 7528 N 684.36 -1.4356 -0.65026 0
M  V30 7529 C 685.606 -1.45549 -1.41221 0
M  V30 7530 C 685.939 -0.0805472 -1.94033 0
M  V30 7531 O 685.214 0.899043 -1.72475 0
M  V30 7532 C 685.497 -2.50028 -2.59148 0
M  V30 7533 C 685.35 -3.96808 -2.1181 0
M  V30 7534 C 686.669 -2.51212 -3.61359 0
M  V30 7535 H 683.788 -0.529967 -0.512156 0
M  V30 7536 H 686.43 -1.75127 -0.736933 0
M  V30 7537 H 684.58 -2.24937 -3.16758 0
M  V30 7538 H 686.252 -4.32966 -1.59178 0
M  V30 7539 H 684.495 -4.09498 -1.43156 0
M  V30 7540 H 685.166 -4.6553 -2.96625 0
M  V30 7541 H 687.642 -2.73583 -3.13515 0
M  V30 7542 H 686.518 -3.26252 -4.41419 0
M  V30 7543 H 686.779 -1.54701 -4.1415 0
M  V30 7544 N 685.838 0.888903 -1.30139 0
M  V30 7545 C 686.768 2.01046 -1.18755 0
M  V30 7546 C 687.749 1.69916 -0.0791438 0
M  V30 7547 O 688.934 1.92445 -0.260498 0
M  V30 7548 C 686.064 3.36109 -0.874518 0
M  V30 7549 C 685.018 3.81486 -1.94043 0
M  V30 7550 C 684.344 5.13796 -1.48047 0
M  V30 7551 C 685.644 4.00637 -3.35093 0
M  V30 7552 H 687.338 2.10828 -2.12584 0
M  V30 7553 H 684.884 1.01298 -1.02346 0
M  V30 7554 H 686.837 4.14089 -0.781548 0
M  V30 7555 H 685.561 3.26449 0.0994519 0
M  V30 7556 H 684.22 3.05731 -2.02297 0
M  V30 7557 H 683.868 5.0056 -0.494878 0
M  V30 7558 H 683.568 5.45127 -2.19341 0
M  V30 7559 H 685.092 5.94305 -1.40121 0
M  V30 7560 H 686.506 4.69067 -3.2962 0
M  V30 7561 H 684.903 4.43339 -4.04438 0
M  V30 7562 H 685.973 3.0462 -3.77273 0
M  V30 7563 N 687.317 1.12792 1.10072 0
M  V30 7564 C 688.733 0.864745 1.34143 0
M  V30 7565 C 688.933 -0.503201 1.95116 0
M  V30 7566 O 687.989 -1.25111 2.19325 0
M  V30 7567 C 689.302 1.98413 2.25949 0
M  V30 7568 C 690.85 2.01545 2.39476 0
M  V30 7569 C 691.325 3.12727 3.34613 0
M  V30 7570 N 692.816 3.12194 3.42183 0
M  V30 7571 C 693.551 3.94862 4.15779 0
M  V30 7572 N 693.047 4.87528 4.92228 0
M  V30 7573 N 694.84 3.82985 4.11435 0
M  V30 7574 H 686.991 2.00926 0.68866 0
M  V30 7575 H 689.254 0.874564 0.365844 0
M  V30 7576 H 688.96 2.97005 1.88364 0
M  V30 7577 H 688.834 1.89254 3.26287 0
M  V30 7578 H 691.221 1.0357 2.76328 0
M  V30 7579 H 691.302 2.14777 1.3894 0
M  V30 7580 H 690.946 4.10936 2.98486 0
M  V30 7581 H 690.876 2.96732 4.35037 0
M  V30 7582 H 693.367 2.45065 2.87666 0
M  V30 7583 H 693.68 5.47109 5.45794 0
M  V30 7584 H 692.025 4.91539 4.9134 0
M  V30 7585 H 695.216 3.09923 3.50807 0
M  V30 7586 H 695.389 4.47641 4.68531 0
M  V30 7587 N 688.795 -1.27931 0.920396 0
M  V30 7588 C 690.041 -1.95329 0.5673 0
M  V30 7589 C 690.396 -1.7107 -0.880506 0
M  V30 7590 O 689.689 -1.02497 -1.61879 0
M  V30 7591 C 689.883 -3.47853 0.820558 0
M  V30 7592 C 689.712 -3.86941 2.29143 0
M  V30 7593 C 688.482 -4.10766 2.94278 0
M  V30 7594 C 690.68 -3.97091 3.26838 0
M  V30 7595 N 688.662 -4.36578 4.31594 0
M  V30 7596 C 690.033 -4.27194 4.49339 0
M  V30 7597 C 692.088 -3.79639 3.22147 0
M  V30 7598 C 690.791 -4.41662 5.67739 0
M  V30 7599 C 692.817 -3.95328 4.39852 0
M  V30 7600 C 692.179 -4.2581 5.61128 0
M  V30 7601 H 688.278 -0.73836 0.257583 0
M  V30 7602 H 690.862 -1.54447 1.1855 0
M  V30 7603 H 689.033 -3.87709 0.231571 0
M  V30 7604 H 690.765 -4.024 0.430824 0
M  V30 7605 H 687.52 -4.05318 2.44979 0
M  V30 7606 H 687.944 -4.53555 5.0261 0
M  V30 7607 H 692.586 -3.55119 2.29457 0
M  V30 7608 H 690.304 -4.65011 6.60901 0
M  V30 7609 H 693.89 -3.83253 4.37731 0
M  V30 7610 H 692.77 -4.37691 6.50689 0
M  V30 7611 N 690.273 -0.685099 -1.4193 0
M  V30 7612 C 691.498 -0.218842 -2.06242 0
M  V30 7613 C 691.923 1.11923 -1.51178 0
M  V30 7614 O 691.281 1.69837 -0.634446 0
M  V30 7615 C 691.329 -0.175592 -3.60172 0
M  V30 7616 O 690.433 0.852776 -4.03487 0
M  V30 7617 H 689.774 -0.109531 -0.654904 0
M  V30 7618 H 692.304 -0.937013 -1.81882 0
M  V30 7619 H 692.314 -0.00291151 -4.08 0
M  V30 7620 H 690.989 -1.15222 -3.99621 0
M  V30 7621 H 689.566 0.650301 -3.67186 0
M  V30 7622 N 691.751 1.51645 -0.429126 0
M  V30 7623 C 692.991 2.03924 0.139354 0
M  V30 7624 C 693.355 1.30673 1.40672 0
M  V30 7625 O 694.556 1.73282 2.05491 0
M  V30 7626 C 692.827 3.5557 0.361179 0
M  V30 7627 S 694.386 4.29591 0.894241 0
M  V30 7628 H 691.204 0.710103 0.0356986 0
M  V30 7629 H 693.806 1.86491 -0.586644 0
M  V30 7630 H 692.51 4.06455 -0.567686 0
M  V30 7631 H 692.041 3.77283 1.11449 0
M  V30 7632 H 694.056 4.46102 2.17272 0
M  V30 7633 N 693.229 0.160201 1.56784 0
M  V30 7634 C 694.457 -0.494165 2.00912 0
M  V30 7635 C 694.872 -1.57548 1.04038 0
M  V30 7636 O 694.229 -1.82457 0.0394581 0
M  V30 7637 C 694.28 -1.08271 3.44905 0
M  V30 7638 O 694.001 -0.0445704 4.38077 0
M  V30 7639 C 695.502 -1.8164 4.04378 0
M  V30 7640 H 692.722 -0.127498 0.658776 0
M  V30 7641 H 695.266 0.258665 2.02858 0
M  V30 7642 H 693.421 -1.78609 3.4377 0
M  V30 7643 H 693.835 -0.477544 5.22322 0
M  V30 7644 H 695.309 -2.18094 5.07089 0
M  V30 7645 H 695.786 -2.70727 3.45838 0
M  V30 7646 H 696.392 -1.15969 4.09184 0
M  V30 7647 N 694.707 -1.5719 -0.113559 0
M  V30 7648 C 695.984 -1.76117 -0.850999 0
M  V30 7649 C 696.364 -0.737085 -1.97814 0
M  V30 7650 O 695.712 0.237942 -2.27258 0
M  V30 7651 C 695.922 -3.21298 -1.36266 0
M  V30 7652 C 697.27 -3.83955 -1.81283 0
M  V30 7653 O 698.294 -3.24934 -1.45933 0
M  V30 7654 O 697.153 -4.87707 -2.46585 0
M  V30 7655 H 694.247 -0.721308 -0.404529 0
M  V30 7656 H 696.793 -1.69423 -0.0968756 0
M  V30 7657 H 695.565 -3.87355 -0.554235 0
M  V30 7658 H 695.188 -3.32552 -2.17933 0
M  V30 7659 N 696.185 0.383891 -1.52853 0
M  V30 7660 C 697.432 1.12842 -1.68146 0
M  V30 7661 C 697.76 1.89823 -0.423954 0
M  V30 7662 O 697.015 1.86475 0.593765 0
M  V30 7663 C 697.314 2.12881 -2.87082 0
M  V30 7664 C 696.98 1.52519 -4.24322 0
M  V30 7665 C 695.642 1.35783 -4.61645 0
M  V30 7666 C 697.994 1.0868 -5.09743 0
M  V30 7667 C 695.322 0.737643 -5.82044 0
M  V30 7668 C 697.674 0.480699 -6.30771 0
M  V30 7669 C 696.338 0.300681 -6.66822 0
M  V30 7670 H 695.608 0.412917 -0.615289 0
M  V30 7671 H 698.255 0.412416 -1.87006 0
M  V30 7672 H 696.56 2.90719 -2.62659 0
M  V30 7673 H 698.257 2.70408 -2.96109 0
M  V30 7674 H 694.847 1.66534 -3.94923 0
M  V30 7675 H 699.031 1.2041 -4.81472 0
M  V30 7676 H 694.287 0.586415 -6.08581 0
M  V30 7677 H 698.461 0.132733 -6.96273 0
M  V30 7678 H 696.088 -0.181966 -7.59982 0
M  V30 7679 N 697.663 1.43903 0.642637 0
M  V30 7680 C 698.94 1.36556 1.40043 0
M  V30 7681 C 699.32 0.0185588 2.11092 0
M  V30 7682 O 698.668 -0.998438 2.05532 0
M  V30 7683 C 698.878 2.55596 2.37638 0
M  V30 7684 C 700.226 2.99153 3.01318 0
M  V30 7685 O 701.25 2.55719 2.47965 0
M  V30 7686 O 700.109 3.74427 3.98078 0
M  V30 7687 H 697.203 0.540189 0.626198 0
M  V30 7688 H 699.749 1.55971 0.668657 0
M  V30 7689 H 698.521 3.45256 1.84158 0
M  V30 7690 H 698.144 2.38334 3.18249 0
M  V30 7691 N 699.141 -0.881989 1.30609 0
M  V30 7692 C 700.089 -2.00942 1.17155 0
M  V30 7693 C 701.083 -1.69198 0.0827154 0
M  V30 7694 O 702.289 -1.78342 0.243775 0
M  V30 7695 H 698.664 -0.658913 0.362406 0
M  V30 7696 H 700.635 -2.09423 2.12567 0
M  V30 7697 C 699.384 -3.36294 0.883273 0
M  V30 7698 H 698.707 -3.61233 1.7132 0
M  V30 7699 H 700.147 -4.15812 0.829255 0
M  V30 7700 C 698.606 -3.34348 -0.413851 0
M  V30 7701 O 699.136 -3.75216 -1.43444 0
M  V30 7702 N 697.342 -2.87459 -0.426082 0
M  V30 7703 H 696.889 -2.54397 0.40493 0
M  V30 7704 H 696.847 -2.8654 -1.29391 0
M  V30 7705 N 700.619 -1.13374 -1.09472 0
M  V30 7706 C 701.868 -0.889844 -1.8101 0
M  V30 7707 C 702.181 0.585686 -1.86625 0
M  V30 7708 O 703.387 0.946497 -2.54467 0
M  V30 7709 C 701.843 -1.54241 -3.25174 0
M  V30 7710 C 701.451 -3.05343 -3.27826 0
M  V30 7711 C 703.195 -1.37919 -4.0147 0
M  V30 7712 C 701.102 -3.63486 -4.6651 0
M  V30 7713 H 700.032 -0.329256 -0.678311 0
M  V30 7714 H 702.683 -1.36139 -1.23038 0
M  V30 7715 H 701.065 -0.998525 -3.83204 0
M  V30 7716 H 702.239 -3.66307 -2.79563 0
M  V30 7717 H 700.554 -3.21175 -2.65019 0
M  V30 7718 H 703.151 -1.78771 -5.03929 0
M  V30 7719 H 703.494 -0.323987 -4.15037 0
M  V30 7720 H 704.027 -1.89284 -3.49881 0
M  V30 7721 H 700.766 -4.68811 -4.58145 0
M  V30 7722 H 700.286 -3.073 -5.15099 0
M  V30 7723 H 701.965 -3.63134 -5.35484 0
M  V30 7724 N 702.098 1.27442 -0.927168 0
M  V30 7725 C 703.028 2.29256 -0.443188 0
M  V30 7726 C 704.009 1.62701 0.49624 0
M  V30 7727 O 705.194 1.90013 0.401105 0
M  V30 7728 C 702.324 3.45955 0.305366 0
M  V30 7729 C 701.278 4.24501 -0.546178 0
M  V30 7730 C 700.604 5.33671 0.331512 0
M  V30 7731 C 701.904 4.89921 -1.81037 0
M  V30 7732 H 703.598 2.69988 -1.29409 0
M  V30 7733 H 701.144 1.29792 -0.623705 0
M  V30 7734 H 703.097 4.1628 0.654885 0
M  V30 7735 H 701.821 3.04138 1.19029 0
M  V30 7736 H 700.48 3.55921 -0.878398 0
M  V30 7737 H 700.128 4.88096 1.21537 0
M  V30 7738 H 699.828 5.87131 -0.234746 0
M  V30 7739 H 701.352 6.0684 0.676614 0
M  V30 7740 H 702.766 5.52536 -1.52895 0
M  V30 7741 H 701.163 5.53436 -2.32009 0
M  V30 7742 H 702.233 4.13652 -2.53021 0
M  V30 7743 N 703.576 0.692616 1.41565 0
M  V30 7744 C 704.509 -0.025063 2.28186 0
M  V30 7745 C 705.487 -0.790912 1.42068 0
M  V30 7746 O 706.671 -0.782344 1.71498 0
M  V30 7747 C 703.798 -1.04285 3.22246 0
M  V30 7748 C 702.844 -0.370515 4.24888 0
M  V30 7749 S 703.677 0.884942 5.28137 0
M  V30 7750 C 704.833 -0.131324 6.25762 0
M  V30 7751 H 705.066 0.709626 2.88707 0
M  V30 7752 H 702.599 0.482783 1.46658 0
M  V30 7753 H 704.557 -1.62493 3.7697 0
M  V30 7754 H 703.218 -1.7501 2.60827 0
M  V30 7755 H 702.411 -1.13911 4.90959 0
M  V30 7756 H 702.013 0.138411 3.73744 0
M  V30 7757 H 704.305 -0.985527 6.70294 0
M  V30 7758 H 705.248 0.495384 7.06365 0
M  V30 7759 H 705.656 -0.484777 5.62415 0
M  V30 7760 N 705.054 -1.51416 0.437162 0
M  V30 7761 C 706.282 -2.06503 -0.128045 0
M  V30 7762 C 706.697 -1.30461 -1.36475 0
M  V30 7763 O 706.054 -0.364127 -1.78831 0
M  V30 7764 C 706.105 -3.58683 -0.450437 0
M  V30 7765 O 705.826 -4.31853 0.737186 0
M  V30 7766 C 707.327 -4.30284 -1.06633 0
M  V30 7767 H 704.547 -0.670952 -0.00800269 0
M  V30 7768 H 707.091 -1.94996 0.616193 0
M  V30 7769 H 705.246 -3.70106 -1.14457 0
M  V30 7770 H 705.66 -5.22467 0.461347 0
M  V30 7771 H 707.134 -5.37848 -1.24191 0
M  V30 7772 H 707.611 -3.88564 -2.0473 0
M  V30 7773 H 708.217 -4.23304 -0.411585 0
M  V30 7774 N 706.532 -0.168513 -1.56696 0
M  V30 7775 C 707.778 0.477865 -1.9709 0
M  V30 7776 C 708.111 1.63084 -1.05438 0
M  V30 7777 O 707.386 1.94238 -0.10095 0
M  V30 7778 C 707.669 0.963521 -3.4697 0
M  V30 7779 C 707.522 -0.189443 -4.49401 0
M  V30 7780 C 708.841 1.83813 -3.99876 0
M  V30 7781 H 705.96 0.172229 -0.716593 0
M  V30 7782 H 708.602 -0.254083 -1.88293 0
M  V30 7783 H 706.752 1.58724 -3.54597 0
M  V30 7784 H 708.424 -0.826451 -4.53836 0
M  V30 7785 H 706.667 -0.845366 -4.25483 0
M  V30 7786 H 707.338 0.192446 -5.51664 0
M  V30 7787 H 709.814 1.31235 -3.94863 0
M  V30 7788 H 708.69 2.14697 -5.0517 0
M  V30 7789 H 708.951 2.78289 -3.43523 0
M  V30 7790 N 708.01 1.57248 0.105221 0
M  V30 7791 C 709.238 1.89768 0.82437 0
M  V30 7792 C 709.653 0.761192 1.72775 0
M  V30 7793 O 709.01 -0.267342 1.80531 0
M  V30 7794 C 709.061 3.2184 1.64625 0
M  V30 7795 O 708.782 4.31115 0.779217 0
M  V30 7796 C 710.283 3.68155 2.46935 0
M  V30 7797 H 707.503 0.628031 0.236259 0
M  V30 7798 H 710.047 2.04321 0.085485 0
M  V30 7799 H 708.202 3.08915 2.33775 0
M  V30 7800 H 708.616 5.06897 1.34745 0
M  V30 7801 H 710.09 4.6329 3.00111 0
M  V30 7802 H 710.567 2.95492 3.24932 0
M  V30 7803 H 711.173 3.83914 1.83002 0
M  V30 7804 N 709.488 -0.375779 1.53054 0
M  V30 7805 C 710.728 -1.12828 1.70438 0
M  V30 7806 C 711.092 -1.86854 0.441527 0
M  V30 7807 O 712.293 -2.64261 0.491908 0
M  V30 7808 C 710.564 -2.07009 2.91345 0
M  V30 7809 S 712.123 -2.89917 3.29383 0
M  V30 7810 H 708.941 -0.381736 0.599832 0
M  V30 7811 H 711.543 -0.4109 1.91133 0
M  V30 7812 H 710.247 -1.51371 3.81464 0
M  V30 7813 H 709.778 -2.83236 2.73022 0
M  V30 7814 H 711.793 -4.0924 2.80601 0
M  V30 7815 N 710.966 -1.44241 -0.634997 0
M  V30 7816 C 712.213 -1.46821 -1.39463 0
M  V30 7817 C 712.541 -0.0993362 -1.94246 0
M  V30 7818 O 711.796 0.898325 -1.73864 0
M  V30 7819 C 712.095 -2.47279 -2.58046 0
M  V30 7820 C 711.761 -3.92703 -2.21574 0
M  V30 7821 C 710.423 -4.32306 -2.1134 0
M  V30 7822 C 712.775 -4.84271 -1.92695 0
M  V30 7823 C 710.103 -5.61407 -1.70409 0
M  V30 7824 C 712.455 -6.13755 -1.53258 0
M  V30 7825 C 711.119 -6.52316 -1.41562 0
M  V30 7826 H 710.389 -0.537256 -0.51033 0
M  V30 7827 H 713.036 -1.77431 -0.720441 0
M  V30 7828 H 711.341 -2.10138 -3.3068 0
M  V30 7829 H 713.038 -2.46523 -3.16271 0
M  V30 7830 H 709.628 -3.61369 -2.30456 0
M  V30 7831 H 713.812 -4.54432 -1.99513 0
M  V30 7832 H 709.068 -5.90105 -1.59955 0
M  V30 7833 H 713.242 -6.84168 -1.29949 0
M  V30 7834 H 710.869 -7.52255 -1.09619 0
M  V30 7835 N 712.444 0.87505 -1.31075 0
M  V30 7836 C 713.354 2.01441 -1.20244 0
M  V30 7837 C 714.37 1.73584 -0.120227 0
M  V30 7838 O 715.546 1.98559 -0.337063 0
M  V30 7839 C 712.611 3.34675 -0.905199 0
M  V30 7840 C 711.672 3.75889 -2.0738 0
M  V30 7841 C 710.905 5.02764 -1.79064 0
M  V30 7842 O 711.128 5.65795 -0.723318 0
M  V30 7843 O 710.062 5.40623 -2.64594 0
M  V30 7844 H 713.888 2.13509 -2.1598 0
M  V30 7845 H 711.473 1.00257 -1.10765 0
M  V30 7846 H 713.355 4.1458 -0.755057 0
M  V30 7847 H 712.03 3.23692 0.0221695 0
M  V30 7848 H 710.937 2.96645 -2.27931 0
M  V30 7849 H 712.27 3.91489 -2.98324 0
M  V30 7850 N 713.922 1.13953 1.08869 0
M  V30 7851 C 714.869 0.82213 2.15661 0
M  V30 7852 C 715.839 -0.218274 1.6466 0
M  V30 7853 O 717.024 -0.0892475 1.90591 0
M  V30 7854 C 714.164 0.300572 3.43789 0
M  V30 7855 C 713.277 1.40071 4.08661 0
M  V30 7856 C 712.412 0.836897 5.24566 0
M  V30 7857 C 711.451 1.91504 5.81371 0
M  V30 7858 N 710.588 1.36875 6.88629 0
M  V30 7859 H 715.428 1.73683 2.42153 0
M  V30 7860 H 712.965 0.866879 1.18843 0
M  V30 7861 H 714.923 -0.0199943 4.17195 0
M  V30 7862 H 713.553 -0.577248 3.17597 0
M  V30 7863 H 712.605 1.83776 3.33062 0
M  V30 7864 H 713.917 2.21534 4.46905 0
M  V30 7865 H 713.071 0.467953 6.04893 0
M  V30 7866 H 711.81 -0.00874207 4.87699 0
M  V30 7867 H 710.815 2.29299 4.99702 0
M  V30 7868 H 712.04 2.76419 6.20298 0
M  V30 7869 H 709.986 0.545211 6.5373 0
M  V30 7870 H 709.903 2.1198 7.25672 0
M  V30 7871 H 711.171 1.02756 7.72698 0
M  V30 7872 N 715.4 -1.26948 0.933913 0
M  V30 7873 C 716.625 -1.98724 0.593589 0
M  V30 7874 C 717.05 -1.6915 -0.822801 0
M  V30 7875 O 716.408 -0.93533 -1.5531 0
M  V30 7876 C 716.456 -3.50834 0.833542 0
M  V30 7877 O 715.56 -4.12284 -0.0978788 0
M  V30 7878 H 714.901 -0.623683 0.227849 0
M  V30 7879 H 717.431 -1.61599 1.25486 0
M  V30 7880 H 717.441 -4.01018 0.75156 0
M  V30 7881 H 716.116 -3.71691 1.86597 0
M  V30 7882 H 714.693 -3.72884 0.0345443 0
M  V30 7883 N 716.879 -0.700114 -1.41195 0
M  V30 7884 C 717.789 -0.0382854 -2.34569 0
M  V30 7885 C 718.805 0.761036 -1.56474 0
M  V30 7886 O 719.981 0.697553 -1.88934 0
M  V30 7887 C 717.046 0.883522 -3.35253 0
M  V30 7888 C 716.107 0.0758957 -4.29233 0
M  V30 7889 C 715.34 0.9538 -5.25108 0
M  V30 7890 O 715.563 2.19326 -5.26547 0
M  V30 7891 O 714.497 0.401049 -6.00562 0
M  V30 7892 H 718.323 -0.808073 -2.92752 0
M  V30 7893 H 715.908 -0.460479 -1.42127 0
M  V30 7894 H 717.79 1.41199 -3.9704 0
M  V30 7895 H 716.465 1.63272 -2.79506 0
M  V30 7896 H 715.372 -0.497274 -3.7078 0
M  V30 7897 H 716.705 -0.634741 -4.8809 0
M  V30 7898 N 718.357 1.51182 -0.445186 0
M  V30 7899 C 719.289 2.25714 0.398206 0
M  V30 7900 C 720.302 1.30032 0.979562 0
M  V30 7901 O 721.491 1.55731 0.872368 0
M  V30 7902 C 718.591 3.00348 1.56985 0
M  V30 7903 C 717.764 4.23187 1.10596 0
M  V30 7904 C 716.823 4.80334 2.14863 0
M  V30 7905 O 715.849 5.4196 1.73977 0
M  V30 7906 N 717.051 4.65053 3.47427 0
M  V30 7907 H 719.816 2.98732 -0.240629 0
M  V30 7908 H 717.377 1.59556 -0.274507 0
M  V30 7909 H 719.369 3.35464 2.26376 0
M  V30 7910 H 717.939 2.30291 2.11387 0
M  V30 7911 H 717.159 3.93476 0.238832 0
M  V30 7912 H 718.447 5.02886 0.773537 0
M  V30 7913 H 717.845 4.15984 3.83372 0
M  V30 7914 H 716.402 5.04509 4.12691 0
M  V30 7915 N 719.835 0.176821 1.56605 0
M  V30 7916 C 721.081 -0.467406 1.9734 0
M  V30 7917 C 721.414 -1.62523 1.06301 0
M  V30 7918 O 720.689 -1.94182 0.11125 0
M  V30 7919 C 720.972 -0.945106 3.47476 0
M  V30 7920 C 720.825 0.213273 4.49294 0
M  V30 7921 C 722.144 -1.8169 4.00845 0
M  V30 7922 H 719.263 -0.168426 0.717497 0
M  V30 7923 H 721.905 0.264065 1.88156 0
M  V30 7924 H 720.055 -1.56841 3.55434 0
M  V30 7925 H 721.727 0.850508 4.53392 0
M  V30 7926 H 719.97 0.867918 4.25029 0
M  V30 7927 H 720.641 -0.163187 5.51759 0
M  V30 7928 H 723.117 -1.29139 3.95553 0
M  V30 7929 H 721.993 -2.12015 5.06301 0
M  V30 7930 H 722.254 -2.76463 3.44994 0
M  V30 7931 N 721.313 -1.57302 -0.09688 0
M  V30 7932 C 722.245 -1.98618 -1.14384 0
M  V30 7933 C 723.258 -0.888483 -1.36418 0
M  V30 7934 O 724.447 -1.16661 -1.35101 0
M  V30 7935 C 721.547 -2.28838 -2.49973 0
M  V30 7936 C 720.72 -3.60132 -2.48241 0
M  V30 7937 C 719.779 -3.7831 -3.65743 0
M  V30 7938 O 718.805 -4.50183 -3.48316 0
M  V30 7939 N 720.007 -3.18752 -4.85157 0
M  V30 7940 H 722.772 -2.8904 -0.792202 0
M  V30 7941 H 720.333 -1.59356 -0.285883 0
M  V30 7942 H 722.325 -2.38193 -3.27179 0
M  V30 7943 H 720.895 -1.44431 -2.77233 0
M  V30 7944 H 720.115 -3.61763 -1.56593 0
M  V30 7945 H 721.403 -4.46389 -2.4416 0
M  V30 7946 H 720.801 -2.60368 -5.0222 0
M  V30 7947 H 719.358 -3.33595 -5.59962 0
M  V30 7948 N 722.791 0.367657 -1.53252 0
M  V30 7949 C 724.039 1.10832 -1.68999 0
M  V30 7950 C 724.36 1.89894 -0.443306 0
M  V30 7951 O 723.63 1.88235 0.54262 0
M  V30 7952 H 722.21 0.412153 -0.623008 0
M  V30 7953 H 724.872 0.414775 -1.90435 0
M  V30 7954 H 723.968 1.7993 -2.55013 0
M  V30 7955 N 724.269 1.44576 0.627338 0
M  V30 7956 C 725.232 1.51372 1.72102 0
M  V30 7957 C 726.232 0.395329 1.55865 0
M  V30 7958 O 727.422 0.658094 1.61291 0
M  V30 7959 C 724.554 1.39129 3.11217 0
M  V30 7960 H 725.747 2.48798 1.6745 0
M  V30 7961 H 723.3 1.31724 0.841336 0
M  V30 7962 H 724.035 0.428114 3.21462 0
M  V30 7963 H 723.82 2.20229 3.24409 0
M  V30 7964 H 725.31 1.46874 3.90919 0
M  V30 7965 N 725.747 -0.868086 1.31537 0
M  V30 7966 C 726.679 -1.98165 1.15166 0
M  V30 7967 C 727.692 -1.6255 0.0902335 0
M  V30 7968 O 728.881 -1.75272 0.33791 0
M  V30 7969 C 725.981 -3.30772 0.737776 0
M  V30 7970 C 725.154 -3.94716 1.88462 0
M  V30 7971 C 724.213 -5.05641 1.45648 0
M  V30 7972 O 723.239 -5.2636 2.16642 0
M  V30 7973 N 724.441 -5.79474 0.34493 0
M  V30 7974 H 727.206 -2.12754 2.11083 0
M  V30 7975 H 724.767 -1.04217 1.23897 0
M  V30 7976 H 726.759 -4.02366 0.434032 0
M  V30 7977 H 725.329 -3.1233 -0.129834 0
M  V30 7978 H 724.549 -3.16079 2.35558 0
M  V30 7979 H 725.837 -4.34175 2.65273 0
M  V30 7980 H 725.235 -5.65164 -0.246259 0
M  V30 7981 H 723.792 -6.51722 0.100728 0
M  V30 7982 N 727.225 -1.14528 -1.08264 0
M  V30 7983 C 728.172 -0.833556 -2.15222 0
M  V30 7984 C 729.142 0.209539 -1.64773 0
M  V30 7985 O 730.327 0.0791388 -1.90636 0
M  V30 7986 C 727.467 -0.318799 -3.43624 0
M  V30 7987 C 726.58 -1.42237 -4.07913 0
M  V30 7988 C 725.715 -0.864704 -5.24115 0
M  V30 7989 C 724.754 -1.94585 -5.80347 0
M  V30 7990 N 723.891 -1.40525 -6.87893 0
M  V30 7991 H 728.731 -1.74965 -2.41228 0
M  V30 7992 H 726.268 -0.873169 -1.18381 0
M  V30 7993 H 728.226 -0.00213088 -4.172 0
M  V30 7994 H 726.856 0.560397 -3.17898 0
M  V30 7995 H 725.908 -1.8554 -3.32083 0
M  V30 7996 H 727.22 -2.23901 -4.45724 0
M  V30 7997 H 726.374 -0.500025 -6.04636 0
M  V30 7998 H 725.113 -0.0171219 -4.87697 0
M  V30 7999 H 724.118 -2.31946 -4.98479 0
M  V30 8000 H 725.343 -2.79704 -6.18823 0
M  V30 8001 H 723.289 -0.579873 -6.53432 0
M  V30 8002 H 723.206 -2.15825 -7.24538 0
M  V30 8003 H 724.474 -1.06852 -7.72142 0
M  V30 8004 N 728.703 1.26451 -0.940633 0
M  V30 8005 C 729.635 2.25556 -0.407104 0
M  V30 8006 C 730.648 1.55888 0.469324 0
M  V30 8007 O 731.837 1.76292 0.279858 0
M  V30 8008 C 728.937 3.36109 0.434064 0
M  V30 8009 C 728.11 4.3532 -0.426082 0
M  V30 8010 C 727.169 5.25004 0.354563 0
M  V30 8011 O 726.195 5.68684 -0.242219 0
M  V30 8012 N 727.397 5.5652 1.65123 0
M  V30 8013 H 730.162 2.7197 -1.25907 0
M  V30 8014 H 727.723 1.40212 -0.809456 0
M  V30 8015 H 729.715 3.93059 0.963684 0
M  V30 8016 H 728.285 2.89194 1.18683 0
M  V30 8017 H 727.505 3.77449 -1.13692 0
M  V30 8018 H 728.793 4.986 -1.01366 0
M  V30 8019 H 728.191 5.22912 2.15822 0
M  V30 8020 H 726.748 6.16115 2.12711 0
M  V30 8021 N 730.181 0.707592 1.40822 0
M  V30 8022 C 731.428 0.243671 2.01029 0
M  V30 8023 C 731.756 -1.16057 1.5608 0
M  V30 8024 O 731.011 -1.7999 0.768251 0
M  V30 8025 C 731.31 0.262892 3.56432 0
M  V30 8026 C 730.976 1.61632 4.20935 0
M  V30 8027 C 729.638 1.98682 4.38268 0
M  V30 8028 C 731.99 2.50619 4.5699 0
M  V30 8029 C 729.318 3.2428 4.88937 0
M  V30 8030 C 731.67 3.75562 5.09054 0
M  V30 8031 C 730.334 4.12739 5.24598 0
M  V30 8032 H 729.604 0.0891654 0.735616 0
M  V30 8033 H 732.251 0.909051 1.68548 0
M  V30 8034 H 730.556 -0.486052 3.88773 0
M  V30 8035 H 732.253 -0.113775 4.00839 0
M  V30 8036 H 728.843 1.31818 4.07826 0
M  V30 8037 H 733.027 2.23272 4.43242 0
M  V30 8038 H 728.283 3.53064 4.99155 0
M  V30 8039 H 732.457 4.44692 5.35931 0
M  V30 8040 H 730.084 5.10132 5.63622 0
M  V30 8041 N 731.66 -1.50943 0.453197 0
M  V30 8042 C 732.607 -2.28128 -0.350197 0
M  V30 8043 C 733.577 -1.32398 -1.00299 0
M  V30 8044 O 734.762 -1.61319 -1.01887 0
M  V30 8045 C 731.902 -3.13782 -1.43649 0
M  V30 8046 C 731.015 -4.24523 -0.800255 0
M  V30 8047 C 730.15 -4.97462 -1.86293 0
M  V30 8048 C 729.189 -6.00102 -1.20598 0
M  V30 8049 N 728.326 -6.66387 -2.21071 0
M  V30 8050 H 733.166 -2.96337 0.31434 0
M  V30 8051 H 730.703 -1.46151 0.166863 0
M  V30 8052 H 732.661 -3.6178 -2.07776 0
M  V30 8053 H 731.291 -2.47655 -2.07044 0
M  V30 8054 H 730.343 -3.80371 -0.0468651 0
M  V30 8055 H 731.655 -4.98009 -0.280777 0
M  V30 8056 H 730.809 -5.49088 -2.58044 0
M  V30 8057 H 729.548 -4.23642 -2.41617 0
M  V30 8058 H 728.553 -5.47753 -0.474 0
M  V30 8059 H 729.778 -6.75887 -0.659859 0
M  V30 8060 H 727.724 -5.9537 -2.75446 0
M  V30 8061 H 727.641 -7.3569 -1.74058 0
M  V30 8062 H 728.909 -7.22638 -2.92257 0
M  V30 8063 N 733.138 -0.185124 -1.56509 0
M  V30 8064 C 734.086 0.756505 -2.19954 0
M  V30 8065 C 735.08 1.22725 -1.16769 0
M  V30 8066 O 736.286 1.1913 -1.34937 0
M  V30 8067 H 732.661 0.262279 -0.704779 0
M  V30 8068 H 734.632 0.197587 -2.97745 0
M  V30 8069 C 733.381 1.96975 -2.86524 0
M  V30 8070 H 732.704 1.61658 -3.65659 0
M  V30 8071 H 734.144 2.60719 -3.34367 0
M  V30 8072 C 732.603 2.80219 -1.87027 0
M  V30 8073 O 733.133 3.77821 -1.36433 0
M  V30 8074 N 731.339 2.4551 -1.55477 0
M  V30 8075 H 730.886 1.66199 -1.96813 0
M  V30 8076 H 730.844 3.01493 -0.891597 0
M  V30 8077 N 734.616 1.57351 0.0885366 0
M  V30 8078 C 735.863 1.86419 0.790824 0
M  V30 8079 C 736.191 0.774561 1.78412 0
M  V30 8080 O 735.446 -0.23119 1.9433 0
M  V30 8081 C 735.745 3.22098 1.5488 0
M  V30 8082 C 735.411 4.4548 0.697025 0
M  V30 8083 C 734.073 4.78975 0.462237 0
M  V30 8084 C 736.425 5.21094 0.105315 0
M  V30 8085 C 733.753 5.85507 -0.374016 0
M  V30 8086 C 736.105 6.28509 -0.718298 0
M  V30 8087 C 734.769 6.60515 -0.963116 0
M  V30 8088 H 734.039 0.682157 0.289383 0
M  V30 8089 H 736.686 1.91429 0.0520961 0
M  V30 8090 H 734.991 3.12803 2.35927 0
M  V30 8091 H 736.688 3.41819 2.09669 0
M  V30 8092 H 733.278 4.19255 0.890137 0
M  V30 8093 H 737.462 4.95544 0.273856 0
M  V30 8094 H 732.718 6.08713 -0.572606 0
M  V30 8095 H 736.892 6.86268 -1.18362 0
M  V30 8096 H 734.519 7.42893 -1.6129 0
M  V30 8097 N 736.094 -0.359525 1.53444 0
M  V30 8098 C 737.026 -1.46098 1.76602 0
M  V30 8099 C 738.039 -1.49395 0.646912 0
M  V30 8100 O 739.228 -1.52765 0.923307 0
M  V30 8101 C 736.328 -2.84836 1.83635 0
M  V30 8102 C 735.501 -3.05164 3.13358 0
M  V30 8103 C 734.56 -4.24051 3.11556 0
M  V30 8104 O 733.586 -4.18935 3.85334 0
M  V30 8105 N 734.788 -5.31775 2.328 0
M  V30 8106 H 737.553 -1.2661 2.71643 0
M  V30 8107 H 735.114 -0.549294 1.52297 0
M  V30 8108 H 737.106 -3.62516 1.799 0
M  V30 8109 H 735.676 -2.97542 0.958509 0
M  V30 8110 H 734.896 -2.15091 3.30348 0
M  V30 8111 H 736.184 -3.15619 3.99076 0
M  V30 8112 H 735.582 -5.38796 1.7238 0
M  V30 8113 H 734.139 -6.0801 2.34877 0
M  V30 8114 N 737.572 -1.44907 -0.619662 0
M  V30 8115 C 738.821 -1.47569 -1.37501 0
M  V30 8116 C 739.134 -0.116707 -1.95252 0
M  V30 8117 O 740.34 -0.020909 -2.71492 0
M  V30 8118 C 738.796 -2.59851 -2.49009 0
M  V30 8119 C 738.404 -4.02008 -1.97722 0
M  V30 8120 C 740.148 -2.71746 -3.2612 0
M  V30 8121 C 738.055 -5.05693 -3.0664 0
M  V30 8122 H 736.985 -0.549068 -0.51676 0
M  V30 8123 H 739.636 -1.71009 -0.665437 0
M  V30 8124 H 738.018 -2.29671 -3.22594 0
M  V30 8125 H 739.192 -4.41809 -1.30925 0
M  V30 8126 H 737.507 -3.94456 -1.33392 0
M  V30 8127 H 740.104 -3.46382 -4.07337 0
M  V30 8128 H 740.447 -1.77959 -3.76346 0
M  V30 8129 H 740.98 -3.01392 -2.5963 0
M  V30 8130 H 737.719 -6.01148 -2.61345 0
M  V30 8131 H 737.239 -4.70473 -3.72042 0
M  V30 8132 H 738.918 -5.29906 -3.71226 0
M  V30 8133 N 739.05 0.861098 -1.31996 0
M  V30 8134 C 739.96 2.00154 -1.22374 0
M  V30 8135 C 740.976 1.73447 -0.138631 0
M  V30 8136 O 742.152 1.98191 -0.358104 0
M  V30 8137 C 739.217 3.33696 -0.940645 0
M  V30 8138 C 738.278 3.73668 -2.11355 0
M  V30 8139 C 737.511 5.00837 -1.84386 0
M  V30 8140 O 737.734 5.64996 -0.783287 0
M  V30 8141 O 736.668 5.37787 -2.70313 0
M  V30 8142 H 740.494 2.11207 -2.18233 0
M  V30 8143 H 738.079 0.990768 -1.11822 0
M  V30 8144 H 739.961 4.13756 -0.798987 0
M  V30 8145 H 738.636 3.23698 -0.0121636 0
M  V30 8146 H 737.543 2.94211 -2.31065 0
M  V30 8147 H 738.876 3.88303 -3.02459 0
M  V30 8148 N 740.528 1.15101 1.07655 0
M  V30 8149 C 741.774 0.925343 1.80458 0
M  V30 8150 C 742.107 -0.546354 1.86356 0
M  V30 8151 O 741.382 -1.40496 1.34503 0
M  V30 8152 C 741.665 1.53646 3.25676 0
M  V30 8153 C 741.518 3.07854 3.27942 0
M  V30 8154 C 742.837 1.21968 4.22861 0
M  V30 8155 H 739.956 0.337592 0.655134 0
M  V30 8156 H 742.598 1.42217 1.25993 0
M  V30 8157 H 740.748 1.11395 3.72187 0
M  V30 8158 H 742.42 3.58989 2.89697 0
M  V30 8159 H 740.663 3.41904 2.66991 0
M  V30 8160 H 741.334 3.45725 4.30324 0
M  V30 8161 H 743.81 1.5851 3.84726 0
M  V30 8162 H 742.686 1.67349 5.22767 0
M  V30 8163 H 742.947 0.136207 4.4189 0
M  V30 8164 N 742.006 -1.2595 0.947325 0
M  V30 8165 C 742.938 -2.25336 0.41906 0
M  V30 8166 C 743.951 -1.56135 -0.461051 0
M  V30 8167 O 745.14 -1.76438 -0.270505 0
M  V30 8168 C 742.24 -3.36334 -0.416233 0
M  V30 8169 C 741.413 -4.35088 0.449162 0
M  V30 8170 C 740.472 -5.25185 -0.326716 0
M  V30 8171 O 739.498 -5.68548 0.272374 0
M  V30 8172 N 740.7 -5.57388 -1.6217 0
M  V30 8173 H 743.465 -2.71298 1.27348 0
M  V30 8174 H 741.026 -1.39781 0.81688 0
M  V30 8175 H 743.018 -3.93564 -0.942826 0
M  V30 8176 H 741.588 -2.89819 -1.17148 0
M  V30 8177 H 740.808 -3.76841 1.15692 0
M  V30 8178 H 742.096 -4.98056 1.04008 0
M  V30 8179 H 741.494 -5.2405 -2.13046 0
M  V30 8180 H 740.051 -6.17234 -2.0944 0
M  V30 8181 N 743.484 -0.715051 -1.40445 0
M  V30 8182 C 744.431 -0.0621393 -2.30716 0
M  V30 8183 C 745.401 0.750871 -1.48159 0
M  V30 8184 O 746.586 0.714928 -1.76899 0
M  V30 8185 C 743.726 0.854036 -3.34365 0
M  V30 8186 C 742.839 0.0305565 -4.31989 0
M  V30 8187 C 741.974 0.946162 -5.22706 0
M  V30 8188 C 741.013 0.116741 -6.11989 0
M  V30 8189 N 740.15 0.987194 -6.95125 0
M  V30 8190 H 744.99 -0.83764 -2.85985 0
M  V30 8191 H 742.527 -0.424759 -1.40834 0
M  V30 8192 H 744.485 1.39946 -3.93028 0
M  V30 8193 H 743.115 1.59572 -2.806 0
M  V30 8194 H 742.167 -0.632044 -3.75112 0
M  V30 8195 H 743.479 -0.611615 -4.95036 0
M  V30 8196 H 742.633 1.56014 -5.86297 0
M  V30 8197 H 741.372 1.62216 -4.59932 0
M  V30 8198 H 740.377 -0.510176 -5.47428 0
M  V30 8199 H 741.602 -0.555742 -6.76822 0
M  V30 8200 H 739.548 1.64885 -6.3494 0
M  V30 8201 H 739.465 0.401046 -7.54936 0
M  V30 8202 H 740.733 1.58737 -7.63166 0
M  V30 8203 N 744.962 1.50701 -0.461195 0
M  V30 8204 C 746.21 2.01867 0.0970051 0
M  V30 8205 C 746.531 1.34591 1.41104 0
M  V30 8206 O 745.801 0.488041 1.89723 0
M  V30 8207 H 744.381 0.74599 0.0388392 0
M  V30 8208 H 747.043 1.85129 -0.609357 0
M  V30 8209 H 746.139 3.11051 0.255688 0
M  V30 8210 N 746.441 0.193421 1.56409 0
M  V30 8211 C 747.857 -0.162447 1.58771 0
M  V30 8212 C 748.057 -1.6116 1.20954 0
M  V30 8213 O 747.113 -2.3469 0.931497 0
M  V30 8214 C 748.426 0.138391 3.00381 0
M  V30 8215 C 749.974 0.0783649 3.12902 0
M  V30 8216 C 750.449 0.352491 4.56642 0
M  V30 8217 N 751.94 0.30105 4.62221 0
M  V30 8218 C 752.675 0.487028 5.71328 0
M  V30 8219 N 752.171 0.733265 6.88909 0
M  V30 8220 N 753.964 0.4214 5.60518 0
M  V30 8221 H 746.115 1.13909 1.79272 0
M  V30 8222 H 748.378 0.454528 0.83193 0
M  V30 8223 H 748.084 1.14312 3.32604 0
M  V30 8224 H 747.958 -0.559804 3.73023 0
M  V30 8225 H 750.345 -0.916963 2.80492 0
M  V30 8226 H 750.426 0.809611 2.4265 0
M  V30 8227 H 750.07 1.34513 4.89764 0
M  V30 8228 H 750 -0.399624 5.25081 0
M  V30 8229 H 752.491 0.117279 3.77718 0
M  V30 8230 H 752.804 0.86403 7.67955 0
M  V30 8231 H 751.149 0.770138 6.9072 0
M  V30 8232 H 754.34 0.229461 4.67537 0
M  V30 8233 H 754.513 0.569758 6.4549 0
M  V30 8234 N 747.919 -1.57396 -0.0801906 0
M  V30 8235 C 749.149 -1.90778 -0.792924 0
M  V30 8236 C 749.557 -0.786814 -1.72064 0
M  V30 8237 O 748.9 0.249259 -1.82001 0
M  V30 8238 C 748.962 -3.19552 -1.64702 0
M  V30 8239 C 748.626 -4.48259 -0.889567 0
M  V30 8240 C 749.623 -5.19465 -0.212602 0
M  V30 8241 C 747.308 -4.94896 -0.859229 0
M  V30 8242 C 749.302 -6.35555 0.484566 0
M  V30 8243 C 746.989 -6.10895 -0.158284 0
M  V30 8244 C 747.987 -6.81075 0.512421 0
M  V30 8245 O 747.675 -7.94862 1.20209 0
M  V30 8246 H 747.407 -0.63527 -0.231103 0
M  V30 8247 H 749.961 -2.0532 -0.0573081 0
M  V30 8248 H 748.191 -3.01196 -2.42524 0
M  V30 8249 H 749.88 -3.38649 -2.23767 0
M  V30 8250 H 750.646 -4.84467 -0.227403 0
M  V30 8251 H 746.525 -4.4015 -1.37073 0
M  V30 8252 H 750.069 -6.9027 1.00864 0
M  V30 8253 H 745.966 -6.45345 -0.141381 0
M  V30 8254 H 746.734 -8.10932 1.11051 0
M  V30 8255 N 749.397 0.351382 -1.53633 0
M  V30 8256 C 750.622 1.11718 -1.74739 0
M  V30 8257 C 751.047 1.81829 -0.481657 0
M  V30 8258 O 750.405 1.72264 0.565233 0
M  V30 8259 C 750.453 2.11234 -2.92254 0
M  V30 8260 O 749.557 3.186 -2.61855 0
M  V30 8261 H 748.898 0.323482 -0.579875 0
M  V30 8262 H 751.428 0.404167 -2.00568 0
M  V30 8263 H 751.438 2.54591 -3.18822 0
M  V30 8264 H 750.113 1.59599 -3.84058 0
M  V30 8265 H 748.69 2.80115 -2.4615 0
M  V30 8266 N 750.875 1.45233 0.611969 0
M  V30 8267 C 751.805 1.5641 1.73373 0
M  V30 8268 C 752.786 0.415896 1.64937 0
M  V30 8269 O 753.971 0.638478 1.83404 0
M  V30 8270 C 751.101 1.52627 3.11965 0
M  V30 8271 C 750.055 2.66119 3.35208 0
M  V30 8272 C 749.381 2.4739 4.74028 0
M  V30 8273 C 750.681 4.08157 3.25891 0
M  V30 8274 H 752.375 2.50307 1.64277 0
M  V30 8275 H 749.921 1.20467 0.788904 0
M  V30 8276 H 751.874 1.59043 3.90235 0
M  V30 8277 H 750.598 0.552564 3.21892 0
M  V30 8278 H 749.257 2.59123 2.59327 0
M  V30 8279 H 748.905 1.48168 4.80682 0
M  V30 8280 H 748.605 3.23494 4.90536 0
M  V30 8281 H 750.129 2.55653 5.54503 0
M  V30 8282 H 751.543 4.1642 3.9404 0
M  V30 8283 H 749.94 4.84617 3.5393 0
M  V30 8284 H 751.01 4.30374 2.23397 0
M  V30 8285 N 752.353 -0.854086 1.3245 0
M  V30 8286 C 753.303 -1.9508 1.18016 0
M  V30 8287 C 754.287 -1.60665 0.0869417 0
M  V30 8288 O 755.479 -1.74201 0.313505 0
M  V30 8289 C 752.608 -3.3113 0.905961 0
M  V30 8290 C 751.694 -3.71763 2.04091 0
M  V30 8291 N 752.085 -3.84218 3.28953 0
M  V30 8292 C 750.383 -4.01393 1.94421 0
M  V30 8293 C 751.084 -4.192 4.03294 0
M  V30 8294 N 750.06 -4.30749 3.31596 0
M  V30 8295 H 753.862 -2.02843 2.12678 0
M  V30 8296 H 751.376 -1.04588 1.24238 0
M  V30 8297 H 753.373 -4.09471 0.783508 0
M  V30 8298 H 752.033 -3.24684 -0.0322715 0
M  V30 8299 H 753.044 -3.68524 3.63883 0
M  V30 8300 H 749.721 -4.03246 1.08162 0
M  V30 8301 H 751.111 -4.36301 5.1097 0
M  V30 8302 N 753.831 -1.1567 -1.07043 0
M  V30 8303 C 755.079 -0.931673 -1.79344 0
M  V30 8304 C 755.4 0.542421 -1.87304 0
M  V30 8305 O 754.67 1.39418 -1.37621 0
M  V30 8306 H 753.25 -0.34171 -0.664262 0
M  V30 8307 H 755.912 -1.45795 -1.29344 0
M  V30 8308 H 755.008 -1.34379 -2.81689 0
M  V30 8309 N 755.309 1.25446 -0.953992 0
M  V30 8310 C 756.534 1.97755 -0.625129 0
M  V30 8311 C 756.959 1.70437 0.795787 0
M  V30 8312 O 756.317 0.95992 1.53803 0
M  V30 8313 C 756.365 3.49463 -0.889251 0
M  V30 8314 O 755.469 4.12387 0.0322757 0
M  V30 8315 H 754.81 0.61998 -0.237742 0
M  V30 8316 H 757.34 1.59582 -1.28041 0
M  V30 8317 H 757.35 3.99772 -0.815263 0
M  V30 8318 H 756.025 3.68676 -1.92487 0
M  V30 8319 H 754.602 3.72782 -0.0938625 0
M  V30 8320 N 756.787 0.722489 1.40064 0
M  V30 8321 C 758.064 0.191829 1.94657 0
M  V30 8322 C 758.444 -1.30389 1.66018 0
M  V30 8323 O 757.792 -2.06342 0.981588 0
M  V30 8324 C 758.002 0.511978 3.45224 0
M  V30 8325 C 759.35 0.454426 4.22161 0
M  V30 8326 O 760.374 0.448438 3.53366 0
M  V30 8327 O 759.233 0.437986 5.44742 0
M  V30 8328 H 756.327 0.0307821 0.826427 0
M  V30 8329 H 758.873 0.800493 1.49634 0
M  V30 8330 H 757.645 1.54622 3.59455 0
M  V30 8331 H 757.268 -0.126296 3.97399 0
M  V30 8332 N 758.265 -1.50454 0.469181 0
M  V30 8333 C 759.681 -1.59124 0.123226 0
M  V30 8334 C 759.881 -1.47749 -1.37013 0
M  V30 8335 O 758.937 -1.335 -2.14322 0
M  V30 8336 C 760.25 -2.93101 0.67172 0
M  V30 8337 C 761.798 -3.06491 0.634978 0
M  V30 8338 C 762.273 -4.43041 1.16098 0
M  V30 8339 N 763.764 -4.49448 1.12031 0
M  V30 8340 C 764.499 -5.53491 1.49784 0
M  V30 8341 N 763.995 -6.64798 1.94976 0
M  V30 8342 N 765.788 -5.44025 1.41399 0
M  V30 8343 H 757.939 -1.56091 1.44046 0
M  V30 8344 H 760.202 -0.737564 0.59557 0
M  V30 8345 H 759.908 -3.06895 1.7178 0
M  V30 8346 H 759.782 -3.77027 0.114222 0
M  V30 8347 H 762.169 -2.92346 -0.402187 0
M  V30 8348 H 762.25 -2.24328 1.22926 0
M  V30 8349 H 761.894 -4.57935 2.19677 0
M  V30 8350 H 761.824 -5.23794 0.542939 0
M  V30 8351 H 764.315 -3.69575 0.788828 0
M  V30 8352 H 764.628 -7.40246 2.21936 0
M  V30 8353 H 762.973 -6.65923 1.98927 0
M  V30 8354 H 766.164 -4.55955 1.05935 0
M  V30 8355 H 766.337 -6.2499 1.71147 0
M  V30 8356 N 759.743 -0.201713 -1.56304 0
M  V30 8357 C 760.968 0.443815 -2.02596 0
M  V30 8358 C 761.393 1.53945 -1.08086 0
M  V30 8359 O 760.751 1.81182 -0.0655056 0
M  V30 8360 C 760.799 0.971066 -3.47279 0
M  V30 8361 O 759.903 2.0836 -3.55893 0
M  V30 8362 H 759.244 0.10294 -0.655972 0
M  V30 8363 H 761.774 -0.314533 -2.02168 0
M  V30 8364 H 761.784 1.28598 -3.87204 0
M  V30 8365 H 760.459 0.169048 -4.15556 0
M  V30 8366 H 759.036 1.77683 -3.27846 0
M  V30 8367 N 761.222 1.57436 0.0718424 0
M  V30 8368 C 762.469 1.87248 0.771007 0
M  V30 8369 C 762.797 0.793441 1.7758 0
M  V30 8370 O 762.052 -0.210565 1.94564 0
M  V30 8371 C 762.351 3.23723 1.51455 0
M  V30 8372 C 762.017 4.46194 0.649736 0
M  V30 8373 C 760.679 4.79438 0.411409 0
M  V30 8374 C 763.031 5.21176 0.05004 0
M  V30 8375 C 760.359 5.85077 -0.436096 0
M  V30 8376 C 762.711 6.27712 -0.784919 0
M  V30 8377 C 761.375 6.59457 -1.03312 0
M  V30 8378 H 760.645 0.685188 0.282132 0
M  V30 8379 H 763.292 1.91474 0.0317896 0
M  V30 8380 H 761.597 3.15287 2.32597 0
M  V30 8381 H 763.294 3.44023 2.06031 0
M  V30 8382 H 759.884 4.20175 0.84562 0
M  V30 8383 H 764.068 4.95806 0.221282 0
M  V30 8384 H 759.324 6.08071 -0.637136 0
M  V30 8385 H 763.498 6.84974 -1.25635 0
M  V30 8386 H 761.125 7.4114 -1.6916 0
M  V30 8387 N 762.7 -0.34323 1.53817 0
M  V30 8388 C 764.111 -0.918823 1.62525 0
M  V30 8389 C 764.462 -1.89542 0.506765 0
M  V30 8390 O 763.587 -2.13326 -0.363441 0
M  V30 8391 C 764.182 -1.67326 2.94597 0
M  V30 8392 C 762.741 -2.19786 3.05567 0
M  V30 8393 C 761.888 -1.01708 2.57974 0
M  V30 8394 H 764.839 -0.121358 1.58235 0
M  V30 8395 H 764.86 -2.53615 2.83654 0
M  V30 8396 H 764.372 -0.962223 3.75983 0
M  V30 8397 H 762.473 -2.94065 2.28816 0
M  V30 8398 H 762.586 -2.46135 4.1104 0
M  V30 8399 H 760.95 -1.39058 2.13389 0
M  V30 8400 H 761.733 -0.320671 3.41799 0
M  V30 8401 N 764.178 -1.45556 -0.604258 0
M  V30 8402 C 765.403 -1.53509 -1.39462 0
M  V30 8403 C 765.828 -0.169638 -1.87333 0
M  V30 8404 O 765.186 0.846346 -1.60333 0
M  V30 8405 C 765.234 -2.52654 -2.5729 0
M  V30 8406 O 764.338 -2.04666 -3.5803 0
M  V30 8407 H 763.679 -0.517355 -0.416221 0
M  V30 8408 H 766.209 -1.90939 -0.735072 0
M  V30 8409 H 766.219 -2.71568 -3.04491 0
M  V30 8410 H 764.894 -3.51823 -2.21797 0
M  V30 8411 H 763.471 -1.95643 -3.17456 0
M  V30 8412 N 765.656 0.84705 -1.32902 0
M  V30 8413 C 766.586 1.97166 -1.25091 0
M  V30 8414 C 767.567 1.69578 -0.133161 0
M  V30 8415 O 768.752 1.91519 -0.321591 0
M  V30 8416 C 765.882 3.33157 -0.981006 0
M  V30 8417 C 764.836 3.75119 -2.06082 0
M  V30 8418 C 764.162 5.08826 -1.64318 0
M  V30 8419 C 765.462 3.89774 -3.47669 0
M  V30 8420 H 767.156 2.03958 -2.19184 0
M  V30 8421 H 764.702 0.979907 -1.05517 0
M  V30 8422 H 766.655 4.11393 -0.912891 0
M  V30 8423 H 765.379 3.266 -0.00445559 0
M  V30 8424 H 764.038 2.9914 -2.11921 0
M  V30 8425 H 763.686 4.98732 -0.653876 0
M  V30 8426 H 763.386 5.37873 -2.36572 0
M  V30 8427 H 764.91 5.89546 -1.58958 0
M  V30 8428 H 766.324 4.58343 -3.44376 0
M  V30 8429 H 764.721 4.30248 -4.18338 0
M  V30 8430 H 765.791 2.92463 -3.86773 0
M  V30 8431 N 767.134 1.16236 1.06428 0
M  V30 8432 C 768.382 0.941171 1.78847 0
M  V30 8433 C 768.703 -0.53248 1.87589 0
M  V30 8434 O 767.973 -1.38686 1.38358 0
M  V30 8435 H 766.553 0.345228 0.66244 0
M  V30 8436 H 769.215 1.46479 1.28569 0
M  V30 8437 H 768.311 1.35871 2.80972 0
M  V30 8438 N 768.612 -1.24939 0.960631 0
M  V30 8439 C 769.889 -1.88118 0.535807 0
M  V30 8440 C 770.269 -1.86605 -0.987009 0
M  V30 8441 O 769.617 -1.33375 -1.85536 0
M  V30 8442 C 769.827 -3.30565 1.11927 0
M  V30 8443 C 771.175 -4.07296 1.19981 0
M  V30 8444 O 772.199 -3.39709 1.07126 0
M  V30 8445 O 771.058 -5.28206 1.40218 0
M  V30 8446 H 768.152 -0.807698 0.177631 0
M  V30 8447 H 770.698 -1.32964 1.05445 0
M  V30 8448 H 769.47 -3.26128 2.16231 0
M  V30 8449 H 769.093 -3.93284 0.584245 0
M  V30 8450 N 770.09 -0.729906 -1.39679 0
M  V30 8451 C 771.02 -0.101618 -2.33279 0
M  V30 8452 C 772.001 0.729854 -1.53646 0
M  V30 8453 O 773.186 0.67587 -1.82059 0
M  V30 8454 C 770.316 0.81024 -3.37716 0
M  V30 8455 C 769.27 0.0833126 -4.27919 0
M  V30 8456 C 768.596 1.11185 -5.23012 0
M  V30 8457 C 769.896 -1.07107 -5.112 0
M  V30 8458 H 771.59 -0.883452 -2.86069 0
M  V30 8459 H 769.136 -0.426283 -1.37546 0
M  V30 8460 H 771.089 1.25927 -4.02145 0
M  V30 8461 H 769.813 1.62413 -2.83354 0
M  V30 8462 H 768.472 -0.346043 -3.64963 0
M  V30 8463 H 768.12 1.91917 -4.64948 0
M  V30 8464 H 767.82 0.63026 -5.8421 0
M  V30 8465 H 769.344 1.56068 -5.90318 0
M  V30 8466 H 770.758 -0.700726 -5.69002 0
M  V30 8467 H 769.155 -1.48196 -5.81514 0
M  V30 8468 H 770.225 -1.89513 -4.46332 0
M  V30 8469 N 771.568 1.50203 -0.477153 0
M  V30 8470 C 772.501 2.25343 0.359983 0
M  V30 8471 C 773.479 1.28909 0.991022 0
M  V30 8472 O 774.663 1.58146 1.02578 0
M  V30 8473 C 771.79 3.03431 1.5049 0
M  V30 8474 C 770.836 4.14836 0.99063 0
M  V30 8475 S 771.669 5.35407 -0.0995413 0
M  V30 8476 C 772.825 6.17045 1.04911 0
M  V30 8477 H 773.058 2.95999 -0.277836 0
M  V30 8478 H 770.591 1.52159 -0.262115 0
M  V30 8479 H 772.549 3.49012 2.16105 0
M  V30 8480 H 771.21 2.32289 2.11425 0
M  V30 8481 H 770.403 4.689 1.84794 0
M  V30 8482 H 770.005 3.71723 0.412097 0
M  V30 8483 H 772.297 6.48546 1.95946 0
M  V30 8484 H 773.24 7.05979 0.547596 0
M  V30 8485 H 773.648 5.49193 1.30567 0
M  V30 8486 N 773.046 0.209999 1.56195 0
M  V30 8487 C 774.271 -0.433064 2.02828 0
M  V30 8488 C 774.696 -1.5337 1.08901 0
M  V30 8489 O 774.054 -1.81144 0.0751132 0
M  V30 8490 C 774.102 -0.952635 3.47789 0
M  V30 8491 O 773.206 -2.0647 3.56993 0
M  V30 8492 H 772.547 -0.0994594 0.656509 0
M  V30 8493 H 775.077 0.32525 2.01998 0
M  V30 8494 H 775.087 -1.26542 3.8788 0
M  V30 8495 H 773.762 -0.147007 4.1564 0
M  V30 8496 H 772.339 -1.75942 3.28784 0
M  V30 8497 N 774.524 -1.57472 -0.0634922 0
M  V30 8498 C 775.474 -2.00709 -1.08166 0
M  V30 8499 C 776.458 -0.890498 -1.34011 0
M  V30 8500 O 777.65 -1.15441 -1.34173 0
M  V30 8501 C 774.779 -2.46148 -2.39303 0
M  V30 8502 C 773.865 -3.64559 -2.16697 0
M  V30 8503 N 774.256 -4.78459 -1.64043 0
M  V30 8504 C 772.554 -3.71269 -2.47135 0
M  V30 8505 C 773.255 -5.60268 -1.56445 0
M  V30 8506 N 772.231 -5.04357 -2.02792 0
M  V30 8507 H 776.033 -2.86208 -0.668016 0
M  V30 8508 H 773.547 -1.60133 -0.270426 0
M  V30 8509 H 775.544 -2.75367 -3.13016 0
M  V30 8510 H 774.204 -1.62041 -2.81377 0
M  V30 8511 H 775.215 -5.00587 -1.32791 0
M  V30 8512 H 771.892 -2.97891 -2.92518 0
M  V30 8513 H 773.282 -6.6172 -1.16519 0
M  V30 8514 N 776.003 0.335068 -1.53997 0
M  V30 8515 C 776.933 1.41727 -1.85568 0
M  V30 8516 C 777.914 1.54505 -0.7115 0
M  V30 8517 O 779.099 1.68573 -0.964191 0
M  V30 8518 C 776.229 2.7866 -2.07282 0
M  V30 8519 C 775.183 2.80682 -3.23112 0
M  V30 8520 C 774.509 4.20581 -3.30175 0
M  V30 8521 C 775.809 2.45458 -4.61029 0
M  V30 8522 H 777.503 1.15555 -2.76202 0
M  V30 8523 H 775.049 0.554445 -1.32898 0
M  V30 8524 H 777.002 3.54423 -2.27952 0
M  V30 8525 H 775.726 3.06286 -1.13387 0
M  V30 8526 H 774.385 2.07373 -3.02311 0
M  V30 8527 H 774.033 4.4533 -2.33859 0
M  V30 8528 H 773.733 4.22843 -4.08016 0
M  V30 8529 H 775.257 4.98174 -3.53066 0
M  V30 8530 H 776.671 3.10934 -4.81656 0
M  V30 8531 H 775.068 2.5899 -5.41336 0
M  V30 8532 H 776.138 1.40628 -4.6406 0
M  V30 8533 N 777.481 1.45874 0.596531 0
M  V30 8534 C 778.428 1.55389 1.70655 0
M  V30 8535 C 779.398 0.399036 1.61236 0
M  V30 8536 O 780.583 0.61396 1.80652 0
M  V30 8537 C 777.723 1.53705 3.0898 0
M  V30 8538 C 776.836 2.79823 3.29125 0
M  V30 8539 C 775.971 2.69735 4.5762 0
M  V30 8540 C 775.01 3.90856 4.71061 0
M  V30 8541 N 774.147 3.79237 5.90867 0
M  V30 8542 H 778.987 2.50211 1.61859 0
M  V30 8543 H 776.524 1.24146 0.789069 0
M  V30 8544 H 778.482 1.50715 3.89026 0
M  V30 8545 H 777.112 0.624247 3.16706 0
M  V30 8546 H 776.164 2.92852 2.42779 0
M  V30 8547 H 777.476 3.69628 3.34927 0
M  V30 8548 H 776.63 2.64773 5.45875 0
M  V30 8549 H 775.369 1.77547 4.54234 0
M  V30 8550 H 774.374 3.96164 3.81227 0
M  V30 8551 H 775.599 4.84124 4.76236 0
M  V30 8552 H 773.545 2.89825 5.88504 0
M  V30 8553 H 773.462 4.62686 5.97877 0
M  V30 8554 H 774.73 3.78227 6.8159 0
M  V30 8555 N 778.959 -0.83999 1.33349 0
M  V30 8556 C 779.906 -1.94972 1.23509 0
M  V30 8557 C 780.876 -1.65709 0.113967 0
M  V30 8558 O 782.061 -1.88552 0.292045 0
M  V30 8559 C 779.201 -3.30919 0.979105 0
M  V30 8560 C 778.314 -3.72587 2.18639 0
M  V30 8561 C 777.449 -4.97397 1.86465 0
M  V30 8562 C 776.488 -5.31597 3.03432 0
M  V30 8563 N 775.625 -6.47584 2.71254 0
M  V30 8564 H 780.465 -2.0272 2.18423 0
M  V30 8565 H 778.002 -0.992017 1.08616 0
M  V30 8566 H 779.96 -4.09239 0.811126 0
M  V30 8567 H 778.59 -3.22731 0.0667099 0
M  V30 8568 H 777.642 -2.89799 2.46416 0
M  V30 8569 H 778.954 -3.93844 3.06086 0
M  V30 8570 H 778.108 -5.83462 1.66305 0
M  V30 8571 H 776.847 -4.78107 0.96254 0
M  V30 8572 H 775.852 -4.44037 3.24208 0
M  V30 8573 H 777.077 -5.52836 3.94397 0
M  V30 8574 H 775.023 -6.29783 1.836 0
M  V30 8575 H 774.94 -6.68931 3.52231 0
M  V30 8576 H 776.208 -7.36764 2.54558 0
M  V30 8577 N 780.437 -1.16799 -1.0581 0
M  V30 8578 C 781.369 -0.836774 -2.13379 0
M  V30 8579 C 782.382 0.158116 -1.6203 0
M  V30 8580 O 783.571 -0.0673211 -1.78373 0
M  V30 8581 C 780.671 -0.225959 -3.38146 0
M  V30 8582 C 779.844 -1.26217 -4.18794 0
M  V30 8583 C 778.903 -0.670257 -5.21914 0
M  V30 8584 O 777.929 -1.34042 -5.53192 0
M  V30 8585 N 779.131 0.540683 -5.77977 0
M  V30 8586 H 781.896 -1.76257 -2.42391 0
M  V30 8587 H 779.457 -1.06599 -1.21853 0
M  V30 8588 H 781.449 0.18317 -4.04285 0
M  V30 8589 H 780.019 0.603494 -3.06719 0
M  V30 8590 H 779.239 -1.84729 -3.48237 0
M  V30 8591 H 780.527 -1.9613 -4.69479 0
M  V30 8592 H 779.925 1.10322 -5.54838 0
M  V30 8593 H 778.482 0.891958 -6.45668 0
M  V30 8594 N 781.915 1.24427 -0.967243 0
M  V30 8595 C 783.164 1.91789 -0.624478 0
M  V30 8596 C 783.477 1.76448 0.844129 0
M  V30 8597 O 784.683 2.38495 1.2974 0
M  V30 8598 C 783.139 3.43743 -1.06626 0
M  V30 8599 C 782.747 3.67771 -2.55829 0
M  V30 8600 C 784.491 4.16958 -0.79662 0
M  V30 8601 C 782.398 5.13293 -2.93742 0
M  V30 8602 H 781.328 0.71811 -0.229856 0
M  V30 8603 H 783.979 1.41081 -1.17339 0
M  V30 8604 H 782.361 3.93484 -0.445663 0
M  V30 8605 H 783.535 3.28631 -3.23015 0
M  V30 8606 H 781.85 3.07841 -2.80398 0
M  V30 8607 H 784.447 5.24171 -1.05589 0
M  V30 8608 H 784.79 4.15442 0.267163 0
M  V30 8609 H 785.323 3.73164 -1.37816 0
M  V30 8610 H 782.062 5.19931 -3.9919 0
M  V30 8611 H 781.582 5.53433 -2.3124 0
M  V30 8612 H 783.261 5.81521 -2.83623 0
M  V30 8613 N 783.393 0.737304 1.3929 0
M  V30 8614 C 784.323 0.113988 2.33222 0
M  V30 8615 C 785.304 -0.721695 1.54031 0
M  V30 8616 O 786.489 -0.666206 1.82415 0
M  V30 8617 C 783.619 -0.792319 3.38141 0
M  V30 8618 C 782.573 -0.0606178 4.27957 0
M  V30 8619 C 781.899 -1.08409 5.23595 0
M  V30 8620 C 783.199 1.09817 5.10625 0
M  V30 8621 H 784.893 0.898611 2.85596 0
M  V30 8622 H 782.439 0.433571 1.37318 0
M  V30 8623 H 784.392 -1.23793 4.02807 0
M  V30 8624 H 783.116 -1.60908 2.84211 0
M  V30 8625 H 781.775 0.365393 3.64775 0
M  V30 8626 H 781.423 -1.89449 4.6596 0
M  V30 8627 H 781.123 -0.599269 5.84536 0
M  V30 8628 H 782.647 -1.52936 5.91137 0
M  V30 8629 H 784.061 0.730892 5.68622 0
M  V30 8630 H 782.458 1.51278 5.80719 0
M  V30 8631 H 783.528 1.91878 4.45321 0
M  V30 8632 N 784.871 -1.49948 0.485112 0
M  V30 8633 C 786.287 -1.58984 0.140096 0
M  V30 8634 C 786.487 -1.49194 -1.35438 0
M  V30 8635 O 785.543 -1.35765 -2.12894 0
M  V30 8636 C 786.856 -2.92372 0.702769 0
M  V30 8637 C 788.404 -3.05801 0.66745 0
M  V30 8638 C 788.879 -4.41785 1.20791 0
M  V30 8639 N 790.37 -4.48234 1.16792 0
M  V30 8640 C 791.105 -5.51871 1.55646 0
M  V30 8641 N 790.601 -6.62692 2.02016 0
M  V30 8642 N 792.394 -5.42494 1.47161 0
M  V30 8643 H 784.545 -1.54555 1.45693 0
M  V30 8644 H 786.808 -0.731206 0.603359 0
M  V30 8645 H 786.514 -3.05056 1.75025 0
M  V30 8646 H 786.388 -3.76885 0.154205 0
M  V30 8647 H 788.775 -2.92757 -0.371157 0
M  V30 8648 H 788.856 -2.23011 1.25298 0
M  V30 8649 H 788.5 -4.55579 2.24522 0
M  V30 8650 H 788.43 -5.23188 0.598464 0
M  V30 8651 H 790.921 -3.68718 0.827982 0
M  V30 8652 H 791.234 -7.3785 2.29775 0
M  V30 8653 H 789.579 -6.63775 2.05979 0
M  V30 8654 H 792.77 -4.54806 1.10765 0
M  V30 8655 H 792.943 -6.2314 1.77766 0
M  V30 8656 N 786.349 -0.21828 -1.56081 0
M  V30 8657 C 787.577 0.419258 -2.02608 0
M  V30 8658 C 787.992 1.53578 -1.09814 0
M  V30 8659 O 787.349 1.82185 -0.107149 0
M  V30 8660 C 787.4 0.953955 -3.48686 0
M  V30 8661 O 787.121 -0.11805 -4.37941 0
M  V30 8662 C 788.622 1.66506 -4.10841 0
M  V30 8663 H 785.842 0.10296 -0.663054 0
M  V30 8664 H 788.386 -0.333776 -2.01758 0
M  V30 8665 H 786.541 1.65727 -3.50162 0
M  V30 8666 H 786.955 0.283359 -5.23734 0
M  V30 8667 H 788.429 1.99123 -5.14834 0
M  V30 8668 H 788.906 2.57705 -3.55647 0
M  V30 8669 H 789.512 1.00703 -4.13206 0
M  V30 8670 N 787.827 1.57504 0.0551401 0
M  V30 8671 C 789.104 1.79155 0.785048 0
M  V30 8672 C 789.484 0.809995 1.94942 0
M  V30 8673 O 788.832 -0.153432 2.27984 0
M  V30 8674 C 789.042 3.26134 1.24247 0
M  V30 8675 C 790.39 3.90419 1.66908 0
M  V30 8676 O 791.414 3.30126 1.33772 0
M  V30 8677 O 790.273 4.96523 2.28314 0
M  V30 8678 H 787.367 0.735825 0.377479 0
M  V30 8679 H 789.913 1.69666 0.0339285 0
M  V30 8680 H 788.685 3.89145 0.410089 0
M  V30 8681 H 788.308 3.40411 2.05441 0
M  V30 8682 N 789.305 -0.326896 1.54172 0
M  V30 8683 C 790.253 -1.42232 1.84046 0
M  V30 8684 C 791.247 -1.53705 0.712115 0
M  V30 8685 O 792.453 -1.56131 0.895724 0
M  V30 8686 H 788.828 -0.474568 0.583343 0
M  V30 8687 H 790.799 -1.14259 2.75658 0
M  V30 8688 C 789.548 -2.78502 2.08163 0
M  V30 8689 H 788.871 -2.70447 2.94446 0
M  V30 8690 H 790.311 -3.54228 2.33021 0
M  V30 8691 C 788.77 -3.25415 0.872152 0
M  V30 8692 O 789.3 -4.01621 0.0797648 0
M  V30 8693 N 787.506 -2.82418 0.684716 0
M  V30 8694 H 787.053 -2.20566 1.33072 0
M  V30 8695 H 787.011 -3.14159 -0.123031 0
M  V30 8696 N 790.784 -1.46188 -0.588786 0
M  V30 8697 C 792.033 -1.50452 -1.34339 0
M  V30 8698 C 792.346 -0.158096 -1.9496 0
M  V30 8699 O 793.552 -0.0784918 -2.71387 0
M  V30 8700 C 792.008 -2.65074 -2.43441 0
M  V30 8701 C 791.616 -4.06111 -1.8915 0
M  V30 8702 C 793.36 -2.78603 -3.20282 0
M  V30 8703 C 791.267 -5.12084 -2.95845 0
M  V30 8704 H 790.197 -0.559905 -0.504997 0
M  V30 8705 H 792.848 -1.72382 -0.629014 0
M  V30 8706 H 791.23 -2.36462 -3.1765 0
M  V30 8707 H 792.404 -4.44487 -1.21524 0
M  V30 8708 H 790.719 -3.97197 -1.24995 0
M  V30 8709 H 793.316 -3.54944 -3.99898 0
M  V30 8710 H 793.659 -1.85902 -3.72486 0
M  V30 8711 H 794.192 -3.06832 -2.53178 0
M  V30 8712 H 790.931 -6.06556 -2.48535 0
M  V30 8713 H 790.451 -4.78259 -3.61979 0
M  V30 8714 H 792.13 -5.37661 -3.59902 0
M  V30 8715 N 792.262 0.832906 -1.33792 0
M  V30 8716 C 793.487 1.62568 -1.28788 0
M  V30 8717 C 793.912 1.87599 0.137246 0
M  V30 8718 O 793.27 1.44436 1.0958 0
M  V30 8719 C 793.318 2.9495 -2.07453 0
M  V30 8720 O 792.422 3.86546 -1.43722 0
M  V30 8721 H 791.763 0.494809 -0.442787 0
M  V30 8722 H 794.293 1.03578 -1.76445 0
M  V30 8723 H 794.303 3.44599 -2.1844 0
M  V30 8724 H 792.978 2.76055 -3.11073 0
M  V30 8725 H 791.555 3.45044 -1.41417 0
M  V30 8726 N 793.74 1.17359 1.05189 0
M  V30 8727 C 794.987 0.961987 1.78191 0
M  V30 8728 C 795.315 -0.509363 1.87712 0
M  V30 8729 O 794.57 -1.39425 1.37329 0
M  V30 8730 C 794.869 1.54821 3.22126 0
M  V30 8731 C 794.535 3.04378 3.32663 0
M  V30 8732 C 793.197 3.45201 3.35246 0
M  V30 8733 C 795.549 4.00387 3.33677 0
M  V30 8734 C 792.877 4.80629 3.36471 0
M  V30 8735 C 795.229 5.35715 3.36441 0
M  V30 8736 C 793.893 5.76002 3.37311 0
M  V30 8737 H 793.163 0.352016 0.652047 0
M  V30 8738 H 795.81 1.46249 1.23627 0
M  V30 8739 H 794.115 0.969432 3.79617 0
M  V30 8740 H 795.812 1.36004 3.77232 0
M  V30 8741 H 792.402 2.71836 3.31366 0
M  V30 8742 H 796.586 3.69906 3.30882 0
M  V30 8743 H 791.842 5.11155 3.35455 0
M  V30 8744 H 796.016 6.09886 3.36173 0
M  V30 8745 H 793.643 6.80919 3.38013 0
M  V30 8746 N 795.218 -1.23913 0.973828 0
M  V30 8747 C 796.151 -2.23647 0.45355 0
M  V30 8748 C 797.129 -1.55485 -0.475724 0
M  V30 8749 O 798.313 -1.84083 -0.405689 0
M  V30 8750 C 795.44 -3.36942 -0.344594 0
M  V30 8751 C 794.486 -4.23221 0.527859 0
M  V30 8752 S 795.319 -4.97877 1.97177 0
M  V30 8753 C 796.475 -6.14627 1.18258 0
M  V30 8754 H 796.708 -2.67433 1.29873 0
M  V30 8755 H 794.241 -1.33289 0.779322 0
M  V30 8756 H 796.199 -4.02647 -0.799103 0
M  V30 8757 H 794.86 -2.91703 -1.16482 0
M  V30 8758 H 794.053 -5.03928 -0.0852555 0
M  V30 8759 H 793.655 -3.6255 0.918344 0
M  V30 8760 H 795.947 -6.76066 0.440629 0
M  V30 8761 H 796.89 -6.80311 1.96425 0
M  V30 8762 H 797.298 -5.6009 0.704256 0
M  V30 8763 N 796.696 -0.74468 -1.38897 0
M  V30 8764 C 797.626 -0.126355 -2.33158 0
M  V30 8765 C 798.607 0.713517 -1.54412 0
M  V30 8766 O 799.792 0.656523 -1.82766 0
M  V30 8767 C 796.922 0.774375 -3.38557 0
M  V30 8768 C 795.876 0.0379214 -4.27983 0
M  V30 8769 C 795.202 1.05631 -5.24162 0
M  V30 8770 C 796.502 -1.12523 -5.10035 0
M  V30 8771 H 798.196 -0.913744 -2.85116 0
M  V30 8772 H 795.742 -0.440847 -1.37086 0
M  V30 8773 H 797.695 1.21655 -4.03458 0
M  V30 8774 H 796.419 1.59399 -2.85061 0
M  V30 8775 H 795.078 -0.384733 -3.64576 0
M  V30 8776 H 794.726 1.86975 -4.66958 0
M  V30 8777 H 794.426 0.568261 -5.84846 0
M  V30 8778 H 795.95 1.49799 -5.9194 0
M  V30 8779 H 797.364 -0.761037 -5.68226 0
M  V30 8780 H 795.761 -1.54355 -5.79909 0
M  V30 8781 H 796.831 -1.94237 -4.44297 0
M  V30 8782 N 798.174 1.49689 -0.493057 0
M  V30 8783 C 799.121 2.28976 0.28959 0
M  V30 8784 C 800.091 1.35011 0.967536 0
M  V30 8785 O 801.276 1.63964 0.975736 0
M  V30 8786 C 798.416 3.1748 1.35279 0
M  V30 8787 C 797.529 4.26496 0.687418 0
M  V30 8788 C 796.664 5.02226 1.73038 0
M  V30 8789 C 795.703 6.03089 1.04645 0
M  V30 8790 N 794.84 6.72014 2.03325 0
M  V30 8791 H 799.68 2.954 -0.392798 0
M  V30 8792 H 797.217 1.45657 -0.205554 0
M  V30 8793 H 799.175 3.67162 1.98111 0
M  V30 8794 H 797.805 2.53057 2.00405 0
M  V30 8795 H 796.857 3.80362 -0.0540001 0
M  V30 8796 H 798.169 4.98578 0.14864 0
M  V30 8797 H 797.323 5.55737 2.43395 0
M  V30 8798 H 796.062 4.29899 2.303 0
M  V30 8799 H 795.067 5.48817 0.328606 0
M  V30 8800 H 796.292 6.77398 0.480428 0
M  V30 8801 H 794.238 6.02464 2.59564 0
M  V30 8802 H 794.155 7.40046 1.54492 0
M  V30 8803 H 795.423 7.30133 2.72995 0
M  V30 8804 N 799.652 0.226554 1.55963 0
M  V30 8805 C 801.068 -0.128733 1.5908 0
M  V30 8806 C 801.268 -1.58558 1.24345 0
M  V30 8807 O 800.324 -2.32661 0.981069 0
M  V30 8808 C 801.637 0.202076 3.0002 0
M  V30 8809 C 803.185 0.144718 3.12665 0
M  V30 8810 C 803.66 0.449272 4.55791 0
M  V30 8811 N 805.151 0.399026 4.61478 0
M  V30 8812 C 805.886 0.608106 5.70166 0
M  V30 8813 N 805.382 0.879227 6.87198 0
M  V30 8814 N 807.175 0.5402 5.59498 0
M  V30 8815 H 799.326 1.17686 1.76816 0
M  V30 8816 H 801.589 0.472072 0.822102 0
M  V30 8817 H 801.295 1.21341 3.30105 0
M  V30 8818 H 801.169 -0.480554 3.74126 0
M  V30 8819 H 803.556 -0.857261 2.82374 0
M  V30 8820 H 803.637 0.860899 2.40878 0
M  V30 8821 H 803.281 1.44871 4.86801 0
M  V30 8822 H 803.211 -0.288157 5.25811 0
M  V30 8823 H 805.702 0.197372 3.77384 0
M  V30 8824 H 806.015 1.02673 7.65949 0
M  V30 8825 H 804.36 0.916477 6.88931 0
M  V30 8826 H 807.551 0.328581 4.66945 0
M  V30 8827 H 807.724 0.706548 6.44137 0
M  V30 8828 N 801.13 -1.57531 -0.0467866 0
M  V30 8829 C 802.37 -1.90294 -0.746171 0
M  V30 8830 C 802.734 -0.823194 -1.73458 0
M  V30 8831 O 803.935 -1.03463 -2.48091 0
M  V30 8832 C 802.206 -3.28249 -1.41378 0
M  V30 8833 S 803.765 -3.82812 -2.14477 0
M  V30 8834 H 800.583 -0.666496 -0.247598 0
M  V30 8835 H 803.185 -1.955 -0.00135143 0
M  V30 8836 H 801.889 -4.04712 -0.680937 0
M  V30 8837 H 801.42 -3.26302 -2.19751 0
M  V30 8838 H 803.435 -3.60111 -3.41372 0
M  V30 8839 N 802.608 0.318715 -1.54344 0
M  V30 8840 C 803.848 1.06425 -1.74508 0
M  V30 8841 C 804.212 1.85087 -0.510572 0
M  V30 8842 O 805.413 2.62253 -0.589647 0
M  V30 8843 C 803.684 1.96054 -2.98827 0
M  V30 8844 S 805.243 2.77493 -3.39916 0
M  V30 8845 H 802.061 0.35921 -0.613587 0
M  V30 8846 H 804.663 0.339679 -1.92526 0
M  V30 8847 H 803.367 1.37109 -3.8682 0
M  V30 8848 H 802.898 2.72908 -2.83346 0
M  V30 8849 H 804.913 3.98544 -2.95596 0
M  V30 8850 N 804.086 1.46499 0.581025 0
M  V30 8851 C 805.018 1.53225 1.70455 0
M  V30 8852 C 806.031 0.420443 1.57277 0
M  V30 8853 O 807.22 0.688888 1.64671 0
M  V30 8854 C 804.32 1.39803 3.08721 0
M  V30 8855 C 803.493 2.65132 3.47884 0
M  V30 8856 C 802.552 2.45886 4.65217 0
M  V30 8857 O 801.578 3.19615 4.70993 0
M  V30 8858 N 802.78 1.5216 5.60203 0
M  V30 8859 H 805.545 2.50098 1.65139 0
M  V30 8860 H 803.106 1.42576 0.76705 0
M  V30 8861 H 805.098 1.24697 3.8501 0
M  V30 8862 H 803.668 0.51104 3.08394 0
M  V30 8863 H 802.888 2.95169 2.61284 0
M  V30 8864 H 804.176 3.48385 3.70817 0
M  V30 8865 H 803.574 0.913646 5.58273 0
M  V30 8866 H 802.131 1.43017 6.35916 0
M  V30 8867 N 805.565 -0.825799 1.34232 0
M  V30 8868 C 806.976 -1.39835 1.23706 0
M  V30 8869 C 807.327 -1.95709 -0.138649 0
M  V30 8870 O 806.452 -1.89833 -1.03886 0
M  V30 8871 C 807.047 -2.54203 2.23978 0
M  V30 8872 C 805.606 -3.07374 2.17251 0
M  V30 8873 C 804.753 -1.80232 2.10741 0
M  V30 8874 H 807.704 -0.630442 1.4564 0
M  V30 8875 H 807.725 -3.32214 1.8551 0
M  V30 8876 H 807.237 -2.13506 3.24094 0
M  V30 8877 H 805.338 -3.52583 1.20483 0
M  V30 8878 H 805.451 -3.6666 3.08379 0
M  V30 8879 H 803.815 -2.01012 1.56417 0
M  V30 8880 H 804.598 -1.41713 3.12686 0
M  V30 8881 N 807.043 -1.17915 -1.04565 0
M  V30 8882 C 807.99 -0.901605 -2.12461 0
M  V30 8883 C 808.96 0.157011 -1.65356 0
M  V30 8884 O 810.145 0.0184494 -1.90791 0
M  V30 8885 C 807.285 -0.42796 -3.42436 0
M  V30 8886 C 806.398 -1.55142 -4.03181 0
M  V30 8887 C 805.533 -1.03101 -5.21098 0
M  V30 8888 C 804.572 -2.1295 -5.73863 0
M  V30 8889 N 803.709 -1.62339 -6.83074 0
M  V30 8890 H 808.549 -1.82551 -2.3554 0
M  V30 8891 H 806.086 -0.910389 -1.15544 0
M  V30 8892 H 808.044 -0.134859 -4.16982 0
M  V30 8893 H 806.674 0.458977 -3.1952 0
M  V30 8894 H 805.726 -1.96011 -3.26012 0
M  V30 8895 H 807.038 -2.37968 -4.38375 0
M  V30 8896 H 806.192 -0.692132 -6.02739 0
M  V30 8897 H 804.931 -0.17227 -4.87396 0
M  V30 8898 H 803.936 -2.47687 -4.90847 0
M  V30 8899 H 805.161 -2.9925 -6.09611 0
M  V30 8900 H 803.107 -0.787464 -6.51256 0
M  V30 8901 H 803.024 -2.38767 -7.17305 0
M  V30 8902 H 804.292 -1.31363 -7.68351 0
M  V30 8903 N 808.521 1.23394 -0.980386 0
M  V30 8904 C 809.932 1.73631 -0.686239 0
M  V30 8905 C 810.283 1.79259 0.797541 0
M  V30 8906 O 809.408 1.43046 1.62379 0
M  V30 8907 C 810.003 3.15332 -1.239 0
M  V30 8908 C 808.562 3.63024 -0.994494 0
M  V30 8909 C 807.709 2.41279 -1.36673 0
M  V30 8910 H 810.66 1.08918 -1.15423 0
M  V30 8911 H 810.681 3.75556 -0.611414 0
M  V30 8912 H 810.193 3.11204 -2.31892 0
M  V30 8913 H 808.294 3.72535 0.0693492 0
M  V30 8914 H 808.407 4.49825 -1.64906 0
M  V30 8915 H 806.771 2.42295 -0.785195 0
M  V30 8916 H 807.554 2.39822 -2.45642 0
M  V30 8917 N 809.999 0.752036 1.385 0
M  V30 8918 C 811.415 0.42946 1.53713 0
M  V30 8919 C 811.615 -1.0576 1.71514 0
M  V30 8920 O 810.671 -1.84366 1.72527 0
M  V30 8921 C 811.984 1.22735 2.74511 0
M  V30 8922 C 813.532 1.21727 2.8836 0
M  V30 8923 C 814.007 1.99809 4.12117 0
M  V30 8924 N 815.498 1.97062 4.19191 0
M  V30 8925 C 816.233 2.54274 5.13938 0
M  V30 8926 N 815.729 3.20193 6.14368 0
M  V30 8927 N 817.522 2.44212 5.06277 0
M  V30 8928 H 809.673 1.71581 1.25195 0
M  V30 8929 H 811.936 0.727293 0.60807 0
M  V30 8930 H 811.642 2.28032 2.67758 0
M  V30 8931 H 811.516 0.843186 3.67655 0
M  V30 8932 H 813.903 0.172367 2.94596 0
M  V30 8933 H 813.984 1.64094 1.96232 0
M  V30 8934 H 813.628 3.0431 4.06642 0
M  V30 8935 H 813.558 1.54837 5.03322 0
M  V30 8936 H 816.049 1.49054 3.47263 0
M  V30 8937 H 816.362 3.61272 6.83156 0
M  V30 8938 H 814.707 3.24287 6.14705 0
M  V30 8939 H 817.898 1.92343 4.26757 0
M  V30 8940 H 818.071 2.89096 5.79937 0
M  V30 8941 N 811.477 -1.49425 0.500989 0
M  V30 8942 C 812.387 -2.32899 -0.282011 0
M  V30 8943 C 813.403 -1.44632 -0.967346 0
M  V30 8944 O 814.579 -1.77654 -0.94873 0
M  V30 8945 C 811.644 -3.20069 -1.33253 0
M  V30 8946 C 810.705 -4.24186 -0.660636 0
M  V30 8947 C 809.938 -5.07191 -1.6611 0
M  V30 8948 O 810.161 -4.91712 -2.89094 0
M  V30 8949 O 809.095 -5.8948 -1.21643 0
M  V30 8950 H 812.921 -3.01038 0.401224 0
M  V30 8951 H 810.506 -1.47079 0.262323 0
M  V30 8952 H 812.388 -3.74071 -1.94033 0
M  V30 8953 H 811.063 -2.54625 -1.9987 0
M  V30 8954 H 809.97 -3.74098 -0.0130959 0
M  V30 8955 H 811.303 -4.92186 -0.0369179 0
M  V30 8956 N 812.955 -0.234822 -1.55841 0
M  V30 8957 C 814.204 0.393685 -1.97821 0
M  V30 8958 C 814.517 1.59947 -1.1259 0
M  V30 8959 O 815.723 2.29835 -1.44528 0
M  V30 8960 C 814.179 0.751811 -3.5196 0
M  V30 8961 C 813.787 -0.431898 -4.45913 0
M  V30 8962 C 815.531 1.34518 -4.02623 0
M  V30 8963 C 813.438 -0.0505976 -5.91378 0
M  V30 8964 H 812.368 0.150864 -0.738753 0
M  V30 8965 H 815.019 -0.333132 -1.80451 0
M  V30 8966 H 813.401 1.53642 -3.6498 0
M  V30 8967 H 814.575 -1.20935 -4.44647 0
M  V30 8968 H 812.89 -0.939385 -4.05666 0
M  V30 8969 H 815.487 1.64359 -5.08813 0
M  V30 8970 H 815.83 2.26554 -3.49255 0
M  V30 8971 H 816.363 0.623729 -3.9288 0
M  V30 8972 H 813.102 -0.937779 -6.48757 0
M  V30 8973 H 812.622 0.690898 -5.95808 0
M  V30 8974 H 814.301 0.37146 -6.45933 0
M  V30 8975 N 814.433 1.57553 0.0384317 0
M  V30 8976 C 815.658 1.93485 0.746872 0
M  V30 8977 C 816.083 0.834069 1.68597 0
M  V30 8978 O 815.441 -0.210902 1.80069 0
M  V30 8979 C 815.489 3.28463 1.4881 0
M  V30 8980 O 814.593 3.20051 2.60079 0
M  V30 8981 H 813.934 0.632675 0.201539 0
M  V30 8982 H 816.464 2.046 -0.00329815 0
M  V30 8983 H 816.474 3.63132 1.86009 0
M  V30 8984 H 815.149 4.08147 0.799297 0
M  V30 8985 H 813.726 2.96998 2.25492 0
M  V30 8986 N 815.911 -0.310526 1.54511 0
M  V30 8987 C 816.859 -1.40272 1.85544 0
M  V30 8988 C 817.853 -1.52941 0.728377 0
M  V30 8989 O 819.059 -1.55172 0.912234 0
M  V30 8990 H 815.434 -0.468355 0.588343 0
M  V30 8991 H 817.405 -1.11329 2.76855 0
M  V30 8992 C 816.154 -2.76279 2.11105 0
M  V30 8993 H 815.477 -2.67308 2.97298 0
M  V30 8994 H 816.917 -3.51736 2.36765 0
M  V30 8995 C 815.376 -3.24472 0.906618 0
M  V30 8996 O 815.906 -4.01514 0.122358 0
M  V30 8997 N 814.112 -2.81676 0.714632 0
M  V30 8998 H 813.659 -2.19143 1.35404 0
M  V30 8999 H 813.617 -3.14272 -0.089703 0
M  V30 9000 N 817.389 -1.46805 -0.573248 0
M  V30 9001 C 818.319 -1.60951 -1.69165 0
M  V30 9002 C 819.3 -0.45948 -1.63777 0
M  V30 9003 O 820.485 -0.68688 -1.81647 0
M  V30 9004 C 817.615 -1.60844 -3.07809 0
M  V30 9005 C 816.569 -2.74913 -3.28035 0
M  V30 9006 C 815.895 -2.59871 -4.67302 0
M  V30 9007 C 817.195 -4.16654 -3.14955 0
M  V30 9008 H 818.889 -2.54574 -1.57582 0
M  V30 9009 H 816.435 -1.22516 -0.756686 0
M  V30 9010 H 818.388 -1.69334 -3.85881 0
M  V30 9011 H 817.112 -0.637714 -3.20314 0
M  V30 9012 H 815.771 -2.65908 -2.52366 0
M  V30 9013 H 815.419 -1.60861 -4.76585 0
M  V30 9014 H 815.119 -3.36386 -4.81786 0
M  V30 9015 H 816.643 -2.70265 -5.4753 0
M  V30 9016 H 818.057 -4.26721 -3.82861 0
M  V30 9017 H 816.454 -4.93831 -3.40956 0
M  V30 9018 H 817.524 -4.36146 -2.11908 0
M  V30 9019 N 818.867 0.818669 -1.34668 0
M  V30 9020 C 819.797 1.94468 -1.29245 0
M  V30 9021 C 820.778 1.69257 -0.169101 0
M  V30 9022 O 821.963 1.90794 -0.362143 0
M  V30 9023 C 819.093 3.31001 -1.05145 0
M  V30 9024 C 818.047 3.70663 -2.13992 0
M  V30 9025 C 817.373 5.05226 -1.75074 0
M  V30 9026 C 818.673 3.82312 -3.55858 0
M  V30 9027 H 820.367 1.99263 -2.2346 0
M  V30 9028 H 817.913 0.957304 -1.07572 0
M  V30 9029 H 819.866 4.09364 -0.999949 0
M  V30 9030 H 818.59 3.26517 -0.0737312 0
M  V30 9031 H 817.249 2.94578 -2.18219 0
M  V30 9032 H 816.897 4.97233 -0.759518 0
M  V30 9033 H 816.597 5.32734 -2.47928 0
M  V30 9034 H 818.121 5.86042 -1.71427 0
M  V30 9035 H 819.535 4.50935 -3.5402 0
M  V30 9036 H 817.932 4.21278 -4.2737 0
M  V30 9037 H 819.002 2.84193 -3.9289 0
M  V30 9038 N 820.346 1.18468 1.03938 0
M  V30 9039 C 821.592 0.982286 1.77423 0
M  V30 9040 C 821.925 -0.48679 1.88 0
M  V30 9041 O 821.2 -1.36146 1.38905 0
M  V30 9042 C 821.483 1.63929 3.20623 0
M  V30 9043 C 821.336 3.18132 3.17982 0
M  V30 9044 C 822.655 1.3536 4.18767 0
M  V30 9045 H 819.774 0.358264 0.644062 0
M  V30 9046 H 822.416 1.46154 1.21405 0
M  V30 9047 H 820.566 1.2318 3.68455 0
M  V30 9048 H 822.238 3.68024 2.78129 0
M  V30 9049 H 820.481 3.50225 2.55978 0
M  V30 9050 H 821.152 3.5924 4.19107 0
M  V30 9051 H 823.628 1.70669 3.79488 0
M  V30 9052 H 822.504 1.83896 5.17178 0
M  V30 9053 H 822.765 0.276722 4.41233 0
M  V30 9054 N 821.824 -1.22873 0.986916 0
M  V30 9055 C 822.787 -2.2281 0.537442 0
M  V30 9056 C 823.787 -1.56331 -0.37646 0
M  V30 9057 O 824.977 -1.73376 -0.169247 0
M  V30 9058 C 822.109 -3.40195 -0.219082 0
M  V30 9059 H 823.302 -2.64089 1.42116 0
M  V30 9060 H 820.855 -1.35819 0.773488 0
M  V30 9061 H 821.59 -3.04381 -1.11905 0
M  V30 9062 H 821.375 -3.89657 0.437026 0
M  V30 9063 H 822.865 -4.14326 -0.521926 0
M  V30 9064 N 823.302 -0.75937 -1.38099 0
M  V30 9065 C 824.53 -0.329111 -2.04266 0
M  V30 9066 C 824.945 1.04453 -1.57274 0
M  V30 9067 O 824.302 1.66449 -0.748397 0
M  V30 9068 C 824.353 -0.349192 -3.5981 0
M  V30 9069 O 824.074 -1.66863 -4.05078 0
M  V30 9070 C 825.575 0.0942106 -4.432 0
M  V30 9071 H 822.795 -0.13971 -0.656294 0
M  V30 9072 H 825.339 -1.02984 -1.76677 0
M  V30 9073 H 823.494 0.302846 -3.86214 0
M  V30 9074 H 823.908 -1.59877 -4.9954 0
M  V30 9075 H 825.382 0.0290004 -5.51992 0
M  V30 9076 H 825.859 1.1429 -4.24069 0
M  V30 9077 H 826.465 -0.529171 -4.21995 0
M  V30 9078 N 824.78 1.49157 -0.508906 0
M  V30 9079 C 825.727 2.2927 0.265288 0
M  V30 9080 C 826.697 1.3603 0.953162 0
M  V30 9081 O 827.882 1.64989 0.958291 0
M  V30 9082 C 825.022 3.18897 1.31904 0
M  V30 9083 C 824.135 4.27201 0.642144 0
M  V30 9084 C 823.27 5.04033 1.67701 0
M  V30 9085 C 822.309 6.04165 0.982422 0
M  V30 9086 N 821.446 6.74133 1.96186 0
M  V30 9087 H 826.286 2.94967 -0.424107 0
M  V30 9088 H 823.823 1.45431 -0.220991 0
M  V30 9089 H 825.781 3.69242 1.94206 0
M  V30 9090 H 824.411 2.55168 1.97709 0
M  V30 9091 H 823.463 3.80283 -0.0943395 0
M  V30 9092 H 824.775 4.98708 0.0957507 0
M  V30 9093 H 823.929 5.58287 2.37487 0
M  V30 9094 H 822.668 4.32317 2.25728 0
M  V30 9095 H 821.673 5.49135 0.270378 0
M  V30 9096 H 822.898 6.7787 0.408554 0
M  V30 9097 H 820.844 6.05183 2.53159 0
M  V30 9098 H 820.761 7.41643 1.46634 0
M  V30 9099 H 822.029 7.32987 2.65236 0
M  V30 9100 N 826.258 0.243083 1.55714 0
M  V30 9101 C 827.205 -0.658078 2.21219 0
M  V30 9102 C 828.175 -1.1742 1.17481 0
M  V30 9103 O 829.36 -1.22937 1.45915 0
M  V30 9104 C 826.5 -1.85104 2.91257 0
M  V30 9105 C 825.613 -1.3718 4.09641 0
M  V30 9106 C 824.748 -2.52403 4.67404 0
M  V30 9107 C 823.787 -2.01321 5.78045 0
M  V30 9108 N 822.924 -3.09896 6.30007 0
M  V30 9109 H 827.764 -0.0927854 2.97856 0
M  V30 9110 H 825.301 -0.0340375 1.47061 0
M  V30 9111 H 827.259 -2.55179 3.3006 0
M  V30 9112 H 825.889 -2.38887 2.17101 0
M  V30 9113 H 824.941 -0.565232 3.76177 0
M  V30 9114 H 826.253 -0.957409 4.89525 0
M  V30 9115 H 825.407 -3.30525 5.08761 0
M  V30 9116 H 824.146 -2.97142 3.86728 0
M  V30 9117 H 823.151 -1.21667 5.36169 0
M  V30 9118 H 824.376 -1.57556 6.6057 0
M  V30 9119 H 822.322 -3.54077 5.52237 0
M  V30 9120 H 822.239 -2.72776 7.05074 0
M  V30 9121 H 823.507 -3.8809 6.76023 0
M  V30 9122 N 827.736 -1.57571 -0.0300757 0
M  V30 9123 C 828.699 -2.05468 -1.01565 0
M  V30 9124 C 829.699 -0.958628 -1.29101 0
M  V30 9125 O 830.889 -1.22228 -1.24121 0
M  V30 9126 C 828.021 -2.47077 -2.34874 0
M  V30 9127 H 829.214 -2.93797 -0.601936 0
M  V30 9128 H 826.767 -1.53828 -0.276878 0
M  V30 9129 H 827.502 -1.61901 -2.80996 0
M  V30 9130 H 827.287 -3.27097 -2.16218 0
M  V30 9131 H 828.777 -2.84564 -3.05635 0
M  V30 9132 N 829.214 0.302327 -1.54673 0
M  V30 9133 C 830.146 1.39443 -1.81902 0
M  V30 9134 C 831.159 1.46891 -0.701914 0
M  V30 9135 O 832.348 1.49233 -0.979369 0
M  V30 9136 C 829.448 2.77824 -1.9408 0
M  V30 9137 C 828.621 2.93324 -3.24468 0
M  V30 9138 C 827.68 4.12196 -3.27079 0
M  V30 9139 O 826.706 4.04344 -4.00617 0
M  V30 9140 N 827.908 5.22768 -2.52376 0
M  V30 9141 H 830.673 1.1644 -2.76155 0
M  V30 9142 H 828.234 0.492392 -1.54231 0
M  V30 9143 H 830.226 3.5559 -1.9323 0
M  V30 9144 H 828.796 2.9378 -1.06828 0
M  V30 9145 H 828.016 2.02682 -3.38103 0
M  V30 9146 H 829.304 3.0059 -4.10516 0
M  V30 9147 H 828.702 5.32027 -1.92259 0
M  V30 9148 H 827.259 5.98874 -2.57281 0
M  V30 9149 N 830.692 1.47107 0.565454 0
M  V30 9150 C 831.602 1.61591 1.70075 0
M  V30 9151 C 832.618 0.498931 1.66693 0
M  V30 9152 O 833.794 0.765372 1.8629 0
M  V30 9153 C 830.859 1.61887 3.06583 0
M  V30 9154 C 829.92 2.84949 3.21096 0
M  V30 9155 C 829.153 2.85221 4.51093 0
M  V30 9156 O 829.376 1.94959 5.36048 0
M  V30 9157 O 828.31 3.76982 4.69221 0
M  V30 9158 H 832.136 2.57638 1.60799 0
M  V30 9159 H 829.721 1.30097 0.73451 0
M  V30 9160 H 831.603 1.64809 3.87835 0
M  V30 9161 H 830.278 0.69005 3.16259 0
M  V30 9162 H 829.185 2.87575 2.39273 0
M  V30 9163 H 830.518 3.77098 3.1632 0
M  V30 9164 N 832.17 -0.811516 1.35101 0
M  V30 9165 C 833.416 -1.57016 1.29296 0
M  V30 9166 C 833.771 -1.91941 -0.13288 0
M  V30 9167 O 833.064 -1.58121 -1.08204 0
M  V30 9168 C 833.258 -2.87121 2.1283 0
M  V30 9169 C 833.087 -2.64908 3.63392 0
M  V30 9170 C 831.857 -2.61055 4.32641 0
M  V30 9171 C 834.055 -2.35628 4.57148 0
M  V30 9172 N 832.037 -2.30508 5.68981 0
M  V30 9173 C 833.408 -2.14876 5.81574 0
M  V30 9174 C 835.463 -2.2145 4.45942 0
M  V30 9175 C 834.166 -1.81381 6.96055 0
M  V30 9176 C 836.192 -1.89352 5.60267 0
M  V30 9177 C 835.554 -1.69432 6.83719 0
M  V30 9178 H 831.653 -0.57649 0.528378 0
M  V30 9179 H 834.237 -0.950338 1.69931 0
M  V30 9180 H 832.408 -3.47007 1.74473 0
M  V30 9181 H 834.14 -3.52629 1.98582 0
M  V30 9182 H 830.895 -2.75531 3.85201 0
M  V30 9183 H 831.319 -2.18042 6.40927 0
M  V30 9184 H 835.961 -2.35551 3.51106 0
M  V30 9185 H 833.679 -1.66018 7.90863 0
M  V30 9186 H 837.265 -1.79098 5.53548 0
M  V30 9187 H 836.145 -1.44957 7.70686 0
M  V30 9188 N 833.648 -1.19017 -1.03309 0
M  V30 9189 C 834.58 -0.881847 -2.11556 0
M  V30 9190 C 835.593 0.123711 -1.62329 0
M  V30 9191 O 836.782 -0.105141 -1.7819 0
M  V30 9192 C 833.882 -0.297634 -3.37591 0
M  V30 9193 C 833.055 -1.35072 -4.16022 0
M  V30 9194 C 832.114 -0.780812 -5.20375 0
M  V30 9195 O 831.14 -1.45745 -5.50224 0
M  V30 9196 N 832.342 0.417964 -5.78993 0
M  V30 9197 H 835.107 -1.81359 -2.38598 0
M  V30 9198 H 832.668 -1.0916 -1.19565 0
M  V30 9199 H 834.66 0.097374 -4.04583 0
M  V30 9200 H 833.23 0.538299 -3.0793 0
M  V30 9201 H 832.45 -1.92074 -3.4424 0
M  V30 9202 H 833.738 -2.06044 -4.65213 0
M  V30 9203 H 833.136 0.985281 -5.57054 0
M  V30 9204 H 831.693 0.754802 -6.47415 0
M  V30 9205 N 835.127 1.22348 -0.993418 0
M  V30 9206 C 836.538 1.72893 -0.704616 0
M  V30 9207 C 836.889 1.80095 0.778483 0
M  V30 9208 O 836.014 1.4476 1.60853 0
M  V30 9209 C 836.609 3.14 -1.27237 0
M  V30 9210 C 835.168 3.61949 -1.03294 0
M  V30 9211 C 834.315 2.39816 -1.39225 0
M  V30 9212 H 837.266 1.07688 -1.16572 0
M  V30 9213 H 837.287 3.74886 -0.651212 0
M  V30 9214 H 836.799 3.08727 -2.3518 0
M  V30 9215 H 834.9 3.72588 0.0298329 0
M  V30 9216 H 835.013 4.48051 -1.69668 0
M  V30 9217 H 833.377 2.41448 -0.810849 0
M  V30 9218 H 834.16 2.37203 -2.48172 0
M  V30 9219 N 836.605 0.766683 1.37694 0
M  V30 9220 C 837.851 0.329201 2.0011 0
M  V30 9221 C 838.184 -1.09004 1.60723 0
M  V30 9222 O 837.459 -1.74895 0.850989 0
M  V30 9223 C 837.742 0.466989 3.57059 0
M  V30 9224 C 837.595 1.92828 4.06371 0
M  V30 9225 C 838.914 -0.131792 4.39903 0
M  V30 9226 H 836.033 0.12109 0.726984 0
M  V30 9227 H 838.675 0.968779 1.63446 0
M  V30 9228 H 836.825 -0.0775023 3.88423 0
M  V30 9229 H 838.497 2.53208 3.85595 0
M  V30 9230 H 836.74 2.43884 3.58752 0
M  V30 9231 H 837.411 1.97577 5.15429 0
M  V30 9232 H 839.887 0.332731 4.14768 0
M  V30 9233 H 838.763 -0.005217 5.489 0
M  V30 9234 H 839.024 -1.22156 4.24889 0
M  V30 9235 N 838.083 -1.48885 0.516809 0
M  V30 9236 C 839.313 -2.06592 -0.018375 0
M  V30 9237 C 839.721 -1.37543 -1.29917 0
M  V30 9238 O 839.064 -0.452527 -1.78039 0
M  V30 9239 C 839.126 -3.58016 -0.326315 0
M  V30 9240 C 838.79 -4.48853 0.859072 0
M  V30 9241 C 839.787 -4.89422 1.75391 0
M  V30 9242 C 837.472 -4.90937 1.06235 0
M  V30 9243 C 839.466 -5.70831 2.83604 0
M  V30 9244 C 837.153 -5.72119 2.14763 0
M  V30 9245 C 838.151 -6.11972 3.03281 0
M  V30 9246 O 837.839 -6.91527 4.09934 0
M  V30 9247 H 837.571 -0.675559 0.0244023 0
M  V30 9248 H 840.125 -1.92442 0.718005 0
M  V30 9249 H 838.355 -3.70231 -1.1165 0
M  V30 9250 H 840.044 -3.97898 -0.801999 0
M  V30 9251 H 840.81 -4.57542 1.60875 0
M  V30 9252 H 836.689 -4.59409 0.382677 0
M  V30 9253 H 840.233 -6.01857 3.52724 0
M  V30 9254 H 836.13 -6.03412 2.29268 0
M  V30 9255 H 836.898 -7.0986 4.07482 0
M  V30 9256 N 839.561 -0.251338 -1.55583 0
M  V30 9257 C 840.972 0.25098 -1.85005 0
M  V30 9258 C 841.323 1.57259 -1.17321 0
M  V30 9259 O 840.448 2.11603 -0.453136 0
M  V30 9260 C 841.043 0.462161 -3.35633 0
M  V30 9261 C 839.602 0.908737 -3.65266 0
M  V30 9262 C 838.749 -0.0115418 -2.77298 0
M  V30 9263 H 841.7 -0.473782 -1.51463 0
M  V30 9264 H 841.721 1.30415 -3.57452 0
M  V30 9265 H 841.233 -0.499886 -3.84867 0
M  V30 9266 H 839.334 1.8831 -3.21512 0
M  V30 9267 H 839.447 0.762526 -4.72993 0
M  V30 9268 H 837.811 0.500612 -2.49732 0
M  V30 9269 H 838.594 -0.969042 -3.29339 0
M  V30 9270 N 841.039 1.57585 0.0217189 0
M  V30 9271 C 841.972 2.02435 1.05334 0
M  V30 9272 C 842.95 0.91006 1.34747 0
M  V30 9273 O 844.134 1.17648 1.47279 0
M  V30 9274 C 841.261 2.40362 2.38629 0
M  V30 9275 C 840.307 3.62307 2.25025 0
M  V30 9276 S 841.14 5.11141 1.59673 0
M  V30 9277 C 842.296 5.52316 2.94444 0
M  V30 9278 H 842.529 2.89621 0.671354 0
M  V30 9279 H 840.062 1.52648 0.231925 0
M  V30 9280 H 842.02 2.62883 3.15282 0
M  V30 9281 H 840.681 1.53615 2.73973 0
M  V30 9282 H 839.874 3.86523 3.23443 0
M  V30 9283 H 839.476 3.39675 1.56515 0
M  V30 9284 H 841.768 5.53449 3.90768 0
M  V30 9285 H 842.711 6.52539 2.74952 0
M  V30 9286 H 843.119 4.79834 2.97355 0
M  V30 9287 N 842.517 -0.29412 1.54831 0
M  V30 9288 C 843.742 -1.05156 1.78765 0
M  V30 9289 C 844.167 -1.79916 0.548809 0
M  V30 9290 O 843.525 -1.74243 -0.500909 0
M  V30 9291 C 843.573 -2.00242 2.99893 0
M  V30 9292 O 842.677 -3.08662 2.73499 0
M  V30 9293 H 842.018 -0.301737 0.591482 0
M  V30 9294 H 844.548 -0.329449 2.0193 0
M  V30 9295 H 844.558 -2.42583 3.28051 0
M  V30 9296 H 843.233 -1.45235 3.89717 0
M  V30 9297 H 841.81 -2.70786 2.56377 0
M  V30 9298 N 843.995 -1.47404 -0.557645 0
M  V30 9299 C 844.927 -1.55917 -1.67995 0
M  V30 9300 C 845.94 -0.445411 -1.56588 0
M  V30 9301 O 847.129 -0.714999 -1.63554 0
M  V30 9302 C 844.229 -1.44697 -3.06457 0
M  V30 9303 C 843.402 -2.70633 -3.43622 0
M  V30 9304 C 842.461 -2.53256 -4.61246 0
M  V30 9305 O 841.487 -3.27068 -4.65849 0
M  V30 9306 N 842.689 -1.61053 -5.57711 0
M  V30 9307 H 845.454 -2.52694 -1.61139 0
M  V30 9308 H 843.015 -1.43778 -0.744271 0
M  V30 9309 H 845.007 -1.30806 -3.82978 0
M  V30 9310 H 843.577 -0.560039 -3.07542 0
M  V30 9311 H 842.797 -2.99288 -2.56555 0
M  V30 9312 H 844.085 -3.5424 -3.65228 0
M  V30 9313 H 843.483 -1.00235 -5.56749 0
M  V30 9314 H 842.04 -1.53115 -6.33561 0
M  V30 9315 N 845.473 0.80434 -1.35529 0
M  V30 9316 C 846.403 1.93086 -1.31301 0
M  V30 9317 C 847.384 1.69068 -0.187044 0
M  V30 9318 O 848.569 1.90399 -0.382359 0
M  V30 9319 C 845.699 3.29867 -1.0865 0
M  V30 9320 C 844.653 3.68373 -2.17911 0
M  V30 9321 C 843.979 5.0334 -1.80423 0
M  V30 9322 C 845.279 3.78516 -3.59893 0
M  V30 9323 H 846.973 1.96882 -2.25561 0
M  V30 9324 H 844.519 0.945841 -1.08581 0
M  V30 9325 H 846.472 4.08281 -1.04331 0
M  V30 9326 H 845.196 3.2642 -0.108359 0
M  V30 9327 H 843.855 2.92247 -2.21331 0
M  V30 9328 H 843.503 4.96399 -0.812213 0
M  V30 9329 H 843.203 5.30074 -2.53565 0
M  V30 9330 H 844.727 5.84191 -1.77633 0
M  V30 9331 H 846.141 4.47155 -3.58783 0
M  V30 9332 H 844.538 4.16721 -4.31814 0
M  V30 9333 H 845.608 2.8001 -3.95882 0
M  V30 9334 N 846.951 1.19563 1.02676 0
M  V30 9335 C 848.176 1.02556 1.80269 0
M  V30 9336 C 848.601 -0.421056 1.83327 0
M  V30 9337 O 847.959 -1.30279 1.26084 0
M  V30 9338 C 848.007 1.60165 3.23078 0
M  V30 9339 O 847.111 0.832404 4.03912 0
M  V30 9340 H 846.452 0.362354 0.556413 0
M  V30 9341 H 848.982 1.58633 1.29216 0
M  V30 9342 H 848.992 1.6347 3.7382 0
M  V30 9343 H 847.667 2.65454 3.20167 0
M  V30 9344 H 846.244 0.872768 3.62543 0
M  V30 9345 N 848.429 -1.21819 0.999893 0
M  V30 9346 C 849.676 -1.90752 0.679694 0
M  V30 9347 C 850.004 -1.77777 -0.789014 0
M  V30 9348 O 849.259 -1.14518 -1.58695 0
M  V30 9349 C 849.558 -3.4193 1.04012 0
M  V30 9350 C 849.224 -3.75098 2.50225 0
M  V30 9351 C 847.886 -3.83861 2.90179 0
M  V30 9352 C 850.238 -3.90706 3.44961 0
M  V30 9353 C 847.566 -4.05676 4.23844 0
M  V30 9354 C 849.918 -4.14027 4.78294 0
M  V30 9355 C 848.582 -4.21016 5.17979 0
M  V30 9356 H 847.852 -0.698012 0.248718 0
M  V30 9357 H 850.499 -1.44437 1.25738 0
M  V30 9358 H 848.804 -3.89947 0.380606 0
M  V30 9359 H 850.501 -3.93532 0.770301 0
M  V30 9360 H 847.091 -3.68865 2.18258 0
M  V30 9361 H 851.275 -3.83307 3.15261 0
M  V30 9362 H 846.531 -4.09316 4.5417 0
M  V30 9363 H 850.705 -4.25046 5.51642 0
M  V30 9364 H 848.332 -4.37672 6.21568 0
M  V30 9365 N 849.908 -0.773975 -1.37286 0
M  V30 9366 C 851.185 -0.263942 -1.93811 0
M  V30 9367 C 851.565 1.24138 -1.70743 0
M  V30 9368 O 850.913 2.02557 -1.05749 0
M  V30 9369 C 851.123 -0.639753 -3.43086 0
M  V30 9370 C 852.471 -0.610796 -4.20184 0
M  V30 9371 O 853.495 -0.579278 -3.51458 0
M  V30 9372 O 852.354 -0.639862 -5.42741 0
M  V30 9373 H 849.448 -0.0614331 -0.824715 0
M  V30 9374 H 851.994 -0.855477 -1.46559 0
M  V30 9375 H 850.766 -1.67856 -3.53469 0
M  V30 9376 H 850.389 -0.0212827 -3.97594 0
M  V30 9377 N 851.386 1.48609 -0.524698 0
M  V30 9378 C 852.802 1.58557 -0.182199 0
M  V30 9379 C 853.002 1.52732 1.31435 0
M  V30 9380 O 852.058 1.41362 2.0922 0
M  V30 9381 C 853.371 2.90406 -0.78004 0
M  V30 9382 C 854.919 3.03924 -0.748293 0
M  V30 9383 C 855.394 4.38427 -1.32462 0
M  V30 9384 N 856.885 4.4498 -1.28635 0
M  V30 9385 C 857.62 5.47551 -1.70223 0
M  V30 9386 N 857.116 6.57103 -2.19515 0
M  V30 9387 N 858.909 5.38402 -1.61493 0
M  V30 9388 H 851.06 1.50638 -1.4974 0
M  V30 9389 H 853.323 0.714952 -0.622533 0
M  V30 9390 H 853.029 3.00308 -1.83052 0
M  V30 9391 H 852.903 3.76343 -0.254075 0
M  V30 9392 H 855.29 2.93638 0.293407 0
M  V30 9393 H 855.371 2.19611 -1.31167 0
M  V30 9394 H 855.015 4.49466 -2.36522 0
M  V30 9395 H 854.945 5.21418 -0.736967 0
M  V30 9396 H 857.436 3.66393 -0.92545 0
M  V30 9397 H 857.749 7.31499 -2.49257 0
M  V30 9398 H 856.094 6.58081 -2.23506 0
M  V30 9399 H 859.285 4.5171 -1.22785 0
M  V30 9400 H 859.458 6.18208 -1.94225 0
M  V30 9401 N 852.864 0.259585 1.55447 0
M  V30 9402 C 854.113 -0.362163 1.98422 0
M  V30 9403 C 854.426 -1.58135 1.1512 0
M  V30 9404 O 855.632 -2.27506 1.48166 0
M  V30 9405 C 854.088 -0.695722 3.53111 0
M  V30 9406 C 853.696 0.502784 4.4517 0
M  V30 9407 C 855.44 -1.28096 4.04712 0
M  V30 9408 C 853.347 0.144674 5.91223 0
M  V30 9409 H 852.277 -0.139092 0.74106 0
M  V30 9410 H 854.928 0.361798 1.79898 0
M  V30 9411 H 853.31 -1.47816 3.67378 0
M  V30 9412 H 854.484 1.27994 4.42667 0
M  V30 9413 H 852.799 1.0038 4.0412 0
M  V30 9414 H 855.396 -1.56243 5.11363 0
M  V30 9415 H 855.739 -2.20969 3.52815 0
M  V30 9416 H 856.272 -0.561146 3.93822 0
M  V30 9417 H 853.011 1.04087 6.47183 0
M  V30 9418 H 852.531 -0.596023 5.96831 0
M  V30 9419 H 854.21 -0.268651 6.46442 0
M  V30 9420 N 854.342 -1.57594 -0.0133615 0
M  V30 9421 C 855.272 -2.10611 -1.00823 0
M  V30 9422 C 856.253 -1.01217 -1.36708 0
M  V30 9423 O 857.438 -1.28827 -1.45318 0
M  V30 9424 C 854.568 -2.59844 -2.30431 0
M  V30 9425 C 853.522 -3.73644 -2.08745 0
M  V30 9426 C 852.848 -4.09141 -3.4425 0
M  V30 9427 C 854.148 -5.01454 -1.46086 0
M  V30 9428 H 855.842 -2.93985 -0.566849 0
M  V30 9429 H 853.388 -1.41423 -0.271219 0
M  V30 9430 H 855.341 -2.95557 -3.00373 0
M  V30 9431 H 854.065 -1.73573 -2.76658 0
M  V30 9432 H 852.724 -3.38303 -1.41232 0
M  V30 9433 H 852.372 -3.19914 -3.88155 0
M  V30 9434 H 852.072 -4.85802 -3.3056 0
M  V30 9435 H 853.596 -4.47402 -4.15528 0
M  V30 9436 H 855.01 -5.35024 -2.05966 0
M  V30 9437 H 853.407 -5.82832 -1.42924 0
M  V30 9438 H 854.477 -4.83003 -0.428471 0
M  V30 9439 N 855.82 0.285905 -1.54985 0
M  V30 9440 C 856.767 1.35306 -1.86978 0
M  V30 9441 C 857.737 1.49682 -0.720046 0
M  V30 9442 O 858.922 1.64297 -0.970107 0
M  V30 9443 C 856.062 2.71059 -2.13591 0
M  V30 9444 C 855.175 2.6501 -3.41165 0
M  V30 9445 C 854.31 3.92856 -3.57544 0
M  V30 9446 C 853.349 3.81266 -4.78855 0
M  V30 9447 N 852.486 5.00919 -4.9196 0
M  V30 9448 H 857.326 1.07323 -2.78003 0
M  V30 9449 H 854.863 0.518776 -1.37649 0
M  V30 9450 H 856.821 3.50026 -2.27019 0
M  V30 9451 H 855.451 2.97271 -1.25816 0
M  V30 9452 H 854.503 1.77824 -3.36278 0
M  V30 9453 H 855.815 2.52342 -4.30262 0
M  V30 9454 H 854.969 4.80263 -3.70718 0
M  V30 9455 H 853.708 4.08377 -2.66608 0
M  V30 9456 H 852.713 2.92243 -4.65698 0
M  V30 9457 H 853.938 3.67277 -5.71213 0
M  V30 9458 H 851.884 5.16875 -4.03951 0
M  V30 9459 H 851.801 4.90732 -5.75081 0
M  V30 9460 H 853.069 5.89935 -5.09507 0
M  V30 9461 N 857.298 1.47698 0.54982 0
M  V30 9462 C 858.245 1.60739 1.65625 0
M  V30 9463 C 859.215 0.450129 1.59884 0
M  V30 9464 O 860.4 0.671123 1.78607 0
M  V30 9465 C 857.54 1.63457 3.03934 0
M  V30 9466 C 856.653 2.90152 3.20056 0
M  V30 9467 C 855.788 2.84157 4.48807 0
M  V30 9468 C 854.827 4.05644 4.58387 0
M  V30 9469 N 853.964 3.97843 5.78503 0
M  V30 9470 H 858.804 2.55234 1.53817 0
M  V30 9471 H 856.341 1.26593 0.749173 0
M  V30 9472 H 858.299 1.63015 3.84034 0
M  V30 9473 H 856.929 0.724689 3.1456 0
M  V30 9474 H 855.981 3.00428 2.33339 0
M  V30 9475 H 857.293 3.80097 3.22998 0
M  V30 9476 H 856.447 2.82006 5.37175 0
M  V30 9477 H 855.186 1.91908 4.48356 0
M  V30 9478 H 854.191 4.08092 3.6843 0
M  V30 9479 H 855.416 4.9903 4.60593 0
M  V30 9480 H 853.362 3.08401 5.78986 0
M  V30 9481 H 853.279 4.81473 5.82855 0
M  V30 9482 H 854.547 3.99719 6.69212 0
M  V30 9483 N 858.776 -0.797141 1.35954 0
M  V30 9484 C 860.053 -1.54224 1.2031 0
M  V30 9485 C 860.433 -2.10013 -0.213926 0
M  V30 9486 O 859.781 -1.93292 -1.21862 0
M  V30 9487 C 859.991 -2.6433 2.27883 0
M  V30 9488 C 861.339 -3.32418 2.64165 0
M  V30 9489 O 862.363 -2.74607 2.26868 0
M  V30 9490 O 861.222 -4.36876 3.28331 0
M  V30 9491 H 858.316 -0.681857 0.467974 0
M  V30 9492 H 860.862 -0.836288 1.47663 0
M  V30 9493 H 859.634 -2.21044 3.22885 0
M  V30 9494 H 859.257 -3.42551 2.01853 0
M  V30 9495 N 860.254 -1.20106 -1.0204 0
M  V30 9496 C 861.184 -0.970301 -2.12385 0
M  V30 9497 C 862.165 0.099378 -1.69809 0
M  V30 9498 O 863.35 -0.057365 -1.94115 0
M  V30 9499 C 860.48 -0.517431 -3.43424 0
M  V30 9500 C 859.434 -1.52992 -3.99722 0
M  V30 9501 C 858.76 -0.933817 -5.26483 0
M  V30 9502 C 860.06 -2.91257 -4.33551 0
M  V30 9503 H 861.754 -1.89316 -2.31948 0
M  V30 9504 H 859.3 -0.911655 -1.11467 0
M  V30 9505 H 861.253 -0.343243 -4.2 0
M  V30 9506 H 859.977 0.441049 -3.23608 0
M  V30 9507 H 858.636 -1.6914 -3.2525 0
M  V30 9508 H 858.284 0.0324763 -5.0299 0
M  V30 9509 H 857.984 -1.60999 -5.65113 0
M  V30 9510 H 859.508 -0.770614 -6.05718 0
M  V30 9511 H 860.922 -2.78642 -5.0103 0
M  V30 9512 H 859.319 -3.55745 -4.83286 0
M  V30 9513 H 860.389 -3.43269 -3.42483 0
M  V30 9514 N 861.732 1.21287 -1.00634 0
M  V30 9515 C 862.978 1.90671 -0.690822 0
M  V30 9516 C 863.311 1.77996 0.776592 0
M  V30 9517 O 862.586 1.15748 1.5631 0
M  V30 9518 C 862.869 3.42426 -1.11428 0
M  V30 9519 C 862.722 3.64086 -2.64124 0
M  V30 9520 C 864.041 4.34851 -0.677686 0
M  V30 9521 H 861.16 0.692419 -0.252439 0
M  V30 9522 H 863.802 1.42893 -1.25226 0
M  V30 9523 H 861.952 3.83249 -0.636586 0
M  V30 9524 H 863.624 3.32582 -3.19667 0
M  V30 9525 H 861.867 3.07906 -3.05576 0
M  V30 9526 H 862.538 4.7042 -2.88806 0
M  V30 9527 H 865.014 4.01619 -1.0882 0
M  V30 9528 H 863.89 5.39675 -1.00213 0
M  V30 9529 H 864.151 4.4009 0.421125 0
M  V30 9530 N 863.21 0.781244 1.36873 0
M  V30 9531 C 864.142 0.132075 2.28819 0
M  V30 9532 C 865.155 -0.653925 1.49089 0
M  V30 9533 O 866.344 -0.490453 1.7163 0
M  V30 9534 C 863.444 -0.836297 3.28419 0
M  V30 9535 C 862.617 -0.102097 4.37281 0
M  V30 9536 C 861.676 -0.985217 5.16894 0
M  V30 9537 O 860.702 -0.445478 5.67454 0
M  V30 9538 N 861.904 -2.31043 5.3254 0
M  V30 9539 H 864.669 0.921838 2.85171 0
M  V30 9540 H 862.23 0.634427 1.48952 0
M  V30 9541 H 864.222 -1.43074 3.78566 0
M  V30 9542 H 862.792 -1.52698 2.72767 0
M  V30 9543 H 862.012 0.67335 3.88407 0
M  V30 9544 H 863.3 0.404862 5.07187 0
M  V30 9545 H 862.698 -2.77318 4.93063 0
M  V30 9546 H 861.255 -2.85472 5.8596 0
M  V30 9547 N 864.689 -1.48329 0.532571 0
M  V30 9548 C 865.937 -2.021 -0.000581206 0
M  V30 9549 C 866.258 -1.4117 -1.34522 0
M  V30 9550 O 865.528 -0.578005 -1.87179 0
M  V30 9551 H 864.108 -0.746993 -0.00320281 0
M  V30 9552 H 866.77 -1.82011 0.696991 0
M  V30 9553 H 865.866 -3.11917 -0.106991 0
M  V30 9554 N 866.167 -0.267825 -1.55308 0
M  V30 9555 C 867.077 0.633055 -2.25897 0
M  V30 9556 C 868.093 1.17613 -1.28231 0
M  V30 9557 O 869.269 1.20797 -1.61153 0
M  V30 9558 C 866.334 1.80397 -2.96071 0
M  V30 9559 C 865.395 1.29829 -4.09198 0
M  V30 9560 C 864.628 2.4134 -4.76016 0
M  V30 9561 O 864.851 3.60537 -4.42006 0
M  V30 9562 O 863.785 2.09909 -5.64111 0
M  V30 9563 H 867.611 0.0614381 -3.03638 0
M  V30 9564 H 865.196 -0.0355072 -1.49358 0
M  V30 9565 H 867.078 2.48685 -3.40197 0
M  V30 9566 H 865.753 2.36281 -2.21253 0
M  V30 9567 H 864.66 0.582086 -3.69544 0
M  V30 9568 H 865.993 0.785288 -4.85895 0
M  V30 9569 N 867.645 1.57599 0.00500368 0
M  V30 9570 C 868.595 2.04585 1.00643 0
M  V30 9571 C 869.579 0.939622 1.30614 0
M  V30 9572 O 870.771 1.20342 1.29796 0
M  V30 9573 C 867.9 2.5486 2.30002 0
M  V30 9574 C 866.986 3.7235 2.03017 0
M  V30 9575 N 867.377 4.84218 1.46173 0
M  V30 9576 C 865.675 3.80185 2.33185 0
M  V30 9577 C 866.376 5.65688 1.35544 0
M  V30 9578 N 865.352 5.11536 1.83933 0
M  V30 9579 H 869.154 2.8849 0.561332 0
M  V30 9580 H 866.668 1.61026 0.210808 0
M  V30 9581 H 868.665 2.86794 3.0258 0
M  V30 9582 H 867.325 1.72372 2.75169 0
M  V30 9583 H 868.336 5.0517 1.1412 0
M  V30 9584 H 865.013 3.08543 2.81261 0
M  V30 9585 H 866.403 6.65588 0.918791 0
M  V30 9586 N 869.123 -0.277682 1.55134 0
M  V30 9587 C 870.053 -1.34742 1.90701 0
M  V30 9588 C 871.034 -1.51757 0.768354 0
M  V30 9589 O 872.219 -1.64879 1.02609 0
M  V30 9590 C 869.349 -2.70775 2.17481 0
M  V30 9591 C 868.303 -2.68497 3.33307 0
M  V30 9592 C 867.629 -4.08037 3.45557 0
M  V30 9593 C 868.929 -2.28178 4.69821 0
M  V30 9594 H 870.623 -1.05224 2.803 0
M  V30 9595 H 868.169 -0.504738 1.34864 0
M  V30 9596 H 870.122 -3.45719 2.40949 0
M  V30 9597 H 868.846 -3.01867 1.24676 0
M  V30 9598 H 867.505 -1.9601 3.09799 0
M  V30 9599 H 867.153 -4.36344 2.50226 0
M  V30 9600 H 866.853 -4.07409 4.23429 0
M  V30 9601 H 868.377 -4.84726 3.71312 0
M  V30 9602 H 869.791 -2.92843 4.92865 0
M  V30 9603 H 868.188 -2.3872 5.50575 0
M  V30 9604 H 869.258 -1.23308 4.6896 0
M  V30 9605 N 870.601 -1.47988 -0.541979 0
M  V30 9606 C 871.849 -1.55086 -1.29587 0
M  V30 9607 C 872.17 -0.221304 -1.9374 0
M  V30 9608 O 871.44 0.756128 -1.80719 0
M  V30 9609 H 870.02 -0.571307 -0.481266 0
M  V30 9610 H 872.682 -1.8438 -0.631675 0
M  V30 9611 H 871.778 -2.32556 -2.08144 0
M  V30 9612 N 872.079 0.78992 -1.36375 0
M  V30 9613 C 873.495 1.0879 -1.16777 0
M  V30 9614 C 873.695 2.01498 0.00848236 0
M  V30 9615 O 872.751 2.43338 0.674007 0
M  V30 9616 C 874.064 1.70285 -2.47837 0
M  V30 9617 C 875.612 1.82629 -2.54196 0
M  V30 9618 C 876.087 2.47539 -3.85342 0
M  V30 9619 N 877.578 2.55008 -3.86685 0
M  V30 9620 C 878.313 3.06041 -4.84898 0
M  V30 9621 N 877.809 3.57385 -5.93505 0
M  V30 9622 N 879.602 3.04748 -4.72319 0
M  V30 9623 H 871.753 0.173985 -2.11686 0
M  V30 9624 H 874.016 0.139798 -0.937636 0
M  V30 9625 H 873.722 1.09633 -3.34176 0
M  V30 9626 H 873.596 2.69799 -2.63607 0
M  V30 9627 H 875.983 2.42419 -1.68276 0
M  V30 9628 H 876.064 0.81923 -2.42327 0
M  V30 9629 H 875.708 1.88393 -4.71668 0
M  V30 9630 H 875.638 3.48815 -3.94507 0
M  V30 9631 H 878.129 2.18651 -3.08221 0
M  V30 9632 H 878.442 3.94674 -6.64419 0
M  V30 9633 H 876.787 3.55538 -5.97175 0
M  V30 9634 H 879.978 2.63925 -3.86602 0
M  V30 9635 H 880.151 3.44212 -5.49019 0
M  V30 9636 N 873.557 1.20646 1.01402 0
M  V30 9637 C 874.805 1.01618 1.74695 0
M  V30 9638 C 875.126 -0.452438 1.89679 0
M  V30 9639 O 874.396 -1.32693 1.44116 0
M  V30 9640 H 872.976 0.373013 0.647202 0
M  V30 9641 H 875.638 1.518 1.22241 0
M  V30 9642 H 874.734 1.47666 2.74957 0
M  V30 9643 N 875.035 -1.20752 1.01276 0
M  V30 9644 C 876.263 -1.94006 0.718976 0
M  V30 9645 C 876.678 -1.74544 -0.719711 0
M  V30 9646 O 876.035 -1.05697 -1.48776 0
M  V30 9647 C 876.086 -3.46208 1.04031 0
M  V30 9648 O 875.807 -3.65031 2.42248 0
M  V30 9649 C 877.308 -4.36614 0.767032 0
M  V30 9650 H 874.528 -0.616743 0.264327 0
M  V30 9651 H 877.072 -1.53352 1.3529 0
M  V30 9652 H 875.227 -3.84756 0.451852 0
M  V30 9653 H 875.641 -4.59054 2.53712 0
M  V30 9654 H 877.115 -5.42076 1.04198 0
M  V30 9655 H 877.592 -4.38182 -0.298851 0
M  V30 9656 H 878.198 -4.03723 1.33746 0
M  V30 9657 N 876.513 -0.788492 -1.36457 0
M  V30 9658 C 877.929 -0.470063 -1.52521 0
M  V30 9659 C 878.129 1.01176 -1.74258 0
M  V30 9660 O 877.185 1.79726 -1.77355 0
M  V30 9661 C 878.498 -1.2997 -2.71161 0
M  V30 9662 C 880.046 -1.2933 -2.85031 0
M  V30 9663 C 880.521 -2.10665 -4.06674 0
M  V30 9664 N 882.012 -2.08107 -4.13819 0
M  V30 9665 C 882.747 -2.6781 -5.07016 0
M  V30 9666 N 882.243 -3.36369 -6.05663 0
M  V30 9667 N 884.036 -2.57549 -4.99625 0
M  V30 9668 H 876.187 -1.7484 -1.20602 0
M  V30 9669 H 878.45 -0.743159 -0.588574 0
M  V30 9670 H 878.156 -2.35051 -2.61618 0
M  V30 9671 H 878.03 -0.940367 -3.6529 0
M  V30 9672 H 880.417 -0.250414 -2.94036 0
M  V30 9673 H 880.498 -1.69239 -1.91812 0
M  V30 9674 H 880.142 -3.14984 -3.98431 0
M  V30 9675 H 880.072 -1.68128 -4.9904 0
M  V30 9676 H 882.563 -1.58208 -3.43189 0
M  V30 9677 H 882.876 -3.79258 -6.73338 0
M  V30 9678 H 881.221 -3.40471 -6.05891 0
M  V30 9679 H 884.412 -2.0359 -4.21508 0
M  V30 9680 H 884.585 -3.0437 -5.72069 0
M  V30 9681 N 877.991 1.48044 -0.54043 0
M  V30 9682 C 879.219 2.06895 -0.0145153 0
M  V30 9683 C 879.634 1.39552 1.27164 0
M  V30 9684 O 878.991 0.486454 1.75897 0
M  V30 9685 C 879.042 3.60934 0.202278 0
M  V30 9686 O 878.763 4.25749 -1.03293 0
M  V30 9687 C 880.264 4.36607 0.767387 0
M  V30 9688 H 877.484 0.66991 -0.0382368 0
M  V30 9689 H 880.028 1.90288 -0.749057 0
M  V30 9690 H 878.183 3.77111 0.886897 0
M  V30 9691 H 878.597 5.18048 -0.820167 0
M  V30 9692 H 880.071 5.45126 0.86845 0
M  V30 9693 H 880.548 4.01745 1.77477 0
M  V30 9694 H 881.154 4.25133 0.119002 0
M  V30 9695 N 879.47 0.276058 1.55163 0
M  V30 9696 C 880.42 -0.625549 2.19251 0
M  V30 9697 C 881.404 -1.11769 1.15744 0
M  V30 9698 O 882.596 -1.0626 1.41555 0
M  V30 9699 C 879.725 -1.80879 2.91784 0
M  V30 9700 C 878.811 -1.33379 4.0258 0
M  V30 9701 N 879.202 -0.575002 5.02521 0
M  V30 9702 C 877.5 -1.61666 4.15668 0
M  V30 9703 C 878.201 -0.325164 5.8079 0
M  V30 9704 N 877.177 -0.897851 5.36134 0
M  V30 9705 H 880.979 -0.0379943 2.93875 0
M  V30 9706 H 878.493 0.079661 1.62205 0
M  V30 9707 H 880.49 -2.466 3.36146 0
M  V30 9708 H 879.15 -2.40028 2.1867 0
M  V30 9709 H 880.161 -0.222256 5.17423 0
M  V30 9710 H 876.838 -2.21745 3.53745 0
M  V30 9711 H 878.228 0.282598 6.71305 0
M  V30 9712 N 880.948 -1.576 0.00335426 0
M  V30 9713 C 882.197 -1.89892 -0.680001 0
M  V30 9714 C 882.51 -0.878731 -1.7475 0
M  V30 9715 O 883.716 -1.09199 -2.48572 0
M  V30 9716 C 882.172 -3.37098 -1.26066 0
M  V30 9717 C 881.78 -4.4742 -0.227807 0
M  V30 9718 C 883.524 -3.78495 -1.92202 0
M  V30 9719 C 881.431 -5.85706 -0.81865 0
M  V30 9720 H 880.361 -0.708578 -0.257746 0
M  V30 9721 H 883.012 -1.83387 0.0644472 0
M  V30 9722 H 881.394 -3.38451 -2.05589 0
M  V30 9723 H 882.568 -4.57589 0.54307 0
M  V30 9724 H 880.883 -4.15064 0.333297 0
M  V30 9725 H 883.48 -4.7915 -2.37318 0
M  V30 9726 H 883.823 -3.12187 -2.75399 0
M  V30 9727 H 884.356 -3.79456 -1.19408 0
M  V30 9728 H 881.095 -6.55495 -0.0253787 0
M  V30 9729 H 880.615 -5.79196 -1.55861 0
M  V30 9730 H 882.294 -6.33469 -1.31627 0
M  V30 9731 N 882.426 0.269451 -1.5528 0
M  V30 9732 C 883.656 1.01724 -1.79821 0
M  V30 9733 C 884.064 1.80298 -0.573532 0
M  V30 9734 O 883.407 1.77666 0.466963 0
M  V30 9735 C 883.469 2.02043 -2.97353 0
M  V30 9736 C 883.133 1.42375 -4.34256 0
M  V30 9737 C 884.13 0.837611 -5.13108 0
M  V30 9738 C 881.815 1.44988 -4.8092 0
M  V30 9739 C 883.809 0.285557 -6.3676 0
M  V30 9740 C 881.496 0.893969 -6.04526 0
M  V30 9741 C 882.494 0.312809 -6.82283 0
M  V30 9742 O 882.182 -0.234582 -8.03558 0
M  V30 9743 H 881.914 0.30604 -0.602757 0
M  V30 9744 H 884.468 0.30454 -2.0313 0
M  V30 9745 H 882.698 2.77082 -2.69745 0
M  V30 9746 H 884.387 2.6298 -3.09187 0
M  V30 9747 H 885.153 0.81009 -4.78187 0
M  V30 9748 H 881.032 1.89162 -4.20403 0
M  V30 9749 H 884.576 -0.168696 -6.97396 0
M  V30 9750 H 880.473 0.918742 -6.38928 0
M  V30 9751 H 881.241 -0.124282 -8.18406 0
M  V30 9752 N 883.904 1.48273 0.534124 0
M  V30 9753 C 885.129 1.59988 1.31979 0
M  V30 9754 C 885.554 0.258824 1.86311 0
M  V30 9755 O 884.912 -0.768885 1.64188 0
M  V30 9756 C 884.96 2.64642 2.44943 0
M  V30 9757 O 884.064 2.21515 3.47858 0
M  V30 9758 H 883.405 0.536625 0.391063 0
M  V30 9759 H 885.935 1.94229 0.643135 0
M  V30 9760 H 885.945 2.85786 2.91187 0
M  V30 9761 H 884.62 3.62004 2.04758 0
M  V30 9762 H 883.197 2.10567 3.0776 0
M  V30 9763 N 885.382 -0.782676 1.36792 0
M  V30 9764 C 886.63 -1.53778 1.31136 0
M  V30 9765 C 886.951 -1.94706 -0.107014 0
M  V30 9766 O 886.221 -1.65465 -1.04872 0
M  V30 9767 H 884.801 -0.570328 0.482426 0
M  V30 9768 H 887.463 -0.932181 1.71162 0
M  V30 9769 H 886.559 -2.44224 1.94321 0
M  V30 9770 N 886.86 -1.21182 -1.00761 0
M  V30 9771 C 888.088 -1.05335 -1.78079 0
M  V30 9772 C 888.503 0.396988 -1.84579 0
M  V30 9773 O 887.86 1.27548 -1.30529 0
M  V30 9774 C 887.911 -1.64089 -3.22113 0
M  V30 9775 O 887.632 -3.03448 -3.15992 0
M  V30 9776 C 889.133 -1.53318 -4.15943 0
M  V30 9777 H 886.353 -0.37005 -0.559736 0
M  V30 9778 H 888.897 -1.60463 -1.26775 0
M  V30 9779 H 887.052 -1.13059 -3.70535 0
M  V30 9780 H 887.466 -3.31492 -4.06465 0
M  V30 9781 H 888.94 -1.99174 -5.14814 0
M  V30 9782 H 889.417 -0.487166 -4.3649 0
M  V30 9783 H 890.023 -2.03582 -3.73409 0
M  V30 9784 N 888.338 1.20213 -1.01915 0
M  V30 9785 C 889.268 2.25336 -0.612023 0
M  V30 9786 C 890.249 1.65933 0.374186 0
M  V30 9787 O 891.434 1.92464 0.259053 0
M  V30 9788 C 888.564 3.47267 0.047904 0
M  V30 9789 C 887.518 4.1928 -0.859557 0
M  V30 9790 C 886.844 5.3466 -0.0652655 0
M  V30 9791 C 888.144 4.75143 -2.1688 0
M  V30 9792 H 889.838 2.59645 -1.49079 0
M  V30 9793 H 887.384 1.24808 -0.718263 0
M  V30 9794 H 889.337 4.19991 0.344294 0
M  V30 9795 H 888.061 3.12129 0.961404 0
M  V30 9796 H 886.72 3.48425 -1.13999 0
M  V30 9797 H 886.368 4.95767 0.849964 0
M  V30 9798 H 886.068 5.83772 -0.669618 0
M  V30 9799 H 887.592 6.10187 0.224612 0
M  V30 9800 H 889.006 5.39672 -1.9346 0
M  V30 9801 H 887.403 5.34702 -2.72422 0
M  V30 9802 H 888.473 3.93744 -2.83008 0
M  V30 9803 N 889.816 0.795718 1.36037 0
M  V30 9804 C 890.749 0.144269 2.27744 0
M  V30 9805 C 891.727 -0.683351 1.47543 0
M  V30 9806 O 892.911 -0.652976 1.76829 0
M  V30 9807 C 890.038 -0.800944 3.29094 0
M  V30 9808 C 889.084 -0.0543234 4.26465 0
M  V30 9809 S 889.917 1.27426 5.20118 0
M  V30 9810 C 891.073 0.333213 6.25012 0
M  V30 9811 H 891.306 0.921827 2.82648 0
M  V30 9812 H 888.839 0.590241 1.42673 0
M  V30 9813 H 890.797 -1.34082 3.87985 0
M  V30 9814 H 889.458 -1.5518 2.7309 0
M  V30 9815 H 888.651 -0.771788 4.98056 0
M  V30 9816 H 888.253 0.415264 3.71687 0
M  V30 9817 H 890.545 -0.485604 6.75757 0
M  V30 9818 H 891.488 1.01798 7.00744 0
M  V30 9819 H 891.896 -0.066256 5.64461 0
M  V30 9820 N 891.294 -1.47756 0.548274 0
M  V30 9821 C 892.571 -1.9555 -0.0443603 0
M  V30 9822 C 892.951 -1.49079 -1.49462 0
M  V30 9823 O 892.299 -0.725538 -2.16675 0
M  V30 9824 C 892.509 -3.48879 0.0918425 0
M  V30 9825 C 893.857 -4.2456 -0.0580879 0
M  V30 9826 O 894.881 -3.56195 0.018946 0
M  V30 9827 O 893.74 -5.46048 -0.222261 0
M  V30 9828 H 890.834 -0.824106 -0.0691235 0
M  V30 9829 H 893.38 -1.58196 0.614166 0
M  V30 9830 H 892.152 -3.7548 1.10137 0
M  V30 9831 H 891.775 -3.92975 -0.604704 0
M  V30 9832 N 892.772 -0.284283 -1.55015 0
M  V30 9833 C 894.002 0.332465 -2.03907 0
M  V30 9834 C 894.41 1.49331 -1.16177 0
M  V30 9835 O 893.753 1.82851 -0.176395 0
M  V30 9836 C 893.815 0.867193 -3.48884 0
M  V30 9837 C 893.479 -0.166198 -4.56698 0
M  V30 9838 C 894.476 -0.988898 -5.10408 0
M  V30 9839 C 892.161 -0.303081 -5.01385 0
M  V30 9840 C 894.155 -1.93458 -6.07333 0
M  V30 9841 C 891.842 -1.25223 -5.98133 0
M  V30 9842 C 892.84 -2.06647 -6.50988 0
M  V30 9843 O 892.528 -2.99955 -7.45843 0
M  V30 9844 H 892.26 0.0786597 -0.671408 0
M  V30 9845 H 894.814 -0.416871 -2.01125 0
M  V30 9846 H 893.044 1.66676 -3.48935 0
M  V30 9847 H 894.733 1.39802 -3.81065 0
M  V30 9848 H 895.499 -0.89393 -4.76691 0
M  V30 9849 H 891.378 0.320711 -4.59883 0
M  V30 9850 H 894.922 -2.57053 -6.48513 0
M  V30 9851 H 890.819 -1.34798 -6.31268 0
M  V30 9852 H 891.587 -2.94742 -7.6359 0
M  V30 9853 N 894.251 1.57596 -0.0117121 0
M  V30 9854 C 895.198 2.09153 0.975897 0
M  V30 9855 C 896.168 0.989579 1.33404 0
M  V30 9856 O 897.353 1.26273 1.43038 0
M  V30 9857 C 894.493 2.60906 2.2588 0
M  V30 9858 C 893.606 3.85046 1.95866 0
M  V30 9859 C 892.741 4.25257 3.18323 0
M  V30 9860 C 891.78 5.42202 2.84049 0
M  V30 9861 N 890.917 5.77651 3.99079 0
M  V30 9862 H 895.757 2.93261 0.52931 0
M  V30 9863 H 893.294 1.44965 0.249691 0
M  V30 9864 H 895.252 2.88995 3.00895 0
M  V30 9865 H 893.882 1.79654 2.68187 0
M  V30 9866 H 892.934 3.63794 1.11168 0
M  V30 9867 H 894.246 4.70151 1.66611 0
M  V30 9868 H 893.4 4.5469 4.01674 0
M  V30 9869 H 892.139 3.38884 3.50726 0
M  V30 9870 H 891.144 5.1248 1.99107 0
M  V30 9871 H 892.369 6.3026 2.52881 0
M  V30 9872 H 890.315 4.94235 4.31356 0
M  V30 9873 H 890.232 6.57356 3.73388 0
M  V30 9874 H 891.5 6.11681 4.83183 0
M  V30 9875 N 895.729 -0.261212 1.5542 0
M  V30 9876 C 897.006 -1.01321 1.67312 0
M  V30 9877 C 897.386 -2.0388 0.547356 0
M  V30 9878 O 896.734 -2.24003 -0.451083 0
M  V30 9879 C 896.944 -1.65943 3.07024 0
M  V30 9880 C 898.292 -2.16666 3.65159 0
M  V30 9881 O 899.316 -1.75909 3.09733 0
M  V30 9882 O 898.175 -2.91455 4.62294 0
M  V30 9883 H 895.269 -0.470714 0.679968 0
M  V30 9884 H 897.815 -0.256133 1.67756 0
M  V30 9885 H 896.587 -0.916868 3.80407 0
M  V30 9886 H 896.21 -2.48308 3.1053 0
M  V30 9887 N 897.207 -1.48554 -0.526253 0
M  V30 9888 C 898.484 -1.47252 -1.28748 0
M  V30 9889 C 898.864 -0.186245 -2.10277 0
M  V30 9890 O 898.212 0.831954 -2.12816 0
M  V30 9891 C 898.422 -2.73672 -2.16575 0
M  V30 9892 C 899.77 -3.22151 -2.76593 0
M  V30 9893 O 900.794 -2.74614 -2.2686 0
M  V30 9894 O 899.653 -4.04877 -3.67066 0
M  V30 9895 H 896.747 -0.588242 -0.581292 0
M  V30 9896 H 899.293 -1.60792 -0.5426 0
M  V30 9897 H 898.065 -3.58798 -1.56139 0
M  V30 9898 H 897.688 -2.6287 -2.98304 0
M  V30 9899 N 898.685 0.775411 -1.37205 0
M  V30 9900 C 899.595 1.91967 -1.34855 0
M  V30 9901 C 900.611 1.72214 -0.248656 0
M  V30 9902 O 901.787 1.95512 -0.483421 0
M  V30 9903 C 898.852 3.27038 -1.15096 0
M  V30 9904 C 897.913 3.5947 -2.34691 0
M  V30 9905 C 897.146 4.88097 -2.15865 0
M  V30 9906 O 897.369 5.58871 -1.14102 0
M  V30 9907 O 896.303 5.19507 -3.03967 0
M  V30 9908 H 900.129 1.969 -2.31223 0
M  V30 9909 H 897.714 0.917647 -1.17897 0
M  V30 9910 H 899.596 4.07837 -1.0605 0
M  V30 9911 H 898.271 3.22965 -0.217999 0
M  V30 9912 H 897.178 2.7892 -2.49308 0
M  V30 9913 H 898.511 3.68282 -3.26541 0
M  V30 9914 N 900.163 1.21714 1.00117 0
M  V30 9915 C 901.411 1.03465 1.73607 0
M  V30 9916 C 901.732 -0.432295 1.90148 0
M  V30 9917 O 901.002 -1.31157 1.45515 0
M  V30 9918 H 899.582 0.379857 0.643209 0
M  V30 9919 H 902.244 1.53088 1.20624 0
M  V30 9920 H 901.34 1.50574 2.73375 0
M  V30 9921 N 901.641 -1.19671 1.02551 0
M  V30 9922 C 902.869 -1.93233 0.739513 0
M  V30 9923 C 903.284 -1.75298 -0.701158 0
M  V30 9924 O 902.641 -1.07269 -1.47647 0
M  V30 9925 C 902.692 -3.45085 1.07697 0
M  V30 9926 O 902.413 -3.62441 2.46106 0
M  V30 9927 C 903.914 -4.35776 0.813298 0
M  V30 9928 H 901.134 -0.613905 0.270853 0
M  V30 9929 H 903.678 -1.51909 1.36909 0
M  V30 9930 H 901.833 -3.84255 0.492635 0
M  V30 9931 H 902.247 -4.56337 2.58567 0
M  V30 9932 H 903.721 -5.40941 1.09941 0
M  V30 9933 H 904.198 -4.38474 -0.252359 0
M  V30 9934 H 904.804 -4.02282 1.38021 0
M  V30 9935 N 903.119 -0.802921 -1.35613 0
M  V30 9936 C 904.344 -0.392846 -2.03645 0
M  V30 9937 C 904.769 0.987075 -1.6012 0
M  V30 9938 O 904.127 1.63849 -0.776101 0
M  V30 9939 C 904.175 -0.480208 -3.57388 0
M  V30 9940 O 903.279 0.507751 -4.09262 0
M  V30 9941 H 902.62 -0.16464 -0.643265 0
M  V30 9942 H 905.15 -1.08779 -1.73287 0
M  V30 9943 H 905.16 -0.348683 -4.06507 0
M  V30 9944 H 903.835 -1.48675 -3.88418 0
M  V30 9945 H 902.412 0.336769 -3.71376 0
M  V30 9946 N 904.597 1.47463 -0.556102 0
M  V30 9947 C 905.507 2.33785 0.195378 0
M  V30 9948 C 906.523 1.48123 0.913 0
M  V30 9949 O 907.699 1.81053 0.882141 0
M  V30 9950 C 904.764 3.24795 1.21282 0
M  V30 9951 C 903.825 4.26346 0.502747 0
M  V30 9952 C 903.058 5.13007 1.47172 0
M  V30 9953 O 903.281 5.02103 2.70646 0
M  V30 9954 O 902.215 5.93588 0.996814 0
M  V30 9955 H 906.041 2.99341 -0.512676 0
M  V30 9956 H 903.626 1.46004 -0.31673 0
M  V30 9957 H 905.508 3.81015 1.80016 0
M  V30 9958 H 904.183 2.61868 1.90282 0
M  V30 9959 H 903.09 3.73889 -0.125757 0
M  V30 9960 H 904.423 4.91984 -0.145779 0
M  V30 9961 N 906.075 0.2925 1.54862 0
M  V30 9962 C 906.985 -0.597036 2.26876 0
M  V30 9963 C 908.001 -1.15558 1.30086 0
M  V30 9964 O 909.177 -1.18217 1.63054 0
M  V30 9965 C 906.242 -1.75664 2.98903 0
M  V30 9966 C 905.303 -1.23303 4.11212 0
M  V30 9967 C 904.536 -2.33736 4.79795 0
M  V30 9968 O 904.759 -3.53459 4.47686 0
M  V30 9969 O 903.693 -2.00908 5.67379 0
M  V30 9970 H 907.519 -0.0131242 3.03697 0
M  V30 9971 H 905.104 0.0592642 1.49282 0
M  V30 9972 H 906.986 -2.43241 3.4411 0
M  V30 9973 H 905.661 -2.32731 2.24984 0
M  V30 9974 H 904.568 -0.523222 3.70423 0
M  V30 9975 H 905.901 -0.707887 4.87083 0
M  V30 9976 N 907.553 -1.57587 0.0200696 0
M  V30 9977 C 908.5 -2.09667 -0.964791 0
M  V30 9978 C 909.47 -0.99664 -1.32877 0
M  V30 9979 O 910.655 -1.2703 -1.42366 0
M  V30 9980 C 907.795 -2.62101 -2.24493 0
M  V30 9981 C 906.908 -3.8608 -1.93821 0
M  V30 9982 C 906.043 -4.26939 -3.16064 0
M  V30 9983 C 905.082 -5.43701 -2.81169 0
M  V30 9984 N 904.219 -5.79759 -3.9601 0
M  V30 9985 H 909.059 -2.93538 -0.513751 0
M  V30 9986 H 906.596 -1.45096 -0.242 0
M  V30 9987 H 908.554 -2.90587 -2.99358 0
M  V30 9988 H 907.184 -1.81074 -2.6723 0
M  V30 9989 H 906.236 -3.64378 -1.09237 0
M  V30 9990 H 907.548 -4.71028 -1.64115 0
M  V30 9991 H 906.702 -4.56814 -3.99257 0
M  V30 9992 H 905.441 -3.40739 -3.48924 0
M  V30 9993 H 904.446 -5.13529 -1.96387 0
M  V30 9994 H 905.671 -6.31593 -2.49535 0
M  V30 9995 H 903.617 -4.96516 -4.28729 0
M  V30 9996 H 903.534 -6.59327 -3.69896 0
M  V30 9997 H 904.802 -6.14235 -4.79933 0
M  V30 9998 N 909.032 0.252966 -1.55557 0
M  V30 9999 C 909.979 1.3131 -1.89806 0
M  V30 10000 C 910.949 1.48121 -0.751633 0
M  V30 10001 O 912.134 1.62202 -1.00474 0
M  V30 10002 C 909.274 2.66467 -2.19293 0
M  V30 10003 C 908.387 2.57714 -3.46709 0
M  V30 10004 C 907.522 3.85184 -3.65796 0
M  V30 10005 C 906.561 3.71023 -4.86835 0
M  V30 10006 N 905.698 4.90371 -5.02474 0
M  V30 10007 H 910.538 1.01402 -2.80217 0
M  V30 10008 H 908.075 0.489462 -1.38718 0
M  V30 10009 H 910.033 3.45132 -2.34392 0
M  V30 10010 H 908.663 2.94536 -1.32093 0
M  V30 10011 H 907.715 1.70651 -3.39974 0
M  V30 10012 H 909.027 2.43158 -4.35517 0
M  V30 10013 H 908.181 4.72292 -3.80822 0
M  V30 10014 H 906.92 4.0263 -2.7521 0
M  V30 10015 H 905.925 2.82299 -4.71792 0
M  V30 10016 H 907.15 3.55078 -5.78875 0
M  V30 10017 H 905.096 5.0819 -4.14824 0
M  V30 10018 H 905.013 4.78423 -5.85361 0
M  V30 10019 H 906.281 5.78995 -5.21905 0
M  V30 10020 N 910.51 1.48831 0.518367 0
M  V30 10021 C 911.759 1.5669 1.27008 0
M  V30 10022 C 912.072 0.250934 1.93984 0
M  V30 10023 O 913.278 0.207884 2.70703 0
M  V30 10024 C 911.734 2.76387 2.30517 0
M  V30 10025 C 911.342 4.14673 1.69559 0
M  V30 10026 C 913.086 2.93566 3.06625 0
M  V30 10027 C 910.993 5.25616 2.71076 0
M  V30 10028 H 909.923 0.583362 0.477708 0
M  V30 10029 H 912.574 1.75187 0.546052 0
M  V30 10030 H 910.956 2.51348 3.06006 0
M  V30 10031 H 912.13 4.49779 1.00179 0
M  V30 10032 H 910.445 4.02708 1.05902 0
M  V30 10033 H 913.042 3.7362 3.82508 0
M  V30 10034 H 913.385 2.03462 3.63193 0
M  V30 10035 H 913.918 3.18562 2.38251 0
M  V30 10036 H 910.657 6.17723 2.19313 0
M  V30 10037 H 910.177 4.94985 3.38748 0
M  V30 10038 H 911.856 5.5422 3.3384 0
M  V30 10039 N 911.988 -0.768124 1.37614 0
M  V30 10040 C 912.935 -1.88151 1.33671 0
M  V30 10041 C 913.905 -1.64871 0.201645 0
M  V30 10042 O 915.09 -1.86739 0.391582 0
M  V30 10043 C 912.23 -3.25264 1.15314 0
M  V30 10044 C 911.343 -3.60473 2.38082 0
M  V30 10045 C 910.478 -4.86814 2.12569 0
M  V30 10046 C 909.517 -5.14765 3.31184 0
M  V30 10047 N 908.654 -6.32295 3.052 0
M  V30 10048 H 913.494 -1.90857 2.28862 0
M  V30 10049 H 911.031 -0.933048 1.13722 0
M  V30 10050 H 912.989 -4.04364 1.02691 0
M  V30 10051 H 911.619 -3.21924 0.237689 0
M  V30 10052 H 910.671 -2.7633 2.61431 0
M  V30 10053 H 911.983 -3.77065 3.26532 0
M  V30 10054 H 911.137 -5.73826 1.96999 0
M  V30 10055 H 909.876 -4.72333 1.21462 0
M  V30 10056 H 908.881 -4.26227 3.4729 0
M  V30 10057 H 910.106 -5.31153 4.23147 0
M  V30 10058 H 908.052 -6.19166 2.16726 0
M  V30 10059 H 907.969 -6.4932 3.87195 0
M  V30 10060 H 909.237 -7.22234 2.93254 0
M  V30 10061 N 913.466 -1.22244 -0.994698 0
M  V30 10062 C 914.712 -1.04746 -1.73655 0
M  V30 10063 C 915.045 0.41668 -1.89677 0
M  V30 10064 O 914.32 1.30897 -1.43862 0
M  V30 10065 C 914.603 -1.75716 -3.14318 0
M  V30 10066 C 914.456 -3.29714 -3.05955 0
M  V30 10067 C 915.775 -1.50809 -4.13455 0
M  V30 10068 H 912.894 -0.381921 -0.630322 0
M  V30 10069 H 915.536 -1.50559 -1.15897 0
M  V30 10070 H 913.686 -1.3677 -3.63629 0
M  V30 10071 H 915.358 -3.78093 -2.64279 0
M  V30 10072 H 913.601 -3.59484 -2.42804 0
M  V30 10073 H 914.272 -3.74547 -4.05485 0
M  V30 10074 H 916.748 -1.84636 -3.72892 0
M  V30 10075 H 915.624 -2.02964 -5.09997 0
M  V30 10076 H 915.885 -0.440292 -4.39902 0
M  V30 10077 N 914.944 1.19125 -1.03184 0
M  V30 10078 C 916.193 1.8821 -0.725264 0
M  V30 10079 C 916.506 1.80674 0.749411 0
M  V30 10080 O 917.712 2.45037 1.16915 0
M  V30 10081 C 916.168 3.37607 -1.24697 0
M  V30 10082 C 915.776 3.53693 -2.74964 0
M  V30 10083 C 917.52 4.12149 -1.01652 0
M  V30 10084 C 915.427 4.97001 -3.20538 0
M  V30 10085 H 914.357 0.704916 -0.267599 0
M  V30 10086 H 917.008 1.34663 -1.24652 0
M  V30 10087 H 915.39 3.90569 -0.653614 0
M  V30 10088 H 916.564 3.11046 -3.39981 0
M  V30 10089 H 914.879 2.92544 -2.96322 0
M  V30 10090 H 917.476 5.17837 -1.33226 0
M  V30 10091 H 917.819 4.16274 0.0465712 0
M  V30 10092 H 918.352 3.65334 -1.57403 0
M  V30 10093 H 915.091 4.9804 -4.26189 0
M  V30 10094 H 914.611 5.40398 -2.60251 0
M  V30 10095 H 916.29 5.65669 -3.14049 0
M  V30 10096 N 916.422 0.810101 1.35185 0
M  V30 10097 C 917.352 0.237453 2.32289 0
M  V30 10098 C 918.333 -0.639032 1.5764 0
M  V30 10099 O 919.518 -0.568575 1.8569 0
M  V30 10100 C 916.648 -0.611964 3.41866 0
M  V30 10101 C 915.602 0.166318 4.27677 0
M  V30 10102 C 914.928 -0.805024 5.28605 0
M  V30 10103 C 916.228 1.36729 5.04086 0
M  V30 10104 H 917.922 1.04874 2.80432 0
M  V30 10105 H 915.468 0.505751 1.34826 0
M  V30 10106 H 917.421 -1.02267 4.08802 0
M  V30 10107 H 916.145 -1.45617 2.92341 0
M  V30 10108 H 914.804 0.558238 3.62325 0
M  V30 10109 H 914.452 -1.64483 4.75347 0
M  V30 10110 H 914.152 -0.288577 5.86891 0
M  V30 10111 H 915.676 -1.21386 5.98413 0
M  V30 10112 H 917.09 1.03128 5.63948 0
M  V30 10113 H 915.487 1.81848 5.71884 0
M  V30 10114 H 916.557 2.15214 4.34524 0
M  V30 10115 N 917.9 -1.47166 0.563914 0
M  V30 10116 C 918.847 -2.30097 -0.180013 0
M  V30 10117 C 919.817 -1.39473 -0.902019 0
M  V30 10118 O 921.002 -1.68432 -0.896396 0
M  V30 10119 C 918.142 -3.23573 -1.19978 0
M  V30 10120 C 917.255 -4.2929 -0.483149 0
M  V30 10121 C 916.39 -5.0991 -1.48879 0
M  V30 10122 C 915.429 -6.07395 -0.757513 0
M  V30 10123 N 914.566 -6.8095 -1.71031 0
M  V30 10124 H 919.406 -2.93189 0.53329 0
M  V30 10125 H 916.943 -1.4451 0.274814 0
M  V30 10126 H 918.901 -3.76196 -1.80368 0
M  V30 10127 H 917.531 -2.6233 -1.88103 0
M  V30 10128 H 916.583 -3.79671 0.235414 0
M  V30 10129 H 917.895 -4.9872 0.0894075 0
M  V30 10130 H 917.049 -5.66717 -2.16603 0
M  V30 10131 H 915.788 -4.40397 -2.09527 0
M  V30 10132 H 914.793 -5.4976 -0.0663841 0
M  V30 10133 H 916.018 -6.78919 -0.156685 0
M  V30 10134 H 913.964 -6.14162 -2.30524 0
M  V30 10135 H 913.881 -7.46574 -1.19007 0
M  V30 10136 H 915.149 -7.42326 -2.37849 0
M  V30 10137 N 919.378 -0.300708 -1.54705 0
M  V30 10138 C 920.624 0.309111 -2.0043 0
M  V30 10139 C 920.957 1.53562 -1.1888 0
M  V30 10140 O 920.232 1.92683 -0.265205 0
M  V30 10141 C 920.515 0.665995 -3.53888 0
M  V30 10142 C 920.368 -0.56963 -4.46178 0
M  V30 10143 C 921.687 1.49262 -4.14016 0
M  V30 10144 H 918.806 0.110878 -0.728612 0
M  V30 10145 H 921.448 -0.412748 -1.85463 0
M  V30 10146 H 919.598 1.281 -3.66773 0
M  V30 10147 H 921.27 -1.20811 -4.45199 0
M  V30 10148 H 919.513 -1.20292 -4.16788 0
M  V30 10149 H 920.184 -0.275785 -5.51311 0
M  V30 10150 H 922.66 0.972979 -4.04564 0
M  V30 10151 H 921.536 1.71111 -5.21548 0
M  V30 10152 H 921.797 2.48174 -3.65872 0
M  V30 10153 N 920.856 1.57574 -0.0284266 0
M  V30 10154 C 921.786 2.1321 0.952039 0
M  V30 10155 C 922.767 1.04806 1.33977 0
M  V30 10156 O 923.952 1.32635 1.41851 0
M  V30 10157 C 921.082 2.65862 2.23461 0
M  V30 10158 C 920.036 3.79047 1.98765 0
M  V30 10159 C 919.362 4.18124 3.33281 0
M  V30 10160 C 920.662 5.05151 1.32739 0
M  V30 10161 H 922.356 2.95385 0.488705 0
M  V30 10162 H 919.902 1.42092 0.233628 0
M  V30 10163 H 921.855 3.03417 2.92431 0
M  V30 10164 H 920.579 1.80848 2.71959 0
M  V30 10165 H 919.238 3.41929 1.32213 0
M  V30 10166 H 918.886 3.30092 3.79537 0
M  V30 10167 H 918.586 4.94396 3.17563 0
M  V30 10168 H 920.11 4.58262 4.0352 0
M  V30 10169 H 921.524 5.40297 1.91708 0
M  V30 10170 H 919.921 5.86416 1.27421 0
M  V30 10171 H 920.991 4.83969 0.300261 0
M  V30 10172 N 922.334 -0.244713 1.55689 0
M  V30 10173 C 923.611 -0.995407 1.68378 0
M  V30 10174 C 923.991 -2.03288 0.568949 0
M  V30 10175 O 923.339 -2.24469 -0.427299 0
M  V30 10176 C 923.549 -1.62678 3.08767 0
M  V30 10177 C 924.897 -2.1278 3.67437 0
M  V30 10178 O 925.921 -1.72614 3.11581 0
M  V30 10179 O 924.78 -2.86536 4.65359 0
M  V30 10180 H 921.874 -0.463476 0.684923 0
M  V30 10181 H 924.42 -0.238326 1.68018 0
M  V30 10182 H 923.192 -0.876469 3.81358 0
M  V30 10183 H 922.815 -2.45 3.13146 0
M  V30 10184 N 923.813 -1.49104 -0.510467 0
M  V30 10185 C 925.224 -1.51423 -1.09215 0
M  V30 10186 C 925.575 -0.295035 -1.93969 0
M  V30 10187 O 924.7 0.596064 -2.08029 0
M  V30 10188 C 925.295 -2.74387 -1.98739 0
M  V30 10189 C 923.854 -2.79515 -2.52088 0
M  V30 10190 C 923.001 -2.4521 -1.29488 0
M  V30 10191 H 925.952 -1.55938 -0.294807 0
M  V30 10192 H 925.973 -2.54012 -2.83298 0
M  V30 10193 H 925.485 -3.63105 -1.37026 0
M  V30 10194 H 923.586 -1.95054 -3.17466 0
M  V30 10195 H 923.699 -3.81447 -2.89887 0
M  V30 10196 H 922.063 -1.96785 -1.61703 0
M  V30 10197 H 922.846 -3.36192 -0.694978 0
M  V30 10198 N 925.291 0.760815 -1.38019 0
M  V30 10199 C 926.516 1.55513 -1.37224 0
M  V30 10200 C 926.941 1.88062 0.037611 0
M  V30 10201 O 926.299 1.50042 1.0177 0
M  V30 10202 C 926.347 2.83539 -2.22796 0
M  V30 10203 O 925.451 3.78384 -1.64009 0
M  V30 10204 H 924.792 0.470642 -0.468393 0
M  V30 10205 H 927.322 0.940792 -1.81687 0
M  V30 10206 H 927.332 3.32535 -2.36399 0
M  V30 10207 H 926.007 2.59178 -3.25269 0
M  V30 10208 H 924.584 3.37063 -1.59508 0
M  V30 10209 N 926.769 1.22769 0.988202 0
M  V30 10210 C 927.719 0.969202 2.06375 0
M  V30 10211 C 928.703 -0.0819274 1.60691 0
M  V30 10212 O 929.895 0.129201 1.76528 0
M  V30 10213 C 927.024 0.553919 3.38802 0
M  V30 10214 C 926.11 1.64003 3.91106 0
M  V30 10215 N 926.501 2.86872 4.16579 0
M  V30 10216 C 924.799 1.5128 4.1956 0
M  V30 10217 C 925.5 3.57137 4.5916 0
M  V30 10218 N 924.476 2.84624 4.63131 0
M  V30 10219 H 928.278 1.90247 2.24017 0
M  V30 10220 H 925.792 1.12592 1.17033 0
M  V30 10221 H 927.789 0.350033 4.15428 0
M  V30 10222 H 926.449 -0.37239 3.22558 0
M  V30 10223 H 927.46 3.23254 4.04632 0
M  V30 10224 H 924.137 0.653032 4.12361 0
M  V30 10225 H 925.527 4.62428 4.87452 0
M  V30 10226 N 928.247 -1.18576 1.03814 0
M  V30 10227 C 929.663 -1.4051 0.756909 0
M  V30 10228 C 929.863 -1.9057 -0.654631 0
M  V30 10229 O 928.919 -2.0884 -1.41922 0
M  V30 10230 C 930.232 -2.4081 1.80087 0
M  V30 10231 C 931.78 -2.54541 1.82148 0
M  V30 10232 C 932.255 -3.58102 2.85529 0
M  V30 10233 N 933.746 -3.65607 2.84404 0
M  V30 10234 C 934.481 -4.45458 3.61047 0
M  V30 10235 N 933.977 -5.28937 4.47434 0
M  V30 10236 N 935.77 -4.40196 3.49548 0
M  V30 10237 H 927.921 -0.844075 1.94908 0
M  V30 10238 H 930.184 -0.433287 0.843188 0
M  V30 10239 H 929.89 -2.1107 2.81322 0
M  V30 10240 H 929.764 -3.4012 1.63089 0
M  V30 10241 H 932.151 -2.83598 0.815855 0
M  V30 10242 H 932.232 -1.55352 2.03223 0
M  V30 10243 H 931.876 -3.29786 3.86269 0
M  V30 10244 H 931.806 -4.56963 2.6171 0
M  V30 10245 H 934.297 -3.05994 2.21756 0
M  V30 10246 H 934.61 -5.8701 5.02632 0
M  V30 10247 H 932.955 -5.28366 4.51503 0
M  V30 10248 H 936.146 -3.74026 2.81464 0
M  V30 10249 H 936.319 -5.02186 4.09528 0
M  V30 10250 N 929.725 -0.817259 -1.34754 0
M  V30 10251 C 931.002 -0.325468 -1.92873 0
M  V30 10252 C 931.382 1.18643 -1.74606 0
M  V30 10253 O 930.73 1.9909 -1.1214 0
M  V30 10254 C 930.94 -0.74858 -3.40877 0
M  V30 10255 C 932.288 -0.744165 -4.18028 0
M  V30 10256 O 933.312 -0.690799 -3.49437 0
M  V30 10257 O 932.171 -0.812207 -5.40431 0
M  V30 10258 H 929.265 -0.0876397 -0.822343 0
M  V30 10259 H 931.811 -0.901671 -1.43764 0
M  V30 10260 H 930.583 -1.79017 -3.47949 0
M  V30 10261 H 930.206 -0.147764 -3.97325 0
M  V30 10262 N 931.203 1.46865 -0.571711 0
M  V30 10263 C 932.452 2.01636 -0.050881 0
M  V30 10264 C 932.765 1.45001 1.31279 0
M  V30 10265 O 933.971 1.91523 1.92435 0
M  V30 10266 C 932.427 3.59877 -0.0404114 0
M  V30 10267 C 932.035 4.25506 -1.40172 0
M  V30 10268 C 933.779 4.22346 0.42705 0
M  V30 10269 C 931.686 5.75795 -1.34958 0
M  V30 10270 H 930.616 0.753846 -0.0152514 0
M  V30 10271 H 933.267 1.68711 -0.721723 0
M  V30 10272 H 931.649 3.89829 0.696374 0
M  V30 10273 H 932.823 4.07178 -2.15737 0
M  V30 10274 H 931.138 3.75086 -1.8083 0
M  V30 10275 H 933.735 5.32499 0.484688 0
M  V30 10276 H 934.078 3.9052 1.44222 0
M  V30 10277 H 934.611 3.9698 -0.255326 0
M  V30 10278 H 931.35 6.12265 -2.3412 0
M  V30 10279 H 930.87 5.96419 -0.635962 0
M  V30 10280 H 932.549 6.38294 -1.05779 0
M  V30 10281 N 932.681 0.308908 1.54543 0
M  V30 10282 C 933.906 -0.303196 2.05172 0
M  V30 10283 C 934.331 -1.46133 1.18434 0
M  V30 10284 O 933.689 -1.803 0.190162 0
M  V30 10285 C 933.737 -0.729526 3.53143 0
M  V30 10286 O 932.841 -1.83348 3.69401 0
M  V30 10287 H 932.182 -0.0575066 0.661505 0
M  V30 10288 H 934.712 0.453055 1.99521 0
M  V30 10289 H 934.722 -1.01619 3.95143 0
M  V30 10290 H 933.397 0.117622 4.15734 0
M  V30 10291 H 931.974 -1.54676 3.39308 0
M  V30 10292 N 934.159 -1.57557 0.0367827 0
M  V30 10293 C 935.089 -2.13712 -0.940719 0
M  V30 10294 C 936.07 -1.05515 -1.33419 0
M  V30 10295 O 937.255 -1.33385 -1.41146 0
M  V30 10296 C 934.385 -2.67043 -2.22048 0
M  V30 10297 C 933.339 -3.80096 -1.96752 0
M  V30 10298 C 932.665 -4.19886 -3.31059 0
M  V30 10299 C 933.965 -5.05848 -1.30058 0
M  V30 10300 H 935.659 -2.9564 -0.473033 0
M  V30 10301 H 933.205 -1.42214 -0.226089 0
M  V30 10302 H 935.158 -3.04964 -2.90818 0
M  V30 10303 H 933.882 -1.82287 -2.70996 0
M  V30 10304 H 932.541 -3.42625 -1.30398 0
M  V30 10305 H 932.189 -3.32101 -3.77781 0
M  V30 10306 H 931.889 -4.96073 -3.14937 0
M  V30 10307 H 933.413 -4.60395 -4.01084 0
M  V30 10308 H 934.827 -5.41306 -1.8884 0
M  V30 10309 H 933.224 -5.87084 -1.24309 0
M  V30 10310 H 934.294 -4.84122 -0.274591 0
M  V30 10311 N 935.637 0.236453 -1.55816 0
M  V30 10312 C 936.6 1.27633 -1.90375 0
M  V30 10313 C 937.6 1.40557 -0.781048 0
M  V30 10314 O 938.79 1.39078 -1.04895 0
M  V30 10315 C 935.922 2.65247 -2.14142 0
M  V30 10316 H 937.115 0.982019 -2.83366 0
M  V30 10317 H 934.668 0.476215 -1.48869 0
M  V30 10318 H 935.403 2.99801 -1.23653 0
M  V30 10319 H 935.188 2.57246 -2.95917 0
M  V30 10320 H 936.678 3.40313 -2.42026 0
M  V30 10321 N 937.115 1.49373 0.502552 0
M  V30 10322 C 938.362 1.58781 1.25678 0
M  V30 10323 C 938.69 0.273819 1.92563 0
M  V30 10324 O 937.945 -0.738141 1.81246 0
M  V30 10325 C 938.244 2.69508 2.34735 0
M  V30 10326 C 937.91 4.11057 1.85318 0
M  V30 10327 C 936.572 4.49578 1.7156 0
M  V30 10328 C 938.924 4.99653 1.48312 0
M  V30 10329 C 936.252 5.74469 1.19172 0
M  V30 10330 C 938.604 6.2506 0.97377 0
M  V30 10331 C 937.268 6.62412 0.822573 0
M  V30 10332 H 936.538 0.581021 0.459887 0
M  V30 10333 H 939.185 1.83197 0.557767 0
M  V30 10334 H 937.49 2.39057 3.10418 0
M  V30 10335 H 939.187 2.73997 2.92791 0
M  V30 10336 H 935.777 3.80651 1.96985 0
M  V30 10337 H 939.961 4.70549 1.57789 0
M  V30 10338 H 935.217 6.0211 1.06176 0
M  V30 10339 H 939.391 6.93089 0.678233 0
M  V30 10340 H 937.018 7.59069 0.414453 0
M  V30 10341 N 938.594 -0.753485 1.38421 0
M  V30 10342 C 939.841 -1.51261 1.34634 0
M  V30 10343 C 940.169 -1.94396 -0.0635771 0
M  V30 10344 O 939.424 -1.65736 -1.04068 0
M  V30 10345 C 939.723 -2.77836 2.24816 0
M  V30 10346 C 939.389 -2.53662 3.72782 0
M  V30 10347 C 938.051 -2.46779 4.13103 0
M  V30 10348 C 940.403 -2.32548 4.66445 0
M  V30 10349 C 937.731 -2.16796 5.45176 0
M  V30 10350 C 940.083 -2.04085 5.98775 0
M  V30 10351 C 938.747 -1.95658 6.3818 0
M  V30 10352 H 938.017 -0.553503 0.492661 0
M  V30 10353 H 940.664 -0.866406 1.7078 0
M  V30 10354 H 938.969 -3.47106 1.81726 0
M  V30 10355 H 940.666 -3.35793 2.19189 0
M  V30 10356 H 937.256 -2.59891 3.40815 0
M  V30 10357 H 941.44 -2.36845 4.3614 0
M  V30 10358 H 936.696 -2.0878 5.74648 0
M  V30 10359 H 940.87 -1.86751 6.70893 0
M  V30 10360 H 938.497 -1.7219 7.40442 0
M  V30 10361 N 940.072 -1.23292 -0.981677 0
M  V30 10362 C 940.982 -1.02964 -2.10798 0
M  V30 10363 C 941.998 0.0254674 -1.73981 0
M  V30 10364 O 943.174 -0.169706 -2.00684 0
M  V30 10365 C 940.239 -0.621934 -3.41076 0
M  V30 10366 C 939.3 -1.75194 -3.91926 0
M  V30 10367 C 938.533 -1.36359 -5.15986 0
M  V30 10368 O 938.756 -0.247265 -5.69864 0
M  V30 10369 O 937.69 -2.18421 -5.60871 0
M  V30 10370 H 941.516 -1.97354 -2.30836 0
M  V30 10371 H 939.101 -1.01986 -1.09175 0
M  V30 10372 H 940.983 -0.405446 -4.19445 0
M  V30 10373 H 939.658 0.29299 -3.22371 0
M  V30 10374 H 938.565 -2.02305 -3.1468 0
M  V30 10375 H 939.898 -2.64513 -4.15083 0
M  V30 10376 N 941.55 1.18024 -1.04442 0
M  V30 10377 C 942.513 2.19992 -0.643136 0
M  V30 10378 C 943.513 1.57949 0.301444 0
M  V30 10379 O 944.703 1.73986 0.0863341 0
M  V30 10380 C 941.835 3.40853 0.0565208 0
M  V30 10381 H 943.028 2.57008 -1.54554 0
M  V30 10382 H 940.581 1.31974 -0.837408 0
M  V30 10383 H 941.316 3.09373 0.972553 0
M  V30 10384 H 941.101 3.87128 -0.622439 0
M  V30 10385 H 942.591 4.16344 0.323652 0
M  V30 10386 N 943.028 0.824394 1.34319 0
M  V30 10387 C 943.991 0.252696 2.27803 0
M  V30 10388 C 944.991 -0.570254 1.50349 0
M  V30 10389 O 946.181 -0.386145 1.69866 0
M  V30 10390 C 943.313 -0.645575 3.34731 0
M  V30 10391 H 944.506 1.07742 2.79878 0
M  V30 10392 H 942.059 0.596367 1.44475 0
M  V30 10393 H 942.794 -1.4933 2.87873 0
M  V30 10394 H 942.579 -0.0569478 3.92059 0
M  V30 10395 H 944.069 -1.03933 4.0446 0
M  V30 10396 N 944.506 -1.46559 0.579492 0
M  V30 10397 C 945.731 -2.0729 0.0674595 0
M  V30 10398 C 946.156 -1.4259 -1.22677 0
M  V30 10399 O 945.514 -0.50857 -1.74021 0
M  V30 10400 C 945.562 -3.60492 -0.0882227 0
M  V30 10401 O 944.666 -3.96172 -1.14551 0
M  V30 10402 H 944.007 -0.661159 0.0613536 0
M  V30 10403 H 946.537 -1.88247 0.801519 0
M  V30 10404 H 946.547 -4.06929 -0.295411 0
M  V30 10405 H 945.222 -4.06976 0.856943 0
M  V30 10406 H 943.799 -3.61448 -0.917033 0
M  V30 10407 N 945.984 -0.3171 -1.54377 0
M  V30 10408 C 946.917 0.594178 -2.20329 0
M  V30 10409 C 947.895 1.12067 -1.17812 0
M  V30 10410 O 949.079 1.18588 -1.46524 0
M  V30 10411 C 946.206 1.81463 -2.85987 0
M  V30 10412 C 945.252 1.41996 -4.02168 0
M  V30 10413 S 946.085 0.462159 -5.33502 0
M  V30 10414 C 947.241 1.69004 -6.02651 0
M  V30 10415 H 947.474 0.0339261 -2.97281 0
M  V30 10416 H 945.007 -0.101196 -1.54068 0
M  V30 10417 H 946.965 2.51494 -3.2444 0
M  V30 10418 H 945.626 2.34606 -2.08851 0
M  V30 10419 H 944.819 2.32921 -4.4695 0
M  V30 10420 H 944.421 0.799423 -3.65356 0
M  V30 10421 H 946.713 2.62839 -6.24437 0
M  V30 10422 H 947.656 1.28451 -6.96352 0
M  V30 10423 H 948.064 1.87408 -5.32483 0
M  V30 10424 N 947.462 1.57535 -0.0451378 0
M  V30 10425 C 948.395 2.06721 0.96653 0
M  V30 10426 C 949.373 0.966392 1.30766 0
M  V30 10427 O 950.557 1.23789 1.42157 0
M  V30 10428 C 947.684 2.50266 2.2822 0
M  V30 10429 C 946.73 3.71525 2.09455 0
M  V30 10430 S 947.563 5.17453 1.37851 0
M  V30 10431 C 948.719 5.64308 2.70753 0
M  V30 10432 H 948.952 2.92207 0.547911 0
M  V30 10433 H 946.485 1.53494 0.166973 0
M  V30 10434 H 948.443 2.76019 3.03849 0
M  V30 10435 H 947.104 1.65097 2.67211 0
M  V30 10436 H 946.297 3.99894 3.06759 0
M  V30 10437 H 945.899 3.46008 1.41967 0
M  V30 10438 H 948.191 5.69525 3.66943 0
M  V30 10439 H 949.134 6.63613 2.47028 0
M  V30 10440 H 949.542 4.92014 2.76736 0
M  V30 10441 N 948.94 -0.228186 1.55939 0
M  V30 10442 C 950.356 -0.577583 1.48782 0
M  V30 10443 C 950.556 -1.87461 0.738972 0
M  V30 10444 O 949.612 -2.50988 0.275929 0
M  V30 10445 C 950.925 -0.662961 2.93301 0
M  V30 10446 C 952.473 -0.754035 3.03782 0
M  V30 10447 C 952.948 -0.870815 4.49645 0
M  V30 10448 N 954.439 -0.935208 4.53661 0
M  V30 10449 C 955.174 -1.04516 5.63794 0
M  V30 10450 N 954.67 -1.11948 6.83696 0
M  V30 10451 N 956.463 -1.07978 5.51631 0
M  V30 10452 H 948.614 0.623018 2.03057 0
M  V30 10453 H 950.877 0.217692 0.922667 0
M  V30 10454 H 950.583 0.220375 3.51009 0
M  V30 10455 H 950.457 -1.52876 3.44831 0
M  V30 10456 H 952.844 -1.62782 2.46143 0
M  V30 10457 H 952.925 0.137301 2.55431 0
M  V30 10458 H 952.569 -0.0015186 5.079 0
M  V30 10459 H 952.499 -1.77747 4.95695 0
M  V30 10460 H 954.99 -0.88836 3.6731 0
M  V30 10461 H 955.303 -1.20297 7.6338 0
M  V30 10462 H 953.648 -1.08873 6.8642 0
M  V30 10463 H 956.839 -1.01833 4.56889 0
M  V30 10464 H 957.012 -1.16202 6.37496 0
M  V30 10465 N 950.418 -1.49637 -0.494624 0
M  V30 10466 C 951.35 -1.62902 -1.61231 0
M  V30 10467 C 952.363 -0.511425 -1.54558 0
M  V30 10468 O 953.552 -0.783724 -1.60375 0
M  V30 10469 C 950.652 -1.57564 -3.00045 0
M  V30 10470 C 949.825 -2.84964 -3.31835 0
M  V30 10471 C 948.884 -2.72591 -4.5009 0
M  V30 10472 O 947.91 -3.46532 -4.51558 0
M  V30 10473 N 949.112 -1.84563 -5.50379 0
M  V30 10474 H 951.877 -2.59301 -1.50276 0
M  V30 10475 H 949.438 -1.46806 -0.68262 0
M  V30 10476 H 951.43 -1.46932 -3.77085 0
M  V30 10477 H 950 -0.689974 -3.0489 0
M  V30 10478 H 949.22 -3.099 -2.4363 0
M  V30 10479 H 950.508 -3.69412 -3.49875 0
M  V30 10480 H 949.906 -1.23758 -5.51997 0
M  V30 10481 H 948.463 -1.79849 -6.26496 0
M  V30 10482 N 951.896 0.746133 -1.38819 0
M  V30 10483 C 953.142 1.50768 -1.35635 0
M  V30 10484 C 953.475 1.94132 0.0512435 0
M  V30 10485 O 952.75 1.65979 1.01396 0
M  V30 10486 C 953.033 2.7551 -2.31875 0
M  V30 10487 C 952.886 2.38236 -3.81528 0
M  V30 10488 C 954.205 3.77566 -2.26124 0
M  V30 10489 H 951.324 0.546922 -0.494009 0
M  V30 10490 H 953.966 0.854017 -1.69725 0
M  V30 10491 H 952.116 3.31285 -2.02935 0
M  V30 10492 H 953.788 1.88178 -4.21173 0
M  V30 10493 H 952.031 1.70601 -3.98846 0
M  V30 10494 H 952.702 3.27517 -4.44339 0
M  V30 10495 H 955.178 3.31349 -2.51689 0
M  V30 10496 H 954.054 4.62531 -2.95561 0
M  V30 10497 H 954.315 4.23689 -1.26254 0
M  V30 10498 N 953.375 1.23811 0.975125 0
M  V30 10499 C 954.6 1.10109 1.75757 0
M  V30 10500 C 955.025 -0.342922 1.84948 0
M  V30 10501 O 954.383 -1.24814 1.31496 0
M  V30 10502 C 954.431 1.73724 3.15994 0
M  V30 10503 O 953.535 1.00297 4.00018 0
M  V30 10504 H 952.876 0.385627 0.540544 0
M  V30 10505 H 955.406 1.63971 1.22372 0
M  V30 10506 H 955.416 1.79178 3.6655 0
M  V30 10507 H 954.091 2.78794 3.0862 0
M  V30 10508 H 952.668 1.02575 3.58515 0
M  V30 10509 N 954.853 -1.17469 1.05066 0
M  V30 10510 C 955.803 -2.19388 0.620713 0
M  V30 10511 C 956.787 -1.5722 -0.34214 0
M  V30 10512 O 957.979 -1.76279 -0.159574 0
M  V30 10513 C 955.108 -3.433 -0.00438518 0
M  V30 10514 C 954.194 -4.12569 0.982218 0
M  V30 10515 N 954.585 -4.57683 2.15313 0
M  V30 10516 C 952.883 -4.38575 0.810416 0
M  V30 10517 C 953.584 -5.11124 2.77719 0
M  V30 10518 N 952.56 -5.0325 2.05525 0
M  V30 10519 H 956.362 -2.51971 1.51287 0
M  V30 10520 H 953.876 -1.33784 0.920625 0
M  V30 10521 H 955.873 -4.15591 -0.330161 0
M  V30 10522 H 954.533 -3.12209 -0.89195 0
M  V30 10523 H 955.544 -4.51812 2.53154 0
M  V30 10524 H 952.221 -4.17492 -0.0262078 0
M  V30 10525 H 953.611 -5.56161 3.77008 0
M  V30 10526 N 956.331 -0.831506 -1.3388 0
M  V30 10527 C 957.278 -0.257449 -2.2936 0
M  V30 10528 C 958.248 0.622604 -1.5399 0
M  V30 10529 O 959.433 0.562432 -1.82322 0
M  V30 10530 C 956.573 0.567587 -3.404 0
M  V30 10531 C 955.686 -0.335666 -4.30694 0
M  V30 10532 C 954.821 0.499762 -5.28844 0
M  V30 10533 C 953.86 -0.402343 -6.10776 0
M  V30 10534 N 952.997 0.39452 -7.00991 0
M  V30 10535 H 957.837 -1.077 -2.77857 0
M  V30 10536 H 955.374 -0.542589 -1.36727 0
M  V30 10537 H 957.332 1.06133 -4.03474 0
M  V30 10538 H 955.962 1.35217 -2.93115 0
M  V30 10539 H 955.014 -0.94768 -3.68406 0
M  V30 10540 H 956.326 -1.02896 -4.88072 0
M  V30 10541 H 955.48 1.05763 -5.9741 0
M  V30 10542 H 954.219 1.22652 -4.72025 0
M  V30 10543 H 953.224 -0.972288 -5.41135 0
M  V30 10544 H 954.449 -1.12735 -6.69677 0
M  V30 10545 H 952.395 1.1048 -6.4663 0
M  V30 10546 H 952.312 -0.240209 -7.55618 0
M  V30 10547 H 953.58 0.934867 -7.73874 0
M  V30 10548 N 957.809 1.4625 -0.587256 0
M  V30 10549 C 958.759 2.27407 0.164393 0
M  V30 10550 C 959.743 1.36138 0.857628 0
M  V30 10551 O 960.935 1.60279 0.750973 0
M  V30 10552 C 958.064 3.22585 1.17447 0
M  V30 10553 C 957.15 4.21339 0.483121 0
M  V30 10554 N 957.541 5.03669 -0.46385 0
M  V30 10555 C 955.839 4.39931 0.73329 0
M  V30 10556 C 956.54 5.75182 -0.868334 0
M  V30 10557 N 955.516 5.43169 -0.216487 0
M  V30 10558 H 959.318 2.88453 -0.563237 0
M  V30 10559 H 956.832 1.57155 -0.409388 0
M  V30 10560 H 958.829 3.79439 1.72718 0
M  V30 10561 H 957.489 2.63098 1.90288 0
M  V30 10562 H 958.5 5.11049 -0.839602 0
M  V30 10563 H 955.177 3.91588 1.44792 0
M  V30 10564 H 956.567 6.51371 -1.64821 0
M  V30 10565 N 959.287 0.325282 1.54207 0
M  V30 10566 C 960.536 -0.27768 1.99779 0
M  V30 10567 C 960.849 -1.5311 1.21723 0
M  V30 10568 O 962.055 -2.21017 1.57682 0
M  V30 10569 C 960.511 -0.545329 3.55745 0
M  V30 10570 C 960.119 0.691143 4.42637 0
M  V30 10571 C 961.863 -1.10815 4.09781 0
M  V30 10572 C 959.77 0.395302 5.90077 0
M  V30 10573 H 958.7 -0.107536 0.746292 0
M  V30 10574 H 961.351 0.437773 1.78202 0
M  V30 10575 H 959.733 -1.32101 3.73317 0
M  V30 10576 H 960.907 1.46653 4.3684 0
M  V30 10577 H 959.222 1.1743 3.99499 0
M  V30 10578 H 961.819 -1.34414 5.1753 0
M  V30 10579 H 962.162 -2.05806 3.6187 0
M  V30 10580 H 962.695 -0.393608 3.95848 0
M  V30 10581 H 959.434 1.31443 6.42186 0
M  V30 10582 H 958.954 -0.34235 5.98822 0
M  V30 10583 H 960.633 0.00576877 6.47 0
M  V30 10584 N 960.765 -1.57509 0.0534917 0
M  V30 10585 C 962.011 -1.93068 -0.62069 0
M  V30 10586 C 962.344 -0.932313 -1.70357 0
M  V30 10587 O 961.619 0.0413393 -1.94456 0
M  V30 10588 C 961.902 -3.38997 -1.21463 0
M  V30 10589 C 961.755 -4.49583 -0.13965 0
M  V30 10590 C 963.074 -3.85366 -2.12558 0
M  V30 10591 H 960.193 -0.702083 -0.224163 0
M  V30 10592 H 962.835 -1.89647 0.115729 0
M  V30 10593 H 960.985 -3.42043 -1.84226 0
M  V30 10594 H 962.657 -4.58664 0.492411 0
M  V30 10595 H 960.9 -4.30525 0.532006 0
M  V30 10596 H 961.571 -5.48781 -0.595287 0
M  V30 10597 H 964.047 -3.8421 -1.59755 0
M  V30 10598 H 962.923 -4.8812 -2.51058 0
M  V30 10599 H 963.184 -3.22256 -3.02661 0
M  V30 10600 N 962.243 0.219913 -1.56058 0
M  V30 10601 C 963.473 0.959521 -1.82967 0
M  V30 10602 C 963.881 1.78382 -0.630602 0
M  V30 10603 O 963.224 1.79062 0.410203 0
M  V30 10604 C 963.286 1.92481 -3.0363 0
M  V30 10605 C 962.95 1.28487 -4.38566 0
M  V30 10606 C 963.947 0.673946 -5.15513 0
M  V30 10607 C 961.632 1.29615 -4.85289 0
M  V30 10608 C 963.626 0.0828324 -6.37346 0
M  V30 10609 C 961.313 0.701191 -6.07064 0
M  V30 10610 C 962.311 0.0955877 -6.82933 0
M  V30 10611 O 961.999 -0.490109 -8.02405 0
M  V30 10612 H 961.731 0.286709 -0.612188 0
M  V30 10613 H 964.285 0.239761 -2.03996 0
M  V30 10614 H 962.515 2.6836 -2.78424 0
M  V30 10615 H 964.204 2.5301 -3.17397 0
M  V30 10616 H 964.97 0.657548 -4.80522 0
M  V30 10617 H 960.849 1.75691 -4.26208 0
M  V30 10618 H 964.393 -0.390482 -6.96506 0
M  V30 10619 H 960.29 0.715007 -6.41528 0
M  V30 10620 H 961.058 -0.384588 -8.17596 0
M  V30 10621 N 963.721 1.49897 0.486681 0
M  V30 10622 C 964.651 1.7054 1.59494 0
M  V30 10623 C 965.632 0.554184 1.60819 0
M  V30 10624 O 966.817 0.791617 1.77333 0
M  V30 10625 C 963.947 1.78517 2.97908 0
M  V30 10626 C 962.901 2.93571 3.11449 0
M  V30 10627 C 962.227 2.86674 4.51356 0
M  V30 10628 C 963.527 4.34308 2.90127 0
M  V30 10629 H 965.221 2.63329 1.42472 0
M  V30 10630 H 962.767 1.2672 0.683969 0
M  V30 10631 H 964.72 1.91544 3.75352 0
M  V30 10632 H 963.444 0.823381 3.16051 0
M  V30 10633 H 962.103 2.80169 2.36433 0
M  V30 10634 H 961.751 1.88373 4.66395 0
M  V30 10635 H 961.451 3.63903 4.61355 0
M  V30 10636 H 962.975 3.01728 5.30841 0
M  V30 10637 H 964.389 4.48317 3.57331 0
M  V30 10638 H 962.786 5.12869 3.11585 0
M  V30 10639 H 963.856 4.47759 1.86119 0
M  V30 10640 N 965.199 -0.738761 1.39212 0
M  V30 10641 C 966.429 -1.5258 1.39295 0
M  V30 10642 C 966.837 -1.89194 -0.0153 0
M  V30 10643 O 966.18 -1.5435 -0.996073 0
M  V30 10644 C 966.242 -2.84462 2.19822 0
M  V30 10645 C 965.906 -2.70303 3.68491 0
M  V30 10646 C 966.903 -2.39102 4.61656 0
M  V30 10647 C 964.588 -2.87291 4.1203 0
M  V30 10648 C 966.582 -2.25066 5.96342 0
M  V30 10649 C 964.269 -2.72874 5.46793 0
M  V30 10650 C 965.267 -2.41807 6.38763 0
M  V30 10651 O 964.955 -2.27475 7.71045 0
M  V30 10652 H 964.687 -0.478236 0.477772 0
M  V30 10653 H 967.241 -0.920846 1.83602 0
M  V30 10654 H 965.471 -3.47202 1.70257 0
M  V30 10655 H 967.16 -3.46058 2.12129 0
M  V30 10656 H 967.926 -2.25632 4.2932 0
M  V30 10657 H 963.805 -3.10466 3.40781 0
M  V30 10658 H 967.349 -2.00739 6.68094 0
M  V30 10659 H 963.246 -2.85922 5.78722 0
M  V30 10660 H 964.014 -2.42574 7.81729 0
M  V30 10661 N 966.677 -1.24326 -0.968545 0
M  V30 10662 C 967.925 -1.08032 -1.70803 0
M  V30 10663 C 968.246 0.381728 -1.91227 0
M  V30 10664 O 967.516 1.27253 -1.48942 0
M  V30 10665 H 966.096 -0.396777 -0.632912 0
M  V30 10666 H 968.758 -1.56232 -1.16523 0
M  V30 10667 H 967.854 -1.57769 -2.69287 0
M  V30 10668 N 968.156 1.1691 -1.05688 0
M  V30 10669 C 969.402 1.8757 -0.771071 0
M  V30 10670 C 969.735 1.8113 0.700399 0
M  V30 10671 O 969.01 1.22273 1.5126 0
M  V30 10672 C 969.293 3.37392 -1.25851 0
M  V30 10673 C 969.146 3.52556 -2.79329 0
M  V30 10674 C 970.465 4.31585 -0.861512 0
M  V30 10675 H 967.584 0.681089 -0.281579 0
M  V30 10676 H 970.226 1.37453 -1.31174 0
M  V30 10677 H 968.376 3.80204 -0.798563 0
M  V30 10678 H 970.048 3.18725 -3.33485 0
M  V30 10679 H 968.291 2.94668 -3.1836 0
M  V30 10680 H 968.962 4.57748 -3.08498 0
M  V30 10681 H 971.438 3.96642 -1.25756 0
M  V30 10682 H 970.314 5.34939 -1.23012 0
M  V30 10683 H 970.575 4.4148 0.234089 0
M  V30 10684 N 969.634 0.838594 1.33437 0
M  V30 10685 C 970.874 0.440239 1.99603 0
M  V30 10686 C 971.238 -0.982061 1.64984 0
M  V30 10687 O 972.439 -1.48413 2.24114 0
M  V30 10688 C 970.71 0.654201 3.51362 0
M  V30 10689 S 972.269 0.351025 4.37394 0
M  V30 10690 H 969.087 0.165608 0.691444 0
M  V30 10691 H 971.689 1.08782 1.6244 0
M  V30 10692 H 970.393 1.68873 3.74045 0
M  V30 10693 H 969.924 -0.00754449 3.93399 0
M  V30 10694 H 971.939 -0.829298 4.89221 0
M  V30 10695 N 971.112 -1.45937 0.595003 0
M  V30 10696 C 972.358 -2.0262 0.0854317 0
M  V30 10697 C 972.691 -1.46402 -1.27594 0
M  V30 10698 O 971.966 -0.633823 -1.83883 0
M  V30 10699 C 972.249 -3.60085 0.0329075 0
M  V30 10700 C 972.102 -4.26663 1.42405 0
M  V30 10701 C 973.421 -4.35101 -0.661426 0
M  V30 10702 H 970.54 -0.736282 0.0325196 0
M  V30 10703 H 973.182 -1.73938 0.764563 0
M  V30 10704 H 971.332 -3.84652 -0.545439 0
M  V30 10705 H 973.004 -4.13321 2.04851 0
M  V30 10706 H 971.247 -3.85549 1.98833 0
M  V30 10707 H 971.918 -5.35497 1.33965 0
M  V30 10708 H 974.394 -4.15753 -0.169977 0
M  V30 10709 H 973.27 -5.44829 -0.667243 0
M  V30 10710 H 973.531 -4.07053 -1.72513 0
M  V30 10711 N 972.59 -0.333456 -1.54032 0
M  V30 10712 C 974.006 0.0188405 -1.59589 0
M  V30 10713 C 974.206 1.49615 -1.34972 0
M  V30 10714 O 973.262 2.2535 -1.13901 0
M  V30 10715 C 974.575 -0.408273 -2.97915 0
M  V30 10716 C 976.123 -0.359763 -3.10926 0
M  V30 10717 C 976.598 -0.76219 -4.51613 0
M  V30 10718 N 978.089 -0.715981 -4.57633 0
M  V30 10719 C 978.824 -0.999436 -5.64623 0
M  V30 10720 N 978.32 -1.35053 -6.79509 0
M  V30 10721 N 980.113 -0.924343 -5.54448 0
M  V30 10722 H 972.264 -1.29587 -1.68289 0
M  V30 10723 H 974.527 -0.527584 -0.787629 0
M  V30 10724 H 974.233 -1.43793 -3.20962 0
M  V30 10725 H 974.107 0.221685 -3.76548 0
M  V30 10726 H 976.494 0.660703 -2.87609 0
M  V30 10727 H 976.575 -1.02479 -2.34375 0
M  V30 10728 H 976.219 -1.78062 -4.75664 0
M  V30 10729 H 976.149 -0.0747478 -5.26547 0
M  V30 10730 H 978.64 -0.456875 -3.75128 0
M  V30 10731 H 978.953 -1.55194 -7.57057 0
M  V30 10732 H 977.298 -1.38889 -6.80981 0
M  V30 10733 H 980.489 -0.649469 -4.63573 0
M  V30 10734 H 980.662 -1.1486 -6.37739 0
M  V30 10735 N 974.068 1.57479 -0.061844 0
M  V30 10736 C 975.345 1.84484 0.649993 0
M  V30 10737 C 975.725 0.952366 1.88396 0
M  V30 10738 O 975.073 0.0161035 2.28494 0
M  V30 10739 C 975.283 3.34452 0.997133 0
M  V30 10740 C 976.631 4.01724 1.37488 0
M  V30 10741 O 977.655 3.3914 1.08916 0
M  V30 10742 O 976.514 5.12091 1.90854 0
M  V30 10743 H 973.608 0.761798 0.321858 0
M  V30 10744 H 976.154 1.6945 -0.0920192 0
M  V30 10745 H 974.926 3.91115 0.120301 0
M  V30 10746 H 974.549 3.54713 1.79624 0
M  V30 10747 N 975.546 -0.211634 1.56173 0
M  V30 10748 C 976.792 -0.935935 1.79911 0
M  V30 10749 C 977.125 -1.83589 0.633155 0
M  V30 10750 O 976.4 -1.91004 -0.367132 0
M  V30 10751 C 976.683 -1.76638 3.13801 0
M  V30 10752 C 976.536 -0.892259 4.40861 0
M  V30 10753 C 977.855 -2.74224 3.44223 0
M  V30 10754 H 974.974 -0.338822 0.654499 0
M  V30 10755 H 977.616 -0.20422 1.88899 0
M  V30 10756 H 975.766 -2.39021 3.0627 0
M  V30 10757 H 977.438 -0.284407 4.60422 0
M  V30 10758 H 975.681 -0.198145 4.33347 0
M  V30 10759 H 976.352 -1.50793 5.31004 0
M  V30 10760 H 978.828 -2.21975 3.51946 0
M  V30 10761 H 977.704 -3.29424 4.39057 0
M  V30 10762 H 977.965 -3.52455 2.66885 0
M  V30 10763 N 977.024 -1.50153 -0.478725 0
M  V30 10764 C 977.934 -1.71232 -1.60364 0
M  V30 10765 C 978.95 -0.595269 -1.63501 0
M  V30 10766 O 980.126 -0.872683 -1.81511 0
M  V30 10767 C 977.191 -1.79487 -2.96623 0
M  V30 10768 C 976.252 -3.03185 -3.03937 0
M  V30 10769 C 975.485 -3.11036 -4.33696 0
M  V30 10770 O 975.708 -2.2588 -5.23769 0
M  V30 10771 O 974.642 -4.03698 -4.46443 0
M  V30 10772 H 978.468 -2.66575 -1.45505 0
M  V30 10773 H 976.053 -1.34158 -0.65741 0
M  V30 10774 H 977.935 -1.8714 -3.77567 0
M  V30 10775 H 976.61 -0.873264 -3.11698 0
M  V30 10776 H 975.517 -3.01036 -2.22099 0
M  V30 10777 H 976.85 -3.94898 -2.93796 0
M  V30 10778 N 978.502 0.731368 -1.39602 0
M  V30 10779 C 979.45 1.86676 -1.38761 0
M  V30 10780 C 980.444 1.6723 -0.270247 0
M  V30 10781 O 981.65 1.74528 -0.440471 0
M  V30 10782 H 978.025 0.614553 -0.433391 0
M  V30 10783 H 979.996 1.84501 -2.34525 0
M  V30 10784 C 978.745 3.24394 -1.25155 0
M  V30 10785 H 978.068 3.39955 -2.10406 0
M  V30 10786 H 979.508 4.04019 -1.28625 0
M  V30 10787 C 977.967 3.36877 0.0396976 0
M  V30 10788 O 978.497 3.88833 1.00854 0
M  V30 10789 N 976.703 2.90414 0.103965 0
M  V30 10790 H 976.25 2.48321 -0.685155 0
M  V30 10791 H 976.208 2.99146 0.967435 0
M  V30 10792 N 979.98 1.24838 0.961938 0
M  V30 10793 C 981.229 1.0855 1.69999 0
M  V30 10794 C 981.542 -0.374645 1.91979 0
M  V30 10795 O 982.748 -0.657822 2.6341 0
M  V30 10796 C 981.204 1.89424 3.06017 0
M  V30 10797 C 980.812 3.39885 2.9186 0
M  V30 10798 C 982.556 1.81684 3.83655 0
M  V30 10799 C 980.463 4.13082 4.23223 0
M  V30 10800 H 979.393 0.402603 0.637516 0
M  V30 10801 H 982.044 1.4897 1.07146 0
M  V30 10802 H 980.426 1.41823 3.69733 0
M  V30 10803 H 981.6 3.95108 2.37121 0
M  V30 10804 H 979.915 3.4864 2.27683 0
M  V30 10805 H 982.512 2.3367 4.80939 0
M  V30 10806 H 982.855 0.783247 4.08865 0
M  V30 10807 H 983.388 2.26997 3.26676 0
M  V30 10808 H 980.127 5.16824 4.03204 0
M  V30 10809 H 979.647 3.62644 4.77755 0
M  V30 10810 H 981.326 4.20397 4.91808 0
M  V30 10811 N 981.458 -1.16348 1.06306 0
M  V30 10812 C 982.391 -2.19667 0.618197 0
M  V30 10813 C 983.369 -1.58586 -0.359078 0
M  V30 10814 O 984.553 -1.86585 -0.268023 0
M  V30 10815 C 981.68 -3.3857 -0.0937091 0
M  V30 10816 C 980.726 -4.18139 0.840339 0
M  V30 10817 S 981.559 -4.81879 2.33565 0
M  V30 10818 C 982.715 -6.04161 1.63524 0
M  V30 10819 H 982.948 -2.57063 1.49352 0
M  V30 10820 H 980.481 -1.27141 0.876046 0
M  V30 10821 H 982.439 -4.07465 -0.498227 0
M  V30 10822 H 981.1 -2.9954 -0.94523 0
M  V30 10823 H 980.293 -5.03172 0.288781 0
M  V30 10824 H 979.895 -3.54739 1.18474 0
M  V30 10825 H 982.187 -6.70935 0.940904 0
M  V30 10826 H 983.13 -6.63866 2.46347 0
M  V30 10827 H 983.538 -5.53323 1.11778 0
M  V30 10828 N 982.937 -0.845659 -1.3299 0
M  V30 10829 C 984.183 -0.445311 -1.9785 0
M  V30 10830 C 984.516 0.994476 -1.66805 0
M  V30 10831 O 983.791 1.69636 -0.95151 0
M  V30 10832 C 984.074 -0.674371 -3.53729 0
M  V30 10833 C 983.927 -2.16192 -3.94437 0
M  V30 10834 C 985.246 -0.124908 -4.39923 0
M  V30 10835 H 982.365 -0.163269 -0.718688 0
M  V30 10836 H 985.007 -1.06242 -1.5752 0
M  V30 10837 H 983.157 -0.149091 -3.88214 0
M  V30 10838 H 984.829 -2.75259 -3.70176 0
M  V30 10839 H 983.072 -2.64386 -3.43922 0
M  V30 10840 H 983.743 -2.27292 -5.03033 0
M  V30 10841 H 986.219 -0.573986 -4.12122 0
M  V30 10842 H 985.095 -0.314816 -5.47996 0
M  V30 10843 H 985.356 0.971758 -4.31288 0
M  V30 10844 N 984.415 1.45619 -0.602734 0
M  V30 10845 C 985.325 2.34288 0.120902 0
M  V30 10846 C 986.341 1.50952 0.865414 0
M  V30 10847 O 987.517 1.83768 0.824094 0
M  V30 10848 C 984.582 3.28489 1.10888 0
M  V30 10849 C 983.643 4.2773 0.366853 0
M  V30 10850 C 982.876 5.17429 1.30776 0
M  V30 10851 O 983.099 5.10459 2.54535 0
M  V30 10852 O 982.033 5.96459 0.807464 0
M  V30 10853 H 985.859 2.97559 -0.60765 0
M  V30 10854 H 983.444 1.44922 -0.363019 0
M  V30 10855 H 985.326 3.86549 1.67803 0
M  V30 10856 H 984.001 2.67789 1.81854 0
M  V30 10857 H 982.908 3.73299 -0.244643 0
M  V30 10858 H 984.241 4.91271 -0.302226 0
M  V30 10859 N 985.893 0.34162 1.53853 0
M  V30 10860 C 986.803 -0.524555 2.2866 0
M  V30 10861 C 987.819 -1.1136 1.33697 0
M  V30 10862 O 988.995 -1.1297 1.66732 0
M  V30 10863 C 986.06 -1.66065 3.04341 0
M  V30 10864 C 985.121 -1.10158 4.14926 0
M  V30 10865 C 984.354 -2.18353 4.86988 0
M  V30 10866 O 984.577 -3.39038 4.58704 0
M  V30 10867 O 983.511 -1.82756 5.73484 0
M  V30 10868 H 987.337 0.0835014 3.03585 0
M  V30 10869 H 984.922 0.106727 1.49018 0
M  V30 10870 H 986.804 -2.3217 3.51674 0
M  V30 10871 H 985.479 -2.25456 2.32275 0
M  V30 10872 H 984.386 -0.405109 3.719 0
M  V30 10873 H 985.719 -0.552567 4.89088 0
M  V30 10874 N 987.371 -1.57444 0.0701946 0
M  V30 10875 C 988.618 -1.93429 -0.59929 0
M  V30 10876 C 988.946 -0.9501 -1.69715 0
M  V30 10877 O 988.201 0.0345377 -1.9567 0
M  V30 10878 C 988.5 -3.36044 -1.21694 0
M  V30 10879 C 988.166 -4.50232 -0.245374 0
M  V30 10880 C 986.828 -4.81195 0.0219161 0
M  V30 10881 C 989.18 -5.1951 0.419396 0
M  V30 10882 C 986.508 -5.78775 0.96109 0
M  V30 10883 C 988.86 -6.18095 1.34688 0
M  V30 10884 C 987.524 -6.47477 1.62265 0
M  V30 10885 H 986.794 -0.707807 -0.219296 0
M  V30 10886 H 989.441 -1.90982 0.14073 0
M  V30 10887 H 987.746 -3.34948 -2.03265 0
M  V30 10888 H 989.443 -3.61176 -1.74221 0
M  V30 10889 H 986.033 -4.26082 -0.463887 0
M  V30 10890 H 990.217 -4.95785 0.226009 0
M  V30 10891 H 985.473 -5.99865 1.18202 0
M  V30 10892 H 989.647 -6.7088 1.86795 0
M  V30 10893 H 987.274 -7.229 2.352 0
M  V30 10894 N 988.849 0.203349 -1.56283 0
M  V30 10895 C 990.095 0.926381 -1.80405 0
M  V30 10896 C 990.428 1.8325 -0.642883 0
M  V30 10897 O 989.703 1.91196 0.356998 0
M  V30 10898 C 989.986 1.74972 -3.14733 0
M  V30 10899 C 989.839 0.868866 -4.41328 0
M  V30 10900 C 991.158 2.72394 -3.45672 0
M  V30 10901 H 988.277 0.335346 -0.656286 0
M  V30 10902 H 990.919 0.1942 -1.89005 0
M  V30 10903 H 989.069 2.37394 -3.07533 0
M  V30 10904 H 990.741 0.259986 -4.60567 0
M  V30 10905 H 988.984 0.175161 -4.33446 0
M  V30 10906 H 989.655 1.47975 -5.31796 0
M  V30 10907 H 992.131 2.20105 -3.53119 0
M  V30 10908 H 991.007 3.27091 -4.40798 0
M  V30 10909 H 991.268 3.51035 -2.6875 0
M  V30 10910 N 990.327 1.50405 0.470755 0
M  V30 10911 C 991.237 1.7208 1.59454 0
M  V30 10912 C 992.253 0.603932 1.63183 0
M  V30 10913 O 993.429 0.882296 1.81046 0
M  V30 10914 C 990.494 1.81057 2.95667 0
M  V30 10915 C 989.555 3.04792 3.02324 0
M  V30 10916 C 988.788 3.13332 4.3204 0
M  V30 10917 O 989.011 2.28655 5.22564 0
M  V30 10918 O 987.945 4.0606 4.44296 0
M  V30 10919 H 991.771 2.67343 1.44089 0
M  V30 10920 H 989.356 1.34505 0.650286 0
M  V30 10921 H 991.238 1.8914 3.76569 0
M  V30 10922 H 989.913 0.889782 3.11231 0
M  V30 10923 H 988.82 3.0221 2.205 0
M  V30 10924 H 990.153 3.96451 2.91698 0
M  V30 10925 N 991.805 -0.723954 1.39988 0
M  V30 10926 C 993.053 -1.48078 1.3754 0
M  V30 10927 C 993.374 -1.94985 -0.0243358 0
M  V30 10928 O 992.644 -1.69764 -0.977602 0
M  V30 10929 H 991.224 -0.549354 0.506181 0
M  V30 10930 H 993.886 -0.858746 1.74962 0
M  V30 10931 H 992.982 -2.35763 2.04505 0
M  V30 10932 N 993.283 -1.25346 -0.955304 0
M  V30 10933 C 994.531 -1.09837 -1.69647 0
M  V30 10934 C 994.852 0.361425 -1.91621 0
M  V30 10935 O 994.122 1.25666 -1.50283 0
M  V30 10936 H 992.702 -0.403467 -0.628668 0
M  V30 10937 H 995.364 -1.57459 -1.14859 0
M  V30 10938 H 994.46 -1.60616 -2.67598 0
M  V30 10939 N 994.761 1.15782 -1.06922 0
M  V30 10940 C 996.172 1.68062 -0.813144 0
M  V30 10941 C 996.523 1.84681 0.662374 0
M  V30 10942 O 995.648 1.54696 1.51321 0
M  V30 10943 C 996.243 3.05273 -1.46949 0
M  V30 10944 C 994.802 3.54647 -1.26104 0
M  V30 10945 C 993.949 2.30477 -1.54194 0
M  V30 10946 H 996.9 1.00056 -1.23185 0
M  V30 10947 H 996.921 3.69986 -0.888308 0
M  V30 10948 H 996.433 2.93145 -2.54337 0
M  V30 10949 H 994.534 3.72024 -0.20718 0
M  V30 10950 H 994.647 4.36354 -1.97819 0
M  V30 10951 H 993.011 2.35803 -0.96276 0
M  V30 10952 H 993.794 2.2094 -2.62755 0
M  V30 10953 N 996.239 0.8527 1.3254 0
M  V30 10954 C 997.169 0.311234 2.31416 0
M  V30 10955 C 998.15 -0.588557 1.59593 0
M  V30 10956 O 999.335 -0.509211 1.87405 0
M  V30 10957 C 996.465 -0.502892 3.4364 0
M  V30 10958 C 995.419 0.302296 4.26931 0
M  V30 10959 C 994.745 -0.636445 5.30899 0
M  V30 10960 C 996.045 1.52697 4.99481 0
M  V30 10961 H 997.739 1.13742 2.76953 0
M  V30 10962 H 995.285 0.548389 1.33149 0
M  V30 10963 H 997.238 -0.892092 4.11849 0
M  V30 10964 H 995.962 -1.36242 2.96826 0
M  V30 10965 H 994.621 0.673226 3.60365 0
M  V30 10966 H 994.269 -1.49277 4.80339 0
M  V30 10967 H 993.969 -0.101716 5.87512 0
M  V30 10968 H 995.493 -1.02286 6.01972 0
M  V30 10969 H 996.907 1.21017 5.60382 0
M  V30 10970 H 995.304 1.9995 5.65809 0
M  V30 10971 H 996.374 2.28929 4.27457 0
M  V30 10972 N 997.718 -1.45297 0.610449 0
M  V30 10973 C 998.995 -1.95562 0.0386189 0
M  V30 10974 C 999.375 -1.55284 -1.43004 0
M  V30 10975 O 998.723 -0.816785 -2.13403 0
M  V30 10976 C 998.933 -3.48176 0.239731 0
M  V30 10977 C 1000.28 -4.24425 0.122035 0
M  V30 10978 O 1001.3 -3.55794 0.170003 0
M  V30 10979 O 1000.16 -5.46499 0.00953695 0
M  V30 10980 H 997.258 -0.826296 -0.0341081 0
M  V30 10981 H 999.804 -1.55449 0.68071 0
M  V30 10982 H 998.576 -3.70471 1.25963 0
M  V30 10983 H 998.199 -3.95186 -0.437486 0
M  V30 10984 N 999.196 -0.349774 -1.5367 0
M  V30 10985 C 1000.13 0.496338 -2.28164 0
M  V30 10986 C 1001.11 1.09737 -1.29968 0
M  V30 10987 O 1002.29 1.11759 -1.58819 0
M  V30 10988 C 999.422 1.64428 -3.0591 0
M  V30 10989 C 998.376 1.17127 -4.11661 0
M  V30 10990 C 997.702 2.40822 -4.77398 0
M  V30 10991 C 999.002 0.267293 -5.21616 0
M  V30 10992 H 1000.7 -0.125117 -2.99138 0
M  V30 10993 H 998.242 -0.0616152 -1.43868 0
M  V30 10994 H 1000.19 2.2427 -3.56765 0
M  V30 10995 H 998.919 2.29272 -2.32598 0
M  V30 10996 H 997.578 0.595634 -3.61729 0
M  V30 10997 H 997.226 3.04088 -4.00674 0
M  V30 10998 H 996.926 2.09852 -5.48849 0
M  V30 10999 H 998.45 3.01378 -5.3104 0
M  V30 11000 H 999.864 0.772734 -5.68068 0
M  V30 11001 H 998.261 0.0491991 -6.0008 0
M  V30 11002 H 999.331 -0.694892 -4.79895 0
M  V30 11003 N 1000.67 1.57404 -0.0785433 0
M  V30 11004 C 1001.92 1.93744 0.589024 0
M  V30 11005 C 1002.25 0.959087 1.69209 0
M  V30 11006 O 1001.5 -0.0241604 1.95685 0
M  V30 11007 C 1001.8 3.36684 1.1991 0
M  V30 11008 C 1001.47 4.50356 0.221493 0
M  V30 11009 C 1000.13 4.81177 -0.0474347 0
M  V30 11010 C 1002.48 5.1928 -0.446941 0
M  V30 11011 C 999.811 5.78257 -0.99177 0
M  V30 11012 C 1002.16 6.17372 -1.37964 0
M  V30 11013 C 1000.83 6.46607 -1.65697 0
M  V30 11014 H 1000.1 0.70896 0.215539 0
M  V30 11015 H 1002.74 1.90905 -0.150856 0
M  V30 11016 H 1001.05 3.36022 2.01486 0
M  V30 11017 H 1002.75 3.62095 1.72303 0
M  V30 11018 H 999.336 4.26322 0.441284 0
M  V30 11019 H 1003.52 4.95658 -0.252298 0
M  V30 11020 H 998.776 5.9923 -1.21381 0
M  V30 11021 H 1002.95 6.6988 -1.9035 0
M  V30 11022 H 1000.58 7.21643 -2.39031 0
M  V30 11023 N 1002.15 -0.195058 1.56388 0
M  V30 11024 C 1003.08 -1.26978 1.8961 0
M  V30 11025 C 1004.06 -1.43946 0.756199 0
M  V30 11026 O 1005.25 -1.59335 1.0072 0
M  V30 11027 C 1002.37 -2.63638 2.12632 0
M  V30 11028 C 1001.42 -2.6354 3.35334 0
M  V30 11029 S 1002.25 -2.1497 4.90457 0
M  V30 11030 C 1003.41 -3.53454 5.16547 0
M  V30 11031 H 1003.64 -0.986091 2.8047 0
M  V30 11032 H 1001.17 -0.398552 1.49167 0
M  V30 11033 H 1003.13 -3.42304 2.26579 0
M  V30 11034 H 1001.79 -2.89218 1.22522 0
M  V30 11035 H 1000.99 -3.64027 3.48569 0
M  V30 11036 H 1000.59 -1.92956 3.20381 0
M  V30 11037 H 1002.88 -4.49318 5.0707 0
M  V30 11038 H 1003.82 -3.45113 6.18306 0
M  V30 11039 H 1004.23 -3.48368 4.44185 0
M  V30 11040 N 1003.63 -1.50653 -0.462772 0
M  V30 11041 C 1004.58 -1.66509 -1.55752 0
M  V30 11042 C 1005.56 -0.519508 -1.52282 0
M  V30 11043 O 1006.76 -0.774296 -1.59166 0
M  V30 11044 C 1003.88 -1.77023 -2.94139 0
M  V30 11045 C 1002.97 -2.97284 -3.02461 0
M  V30 11046 N 1003.36 -4.20843 -2.80579 0
M  V30 11047 C 1001.66 -2.96014 -3.33604 0
M  V30 11048 C 1002.36 -5.01886 -2.94084 0
M  V30 11049 N 1001.34 -4.3601 -3.24648 0
M  V30 11050 H 1005.14 -2.59727 -1.37546 0
M  V30 11051 H 1002.65 -1.47951 -0.669653 0
M  V30 11052 H 1004.65 -1.86488 -3.72864 0
M  V30 11053 H 1003.31 -0.849688 -3.13385 0
M  V30 11054 H 1004.32 -4.50206 -2.55998 0
M  V30 11055 H 1001 -2.13493 -3.58786 0
M  V30 11056 H 1002.39 -6.10164 -2.81334 0
M  V30 11057 N 1005.11 0.71652 -1.4037 0
M  V30 11058 C 1006.52 1.02447 -1.22379 0
M  V30 11059 C 1006.72 2.0126 -0.0983394 0
M  V30 11060 O 1005.78 2.46569 0.544071 0
M  V30 11061 C 1007.09 1.56909 -2.56515 0
M  V30 11062 C 1008.64 1.68898 -2.6352 0
M  V30 11063 C 1009.12 2.26765 -3.97922 0
M  V30 11064 N 1010.61 2.34152 -3.99658 0
M  V30 11065 C 1011.34 2.79907 -5.00439 0
M  V30 11066 N 1010.84 3.25422 -6.11615 0
M  V30 11067 N 1012.63 2.79283 -4.87809 0
M  V30 11068 H 1004.78 0.0615306 -2.12311 0
M  V30 11069 H 1007.05 0.0898994 -0.943728 0
M  V30 11070 H 1006.75 0.917649 -3.39517 0
M  V30 11071 H 1006.63 2.55446 -2.77538 0
M  V30 11072 H 1009.01 2.33159 -1.8089 0
M  V30 11073 H 1009.09 0.689626 -2.46329 0
M  V30 11074 H 1008.74 1.63126 -4.80991 0
M  V30 11075 H 1008.67 3.27413 -4.12442 0
M  V30 11076 H 1011.16 2.02006 -3.19378 0
M  V30 11077 H 1011.47 3.58899 -6.84406 0
M  V30 11078 H 1009.82 3.23383 -6.15181 0
M  V30 11079 H 1013.01 2.43061 -4.00049 0
M  V30 11080 H 1013.18 3.14626 -5.66493 0
M  V30 11081 N 1006.59 1.25851 0.948643 0
M  V30 11082 C 1007.53 1.06759 2.04625 0
M  V30 11083 C 1008.5 -0.0251144 1.66081 0
M  V30 11084 O 1009.69 0.133221 1.90334 0
M  V30 11085 C 1006.83 0.698724 3.37952 0
M  V30 11086 C 1005.94 1.8669 3.89578 0
M  V30 11087 C 1005.08 1.44184 5.11258 0
M  V30 11088 C 1004.12 2.57878 5.55126 0
M  V30 11089 N 1003.25 2.16106 6.68014 0
M  V30 11090 H 1008.09 2.00691 2.20289 0
M  V30 11091 H 1005.63 0.999327 1.07944 0
M  V30 11092 H 1007.59 0.465788 4.14592 0
M  V30 11093 H 1006.22 -0.203618 3.22157 0
M  V30 11094 H 1005.27 2.21298 3.09405 0
M  V30 11095 H 1006.58 2.72051 4.18079 0
M  V30 11096 H 1005.74 1.16891 5.95333 0
M  V30 11097 H 1004.47 0.559035 4.84485 0
M  V30 11098 H 1003.48 2.85909 4.69612 0
M  V30 11099 H 1004.7 3.46747 5.83904 0
M  V30 11100 H 1002.65 1.3025 6.42939 0
M  V30 11101 H 1002.57 2.95012 6.96063 0
M  V30 11102 H 1003.84 1.92005 7.55483 0
M  V30 11103 N 1008.06 -1.15214 1.07534 0
M  V30 11104 C 1009.29 -1.90463 0.820883 0
M  V30 11105 C 1009.71 -1.77578 -0.620305 0
M  V30 11106 O 1009.07 -1.10976 -1.43366 0
M  V30 11107 C 1009.12 -3.38746 1.23627 0
M  V30 11108 O 1008.22 -4.1062 0.382715 0
M  V30 11109 H 1007.57 -0.59292 0.298901 0
M  V30 11110 H 1010.1 -1.45893 1.43445 0
M  V30 11111 H 1010.11 -3.89543 1.21327 0
M  V30 11112 H 1008.78 -3.47443 2.28596 0
M  V30 11113 H 1007.36 -3.69947 0.468374 0
M  V30 11114 N 1009.54 -0.859717 -1.32086 0
M  V30 11115 C 1010.82 -0.386665 -1.9174 0
M  V30 11116 C 1011.2 1.13028 -1.78292 0
M  V30 11117 O 1010.55 1.95422 -1.18417 0
M  V30 11118 C 1010.76 -0.856648 -3.38323 0
M  V30 11119 C 1012.11 -0.87678 -4.15449 0
M  V30 11120 O 1013.13 -0.80162 -3.47063 0
M  V30 11121 O 1011.99 -0.98373 -5.37573 0
M  V30 11122 H 1009.08 -0.113758 -0.819139 0
M  V30 11123 H 1011.63 -0.946952 -1.40822 0
M  V30 11124 H 1010.4 -1.89996 -3.42078 0
M  V30 11125 H 1010.02 -0.274095 -3.96654 0
M  V30 11126 N 1011.02 1.44971 -0.618145 0
M  V30 11127 C 1012.27 2.02458 -0.117656 0
M  V30 11128 C 1012.6 1.48413 1.25248 0
M  V30 11129 O 1011.87 0.662997 1.82851 0
M  V30 11130 C 1012.16 3.59987 -0.0901897 0
M  V30 11131 C 1012.01 4.24343 -1.49175 0
M  V30 11132 C 1013.33 4.36099 0.592121 0
M  V30 11133 H 1010.45 0.735672 -0.0442291 0
M  V30 11134 H 1013.09 1.727 -0.792138 0
M  V30 11135 H 1011.24 3.85471 0.484175 0
M  V30 11136 H 1012.91 4.10009 -2.114 0
M  V30 11137 H 1011.16 3.82337 -2.04941 0
M  V30 11138 H 1011.83 5.33298 -1.42468 0
M  V30 11139 H 1014.3 4.1597 0.103813 0
M  V30 11140 H 1013.18 5.45822 0.580481 0
M  V30 11141 H 1013.44 4.09746 1.66015 0
M  V30 11142 N 1012.5 0.357919 1.53482 0
M  V30 11143 C 1013.43 -0.484231 2.28424 0
M  V30 11144 C 1014.41 -1.09046 1.30548 0
M  V30 11145 O 1015.59 -1.10916 1.59409 0
M  V30 11146 C 1012.72 -1.62803 3.06778 0
M  V30 11147 C 1011.68 -1.14943 4.12277 0
M  V30 11148 C 1011 -2.38287 4.78669 0
M  V30 11149 C 1012.3 -0.239627 5.2175 0
M  V30 11150 H 1014 0.140979 2.99068 0
M  V30 11151 H 1011.54 0.069244 1.43833 0
M  V30 11152 H 1013.5 -2.22374 3.57949 0
M  V30 11153 H 1012.22 -2.28036 2.3381 0
M  V30 11154 H 1010.88 -0.576442 3.6204 0
M  V30 11155 H 1010.53 -3.01959 4.02281 0
M  V30 11156 H 1010.23 -2.06939 5.49955 0
M  V30 11157 H 1011.75 -2.98558 5.32631 0
M  V30 11158 H 1013.17 -0.742597 5.6847 0
M  V30 11159 H 1011.56 -0.0173747 6.00097 0
M  V30 11160 H 1012.63 0.720333 4.7952 0
M  V30 11161 N 1013.98 -1.5736 0.0868897 0
M  V30 11162 C 1015.2 -1.98388 -0.587349 0
M  V30 11163 C 1015.62 -0.965757 -1.6223 0
M  V30 11164 O 1014.98 0.0456981 -1.82443 0
M  V30 11165 C 1015.03 -3.39479 -1.24242 0
M  V30 11166 O 1014.75 -4.37393 -0.248878 0
M  V30 11167 C 1016.25 -3.95465 -2.00305 0
M  V30 11168 H 1013.47 -0.652111 -0.15809 0
M  V30 11169 H 1016.01 -2.03843 0.163754 0
M  V30 11170 H 1014.17 -3.35063 -1.94451 0
M  V30 11171 H 1014.58 -5.19525 -0.720678 0
M  V30 11172 H 1016.06 -4.96363 -2.41511 0
M  V30 11173 H 1016.53 -3.32832 -2.86565 0
M  V30 11174 H 1017.14 -4.03328 -1.34931 0
M  V30 11175 N 1015.45 0.186762 -1.56489 0
M  V30 11176 C 1016.68 0.921832 -1.85229 0
M  V30 11177 C 1017.1 1.76496 -0.670416 0
M  V30 11178 O 1016.45 1.78899 0.360758 0
M  V30 11179 C 1016.51 1.81121 -3.12854 0
M  V30 11180 O 1016.23 1.00211 -4.26485 0
M  V30 11181 C 1017.73 2.65725 -3.54831 0
M  V30 11182 H 1014.95 0.268563 -0.61491 0
M  V30 11183 H 1017.49 0.191505 -2.03601 0
M  V30 11184 H 1015.65 2.49506 -2.96354 0
M  V30 11185 H 1016.06 1.60893 -4.99213 0
M  V30 11186 H 1017.53 3.23771 -4.47075 0
M  V30 11187 H 1018.01 3.39843 -2.78215 0
M  V30 11188 H 1018.62 2.02698 -3.7389 0
M  V30 11189 N 1016.93 1.50896 0.454776 0
M  V30 11190 C 1018.34 1.55372 1.0352 0
M  V30 11191 C 1018.69 0.366822 1.9274 0
M  V30 11192 O 1017.82 -0.518444 2.10098 0
M  V30 11193 C 1018.41 2.81574 1.88418 0
M  V30 11194 C 1016.97 2.88679 2.4154 0
M  V30 11195 C 1016.12 2.49847 1.20298 0
M  V30 11196 H 1019.07 1.56924 0.236729 0
M  V30 11197 H 1019.09 2.64352 2.73676 0
M  V30 11198 H 1018.6 3.67941 1.23455 0
M  V30 11199 H 1016.71 2.06702 3.10008 0
M  V30 11200 H 1016.82 3.91944 2.7553 0
M  V30 11201 H 1015.18 2.02651 1.54288 0
M  V30 11202 H 1015.97 3.3854 0.569723 0
M  V30 11203 N 1018.41 -0.709066 1.40748 0
M  V30 11204 C 1019.66 -1.46993 1.40587 0
M  V30 11205 C 1020.01 -1.92397 0.00986301 0
M  V30 11206 O 1019.3 -1.65712 -0.961772 0
M  V30 11207 C 1019.5 -2.70543 2.33541 0
M  V30 11208 C 1019.33 -2.37222 3.82041 0
M  V30 11209 C 1018.1 -2.28244 4.50813 0
M  V30 11210 C 1020.3 -2.01069 4.73367 0
M  V30 11211 N 1018.28 -1.87667 5.84512 0
M  V30 11212 C 1019.65 -1.71144 5.95911 0
M  V30 11213 C 1021.7 -1.87761 4.6114 0
M  V30 11214 C 1020.41 -1.2925 7.07592 0
M  V30 11215 C 1022.43 -1.47271 5.7277 0
M  V30 11216 C 1021.79 -1.18249 6.94404 0
M  V30 11217 H 1017.89 -0.535708 0.569685 0
M  V30 11218 H 1020.48 -0.821669 1.76513 0
M  V30 11219 H 1018.65 -3.33109 1.99733 0
M  V30 11220 H 1020.38 -3.36927 2.24192 0
M  V30 11221 H 1017.14 -2.46199 4.04578 0
M  V30 11222 H 1017.56 -1.69899 6.55335 0
M  V30 11223 H 1022.2 -2.08858 3.67611 0
M  V30 11224 H 1019.92 -1.06896 8.00999 0
M  V30 11225 H 1023.51 -1.37544 5.65308 0
M  V30 11226 H 1022.39 -0.873897 7.79316 0
M  V30 11227 N 1019.89 -1.26353 -0.941956 0
M  V30 11228 C 1020.84 -1.07842 -2.04056 0
M  V30 11229 C 1021.81 0.0163064 -1.66092 0
M  V30 11230 O 1022.99 -0.143313 -1.90261 0
M  V30 11231 C 1020.13 -0.716636 -3.37577 0
M  V30 11232 C 1019.24 -1.88754 -3.88582 0
M  V30 11233 C 1018.38 -1.46893 -5.10486 0
M  V30 11234 C 1017.42 -2.60819 -5.53751 0
M  V30 11235 N 1016.56 -2.19646 -6.66858 0
M  V30 11236 H 1021.4 -2.01856 -2.19221 0
M  V30 11237 H 1018.93 -1.00504 -1.07412 0
M  V30 11238 H 1020.89 -0.487768 -4.14339 0
M  V30 11239 H 1019.52 0.18653 -3.22261 0
M  V30 11240 H 1018.57 -2.22936 -3.08227 0
M  V30 11241 H 1019.88 -2.74264 -4.1663 0
M  V30 11242 H 1019.04 -1.20047 -5.94705 0
M  V30 11243 H 1017.78 -0.584721 -4.84182 0
M  V30 11244 H 1016.78 -2.88396 -4.6809 0
M  V30 11245 H 1018.01 -3.49838 -5.82057 0
M  V30 11246 H 1015.95 -1.33657 -6.4224 0
M  V30 11247 H 1015.87 -2.987 -6.94489 0
M  V30 11248 H 1017.14 -1.96009 -7.54454 0
M  V30 11249 N 1021.37 1.14642 -1.08144 0
M  V30 11250 C 1022.61 1.85617 -0.809484 0
M  V30 11251 C 1022.94 1.8279 0.664672 0
M  V30 11252 O 1022.2 1.25178 1.50429 0
M  V30 11253 C 1022.5 3.33953 -1.2732 0
M  V30 11254 C 1022.16 3.56969 -2.7547 0
M  V30 11255 C 1020.82 3.6296 -3.15933 0
M  V30 11256 C 1023.18 3.66014 -3.71057 0
M  V30 11257 C 1020.5 3.75515 -4.50783 0
M  V30 11258 C 1022.86 3.80094 -5.05679 0
M  V30 11259 C 1021.52 3.84333 -5.45751 0
M  V30 11260 H 1020.79 0.67922 -0.296211 0
M  V30 11261 H 1023.44 1.35433 -1.35389 0
M  V30 11262 H 1021.74 3.86399 -0.648329 0
M  V30 11263 H 1023.44 3.87291 -1.03957 0
M  V30 11264 H 1020.03 3.52953 -2.4315 0
M  V30 11265 H 1024.21 3.60679 -3.40917 0
M  V30 11266 H 1019.47 3.77057 -4.81288 0
M  V30 11267 H 1023.64 3.86035 -5.79612 0
M  V30 11268 H 1021.27 3.93814 -6.50242 0
M  V30 11269 N 1022.85 0.866709 1.31628 0
M  V30 11270 C 1023.79 0.318169 2.28596 0
M  V30 11271 C 1024.76 -0.581558 1.55586 0
M  V30 11272 O 1025.95 -0.513895 1.83749 0
M  V30 11273 C 1023.09 -0.477137 3.41786 0
M  V30 11274 C 1022.2 0.449739 4.29653 0
M  V30 11275 C 1021.34 -0.359373 5.29983 0
M  V30 11276 C 1020.37 0.564138 6.09495 0
M  V30 11277 N 1019.51 -0.208526 7.0179 0
M  V30 11278 H 1024.35 1.15029 2.74904 0
M  V30 11279 H 1021.89 0.578649 1.35241 0
M  V30 11280 H 1023.85 -0.953985 4.06146 0
M  V30 11281 H 1022.48 -1.27398 2.96597 0
M  V30 11282 H 1021.53 1.04502 3.65764 0
M  V30 11283 H 1022.84 1.158 4.85172 0
M  V30 11284 H 1021.99 -0.89887 6.00004 0
M  V30 11285 H 1020.73 -1.10094 4.75111 0
M  V30 11286 H 1019.74 1.11542 5.38366 0
M  V30 11287 H 1020.96 1.30451 6.66453 0
M  V30 11288 H 1018.91 -0.932969 6.49332 0
M  V30 11289 H 1018.83 0.440463 7.54716 0
M  V30 11290 H 1020.09 -0.72936 7.7608 0
M  V30 11291 N 1024.32 -1.44642 0.625825 0
M  V30 11292 C 1025.57 -2.02393 0.128391 0
M  V30 11293 C 1025.9 -1.49075 -1.2446 0
M  V30 11294 O 1025.18 -0.672684 -1.82497 0
M  V30 11295 C 1025.46 -3.59934 0.109279 0
M  V30 11296 C 1025.31 -4.23546 1.51423 0
M  V30 11297 C 1026.63 -4.36406 -0.568985 0
M  V30 11298 H 1023.75 -0.735427 0.0481299 0
M  V30 11299 H 1026.39 -1.72277 0.801286 0
M  V30 11300 H 1024.54 -3.85722 -0.463726 0
M  V30 11301 H 1026.22 -4.08882 2.13572 0
M  V30 11302 H 1024.46 -3.81245 2.06966 0
M  V30 11303 H 1025.13 -5.32535 1.45294 0
M  V30 11304 H 1027.61 -4.1602 -0.0817516 0
M  V30 11305 H 1026.48 -5.46122 -0.551527 0
M  V30 11306 H 1026.74 -4.1062 -1.6384 0
M  V30 11307 N 1025.8 -0.366053 -1.5329 0
M  V30 11308 C 1026.76 0.467904 -2.24373 0
M  V30 11309 C 1027.76 1.00934 -1.25176 0
M  V30 11310 O 1028.95 0.895015 -1.49449 0
M  V30 11311 C 1026.09 1.65405 -2.98084 0
M  V30 11312 H 1027.28 -0.154105 -2.99504 0
M  V30 11313 H 1024.83 -0.117751 -1.55856 0
M  V30 11314 H 1025.57 2.31413 -2.27197 0
M  V30 11315 H 1025.35 1.27277 -3.70868 0
M  V30 11316 H 1026.84 2.24503 -3.52119 0
M  V30 11317 N 1027.28 1.57312 -0.0952337 0
M  V30 11318 C 1028.23 2.14032 0.863657 0
M  V30 11319 C 1029.2 1.0589 1.27971 0
M  V30 11320 O 1030.38 1.33678 1.36143 0
M  V30 11321 C 1027.52 2.72513 2.11733 0
M  V30 11322 C 1026.63 3.94887 1.7518 0
M  V30 11323 C 1025.77 4.41533 2.95334 0
M  V30 11324 C 1024.81 5.56496 2.54908 0
M  V30 11325 N 1023.95 5.97993 3.67897 0
M  V30 11326 H 1028.79 2.95655 0.373115 0
M  V30 11327 H 1026.32 1.46085 0.172497 0
M  V30 11328 H 1028.28 3.04539 2.85153 0
M  V30 11329 H 1026.91 1.93618 2.58287 0
M  V30 11330 H 1025.96 3.69175 0.917279 0
M  V30 11331 H 1027.27 4.78322 1.41455 0
M  V30 11332 H 1026.43 4.75343 3.77007 0
M  V30 11333 H 1025.17 3.56999 3.3227 0
M  V30 11334 H 1024.17 5.22314 1.71662 0
M  V30 11335 H 1025.4 6.42779 2.19117 0
M  V30 11336 H 1023.34 5.16405 4.04551 0
M  V30 11337 H 1023.26 6.76225 3.38018 0
M  V30 11338 H 1024.53 6.36434 4.5008 0
M  V30 11339 N 1028.76 -0.17846 1.56586 0
M  V30 11340 C 1029.69 -1.24547 1.92408 0
M  V30 11341 C 1030.7 -1.40849 0.816421 0
M  V30 11342 O 1031.89 -1.40979 1.09486 0
M  V30 11343 C 1028.99 -2.61523 2.15544 0
M  V30 11344 C 1028.16 -2.66613 3.46751 0
M  V30 11345 C 1027.22 -3.84901 3.588 0
M  V30 11346 O 1026.25 -3.71231 4.31482 0
M  V30 11347 N 1027.45 -5.0106 2.9312 0
M  V30 11348 H 1030.22 -0.941275 2.84535 0
M  V30 11349 H 1027.78 -0.368275 1.57656 0
M  V30 11350 H 1029.77 -3.3911 2.20876 0
M  V30 11351 H 1028.34 -2.84362 1.29835 0
M  V30 11352 H 1027.56 -1.75174 3.5314 0
M  V30 11353 H 1028.85 -2.67018 4.33104 0
M  V30 11354 H 1028.25 -5.15067 2.33928 0
M  V30 11355 H 1026.8 -5.76535 3.04057 0
M  V30 11356 N 1030.24 -1.51135 -0.446768 0
M  V30 11357 C 1031.17 -1.74709 -1.54916 0
M  V30 11358 C 1032.15 -0.596628 -1.59293 0
M  V30 11359 O 1033.33 -0.838356 -1.75172 0
M  V30 11360 C 1030.46 -1.86353 -2.9307 0
M  V30 11361 C 1029.42 -3.01725 -3.03556 0
M  V30 11362 C 1028.74 -2.9854 -4.43597 0
M  V30 11363 C 1030.04 -4.41848 -2.7851 0
M  V30 11364 H 1031.74 -2.67014 -1.3544 0
M  V30 11365 H 1029.28 -1.28489 -0.650131 0
M  V30 11366 H 1031.23 -2.01428 -3.70141 0
M  V30 11367 H 1029.96 -0.906887 -3.13756 0
M  V30 11368 H 1028.62 -2.86339 -2.28922 0
M  V30 11369 H 1028.27 -2.00673 -4.61237 0
M  V30 11370 H 1027.97 -3.76008 -4.51544 0
M  V30 11371 H 1029.49 -3.15696 -5.22655 0
M  V30 11372 H 1030.9 -4.57633 -3.45319 0
M  V30 11373 H 1029.3 -5.2095 -2.97877 0
M  V30 11374 H 1030.37 -4.52536 -1.74182 0
M  V30 11375 N 1031.71 0.701592 -1.41122 0
M  V30 11376 C 1032.68 1.79733 -1.42227 0
M  V30 11377 C 1033.68 1.57708 -0.313831 0
M  V30 11378 O 1034.87 1.64492 -0.573423 0
M  V30 11379 C 1032 3.18024 -1.22775 0
M  V30 11380 H 1033.19 1.80148 -2.39764 0
M  V30 11381 H 1030.74 0.908624 -1.27176 0
M  V30 11382 H 1031.48 3.23252 -0.260552 0
M  V30 11383 H 1031.26 3.35411 -2.0308 0
M  V30 11384 H 1032.75 3.98021 -1.2637 0
M  V30 11385 N 1033.19 1.2685 0.935242 0
M  V30 11386 C 1034.42 1.15645 1.72165 0
M  V30 11387 C 1034.84 -0.283909 1.85945 0
M  V30 11388 O 1034.2 -1.20567 1.354 0
M  V30 11389 C 1034.25 1.83689 3.10307 0
M  V30 11390 O 1033.35 1.12972 3.96625 0
M  V30 11391 H 1032.69 0.402629 0.528002 0
M  V30 11392 H 1035.22 1.67781 1.17093 0
M  V30 11393 H 1035.23 1.90749 3.60664 0
M  V30 11394 H 1033.91 2.88472 2.99595 0
M  V30 11395 H 1032.48 1.13929 3.5507 0
M  V30 11396 N 1034.67 -1.14067 1.0875 0
M  V30 11397 C 1035.63 -2.17453 0.724341 0
M  V30 11398 C 1036.63 -1.58959 -0.242614 0
M  V30 11399 O 1037.82 -1.74186 -0.0217008 0
M  V30 11400 C 1034.96 -3.40828 0.0700236 0
M  V30 11401 H 1036.15 -2.51094 1.63987 0
M  V30 11402 H 1033.7 -1.28775 0.885813 0
M  V30 11403 H 1034.44 -3.1277 -0.857061 0
M  V30 11404 H 1034.22 -3.84551 0.76569 0
M  V30 11405 H 1035.71 -4.17258 -0.168905 0
M  V30 11406 N 1036.15 -0.873678 -1.31166 0
M  V30 11407 C 1037.08 -0.348011 -2.30892 0
M  V30 11408 C 1038.06 0.563092 -1.60509 0
M  V30 11409 O 1039.24 0.479332 -1.88192 0
M  V30 11410 C 1036.37 0.448158 -3.44396 0
M  V30 11411 C 1035.33 -0.370179 -4.26396 0
M  V30 11412 C 1034.65 0.551903 -5.31844 0
M  V30 11413 C 1035.95 -1.60624 -4.96988 0
M  V30 11414 H 1037.65 -1.18134 -2.75109 0
M  V30 11415 H 1035.19 -0.569502 -1.3226 0
M  V30 11416 H 1037.15 0.826458 -4.13216 0
M  V30 11417 H 1035.87 1.31503 -2.98956 0
M  V30 11418 H 1034.53 -0.730472 -3.59249 0
M  V30 11419 H 1034.18 1.41616 -4.82653 0
M  V30 11420 H 1033.88 0.00823478 -5.87599 0
M  V30 11421 H 1035.4 0.926965 -6.03523 0
M  V30 11422 H 1036.82 -1.29917 -5.58386 0
M  V30 11423 H 1035.21 -2.08926 -5.62557 0
M  V30 11424 H 1036.28 -2.357 -4.23761 0
M  V30 11425 N 1037.63 1.44308 -0.633487 0
M  V30 11426 C 1038.85 2.06897 -0.144347 0
M  V30 11427 C 1039.28 1.47045 1.173 0
M  V30 11428 O 1038.63 0.572806 1.72013 0
M  V30 11429 C 1038.68 3.60571 -0.0456324 0
M  V30 11430 O 1037.79 4.0015 0.997682 0
M  V30 11431 H 1037.13 0.658427 -0.0858499 0
M  V30 11432 H 1039.66 1.85142 -0.870833 0
M  V30 11433 H 1039.67 4.07745 0.144178 0
M  V30 11434 H 1038.34 4.03515 -1.0074 0
M  V30 11435 H 1036.92 3.64603 0.782252 0
M  V30 11436 N 1039.1 0.374177 1.53094 0
M  V30 11437 C 1040.33 -0.213015 2.05499 0
M  V30 11438 C 1040.74 -1.42303 1.24686 0
M  V30 11439 O 1040.09 -1.81512 0.282702 0
M  V30 11440 C 1040.15 -0.662308 3.53346 0
M  V30 11441 C 1039.81 0.432183 4.54952 0
M  V30 11442 C 1040.81 1.2848 5.03775 0
M  V30 11443 C 1038.49 0.594887 4.98765 0
M  V30 11444 C 1040.49 2.28538 5.9502 0
M  V30 11445 C 1038.17 1.59882 5.89814 0
M  V30 11446 C 1039.17 2.4425 6.37833 0
M  V30 11447 O 1038.86 3.4293 7.27086 0
M  V30 11448 H 1038.59 -0.0393809 0.674852 0
M  V30 11449 H 1041.15 0.533423 1.98353 0
M  V30 11450 H 1039.38 -1.46049 3.5806 0
M  V30 11451 H 1041.07 -1.17347 3.88567 0
M  V30 11452 H 1041.83 1.17033 4.70668 0
M  V30 11453 H 1037.71 -0.0520401 4.60971 0
M  V30 11454 H 1041.25 2.94426 6.32423 0
M  V30 11455 H 1037.15 1.71373 6.22335 0
M  V30 11456 H 1037.92 3.3876 7.45107 0
M  V30 11457 N 1040.58 -1.57259 0.103575 0
M  V30 11458 C 1041.51 -2.17509 -0.84923 0
M  V30 11459 C 1042.49 -1.11079 -1.28824 0
M  V30 11460 O 1043.68 -1.39252 -1.35361 0
M  V30 11461 C 1040.81 -2.76221 -2.10522 0
M  V30 11462 C 1039.76 -3.88098 -1.80454 0
M  V30 11463 C 1039.09 -4.33549 -3.12952 0
M  V30 11464 C 1040.39 -5.10909 -1.08486 0
M  V30 11465 H 1042.08 -2.9738 -0.347217 0
M  V30 11466 H 1039.63 -1.43045 -0.165568 0
M  V30 11467 H 1041.58 -3.17024 -2.77621 0
M  V30 11468 H 1040.31 -1.93617 -2.63021 0
M  V30 11469 H 1038.96 -3.47847 -1.15749 0
M  V30 11470 H 1038.61 -3.47825 -3.63355 0
M  V30 11471 H 1038.31 -5.08984 -2.93614 0
M  V30 11472 H 1039.84 -4.76992 -3.81196 0
M  V30 11473 H 1041.25 -5.48828 -1.65711 0
M  V30 11474 H 1039.65 -5.91828 -0.992973 0
M  V30 11475 H 1040.72 -4.84851 -0.0690108 0
M  V30 11476 N 1042.06 0.170153 -1.56679 0
M  V30 11477 C 1042.97 1.23057 -1.99735 0
M  V30 11478 C 1043.99 1.48374 -0.908912 0
M  V30 11479 O 1045.16 1.60499 -1.21663 0
M  V30 11480 C 1042.23 2.54944 -2.34956 0
M  V30 11481 C 1041.29 2.3748 -3.57634 0
M  V30 11482 C 1040.52 3.63078 -3.91165 0
M  V30 11483 O 1040.74 4.68304 -3.2565 0
M  V30 11484 O 1039.68 3.57119 -4.8451 0
M  V30 11485 H 1043.5 0.895104 -2.9021 0
M  V30 11486 H 1041.09 0.377109 -1.44562 0
M  V30 11487 H 1042.97 3.32742 -2.58574 0
M  V30 11488 H 1041.65 2.88068 -1.47643 0
M  V30 11489 H 1040.55 1.57709 -3.39232 0
M  V30 11490 H 1041.89 2.0928 -4.45491 0
M  V30 11491 N 1043.54 1.5137 0.438746 0
M  V30 11492 C 1044.82 1.54508 1.19944 0
M  V30 11493 C 1045.2 0.308525 2.08833 0
M  V30 11494 O 1044.54 -0.706461 2.17305 0
M  V30 11495 C 1044.75 2.85833 2.00251 0
M  V30 11496 C 1046.1 3.37729 2.5734 0
M  V30 11497 O 1047.13 2.87374 2.10463 0
M  V30 11498 O 1045.98 4.25589 3.42836 0
M  V30 11499 H 1043.08 0.621132 0.546007 0
M  V30 11500 H 1045.62 1.63682 0.447931 0
M  V30 11501 H 1044.4 3.67291 1.34955 0
M  V30 11502 H 1044.02 2.79815 2.8247 0
M  V30 11503 N 1045.02 -0.694098 1.41492 0
M  V30 11504 C 1045.96 -1.80801 1.43456 0
M  V30 11505 C 1046.93 -1.63571 0.288757 0
M  V30 11506 O 1048.12 -1.844 0.490017 0
M  V30 11507 C 1045.26 -3.18694 1.32394 0
M  V30 11508 C 1044.37 -3.47346 2.56855 0
M  V30 11509 C 1043.51 -4.74862 2.38075 0
M  V30 11510 C 1042.55 -4.96486 3.58005 0
M  V30 11511 N 1041.68 -6.15229 3.38287 0
M  V30 11512 H 1046.52 -1.78457 2.38657 0
M  V30 11513 H 1044.06 -0.871455 1.18508 0
M  V30 11514 H 1046.02 -3.98352 1.23982 0
M  V30 11515 H 1044.65 -3.20211 0.407999 0
M  V30 11516 H 1043.7 -2.62083 2.75711 0
M  V30 11517 H 1045.01 -3.59226 3.4606 0
M  V30 11518 H 1044.17 -5.62577 2.27139 0
M  V30 11519 H 1042.9 -4.6523 1.46329 0
M  V30 11520 H 1041.91 -4.07219 3.69395 0
M  V30 11521 H 1043.13 -5.07976 4.50708 0
M  V30 11522 H 1041.08 -6.06807 2.49242 0
M  V30 11523 H 1041 -6.27883 4.21069 0
M  V30 11524 H 1042.27 -7.05674 3.31126 0
M  V30 11525 N 1046.49 -1.27344 -0.928501 0
M  V30 11526 C 1047.77 -1.04362 -1.65433 0
M  V30 11527 C 1048.15 0.421896 -2.06841 0
M  V30 11528 O 1047.5 1.40496 -1.80203 0
M  V30 11529 C 1047.71 -2.00442 -2.85699 0
M  V30 11530 C 1049.06 -2.29767 -3.57061 0
M  V30 11531 O 1050.08 -1.98409 -2.95825 0
M  V30 11532 O 1048.94 -2.83217 -4.67387 0
M  V30 11533 H 1046.03 -0.397783 -0.72505 0
M  V30 11534 H 1048.58 -1.38606 -0.979109 0
M  V30 11535 H 1047.35 -2.99281 -2.52085 0
M  V30 11536 H 1046.98 -1.66755 -3.60941 0
M  V30 11537 N 1047.97 1.13488 -1.09353 0
M  V30 11538 C 1048.9 2.20988 -0.75409 0
M  V30 11539 C 1049.88 1.67977 0.267901 0
M  V30 11540 O 1051.07 1.93722 0.136128 0
M  V30 11541 C 1048.2 3.46869 -0.173042 0
M  V30 11542 C 1047.15 4.12965 -1.12446 0
M  V30 11543 C 1046.48 5.33163 -0.405157 0
M  V30 11544 C 1047.78 4.60388 -2.46658 0
M  V30 11545 H 1049.47 2.49639 -1.6529 0
M  V30 11546 H 1047.02 1.19987 -0.796182 0
M  V30 11547 H 1048.97 4.21331 0.0764988 0
M  V30 11548 H 1047.7 3.17611 0.760956 0
M  V30 11549 H 1046.35 3.40469 -1.35927 0
M  V30 11550 H 1046 5.00169 0.532955 0
M  V30 11551 H 1045.7 5.78332 -1.03952 0
M  V30 11552 H 1047.23 6.1038 -0.163899 0
M  V30 11553 H 1048.64 5.26276 -2.27389 0
M  V30 11554 H 1047.04 5.16294 -3.05876 0
M  V30 11555 H 1048.11 3.74949 -3.07476 0
M  V30 11556 N 1049.45 0.880621 1.30701 0
M  V30 11557 C 1050.7 0.497611 1.966 0
M  V30 11558 C 1051.03 -0.949901 1.69383 0
M  V30 11559 O 1050.31 -1.67054 0.996152 0
M  V30 11560 C 1050.59 0.767919 3.51817 0
M  V30 11561 C 1050.44 2.26574 3.88567 0
M  V30 11562 C 1051.76 0.241502 4.39437 0
M  V30 11563 H 1048.88 0.182267 0.714106 0
M  V30 11564 H 1051.52 1.10382 1.54648 0
M  V30 11565 H 1049.67 0.251967 3.87682 0
M  V30 11566 H 1051.34 2.84977 3.62748 0
M  V30 11567 H 1049.59 2.73411 3.36792 0
M  V30 11568 H 1050.26 2.40549 4.9683 0
M  V30 11569 H 1052.73 0.683051 4.10455 0
M  V30 11570 H 1051.61 0.459997 5.46969 0
M  V30 11571 H 1051.87 -0.857068 4.33713 0
M  V30 11572 N 1050.93 -1.4397 0.641131 0
M  V30 11573 C 1051.88 -2.2786 -0.079879 0
M  V30 11574 C 1052.86 -1.39227 -0.80651 0
M  V30 11575 O 1054.06 -1.62956 -0.690969 0
M  V30 11576 C 1051.18 -3.26722 -1.05394 0
M  V30 11577 C 1050.27 -4.22842 -0.326411 0
M  V30 11578 N 1050.66 -5.016 0.650464 0
M  V30 11579 C 1048.96 -4.42349 -0.569507 0
M  V30 11580 C 1049.66 -5.71563 1.08121 0
M  V30 11581 N 1048.64 -5.41991 0.417932 0
M  V30 11582 H 1052.44 -2.86163 0.669906 0
M  V30 11583 H 1049.95 -1.55528 0.467433 0
M  V30 11584 H 1051.95 -3.85588 -1.58517 0
M  V30 11585 H 1050.61 -2.69979 -1.80392 0
M  V30 11586 H 1051.62 -5.07581 1.0287 0
M  V30 11587 H 1048.3 -3.96693 -1.30159 0
M  V30 11588 H 1049.69 -6.44805 1.88883 0
M  V30 11589 N 1052.41 -0.382291 -1.52893 0
M  V30 11590 C 1053.66 0.201734 -2.01091 0
M  V30 11591 C 1053.98 1.47905 -1.2708 0
M  V30 11592 O 1053.25 1.92002 -0.38883 0
M  V30 11593 H 1051.83 0.0775373 -0.742965 0
M  V30 11594 H 1054.49 -0.512369 -1.88045 0
M  V30 11595 H 1053.58 0.416919 -3.09303 0
M  V30 11596 N 1053.89 1.57202 -0.111913 0
M  V30 11597 C 1054.83 2.16186 0.858286 0
M  V30 11598 C 1055.83 1.10917 1.28039 0
M  V30 11599 O 1057.03 1.29233 1.25295 0
M  V30 11600 H 1053.41 0.691777 0.29487 0
M  V30 11601 H 1055.38 2.96499 0.336265 0
M  V30 11602 C 1054.13 2.77024 2.10127 0
M  V30 11603 H 1053.45 3.5772 1.78539 0
M  V30 11604 H 1054.89 3.21841 2.76033 0
M  V30 11605 C 1053.35 1.73752 2.88638 0
M  V30 11606 O 1053.88 1.18659 3.83774 0
M  V30 11607 N 1052.09 1.43855 2.52496 0
M  V30 11608 H 1051.63 1.88846 1.75199 0
M  V30 11609 H 1051.59 0.749985 3.05324 0
M  V30 11610 N 1055.36 -0.161842 1.56767 0
M  V30 11611 C 1056.61 -0.878224 1.82798 0
M  V30 11612 C 1056.94 -1.81481 0.691242 0
M  V30 11613 O 1056.22 -1.92075 -0.30618 0
M  V30 11614 C 1056.5 -1.66565 3.19262 0
M  V30 11615 C 1056.35 -0.751551 4.43477 0
M  V30 11616 C 1057.67 -2.63134 3.52773 0
M  V30 11617 H 1054.79 -0.317828 0.664947 0
M  V30 11618 H 1057.43 -0.14402 1.89453 0
M  V30 11619 H 1055.58 -2.29157 3.13719 0
M  V30 11620 H 1057.26 -0.137783 4.61094 0
M  V30 11621 H 1055.5 -0.0601785 4.33758 0
M  V30 11622 H 1056.17 -1.33823 5.35533 0
M  V30 11623 H 1058.65 -2.10666 3.5883 0
M  V30 11624 H 1057.52 -3.15289 4.49315 0
M  V30 11625 H 1057.78 -3.43786 2.77963 0
M  V30 11626 N 1056.84 -1.516 -0.430713 0
M  V30 11627 C 1058.08 -1.6626 -1.18899 0
M  V30 11628 C 1058.45 -0.373877 -1.88325 0
M  V30 11629 O 1059.65 -0.39632 -2.65862 0
M  V30 11630 C 1057.92 -2.83693 -2.17378 0
M  V30 11631 S 1059.48 -3.18717 -3.01604 0
M  V30 11632 H 1056.29 -0.585681 -0.403112 0
M  V30 11633 H 1058.9 -1.89528 -0.479538 0
M  V30 11634 H 1057.6 -3.75759 -1.65025 0
M  V30 11635 H 1057.13 -2.62634 -2.92894 0
M  V30 11636 H 1059.15 -2.65665 -4.1909 0
M  V30 11637 N 1058.32 0.686584 -1.41858 0
M  V30 11638 C 1059.55 1.47519 -1.45072 0
M  V30 11639 C 1059.96 1.88709 -0.0585868 0
M  V30 11640 O 1059.32 1.57373 0.924116 0
M  V30 11641 C 1059.37 2.73195 -2.36742 0
M  V30 11642 O 1059.09 2.33736 -3.70539 0
M  V30 11643 C 1060.59 3.66861 -2.48854 0
M  V30 11644 H 1057.81 0.454307 -0.493808 0
M  V30 11645 H 1060.36 0.844612 -1.86243 0
M  V30 11646 H 1058.51 3.32468 -1.98856 0
M  V30 11647 H 1058.93 3.14809 -4.19518 0
M  V30 11648 H 1060.4 4.51801 -3.17143 0
M  V30 11649 H 1060.88 4.11961 -1.52265 0
M  V30 11650 H 1061.48 3.13486 -2.87414 0
M  V30 11651 N 1059.8 1.27835 0.921735 0
M  V30 11652 C 1060.74 1.11075 2.02314 0
M  V30 11653 C 1061.71 0.0101195 1.66097 0
M  V30 11654 O 1062.9 0.173564 1.90009 0
M  V30 11655 C 1060.04 0.770251 3.36394 0
M  V30 11656 C 1059.15 1.94912 3.8553 0
M  V30 11657 C 1058.29 1.54996 5.08084 0
M  V30 11658 C 1057.33 2.69595 5.49531 0
M  V30 11659 N 1056.46 2.30227 6.6328 0
M  V30 11660 H 1061.3 2.05319 2.15982 0
M  V30 11661 H 1058.84 1.022 1.058 0
M  V30 11662 H 1060.8 0.553624 4.1351 0
M  V30 11663 H 1059.43 -0.135238 3.22517 0
M  V30 11664 H 1058.48 2.27811 3.04641 0
M  V30 11665 H 1059.79 2.80858 4.12214 0
M  V30 11666 H 1058.95 1.29493 5.9272 0
M  V30 11667 H 1057.69 0.661676 4.83191 0
M  V30 11668 H 1056.69 2.95806 4.63442 0
M  V30 11669 H 1057.92 3.59054 5.76417 0
M  V30 11670 H 1055.86 1.43858 6.40032 0
M  V30 11671 H 1055.78 3.09711 6.89649 0
M  V30 11672 H 1057.05 2.07987 7.5124 0
M  V30 11673 N 1061.28 -1.12907 1.09954 0
M  V30 11674 C 1062.22 -2.20561 0.73863 0
M  V30 11675 C 1063.22 -1.67347 -0.262944 0
M  V30 11676 O 1064.42 -1.79574 -0.123834 0
M  V30 11677 H 1060.8 -0.718823 0.220901 0
M  V30 11678 H 1062.77 -2.4826 1.65559 0
M  V30 11679 C 1061.52 -3.47227 0.181239 0
M  V30 11680 H 1060.84 -3.88516 0.943144 0
M  V30 11681 H 1062.28 -4.23987 -0.0332888 0
M  V30 11682 C 1060.74 -3.18956 -1.08485 0
M  V30 11683 O 1061.27 -3.38224 -2.1672 0
M  V30 11684 N 1059.48 -2.72797 -1.00151 0
M  V30 11685 H 1059.02 -2.57317 -0.120645 0
M  V30 11686 H 1058.98 -2.54256 -1.84935 0
M  V30 11687 N 1062.75 -0.88754 -1.30232 0
M  V30 11688 C 1063.68 -0.372481 -2.3051 0
M  V30 11689 C 1064.66 0.546037 -1.61098 0
M  V30 11690 O 1065.85 0.459345 -1.88689 0
M  V30 11691 C 1062.98 0.411605 -3.44852 0
M  V30 11692 C 1061.93 -0.415383 -4.2598 0
M  V30 11693 C 1061.26 0.495463 -5.324 0
M  V30 11694 C 1062.56 -1.65886 -4.95257 0
M  V30 11695 H 1064.25 -1.21045 -2.7384 0
M  V30 11696 H 1061.8 -0.583498 -1.31648 0
M  V30 11697 H 1063.75 0.782584 -4.1407 0
M  V30 11698 H 1062.48 1.28325 -3.00334 0
M  V30 11699 H 1061.14 -0.768534 -3.58454 0
M  V30 11700 H 1060.78 1.36489 -4.84128 0
M  V30 11701 H 1060.48 -0.0540885 -5.87575 0
M  V30 11702 H 1062.01 0.862901 -6.04472 0
M  V30 11703 H 1063.42 -1.35832 -5.56976 0
M  V30 11704 H 1061.82 -2.14881 -5.60309 0
M  V30 11705 H 1062.89 -2.40181 -4.21237 0
M  V30 11706 N 1064.23 1.43628 -0.648757 0
M  V30 11707 C 1065.16 2.33478 0.0320785 0
M  V30 11708 C 1066.14 1.49217 0.816605 0
M  V30 11709 O 1067.33 1.77892 0.778974 0
M  V30 11710 C 1064.46 3.32525 1.00222 0
M  V30 11711 C 1063.41 4.2674 0.328119 0
M  V30 11712 C 1062.74 5.15791 1.4094 0
M  V30 11713 C 1064.04 5.16493 -0.776701 0
M  V30 11714 H 1065.73 2.90657 -0.718257 0
M  V30 11715 H 1063.28 1.3976 -0.346852 0
M  V30 11716 H 1065.23 3.94277 1.4874 0
M  V30 11717 H 1063.96 2.73593 1.78366 0
M  V30 11718 H 1062.61 3.66346 -0.136569 0
M  V30 11719 H 1062.26 4.53201 2.18216 0
M  V30 11720 H 1061.96 5.79645 0.963631 0
M  V30 11721 H 1063.49 5.80416 1.89603 0
M  V30 11722 H 1064.9 5.7208 -0.373878 0
M  V30 11723 H 1063.3 5.89043 -1.14667 0
M  V30 11724 H 1064.37 4.56448 -1.63654 0
M  V30 11725 N 1065.71 0.390394 1.52688 0
M  V30 11726 C 1066.64 -0.43567 2.294 0
M  V30 11727 C 1067.62 -1.06253 1.32832 0
M  V30 11728 O 1068.81 -1.07509 1.61726 0
M  V30 11729 C 1065.94 -1.56259 3.10162 0
M  V30 11730 C 1064.89 -1.06172 4.14622 0
M  V30 11731 C 1064.22 -2.2808 4.83615 0
M  V30 11732 C 1065.52 -0.128902 5.22141 0
M  V30 11733 H 1067.21 0.204384 2.98702 0
M  V30 11734 H 1064.76 0.0997377 1.43654 0
M  V30 11735 H 1066.71 -2.14732 3.62585 0
M  V30 11736 H 1065.43 -2.23025 2.38595 0
M  V30 11737 H 1064.09 -0.499518 3.63181 0
M  V30 11738 H 1063.74 -2.93358 4.08595 0
M  V30 11739 H 1063.44 -1.95227 5.5422 0
M  V30 11740 H 1064.96 -2.87193 5.38844 0
M  V30 11741 H 1066.38 -0.621849 5.69917 0
M  V30 11742 H 1064.78 0.109919 5.99999 0
M  V30 11743 H 1065.85 0.821884 4.77884 0
M  V30 11744 N 1067.19 -1.57141 0.120249 0
M  V30 11745 C 1068.15 -2.14213 -0.815185 0
M  V30 11746 C 1069.15 -1.07731 -1.19376 0
M  V30 11747 O 1070.34 -1.33502 -1.11906 0
M  V30 11748 C 1067.47 -2.68339 -2.10255 0
M  V30 11749 H 1068.67 -2.98197 -0.319166 0
M  V30 11750 H 1066.22 -1.55767 -0.128997 0
M  V30 11751 H 1066.95 -1.87946 -2.64285 0
M  V30 11752 H 1066.74 -3.46216 -1.84057 0
M  V30 11753 H 1068.23 -3.124 -2.77121 0
M  V30 11754 N 1068.67 0.153526 -1.5685 0
M  V30 11755 C 1070.08 0.505939 -1.51368 0
M  V30 11756 C 1070.28 1.83721 -0.82757 0
M  V30 11757 O 1069.34 2.49385 -0.395364 0
M  V30 11758 C 1070.65 0.522269 -2.9613 0
M  V30 11759 C 1072.2 0.608238 -3.07033 0
M  V30 11760 C 1072.67 0.655292 -4.53288 0
M  V30 11761 N 1074.17 0.717695 -4.57606 0
M  V30 11762 C 1074.9 0.774977 -5.68139 0
M  V30 11763 N 1074.4 0.792003 -6.88258 0
M  V30 11764 N 1076.19 0.81536 -5.56155 0
M  V30 11765 H 1068.34 -0.71919 -1.99853 0
M  V30 11766 H 1070.6 -0.261466 -0.91123 0
M  V30 11767 H 1070.31 -0.387595 -3.49558 0
M  V30 11768 H 1070.18 1.3625 -3.51733 0
M  V30 11769 H 1072.57 1.50852 -2.53629 0
M  V30 11770 H 1072.65 -0.259014 -2.54485 0
M  V30 11771 H 1072.3 -0.240809 -5.07329 0
M  V30 11772 H 1072.23 1.53894 -5.03611 0
M  V30 11773 H 1074.72 0.7121 -3.7113 0
M  V30 11774 H 1075.03 0.837378 -7.6825 0
M  V30 11775 H 1073.37 0.759986 -6.90832 0
M  V30 11776 H 1076.57 0.799183 -4.61227 0
M  V30 11777 H 1076.74 0.856537 -6.42314 0
M  V30 11778 N 1070.14 1.51827 0.422667 0
M  V30 11779 C 1071.05 1.77066 1.53899 0
M  V30 11780 C 1072.07 0.655541 1.61179 0
M  V30 11781 O 1073.25 0.939448 1.78147 0
M  V30 11782 C 1070.31 1.90372 2.89758 0
M  V30 11783 C 1069.37 3.14256 2.92475 0
M  V30 11784 C 1068.61 3.26918 4.21853 0
M  V30 11785 O 1068.83 2.45164 5.15025 0
M  V30 11786 O 1067.76 4.19989 4.31153 0
M  V30 11787 H 1071.59 2.71791 1.35511 0
M  V30 11788 H 1069.17 1.36506 0.607165 0
M  V30 11789 H 1071.06 2.01024 3.70361 0
M  V30 11790 H 1069.73 0.988347 3.08242 0
M  V30 11791 H 1068.64 3.09072 2.10773 0
M  V30 11792 H 1069.97 4.0553 2.78937 0
M  V30 11793 N 1071.62 -0.679052 1.4222 0
M  V30 11794 C 1072.87 -1.43627 1.42182 0
M  V30 11795 C 1073.19 -1.94964 0.0377095 0
M  V30 11796 O 1072.46 -1.72788 -0.923098 0
M  V30 11797 H 1071.04 -0.532972 0.523402 0
M  V30 11798 H 1073.7 -0.802649 1.77605 0
M  V30 11799 H 1072.8 -2.29137 2.11902 0
M  V30 11800 N 1073.1 -1.28322 -0.914942 0
M  V30 11801 C 1074.35 -1.14785 -1.65853 0
M  V30 11802 C 1074.66 0.303135 -1.93237 0
M  V30 11803 O 1075.87 0.559606 -2.6567 0
M  V30 11804 C 1074.32 -2.00652 -2.98776 0
M  V30 11805 C 1073.93 -3.50483 -2.79044 0
M  V30 11806 C 1075.68 -1.95798 -3.76648 0
M  V30 11807 C 1073.58 -4.28505 -4.076 0
M  V30 11808 H 1072.51 -0.425987 -0.622135 0
M  V30 11809 H 1075.16 -1.52844 -1.01543 0
M  V30 11810 H 1073.55 -1.55447 -3.64214 0
M  V30 11811 H 1074.72 -4.03636 -2.22293 0
M  V30 11812 H 1073.04 -3.5685 -2.14586 0
M  V30 11813 H 1075.63 -2.51359 -4.71935 0
M  V30 11814 H 1075.98 -0.934455 -4.05677 0
M  V30 11815 H 1076.51 -2.38965 -3.18026 0
M  V30 11816 H 1073.25 -5.31433 -3.83744 0
M  V30 11817 H 1072.77 -3.80125 -4.63966 0
M  V30 11818 H 1074.45 -4.3836 -4.75867 0
M  V30 11819 N 1074.58 1.12322 -1.10551 0
M  V30 11820 C 1075.86 1.80201 -0.760715 0
M  V30 11821 C 1076.24 1.97228 0.752628 0
M  V30 11822 O 1075.58 1.54958 1.67929 0
M  V30 11823 C 1075.79 3.14491 -1.51316 0
M  V30 11824 C 1077.14 3.89671 -1.68647 0
M  V30 11825 O 1078.17 3.24151 -1.47664 0
M  V30 11826 O 1077.02 5.0722 -2.03445 0
M  V30 11827 H 1074.12 0.780084 -0.274587 0
M  V30 11828 H 1076.66 1.19147 -1.20839 0
M  V30 11829 H 1075.44 2.97396 -2.54306 0
M  V30 11830 H 1075.06 3.83253 -1.05842 0
M  V30 11831 N 1076.06 0.894434 1.2976 0
M  V30 11832 C 1077.28 0.5322 2.00455 0
M  V30 11833 C 1077.71 -0.874427 1.66539 0
M  V30 11834 O 1077.06 -1.58113 0.887129 0
M  V30 11835 C 1077.11 0.725264 3.53231 0
M  V30 11836 O 1076.22 -0.224612 4.11788 0
M  V30 11837 H 1075.56 0.208562 0.630395 0
M  V30 11838 H 1078.09 1.20458 1.65382 0
M  V30 11839 H 1078.1 0.627889 4.0314 0
M  V30 11840 H 1076.77 1.75079 3.77253 0
M  V30 11841 H 1075.35 -0.0801361 3.72814 0
M  V30 11842 N 1077.53 -1.43282 0.656365 0
M  V30 11843 C 1078.44 -2.34576 -0.033864 0
M  V30 11844 C 1079.46 -1.5406 -0.808793 0
M  V30 11845 O 1080.64 -1.867 -0.755322 0
M  V30 11846 C 1077.7 -3.32378 -0.986197 0
M  V30 11847 C 1076.76 -4.28797 -0.207851 0
M  V30 11848 C 1076 -5.21927 -1.11482 0
M  V30 11849 O 1076.22 -5.19554 -2.35414 0
M  V30 11850 O 1075.15 -5.99045 -0.585536 0
M  V30 11851 H 1078.98 -2.95099 0.717668 0
M  V30 11852 H 1076.56 -1.43475 0.416556 0
M  V30 11853 H 1078.45 -3.9251 -1.53341 0
M  V30 11854 H 1077.12 -2.74354 -1.7179 0
M  V30 11855 H 1076.03 -3.72134 0.383022 0
M  V30 11856 H 1077.36 -4.89811 0.48435 0
M  V30 11857 N 1079.01 -0.398486 -1.52479 0
M  V30 11858 C 1080.25 0.180412 -2.03602 0
M  V30 11859 C 1080.62 1.43276 -1.27812 0
M  V30 11860 O 1081.82 2.08941 -1.69107 0
M  V30 11861 C 1080.09 0.432744 -3.5477 0
M  V30 11862 S 1081.65 0.980612 -4.27703 0
M  V30 11863 H 1078.47 0.0499981 -0.70924 0
M  V30 11864 H 1081.07 -0.548952 -1.87635 0
M  V30 11865 H 1079.77 -0.48568 -4.07516 0
M  V30 11866 H 1079.3 1.19028 -3.74961 0
M  V30 11867 H 1081.32 2.26216 -4.41634 0
M  V30 11868 N 1080.49 1.57075 -0.12858 0
M  V30 11869 C 1081.74 1.95134 0.526046 0
M  V30 11870 C 1082.06 1.01337 1.66601 0
M  V30 11871 O 1081.33 0.0714361 1.9577 0
M  V30 11872 H 1079.91 0.720468 0.19732 0
M  V30 11873 H 1082.57 1.93874 -0.199767 0
M  V30 11874 H 1081.67 2.98406 0.914332 0
M  V30 11875 N 1081.97 -0.145205 1.5693 0
M  V30 11876 C 1083.38 -0.705089 1.72874 0
M  V30 11877 C 1083.73 -1.81577 0.743261 0
M  V30 11878 O 1082.86 -2.16214 -0.0897153 0
M  V30 11879 C 1083.45 -1.28578 3.13454 0
M  V30 11880 C 1082.01 -1.79221 3.30994 0
M  V30 11881 C 1081.16 -0.681392 2.68798 0
M  V30 11882 H 1084.11 0.0804798 1.58496 0
M  V30 11883 H 1084.13 -2.15558 3.13552 0
M  V30 11884 H 1083.64 -0.477186 3.85155 0
M  V30 11885 H 1081.74 -2.62642 2.64292 0
M  V30 11886 H 1081.86 -1.91969 4.38959 0
M  V30 11887 H 1080.22 -1.10847 2.29314 0
M  V30 11888 H 1081 0.115786 3.43105 0
M  V30 11889 N 1083.45 -1.52049 -0.414609 0
M  V30 11890 C 1084.69 -1.65838 -1.16206 0
M  V30 11891 C 1085.02 -0.385623 -1.90639 0
M  V30 11892 O 1084.28 0.631214 -1.85241 0
M  V30 11893 C 1084.58 -2.82735 -2.18622 0
M  V30 11894 C 1084.24 -4.21163 -1.61037 0
M  V30 11895 C 1082.9 -4.58816 -1.45056 0
M  V30 11896 C 1085.26 -5.0745 -1.18928 0
M  V30 11897 C 1082.58 -5.8044 -0.854761 0
M  V30 11898 C 1084.94 -6.29674 -0.607686 0
M  V30 11899 C 1083.6 -6.66081 -0.434968 0
M  V30 11900 H 1082.87 -0.606845 -0.425229 0
M  V30 11901 H 1085.52 -1.86137 -0.450009 0
M  V30 11902 H 1083.82 -2.56749 -2.95952 0
M  V30 11903 H 1085.52 -2.90601 -2.76319 0
M  V30 11904 H 1082.11 -3.91488 -1.74457 0
M  V30 11905 H 1086.29 -4.78948 -1.30086 0
M  V30 11906 H 1081.55 -6.07276 -0.70891 0
M  V30 11907 H 1085.72 -6.95865 -0.272988 0
M  V30 11908 H 1083.35 -7.60195 0.0288116 0
M  V30 11909 N 1084.93 0.6715 -1.42579 0
M  V30 11910 C 1086.17 1.42731 -1.42516 0
M  V30 11911 C 1086.49 1.95545 -0.0462407 0
M  V30 11912 O 1087.69 2.71391 0.0769798 0
M  V30 11913 C 1086.15 2.58215 -2.50705 0
M  V30 11914 C 1085.76 2.12086 -3.94618 0
M  V30 11915 C 1087.5 3.35705 -2.59813 0
M  V30 11916 C 1085.41 3.24672 -4.9431 0
M  V30 11917 H 1084.34 0.536218 -0.530081 0
M  V30 11918 H 1086.99 0.726655 -1.68499 0
M  V30 11919 H 1085.37 3.30665 -2.17892 0
M  V30 11920 H 1086.55 1.46768 -4.36802 0
M  V30 11921 H 1084.86 1.47526 -3.89391 0
M  V30 11922 H 1087.46 4.1956 -3.31472 0
M  V30 11923 H 1087.8 3.82517 -1.64276 0
M  V30 11924 H 1088.33 2.70326 -2.91836 0
M  V30 11925 H 1085.07 2.82848 -5.91335 0
M  V30 11926 H 1084.59 3.88761 -4.56755 0
M  V30 11927 H 1086.27 3.90088 -5.16179 0
M  V30 11928 N 1086.4 1.28806 0.908124 0
M  V30 11929 C 1087.35 1.13215 2.01125 0
M  V30 11930 C 1088.32 0.0277357 1.66077 0
M  V30 11931 O 1089.51 0.193707 1.89814 0
M  V30 11932 C 1086.65 0.805887 3.35558 0
M  V30 11933 C 1085.76 1.9899 3.83441 0
M  V30 11934 C 1084.89 1.60376 5.06412 0
M  V30 11935 C 1083.93 2.75409 5.46641 0
M  V30 11936 N 1083.07 2.37249 6.60801 0
M  V30 11937 H 1087.91 2.07598 2.13792 0
M  V30 11938 H 1085.45 1.03316 1.0471 0
M  V30 11939 H 1087.4 0.597451 4.129 0
M  V30 11940 H 1086.03 -0.101023 3.22642 0
M  V30 11941 H 1085.09 2.31029 3.02208 0
M  V30 11942 H 1086.4 2.85214 4.09212 0
M  V30 11943 H 1085.55 1.35772 5.91313 0
M  V30 11944 H 1084.29 0.712888 4.82462 0
M  V30 11945 H 1083.3 3.00705 4.60279 0
M  V30 11946 H 1084.52 3.65148 5.72577 0
M  V30 11947 H 1082.47 1.50638 6.3847 0
M  V30 11948 H 1082.38 3.17008 6.86325 0
M  V30 11949 H 1083.65 2.15943 7.48992 0
M  V30 11950 N 1087.88 -1.11734 1.11145 0
M  V30 11951 C 1088.81 -2.1976 0.789152 0
M  V30 11952 C 1089.79 -1.68382 -0.241143 0
M  V30 11953 O 1090.98 -1.93914 -0.105292 0
M  V30 11954 C 1088.11 -3.46549 0.228204 0
M  V30 11955 C 1087.06 -4.11123 1.19002 0
M  V30 11956 C 1086.39 -5.32451 0.489928 0
M  V30 11957 C 1087.69 -4.56406 2.53951 0
M  V30 11958 H 1089.38 -2.46978 1.69241 0
M  V30 11959 H 1086.93 -1.18705 0.81517 0
M  V30 11960 H 1088.88 -4.21399 -0.00945908 0
M  V30 11961 H 1087.6 -3.18782 -0.71033 0
M  V30 11962 H 1086.26 -3.38264 1.41326 0
M  V30 11963 H 1085.91 -5.00953 -0.453315 0
M  V30 11964 H 1085.61 -5.76605 1.1314 0
M  V30 11965 H 1087.14 -6.10042 0.260984 0
M  V30 11966 H 1088.55 -5.22592 2.35733 0
M  V30 11967 H 1086.95 -5.11363 3.14051 0
M  V30 11968 H 1088.02 -3.7001 3.13402 0
M  V30 11969 N 1089.36 -0.901303 -1.29284 0
M  V30 11970 C 1090.58 -0.542823 -2.0017 0
M  V30 11971 C 1091.01 0.865583 -1.67001 0
M  V30 11972 O 1090.37 1.5764 -0.895502 0
M  V30 11973 C 1090.42 -0.743987 -3.52842 0
M  V30 11974 O 1089.52 0.202771 -4.11901 0
M  V30 11975 H 1088.86 -0.211903 -0.62928 0
M  V30 11976 H 1091.39 -1.21333 -1.64741 0
M  V30 11977 H 1091.4 -0.64926 -4.02801 0
M  V30 11978 H 1090.08 -1.77077 -3.7632 0
M  V30 11979 H 1088.65 0.0603637 -3.72851 0
M  V30 11980 N 1090.84 1.42931 -0.663954 0
M  V30 11981 C 1092.11 1.95284 -0.111174 0
M  V30 11982 C 1092.49 1.60484 1.37142 0
M  V30 11983 O 1091.84 0.895425 2.10225 0
M  V30 11984 C 1092.05 3.47046 -0.368789 0
M  V30 11985 C 1093.4 4.23679 -0.279473 0
M  V30 11986 O 1094.42 3.54918 -0.301937 0
M  V30 11987 O 1093.28 5.46087 -0.21236 0
M  V30 11988 H 1090.38 0.826993 0.00341718 0
M  V30 11989 H 1092.92 1.52816 -0.737935 0
M  V30 11990 H 1091.7 3.65541 -1.39626 0
M  V30 11991 H 1091.32 3.96537 0.290514 0
M  V30 11992 N 1092.32 0.406567 1.52266 0
M  V30 11993 C 1093.73 -0.063607 1.86592 0
M  V30 11994 C 1094.08 -1.4466 1.32544 0
M  V30 11995 O 1093.2 -2.05971 0.663692 0
M  V30 11996 C 1093.8 -0.122198 3.3858 0
M  V30 11997 C 1092.36 -0.536701 3.72554 0
M  V30 11998 C 1091.5 0.290422 2.75775 0
M  V30 11999 H 1094.45 0.623738 1.45929 0
M  V30 12000 H 1094.48 -0.937964 3.68758 0
M  V30 12001 H 1093.99 0.884495 3.77887 0
M  V30 12002 H 1092.09 -1.55013 3.38824 0
M  V30 12003 H 1092.2 -0.282867 4.78264 0
M  V30 12004 H 1090.57 -0.246864 2.53501 0
M  V30 12005 H 1091.35 1.29541 3.17921 0
M  V30 12006 N 1093.79 -1.57004 0.136909 0
M  V30 12007 C 1095.04 -1.9541 -0.51569 0
M  V30 12008 C 1095.36 -1.02219 -1.66061 0
M  V30 12009 O 1094.63 -0.0818172 -1.95729 0
M  V30 12010 H 1093.21 -0.721504 -0.193497 0
M  V30 12011 H 1095.88 -1.93765 0.210046 0
M  V30 12012 H 1094.97 -2.98887 -0.898494 0
M  V30 12013 N 1095.27 0.136881 -1.57004 0
M  V30 12014 C 1096.52 0.846257 -1.83088 0
M  V30 12015 C 1096.83 1.81876 -0.719765 0
M  V30 12016 O 1098.04 2.57302 -0.866494 0
M  V30 12017 C 1096.5 1.55559 -3.24545 0
M  V30 12018 C 1096.1 0.624989 -4.43619 0
M  V30 12019 C 1097.85 2.25115 -3.59893 0
M  V30 12020 C 1095.76 1.33653 -5.761 0
M  V30 12021 H 1094.69 0.319768 -0.682836 0
M  V30 12022 H 1097.34 0.0989741 -1.83233 0
M  V30 12023 H 1095.72 2.34887 -3.18817 0
M  V30 12024 H 1096.89 -0.133783 -4.60606 0
M  V30 12025 H 1095.21 0.0373216 -4.16383 0
M  V30 12026 H 1097.8 2.79008 -4.56134 0
M  V30 12027 H 1098.15 3.02084 -2.86446 0
M  V30 12028 H 1098.68 1.52696 -3.67327 0
M  V30 12029 H 1095.42 0.608495 -6.5267 0
M  V30 12030 H 1094.94 2.06776 -5.63031 0
M  V30 12031 H 1096.62 1.87467 -6.19246 0
M  V30 12032 N 1096.75 1.52266 0.40654 0
M  V30 12033 C 1098.16 1.58587 0.985241 0
M  V30 12034 C 1098.51 0.427955 1.91476 0
M  V30 12035 O 1097.64 -0.451341 2.11641 0
M  V30 12036 C 1098.23 2.87426 1.79365 0
M  V30 12037 C 1096.79 2.96217 2.32233 0
M  V30 12038 C 1095.94 2.53548 1.12288 0
M  V30 12039 H 1098.89 1.57598 0.186685 0
M  V30 12040 H 1098.91 2.72925 2.65127 0
M  V30 12041 H 1098.42 3.71682 1.11687 0
M  V30 12042 H 1096.52 2.1646 3.03275 0
M  V30 12043 H 1096.64 4.00511 2.62922 0
M  V30 12044 H 1095 2.07457 1.47763 0
M  V30 12045 H 1095.78 3.40181 0.461731 0
M  V30 12046 N 1098.23 -0.663929 1.42933 0
M  V30 12047 C 1099.48 -1.41973 1.43271 0
M  V30 12048 C 1099.79 -1.95518 0.0566103 0
M  V30 12049 O 1101 -2.71428 -0.0625862 0
M  V30 12050 C 1099.45 -2.56882 2.52071 0
M  V30 12051 C 1099.06 -2.0999 3.95737 0
M  V30 12052 C 1100.8 -3.34322 2.61589 0
M  V30 12053 C 1098.71 -3.22046 4.96025 0
M  V30 12054 H 1097.64 -0.5334 0.532917 0
M  V30 12055 H 1100.29 -0.717709 1.68882 0
M  V30 12056 H 1098.67 -3.29504 2.19643 0
M  V30 12057 H 1099.85 -1.44449 4.37574 0
M  V30 12058 H 1098.16 -1.45459 3.90168 0
M  V30 12059 H 1100.76 -4.17796 3.33692 0
M  V30 12060 H 1101.1 -3.8164 1.66302 0
M  V30 12061 H 1101.64 -2.68775 2.93266 0
M  V30 12062 H 1098.38 -2.79708 5.92827 0
M  V30 12063 H 1097.9 -3.86333 4.5881 0
M  V30 12064 H 1099.57 -3.87345 5.1824 0
M  V30 12065 N 1099.71 -1.29285 -0.901281 0
M  V30 12066 C 1100.93 -1.20048 -1.68511 0
M  V30 12067 C 1101.35 0.239128 -1.8728 0
M  V30 12068 O 1100.71 1.16027 -1.40869 0
M  V30 12069 C 1100.76 -1.90798 -3.07048 0
M  V30 12070 O 1100.48 -3.29137 -2.89138 0
M  V30 12071 C 1101.98 -1.88017 -4.01453 0
M  V30 12072 H 1099.2 -0.416157 -0.52636 0
M  V30 12073 H 1101.74 -1.7063 -1.12719 0
M  V30 12074 H 1099.9 -1.44055 -3.5962 0
M  V30 12075 H 1100.31 -3.64747 -3.76908 0
M  V30 12076 H 1101.79 -2.42088 -4.96082 0
M  V30 12077 H 1102.26 -0.855341 -4.30791 0
M  V30 12078 H 1102.87 -2.34497 -3.54812 0
M  V30 12079 N 1101.18 1.11143 -1.11736 0
M  V30 12080 C 1102.43 1.83219 -0.869413 0
M  V30 12081 C 1102.76 1.84588 0.603402 0
M  V30 12082 O 1102.04 1.30119 1.44566 0
M  V30 12083 C 1102.32 3.30247 -1.43559 0
M  V30 12084 C 1102.17 3.37253 -2.97624 0
M  V30 12085 C 1103.49 4.26412 -1.08907 0
M  V30 12086 H 1100.61 0.665205 -0.317286 0
M  V30 12087 H 1103.25 1.30307 -1.38275 0
M  V30 12088 H 1101.4 3.75437 -0.998978 0
M  V30 12089 H 1103.08 3.00599 -3.49911 0
M  V30 12090 H 1101.32 2.77378 -3.33532 0
M  V30 12091 H 1101.99 4.40752 -3.32328 0
M  V30 12092 H 1104.47 3.89418 -1.46604 0
M  V30 12093 H 1103.34 5.27666 -1.51195 0
M  V30 12094 H 1103.6 4.421 -0.000259009 0
M  V30 12095 N 1102.66 0.908147 1.28804 0
M  V30 12096 C 1103.59 0.409106 2.29888 0
M  V30 12097 C 1104.57 -0.520338 1.61946 0
M  V30 12098 O 1105.76 -0.429268 1.89396 0
M  V30 12099 C 1102.89 -0.35669 3.45463 0
M  V30 12100 C 1101.84 0.4831 4.25265 0
M  V30 12101 C 1101.17 -0.4107 5.3312 0
M  V30 12102 C 1102.47 1.73744 4.92555 0
M  V30 12103 H 1104.16 1.25386 2.7188 0
M  V30 12104 H 1101.71 0.604368 1.30703 0
M  V30 12105 H 1103.66 -0.71661 4.15262 0
M  V30 12106 H 1102.39 -1.2353 3.02337 0
M  V30 12107 H 1101.04 0.825464 3.57186 0
M  V30 12108 H 1100.69 -1.28769 4.86238 0
M  V30 12109 H 1100.39 0.14756 5.87415 0
M  V30 12110 H 1101.92 -0.766626 6.05768 0
M  V30 12111 H 1103.33 1.44676 5.54745 0
M  V30 12112 H 1101.73 2.23767 5.5682 0
M  V30 12113 H 1102.8 2.46853 4.17363 0
M  V30 12114 N 1104.14 -1.42577 0.671525 0
M  V30 12115 C 1105.37 -2.06442 0.199152 0
M  V30 12116 C 1105.79 -1.50104 -1.1336 0
M  V30 12117 O 1105.15 -0.618211 -1.70434 0
M  V30 12118 C 1105.2 -3.60323 0.141215 0
M  V30 12119 O 1104.3 -4.02655 -0.891238 0
M  V30 12120 H 1103.64 -0.655919 0.103277 0
M  V30 12121 H 1106.17 -1.82768 0.919614 0
M  V30 12122 H 1106.18 -4.07984 -0.0360209 0
M  V30 12123 H 1104.86 -4.00702 1.11403 0
M  V30 12124 H 1103.43 -3.66549 -0.685309 0
M  V30 12125 N 1105.62 -0.414636 -1.52048 0
M  V30 12126 C 1107.03 -0.0657806 -1.59464 0
M  V30 12127 C 1107.23 1.4225 -1.42713 0
M  V30 12128 O 1106.29 2.18996 -1.25687 0
M  V30 12129 C 1107.6 -0.565618 -2.95332 0
M  V30 12130 C 1109.15 -0.524072 -3.08581 0
M  V30 12131 C 1109.63 -1.00051 -4.46938 0
M  V30 12132 N 1111.12 -0.957555 -4.53194 0
M  V30 12133 C 1111.85 -1.29733 -5.58531 0
M  V30 12134 N 1111.35 -1.70883 -6.71395 0
M  V30 12135 N 1113.14 -1.21694 -5.48769 0
M  V30 12136 H 1105.29 -1.38325 -1.61183 0
M  V30 12137 H 1107.56 -0.568593 -0.758556 0
M  V30 12138 H 1107.26 -1.60604 -3.12888 0
M  V30 12139 H 1107.14 0.0217735 -3.77194 0
M  V30 12140 H 1109.52 0.507319 -2.90707 0
M  V30 12141 H 1109.6 -1.14759 -2.28613 0
M  V30 12142 H 1109.25 -2.03025 -4.65557 0
M  V30 12143 H 1109.18 -0.353754 -5.2541 0
M  V30 12144 H 1111.67 -0.65508 -3.72179 0
M  V30 12145 H 1111.98 -1.95105 -7.47766 0
M  V30 12146 H 1110.33 -1.74791 -6.72661 0
M  V30 12147 H 1113.52 -0.894286 -4.59478 0
M  V30 12148 H 1113.69 -1.48504 -6.30754 0
M  V30 12149 N 1107.1 1.56929 -0.145233 0
M  V30 12150 C 1108.03 2.13796 0.826078 0
M  V30 12151 C 1109.04 1.08697 1.21197 0
M  V30 12152 O 1110.23 1.3598 1.15635 0
M  V30 12153 C 1107.33 2.6443 2.11967 0
M  V30 12154 C 1106.5 3.9391 1.90142 0
M  V30 12155 C 1105.56 4.29872 3.03474 0
M  V30 12156 O 1104.59 4.98227 2.75242 0
M  V30 12157 N 1105.79 3.8931 4.30602 0
M  V30 12158 H 1108.56 2.97764 0.340073 0
M  V30 12159 H 1106.12 1.61854 0.0383928 0
M  V30 12160 H 1108.11 2.85502 2.86829 0
M  V30 12161 H 1106.68 1.85196 2.51836 0
M  V30 12162 H 1105.9 3.81481 0.993268 0
M  V30 12163 H 1107.19 4.78523 1.72896 0
M  V30 12164 H 1106.58 3.34229 4.56407 0
M  V30 12165 H 1105.14 4.15438 5.0225 0
M  V30 12166 N 1108.58 -0.128553 1.57075 0
M  V30 12167 C 1109.49 -1.17718 2.02927 0
M  V30 12168 C 1110.5 -1.45912 0.947932 0
M  V30 12169 O 1111.68 -1.57217 1.25876 0
M  V30 12170 C 1108.74 -2.48625 2.41633 0
M  V30 12171 C 1107.8 -2.27914 3.63804 0
M  V30 12172 C 1107.04 -3.52579 4.00654 0
M  V30 12173 O 1107.26 -4.59505 3.37952 0
M  V30 12174 O 1106.19 -3.44147 4.93808 0
M  V30 12175 H 1110.02 -0.817846 2.92481 0
M  V30 12176 H 1107.6 -0.338649 1.45511 0
M  V30 12177 H 1109.49 -3.2577 2.67305 0
M  V30 12178 H 1108.16 -2.84052 1.55229 0
M  V30 12179 H 1107.07 -1.4866 3.43294 0
M  V30 12180 H 1108.4 -1.97395 4.50883 0
M  V30 12181 N 1110.05 -1.5248 -0.398459 0
M  V30 12182 C 1111.29 -1.68744 -1.15346 0
M  V30 12183 C 1111.66 -0.413739 -1.87489 0
M  V30 12184 O 1112.86 -0.452624 -2.64962 0
M  V30 12185 C 1111.13 -2.8824 -2.11311 0
M  V30 12186 S 1112.69 -3.25043 -2.94775 0
M  V30 12187 H 1109.51 -0.594099 -0.390598 0
M  V30 12188 H 1112.11 -1.90502 -0.439228 0
M  V30 12189 H 1110.81 -3.79175 -1.57017 0
M  V30 12190 H 1110.34 -2.68787 -2.87258 0
M  V30 12191 H 1112.36 -2.74495 -4.13361 0
M  V30 12192 N 1111.53 0.65634 -1.43283 0
M  V30 12193 C 1112.78 1.41212 -1.44021 0
M  V30 12194 C 1113.09 1.95485 -0.0669783 0
M  V30 12195 O 1114.3 2.71457 0.0481909 0
M  V30 12196 C 1112.76 2.55541 -2.5343 0
M  V30 12197 C 1112.36 2.07889 -3.96845 0
M  V30 12198 C 1114.11 3.3293 -2.63359 0
M  V30 12199 C 1112.01 3.19411 -4.97726 0
M  V30 12200 H 1110.94 0.530566 -0.535739 0
M  V30 12201 H 1113.6 0.708743 -1.6926 0
M  V30 12202 H 1111.98 3.28335 -2.21387 0
M  V30 12203 H 1113.15 1.42127 -4.38334 0
M  V30 12204 H 1111.47 1.43388 -3.90933 0
M  V30 12205 H 1114.06 4.1602 -3.35903 0
M  V30 12206 H 1114.41 3.80753 -1.68324 0
M  V30 12207 H 1114.94 2.67216 -2.94687 0
M  V30 12208 H 1111.68 2.7656 -5.94302 0
M  V30 12209 H 1111.2 3.83895 -4.60853 0
M  V30 12210 H 1112.88 3.84591 -5.20287 0
M  V30 12211 N 1113.01 1.29761 0.894412 0
M  V30 12212 C 1113.92 1.1724 2.03204 0
M  V30 12213 C 1114.94 0.0944452 1.73743 0
M  V30 12214 O 1116.11 0.307549 1.99038 0
M  V30 12215 C 1113.18 0.855416 3.35981 0
M  V30 12216 C 1112.24 2.01777 3.78926 0
M  V30 12217 C 1111.47 1.71581 5.05367 0
M  V30 12218 O 1111.69 0.639245 5.66807 0
M  V30 12219 O 1110.63 2.56539 5.44492 0
M  V30 12220 H 1114.45 2.12787 2.16692 0
M  V30 12221 H 1112.04 1.09264 1.0189 0
M  V30 12222 H 1113.92 0.693429 4.15656 0
M  V30 12223 H 1112.6 -0.0702195 3.23624 0
M  V30 12224 H 1111.5 2.23502 2.99996 0
M  V30 12225 H 1112.84 2.92479 3.95875 0
M  V30 12226 N 1114.49 -1.10549 1.12324 0
M  V30 12227 C 1115.9 -1.34508 0.85905 0
M  V30 12228 C 1116.1 -1.94901 -0.511468 0
M  V30 12229 O 1115.16 -2.18793 -1.2604 0
M  V30 12230 C 1116.47 -2.26788 1.97453 0
M  V30 12231 C 1118.02 -2.40328 2.00528 0
M  V30 12232 C 1118.5 -3.35936 3.11305 0
M  V30 12233 N 1119.99 -3.43504 3.1074 0
M  V30 12234 C 1120.72 -4.17449 3.93096 0
M  V30 12235 N 1120.22 -4.9429 4.85437 0
M  V30 12236 N 1122.01 -4.13055 3.81237 0
M  V30 12237 H 1114.16 -0.697171 2.00632 0
M  V30 12238 H 1116.42 -0.369548 0.873005 0
M  V30 12239 H 1116.13 -1.89621 2.96204 0
M  V30 12240 H 1116 -3.27086 1.87869 0
M  V30 12241 H 1118.39 -2.76765 1.02397 0
M  V30 12242 H 1118.47 -1.39849 2.14186 0
M  V30 12243 H 1118.12 -3.00225 4.09667 0
M  V30 12244 H 1118.05 -4.36291 2.94886 0
M  V30 12245 H 1120.54 -2.88702 2.43843 0
M  V30 12246 H 1120.85 -5.48109 5.4479 0
M  V30 12247 H 1119.2 -4.93419 4.89452 0
M  V30 12248 H 1122.39 -3.52117 3.08433 0
M  V30 12249 H 1122.56 -4.70424 4.45651 0
M  V30 12250 N 1115.97 -0.914965 -1.28321 0
M  V30 12251 C 1117.21 -0.544639 -1.94208 0
M  V30 12252 C 1117.53 0.916368 -1.72806 0
M  V30 12253 O 1118.73 1.39491 -2.32926 0
M  V30 12254 C 1117.19 -0.923209 -3.47858 0
M  V30 12255 C 1116.8 -2.40403 -3.78035 0
M  V30 12256 C 1118.54 -0.623526 -4.19896 0
M  V30 12257 C 1116.45 -2.72266 -5.25 0
M  V30 12258 H 1115.38 -0.199966 -0.727 0
M  V30 12259 H 1118.03 -1.11405 -1.45812 0
M  V30 12260 H 1116.41 -0.282576 -3.94991 0
M  V30 12261 H 1117.59 -3.09149 -3.41706 0
M  V30 12262 H 1115.9 -2.67429 -3.19172 0
M  V30 12263 H 1118.5 -0.838243 -5.28089 0
M  V30 12264 H 1118.84 0.438721 -4.13982 0
M  V30 12265 H 1119.37 -1.22268 -3.78544 0
M  V30 12266 H 1116.11 -3.77349 -5.35993 0
M  V30 12267 H 1115.63 -2.08157 -5.62522 0
M  V30 12268 H 1117.31 -2.59334 -5.92752 0
M  V30 12269 N 1117.44 1.42219 -0.679077 0
M  V30 12270 C 1118.85 1.8459 -0.279877 0
M  V30 12271 C 1119.21 1.56839 1.17881 0
M  V30 12272 O 1118.33 1.03039 1.90294 0
M  V30 12273 C 1118.93 3.35072 -0.501185 0
M  V30 12274 C 1117.48 3.76076 -0.156065 0
M  V30 12275 C 1116.63 2.65763 -0.791549 0
M  V30 12276 H 1119.58 1.32005 -0.880932 0
M  V30 12277 H 1119.6 3.79708 0.245349 0
M  V30 12278 H 1119.12 3.55239 -1.56291 0
M  V30 12279 H 1117.22 3.61516 0.90205 0
M  V30 12280 H 1117.33 4.75334 -0.599572 0
M  V30 12281 H 1115.69 2.53726 -0.222514 0
M  V30 12282 H 1116.48 2.88751 -1.85682 0
M  V30 12283 N 1118.92 0.422693 1.51826 0
M  V30 12284 C 1120.17 -0.141187 2.02909 0
M  V30 12285 C 1120.52 -1.41649 1.30205 0
M  V30 12286 O 1119.82 -1.87297 0.403769 0
M  V30 12287 C 1120.01 -0.429516 3.5481 0
M  V30 12288 C 1119.84 0.816291 4.42229 0
M  V30 12289 C 1118.61 1.34551 4.87057 0
M  V30 12290 C 1120.81 1.69829 4.85451 0
M  V30 12291 N 1118.79 2.54538 5.58644 0
M  V30 12292 C 1120.16 2.74431 5.55956 0
M  V30 12293 C 1122.21 1.71445 4.67452 0
M  V30 12294 C 1120.92 3.80576 6.10372 0
M  V30 12295 C 1122.94 2.76516 5.22774 0
M  V30 12296 C 1122.31 3.79839 5.93213 0
M  V30 12297 H 1118.4 -0.0128783 0.781894 0
M  V30 12298 H 1120.99 0.580083 1.85858 0
M  V30 12299 H 1119.16 -1.11982 3.71907 0
M  V30 12300 H 1120.89 -0.983467 3.92568 0
M  V30 12301 H 1117.65 0.901554 4.6494 0
M  V30 12302 H 1118.07 3.15342 5.99073 0
M  V30 12303 H 1122.71 0.92899 4.12468 0
M  V30 12304 H 1120.43 4.59969 6.6442 0
M  V30 12305 H 1124.02 2.7869 5.10708 0
M  V30 12306 H 1122.9 4.59806 6.35254 0
M  V30 12307 N 1120.4 -1.5685 0.153553 0
M  V30 12308 C 1121.65 -1.95509 -0.495911 0
M  V30 12309 C 1121.96 -1.04129 -1.65579 0
M  V30 12310 O 1123.17 -1.32394 -2.37032 0
M  V30 12311 C 1121.62 -3.47579 -0.933622 0
M  V30 12312 C 1121.23 -4.47555 0.199684 0
M  V30 12313 C 1122.98 -3.95092 -1.55251 0
M  V30 12314 C 1120.88 -5.90843 -0.256663 0
M  V30 12315 H 1119.81 -0.729919 -0.189035 0
M  V30 12316 H 1122.46 -1.81938 0.238947 0
M  V30 12317 H 1120.85 -3.56506 -1.72394 0
M  V30 12318 H 1122.02 -4.50329 0.976744 0
M  V30 12319 H 1120.33 -4.09997 0.727394 0
M  V30 12320 H 1122.93 -4.99588 -1.90567 0
M  V30 12321 H 1123.27 -3.37015 -2.4439 0
M  V30 12322 H 1123.81 -3.89109 -0.826969 0
M  V30 12323 H 1120.55 -6.52753 0.599515 0
M  V30 12324 H 1120.07 -5.91414 -0.999458 0
M  V30 12325 H 1121.75 -6.43131 -0.70649 0
M  V30 12326 N 1121.88 0.120221 -1.57141 0
M  V30 12327 C 1122.84 1.13159 -1.99318 0
M  V30 12328 C 1123.84 1.34376 -0.883158 0
M  V30 12329 O 1125.03 1.30914 -1.14922 0
M  V30 12330 C 1122.16 2.48632 -2.33227 0
M  V30 12331 H 1123.36 0.769119 -2.8987 0
M  V30 12332 H 1120.91 0.364475 -1.51991 0
M  V30 12333 H 1121.64 2.89802 -1.45551 0
M  V30 12334 H 1121.43 2.34587 -3.14184 0
M  V30 12335 H 1122.92 3.21423 -2.66603 0
M  V30 12336 N 1123.36 1.52689 0.390367 0
M  V30 12337 C 1124.77 1.59623 0.968366 0
M  V30 12338 C 1125.12 0.44824 1.91011 0
M  V30 12339 O 1124.24 -0.428868 2.12108 0
M  V30 12340 C 1124.84 2.89312 1.76306 0
M  V30 12341 C 1123.4 2.98664 2.29079 0
M  V30 12342 C 1122.54 2.54725 1.09593 0
M  V30 12343 H 1125.5 1.57787 0.169959 0
M  V30 12344 H 1125.52 2.75721 2.62217 0
M  V30 12345 H 1125.03 3.72846 1.07738 0
M  V30 12346 H 1123.13 2.19665 3.00962 0
M  V30 12347 H 1123.24 4.03277 2.58659 0
M  V30 12348 H 1121.61 2.09012 1.45554 0
M  V30 12349 H 1122.39 3.40651 0.425625 0
M  V30 12350 N 1124.83 -0.648732 1.43629 0
M  V30 12351 C 1125.74 -1.79046 1.51591 0
M  V30 12352 C 1126.76 -1.69276 0.402697 0
M  V30 12353 O 1127.94 -1.90366 0.657484 0
M  V30 12354 C 1125 -3.15347 1.44073 0
M  V30 12355 C 1124.06 -3.3688 2.66102 0
M  V30 12356 C 1123.3 -4.66679 2.58933 0
M  V30 12357 O 1123.52 -5.46328 1.63956 0
M  V30 12358 O 1122.45 -4.9003 3.49506 0
M  V30 12359 H 1126.28 -1.75283 2.48011 0
M  V30 12360 H 1123.86 -0.807774 1.2568 0
M  V30 12361 H 1125.75 -3.96633 1.42339 0
M  V30 12362 H 1124.42 -3.19691 0.50789 0
M  V30 12363 H 1123.33 -2.55341 2.73407 0
M  V30 12364 H 1124.66 -3.37386 3.58373 0
M  V30 12365 N 1126.31 -1.30234 -0.887518 0
M  V30 12366 C 1127.55 -1.20191 -1.65328 0
M  V30 12367 C 1127.92 0.240121 -1.90493 0
M  V30 12368 O 1129.12 0.463744 -2.64769 0
M  V30 12369 C 1127.39 -2.00506 -2.95858 0
M  V30 12370 S 1128.95 -2.07133 -3.86835 0
M  V30 12371 H 1125.77 -0.428366 -0.567472 0
M  V30 12372 H 1128.37 -1.64677 -1.05364 0
M  V30 12373 H 1127.07 -3.04396 -2.75266 0
M  V30 12374 H 1126.6 -1.56672 -3.60857 0
M  V30 12375 H 1128.62 -1.19687 -4.81549 0
M  V30 12376 N 1127.79 1.09952 -1.12909 0
M  V30 12377 C 1129.04 1.82286 -0.888797 0
M  V30 12378 C 1129.37 1.85218 0.58379 0
M  V30 12379 O 1128.64 1.31645 1.43177 0
M  V30 12380 C 1128.93 3.28706 -1.47053 0
M  V30 12381 C 1128.78 3.34078 -3.01184 0
M  V30 12382 C 1130.1 4.25233 -1.13424 0
M  V30 12383 H 1127.22 0.661803 -0.324324 0
M  V30 12384 H 1129.86 1.28833 -1.3965 0
M  V30 12385 H 1128.01 3.74356 -1.03874 0
M  V30 12386 H 1129.68 2.96871 -3.5308 0
M  V30 12387 H 1127.93 2.73825 -3.36455 0
M  V30 12388 H 1128.6 4.37202 -3.36984 0
M  V30 12389 H 1131.07 3.87841 -1.50726 0
M  V30 12390 H 1129.95 5.26033 -1.56783 0
M  V30 12391 H 1130.21 4.42075 -0.0471496 0
M  V30 12392 N 1129.27 0.921757 1.27833 0
M  V30 12393 C 1130.18 0.421668 2.30779 0
M  V30 12394 C 1131.19 -0.494686 1.6682 0
M  V30 12395 O 1132.37 -0.378935 1.97803 0
M  V30 12396 C 1129.44 -0.322928 3.45193 0
M  V30 12397 C 1128.5 0.627618 4.24687 0
M  V30 12398 C 1127.73 -0.0815385 5.33638 0
M  V30 12399 O 1127.95 -1.30193 5.55343 0
M  V30 12400 O 1126.89 0.58725 5.99028 0
M  V30 12401 H 1130.71 1.2763 2.7558 0
M  V30 12402 H 1128.3 0.686877 1.32674 0
M  V30 12403 H 1130.18 -0.743145 4.14796 0
M  V30 12404 H 1128.85 -1.15326 3.02459 0
M  V30 12405 H 1127.76 1.09739 3.57642 0
M  V30 12406 H 1129.09 1.425 4.71121 0
M  V30 12407 N 1130.75 -1.41857 0.686609 0
M  V30 12408 C 1132.02 -1.95082 0.142228 0
M  V30 12409 C 1132.4 -1.62646 -1.34572 0
M  V30 12410 O 1131.75 -0.928757 -2.08773 0
M  V30 12411 C 1131.96 -3.46415 0.423955 0
M  V30 12412 C 1133.31 -4.23181 0.346842 0
M  V30 12413 O 1134.33 -3.54393 0.358363 0
M  V30 12414 O 1133.19 -5.4568 0.299211 0
M  V30 12415 H 1130.29 -0.826943 0.00974 0
M  V30 12416 H 1132.83 -1.51622 0.762153 0
M  V30 12417 H 1131.6 -3.63273 1.45424 0
M  V30 12418 H 1131.23 -3.96949 -0.227391 0
M  V30 12419 N 1132.22 -0.430739 -1.51599 0
M  V30 12420 C 1133.45 0.139197 -2.06932 0
M  V30 12421 C 1133.87 1.3626 -1.29672 0
M  V30 12422 O 1133.23 1.78219 -0.332836 0
M  V30 12423 C 1133.28 0.446593 -3.57824 0
M  V30 12424 O 1132.38 1.53414 -3.82803 0
M  V30 12425 H 1131.73 0.00475812 -0.663983 0
M  V30 12426 H 1134.26 -0.610171 -1.9529 0
M  V30 12427 H 1134.27 0.698972 -4.01968 0
M  V30 12428 H 1132.94 -0.447613 -4.13484 0
M  V30 12429 H 1131.52 1.27224 -3.50526 0
M  V30 12430 N 1133.7 1.56767 -0.161869 0
M  V30 12431 C 1134.65 2.17502 0.772102 0
M  V30 12432 C 1135.62 1.11223 1.23364 0
M  V30 12433 O 1136.8 1.39332 1.30351 0
M  V30 12434 C 1133.94 2.81248 1.99984 0
M  V30 12435 C 1133.06 4.01962 1.58274 0
M  V30 12436 C 1132.19 4.53662 2.76341 0
M  V30 12437 C 1131.23 5.66807 2.31076 0
M  V30 12438 N 1130.37 6.13059 3.42203 0
M  V30 12439 H 1135.21 2.96971 0.247382 0
M  V30 12440 H 1132.75 1.46685 0.110382 0
M  V30 12441 H 1134.7 3.16359 2.7198 0
M  V30 12442 H 1133.33 2.04398 2.49842 0
M  V30 12443 H 1132.39 3.72733 0.759874 0
M  V30 12444 H 1133.7 4.83891 1.2104 0
M  V30 12445 H 1132.85 4.90905 3.56507 0
M  V30 12446 H 1131.59 3.7077 3.16829 0
M  V30 12447 H 1130.6 5.29125 1.49354 0
M  V30 12448 H 1131.82 6.51494 1.91657 0
M  V30 12449 H 1129.77 5.33099 3.82285 0
M  V30 12450 H 1129.68 6.89953 3.09033 0
M  V30 12451 H 1130.95 6.54951 4.22682 0
M  V30 12452 N 1135.18 -0.111886 1.57202 0
M  V30 12453 C 1136.13 -1.15585 2.01849 0
M  V30 12454 C 1137.12 -1.42458 0.916621 0
M  V30 12455 O 1138.33 -1.42337 1.10182 0
M  V30 12456 H 1134.7 -0.389885 0.643035 0
M  V30 12457 H 1136.67 -0.752854 2.88747 0
M  V30 12458 C 1135.42 -2.47247 2.44467 0
M  V30 12459 H 1134.75 -2.27409 3.28824 0
M  V30 12460 H 1136.19 -3.18837 2.79497 0
M  V30 12461 C 1134.65 -3.10339 1.31115 0
M  V30 12462 O 1135.18 -3.96713 0.631029 0
M  V30 12463 N 1133.38 -2.70326 1.0664 0
M  V30 12464 H 1132.93 -2.00182 1.62126 0
M  V30 12465 H 1132.89 -3.12869 0.309944 0
M  V30 12466 N 1136.66 -1.52894 -0.382264 0
M  V30 12467 C 1137.59 -1.81122 -1.47367 0
M  V30 12468 C 1138.57 -0.663653 -1.56619 0
M  V30 12469 O 1139.75 -0.911898 -1.71459 0
M  V30 12470 C 1136.88 -1.98615 -2.84902 0
M  V30 12471 C 1135.84 -3.14328 -2.90485 0
M  V30 12472 C 1135.16 -3.17086 -4.30535 0
M  V30 12473 C 1136.46 -4.53263 -2.59519 0
M  V30 12474 H 1138.16 -2.72518 -1.23993 0
M  V30 12475 H 1135.7 -1.3113 -0.595049 0
M  V30 12476 H 1137.66 -2.16946 -3.61265 0
M  V30 12477 H 1136.38 -1.03915 -3.09628 0
M  V30 12478 H 1135.04 -2.95791 -2.16572 0
M  V30 12479 H 1134.69 -2.20055 -4.52311 0
M  V30 12480 H 1134.39 -3.94821 -4.3519 0
M  V30 12481 H 1135.91 -3.3758 -5.08795 0
M  V30 12482 H 1137.33 -4.71867 -3.25598 0
M  V30 12483 H 1135.72 -5.33115 -2.75514 0
M  V30 12484 H 1136.79 -4.59516 -1.54831 0
M  V30 12485 N 1138.14 0.641106 -1.43971 0
M  V30 12486 C 1139.36 1.43324 -1.4991 0
M  V30 12487 C 1139.79 1.87705 -0.121908 0
M  V30 12488 O 1139.15 1.58127 0.886875 0
M  V30 12489 C 1139.19 2.63637 -2.46025 0
M  V30 12490 O 1138.3 3.63123 -1.95488 0
M  V30 12491 H 1137.64 0.429252 -0.506595 0
M  V30 12492 H 1140.17 0.783427 -1.89007 0
M  V30 12493 H 1140.18 3.11304 -2.63731 0
M  V30 12494 H 1138.85 2.30678 -3.46064 0
M  V30 12495 H 1137.43 3.22332 -1.87501 0
M  V30 12496 N 1139.62 1.30703 0.880598 0
M  V30 12497 C 1140.86 1.19955 1.63519 0
M  V30 12498 C 1141.19 -0.244214 1.92658 0
M  V30 12499 O 1140.47 -1.17412 1.55063 0
M  V30 12500 C 1140.75 2.03302 2.97221 0
M  V30 12501 C 1140.61 3.55921 2.75028 0
M  V30 12502 C 1141.92 1.87421 3.98198 0
M  V30 12503 H 1139.04 0.43712 0.593376 0
M  V30 12504 H 1141.69 1.60382 1.01871 0
M  V30 12505 H 1139.84 1.68953 3.49839 0
M  V30 12506 H 1141.51 4.00352 2.29164 0
M  V30 12507 H 1139.75 3.79885 2.09452 0
M  V30 12508 H 1140.42 4.09533 3.70117 0
M  V30 12509 H 1142.9 2.17459 3.54755 0
M  V30 12510 H 1141.77 2.48057 4.89652 0
M  V30 12511 H 1142.03 0.834563 4.34151 0
M  V30 12512 N 1141.09 -1.09351 1.1349 0
M  V30 12513 C 1142.06 -2.14185 0.815919 0
M  V30 12514 C 1143.06 -1.59845 -0.174976 0
M  V30 12515 O 1144.25 -1.74122 0.0521971 0
M  V30 12516 C 1141.38 -3.40224 0.214517 0
M  V30 12517 H 1142.57 -2.43913 1.74489 0
M  V30 12518 H 1140.12 -1.24902 0.939634 0
M  V30 12519 H 1140.86 -3.16123 -0.723634 0
M  V30 12520 H 1140.64 -3.80958 0.928102 0
M  V30 12521 H 1142.13 -4.17599 0.00821999 0
M  V30 12522 N 1142.57 -0.928524 -1.27343 0
M  V30 12523 C 1143.53 -0.43292 -2.25074 0
M  V30 12524 C 1144.53 0.448976 -1.54405 0
M  V30 12525 O 1145.72 0.249939 -1.72398 0
M  V30 12526 C 1142.86 0.377539 -3.38803 0
M  V30 12527 H 1144.05 -1.29642 -2.70431 0
M  V30 12528 H 1141.6 -0.709289 -1.3928 0
M  V30 12529 H 1142.34 1.25982 -2.98829 0
M  V30 12530 H 1142.12 -0.254782 -3.91271 0
M  V30 12531 H 1143.61 0.714634 -4.1144 0
M  V30 12532 N 1144.05 1.41491 -0.694123 0
M  V30 12533 C 1145.33 1.95004 -0.152571 0
M  V30 12534 C 1145.71 1.63357 1.33707 0
M  V30 12535 O 1145.05 0.939815 2.08278 0
M  V30 12536 C 1145.26 3.46186 -0.44232 0
M  V30 12537 C 1146.61 4.22991 -0.369279 0
M  V30 12538 O 1147.64 3.54198 -0.377152 0
M  V30 12539 O 1146.5 5.45514 -0.328145 0
M  V30 12540 H 1143.59 0.826879 -0.0141253 0
M  V30 12541 H 1146.14 1.51216 -0.770183 0
M  V30 12542 H 1144.91 3.62497 -1.47348 0
M  V30 12543 H 1144.53 3.97064 0.206337 0
M  V30 12544 N 1145.53 0.438773 1.51369 0
M  V30 12545 C 1146.47 -0.37195 2.27783 0
M  V30 12546 C 1147.44 -1.01558 1.31435 0
M  V30 12547 O 1148.63 -1.03421 1.60339 0
M  V30 12548 C 1145.77 -1.46636 3.12397 0
M  V30 12549 C 1144.88 -0.840727 4.2374 0
M  V30 12550 C 1144.02 -1.91031 4.95662 0
M  V30 12551 C 1143.06 -1.26318 5.98924 0
M  V30 12552 N 1142.19 -2.27419 6.64248 0
M  V30 12553 H 1147.03 0.286048 2.96624 0
M  V30 12554 H 1144.57 0.152909 1.46303 0
M  V30 12555 H 1146.53 -2.11219 3.59781 0
M  V30 12556 H 1145.16 -2.09397 2.45668 0
M  V30 12557 H 1144.21 -0.0831588 3.80309 0
M  V30 12558 H 1145.52 -0.328285 4.97719 0
M  V30 12559 H 1144.68 -2.63272 5.46601 0
M  V30 12560 H 1143.42 -2.45649 4.21317 0
M  V30 12561 H 1142.42 -0.526246 5.47276 0
M  V30 12562 H 1143.65 -0.724324 6.75226 0
M  V30 12563 H 1141.59 -2.81114 5.92715 0
M  V30 12564 H 1141.51 -1.81071 7.33996 0
M  V30 12565 H 1142.78 -2.99139 7.19817 0
M  V30 12566 N 1147.01 -1.56678 0.170181 0
M  V30 12567 C 1148.25 -1.97913 -0.469262 0
M  V30 12568 C 1148.61 -1.05438 -1.60936 0
M  V30 12569 O 1147.9 -0.0938273 -1.9137 0
M  V30 12570 C 1148.09 -3.43103 -1.00076 0
M  V30 12571 C 1147.92 -4.49617 0.0863088 0
M  V30 12572 C 1146.69 -5.02454 0.535589 0
M  V30 12573 C 1148.89 -5.06606 0.886289 0
M  V30 12574 N 1146.87 -5.926 1.60308 0
M  V30 12575 C 1148.24 -5.93182 1.80374 0
M  V30 12576 C 1150.3 -4.89109 0.931495 0
M  V30 12577 C 1149 -6.64134 2.76257 0
M  V30 12578 C 1151.03 -5.60781 1.87827 0
M  V30 12579 C 1150.39 -6.47084 2.78319 0
M  V30 12580 H 1146.49 -0.769393 -0.139852 0
M  V30 12581 H 1149.07 -1.92817 0.270136 0
M  V30 12582 H 1147.24 -3.48747 -1.70968 0
M  V30 12583 H 1148.98 -3.71351 -1.60874 0
M  V30 12584 H 1145.73 -4.73412 0.133508 0
M  V30 12585 H 1146.15 -6.42378 2.13729 0
M  V30 12586 H 1150.8 -4.22084 0.245904 0
M  V30 12587 H 1148.51 -7.30373 3.45805 0
M  V30 12588 H 1152.1 -5.49229 1.91934 0
M  V30 12589 H 1150.98 -7.01569 3.50386 0
M  V30 12590 N 1148.48 0.103547 -1.57259 0
M  V30 12591 C 1149.71 0.82624 -1.90232 0
M  V30 12592 C 1150.13 1.71902 -0.763641 0
M  V30 12593 O 1149.49 1.79043 0.285181 0
M  V30 12594 C 1149.54 1.62265 -3.22029 0
M  V30 12595 O 1148.64 2.73091 -3.09023 0
M  V30 12596 H 1147.98 0.227528 -0.6238 0
M  V30 12597 H 1150.51 0.081307 -2.04438 0
M  V30 12598 H 1150.52 2.00865 -3.5513 0
M  V30 12599 H 1149.2 0.967383 -4.04493 0
M  V30 12600 H 1147.78 2.3758 -2.8742 0
M  V30 12601 N 1149.96 1.53094 0.37415 0
M  V30 12602 C 1151.21 1.68861 1.11769 0
M  V30 12603 C 1151.54 0.436032 1.89549 0
M  V30 12604 O 1150.79 -0.581879 1.86849 0
M  V30 12605 C 1151.09 2.88432 2.11049 0
M  V30 12606 C 1150.76 4.25284 1.49814 0
M  V30 12607 C 1149.42 4.62501 1.32841 0
M  V30 12608 C 1151.77 5.10425 1.05433 0
M  V30 12609 C 1149.1 5.82502 0.700567 0
M  V30 12610 C 1151.45 6.31064 0.440525 0
M  V30 12611 C 1150.11 6.67 0.258216 0
M  V30 12612 H 1149.38 0.617906 0.40899 0
M  V30 12613 H 1152.03 1.87265 0.4005 0
M  V30 12614 H 1150.34 2.64505 2.8904 0
M  V30 12615 H 1152.03 2.97825 2.68517 0
M  V30 12616 H 1148.62 3.95976 1.64016 0
M  V30 12617 H 1152.81 4.82229 1.17342 0
M  V30 12618 H 1148.06 6.08942 0.547652 0
M  V30 12619 H 1152.24 6.96344 0.0883962 0
M  V30 12620 H 1149.86 7.59851 -0.230354 0
M  V30 12621 N 1151.44 -0.633461 1.44309 0
M  V30 12622 C 1152.69 -1.39031 1.46679 0
M  V30 12623 C 1153.01 -1.94745 0.0997165 0
M  V30 12624 O 1152.28 -1.75637 -0.867659 0
M  V30 12625 H 1150.86 -0.516051 0.540093 0
M  V30 12626 H 1153.52 -0.745739 1.80069 0
M  V30 12627 H 1152.62 -2.2228 2.19085 0
M  V30 12628 N 1152.92 -1.31168 -0.873655 0
M  V30 12629 C 1154.15 -1.23595 -1.65927 0
M  V30 12630 C 1154.56 0.199349 -1.87745 0
M  V30 12631 O 1153.92 1.13013 -1.43298 0
M  V30 12632 C 1153.97 -1.97268 -3.02932 0
M  V30 12633 O 1153.69 -3.35196 -2.82091 0
M  V30 12634 C 1155.19 -1.9649 -3.97374 0
M  V30 12635 H 1152.41 -0.427228 -0.517414 0
M  V30 12636 H 1154.96 -1.72983 -1.09074 0
M  V30 12637 H 1153.11 -1.51651 -3.56484 0
M  V30 12638 H 1153.52 -3.7266 -3.69087 0
M  V30 12639 H 1155 -2.52557 -4.90835 0
M  V30 12640 H 1155.48 -0.946525 -4.28879 0
M  V30 12641 H 1156.08 -2.4197 -3.49758 0
M  V30 12642 N 1154.4 1.08748 -1.14068 0
M  V30 12643 C 1155.62 1.84814 -0.930138 0
M  V30 12644 C 1156.04 1.81461 0.521267 0
M  V30 12645 O 1155.4 1.21577 1.36108 0
M  V30 12646 C 1155.45 3.32501 -1.41863 0
M  V30 12647 O 1155.17 3.35846 -2.81317 0
M  V30 12648 C 1156.67 4.25384 -1.24753 0
M  V30 12649 H 1153.89 0.583546 -0.331233 0
M  V30 12650 H 1156.43 1.37366 -1.51495 0
M  V30 12651 H 1154.59 3.7735 -0.876664 0
M  V30 12652 H 1155 4.28013 -3.03159 0
M  V30 12653 H 1156.48 5.27138 -1.63798 0
M  V30 12654 H 1156.95 4.38789 -0.18999 0
M  V30 12655 H 1157.56 3.86357 -1.77787 0
M  V30 12656 N 1155.87 0.935264 1.26849 0
M  V30 12657 C 1156.8 0.457776 2.28969 0
M  V30 12658 C 1157.79 -0.48587 1.63013 0
M  V30 12659 O 1158.97 -0.388998 1.90264 0
M  V30 12660 C 1156.1 -0.283332 3.46142 0
M  V30 12661 C 1155.05 0.573196 4.24144 0
M  V30 12662 C 1154.38 -0.297525 5.33872 0
M  V30 12663 C 1155.68 1.84153 4.88759 0
M  V30 12664 H 1157.37 1.31125 2.69159 0
M  V30 12665 H 1154.92 0.631956 1.29392 0
M  V30 12666 H 1156.87 -0.628366 4.16689 0
M  V30 12667 H 1155.6 -1.1709 3.04889 0
M  V30 12668 H 1154.26 0.901043 3.55354 0
M  V30 12669 H 1153.9 -1.18427 4.8886 0
M  V30 12670 H 1153.6 0.272126 5.8697 0
M  V30 12671 H 1155.13 -0.637961 6.07258 0
M  V30 12672 H 1156.54 1.5641 5.51551 0
M  V30 12673 H 1154.94 2.35528 5.51948 0
M  V30 12674 H 1156.01 2.5565 4.12033 0
M  V30 12675 N 1157.35 -1.41121 0.701616 0
M  V30 12676 C 1158.6 -2.01928 0.244271 0
M  V30 12677 C 1158.95 -1.54597 -1.14532 0
M  V30 12678 O 1158.25 -0.749972 -1.76312 0
M  V30 12679 C 1158.44 -3.5654 0.247781 0
M  V30 12680 C 1158.27 -4.18879 1.63618 0
M  V30 12681 C 1157.04 -4.52913 2.24048 0
M  V30 12682 C 1159.24 -4.44679 2.5839 0
M  V30 12683 N 1157.22 -5.00571 3.55389 0
M  V30 12684 C 1158.59 -4.94178 3.74418 0
M  V30 12685 C 1160.65 -4.26698 2.56579 0
M  V30 12686 C 1159.35 -5.27584 4.88924 0
M  V30 12687 C 1161.37 -4.61198 3.70203 0
M  V30 12688 C 1160.74 -5.10873 4.84962 0
M  V30 12689 H 1156.84 -0.770275 0.134908 0
M  V30 12690 H 1159.42 -1.71571 0.920402 0
M  V30 12691 H 1157.59 -3.86357 -0.39786 0
M  V30 12692 H 1159.32 -4.04074 -0.224961 0
M  V30 12693 H 1156.08 -4.39572 1.76277 0
M  V30 12694 H 1156.5 -5.28799 4.2273 0
M  V30 12695 H 1161.14 -3.87525 1.69069 0
M  V30 12696 H 1158.86 -5.65678 5.77091 0
M  V30 12697 H 1162.45 -4.48939 3.70061 0
M  V30 12698 H 1161.33 -5.37067 5.71426 0
M  V30 12699 N 1158.83 -0.446794 -1.51134 0
M  V30 12700 C 1159.74 0.36579 -2.31731 0
M  V30 12701 C 1160.76 1.01886 -1.41051 0
M  V30 12702 O 1161.93 1.01216 -1.74119 0
M  V30 12703 C 1159 1.44705 -3.15058 0
M  V30 12704 C 1158.06 0.813129 -4.21529 0
M  V30 12705 C 1157.29 1.84287 -5.00873 0
M  V30 12706 O 1157.51 3.06633 -4.8097 0
M  V30 12707 O 1156.45 1.42816 -5.84711 0
M  V30 12708 H 1160.27 -0.292436 -3.02289 0
M  V30 12709 H 1157.86 -0.209129 -1.47929 0
M  V30 12710 H 1159.74 2.07393 -3.66833 0
M  V30 12711 H 1158.42 2.08919 -2.47254 0
M  V30 12712 H 1157.32 0.147953 -3.73807 0
M  V30 12713 H 1158.66 0.214331 -4.91733 0
M  V30 12714 N 1160.31 1.56586 -0.178487 0
M  V30 12715 C 1161.56 1.96273 0.464745 0
M  V30 12716 C 1161.87 1.0675 1.63902 0
M  V30 12717 O 1163.08 1.36148 2.34896 0
M  V30 12718 C 1161.53 3.49021 0.878207 0
M  V30 12719 C 1161.14 4.4718 -0.270861 0
M  V30 12720 C 1162.88 3.97512 1.48946 0
M  V30 12721 C 1160.79 5.91176 0.162632 0
M  V30 12722 H 1159.72 0.732834 0.177398 0
M  V30 12723 H 1162.37 1.81534 -0.267861 0
M  V30 12724 H 1160.75 3.59203 1.667 0
M  V30 12725 H 1161.93 4.48718 -1.04826 0
M  V30 12726 H 1160.24 4.08788 -0.792529 0
M  V30 12727 H 1162.84 5.02556 1.82595 0
M  V30 12728 H 1163.18 3.40861 2.38997 0
M  V30 12729 H 1163.72 3.90376 0.76496 0
M  V30 12730 H 1160.46 6.51716 -0.703286 0
M  V30 12731 H 1159.98 5.9293 0.905243 0
M  V30 12732 H 1161.65 6.44174 0.604084 0
M  V30 12733 N 1161.79 -0.095206 1.57312 0
M  V30 12734 C 1163.03 -0.804335 1.87909 0
M  V30 12735 C 1163.39 -1.75907 0.769465 0
M  V30 12736 O 1164.59 -2.51155 0.957846 0
M  V30 12737 C 1162.86 -1.51405 3.23746 0
M  V30 12738 S 1164.42 -2.26147 3.76036 0
M  V30 12739 H 1161.24 -0.267976 0.658567 0
M  V30 12740 H 1163.84 -0.0614682 1.95403 0
M  V30 12741 H 1162.55 -0.805066 4.02426 0
M  V30 12742 H 1162.08 -2.29681 3.1939 0
M  V30 12743 H 1164.09 -3.52284 3.49443 0
M  V30 12744 N 1163.26 -1.53291 -0.366026 0
M  V30 12745 C 1164.49 -1.73108 -1.1277 0
M  V30 12746 C 1164.9 -0.459662 -1.83531 0
M  V30 12747 O 1164.25 0.577151 -1.74398 0
M  V30 12748 C 1164.31 -2.84137 -2.20242 0
M  V30 12749 C 1163.97 -4.24503 -1.69252 0
M  V30 12750 C 1164.97 -5.06866 -1.15684 0
M  V30 12751 C 1162.65 -4.70912 -1.74778 0
M  V30 12752 C 1164.65 -6.33728 -0.683191 0
M  V30 12753 C 1162.33 -5.97752 -1.27025 0
M  V30 12754 C 1163.33 -6.78992 -0.738858 0
M  V30 12755 O 1163.02 -8.03452 -0.268375 0
M  V30 12756 H 1162.75 -0.582439 -0.343134 0
M  V30 12757 H 1165.31 -2.00828 -0.430969 0
M  V30 12758 H 1163.54 -2.5189 -2.93408 0
M  V30 12759 H 1165.23 -2.92136 -2.818 0
M  V30 12760 H 1165.99 -4.72185 -1.10753 0
M  V30 12761 H 1161.87 -4.07751 -2.15081 0
M  V30 12762 H 1165.41 -6.97086 -0.267746 0
M  V30 12763 H 1161.31 -6.31933 -1.31649 0
M  V30 12764 H 1162.08 -8.17581 -0.387745 0
M  V30 12765 N 1164.74 0.6258 -1.44643 0
M  V30 12766 C 1165.69 1.75869 -1.52226 0
M  V30 12767 C 1166.68 1.64765 -0.39355 0
M  V30 12768 O 1167.89 1.70779 -0.568718 0
M  V30 12769 H 1164.27 0.580712 -0.477784 0
M  V30 12770 H 1166.24 1.66596 -2.47565 0
M  V30 12771 C 1164.99 3.14217 -1.48873 0
M  V30 12772 H 1164.31 3.23411 -2.35043 0
M  V30 12773 H 1165.75 3.93365 -1.58239 0
M  V30 12774 C 1164.21 3.36243 -0.210299 0
M  V30 12775 O 1164.74 3.95243 0.717335 0
M  V30 12776 N 1162.94 2.90385 -0.111744 0
M  V30 12777 H 1162.49 2.42555 -0.867466 0
M  V30 12778 H 1162.45 3.05498 0.742871 0
M  V30 12779 N 1166.22 1.31629 0.866686 0
M  V30 12780 C 1167.47 1.21263 1.61678 0
M  V30 12781 C 1167.79 -0.228562 1.93656 0
M  V30 12782 O 1167.06 -1.15014 1.58583 0
M  V30 12783 H 1165.64 0.445817 0.59938 0
M  V30 12784 H 1168.3 1.64998 1.03739 0
M  V30 12785 H 1167.4 1.78669 2.55898 0
M  V30 12786 N 1167.7 -1.08142 1.14644 0
M  V30 12787 C 1168.61 -2.18675 0.849607 0
M  V30 12788 C 1169.63 -1.73158 -0.170983 0
M  V30 12789 O 1170.8 -2.014 0.0011579 0
M  V30 12790 C 1167.87 -3.45084 0.334305 0
M  V30 12791 C 1166.93 -4.05213 1.41779 0
M  V30 12792 C 1166.16 -5.25588 0.926981 0
M  V30 12793 O 1166.38 -5.69934 -0.230522 0
M  V30 12794 O 1165.32 -5.77183 1.70715 0
M  V30 12795 H 1169.14 -2.46542 1.77343 0
M  V30 12796 H 1166.73 -1.17328 0.924911 0
M  V30 12797 H 1168.61 -4.21367 0.0529893 0
M  V30 12798 H 1167.29 -3.18788 -0.561755 0
M  V30 12799 H 1166.19 -3.30507 1.7526 0
M  V30 12800 H 1167.53 -4.35764 2.28847 0
M  V30 12801 N 1169.18 -0.941978 -1.26351 0
M  V30 12802 C 1170.43 -0.585711 -1.93009 0
M  V30 12803 C 1170.74 0.879507 -1.74711 0
M  V30 12804 O 1171.95 1.34518 -2.35833 0
M  V30 12805 C 1170.4 -0.996787 -3.45821 0
M  V30 12806 C 1170.01 -2.48367 -3.72851 0
M  V30 12807 C 1171.75 -0.712452 -4.18479 0
M  V30 12808 C 1169.66 -2.83341 -5.19107 0
M  V30 12809 H 1168.59 -0.215342 -0.722595 0
M  V30 12810 H 1171.24 -1.14472 -1.43417 0
M  V30 12811 H 1169.62 -0.366295 -3.94302 0
M  V30 12812 H 1170.8 -3.16328 -3.35072 0
M  V30 12813 H 1169.11 -2.74139 -3.13427 0
M  V30 12814 H 1171.71 -0.95007 -5.26192 0
M  V30 12815 H 1172.05 0.350811 -4.14819 0
M  V30 12816 H 1172.59 -1.3027 -3.75865 0
M  V30 12817 H 1169.32 -3.88633 -5.27868 0
M  V30 12818 H 1168.84 -2.20043 -5.5798 0
M  V30 12819 H 1170.52 -2.71849 -5.87118 0
M  V30 12820 N 1170.66 1.40747 -0.709091 0
M  V30 12821 C 1172.07 1.83955 -0.318968 0
M  V30 12822 C 1172.42 1.59304 1.14527 0
M  V30 12823 O 1171.54 1.07052 1.88066 0
M  V30 12824 C 1172.14 3.33934 -0.572147 0
M  V30 12825 C 1170.7 3.75661 -0.235802 0
M  V30 12826 C 1169.84 2.64024 -0.847743 0
M  V30 12827 H 1172.79 1.30107 -0.908734 0
M  V30 12828 H 1172.82 3.80143 0.164752 0
M  V30 12829 H 1172.33 3.51844 -1.63791 0
M  V30 12830 H 1170.43 3.63348 0.825164 0
M  V30 12831 H 1170.54 4.73955 -0.700263 0
M  V30 12832 H 1168.91 2.53197 -0.276283 0
M  V30 12833 H 1169.69 2.84748 -1.91765 0
M  V30 12834 N 1172.13 0.454803 1.50895 0
M  V30 12835 C 1173.06 -0.337982 2.31041 0
M  V30 12836 C 1174.04 -1.00523 1.37219 0
M  V30 12837 O 1175.23 -1.00553 1.66141 0
M  V30 12838 C 1172.36 -1.42964 3.1651 0
M  V30 12839 C 1171.31 -0.884907 4.18752 0
M  V30 12840 C 1170.64 -2.07363 4.92854 0
M  V30 12841 C 1171.94 0.0926716 5.22218 0
M  V30 12842 H 1173.63 0.33089 2.97566 0
M  V30 12843 H 1171.18 0.160577 1.43102 0
M  V30 12844 H 1173.13 -1.9916 3.71367 0
M  V30 12845 H 1171.86 -2.12705 2.47839 0
M  V30 12846 H 1170.52 -0.345031 3.64973 0
M  V30 12847 H 1170.16 -2.75764 4.2067 0
M  V30 12848 H 1169.86 -1.71545 5.62002 0
M  V30 12849 H 1171.39 -2.6408 5.5054 0
M  V30 12850 H 1172.8 -0.379568 5.72042 0
M  V30 12851 H 1171.2 0.3643 5.98993 0
M  V30 12852 H 1172.27 1.02383 4.73968 0
M  V30 12853 N 1173.61 -1.56489 0.186789 0
M  V30 12854 C 1174.56 -2.18703 -0.737402 0
M  V30 12855 C 1175.53 -1.13171 -1.21579 0
M  V30 12856 O 1176.71 -1.41388 -1.28118 0
M  V30 12857 C 1173.85 -2.84394 -1.95484 0
M  V30 12858 C 1172.97 -4.04429 -1.51859 0
M  V30 12859 C 1172.1 -4.58001 -2.69089 0
M  V30 12860 C 1171.14 -5.70412 -2.22029 0
M  V30 12861 N 1170.28 -6.18425 -3.32407 0
M  V30 12862 H 1175.12 -2.97327 -0.200105 0
M  V30 12863 H 1172.65 -1.46842 -0.087032 0
M  V30 12864 H 1174.61 -3.20646 -2.66912 0
M  V30 12865 H 1173.24 -2.08347 -2.46559 0
M  V30 12866 H 1172.29 -3.73895 -0.70048 0
M  V30 12867 H 1173.61 -4.85756 -1.13327 0
M  V30 12868 H 1172.76 -4.96515 -3.48652 0
M  V30 12869 H 1171.5 -3.75764 -3.1089 0
M  V30 12870 H 1170.5 -5.31434 -1.40918 0
M  V30 12871 H 1171.73 -6.54461 -1.81268 0
M  V30 12872 H 1169.68 -5.39113 -3.73755 0
M  V30 12873 H 1169.59 -6.94782 -2.98017 0
M  V30 12874 H 1170.86 -6.61592 -4.12209 0
M  V30 12875 N 1175.09 0.086862 -1.5736 0
M  V30 12876 C 1176.37 0.820984 -1.77537 0
M  V30 12877 C 1176.75 1.96534 -0.770554 0
M  V30 12878 O 1176.09 2.27629 0.199334 0
M  V30 12879 C 1176.3 1.30793 -3.23565 0
M  V30 12880 C 1177.65 1.7474 -3.86977 0
M  V30 12881 O 1178.68 1.40396 -3.27364 0
M  V30 12882 O 1177.54 2.38271 -4.91822 0
M  V30 12883 H 1174.63 0.392228 -0.72807 0
M  V30 12884 H 1177.18 0.0681051 -1.69563 0
M  V30 12885 H 1175.95 0.488409 -3.8824 0
M  V30 12886 H 1175.57 2.12258 -3.36203 0
M  V30 12887 N 1176.57 1.53483 0.357892 0
M  V30 12888 C 1177.51 1.80463 1.43881 0
M  V30 12889 C 1178.48 0.649438 1.52877 0
M  V30 12890 O 1179.67 0.892409 1.68644 0
M  V30 12891 C 1176.81 2.00714 2.80727 0
M  V30 12892 C 1175.92 3.28431 2.80637 0
M  V30 12893 C 1175.06 3.38828 4.09107 0
M  V30 12894 C 1174.1 4.60549 4.03189 0
M  V30 12895 N 1173.23 4.68057 5.23323 0
M  V30 12896 H 1178.07 2.72694 1.20174 0
M  V30 12897 H 1175.61 1.35079 0.582422 0
M  V30 12898 H 1177.57 2.10444 3.60235 0
M  V30 12899 H 1176.2 1.11811 3.02817 0
M  V30 12900 H 1175.25 3.27617 1.93317 0
M  V30 12901 H 1176.56 4.18022 2.72138 0
M  V30 12902 H 1175.72 3.47911 4.97034 0
M  V30 12903 H 1174.46 2.47267 4.20369 0
M  V30 12904 H 1173.46 4.51558 3.13649 0
M  V30 12905 H 1174.69 5.53459 3.93523 0
M  V30 12906 H 1172.63 3.794 5.35156 0
M  V30 12907 H 1172.55 5.51563 5.17024 0
M  V30 12908 H 1173.82 4.81433 6.1306 0
M  V30 12909 N 1178.05 -0.61812 1.44973 0
M  V30 12910 C 1179.27 -1.40429 1.51945 0
M  V30 12911 C 1179.69 -1.88215 0.148556 0
M  V30 12912 O 1179.05 -1.61603 -0.847978 0
M  V30 12913 C 1179.1 -2.61588 2.49507 0
M  V30 12914 O 1178.82 -2.15791 3.81269 0
M  V30 12915 C 1180.32 -3.5457 2.66074 0
M  V30 12916 H 1177.54 -0.43023 0.514921 0
M  V30 12917 H 1180.08 -0.754791 1.90061 0
M  V30 12918 H 1178.24 -3.22602 2.14492 0
M  V30 12919 H 1178.65 -2.94434 4.34061 0
M  V30 12920 H 1180.13 -4.36155 3.38338 0
M  V30 12921 H 1180.6 -4.04227 1.71746 0
M  V30 12922 H 1181.21 -2.99416 3.02043 0
M  V30 12923 N 1179.52 -1.32087 -0.859693 0
M  V30 12924 C 1180.45 -1.23204 -1.98351 0
M  V30 12925 C 1181.43 -0.116974 -1.69697 0
M  V30 12926 O 1182.62 -0.303301 -1.91817 0
M  V30 12927 C 1179.75 -0.949171 -3.34078 0
M  V30 12928 C 1178.7 -2.02493 -3.77069 0
M  V30 12929 C 1178.03 -1.59455 -5.1037 0
M  V30 12930 C 1179.33 -3.43934 -3.93074 0
M  V30 12931 H 1181.02 -2.17227 -2.0604 0
M  V30 12932 H 1178.57 -1.04577 -0.989931 0
M  V30 12933 H 1180.52 -0.873594 -4.12245 0
M  V30 12934 H 1179.25 0.0267095 -3.26589 0
M  V30 12935 H 1177.91 -2.09057 -3.01149 0
M  V30 12936 H 1177.55 -0.606256 -4.99333 0
M  V30 12937 H 1177.25 -2.31429 -5.40106 0
M  V30 12938 H 1178.78 -1.53325 -5.91036 0
M  V30 12939 H 1180.19 -3.39986 -4.61608 0
M  V30 12940 H 1178.59 -4.14214 -4.3422 0
M  V30 12941 H 1179.66 -3.83965 -2.9614 0
M  V30 12942 N 1181 1.07532 -1.15215 0
M  V30 12943 C 1182.25 1.79474 -0.920439 0
M  V30 12944 C 1182.56 1.87593 0.553926 0
M  V30 12945 O 1183.77 2.56037 0.903169 0
M  V30 12946 C 1182.23 3.22509 -1.59738 0
M  V30 12947 C 1181.83 3.22596 -3.10863 0
M  V30 12948 C 1183.58 3.99072 -1.44714 0
M  V30 12949 C 1181.48 4.60273 -3.71352 0
M  V30 12950 H 1180.41 0.672625 -0.340722 0
M  V30 12951 H 1183.07 1.2071 -1.38208 0
M  V30 12952 H 1181.45 3.81454 -1.06342 0
M  V30 12953 H 1182.62 2.73306 -3.70999 0
M  V30 12954 H 1180.94 2.5953 -3.25627 0
M  V30 12955 H 1183.53 5.00823 -1.87299 0
M  V30 12956 H 1183.88 4.14428 -0.394386 0
M  V30 12957 H 1184.41 3.46617 -1.95195 0
M  V30 12958 H 1181.15 4.50122 -4.76519 0
M  V30 12959 H 1180.67 5.09809 -3.15998 0
M  V30 12960 H 1182.35 5.29243 -3.7217 0
M  V30 12961 N 1182.48 0.948665 1.2585 0
M  V30 12962 C 1183.39 0.470525 2.29833 0
M  V30 12963 C 1184.41 -0.45919 1.67832 0
M  V30 12964 O 1185.58 -0.336893 1.98562 0
M  V30 12965 C 1182.65 -0.249635 3.458 0
M  V30 12966 C 1181.71 0.717559 4.23261 0
M  V30 12967 C 1180.94 0.0316724 5.33691 0
M  V30 12968 O 1181.16 -1.18384 5.5798 0
M  V30 12969 O 1180.1 0.71418 5.97648 0
M  V30 12970 H 1183.92 1.33447 2.72811 0
M  V30 12971 H 1181.51 0.714864 1.31187 0
M  V30 12972 H 1183.39 -0.654993 4.16279 0
M  V30 12973 H 1182.07 -1.08885 3.04837 0
M  V30 12974 H 1180.97 1.17301 3.55234 0
M  V30 12975 H 1182.31 1.52461 4.67992 0
M  V30 12976 N 1183.96 -1.40369 0.716545 0
M  V30 12977 C 1184.91 -2.3071 0.0645944 0
M  V30 12978 C 1185.88 -1.48239 -0.749294 0
M  V30 12979 O 1187.06 -1.76975 -0.713045 0
M  V30 12980 C 1184.2 -3.34456 -0.850478 0
M  V30 12981 C 1183.31 -4.31992 -0.0259594 0
M  V30 12982 C 1182.45 -5.22806 -0.940599 0
M  V30 12983 C 1181.49 -6.12001 -0.110228 0
M  V30 12984 N 1180.62 -6.9523 -0.979796 0
M  V30 12985 H 1185.46 -2.85896 0.840682 0
M  V30 12986 H 1183 -1.40789 0.426258 0
M  V30 12987 H 1184.96 -3.93177 -1.39528 0
M  V30 12988 H 1183.59 -2.8077 -1.59274 0
M  V30 12989 H 1182.64 -3.75045 0.636036 0
M  V30 12990 H 1183.95 -4.94971 0.616883 0
M  V30 12991 H 1183.11 -5.86463 -1.5539 0
M  V30 12992 H 1181.85 -4.60104 -1.61726 0
M  V30 12993 H 1180.85 -5.47373 0.516001 0
M  V30 12994 H 1182.08 -6.76763 0.562944 0
M  V30 12995 H 1180.02 -6.35115 -1.64209 0
M  V30 12996 H 1179.94 -7.54978 -0.393012 0
M  V30 12997 H 1181.21 -7.63335 -1.57924 0
M  V30 12998 N 1185.44 -0.462799 -1.50652 0
M  V30 12999 C 1186.35 0.341191 -2.32106 0
M  V30 13000 C 1187.36 1.00384 -1.42123 0
M  V30 13001 O 1188.54 0.993635 -1.75182 0
M  V30 13002 C 1185.6 1.41356 -3.16575 0
M  V30 13003 C 1184.66 0.768375 -4.22368 0
M  V30 13004 C 1183.9 1.78964 -5.028 0
M  V30 13005 O 1184.12 3.01515 -4.84195 0
M  V30 13006 O 1183.05 1.36606 -5.86193 0
M  V30 13007 H 1186.88 -0.324482 -3.01962 0
M  V30 13008 H 1184.47 -0.224807 -1.47699 0
M  V30 13009 H 1186.35 2.0349 -3.69012 0
M  V30 13010 H 1185.02 2.06285 -2.49456 0
M  V30 13011 H 1183.93 0.108297 -3.73943 0
M  V30 13012 H 1185.26 0.162164 -4.91933 0
M  V30 13013 N 1186.91 1.56388 -0.195085 0
M  V30 13014 C 1188.33 1.58788 0.160758 0
M  V30 13015 C 1188.53 1.21125 1.61031 0
M  V30 13016 O 1187.59 0.933994 2.34591 0
M  V30 13017 C 1188.9 3.00366 -0.141588 0
M  V30 13018 C 1190.45 3.12893 -0.0816947 0
M  V30 13019 C 1190.92 4.56604 -0.35735 0
M  V30 13020 N 1192.41 4.62188 -0.305968 0
M  V30 13021 C 1193.15 5.71276 -0.493108 0
M  V30 13022 N 1192.64 6.8883 -0.740595 0
M  V30 13023 N 1194.44 5.60473 -0.427365 0
M  V30 13024 H 1186.59 1.79151 -1.14099 0
M  V30 13025 H 1188.85 0.831446 -0.455413 0
M  V30 13026 H 1188.56 3.32483 -1.14666 0
M  V30 13027 H 1188.43 3.73082 0.555834 0
M  V30 13028 H 1190.82 2.80589 0.913978 0
M  V30 13029 H 1190.9 2.42564 -0.812193 0
M  V30 13030 H 1190.54 4.8962 -1.35034 0
M  V30 13031 H 1190.47 5.25124 0.394036 0
M  V30 13032 H 1192.96 3.77705 -0.121298 0
M  V30 13033 H 1193.28 7.67862 -0.872201 0
M  V30 13034 H 1191.62 6.90637 -0.777488 0
M  V30 13035 H 1194.81 4.67513 -0.234436 0
M  V30 13036 H 1194.99 6.45429 -0.576627 0
M  V30 13037 N 1188.39 -0.0785156 1.57404 0
M  V30 13038 C 1189.64 -0.778938 1.86919 0
M  V30 13039 C 1189.97 -1.77915 0.785906 0
M  V30 13040 O 1189.22 -1.94473 -0.218811 0
M  V30 13041 C 1189.52 -1.52826 3.23078 0
M  V30 13042 C 1189.19 -0.668645 4.45915 0
M  V30 13043 C 1187.85 -0.43173 4.79259 0
M  V30 13044 C 1190.2 -0.0721327 5.2115 0
M  V30 13045 C 1187.53 0.41129 5.85257 0
M  V30 13046 C 1189.88 0.758303 6.28039 0
M  V30 13047 C 1188.55 1.00515 6.59889 0
M  V30 13048 H 1187.82 -0.285034 0.683986 0
M  V30 13049 H 1190.46 -0.039906 1.91458 0
M  V30 13050 H 1188.77 -2.33931 3.14299 0
M  V30 13051 H 1190.46 -2.07488 3.43147 0
M  V30 13052 H 1187.05 -0.863424 4.19813 0
M  V30 13053 H 1191.24 -0.242297 4.95708 0
M  V30 13054 H 1186.49 0.611354 6.08336 0
M  V30 13055 H 1190.67 1.2273 6.855 0
M  V30 13056 H 1188.3 1.66017 7.41851 0
M  V30 13057 N 1189.87 -1.5367 -0.349747 0
M  V30 13058 C 1191.1 -1.74294 -1.10928 0
M  V30 13059 C 1191.51 -0.479102 -1.83033 0
M  V30 13060 O 1190.85 0.558621 -1.75 0
M  V30 13061 C 1190.91 -2.86457 -2.17216 0
M  V30 13062 C 1190.58 -4.26274 -1.6474 0
M  V30 13063 C 1191.57 -5.08065 -1.10302 0
M  V30 13064 C 1189.26 -4.72739 -1.69774 0
M  V30 13065 C 1191.25 -6.34417 -0.615938 0
M  V30 13066 C 1188.94 -5.99066 -1.20678 0
M  V30 13067 C 1189.94 -6.79737 -0.6668 0
M  V30 13068 O 1189.63 -8.03691 -0.183143 0
M  V30 13069 H 1189.36 -0.586046 -0.336937 0
M  V30 13070 H 1191.91 -2.01274 -0.409645 0
M  V30 13071 H 1190.14 -2.54988 -2.9072 0
M  V30 13072 H 1191.83 -2.95109 -2.78686 0
M  V30 13073 H 1192.6 -4.73333 -1.05739 0
M  V30 13074 H 1188.48 -4.1001 -2.10744 0
M  V30 13075 H 1192.02 -6.97331 -0.193795 0
M  V30 13076 H 1187.92 -6.33293 -1.24939 0
M  V30 13077 H 1188.69 -8.17946 -0.301008 0
M  V30 13078 N 1191.35 0.610423 -1.45298 0
M  V30 13079 C 1192.26 1.74964 -1.56285 0
M  V30 13080 C 1193.27 1.68149 -0.447436 0
M  V30 13081 O 1194.45 1.88556 -0.707725 0
M  V30 13082 C 1191.52 3.11417 -1.52383 0
M  V30 13083 C 1190.58 3.29707 -2.7494 0
M  V30 13084 C 1189.81 4.5965 -2.71215 0
M  V30 13085 O 1190.03 5.41789 -1.78383 0
M  V30 13086 O 1188.97 4.80591 -3.62375 0
M  V30 13087 H 1192.79 1.68646 -2.52571 0
M  V30 13088 H 1190.38 0.774168 -1.27777 0
M  V30 13089 H 1192.26 3.9272 -1.52805 0
M  V30 13090 H 1190.93 3.18232 -0.592472 0
M  V30 13091 H 1189.84 2.48003 -2.80081 0
M  V30 13092 H 1191.17 3.27766 -3.67192 0
M  V30 13093 N 1192.83 1.32541 0.852676 0
M  V30 13094 C 1194.05 1.2636 1.64462 0
M  V30 13095 C 1194.48 -0.16508 1.87374 0
M  V30 13096 O 1193.83 -1.11712 1.42794 0
M  V30 13097 C 1193.88 2.03052 2.97997 0
M  V30 13098 O 1192.99 1.37967 3.88637 0
M  V30 13099 H 1192.33 0.435393 0.501327 0
M  V30 13100 H 1194.86 1.74888 1.06186 0
M  V30 13101 H 1194.87 2.133 3.47803 0
M  V30 13102 H 1193.54 3.06941 2.80642 0
M  V30 13103 H 1192.12 1.36279 3.47106 0
M  V30 13104 N 1194.3 -1.0692 1.15784 0
M  V30 13105 C 1195.72 -1.31707 0.901408 0
M  V30 13106 C 1195.92 -1.96429 -0.449203 0
M  V30 13107 O 1194.98 -2.22692 -1.19015 0
M  V30 13108 C 1196.29 -2.20391 2.04568 0
M  V30 13109 C 1197.84 -2.33827 2.08072 0
M  V30 13110 C 1198.31 -3.25862 3.21835 0
M  V30 13111 N 1199.8 -3.33444 3.21511 0
M  V30 13112 C 1200.54 -4.04731 4.06177 0
M  V30 13113 N 1200.03 -4.78596 5.00917 0
M  V30 13114 N 1201.83 -4.00717 3.94185 0
M  V30 13115 H 1193.98 -0.632989 2.02749 0
M  V30 13116 H 1196.24 -0.341587 0.88432 0
M  V30 13117 H 1195.95 -1.80102 3.02087 0
M  V30 13118 H 1195.82 -3.20943 1.9818 0
M  V30 13119 H 1198.21 -2.73367 1.11151 0
M  V30 13120 H 1198.29 -1.32964 2.18527 0
M  V30 13121 H 1197.93 -2.8704 4.19012 0
M  V30 13122 H 1197.86 -4.26689 3.08617 0
M  V30 13123 H 1200.35 -2.80798 2.52905 0
M  V30 13124 H 1200.67 -5.30499 5.61952 0
M  V30 13125 H 1199.01 -4.77598 5.04902 0
M  V30 13126 H 1202.2 -3.42126 3.1948 0
M  V30 13127 H 1202.38 -4.56008 4.60392 0
M  V30 13128 N 1195.78 -0.955326 -1.25345 0
M  V30 13129 C 1197.02 -0.618161 -1.94828 0
M  V30 13130 C 1197.39 0.829532 -1.73155 0
M  V30 13131 O 1198.59 1.27632 -2.36566 0
M  V30 13132 C 1196.86 -0.967887 -3.44045 0
M  V30 13133 S 1198.42 -0.743401 -4.32457 0
M  V30 13134 H 1195.24 -0.227189 -0.673726 0
M  V30 13135 H 1197.84 -1.22965 -1.51986 0
M  V30 13136 H 1196.54 -2.01864 -3.57322 0
M  V30 13137 H 1196.07 -0.346677 -3.9187 0
M  V30 13138 H 1198.09 0.385467 -4.94701 0
M  V30 13139 N 1197.26 1.39987 -0.723979 0
M  V30 13140 C 1198.68 1.54547 -0.398403 0
M  V30 13141 C 1198.88 1.69348 1.09194 0
M  V30 13142 O 1197.93 1.68778 1.87804 0
M  V30 13143 C 1199.25 2.76929 -1.1718 0
M  V30 13144 C 1200.79 2.90754 -1.15893 0
M  V30 13145 C 1201.27 4.16059 -1.91465 0
M  V30 13146 N 1202.76 4.23076 -1.88576 0
M  V30 13147 C 1203.5 5.18957 -2.43867 0
M  V30 13148 N 1202.99 6.20695 -3.0775 0
M  V30 13149 N 1204.78 5.11095 -2.33962 0
M  V30 13150 H 1196.94 1.28626 -1.69024 0
M  V30 13151 H 1199.2 0.6226 -0.714894 0
M  V30 13152 H 1198.9 2.72298 -2.22591 0
M  V30 13153 H 1198.78 3.69279 -0.768941 0
M  V30 13154 H 1201.17 2.94884 -0.112978 0
M  V30 13155 H 1201.25 1.99498 -1.60107 0
M  V30 13156 H 1200.89 4.12691 -2.96055 0
M  V30 13157 H 1200.82 5.06339 -1.44665 0
M  V30 13158 H 1203.31 3.50195 -1.42027 0
M  V30 13159 H 1203.62 6.90296 -3.47435 0
M  V30 13160 H 1201.97 6.21114 -3.11837 0
M  V30 13161 H 1205.16 4.30546 -1.83706 0
M  V30 13162 H 1205.33 5.85644 -2.77353 0
M  V30 13163 N 1198.74 0.470782 1.50404 0
M  V30 13164 C 1200.15 0.0155901 1.86693 0
M  V30 13165 C 1200.5 -1.38908 1.38561 0
M  V30 13166 O 1199.63 -2.02971 0.750454 0
M  V30 13167 C 1200.22 0.0215152 3.38793 0
M  V30 13168 C 1198.78 -0.378206 3.74495 0
M  V30 13169 C 1197.93 0.407126 2.74295 0
M  V30 13170 H 1200.88 0.68507 1.43152 0
M  V30 13171 H 1200.9 -0.780717 3.72404 0
M  V30 13172 H 1200.41 1.04397 3.73795 0
M  V30 13173 H 1198.51 -1.40503 3.45094 0
M  V30 13174 H 1198.63 -0.0797643 4.79034 0
M  V30 13175 H 1196.99 -0.139123 2.5432 0
M  V30 13176 H 1197.77 1.42909 3.12141 0
M  V30 13177 N 1200.22 -1.56282 0.203376 0
M  V30 13178 C 1201.46 -1.98105 -0.433844 0
M  V30 13179 C 1201.8 -1.09044 -1.60695 0
M  V30 13180 O 1201.07 -0.144193 -1.93965 0
M  V30 13181 C 1201.35 -3.4903 -0.885992 0
M  V30 13182 C 1201.21 -4.48867 0.289501 0
M  V30 13183 C 1202.53 -4.03871 -1.7486 0
M  V30 13184 H 1199.65 -0.720252 -0.156224 0
M  V30 13185 H 1202.29 -1.87681 0.295963 0
M  V30 13186 H 1200.44 -3.58045 -1.50785 0
M  V30 13187 H 1202.11 -4.51883 0.92734 0
M  V30 13188 H 1200.35 -4.23495 0.939934 0
M  V30 13189 H 1201.02 -5.51956 -0.0695128 0
M  V30 13190 H 1203.5 -3.97688 -1.22407 0
M  V30 13191 H 1202.38 -5.09827 -2.03391 0
M  V30 13192 H 1202.64 -3.49637 -2.70567 0
M  V30 13193 N 1201.7 0.070167 -1.57444 0
M  V30 13194 C 1202.92 0.781894 -1.91557 0
M  V30 13195 C 1203.34 1.71037 -0.799489 0
M  V30 13196 O 1202.7 1.81082 0.227062 0
M  V30 13197 C 1202.75 1.57415 -3.25427 0
M  V30 13198 O 1202.47 0.682991 -4.32743 0
M  V30 13199 C 1203.97 2.38673 -3.73564 0
M  V30 13200 H 1201.19 0.222211 -0.633138 0
M  V30 13201 H 1203.73 0.0399504 -2.04461 0
M  V30 13202 H 1201.89 2.26835 -3.14045 0
M  V30 13203 H 1202.3 1.2342 -5.09772 0
M  V30 13204 H 1203.78 2.89716 -4.6986 0
M  V30 13205 H 1204.25 3.18269 -3.02657 0
M  V30 13206 H 1204.86 1.74405 -3.87896 0
M  V30 13207 N 1203.17 1.53854 0.341593 0
M  V30 13208 C 1204.58 1.62623 0.917093 0
M  V30 13209 C 1204.94 0.508781 1.89488 0
M  V30 13210 O 1204.06 -0.361171 2.13365 0
M  V30 13211 C 1204.66 2.94775 1.67012 0
M  V30 13212 C 1203.21 3.058 2.19461 0
M  V30 13213 C 1202.36 2.58082 1.01433 0
M  V30 13214 H 1205.31 1.58248 0.119674 0
M  V30 13215 H 1205.33 2.83924 2.53313 0
M  V30 13216 H 1204.85 3.76085 0.958221 0
M  V30 13217 H 1202.95 2.29128 2.93821 0
M  V30 13218 H 1203.06 4.11302 2.45698 0
M  V30 13219 H 1201.42 2.13537 1.38831 0
M  V30 13220 H 1202.21 3.41833 0.317033 0
M  V30 13221 N 1204.65 -0.602709 1.4562 0
M  V30 13222 C 1205.88 -1.39299 1.53657 0
M  V30 13223 C 1206.3 -1.87315 0.171632 0
M  V30 13224 O 1205.66 -1.60423 -0.844639 0
M  V30 13225 C 1205.71 -2.57021 2.52928 0
M  V30 13226 O 1204.81 -3.57812 2.05047 0
M  V30 13227 H 1204.15 -0.41567 0.517798 0
M  V30 13228 H 1206.68 -0.73304 1.91018 0
M  V30 13229 H 1206.69 -3.04202 2.71892 0
M  V30 13230 H 1205.37 -2.21422 3.52058 0
M  V30 13231 H 1203.94 -3.17247 1.95981 0
M  V30 13232 N 1206.13 -1.32992 -0.845635 0
M  V30 13233 C 1207.37 -1.2539 -1.61421 0
M  V30 13234 C 1207.73 0.179395 -1.9116 0
M  V30 13235 O 1208.93 0.379275 -2.66111 0
M  V30 13236 C 1207.21 -2.09817 -2.8933 0
M  V30 13237 S 1208.76 -2.19335 -3.80049 0
M  V30 13238 H 1205.58 -0.446202 -0.553556 0
M  V30 13239 H 1208.18 -1.67946 -1.00072 0
M  V30 13240 H 1206.89 -3.12999 -2.65443 0
M  V30 13241 H 1206.42 -1.68073 -3.5569 0
M  V30 13242 H 1208.43 -1.34946 -4.77498 0
M  V30 13243 N 1207.61 1.06304 -1.1635 0
M  V30 13244 C 1208.55 2.13776 -0.869965 0
M  V30 13245 C 1209.52 1.65105 0.181541 0
M  V30 13246 O 1210.71 1.90743 0.0467705 0
M  V30 13247 C 1207.85 3.43034 -0.377077 0
M  V30 13248 C 1206.96 4.0544 -1.4914 0
M  V30 13249 C 1206.1 5.22572 -0.953538 0
M  V30 13250 C 1205.14 5.76961 -2.04407 0
M  V30 13251 N 1204.27 6.85409 -1.52181 0
M  V30 13252 H 1209.11 2.38224 -1.79034 0
M  V30 13253 H 1206.65 1.16882 -0.893136 0
M  V30 13254 H 1208.61 4.17136 -0.0729426 0
M  V30 13255 H 1207.24 3.18804 0.506359 0
M  V30 13256 H 1206.29 3.28886 -1.9115 0
M  V30 13257 H 1207.6 4.41859 -2.31434 0
M  V30 13258 H 1206.76 6.037 -0.602579 0
M  V30 13259 H 1205.5 4.87598 -0.099897 0
M  V30 13260 H 1204.5 4.9447 -2.40373 0
M  V30 13261 H 1205.73 6.13987 -2.90167 0
M  V30 13262 H 1203.67 6.52354 -0.690697 0
M  V30 13263 H 1203.59 7.2077 -2.28092 0
M  V30 13264 H 1204.86 7.70217 -1.19942 0
M  V30 13265 N 1209.09 0.96196 1.24836 0
M  V30 13266 C 1210 0.494876 2.29321 0
M  V30 13267 C 1211.01 -0.441363 1.68309 0
M  V30 13268 O 1212.19 -0.315814 1.98908 0
M  V30 13269 C 1209.25 -0.212944 3.46045 0
M  V30 13270 C 1208.31 0.762411 4.22476 0
M  V30 13271 C 1207.55 0.0882756 5.33627 0
M  V30 13272 O 1207.77 -1.12459 5.59204 0
M  V30 13273 O 1206.7 0.777529 5.96857 0
M  V30 13274 H 1210.53 1.36333 2.7138 0
M  V30 13275 H 1208.11 0.728738 1.30421 0
M  V30 13276 H 1210 -0.610805 4.1695 0
M  V30 13277 H 1208.67 -1.05645 3.05975 0
M  V30 13278 H 1207.58 1.21062 3.5397 0
M  V30 13279 H 1208.91 1.57416 4.66349 0
M  V30 13280 N 1210.56 -1.39601 0.731392 0
M  V30 13281 C 1211.49 -2.33268 0.1041 0
M  V30 13282 C 1212.47 -1.53724 -0.728219 0
M  V30 13283 O 1213.66 -1.82131 -0.673933 0
M  V30 13284 C 1210.79 -3.37802 -0.806646 0
M  V30 13285 C 1209.74 -4.27928 -0.0787588 0
M  V30 13286 C 1209.07 -5.23131 -1.10628 0
M  V30 13287 C 1210.37 -5.11086 1.07651 0
M  V30 13288 H 1212.06 -2.85975 0.886496 0
M  V30 13289 H 1209.61 -1.375 0.427746 0
M  V30 13290 H 1211.56 -4.02278 -1.25499 0
M  V30 13291 H 1210.29 -2.83527 -1.62112 0
M  V30 13292 H 1208.95 -3.64926 0.349926 0
M  V30 13293 H 1208.59 -4.65152 -1.91422 0
M  V30 13294 H 1208.29 -5.84277 -0.624043 0
M  V30 13295 H 1209.82 -5.90483 -1.5544 0
M  V30 13296 H 1211.23 -5.68927 0.706781 0
M  V30 13297 H 1209.63 -5.81356 1.48814 0
M  V30 13298 H 1210.7 -4.46131 1.89988 0
M  V30 13299 N 1212.04 -0.478751 -1.50152 0
M  V30 13300 C 1213.01 0.300181 -2.27226 0
M  V30 13301 C 1214.01 0.913705 -1.32318 0
M  V30 13302 O 1215.2 0.781692 -1.55677 0
M  V30 13303 C 1212.33 1.42838 -3.09532 0
M  V30 13304 H 1213.52 -0.375845 -2.97536 0
M  V30 13305 H 1211.07 -0.233037 -1.54553 0
M  V30 13306 H 1211.81 2.13923 -2.43737 0
M  V30 13307 H 1211.59 0.994161 -3.79287 0
M  V30 13308 H 1213.08 1.97765 -3.67802 0
M  V30 13309 N 1213.52 1.56172 -0.211661 0
M  V30 13310 C 1214.8 1.8984 0.471195 0
M  V30 13311 C 1215.18 1.1276 1.78461 0
M  V30 13312 O 1214.53 0.233817 2.27301 0
M  V30 13313 C 1214.74 3.42434 0.673814 0
M  V30 13314 C 1216.08 4.13 0.985719 0
M  V30 13315 O 1217.11 3.47977 0.760953 0
M  V30 13316 O 1215.97 5.2795 1.41176 0
M  V30 13317 H 1213.06 0.789008 0.247782 0
M  V30 13318 H 1215.61 1.67802 -0.25311 0
M  V30 13319 H 1214.38 3.90481 -0.253034 0
M  V30 13320 H 1214 3.70218 1.44997 0
M  V30 13321 N 1215 -0.0618163 1.57479 0
M  V30 13322 C 1215.93 -1.07252 2.07411 0
M  V30 13323 C 1216.91 -1.39756 0.969649 0
M  V30 13324 O 1218.09 -1.4921 1.24298 0
M  V30 13325 C 1215.22 -2.38313 2.52635 0
M  V30 13326 C 1214.18 -2.20136 3.67048 0
M  V30 13327 C 1213.5 -3.56668 3.98361 0
M  V30 13328 C 1214.8 -1.61437 4.96725 0
M  V30 13329 H 1216.5 -0.656983 2.92103 0
M  V30 13330 H 1214.04 -0.314579 1.40522 0
M  V30 13331 H 1216 -3.09319 2.86181 0
M  V30 13332 H 1214.72 -2.81865 1.64984 0
M  V30 13333 H 1213.38 -1.51569 3.338 0
M  V30 13334 H 1213.03 -3.97809 3.07826 0
M  V30 13335 H 1212.73 -3.45342 4.75408 0
M  V30 13336 H 1214.25 -4.2909 4.34413 0
M  V30 13337 H 1215.67 -2.2232 5.28438 0
M  V30 13338 H 1214.06 -1.60779 5.78161 0
M  V30 13339 H 1215.13 -0.576795 4.81457 0
M  V30 13340 N 1216.48 -1.54033 -0.333429 0
M  V30 13341 C 1217.41 -1.7756 -1.43345 0
M  V30 13342 C 1218.39 -0.625126 -1.50103 0
M  V30 13343 O 1219.57 -0.861444 -1.67665 0
M  V30 13344 C 1216.7 -1.88332 -2.81511 0
M  V30 13345 C 1215.74 -3.10556 -2.92331 0
M  V30 13346 S 1216.58 -4.69385 -2.57755 0
M  V30 13347 C 1217.73 -4.8305 -3.98011 0
M  V30 13348 H 1217.97 -2.70584 -1.23172 0
M  V30 13349 H 1215.5 -1.4503 -0.529691 0
M  V30 13350 H 1217.46 -1.95224 -3.61106 0
M  V30 13351 H 1216.12 -0.963031 -2.98972 0
M  V30 13352 H 1215.31 -3.14798 -3.93596 0
M  V30 13353 H 1214.91 -3.01943 -2.20696 0
M  V30 13354 H 1217.21 -4.65081 -4.92652 0
M  V30 13355 H 1218.15 -5.85148 -3.98757 0
M  V30 13356 H 1218.56 -4.11427 -3.86507 0
M  V30 13357 N 1217.95 0.594978 -1.45938 0
M  V30 13358 C 1219.18 1.37994 -1.5416 0
M  V30 13359 C 1219.6 1.87954 -0.17848 0
M  V30 13360 O 1218.95 1.62932 0.822161 0
M  V30 13361 C 1219.01 2.57586 -2.53637 0
M  V30 13362 O 1218.73 2.09698 -3.84653 0
M  V30 13363 C 1220.23 3.50292 -2.71681 0
M  V30 13364 H 1217.45 0.421983 -0.5217 0
M  V30 13365 H 1219.99 0.724459 -1.91238 0
M  V30 13366 H 1218.15 3.19149 -2.19597 0
M  V30 13367 H 1218.56 2.87492 -4.3869 0
M  V30 13368 H 1220.03 4.30717 -3.45234 0
M  V30 13369 H 1220.51 4.01444 -1.78156 0
M  V30 13370 H 1221.12 2.94573 -3.06768 0
M  V30 13371 N 1219.43 1.33438 0.838571 0
M  V30 13372 C 1220.85 1.12779 1.12929 0
M  V30 13373 C 1221.05 -0.0811188 2.01337 0
M  V30 13374 O 1220.1 -0.761294 2.4075 0
M  V30 13375 C 1221.42 2.41537 1.7911 0
M  V30 13376 C 1222.97 2.47447 1.91674 0
M  V30 13377 C 1223.44 3.76167 2.6127 0
M  V30 13378 N 1224.93 3.7724 2.68783 0
M  V30 13379 C 1225.67 4.7355 3.23323 0
M  V30 13380 N 1225.16 5.80235 3.78549 0
M  V30 13381 N 1226.96 4.61025 3.21578 0
M  V30 13382 H 1219.11 2.10921 0.250187 0
M  V30 13383 H 1221.37 0.931986 0.17351 0
M  V30 13384 H 1221.08 3.30006 1.21609 0
M  V30 13385 H 1220.95 2.53709 2.79127 0
M  V30 13386 H 1223.34 1.59427 2.48328 0
M  V30 13387 H 1223.42 2.39216 0.906058 0
M  V30 13388 H 1223.06 4.64569 2.05275 0
M  V30 13389 H 1222.99 3.81675 3.62811 0
M  V30 13390 H 1225.48 3.00138 2.29621 0
M  V30 13391 H 1225.8 6.49759 4.1837 0
M  V30 13392 H 1224.14 5.83969 3.76836 0
M  V30 13393 H 1227.33 3.76836 2.77691 0
M  V30 13394 H 1227.5 5.36253 3.63781 0
M  V30 13395 N 1220.91 -1.05686 1.16912 0
M  V30 13396 C 1222.15 -1.80177 0.965182 0
M  V30 13397 C 1222.51 -1.85437 -0.497698 0
M  V30 13398 O 1223.72 -2.5597 -0.82054 0
M  V30 13399 C 1221.99 -3.20441 1.58279 0
M  V30 13400 S 1223.55 -4.11472 1.52435 0
M  V30 13401 H 1220.36 -0.620595 0.346962 0
M  V30 13402 H 1222.97 -1.26841 1.48767 0
M  V30 13403 H 1221.67 -3.14211 2.64006 0
M  V30 13404 H 1221.2 -3.78853 1.05989 0
M  V30 13405 H 1223.22 -4.93373 0.528876 0
M  V30 13406 N 1222.39 -0.968567 -1.24324 0
M  V30 13407 C 1223.32 -0.444065 -2.23838 0
M  V30 13408 C 1224.3 0.482311 -1.55282 0
M  V30 13409 O 1225.48 0.413489 -1.83909 0
M  V30 13410 C 1222.61 0.358874 -3.36793 0
M  V30 13411 C 1221.66 -0.509913 -4.23441 0
M  V30 13412 S 1222.49 -1.95064 -4.98708 0
M  V30 13413 C 1223.65 -1.15652 -6.15122 0
M  V30 13414 H 1223.88 -1.28738 -2.67981 0
M  V30 13415 H 1221.41 -0.773665 -1.33618 0
M  V30 13416 H 1223.37 0.816164 -4.02305 0
M  V30 13417 H 1222.03 1.17717 -2.91207 0
M  V30 13418 H 1221.22 0.106617 -5.03887 0
M  V30 13419 H 1220.83 -0.902967 -3.62936 0
M  V30 13420 H 1223.12 -0.411966 -6.76246 0
M  V30 13421 H 1224.06 -1.93539 -6.81137 0
M  V30 13422 H 1224.47 -0.680507 -5.60383 0
M  V30 13423 N 1223.87 1.39211 -0.738786 0
M  V30 13424 C 1224.81 2.32424 -0.0904601 0
M  V30 13425 C 1225.81 1.53258 0.721694 0
M  V30 13426 O 1227.01 1.68895 0.622454 0
M  V30 13427 H 1223.39 0.751927 -0.010453 0
M  V30 13428 H 1225.36 2.84726 -0.892945 0
M  V30 13429 C 1224.11 3.38377 0.799783 0
M  V30 13430 H 1223.43 3.99375 0.18424 0
M  V30 13431 H 1224.87 4.0604 1.22096 0
M  V30 13432 C 1223.33 2.75734 1.93578 0
M  V30 13433 O 1223.86 2.63876 3.02874 0
M  V30 13434 N 1222.07 2.33764 1.72634 0
M  V30 13435 H 1221.61 2.43609 0.837413 0
M  V30 13436 H 1221.57 1.92191 2.48817 0
M  V30 13437 N 1225.34 0.486708 1.49896 0
M  V30 13438 C 1226.57 -0.0599944 2.06513 0
M  V30 13439 C 1226.98 -1.32662 1.34898 0
M  V30 13440 O 1226.33 -1.78915 0.416565 0
M  V30 13441 C 1226.39 -0.39838 3.57286 0
M  V30 13442 C 1226.05 0.768465 4.50493 0
M  V30 13443 C 1227.05 1.65495 4.92856 0
M  V30 13444 C 1224.73 0.96322 4.92978 0
M  V30 13445 C 1226.73 2.72046 5.76429 0
M  V30 13446 C 1224.41 2.03193 5.7633 0
M  V30 13447 C 1225.41 2.9089 6.17958 0
M  V30 13448 O 1225.1 3.95919 6.99645 0
M  V30 13449 H 1224.83 0.0107865 0.675914 0
M  V30 13450 H 1227.39 0.679087 1.93849 0
M  V30 13451 H 1225.62 -1.19086 3.67907 0
M  V30 13452 H 1227.31 -0.882003 3.96201 0
M  V30 13453 H 1228.07 1.51624 4.6069 0
M  V30 13454 H 1223.95 0.29004 4.60087 0
M  V30 13455 H 1227.49 3.40526 6.08841 0
M  V30 13456 H 1223.39 2.17064 6.07909 0
M  V30 13457 H 1224.16 3.93097 7.17925 0
M  V30 13458 N 1226.82 -1.56058 0.219941 0
M  V30 13459 C 1228.1 -1.90087 -0.46112 0
M  V30 13460 C 1228.48 -1.13705 -1.77861 0
M  V30 13461 O 1227.83 -0.245868 -2.27173 0
M  V30 13462 C 1228.04 -3.42786 -0.655644 0
M  V30 13463 C 1229.39 -4.13517 -0.963803 0
M  V30 13464 O 1230.41 -3.48376 -0.742488 0
M  V30 13465 O 1229.27 -5.28692 -1.38374 0
M  V30 13466 H 1226.36 -0.790311 -0.243595 0
M  V30 13467 H 1228.91 -1.67665 0.262005 0
M  V30 13468 H 1227.68 -3.90341 0.273738 0
M  V30 13469 H 1227.3 -3.70982 -1.43032 0
M  V30 13470 N 1228.3 0.053464 -1.57509 0
M  V30 13471 C 1229.71 0.603099 -1.76691 0
M  V30 13472 C 1230.06 1.76934 -0.847861 0
M  V30 13473 O 1229.19 2.16369 -0.0364962 0
M  V30 13474 C 1229.78 1.10084 -3.20417 0
M  V30 13475 C 1228.34 1.59618 -3.4088 0
M  V30 13476 C 1227.49 0.523516 -2.72313 0
M  V30 13477 H 1230.44 -0.172751 -1.57757 0
M  V30 13478 H 1230.46 1.9691 -3.25587 0
M  V30 13479 H 1229.97 0.251818 -3.87282 0
M  V30 13480 H 1228.07 2.46786 -2.79155 0
M  V30 13481 H 1228.19 1.6605 -4.49404 0
M  V30 13482 H 1226.55 0.972886 -2.35387 0
M  V30 13483 H 1227.33 -0.315629 -3.41846 0
M  V30 13484 N 1229.78 1.54207 0.325255 0
M  V30 13485 C 1230.73 1.84197 1.42036 0
M  V30 13486 C 1231.72 0.71375 1.53629 0
M  V30 13487 O 1232.93 0.897385 1.56035 0
M  V30 13488 H 1229.3 0.583848 0.473947 0
M  V30 13489 H 1231.27 2.7578 1.13965 0
M  V30 13490 C 1230.02 2.08459 2.78281 0
M  V30 13491 H 1229.35 2.94734 2.70133 0
M  V30 13492 H 1230.79 2.33398 3.5398 0
M  V30 13493 C 1229.24 0.875615 3.25322 0
M  V30 13494 O 1229.77 0.0840387 4.01612 0
M  V30 13495 N 1227.98 0.687721 2.82345 0
M  V30 13496 H 1227.53 1.33307 2.20425 0
M  V30 13497 H 1227.49 -0.119687 3.14172 0
M  V30 13498 N 1231.26 -0.58723 1.46251 0
M  V30 13499 C 1232.19 -1.71103 1.52501 0
M  V30 13500 C 1233.2 -1.57454 0.413772 0
M  V30 13501 O 1234.39 -1.64962 0.681902 0
M  V30 13502 C 1231.49 -3.0931 1.38493 0
M  V30 13503 C 1230.66 -3.49005 2.63655 0
M  V30 13504 C 1229.72 -4.66255 2.43911 0
M  V30 13505 O 1228.75 -4.72344 3.17616 0
M  V30 13506 N 1229.95 -5.60843 1.49784 0
M  V30 13507 H 1232.72 -1.66198 2.49396 0
M  V30 13508 H 1230.28 -0.773087 1.4225 0
M  V30 13509 H 1232.27 -3.85535 1.23064 0
M  V30 13510 H 1230.84 -3.08608 0.497963 0
M  V30 13511 H 1230.06 -2.62533 2.94058 0
M  V30 13512 H 1231.35 -3.72291 3.4681 0
M  V30 13513 H 1230.75 -5.58656 0.889972 0
M  V30 13514 H 1229.3 -6.36517 1.4032 0
M  V30 13515 N 1232.74 -1.33881 -0.831482 0
M  V30 13516 C 1234.15 -1.13376 -1.1233 0
M  V30 13517 C 1234.35 0.0704402 -2.01377 0
M  V30 13518 O 1233.41 0.748516 -2.4115 0
M  V30 13519 C 1234.72 -2.42484 -1.77826 0
M  V30 13520 C 1236.27 -2.4846 -1.90359 0
M  V30 13521 C 1236.74 -3.77548 -2.59272 0
M  V30 13522 N 1238.23 -3.7866 -2.66778 0
M  V30 13523 C 1238.97 -4.75258 -3.20807 0
M  V30 13524 N 1238.47 -5.82234 -3.75466 0
M  V30 13525 N 1240.26 -4.62724 -3.19128 0
M  V30 13526 H 1232.41 -2.11051 -0.238998 0
M  V30 13527 H 1234.67 -0.932893 -0.168565 0
M  V30 13528 H 1234.38 -3.30647 -1.19857 0
M  V30 13529 H 1234.25 -2.55186 -2.77777 0
M  V30 13530 H 1236.64 -1.60742 -2.47479 0
M  V30 13531 H 1236.72 -2.39693 -0.893359 0
M  V30 13532 H 1236.36 -4.65651 -2.02808 0
M  V30 13533 H 1236.29 -3.83594 -3.60781 0
M  V30 13534 H 1238.79 -3.01351 -2.28026 0
M  V30 13535 H 1239.1 -6.51968 -4.14918 0
M  V30 13536 H 1237.44 -5.85959 -3.73733 0
M  V30 13537 H 1240.63 -3.78303 -2.75688 0
M  V30 13538 H 1240.81 -5.38175 -3.60932 0
M  V30 13539 N 1234.21 1.05064 -1.1747 0
M  V30 13540 C 1235.62 1.59547 -0.969628 0
M  V30 13541 C 1235.98 1.90153 0.483332 0
M  V30 13542 O 1235.1 1.68415 1.35887 0
M  V30 13543 C 1235.7 2.89877 -1.75377 0
M  V30 13544 C 1234.25 3.41013 -1.59332 0
M  V30 13545 C 1233.4 2.1473 -1.7546 0
M  V30 13546 H 1236.35 0.878595 -1.3216 0
M  V30 13547 H 1236.37 3.59834 -1.23691 0
M  V30 13548 H 1235.89 2.67569 -2.8112 0
M  V30 13549 H 1233.99 3.68355 -0.560827 0
M  V30 13550 H 1234.1 4.15512 -2.38509 0
M  V30 13551 H 1232.46 2.25553 -1.18313 0
M  V30 13552 H 1233.25 1.9489 -2.82618 0
M  V30 13553 N 1235.69 0.975146 1.23809 0
M  V30 13554 C 1236.94 0.641124 1.92083 0
M  V30 13555 C 1237.27 -0.824671 1.76152 0
M  V30 13556 O 1236.52 -1.6097 1.11298 0
M  V30 13557 C 1236.82 0.971016 3.43956 0
M  V30 13558 C 1236.49 2.42616 3.80063 0
M  V30 13559 C 1235.15 2.82386 3.8963 0
M  V30 13560 C 1237.5 3.37019 3.97577 0
M  V30 13561 C 1234.83 4.15585 4.14133 0
M  V30 13562 C 1237.18 4.69855 4.23579 0
M  V30 13563 C 1235.84 5.09391 4.31366 0
M  V30 13564 H 1235.11 0.234604 0.702881 0
M  V30 13565 H 1237.76 1.22803 1.46941 0
M  V30 13566 H 1236.07 0.301965 3.90635 0
M  V30 13567 H 1237.76 0.690858 3.95004 0
M  V30 13568 H 1234.35 2.10782 3.73187 0
M  V30 13569 H 1238.54 3.07474 3.89581 0
M  V30 13570 H 1233.79 4.45831 4.18383 0
M  V30 13571 H 1237.97 5.42966 4.36074 0
M  V30 13572 H 1235.59 6.12624 4.50106 0
M  V30 13573 N 1237.17 -1.38817 0.746158 0
M  V30 13574 C 1238.42 -2.0028 0.299016 0
M  V30 13575 C 1238.74 -1.59221 -1.11709 0
M  V30 13576 O 1238 -0.817595 -1.77803 0
M  V30 13577 C 1238.3 -3.55571 0.361086 0
M  V30 13578 C 1237.96 -4.16317 1.73179 0
M  V30 13579 C 1236.63 -4.32622 2.10693 0
M  V30 13580 C 1238.98 -4.49905 2.63126 0
M  V30 13581 C 1236.31 -4.79808 3.3764 0
M  V30 13582 C 1238.66 -4.98504 3.89457 0
M  V30 13583 C 1237.32 -5.13016 4.27049 0
M  V30 13584 H 1236.59 -0.732877 0.109418 0
M  V30 13585 H 1239.24 -1.65977 0.955186 0
M  V30 13586 H 1237.54 -3.89966 -0.378655 0
M  V30 13587 H 1239.24 -4.01 -0.00319228 0
M  V30 13588 H 1235.83 -4.04035 1.43015 0
M  V30 13589 H 1240.02 -4.36916 2.3541 0
M  V30 13590 H 1235.27 -4.89229 3.66695 0
M  V30 13591 H 1239.45 -5.23464 4.59302 0
M  V30 13592 H 1237.07 -5.4934 5.25481 0
M  V30 13593 N 1238.65 -0.49465 -1.49636 0
M  V30 13594 C 1240.06 -0.150217 -1.58892 0
M  V30 13595 C 1240.26 1.34485 -1.50053 0
M  V30 13596 O 1239.32 2.12026 -1.37118 0
M  V30 13597 C 1240.63 -0.721372 -2.91919 0
M  V30 13598 C 1242.18 -0.686908 -3.0537 0
M  V30 13599 C 1242.66 -1.23601 -4.41006 0
M  V30 13600 N 1244.15 -1.19644 -4.47481 0
M  V30 13601 C 1244.88 -1.59157 -5.50869 0
M  V30 13602 N 1244.38 -2.06232 -6.61393 0
M  V30 13603 N 1246.17 -1.50612 -5.41546 0
M  V30 13604 H 1238.32 -1.46675 -1.53624 0
M  V30 13605 H 1240.58 -0.608003 -0.727349 0
M  V30 13606 H 1240.29 -1.76964 -3.03935 0
M  V30 13607 H 1240.16 -0.178199 -3.76779 0
M  V30 13608 H 1242.55 0.352508 -2.92987 0
M  V30 13609 H 1242.63 -1.26716 -2.22209 0
M  V30 13610 H 1242.28 -2.27418 -4.5414 0
M  V30 13611 H 1242.21 -0.631765 -5.22797 0
M  V30 13612 H 1244.7 -0.851443 -3.68183 0
M  V30 13613 H 1245.01 -2.34469 -7.36372 0
M  V30 13614 H 1243.36 -2.10202 -6.6245 0
M  V30 13615 H 1246.55 -1.13659 -4.54092 0
M  V30 13616 H 1246.72 -1.8173 -6.21995 0
M  V30 13617 N 1240.13 1.55939 -0.228214 0
M  V30 13618 C 1241.09 2.1932 0.665681 0
M  V30 13619 C 1242.09 1.15699 1.11671 0
M  V30 13620 O 1243.28 1.40893 1.02444 0
M  V30 13621 C 1240.41 2.82185 1.9127 0
M  V30 13622 H 1241.6 2.99687 0.112986 0
M  V30 13623 H 1239.16 1.56285 0.0213865 0
M  V30 13624 H 1239.89 2.05706 2.5071 0
M  V30 13625 H 1239.68 3.58073 1.5977 0
M  V30 13626 H 1241.17 3.30748 2.54942 0
M  V30 13627 N 1241.6 -0.0451101 1.57535 0
M  V30 13628 C 1242.85 -0.738072 1.87711 0
M  V30 13629 C 1243.17 -1.7737 0.824579 0
M  V30 13630 O 1244.37 -2.51812 1.01503 0
M  V30 13631 C 1242.83 -1.36373 3.33062 0
M  V30 13632 C 1242.44 -0.365283 4.46508 0
M  V30 13633 C 1244.18 -2.0375 3.72406 0
M  V30 13634 C 1242.09 -0.998371 5.82912 0
M  V30 13635 H 1241.02 -0.279413 0.700317 0
M  V30 13636 H 1243.67 0.00802425 1.83498 0
M  V30 13637 H 1242.05 -2.15899 3.31969 0
M  V30 13638 H 1243.22 0.402102 4.59042 0
M  V30 13639 H 1241.54 0.205505 4.15893 0
M  V30 13640 H 1244.14 -2.51939 4.71625 0
M  V30 13641 H 1244.48 -2.84869 3.03571 0
M  V30 13642 H 1245.01 -1.3102 3.75604 0
M  V30 13643 H 1241.75 -0.226935 6.55107 0
M  V30 13644 H 1241.27 -1.73598 5.74129 0
M  V30 13645 H 1242.95 -1.51044 6.29122 0
M  V30 13646 N 1243.08 -1.54377 -0.317073 0
M  V30 13647 C 1244.02 -1.7907 -1.41453 0
M  V30 13648 C 1244.99 -0.641012 -1.49432 0
M  V30 13649 O 1246.18 -0.879179 -1.66741 0
M  V30 13650 C 1243.3 -1.91307 -2.79498 0
M  V30 13651 C 1242.35 -3.13639 -2.8902 0
M  V30 13652 S 1243.18 -4.72093 -2.52762 0
M  V30 13653 C 1244.34 -4.87245 -3.92866 0
M  V30 13654 H 1244.57 -2.71875 -1.20296 0
M  V30 13655 H 1242.11 -1.45583 -0.514279 0
M  V30 13656 H 1244.06 -1.99043 -3.59015 0
M  V30 13657 H 1242.72 -0.994687 -2.97934 0
M  V30 13658 H 1241.92 -3.18955 -3.90235 0
M  V30 13659 H 1241.52 -3.04266 -2.17481 0
M  V30 13660 H 1243.81 -4.7028 -4.87691 0
M  V30 13661 H 1244.75 -5.89344 -3.92529 0
M  V30 13662 H 1245.16 -4.15504 -3.82122 0
M  V30 13663 N 1244.56 0.579466 -1.4656 0
M  V30 13664 C 1245.98 0.903163 -1.31587 0
M  V30 13665 C 1246.18 1.99406 -0.28972 0
M  V30 13666 O 1245.23 2.50632 0.30658 0
M  V30 13667 C 1246.55 1.31745 -2.70303 0
M  V30 13668 C 1248.09 1.43012 -2.78418 0
M  V30 13669 C 1248.57 1.87805 -4.17724 0
M  V30 13670 N 1250.06 1.94993 -4.20157 0
M  V30 13671 C 1250.79 2.30934 -5.2484 0
M  V30 13672 N 1250.29 2.65645 -6.39847 0
M  V30 13673 N 1252.08 2.31517 -5.12207 0
M  V30 13674 H 1244.23 -0.141111 -2.11931 0
M  V30 13675 H 1246.5 -0.000460304 -0.948 0
M  V30 13676 H 1246.2 0.589864 -3.46718 0
M  V30 13677 H 1246.08 2.2783 -3.00622 0
M  V30 13678 H 1248.46 2.14856 -2.02289 0
M  V30 13679 H 1248.55 0.451701 -2.5178 0
M  V30 13680 H 1248.19 1.16539 -4.94349 0
M  V30 13681 H 1248.12 2.86611 -4.41771 0
M  V30 13682 H 1250.61 1.70645 -3.37178 0
M  V30 13683 H 1250.92 2.92032 -7.15498 0
M  V30 13684 H 1249.27 2.63276 -6.43204 0
M  V30 13685 H 1252.46 2.03824 -4.21394 0
M  V30 13686 H 1252.63 2.59199 -5.93902 0
M  V30 13687 N 1246.04 1.3432 0.824371 0
M  V30 13688 C 1247.32 1.17178 1.56616 0
M  V30 13689 C 1247.7 -0.256195 2.0954 0
M  V30 13690 O 1247.04 -1.25732 1.90798 0
M  V30 13691 C 1247.25 2.22511 2.68867 0
M  V30 13692 C 1248.6 2.57414 3.37673 0
M  V30 13693 O 1249.63 2.2129 2.79122 0
M  V30 13694 O 1248.48 3.19462 4.43403 0
M  V30 13695 H 1245.58 0.454141 0.691147 0
M  V30 13696 H 1248.12 1.45948 0.865869 0
M  V30 13697 H 1246.9 3.18366 2.27505 0
M  V30 13698 H 1246.52 1.9491 3.46548 0
M  V30 13699 N 1247.52 -1.0444 1.18026 0
M  V30 13700 C 1248.77 -1.7697 0.9677 0
M  V30 13701 C 1249.08 -1.88995 -0.503994 0
M  V30 13702 O 1250.28 -2.58342 -0.834968 0
M  V30 13703 C 1248.74 -3.1816 1.68232 0
M  V30 13704 C 1248.35 -3.14241 3.19307 0
M  V30 13705 C 1250.09 -3.95095 1.55244 0
M  V30 13706 C 1248 -4.50266 3.83425 0
M  V30 13707 H 1246.93 -0.663355 0.358436 0
M  V30 13708 H 1249.58 -1.17003 1.4136 0
M  V30 13709 H 1247.96 -3.78501 1.16418 0
M  V30 13710 H 1249.14 -2.63373 3.78115 0
M  V30 13711 H 1247.45 -2.50805 3.32394 0
M  V30 13712 H 1250.05 -4.95681 2.00511 0
M  V30 13713 H 1250.39 -4.13236 0.504125 0
M  V30 13714 H 1250.92 -3.4132 2.04317 0
M  V30 13715 H 1247.66 -4.37329 4.88286 0
M  V30 13716 H 1247.18 -5.01251 3.29404 0
M  V30 13717 H 1248.86 -5.1919 3.86071 0
M  V30 13718 N 1248.99 -0.981699 -1.2329 0
M  V30 13719 C 1249.94 -0.515432 -2.26817 0
M  V30 13720 C 1250.94 0.428204 -1.63899 0
M  V30 13721 O 1252.14 0.301954 -1.77449 0
M  V30 13722 H 1248.52 -0.148257 -0.737241 0
M  V30 13723 H 1250.49 -1.40027 -2.63505 0
M  V30 13724 C 1249.24 0.165266 -3.47307 0
M  V30 13725 H 1248.56 -0.55176 -3.95974 0
M  V30 13726 H 1250 0.45513 -4.2155 0
M  V30 13727 C 1248.46 1.39693 -3.06574 0
M  V30 13728 O 1248.99 2.49308 -3.14974 0
M  V30 13729 N 1247.2 1.26806 -2.61474 0
M  V30 13730 H 1246.74 0.376161 -2.54839 0
M  V30 13731 H 1246.7 2.09324 -2.34587 0
M  V30 13732 N 1250.47 1.3842 -0.753509 0
M  V30 13733 C 1251.42 2.30457 -0.12574 0
M  V30 13734 C 1252.39 1.50173 0.709728 0
M  V30 13735 O 1253.57 1.78804 0.665872 0
M  V30 13736 C 1250.71 3.36593 0.761503 0
M  V30 13737 C 1249.83 4.31909 -0.0885848 0
M  V30 13738 C 1248.96 5.25116 0.801655 0
M  V30 13739 C 1248 6.12078 -0.0520719 0
M  V30 13740 N 1247.14 6.97583 0.795124 0
M  V30 13741 H 1251.98 2.83567 -0.916187 0
M  V30 13742 H 1249.52 1.39609 -0.463436 0
M  V30 13743 H 1251.47 3.96738 1.29054 0
M  V30 13744 H 1250.1 2.84894 1.51774 0
M  V30 13745 H 1249.16 3.73227 -0.735249 0
M  V30 13746 H 1250.47 4.93161 -0.747899 0
M  V30 13747 H 1249.62 5.90377 1.39786 0
M  V30 13748 H 1248.36 4.6423 1.4947 0
M  V30 13749 H 1247.37 5.45813 -0.660946 0
M  V30 13750 H 1248.59 6.75032 -0.742178 0
M  V30 13751 H 1246.54 6.39246 1.47312 0
M  V30 13752 H 1246.45 7.55754 0.192705 0
M  V30 13753 H 1247.72 7.67254 1.3763 0
M  V30 13754 N 1251.95 0.502579 1.49372 0
M  V30 13755 C 1252.88 -0.264307 2.31999 0
M  V30 13756 C 1253.86 -0.96107 1.40348 0
M  V30 13757 O 1255.05 -0.952167 1.69255 0
M  V30 13758 C 1252.18 -1.32822 3.20898 0
M  V30 13759 C 1251.13 -0.751236 4.21355 0
M  V30 13760 C 1250.46 -1.91578 4.99201 0
M  V30 13761 C 1251.76 0.258764 5.21659 0
M  V30 13762 H 1253.45 0.425391 2.96363 0
M  V30 13763 H 1251 0.206022 1.42519 0
M  V30 13764 H 1252.95 -1.87245 3.77515 0
M  V30 13765 H 1251.67 -2.04712 2.54481 0
M  V30 13766 H 1250.33 -0.228743 3.65886 0
M  V30 13767 H 1249.98 -2.62241 4.2923 0
M  V30 13768 H 1249.68 -1.53578 5.67175 0
M  V30 13769 H 1251.2 -2.46432 5.58663 0
M  V30 13770 H 1252.62 -0.197385 5.7296 0
M  V30 13771 H 1251.02 0.554681 5.97531 0
M  V30 13772 H 1252.09 1.1741 4.70471 0
M  V30 13773 N 1253.43 -1.55816 0.23648 0
M  V30 13774 C 1254.34 -2.24576 -0.678439 0
M  V30 13775 C 1255.35 -1.25836 -1.20172 0
M  V30 13776 O 1256.53 -1.58686 -1.24019 0
M  V30 13777 C 1253.6 -2.92376 -1.86325 0
M  V30 13778 C 1252.66 -4.06499 -1.38047 0
M  V30 13779 C 1251.89 -4.71057 -2.50881 0
M  V30 13780 O 1252.11 -4.34652 -3.69369 0
M  V30 13781 O 1251.05 -5.59768 -2.21232 0
M  V30 13782 H 1254.87 -3.03452 -0.122601 0
M  V30 13783 H 1252.46 -1.49399 0.00540803 0
M  V30 13784 H 1254.34 -3.35117 -2.55488 0
M  V30 13785 H 1253.01 -2.16448 -2.40691 0
M  V30 13786 H 1251.92 -3.68296 -0.656422 0
M  V30 13787 H 1253.25 -4.84214 -0.883024 0
M  V30 13788 N 1254.91 0.036755 -1.57557 0
M  V30 13789 C 1255.82 1.05687 -2.09446 0
M  V30 13790 C 1256.83 1.40137 -1.03139 0
M  V30 13791 O 1258.01 1.49611 -1.34828 0
M  V30 13792 C 1255.07 2.34114 -2.55717 0
M  V30 13793 C 1254.13 2.06316 -3.76473 0
M  V30 13794 C 1253.37 3.2862 -4.20529 0
M  V30 13795 O 1253.59 4.3902 -3.64167 0
M  V30 13796 O 1252.52 3.14772 -5.13033 0
M  V30 13797 H 1256.35 0.64593 -2.96751 0
M  V30 13798 H 1253.94 0.253235 -1.47238 0
M  V30 13799 H 1255.82 3.09631 -2.85844 0
M  V30 13800 H 1254.49 2.74519 -1.71526 0
M  V30 13801 H 1253.4 1.28392 -3.51378 0
M  V30 13802 H 1254.73 1.70772 -4.61625 0
M  V30 13803 N 1256.39 1.54543 0.308881 0
M  V30 13804 C 1257.32 1.81309 1.40212 0
M  V30 13805 C 1258.33 0.69568 1.47187 0
M  V30 13806 O 1259.52 0.973034 1.49647 0
M  V30 13807 C 1256.62 1.92901 2.78644 0
M  V30 13808 C 1255.79 3.23222 2.94697 0
M  V30 13809 C 1254.85 3.25329 4.13579 0
M  V30 13810 O 1253.88 3.989 4.06039 0
M  V30 13811 N 1255.08 2.50158 5.23833 0
M  V30 13812 H 1257.84 2.75659 1.1761 0
M  V30 13813 H 1255.41 1.54021 0.498925 0
M  V30 13814 H 1257.4 1.91721 3.56406 0
M  V30 13815 H 1255.97 1.05582 2.9423 0
M  V30 13816 H 1255.19 3.37241 2.04113 0
M  V30 13817 H 1256.48 4.09238 3.02328 0
M  V30 13818 H 1255.87 1.90002 5.32838 0
M  V30 13819 H 1254.43 2.5474 5.99959 0
M  V30 13820 N 1257.86 -0.571685 1.46866 0
M  V30 13821 C 1258.81 -1.70098 1.58649 0
M  V30 13822 C 1259.81 -1.63191 0.45443 0
M  V30 13823 O 1261.01 -1.68551 0.63171 0
M  V30 13824 H 1257.39 -0.56258 0.499007 0
M  V30 13825 H 1259.36 -1.57293 2.53577 0
M  V30 13826 C 1258.11 -3.08475 1.60433 0
M  V30 13827 H 1257.43 -3.14465 2.46884 0
M  V30 13828 H 1258.87 -3.87221 1.7273 0
M  V30 13829 C 1257.33 -3.35231 0.334948 0
M  V30 13830 O 1257.86 -3.97633 -0.570149 0
M  V30 13831 N 1256.06 -2.8977 0.219441 0
M  V30 13832 H 1255.61 -2.39168 0.956891 0
M  V30 13833 H 1255.57 -3.08044 -0.628975 0
M  V30 13834 N 1259.34 -1.34755 -0.817236 0
M  V30 13835 C 1260.75 -1.24594 -1.39044 0
M  V30 13836 C 1261.1 0.126184 -1.95794 0
M  V30 13837 O 1260.23 1.02675 -1.90491 0
M  V30 13838 C 1260.82 -2.25592 -2.52772 0
M  V30 13839 C 1259.38 -2.19204 -3.05984 0
M  V30 13840 C 1258.53 -2.11884 -1.78886 0
M  V30 13841 H 1261.48 -1.46039 -0.621155 0
M  V30 13842 H 1261.5 -1.87622 -3.31026 0
M  V30 13843 H 1261.01 -3.25447 -2.11438 0
M  V30 13844 H 1259.11 -1.22725 -3.51809 0
M  V30 13845 H 1259.23 -3.10707 -3.64689 0
M  V30 13846 H 1257.59 -1.57694 -2.00012 0
M  V30 13847 H 1258.37 -3.13582 -1.39719 0
M  V30 13848 N 1260.82 1.03812 -1.18578 0
M  V30 13849 C 1262.1 1.74062 -0.892288 0
M  V30 13850 C 1262.48 2.02267 0.604256 0
M  V30 13851 O 1261.82 1.66988 1.55972 0
M  V30 13852 C 1262.03 3.024 -1.74228 0
M  V30 13853 C 1263.38 3.76088 -1.97087 0
M  V30 13854 O 1264.41 3.12305 -1.71302 0
M  V30 13855 O 1263.27 4.90732 -2.40509 0
M  V30 13856 H 1260.36 0.757567 -0.331695 0
M  V30 13857 H 1262.91 1.09855 -1.29345 0
M  V30 13858 H 1261.68 2.77713 -2.75665 0
M  V30 13859 H 1261.3 3.74346 -1.3398 0
M  V30 13860 N 1262.3 0.988223 1.22768 0
M  V30 13861 C 1263.55 0.656941 1.90702 0
M  V30 13862 C 1263.86 -0.814058 1.77855 0
M  V30 13863 O 1265.07 -1.25673 2.40663 0
M  V30 13864 C 1263.52 1.12445 3.41883 0
M  V30 13865 C 1263.13 2.62034 3.63376 0
M  V30 13866 C 1264.87 0.867277 4.15546 0
M  V30 13867 C 1262.78 3.02412 5.08233 0
M  V30 13868 H 1261.71 0.242012 0.714105 0
M  V30 13869 H 1264.36 1.19716 1.39069 0
M  V30 13870 H 1262.74 0.512386 3.92671 0
M  V30 13871 H 1263.92 3.28546 3.23101 0
M  V30 13872 H 1262.23 2.85583 3.03037 0
M  V30 13873 H 1264.83 1.14471 5.22303 0
M  V30 13874 H 1265.17 -0.196611 4.15835 0
M  V30 13875 H 1265.71 1.4413 3.70771 0
M  V30 13876 H 1262.44 4.07957 5.1308 0
M  V30 13877 H 1261.96 2.406 5.49429 0
M  V30 13878 H 1263.64 2.93452 5.76624 0
M  V30 13879 N 1263.78 -1.38018 0.760839 0
M  V30 13880 C 1265.02 -2.00248 0.320716 0
M  V30 13881 C 1265.35 -1.60259 -1.09684 0
M  V30 13882 O 1264.63 -0.843567 -1.75255 0
M  V30 13883 C 1264.91 -3.57254 0.451849 0
M  V30 13884 C 1264.77 -4.07185 1.91103 0
M  V30 13885 C 1266.08 -4.39843 -0.150439 0
M  V30 13886 H 1263.2 -0.727491 0.118007 0
M  V30 13887 H 1265.85 -1.63855 0.961842 0
M  V30 13888 H 1264 -3.88386 -0.0939672 0
M  V30 13889 H 1265.67 -3.86665 2.51571 0
M  V30 13890 H 1263.91 -3.59782 2.42362 0
M  V30 13891 H 1264.58 -5.16262 1.9539 0
M  V30 13892 H 1267.06 -4.14905 0.315145 0
M  V30 13893 H 1265.93 -5.48893 -0.0284853 0
M  V30 13894 H 1266.19 -4.24367 -1.23956 0
M  V30 13895 N 1265.25 -0.510493 -1.49103 0
M  V30 13896 C 1266.48 0.0293113 -2.07379 0
M  V30 13897 C 1266.9 1.29195 -1.36713 0
M  V30 13898 O 1266.26 1.76204 -0.426838 0
M  V30 13899 C 1266.31 0.25629 -3.59688 0
M  V30 13900 O 1265.41 1.32907 -3.90397 0
M  V30 13901 H 1264.75 -0.0304449 -0.663302 0
M  V30 13902 H 1267.28 -0.712832 -1.91781 0
M  V30 13903 H 1267.29 0.484915 -4.05108 0
M  V30 13904 H 1265.97 -0.666163 -4.1053 0
M  V30 13905 H 1264.55 1.08464 -3.56777 0
M  V30 13906 N 1266.73 1.55688 -0.24474 0
M  V30 13907 C 1267.64 2.24933 0.666519 0
M  V30 13908 C 1268.66 1.26471 1.19503 0
M  V30 13909 O 1269.83 1.59342 1.23176 0
M  V30 13910 C 1266.9 2.9336 1.84772 0
M  V30 13911 C 1265.96 4.07225 1.35889 0
M  V30 13912 C 1265.19 4.72381 2.48379 0
M  V30 13913 O 1265.42 4.36605 3.67059 0
M  V30 13914 O 1264.35 5.60933 2.18261 0
M  V30 13915 H 1268.18 3.03513 0.106507 0
M  V30 13916 H 1265.76 1.49394 -0.0133309 0
M  V30 13917 H 1267.64 3.36468 2.53708 0
M  V30 13918 H 1266.32 2.17721 2.39539 0
M  V30 13919 H 1265.22 3.68639 0.636881 0
M  V30 13920 H 1266.56 4.84676 0.857333 0
M  V30 13921 N 1268.21 -0.0283989 1.57574 0
M  V30 13922 C 1269.16 -1.02881 2.06601 0
M  V30 13923 C 1270.13 -1.35879 0.955308 0
M  V30 13924 O 1271.31 -1.46205 1.22592 0
M  V30 13925 C 1268.45 -2.32447 2.55073 0
M  V30 13926 C 1267.56 -2.05602 3.79937 0
M  V30 13927 C 1266.7 -3.29043 4.17018 0
M  V30 13928 C 1265.74 -2.97755 5.34797 0
M  V30 13929 N 1264.88 -4.1365 5.67308 0
M  V30 13930 H 1269.72 -0.603772 2.91819 0
M  V30 13931 H 1267.25 -0.286503 1.44283 0
M  V30 13932 H 1269.21 -3.08152 2.81244 0
M  V30 13933 H 1267.84 -2.72672 1.72771 0
M  V30 13934 H 1266.89 -1.2039 3.60847 0
M  V30 13935 H 1268.2 -1.78522 4.65759 0
M  V30 13936 H 1267.36 -4.13115 4.4432 0
M  V30 13937 H 1266.1 -3.59237 3.29849 0
M  V30 13938 H 1265.1 -2.12085 5.07247 0
M  V30 13939 H 1266.33 -2.68839 6.23621 0
M  V30 13940 H 1264.27 -4.43794 4.83097 0
M  V30 13941 H 1264.19 -3.89996 6.47641 0
M  V30 13942 H 1265.46 -4.98594 5.99186 0
M  V30 13943 N 1269.69 -1.54705 -0.300681 0
M  V30 13944 C 1270.63 -1.85678 -1.37084 0
M  V30 13945 C 1271.6 -0.70573 -1.50362 0
M  V30 13946 O 1272.79 -0.954385 -1.65215 0
M  V30 13947 C 1269.93 -2.10995 -2.73084 0
M  V30 13948 C 1269.04 -3.38621 -2.68254 0
M  V30 13949 C 1268.18 -3.53779 -3.9625 0
M  V30 13950 C 1267.22 -4.75195 -3.85818 0
M  V30 13951 N 1266.35 -4.87157 -5.05591 0
M  V30 13952 H 1271.19 -2.76967 -1.09971 0
M  V30 13953 H 1268.73 -1.37147 -0.531887 0
M  V30 13954 H 1270.69 -2.23669 -3.52176 0
M  V30 13955 H 1269.32 -1.22973 -2.98458 0
M  V30 13956 H 1268.37 -3.34566 -1.81025 0
M  V30 13957 H 1269.68 -4.27834 -2.56436 0
M  V30 13958 H 1268.84 -3.66119 -4.83779 0
M  V30 13959 H 1267.58 -2.62699 -4.10902 0
M  V30 13960 H 1266.58 -4.62888 -2.96673 0
M  V30 13961 H 1267.81 -5.67683 -3.72711 0
M  V30 13962 H 1265.75 -3.99001 -5.20706 0
M  V30 13963 H 1265.67 -5.70372 -4.96197 0
M  V30 13964 H 1266.94 -5.03854 -5.9477 0
M  V30 13965 N 1271.17 0.563888 -1.47167 0
M  V30 13966 C 1272.58 1.14603 -1.47388 0
M  V30 13967 C 1272.93 1.94907 -0.224916 0
M  V30 13968 O 1272.05 2.05745 0.670672 0
M  V30 13969 C 1272.65 2.08501 -2.67044 0
M  V30 13970 C 1271.21 2.62 -2.70246 0
M  V30 13971 C 1270.35 1.38244 -2.40383 0
M  V30 13972 H 1273.31 0.350833 -1.54774 0
M  V30 13973 H 1273.33 2.92272 -2.43634 0
M  V30 13974 H 1272.84 1.50027 -3.57929 0
M  V30 13975 H 1270.94 3.24292 -1.83482 0
M  V30 13976 H 1271.05 3.0345 -3.70749 0
M  V30 13977 H 1269.42 1.68692 -1.90827 0
M  V30 13978 H 1270.2 0.815726 -3.33468 0
M  V30 13979 N 1272.64 1.35187 0.810078 0
M  V30 13980 C 1273.61 1.27698 1.90331 0
M  V30 13981 C 1274.61 0.189216 1.59683 0
M  V30 13982 O 1275.8 0.442689 1.68481 0
M  V30 13983 C 1272.93 0.974631 3.26671 0
M  V30 13984 H 1274.12 2.24902 1.98392 0
M  V30 13985 H 1271.68 1.1966 1.00554 0
M  V30 13986 H 1272.41 0.0063068 3.24299 0
M  V30 13987 H 1272.2 1.76158 3.50301 0
M  V30 13988 H 1273.69 0.947743 4.06703 0
M  V30 13989 N 1274.12 -1.03182 1.19127 0
M  V30 13990 C 1275.35 -1.80165 1.01726 0
M  V30 13991 C 1275.77 -1.83742 -0.434095 0
M  V30 13992 O 1275.12 -1.27932 -1.30152 0
M  V30 13993 C 1275.17 -3.25354 1.57566 0
M  V30 13994 O 1274.89 -3.22042 2.9702 0
M  V30 13995 C 1276.4 -4.18948 1.44906 0
M  V30 13996 H 1273.62 -0.567078 0.358698 0
M  V30 13997 H 1276.16 -1.29982 1.57877 0
M  V30 13998 H 1274.31 -3.72738 1.0557 0
M  V30 13999 H 1274.73 -4.13061 3.23235 0
M  V30 14000 H 1276.2 -5.18723 1.88762 0
M  V30 14001 H 1276.68 -4.37383 0.399125 0
M  V30 14002 H 1277.29 -3.77435 1.96018 0
M  V30 14003 N 1275.6 -0.99472 -1.22242 0
M  V30 14004 C 1276.51 -0.555502 -2.27928 0
M  V30 14005 C 1277.53 0.396584 -1.6942 0
M  V30 14006 O 1278.7 0.262965 -1.99676 0
M  V30 14007 C 1275.77 0.121121 -3.46488 0
M  V30 14008 C 1274.83 -0.874155 -4.20306 0
M  V30 14009 C 1274.06 -0.229726 -5.33205 0
M  V30 14010 O 1274.28 0.975935 -5.61989 0
M  V30 14011 O 1273.22 -0.935501 -5.94586 0
M  V30 14012 H 1277.04 -1.4348 -2.6767 0
M  V30 14013 H 1274.63 -0.763061 -1.28444 0
M  V30 14014 H 1276.51 0.500043 -4.18423 0
M  V30 14015 H 1275.19 0.974959 -3.08668 0
M  V30 14016 H 1274.09 -1.30404 -3.50636 0
M  V30 14017 H 1275.43 -1.69725 -4.62011 0
M  V30 14018 N 1277.08 1.37613 -0.768148 0
M  V30 14019 C 1278.32 2.00075 -0.331331 0
M  V30 14020 C 1278.66 1.60839 1.08833 0
M  V30 14021 O 1277.93 0.852849 1.74805 0
M  V30 14022 C 1278.22 3.57009 -0.470789 0
M  V30 14023 C 1278.07 4.06166 -1.9326 0
M  V30 14024 C 1279.39 4.39916 0.127111 0
M  V30 14025 H 1276.51 0.726855 -0.121864 0
M  V30 14026 H 1279.15 1.63343 -0.970518 0
M  V30 14027 H 1277.3 3.88431 0.0733688 0
M  V30 14028 H 1278.97 3.85325 -2.53618 0
M  V30 14029 H 1277.21 3.58492 -2.44266 0
M  V30 14030 H 1277.88 5.15219 -1.98125 0
M  V30 14031 H 1280.36 4.14732 -0.337144 0
M  V30 14032 H 1279.24 5.489 -0.000624226 0
M  V30 14033 H 1279.5 4.25018 1.21704 0
M  V30 14034 N 1278.56 0.518393 1.4883 0
M  V30 14035 C 1279.83 -0.0837498 1.95421 0
M  V30 14036 C 1280.21 -1.52435 1.46037 0
M  V30 14037 O 1279.56 -2.18093 0.681736 0
M  V30 14038 C 1279.77 0.0215333 3.48993 0
M  V30 14039 C 1281.12 -0.143615 4.24357 0
M  V30 14040 O 1282.14 -0.0528223 3.56161 0
M  V30 14041 O 1281 -0.332231 5.45489 0
M  V30 14042 H 1278.1 -0.0857132 0.822546 0
M  V30 14043 H 1280.64 0.582169 1.59402 0
M  V30 14044 H 1279.41 1.02549 3.77623 0
M  V30 14045 H 1279.04 -0.683756 3.91677 0
M  V30 14046 N 1280.03 -1.55556 0.252993 0
M  V30 14047 C 1281.45 -1.85032 -0.249011 0
M  V30 14048 C 1281.8 -1.17488 -1.57134 0
M  V30 14049 O 1280.92 -0.455387 -2.11554 0
M  V30 14050 C 1281.52 -3.35682 -0.458589 0
M  V30 14051 C 1280.08 -3.65362 -0.90485 0
M  V30 14052 C 1279.22 -2.77296 0.0144927 0
M  V30 14053 H 1282.17 -1.51412 0.475394 0
M  V30 14054 H 1282.19 -3.57591 -1.30034 0
M  V30 14055 H 1281.71 -3.84814 0.503981 0
M  V30 14056 H 1279.81 -3.21713 -1.87967 0
M  V30 14057 H 1279.92 -4.73074 -0.757492 0
M  V30 14058 H 1278.28 -2.49785 -0.497954 0
M  V30 14059 H 1279.07 -3.29236 0.972546 0
M  V30 14060 N 1281.51 0.0200419 -1.57587 0
M  V30 14061 C 1282.74 0.720556 -1.93947 0
M  V30 14062 C 1283.16 1.68407 -0.853499 0
M  V30 14063 O 1282.51 1.81713 0.169337 0
M  V30 14064 C 1282.56 1.46982 -3.3027 0
M  V30 14065 O 1282.28 0.544971 -4.34697 0
M  V30 14066 C 1283.79 2.26667 -3.80968 0
M  V30 14067 H 1281.01 0.201956 -0.639887 0
M  V30 14068 H 1283.55 -0.0251175 -2.04485 0
M  V30 14069 H 1281.7 2.16729 -3.21103 0
M  V30 14070 H 1282.12 1.07139 -5.13441 0
M  V30 14071 H 1283.59 2.74621 -4.78839 0
M  V30 14072 H 1284.07 3.0848 -3.12629 0
M  V30 14073 H 1284.68 1.61976 -3.93248 0
M  V30 14074 N 1282.99 1.54862 0.292472 0
M  V30 14075 C 1283.94 1.82788 1.36281 0
M  V30 14076 C 1284.92 0.685534 1.45565 0
M  V30 14077 O 1286.12 0.946393 1.49574 0
M  V30 14078 C 1283.25 2.08616 2.72643 0
M  V30 14079 C 1282.33 3.29058 2.67548 0
M  V30 14080 N 1282.72 4.49419 2.32069 0
M  V30 14081 C 1281.02 3.31257 2.98639 0
M  V30 14082 C 1281.72 5.31461 2.36483 0
M  V30 14083 N 1280.7 4.69389 2.7418 0
M  V30 14084 H 1284.5 2.73405 1.07828 0
M  V30 14085 H 1282.01 1.54477 0.501074 0
M  V30 14086 H 1284.01 2.26772 3.49829 0
M  V30 14087 H 1282.67 1.19272 3.02001 0
M  V30 14088 H 1283.68 4.75868 2.04377 0
M  V30 14089 H 1280.36 2.52045 3.32836 0
M  V30 14090 H 1281.75 6.37651 2.11779 0
M  V30 14091 N 1284.47 -0.556076 1.47464 0
M  V30 14092 C 1285.72 -1.3132 1.54147 0
M  V30 14093 C 1286.04 -1.93425 0.204221 0
M  V30 14094 O 1285.3 -1.78467 -0.803002 0
M  V30 14095 C 1285.6 -2.44298 2.6087 0
M  V30 14096 C 1285.26 -2.00016 4.04109 0
M  V30 14097 C 1283.93 -1.87656 4.43101 0
M  V30 14098 C 1286.28 -1.66228 4.93981 0
M  V30 14099 C 1283.61 -1.39805 5.698 0
M  V30 14100 C 1285.96 -1.19848 6.21144 0
M  V30 14101 C 1284.62 -1.06084 6.59016 0
M  V30 14102 H 1283.89 -0.480534 0.564064 0
M  V30 14103 H 1286.54 -0.623449 1.81067 0
M  V30 14104 H 1284.84 -3.18834 2.27711 0
M  V30 14105 H 1286.54 -3.02479 2.63263 0
M  V30 14106 H 1283.13 -2.1058 3.73302 0
M  V30 14107 H 1287.31 -1.7465 4.64555 0
M  V30 14108 H 1282.57 -1.27814 5.97891 0
M  V30 14109 H 1286.74 -0.927657 6.90194 0
M  V30 14110 H 1284.37 -0.687834 7.57082 0
M  V30 14111 N 1285.95 -1.35615 -0.802897 0
M  V30 14112 C 1286.86 -1.3096 -1.94645 0
M  V30 14113 C 1287.87 -0.213909 -1.7268 0
M  V30 14114 O 1289.05 -0.443932 -1.96446 0
M  V30 14115 C 1286.11 -1.08483 -3.2929 0
M  V30 14116 C 1285.18 -2.27401 -3.64126 0
M  V30 14117 C 1284.41 -2.05987 -4.92347 0
M  V30 14118 O 1284.63 -1.02819 -5.61057 0
M  V30 14119 O 1283.57 -2.93439 -5.25526 0
M  V30 14120 H 1287.39 -2.27209 -2.01519 0
M  V30 14121 H 1284.98 -1.16024 -0.941214 0
M  V30 14122 H 1286.86 -0.978118 -4.09891 0
M  V30 14123 H 1285.53 -0.152885 -3.23339 0
M  V30 14124 H 1284.44 -2.43638 -2.83886 0
M  V30 14125 H 1285.77 -3.19055 -3.74786 0
M  V30 14126 N 1287.43 1.02549 -1.19673 0
M  V30 14127 C 1288.37 2.109 -0.937536 0
M  V30 14128 C 1289.34 1.65599 0.128923 0
M  V30 14129 O 1290.53 1.90795 -0.0139366 0
M  V30 14130 C 1287.67 3.4166 -0.48602 0
M  V30 14131 C 1286.78 4.0049 -1.61963 0
M  V30 14132 C 1285.92 5.19273 -1.11931 0
M  V30 14133 C 1284.95 5.70166 -2.22659 0
M  V30 14134 N 1284.09 6.80221 -1.73909 0
M  V30 14135 H 1288.93 2.32408 -1.86523 0
M  V30 14136 H 1286.47 1.13982 -0.929869 0
M  V30 14137 H 1288.43 4.16693 -0.205614 0
M  V30 14138 H 1287.06 3.20253 0.404678 0
M  V30 14139 H 1286.11 3.22638 -2.01516 0
M  V30 14140 H 1287.42 4.34273 -2.45374 0
M  V30 14141 H 1286.57 6.01478 -0.794336 0
M  V30 14142 H 1285.31 4.87033 -0.254972 0
M  V30 14143 H 1284.32 4.86572 -2.55983 0
M  V30 14144 H 1285.54 6.04444 -3.09554 0
M  V30 14145 H 1283.49 6.49826 -0.897889 0
M  V30 14146 H 1283.41 7.13149 -2.50907 0
M  V30 14147 H 1284.67 7.66011 -1.44386 0
M  V30 14148 N 1288.9 1.00119 1.21713 0
M  V30 14149 C 1290.32 0.713343 1.42771 0
M  V30 14150 C 1290.52 -0.712923 1.88467 0
M  V30 14151 O 1289.58 -1.48277 2.04378 0
M  V30 14152 C 1290.89 1.72596 2.46234 0
M  V30 14153 C 1292.44 1.74235 2.60022 0
M  V30 14154 C 1292.91 2.74382 3.66713 0
M  V30 14155 N 1294.4 2.73027 3.7418 0
M  V30 14156 C 1295.14 3.47178 4.56349 0
M  V30 14157 N 1294.63 4.30958 5.42446 0
M  V30 14158 N 1296.43 3.35846 4.50737 0
M  V30 14159 H 1288.58 1.9222 0.903611 0
M  V30 14160 H 1290.84 0.829466 0.459011 0
M  V30 14161 H 1290.55 2.74699 2.19621 0
M  V30 14162 H 1290.42 1.52553 3.44975 0
M  V30 14163 H 1292.81 0.728261 2.85973 0
M  V30 14164 H 1292.89 1.98349 1.61528 0
M  V30 14165 H 1292.53 3.75945 3.41508 0
M  V30 14166 H 1292.46 2.47534 4.64795 0
M  V30 14167 H 1294.95 2.12242 3.12669 0
M  V30 14168 H 1295.27 4.84344 6.02189 0
M  V30 14169 H 1293.61 4.35042 5.42 0
M  V30 14170 H 1296.8 2.6983 3.82504 0
M  V30 14171 H 1296.98 3.93892 5.14541 0
M  V30 14172 N 1290.38 -1.37203 0.775435 0
M  V30 14173 C 1291.63 -1.99601 0.341431 0
M  V30 14174 C 1291.96 -1.61555 -1.08306 0
M  V30 14175 O 1291.21 -0.855126 -1.76029 0
M  V30 14176 C 1291.51 -3.54725 0.436426 0
M  V30 14177 C 1291.18 -4.1255 1.8197 0
M  V30 14178 C 1289.84 -4.28056 2.19822 0
M  V30 14179 C 1292.19 -4.44222 2.7261 0
M  V30 14180 C 1289.52 -4.72538 3.47742 0
M  V30 14181 C 1291.87 -4.90131 3.99943 0
M  V30 14182 C 1290.53 -5.03842 4.37835 0
M  V30 14183 H 1289.8 -0.730391 0.124938 0
M  V30 14184 H 1292.45 -1.63914 0.990177 0
M  V30 14185 H 1290.76 -3.90681 -0.295852 0
M  V30 14186 H 1292.45 -4.00916 0.0818664 0
M  V30 14187 H 1289.04 -4.00911 1.51553 0
M  V30 14188 H 1293.23 -4.31824 2.44625 0
M  V30 14189 H 1288.48 -4.81341 3.76989 0
M  V30 14190 H 1292.66 -5.13604 4.70302 0
M  V30 14191 H 1290.28 -5.3807 5.37015 0
M  V30 14192 N 1291.86 -0.526279 -1.48553 0
M  V30 14193 C 1292.79 0.227364 -2.3239 0
M  V30 14194 C 1293.77 0.93862 -1.41859 0
M  V30 14195 O 1294.96 0.925119 -1.70749 0
M  V30 14196 C 1292.09 1.277 -3.22971 0
M  V30 14197 C 1291.04 0.684107 -4.22497 0
M  V30 14198 C 1290.37 1.83612 -5.02186 0
M  V30 14199 C 1291.67 -0.341723 -5.21181 0
M  V30 14200 H 1293.36 -0.472486 -2.95648 0
M  V30 14201 H 1290.91 -0.228669 -1.42173 0
M  V30 14202 H 1292.86 1.81215 -3.80446 0
M  V30 14203 H 1291.58 2.00638 -2.57705 0
M  V30 14204 H 1290.24 0.170505 -3.66203 0
M  V30 14205 H 1289.89 2.55379 -4.33348 0
M  V30 14206 H 1289.59 1.44536 -5.69547 0
M  V30 14207 H 1291.11 2.37513 -5.62512 0
M  V30 14208 H 1292.53 0.106207 -5.73202 0
M  V30 14209 H 1290.92 -0.649673 -5.96573 0
M  V30 14210 H 1291.99 -1.2488 -4.68543 0
M  V30 14211 N 1293.34 1.5542 -0.261239 0
M  V30 14212 C 1294.28 2.21972 0.632216 0
M  V30 14213 C 1295.25 1.18843 1.16041 0
M  V30 14214 O 1296.44 1.47339 1.21226 0
M  V30 14215 C 1293.58 2.93397 1.81693 0
M  V30 14216 C 1292.69 4.11214 1.3239 0
M  V30 14217 C 1291.83 4.70318 2.46931 0
M  V30 14218 C 1290.87 5.80355 1.94561 0
M  V30 14219 N 1290 6.33581 3.02523 0
M  V30 14220 H 1294.84 2.97944 0.058018 0
M  V30 14221 H 1292.38 1.4709 0.0168725 0
M  V30 14222 H 1294.34 3.33015 2.5131 0
M  V30 14223 H 1292.97 2.19874 2.36337 0
M  V30 14224 H 1292.02 3.76811 0.521292 0
M  V30 14225 H 1293.33 4.90609 0.900214 0
M  V30 14226 H 1292.49 5.12584 3.24565 0
M  V30 14227 H 1291.23 3.90169 2.92608 0
M  V30 14228 H 1290.23 5.37552 1.15402 0
M  V30 14229 H 1291.46 6.62364 1.49836 0
M  V30 14230 H 1289.4 5.56332 3.47608 0
M  V30 14231 H 1289.32 7.08209 2.64529 0
M  V30 14232 H 1290.59 6.80506 3.80174 0
M  V30 14233 N 1294.82 -0.0116844 1.57596 0
M  V30 14234 C 1296.23 -0.367602 1.55309 0
M  V30 14235 C 1296.43 -1.75524 0.98962 0
M  V30 14236 O 1295.49 -2.44813 0.618289 0
M  V30 14237 C 1296.8 -0.253532 2.99629 0
M  V30 14238 C 1298.35 -0.329335 3.11263 0
M  V30 14239 C 1298.82 -0.24452 4.57347 0
M  V30 14240 N 1300.31 -0.302782 4.62209 0
M  V30 14241 C 1301.05 -0.260315 5.72809 0
M  V30 14242 N 1300.55 -0.169124 6.92594 0
M  V30 14243 N 1302.34 -0.311323 5.61237 0
M  V30 14244 H 1294.49 0.896204 1.92567 0
M  V30 14245 H 1296.75 0.342445 0.883988 0
M  V30 14246 H 1296.46 0.70074 3.44648 0
M  V30 14247 H 1296.33 -1.04029 3.62571 0
M  V30 14248 H 1298.72 -1.27405 2.66181 0
M  V30 14249 H 1298.8 0.487084 2.5112 0
M  V30 14250 H 1298.44 0.696597 5.031 0
M  V30 14251 H 1298.37 -1.07927 5.15421 0
M  V30 14252 H 1300.87 -0.375067 3.76034 0
M  V30 14253 H 1301.18 -0.142296 7.72669 0
M  V30 14254 H 1299.52 -0.134919 6.94869 0
M  V30 14255 H 1302.71 -0.380678 4.6655 0
M  V30 14256 H 1302.89 -0.274761 6.47417 0
M  V30 14257 N 1296.29 -1.55015 -0.284256 0
M  V30 14258 C 1297.54 -1.74297 -1.01506 0
M  V30 14259 C 1297.86 -0.545134 -1.8785 0
M  V30 14260 O 1299.06 -0.620118 -2.64323 0
M  V30 14261 C 1297.52 -3.08438 -1.85456 0
M  V30 14262 C 1297.13 -4.35753 -1.04034 0
M  V30 14263 C 1298.87 -3.37073 -2.58035 0
M  V30 14264 C 1296.78 -5.60938 -1.87358 0
M  V30 14265 H 1295.71 -0.649656 -0.382705 0
M  V30 14266 H 1298.36 -1.81484 -0.271239 0
M  V30 14267 H 1296.74 -2.95259 -2.63891 0
M  V30 14268 H 1297.91 -4.59816 -0.300954 0
M  V30 14269 H 1296.23 -4.14178 -0.429616 0
M  V30 14270 H 1298.83 -4.27806 -3.20759 0
M  V30 14271 H 1299.17 -2.56698 -3.27738 0
M  V30 14272 H 1299.7 -3.51299 -1.86638 0
M  V30 14273 H 1296.44 -6.44029 -1.22096 0
M  V30 14274 H 1295.96 -5.41035 -2.58923 0
M  V30 14275 H 1297.64 -5.98819 -2.44999 0
M  V30 14276 N 1297.77 0.548248 -1.47757 0
M  V30 14277 C 1299.19 0.875048 -1.33473 0
M  V30 14278 C 1299.39 1.98747 -0.331952 0
M  V30 14279 O 1298.44 2.51226 0.253348 0
M  V30 14280 C 1299.76 1.25982 -2.73037 0
M  V30 14281 C 1301.3 1.37074 -2.81389 0
M  V30 14282 C 1301.78 1.78902 -4.21613 0
M  V30 14283 N 1303.27 1.86037 -4.24198 0
M  V30 14284 C 1304.01 2.1975 -5.2962 0
M  V30 14285 N 1303.5 2.52013 -6.45338 0
M  V30 14286 N 1305.29 2.206 -5.17003 0
M  V30 14287 H 1297.45 -0.186033 -2.11584 0
M  V30 14288 H 1299.71 -0.0205687 -0.947777 0
M  V30 14289 H 1299.41 0.516188 -3.47891 0
M  V30 14290 H 1299.29 2.21402 -3.05387 0
M  V30 14291 H 1301.68 2.10517 -2.06801 0
M  V30 14292 H 1301.76 0.398193 -2.52682 0
M  V30 14293 H 1301.4 1.06026 -4.9671 0
M  V30 14294 H 1301.33 2.77176 -4.47751 0
M  V30 14295 H 1303.82 1.63455 -3.40721 0
M  V30 14296 H 1304.13 2.7679 -7.21531 0
M  V30 14297 H 1302.48 2.49573 -6.48643 0
M  V30 14298 H 1305.67 1.9484 -4.25623 0
M  V30 14299 H 1305.84 2.46543 -5.99267 0
M  V30 14300 N 1299.25 1.36039 0.795694 0
M  V30 14301 C 1300.53 1.20474 1.54096 0
M  V30 14302 C 1300.91 -0.211691 2.10036 0
M  V30 14303 O 1300.25 -1.21656 1.93422 0
M  V30 14304 C 1300.46 2.28164 2.64087 0
M  V30 14305 C 1301.81 2.64519 3.32137 0
M  V30 14306 O 1302.84 2.2716 2.74366 0
M  V30 14307 O 1301.7 3.28796 4.36527 0
M  V30 14308 H 1298.79 0.468699 0.681359 0
M  V30 14309 H 1301.34 1.47752 0.834716 0
M  V30 14310 H 1300.11 3.23121 2.20701 0
M  V30 14311 H 1299.73 2.02217 3.42336 0
M  V30 14312 N 1300.73 -1.01913 1.20215 0
M  V30 14313 C 1301.66 -2.12282 0.97256 0
M  V30 14314 C 1302.64 -1.6982 -0.0975709 0
M  V30 14315 O 1303.82 -1.94109 0.0594307 0
M  V30 14316 C 1300.95 -3.43369 0.521085 0
M  V30 14317 C 1299.91 -3.99559 1.53417 0
M  V30 14318 C 1299.23 -5.26383 0.93942 0
M  V30 14319 C 1300.53 -4.33241 2.91718 0
M  V30 14320 H 1302.23 -2.31746 1.89563 0
M  V30 14321 H 1299.77 -1.1137 0.912841 0
M  V30 14322 H 1301.73 -4.19963 0.347713 0
M  V30 14323 H 1300.45 -3.23655 -0.437605 0
M  V30 14324 H 1299.11 -3.25069 1.69486 0
M  V30 14325 H 1298.76 -5.02993 -0.0271236 0
M  V30 14326 H 1298.46 -5.64942 1.616 0
M  V30 14327 H 1299.98 -6.05635 0.777059 0
M  V30 14328 H 1301.4 -5.00734 2.79175 0
M  V30 14329 H 1299.79 -4.82907 3.56259 0
M  V30 14330 H 1300.86 -3.42118 3.43633 0
M  V30 14331 N 1302.21 -1.00763 -1.2118 0
M  V30 14332 C 1303.45 -0.690459 -1.8994 0
M  V30 14333 C 1303.78 0.781464 -1.78656 0
M  V30 14334 O 1303.05 1.56135 -1.18316 0
M  V30 14335 H 1301.63 -0.252397 -0.703068 0
M  V30 14336 H 1304.29 -1.2773 -1.47211 0
M  V30 14337 H 1303.38 -0.96594 -2.96776 0
M  V30 14338 N 1303.68 1.3679 -0.7827 0
M  V30 14339 C 1304.59 2.33928 -0.17747 0
M  V30 14340 C 1305.61 1.60716 0.666802 0
M  V30 14341 O 1306.79 1.92742 0.584162 0
M  V30 14342 C 1303.85 3.39907 0.68294 0
M  V30 14343 C 1302.91 4.28926 -0.179053 0
M  V30 14344 C 1302.15 5.29844 0.640386 0
M  V30 14345 O 1302.37 5.38639 1.87681 0
M  V30 14346 O 1301.3 6.01884 0.0438164 0
M  V30 14347 H 1305.13 2.87439 -0.980441 0
M  V30 14348 H 1302.71 1.39142 -0.54404 0
M  V30 14349 H 1304.6 4.04722 1.17379 0
M  V30 14350 H 1303.27 2.88706 1.46391 0
M  V30 14351 H 1302.18 3.67174 -0.716512 0
M  V30 14352 H 1303.51 4.83461 -0.923377 0
M  V30 14353 N 1305.16 0.53415 1.48272 0
M  V30 14354 C 1306.41 0.00156948 2.021 0
M  V30 14355 C 1306.73 -1.34371 1.41313 0
M  V30 14356 O 1306 -1.87117 0.579996 0
M  V30 14357 H 1304.58 -0.00240789 0.746996 0
M  V30 14358 H 1307.24 0.698928 1.81937 0
M  V30 14359 H 1306.34 -0.103671 3.11928 0
M  V30 14360 N 1306.64 -1.55279 0.269478 0
M  V30 14361 C 1307.59 -2.18984 -0.634838 0
M  V30 14362 C 1308.57 -1.15269 -1.12258 0
M  V30 14363 O 1309.77 -1.41103 -1.0686 0
M  V30 14364 C 1306.9 -2.91014 -1.82114 0
M  V30 14365 C 1305.98 -4.02011 -1.35084 0
M  V30 14366 N 1306.37 -5.02273 -0.596299 0
M  V30 14367 C 1304.67 -4.14979 -1.63427 0
M  V30 14368 C 1305.37 -5.80647 -0.349781 0
M  V30 14369 N 1304.35 -5.35749 -0.92057 0
M  V30 14370 H 1308.15 -2.93857 -0.0504516 0
M  V30 14371 H 1305.66 -1.62237 0.0727843 0
M  V30 14372 H 1307.66 -3.35098 -2.48022 0
M  V30 14373 H 1306.32 -2.1765 -2.40953 0
M  V30 14374 H 1307.33 -5.17324 -0.244188 0
M  V30 14375 H 1304.01 -3.52802 -2.23242 0
M  V30 14376 H 1305.4 -6.71419 0.254139 0
M  V30 14377 N 1308.12 0.00332656 -1.576 0
M  V30 14378 C 1309.37 0.688869 -1.90423 0
M  V30 14379 C 1309.69 1.73963 -0.869896 0
M  V30 14380 O 1308.95 1.95295 0.125777 0
M  V30 14381 C 1309.25 1.37237 -3.30001 0
M  V30 14382 C 1308.91 0.455132 -4.48597 0
M  V30 14383 C 1307.58 0.202577 -4.80773 0
M  V30 14384 C 1309.93 -0.176597 -5.20901 0
M  V30 14385 C 1307.26 -0.690055 -5.82628 0
M  V30 14386 C 1309.61 -1.05708 -6.23705 0
M  V30 14387 C 1308.27 -1.31885 -6.54341 0
M  V30 14388 H 1307.54 0.252075 -0.696806 0
M  V30 14389 H 1310.19 -0.0514867 -1.91431 0
M  V30 14390 H 1308.49 2.18669 -3.25102 0
M  V30 14391 H 1310.19 1.9088 -3.52656 0
M  V30 14392 H 1306.78 0.662142 -4.23454 0
M  V30 14393 H 1310.96 0.0055127 -4.963 0
M  V30 14394 H 1306.22 -0.900902 -6.04726 0
M  V30 14395 H 1310.39 -1.55296 -6.78864 0
M  V30 14396 H 1308.02 -2.01222 -7.33085 0
M  V30 14397 N 1309.6 1.55164 0.276031 0
M  V30 14398 C 1310.84 1.7528 1.00604 0
M  V30 14399 C 1311.17 0.555256 1.86928 0
M  V30 14400 O 1310.44 -0.429917 1.91124 0
M  V30 14401 H 1309.02 0.646377 0.374441 0
M  V30 14402 H 1311.68 1.92562 0.300992 0
M  V30 14403 H 1310.77 2.65245 1.64473 0
M  V30 14404 N 1311.07 -0.540404 1.48045 0
M  V30 14405 C 1312.02 -1.64598 1.61791 0
M  V30 14406 C 1312.99 -1.59595 0.460301 0
M  V30 14407 O 1314.18 -1.78176 0.682482 0
M  V30 14408 C 1311.32 -3.02887 1.65389 0
M  V30 14409 C 1310.43 -3.18202 2.92184 0
M  V30 14410 C 1309.56 -4.46989 2.87009 0
M  V30 14411 C 1308.6 -4.55795 4.08555 0
M  V30 14412 N 1307.74 -5.75958 4.01518 0
M  V30 14413 H 1312.58 -1.52188 2.56208 0
M  V30 14414 H 1310.12 -0.741097 1.27068 0
M  V30 14415 H 1312.08 -3.82988 1.65457 0
M  V30 14416 H 1310.71 -3.14092 0.744703 0
M  V30 14417 H 1309.76 -2.31422 3.01907 0
M  V30 14418 H 1311.07 -3.20571 3.82146 0
M  V30 14419 H 1310.22 -5.35369 2.85421 0
M  V30 14420 H 1308.96 -4.47125 1.94759 0
M  V30 14421 H 1307.97 -3.65824 4.1043 0
M  V30 14422 H 1309.19 -4.57406 5.01953 0
M  V30 14423 H 1307.14 -5.77011 3.12081 0
M  V30 14424 H 1307.06 -5.79777 4.85175 0
M  V30 14425 H 1308.32 -6.66653 4.03972 0
M  V30 14426 N 1312.55 -1.36459 -0.788468 0
M  V30 14427 C 1313.8 -1.30935 -1.54867 0
M  V30 14428 C 1314.13 0.110916 -1.93883 0
M  V30 14429 O 1313.41 1.06452 -1.62783 0
M  V30 14430 C 1313.69 -2.23294 -2.8251 0
M  V30 14431 C 1313.54 -3.74022 -2.49856 0
M  V30 14432 C 1314.86 -2.14407 -3.84341 0
M  V30 14433 H 1311.98 -0.476958 -0.561854 0
M  V30 14434 H 1314.62 -1.67018 -0.905805 0
M  V30 14435 H 1312.77 -1.92652 -3.37369 0
M  V30 14436 H 1314.44 -4.15187 -2.01041 0
M  V30 14437 H 1312.69 -3.93411 -1.82785 0
M  V30 14438 H 1313.36 -4.34057 -3.41026 0
M  V30 14439 H 1315.83 -2.41381 -3.38932 0
M  V30 14440 H 1314.71 -2.81199 -4.71401 0
M  V30 14441 H 1314.97 -1.13166 -4.27371 0
M  V30 14442 N 1314.03 1.01274 -1.20754 0
M  V30 14443 C 1314.94 2.1335 -0.975656 0
M  V30 14444 C 1315.96 1.7386 0.0697364 0
M  V30 14445 O 1317.13 2.01051 -0.118578 0
M  V30 14446 C 1314.2 3.42548 -0.534931 0
M  V30 14447 C 1313.26 3.96257 -1.65163 0
M  V30 14448 C 1312.49 5.19289 -1.23184 0
M  V30 14449 O 1312.71 5.70309 -0.102158 0
M  V30 14450 O 1311.65 5.66248 -2.04076 0
M  V30 14451 H 1315.47 2.35783 -1.91415 0
M  V30 14452 H 1313.06 1.11736 -0.991743 0
M  V30 14453 H 1314.94 4.20341 -0.298568 0
M  V30 14454 H 1313.62 3.21521 0.374937 0
M  V30 14455 H 1312.52 3.19726 -1.94232 0
M  V30 14456 H 1313.86 4.2168 -2.53864 0
M  V30 14457 N 1315.51 1.01404 1.20644 0
M  V30 14458 C 1316.44 0.602465 2.25594 0
M  V30 14459 C 1317.42 -0.381216 1.65773 0
M  V30 14460 O 1318.61 -0.267209 1.92353 0
M  V30 14461 C 1315.74 -0.0626245 3.47244 0
M  V30 14462 C 1314.69 0.841776 4.1964 0
M  V30 14463 C 1314.02 0.0426002 5.34683 0
M  V30 14464 C 1315.32 2.14864 4.76058 0
M  V30 14465 H 1317.01 1.47977 2.60275 0
M  V30 14466 H 1314.56 0.712966 1.25111 0
M  V30 14467 H 1316.51 -0.362095 4.19841 0
M  V30 14468 H 1315.23 -0.974627 3.11719 0
M  V30 14469 H 1313.89 1.12521 3.48905 0
M  V30 14470 H 1313.54 -0.870973 4.95402 0
M  V30 14471 H 1313.24 0.644866 5.84051 0
M  V30 14472 H 1314.76 -0.250476 6.10086 0
M  V30 14473 H 1316.18 1.9117 5.40488 0
M  V30 14474 H 1314.57 2.70153 5.35852 0
M  V30 14475 H 1315.64 2.81336 3.9494 0
M  V30 14476 N 1316.99 -1.36373 0.789944 0
M  V30 14477 C 1318.23 -2.0106 0.367995 0
M  V30 14478 C 1318.59 -1.61336 -1.0409 0
M  V30 14479 O 1319.79 -2.18618 -1.56396 0
M  V30 14480 C 1318.06 -3.53492 0.527106 0
M  V30 14481 S 1319.62 -4.38375 0.193113 0
M  V30 14482 H 1316.44 -0.696965 0.140573 0
M  V30 14483 H 1319.04 -1.66256 1.02855 0
M  V30 14484 H 1317.75 -3.7989 1.55279 0
M  V30 14485 H 1317.28 -3.93116 -0.149364 0
M  V30 14486 H 1319.29 -4.85913 -1.00513 0
M  V30 14487 N 1318.47 -0.542005 -1.47987 0
M  V30 14488 C 1319.88 -0.200691 -1.58333 0
M  V30 14489 C 1320.08 1.29643 -1.54256 0
M  V30 14490 O 1319.14 2.07556 -1.43794 0
M  V30 14491 C 1320.45 -0.813878 -2.89476 0
M  V30 14492 C 1322 -0.783711 -3.0303 0
M  V30 14493 C 1322.47 -1.37569 -4.36851 0
M  V30 14494 N 1323.96 -1.33819 -4.43449 0
M  V30 14495 C 1324.7 -1.76602 -5.45527 0
M  V30 14496 N 1324.2 -2.27169 -6.54497 0
M  V30 14497 N 1325.99 -1.67765 -5.3648 0
M  V30 14498 H 1318.14 -1.51488 -1.4888 0
M  V30 14499 H 1320.4 -0.630835 -0.707638 0
M  V30 14500 H 1320.11 -1.86544 -2.98151 0
M  V30 14501 H 1319.98 -0.297978 -3.76021 0
M  V30 14502 H 1322.37 0.259118 -2.9396 0
M  V30 14503 H 1322.45 -1.33721 -2.18065 0
M  V30 14504 H 1322.09 -2.41751 -4.46675 0
M  V30 14505 H 1322.02 -0.797769 -5.20522 0
M  V30 14506 H 1324.52 -0.968147 -3.65288 0
M  V30 14507 H 1324.83 -2.57777 -7.2854 0
M  V30 14508 H 1323.17 -2.31171 -6.55427 0
M  V30 14509 H 1326.36 -1.28048 -4.50246 0
M  V30 14510 H 1326.54 -2.01426 -6.15899 0
M  V30 14511 N 1319.94 1.55134 -0.277709 0
M  V30 14512 C 1321.17 2.03765 0.341106 0
M  V30 14513 C 1321.58 1.15543 1.49822 0
M  V30 14514 O 1320.92 0.168642 1.82924 0
M  V30 14515 C 1320.99 3.48513 0.881974 0
M  V30 14516 C 1320.65 4.56764 -0.146837 0
M  V30 14517 C 1321.65 5.10823 -0.967252 0
M  V30 14518 C 1319.33 5.01509 -0.281824 0
M  V30 14519 C 1321.33 6.08147 -1.90882 0
M  V30 14520 C 1319.01 5.98658 -1.22686 0
M  V30 14521 C 1320.01 6.51859 -2.03886 0
M  V30 14522 O 1319.7 7.47108 -2.96791 0
M  V30 14523 H 1319.43 0.671068 0.0815052 0
M  V30 14524 H 1321.99 2.013 -0.408341 0
M  V30 14525 H 1320.22 3.48226 1.68154 0
M  V30 14526 H 1321.9 3.80469 1.41416 0
M  V30 14527 H 1322.67 4.77065 -0.873714 0
M  V30 14528 H 1318.55 4.59743 0.340203 0
M  V30 14529 H 1322.09 6.49597 -2.54301 0
M  V30 14530 H 1317.99 6.31834 -1.32121 0
M  V30 14531 H 1318.76 7.64832 -2.91502 0
M  V30 14532 N 1321.42 0.00503138 1.57599 0
M  V30 14533 C 1322.7 -0.716079 1.82021 0
M  V30 14534 C 1323.08 -1.91707 0.883829 0
M  V30 14535 O 1322.43 -2.28404 -0.0662812 0
M  V30 14536 C 1322.64 -1.11706 3.3064 0
M  V30 14537 C 1323.98 -1.51881 3.96506 0
M  V30 14538 O 1325.01 -1.21071 3.34993 0
M  V30 14539 O 1323.87 -2.09191 5.04877 0
M  V30 14540 H 1320.96 -0.349112 0.7497 0
M  V30 14541 H 1323.51 0.030871 1.69672 0
M  V30 14542 H 1322.28 -0.261223 3.90427 0
M  V30 14543 H 1321.9 -1.92295 3.48006 0
M  V30 14544 N 1322.9 -1.55308 -0.267798 0
M  V30 14545 C 1324.31 -1.66814 -0.838459 0
M  V30 14546 C 1324.66 -0.598609 -1.86845 0
M  V30 14547 O 1323.79 0.25896 -2.14845 0
M  V30 14548 C 1324.38 -3.02408 -1.52758 0
M  V30 14549 C 1322.94 -3.15923 -2.04621 0
M  V30 14550 C 1322.09 -2.62628 -0.890044 0
M  V30 14551 H 1325.04 -1.58639 -0.0440354 0
M  V30 14552 H 1325.06 -2.95687 -2.39478 0
M  V30 14553 H 1324.57 -3.80228 -0.777695 0
M  V30 14554 H 1322.67 -2.42886 -2.82555 0
M  V30 14555 H 1322.79 -4.22556 -2.25794 0
M  V30 14556 H 1321.15 -2.19918 -1.28485 0
M  V30 14557 H 1321.93 -3.42956 -0.153579 0
M  V30 14558 N 1324.38 0.532545 -1.4833 0
M  V30 14559 C 1325.29 1.66433 -1.65339 0
M  V30 14560 C 1326.3 1.65541 -0.535939 0
M  V30 14561 O 1327.48 1.84539 -0.806679 0
M  V30 14562 C 1324.54 3.02901 -1.68676 0
M  V30 14563 C 1323.61 3.14669 -2.92031 0
M  V30 14564 C 1322.84 4.44627 -2.95199 0
M  V30 14565 O 1323.06 5.31572 -2.06851 0
M  V30 14566 O 1322 4.60707 -3.87341 0
M  V30 14567 H 1325.82 1.5502 -2.61156 0
M  V30 14568 H 1323.41 0.705348 -1.31701 0
M  V30 14569 H 1325.29 3.84068 -1.73407 0
M  V30 14570 H 1323.96 3.14644 -0.760327 0
M  V30 14571 H 1322.87 2.32807 -2.92834 0
M  V30 14572 H 1324.2 3.07841 -3.8405 0
M  V30 14573 N 1325.86 1.36875 0.78122 0
M  V30 14574 C 1327.1 1.31299 1.53639 0
M  V30 14575 C 1327.42 -0.104942 1.94717 0
M  V30 14576 O 1326.69 -1.04696 1.65576 0
M  V30 14577 H 1325.27 0.483032 0.569815 0
M  V30 14578 H 1327.94 1.71261 0.930359 0
M  V30 14579 H 1327.03 1.94581 2.44018 0
M  V30 14580 N 1327.33 -1.00632 1.21289 0
M  V30 14581 C 1328.61 -1.71635 0.938124 0
M  V30 14582 C 1328.99 -2.03798 -0.550416 0
M  V30 14583 O 1328.34 -1.71065 -1.5149 0
M  V30 14584 C 1328.55 -2.97674 1.82184 0
M  V30 14585 C 1329.9 -3.7073 2.06989 0
M  V30 14586 O 1330.92 -3.07653 1.79522 0
M  V30 14587 O 1329.78 -4.84183 2.53435 0
M  V30 14588 H 1326.87 -0.748506 0.351664 0
M  V30 14589 H 1329.42 -1.06387 1.32212 0
M  V30 14590 H 1328.19 -2.70306 2.82931 0
M  V30 14591 H 1327.81 -3.70663 1.43858 0
M  V30 14592 N 1328.81 -1.02043 -1.20104 0
M  V30 14593 C 1329.76 -0.587332 -2.25063 0
M  V30 14594 C 1330.75 0.375844 -1.65178 0
M  V30 14595 O 1331.96 0.245347 -1.7832 0
M  V30 14596 H 1328.33 -0.171637 -0.732151 0
M  V30 14597 H 1330.31 -1.48339 -2.58917 0
M  V30 14598 C 1329.05 0.0546893 -3.47657 0
M  V30 14599 H 1328.38 -0.677457 -3.94018 0
M  V30 14600 H 1329.82 0.320786 -4.22785 0
M  V30 14601 C 1328.28 1.29869 -3.10863 0
M  V30 14602 O 1328.81 2.39161 -3.22746 0
M  V30 14603 N 1327.01 1.18423 -2.65376 0
M  V30 14604 H 1326.56 0.294895 -2.55906 0
M  V30 14605 H 1326.52 2.01755 -2.41128 0
M  V30 14606 N 1330.29 1.35952 -0.797165 0
M  V30 14607 C 1331.52 2.0328 -0.385316 0
M  V30 14608 C 1331.93 1.60095 1.00076 0
M  V30 14609 O 1331.29 0.794014 1.64322 0
M  V30 14610 C 1331.34 3.5871 -0.448284 0
M  V30 14611 O 1331.06 4.00323 -1.7797 0
M  V30 14612 C 1332.56 4.43291 -0.0280465 0
M  V30 14613 H 1329.78 0.652192 -0.157756 0
M  V30 14614 H 1332.33 1.73769 -1.07817 0
M  V30 14615 H 1330.48 3.86903 0.196224 0
M  V30 14616 H 1330.9 4.94941 -1.73592 0
M  V30 14617 H 1332.37 5.51862 -0.123234 0
M  V30 14618 H 1332.85 4.27059 1.02552 0
M  V30 14619 H 1333.45 4.20375 -0.645343 0
M  V30 14620 N 1331.77 0.549846 1.47697 0
M  V30 14621 C 1333.02 0.0230048 2.02087 0
M  V30 14622 C 1333.34 -1.32865 1.4273 0
M  V30 14623 O 1332.61 -1.86492 0.59981 0
M  V30 14624 H 1331.19 0.00551514 0.74698 0
M  V30 14625 H 1333.85 0.718185 1.81185 0
M  V30 14626 H 1332.95 -0.0705813 3.1202 0
M  V30 14627 N 1333.25 -1.54984 0.285932 0
M  V30 14628 C 1334.16 -2.26621 -0.606648 0
M  V30 14629 C 1335.17 -1.29595 -1.16108 0
M  V30 14630 O 1336.35 -1.62551 -1.18908 0
M  V30 14631 C 1333.41 -2.98156 -1.76929 0
M  V30 14632 C 1332.47 -4.10685 -1.25045 0
M  V30 14633 C 1331.71 -4.788 -2.35768 0
M  V30 14634 O 1331.93 -4.46183 -3.55354 0
M  V30 14635 O 1330.86 -5.66523 -2.03312 0
M  V30 14636 H 1334.69 -3.03689 -0.0259981 0
M  V30 14637 H 1332.28 -1.49306 0.0529355 0
M  V30 14638 H 1334.16 -3.43076 -2.44697 0
M  V30 14639 H 1332.83 -2.23996 -2.33683 0
M  V30 14640 H 1331.74 -3.70198 -0.538919 0
M  V30 14641 H 1333.07 -4.86778 -0.728528 0
M  V30 14642 N 1334.72 -0.0133892 -1.57594 0
M  V30 14643 C 1335.66 1.00211 -2.06132 0
M  V30 14644 C 1336.67 1.29869 -0.98173 0
M  V30 14645 O 1337.86 1.2661 -1.25826 0
M  V30 14646 C 1334.96 2.33354 -2.45763 0
M  V30 14647 C 1334.13 2.22441 -3.76615 0
M  V30 14648 C 1333.19 3.38385 -4.02967 0
M  V30 14649 O 1332.22 3.15973 -4.73445 0
M  V30 14650 N 1333.42 4.61672 -3.51908 0
M  V30 14651 H 1336.18 0.588079 -2.93874 0
M  V30 14652 H 1333.74 0.173714 -1.60965 0
M  V30 14653 H 1335.74 3.09716 -2.60496 0
M  V30 14654 H 1334.31 2.66451 -1.6347 0
M  V30 14655 H 1333.53 1.30905 -3.7183 0
M  V30 14656 H 1334.81 2.12337 -4.62375 0
M  V30 14657 H 1334.21 4.82777 -2.9486 0
M  V30 14658 H 1332.77 5.35256 -3.71947 0
M  V30 14659 N 1336.2 1.55448 0.259558 0
M  V30 14660 C 1337.45 1.76948 0.990816 0
M  V30 14661 C 1337.78 0.576401 1.85449 0
M  V30 14662 O 1337.06 -0.425693 1.89784 0
M  V30 14663 C 1337.34 3.08221 1.86204 0
M  V30 14664 C 1337.19 4.37909 1.0274 0
M  V30 14665 C 1338.51 3.35627 2.84679 0
M  V30 14666 H 1335.63 0.64377 0.358788 0
M  V30 14667 H 1338.27 1.88182 0.262211 0
M  V30 14668 H 1336.42 2.98775 2.48326 0
M  V30 14669 H 1338.09 4.5933 0.425855 0
M  V30 14670 H 1336.34 4.32533 0.331308 0
M  V30 14671 H 1337.01 5.26116 1.6705 0
M  V30 14672 H 1339.48 3.44954 2.32693 0
M  V30 14673 H 1338.36 4.28719 3.42769 0
M  V30 14674 H 1338.62 2.55921 3.60496 0
M  V30 14675 N 1337.68 -0.524672 1.4861 0
M  V30 14676 C 1338.64 -1.61092 1.63039 0
M  V30 14677 C 1339.64 -1.52718 0.503387 0
M  V30 14678 O 1340.83 -1.56293 0.769304 0
M  V30 14679 C 1337.97 -3.00722 1.60558 0
M  V30 14680 H 1339.16 -1.49636 2.59902 0
M  V30 14681 H 1336.71 -0.747135 1.37287 0
M  V30 14682 H 1337.45 -3.1768 0.651926 0
M  V30 14683 H 1337.23 -3.0821 2.42382 0
M  V30 14684 H 1338.72 -3.79688 1.73859 0
M  V30 14685 N 1339.16 -1.37287 -0.77395 0
M  V30 14686 C 1340.4 -1.3257 -1.5347 0
M  V30 14687 C 1340.74 0.090346 -1.9399 0
M  V30 14688 O 1340.01 1.04719 -1.63903 0
M  V30 14689 C 1340.3 -2.26277 -2.80126 0
M  V30 14690 C 1340.15 -3.76651 -2.45874 0
M  V30 14691 C 1341.47 -2.18471 -3.82045 0
M  V30 14692 H 1338.59 -0.48289 -0.556764 0
M  V30 14693 H 1341.23 -1.6797 -0.888039 0
M  V30 14694 H 1339.38 -1.96219 -3.35306 0
M  V30 14695 H 1341.05 -4.17296 -1.96626 0
M  V30 14696 H 1339.29 -3.95327 -1.78602 0
M  V30 14697 H 1339.96 -4.3765 -3.36403 0
M  V30 14698 H 1342.44 -2.44962 -3.36352 0
M  V30 14699 H 1341.32 -2.86183 -4.68392 0
M  V30 14700 H 1341.58 -1.17692 -4.26147 0
M  V30 14701 N 1340.64 0.999871 -1.21821 0
M  V30 14702 C 1341.58 2.08864 -0.98206 0
M  V30 14703 C 1342.55 1.65835 0.0937677 0
M  V30 14704 O 1343.74 1.90722 -0.0544038 0
M  V30 14705 C 1340.88 3.40553 -0.558382 0
M  V30 14706 C 1339.99 3.96964 -1.70422 0
M  V30 14707 C 1339.13 5.16782 -1.2292 0
M  V30 14708 C 1338.17 5.65315 -2.34703 0
M  V30 14709 N 1337.3 6.76379 -1.88299 0
M  V30 14710 H 1342.14 2.28399 -1.9141 0
M  V30 14711 H 1339.68 1.11984 -0.953837 0
M  V30 14712 H 1341.64 4.16163 -0.293955 0
M  V30 14713 H 1340.27 3.2104 0.336656 0
M  V30 14714 H 1339.32 3.18291 -2.08315 0
M  V30 14715 H 1340.63 4.2897 -2.54531 0
M  V30 14716 H 1339.79 5.99657 -0.92174 0
M  V30 14717 H 1338.52 4.86383 -0.358222 0
M  V30 14718 H 1337.53 4.81033 -2.66246 0
M  V30 14719 H 1338.75 5.97742 -3.22306 0
M  V30 14720 H 1336.7 6.47775 -1.03552 0
M  V30 14721 H 1336.62 7.07666 -2.65978 0
M  V30 14722 H 1337.89 7.62776 -1.60601 0
M  V30 14723 N 1342.11 1.02678 1.19562 0
M  V30 14724 C 1343.34 0.741424 1.93695 0
M  V30 14725 C 1343.76 -0.693203 1.74861 0
M  V30 14726 O 1343.12 -1.47833 1.04953 0
M  V30 14727 C 1343.17 1.09514 3.43568 0
M  V30 14728 O 1342.27 0.212596 4.11852 0
M  V30 14729 H 1341.62 0.274128 0.604773 0
M  V30 14730 H 1344.15 1.37289 1.517 0
M  V30 14731 H 1344.16 1.05115 3.94227 0
M  V30 14732 H 1342.83 2.14034 3.56598 0
M  V30 14733 H 1341.41 0.315 3.71567 0
M  V30 14734 N 1343.59 -1.35528 0.804364 0
M  V30 14735 C 1344.52 -2.32388 0.227604 0
M  V30 14736 C 1345.5 -1.57368 -0.645709 0
M  V30 14737 O 1346.69 -1.85448 -0.576441 0
M  V30 14738 C 1343.82 -3.41603 -0.62645 0
M  V30 14739 C 1342.77 -4.27743 0.148187 0
M  V30 14740 C 1342.1 -5.28259 -0.827425 0
M  V30 14741 C 1343.4 -5.04661 1.34591 0
M  V30 14742 H 1345.09 -2.80874 1.03684 0
M  V30 14743 H 1342.64 -1.3504 0.500031 0
M  V30 14744 H 1344.59 -4.08365 -1.03999 0
M  V30 14745 H 1343.32 -2.91721 -1.46855 0
M  V30 14746 H 1341.97 -3.62558 0.542874 0
M  V30 14747 H 1341.62 -4.74645 -1.66496 0
M  V30 14748 H 1341.32 -5.86763 -0.313453 0
M  V30 14749 H 1342.85 -5.97893 -1.23921 0
M  V30 14750 H 1344.26 -5.6438 1.00736 0
M  V30 14751 H 1342.66 -5.7265 1.79422 0
M  V30 14752 H 1343.73 -4.35432 2.1337 0
M  V30 14753 N 1345.07 -0.557671 -1.47404 0
M  V30 14754 C 1346.02 0.189765 -2.30019 0
M  V30 14755 C 1346.99 0.907923 -1.3909 0
M  V30 14756 O 1348.17 0.903528 -1.68051 0
M  V30 14757 C 1345.31 1.21348 -3.23061 0
M  V30 14758 C 1344.43 0.501343 -4.29081 0
M  V30 14759 C 1343.56 1.51039 -5.09275 0
M  V30 14760 C 1342.6 0.783254 -6.07068 0
M  V30 14761 N 1341.74 1.73916 -6.80219 0
M  V30 14762 H 1346.58 -0.520856 -2.93413 0
M  V30 14763 H 1344.11 -0.268686 -1.44625 0
M  V30 14764 H 1346.07 1.81961 -3.75428 0
M  V30 14765 H 1344.7 1.89213 -2.61531 0
M  V30 14766 H 1343.75 -0.219317 -3.79767 0
M  V30 14767 H 1345.07 -0.0682656 -4.98753 0
M  V30 14768 H 1344.22 2.19004 -5.65793 0
M  V30 14769 H 1342.96 2.11392 -4.39505 0
M  V30 14770 H 1341.96 0.0896883 -5.49727 0
M  V30 14771 H 1343.19 0.185464 -6.78847 0
M  V30 14772 H 1341.14 2.33125 -6.13179 0
M  V30 14773 H 1341.05 1.22171 -7.46063 0
M  V30 14774 H 1342.32 2.40993 -7.41311 0
M  V30 14775 N 1346.55 1.54831 -0.294147 0
M  V30 14776 C 1347.96 1.85627 0.199866 0
M  V30 14777 C 1348.31 1.21613 1.53964 0
M  V30 14778 O 1347.44 0.511317 2.10272 0
M  V30 14779 C 1348.03 3.3678 0.369428 0
M  V30 14780 C 1346.59 3.67633 0.807663 0
M  V30 14781 C 1345.74 2.7716 -0.0880078 0
M  V30 14782 H 1348.69 1.50099 -0.515371 0
M  V30 14783 H 1348.71 3.60913 1.20508 0
M  V30 14784 H 1348.22 3.83342 -0.605831 0
M  V30 14785 H 1346.32 3.26583 1.79372 0
M  V30 14786 H 1346.44 4.74916 0.631799 0
M  V30 14787 H 1344.8 2.51017 0.431553 0
M  V30 14788 H 1345.58 3.26542 -1.0595 0
M  V30 14789 N 1348.03 0.0217466 1.57585 0
M  V30 14790 C 1348.94 -0.978407 2.13224 0
M  V30 14791 C 1349.95 -1.36212 1.08269 0
M  V30 14792 O 1351.13 -1.44504 1.40288 0
M  V30 14793 C 1348.19 -2.24462 2.6423 0
M  V30 14794 C 1347.26 -1.92201 3.83871 0
M  V30 14795 C 1346.49 -3.12786 4.32436 0
M  V30 14796 O 1346.71 -4.25201 3.8021 0
M  V30 14797 O 1345.65 -2.95514 5.24362 0
M  V30 14798 H 1349.47 -0.535347 2.98944 0
M  V30 14799 H 1347.06 -0.198414 1.48077 0
M  V30 14800 H 1348.94 -2.98809 2.97138 0
M  V30 14801 H 1347.61 -2.67964 1.81596 0
M  V30 14802 H 1346.52 -1.15262 3.55901 0
M  V30 14803 H 1347.85 -1.53521 4.67645 0
M  V30 14804 N 1349.51 -1.55583 -0.251311 0
M  V30 14805 C 1350.73 -1.81597 -1.00186 0
M  V30 14806 C 1351.16 -0.598216 -1.78334 0
M  V30 14807 O 1350.51 0.452667 -1.75558 0
M  V30 14808 C 1350.56 -3.05301 -1.91895 0
M  V30 14809 O 1349.67 -2.81907 -3.01002 0
M  V30 14810 H 1349.01 -0.599578 -0.285311 0
M  V30 14811 H 1351.54 -2.02762 -0.273638 0
M  V30 14812 H 1351.55 -3.34616 -2.33444 0
M  V30 14813 H 1350.22 -3.93574 -1.34433 0
M  V30 14814 H 1348.8 -2.63747 -2.63613 0
M  V30 14815 N 1350.98 0.516783 -1.48886 0
M  V30 14816 C 1352.23 1.26936 -1.57263 0
M  V30 14817 C 1352.55 1.93337 -0.254156 0
M  V30 14818 O 1351.82 1.81977 0.725345 0
M  V30 14819 H 1350.4 0.4715 -0.579393 0
M  V30 14820 H 1353.06 0.600289 -1.85425 0
M  V30 14821 H 1352.16 2.04167 -2.36055 0
M  V30 14822 N 1352.46 1.37696 0.766659 0
M  V30 14823 C 1353.71 1.32922 1.52237 0
M  V30 14824 C 1354.03 -0.0842833 1.94818 0
M  V30 14825 O 1353.3 -1.02934 1.66677 0
M  V30 14826 H 1351.88 0.489049 0.564659 0
M  V30 14827 H 1354.54 1.72238 0.912142 0
M  V30 14828 H 1353.64 1.97158 2.4194 0
M  V30 14829 N 1353.94 -0.993397 1.22349 0
M  V30 14830 C 1354.89 -2.10463 0.990358 0
M  V30 14831 C 1355.88 -1.6927 -0.0663528 0
M  V30 14832 O 1357.09 -1.79794 0.0860444 0
M  V30 14833 H 1353.46 -0.688222 0.303075 0
M  V30 14834 H 1355.43 -2.273 1.93333 0
M  V30 14835 C 1354.18 -3.42757 0.584205 0
M  V30 14836 H 1353.51 -3.74896 1.38899 0
M  V30 14837 H 1354.95 -4.21492 0.46049 0
M  V30 14838 C 1353.4 -3.29416 -0.706187 0
M  V30 14839 O 1353.93 -3.61152 -1.75875 0
M  V30 14840 N 1352.14 -2.82601 -0.677148 0
M  V30 14841 H 1351.69 -2.56972 0.179712 0
M  V30 14842 H 1351.65 -2.74056 -1.54081 0
M  V30 14843 N 1355.42 -1.03311 -1.19015 0
M  V30 14844 C 1356.37 -0.588076 -2.20285 0
M  V30 14845 C 1357.35 0.365442 -1.56695 0
M  V30 14846 O 1358.54 0.185725 -1.76023 0
M  V30 14847 C 1355.67 0.0553478 -3.43255 0
M  V30 14848 C 1354.76 -0.920863 -4.13982 0
M  V30 14849 N 1355.15 -2.08495 -4.60829 0
M  V30 14850 C 1353.45 -0.74522 -4.3973 0
M  V30 14851 C 1354.15 -2.701 -5.1519 0
M  V30 14852 N 1353.12 -1.98031 -5.06246 0
M  V30 14853 H 1356.93 -1.47529 -2.54189 0
M  V30 14854 H 1354.44 -0.900663 -1.35136 0
M  V30 14855 H 1356.44 0.39182 -4.15055 0
M  V30 14856 H 1355.1 0.938199 -3.1085 0
M  V30 14857 H 1356.11 -2.46418 -4.5552 0
M  V30 14858 H 1352.79 0.088182 -4.17407 0
M  V30 14859 H 1354.18 -3.6871 -5.61696 0
M  V30 14860 N 1356.9 1.35099 -0.81154 0
M  V30 14861 C 1358.14 1.9788 -0.390695 0
M  V30 14862 C 1358.46 1.6509 1.04903 0
M  V30 14863 O 1359.66 2.21273 1.57324 0
M  V30 14864 C 1358.12 3.54025 -0.647632 0
M  V30 14865 C 1357.73 3.9572 -2.10023 0
M  V30 14866 C 1359.47 4.23492 -0.29239 0
M  V30 14867 C 1357.38 5.44731 -2.30266 0
M  V30 14868 H 1356.31 0.740441 -0.14235 0
M  V30 14869 H 1358.96 1.54098 -0.996294 0
M  V30 14870 H 1357.34 3.9599 0.0279838 0
M  V30 14871 H 1358.52 3.64893 -2.81407 0
M  V30 14872 H 1356.83 3.39157 -2.41581 0
M  V30 14873 H 1359.43 5.33035 -0.421618 0
M  V30 14874 H 1359.77 4.09268 0.76195 0
M  V30 14875 H 1360.3 3.86965 -0.922122 0
M  V30 14876 H 1357.04 5.63928 -3.34163 0
M  V30 14877 H 1356.56 5.7711 -1.63413 0
M  V30 14878 H 1358.24 6.1126 -2.12062 0
M  V30 14879 N 1358.37 0.56548 1.47106 0
M  V30 14880 C 1359.34 -0.167191 2.28589 0
M  V30 14881 C 1360.34 -0.835005 1.3742 0
M  V30 14882 O 1361.53 -0.689598 1.59969 0
M  V30 14883 C 1358.66 -1.24548 3.17333 0
M  V30 14884 H 1359.85 0.548677 2.94838 0
M  V30 14885 H 1357.4 0.322749 1.52931 0
M  V30 14886 H 1358.14 -1.99348 2.55794 0
M  V30 14887 H 1357.92 -0.771335 3.84438 0
M  V30 14888 H 1359.41 -1.75985 3.78707 0
M  V30 14889 N 1359.85 -1.54672 0.302354 0
M  V30 14890 C 1361.13 -1.92264 -0.359711 0
M  V30 14891 C 1361.51 -1.22973 -1.71583 0
M  V30 14892 O 1360.86 -0.365942 -2.25551 0
M  V30 14893 C 1361.07 -3.4578 -0.473019 0
M  V30 14894 C 1362.42 -4.18044 -0.743252 0
M  V30 14895 O 1363.44 -3.51822 -0.556778 0
M  V30 14896 O 1362.3 -5.35283 -1.10155 0
M  V30 14897 H 1359.39 -0.802112 -0.201359 0
M  V30 14898 H 1361.94 -1.66041 0.350513 0
M  V30 14899 H 1360.71 -3.88342 0.480265 0
M  V30 14900 H 1360.33 -3.78042 -1.23166 0
M  V30 14901 N 1361.33 -0.0301034 -1.57571 0
M  V30 14902 C 1362.26 0.94977 -2.13311 0
M  V30 14903 C 1363.24 1.33865 -1.04948 0
M  V30 14904 O 1364.43 1.4171 -1.32786 0
M  V30 14905 C 1361.56 2.23178 -2.66099 0
M  V30 14906 C 1360.51 1.98362 -3.79258 0
M  V30 14907 C 1359.84 3.32836 -4.18479 0
M  V30 14908 C 1361.14 1.32201 -5.05292 0
M  V30 14909 H 1362.83 0.485562 -2.95436 0
M  V30 14910 H 1360.38 0.232116 -1.42117 0
M  V30 14911 H 1362.33 2.92108 -3.03728 0
M  V30 14912 H 1361.05 2.71766 -1.81137 0
M  V30 14913 H 1359.71 1.31849 -3.42069 0
M  V30 14914 H 1359.36 3.79185 -3.30496 0
M  V30 14915 H 1359.06 3.17037 -4.94733 0
M  V30 14916 H 1360.58 4.03032 -4.58691 0
M  V30 14917 H 1362 1.91133 -5.40501 0
M  V30 14918 H 1360.4 1.26797 -5.86551 0
M  V30 14919 H 1361.47 0.29511 -4.84001 0
M  V30 14920 N 1362.81 1.55714 0.243056 0
M  V30 14921 C 1363.76 1.90638 1.30099 0
M  V30 14922 C 1364.73 0.761049 1.47639 0
M  V30 14923 O 1365.91 1.01505 1.61559 0
M  V30 14924 C 1363.05 2.20985 2.65065 0
M  V30 14925 C 1362.16 3.48343 2.55501 0
M  V30 14926 C 1361.3 3.68241 3.82847 0
M  V30 14927 C 1360.34 4.89187 3.67916 0
M  V30 14928 N 1359.47 5.05586 4.87162 0
M  V30 14929 H 1364.31 2.80857 0.996155 0
M  V30 14930 H 1361.85 1.39027 0.480619 0
M  V30 14931 H 1363.81 2.36585 3.43632 0
M  V30 14932 H 1362.44 1.33966 2.93689 0
M  V30 14933 H 1361.49 3.41054 1.68483 0
M  V30 14934 H 1362.8 4.37057 2.4038 0
M  V30 14935 H 1361.96 3.83822 4.69857 0
M  V30 14936 H 1360.7 2.77768 4.00869 0
M  V30 14937 H 1359.7 4.7358 2.79289 0
M  V30 14938 H 1360.93 5.81124 3.51385 0
M  V30 14939 H 1358.87 4.18051 5.05538 0
M  V30 14940 H 1358.79 5.88395 4.74686 0
M  V30 14941 H 1360.06 5.25582 5.7566 0
M  V30 14942 N 1364.29 -0.50888 1.49158 0
M  V30 14943 C 1365.23 -1.61129 1.65246 0
M  V30 14944 C 1366.2 -1.58582 0.49405 0
M  V30 14945 O 1367.39 -1.76689 0.720122 0
M  V30 14946 C 1364.53 -2.99311 1.71776 0
M  V30 14947 C 1363.64 -3.11933 2.98868 0
M  V30 14948 C 1362.78 -4.408 2.96426 0
M  V30 14949 C 1361.82 -4.47027 4.18131 0
M  V30 14950 N 1360.95 -5.67311 4.13645 0
M  V30 14951 H 1365.79 -1.4672 2.59379 0
M  V30 14952 H 1363.33 -0.713978 1.28611 0
M  V30 14953 H 1365.29 -3.79392 1.73543 0
M  V30 14954 H 1363.92 -3.12442 0.811159 0
M  V30 14955 H 1362.97 -2.24966 3.06748 0
M  V30 14956 H 1364.28 -3.12393 3.8886 0
M  V30 14957 H 1363.44 -5.29194 2.96712 0
M  V30 14958 H 1362.17 -4.42893 2.04199 0
M  V30 14959 H 1361.18 -3.57036 4.18097 0
M  V30 14960 H 1362.4 -4.46656 5.11542 0
M  V30 14961 H 1360.35 -5.70261 3.2425 0
M  V30 14962 H 1360.27 -5.69355 4.97364 0
M  V30 14963 H 1361.54 -6.57934 4.18022 0
M  V30 14964 N 1365.76 -1.381 -0.759346 0
M  V30 14965 C 1366.67 -1.37086 -1.9038 0
M  V30 14966 C 1367.69 -0.268738 -1.71912 0
M  V30 14967 O 1368.87 -0.506205 -1.94935 0
M  V30 14968 C 1365.93 -1.18905 -3.25672 0
M  V30 14969 C 1364.99 -2.3887 -3.56707 0
M  V30 14970 C 1364.23 -2.21546 -4.85544 0
M  V30 14971 O 1364.45 -1.20616 -5.57501 0
M  V30 14972 O 1363.38 -3.10009 -5.15924 0
M  V30 14973 H 1367.21 -2.33505 -1.94188 0
M  V30 14974 H 1364.79 -1.18959 -0.903826 0
M  V30 14975 H 1366.68 -1.10803 -4.06572 0
M  V30 14976 H 1365.35 -0.255675 -3.22689 0
M  V30 14977 H 1364.26 -2.52546 -2.75992 0
M  V30 14978 H 1365.59 -3.30817 -3.64446 0
M  V30 14979 N 1367.24 0.986894 -1.22875 0
M  V30 14980 C 1368.49 1.72152 -1.05103 0
M  V30 14981 C 1368.8 1.91185 0.413248 0
M  V30 14982 O 1370.01 2.62031 0.710759 0
M  V30 14983 C 1368.47 3.09771 -1.8322 0
M  V30 14984 C 1368.07 2.98648 -3.33936 0
M  V30 14985 C 1369.82 3.87238 -1.73917 0
M  V30 14986 C 1367.73 4.31459 -4.04471 0
M  V30 14987 H 1366.66 0.645498 -0.389677 0
M  V30 14988 H 1369.31 1.10125 -1.46781 0
M  V30 14989 H 1367.69 3.72515 -1.34345 0
M  V30 14990 H 1368.86 2.45033 -3.9025 0
M  V30 14991 H 1367.18 2.34661 -3.43982 0
M  V30 14992 H 1369.77 4.85549 -2.23933 0
M  V30 14993 H 1370.12 4.1036 -0.700711 0
M  V30 14994 H 1370.65 3.31183 -2.20369 0
M  V30 14995 H 1367.39 4.13534 -5.08596 0
M  V30 14996 H 1366.91 4.84964 -3.52944 0
M  V30 14997 H 1368.59 5.00179 -4.10403 0
M  V30 14998 N 1368.72 1.0394 1.18466 0
M  V30 14999 C 1369.63 0.639714 2.2571 0
M  V30 15000 C 1370.65 -0.333431 1.70775 0
M  V30 15001 O 1371.82 -0.188676 2.00514 0
M  V30 15002 C 1368.89 0.007559 3.46699 0
M  V30 15003 C 1367.95 1.02955 4.16772 0
M  V30 15004 C 1367.18 0.427464 5.31985 0
M  V30 15005 O 1367.4 -0.766684 5.65224 0
M  V30 15006 O 1366.34 1.15553 5.90704 0
M  V30 15007 H 1370.16 1.53316 2.6216 0
M  V30 15008 H 1367.75 0.810206 1.25523 0
M  V30 15009 H 1369.63 -0.344404 4.1999 0
M  V30 15010 H 1368.31 -0.859727 3.12074 0
M  V30 15011 H 1367.21 1.43328 3.45554 0
M  V30 15012 H 1368.55 1.86756 4.55393 0
M  V30 15013 N 1370.2 -1.34667 0.818693 0
M  V30 15014 C 1371.45 -1.9767 0.401184 0
M  V30 15015 C 1371.76 -1.65644 -1.04027 0
M  V30 15016 O 1372.97 -2.22104 -1.56148 0
M  V30 15017 C 1371.42 -3.53677 0.666398 0
M  V30 15018 C 1371.03 -3.94601 2.12119 0
M  V30 15019 C 1372.77 -4.23331 0.314845 0
M  V30 15020 C 1370.68 -5.43502 2.33151 0
M  V30 15021 H 1369.61 -0.739675 0.146275 0
M  V30 15022 H 1372.26 -1.53568 1.00445 0
M  V30 15023 H 1370.64 -3.95999 -0.00698307 0
M  V30 15024 H 1371.82 -3.63396 2.83338 0
M  V30 15025 H 1370.13 -3.37871 2.43377 0
M  V30 15026 H 1372.73 -5.32804 0.449881 0
M  V30 15027 H 1373.07 -4.09666 -0.740235 0
M  V30 15028 H 1373.61 -3.8647 0.942631 0
M  V30 15029 H 1370.35 -5.62148 3.37149 0
M  V30 15030 H 1369.87 -5.76236 1.66471 0
M  V30 15031 H 1371.54 -6.10127 2.153 0
M  V30 15032 N 1371.68 -0.573274 -1.46804 0
M  V30 15033 C 1372.61 0.153316 -2.32996 0
M  V30 15034 C 1373.59 0.893013 -1.44773 0
M  V30 15035 O 1374.77 0.870329 -1.73606 0
M  V30 15036 C 1371.9 1.1736 -3.2687 0
M  V30 15037 C 1370.86 0.549347 -4.2446 0
M  V30 15038 C 1370.18 1.67542 -5.07773 0
M  V30 15039 C 1371.48 -0.50736 -5.1983 0
M  V30 15040 H 1373.18 -0.566305 -2.93995 0
M  V30 15041 H 1370.72 -0.273785 -1.41373 0
M  V30 15042 H 1372.68 1.6902 -3.86019 0
M  V30 15043 H 1371.4 1.92337 -2.63958 0
M  V30 15044 H 1370.06 0.0539142 -3.6656 0
M  V30 15045 H 1369.71 2.41463 -4.41253 0
M  V30 15046 H 1369.41 1.26343 -5.73856 0
M  V30 15047 H 1370.93 2.19496 -5.69784 0
M  V30 15048 H 1372.34 -0.0762061 -5.73249 0
M  V30 15049 H 1370.74 -0.839139 -5.94204 0
M  V30 15050 H 1371.81 -1.39723 -4.64333 0
M  V30 15051 N 1373.15 1.5451 -0.310553 0
M  V30 15052 C 1374.57 1.59543 0.0425296 0
M  V30 15053 C 1374.77 1.32737 1.51602 0
M  V30 15054 O 1373.83 1.10543 2.27016 0
M  V30 15055 C 1375.14 2.98489 -0.364002 0
M  V30 15056 C 1376.69 3.11425 -0.313566 0
M  V30 15057 C 1377.16 4.52695 -0.695064 0
M  V30 15058 N 1378.65 4.58645 -0.647966 0
M  V30 15059 C 1379.39 5.66044 -0.915508 0
M  V30 15060 N 1378.88 6.81439 -1.24951 0
M  V30 15061 N 1380.68 5.55759 -0.841933 0
M  V30 15062 H 1372.83 1.70194 -1.27074 0
M  V30 15063 H 1375.09 0.795374 -0.515833 0
M  V30 15064 H 1374.8 3.23061 -1.39012 0
M  V30 15065 H 1374.67 3.76177 0.27756 0
M  V30 15066 H 1377.06 2.86596 0.703326 0
M  V30 15067 H 1377.14 2.35871 -0.989883 0
M  V30 15068 H 1376.78 4.78255 -1.70981 0
M  V30 15069 H 1376.71 5.266 0.00342684 0
M  V30 15070 H 1379.2 3.75765 -0.401137 0
M  V30 15071 H 1379.52 7.59277 -1.43938 0
M  V30 15072 H 1377.86 6.82968 -1.28764 0
M  V30 15073 H 1381.05 4.64486 -0.58058 0
M  V30 15074 H 1381.23 6.39374 -1.0538 0
M  V30 15075 N 1374.63 0.0384594 1.57553 0
M  V30 15076 C 1375.58 -0.958199 2.11946 0
M  V30 15077 C 1376.58 -1.33073 1.04823 0
M  V30 15078 O 1377.78 -1.31187 1.23247 0
M  V30 15079 H 1374.16 -0.326819 0.677269 0
M  V30 15080 H 1376.13 -0.474211 2.94608 0
M  V30 15081 C 1374.88 -2.22821 2.6692 0
M  V30 15082 H 1374.2 -1.95032 3.49002 0
M  V30 15083 H 1375.64 -2.90746 3.08614 0
M  V30 15084 C 1374.1 -2.96429 1.60098 0
M  V30 15085 O 1374.63 -3.88892 1.00628 0
M  V30 15086 N 1372.83 -2.58931 1.3192 0
M  V30 15087 H 1372.38 -1.83818 1.80468 0
M  V30 15088 H 1372.34 -3.0849 0.60674 0
M  V30 15089 N 1376.11 -1.55841 -0.234795 0
M  V30 15090 C 1377.04 -1.94344 -1.29432 0
M  V30 15091 C 1378.02 -0.809912 -1.49581 0
M  V30 15092 O 1379.21 -1.07117 -1.61986 0
M  V30 15093 C 1376.34 -2.24866 -2.64675 0
M  V30 15094 C 1375.29 -3.40584 -2.59203 0
M  V30 15095 C 1374.62 -3.56678 -3.98353 0
M  V30 15096 C 1375.92 -4.75935 -2.15135 0
M  V30 15097 H 1377.61 -2.83096 -0.97454 0
M  V30 15098 H 1375.16 -1.36205 -0.467355 0
M  V30 15099 H 1377.11 -2.50392 -3.38942 0
M  V30 15100 H 1375.83 -1.32953 -2.98314 0
M  V30 15101 H 1374.49 -3.15087 -1.87393 0
M  V30 15102 H 1374.14 -2.62164 -4.29277 0
M  V30 15103 H 1373.84 -4.34503 -3.95577 0
M  V30 15104 H 1375.37 -3.84538 -4.74302 0
M  V30 15105 H 1376.78 -5.00753 -2.7914 0
M  V30 15106 H 1375.18 -5.56949 -2.23446 0
M  V30 15107 H 1376.25 -4.72182 -1.10328 0
M  V30 15108 N 1377.59 0.500963 -1.49426 0
M  V30 15109 C 1378.82 1.27725 -1.62388 0
M  V30 15110 C 1379.23 1.86893 -0.294544 0
M  V30 15111 O 1378.57 1.68571 0.73003 0
M  V30 15112 C 1378.63 2.44649 -2.63414 0
M  V30 15113 C 1378.3 2.0635 -4.0776 0
M  V30 15114 C 1379.29 1.60323 -4.94563 0
M  V30 15115 C 1376.98 2.15984 -4.53493 0
M  V30 15116 C 1378.97 1.24433 -6.25136 0
M  V30 15117 C 1376.66 1.79706 -5.8408 0
M  V30 15118 C 1377.66 1.34005 -6.69725 0
M  V30 15119 O 1377.35 0.982171 -7.97878 0
M  V30 15120 H 1377.08 0.393595 -0.549599 0
M  V30 15121 H 1379.63 0.607944 -1.96197 0
M  V30 15122 H 1377.86 3.14656 -2.24785 0
M  V30 15123 H 1379.55 3.06675 -2.65905 0
M  V30 15124 H 1380.32 1.52326 -4.60458 0
M  V30 15125 H 1376.2 2.50507 -3.86998 0
M  V30 15126 H 1379.74 0.886906 -6.91939 0
M  V30 15127 H 1375.64 1.87352 -6.17713 0
M  V30 15128 H 1376.4 1.11364 -8.10889 0
M  V30 15129 N 1379.07 1.38501 0.752011 0
M  V30 15130 C 1380.02 1.32359 1.85648 0
M  V30 15131 C 1381 0.207578 1.59555 0
M  V30 15132 O 1382.19 0.443683 1.71349 0
M  V30 15133 C 1379.32 1.15253 3.23375 0
M  V30 15134 C 1378.41 2.31483 3.55354 0
M  V30 15135 N 1378.8 3.56929 3.58379 0
M  V30 15136 C 1377.1 2.2407 3.85628 0
M  V30 15137 C 1377.8 4.33691 3.87669 0
M  V30 15138 N 1376.77 3.63065 4.04579 0
M  V30 15139 H 1380.58 2.27336 1.86267 0
M  V30 15140 H 1378.09 1.31755 0.949441 0
M  V30 15141 H 1380.09 1.08937 4.02416 0
M  V30 15142 H 1378.75 0.212108 3.24006 0
M  V30 15143 H 1379.76 3.90578 3.40101 0
M  V30 15144 H 1376.44 1.38196 3.93965 0
M  V30 15145 H 1377.83 5.42349 3.9662 0
M  V30 15146 N 1380.55 -0.980364 1.23396 0
M  V30 15147 C 1381.46 -2.10688 1.03188 0
M  V30 15148 C 1382.47 -1.73984 -0.0236159 0
M  V30 15149 O 1383.65 -2.00666 0.171841 0
M  V30 15150 C 1380.71 -3.4101 0.625563 0
M  V30 15151 C 1379.77 -3.91739 1.75611 0
M  V30 15152 C 1379.01 -5.15841 1.36908 0
M  V30 15153 O 1379.23 -5.69837 0.253329 0
M  V30 15154 O 1378.16 -5.60638 2.19018 0
M  V30 15155 H 1381.99 -2.30626 1.97599 0
M  V30 15156 H 1379.57 -1.09067 1.02102 0
M  V30 15157 H 1381.46 -4.19402 0.409909 0
M  V30 15158 H 1380.13 -3.22402 -0.28956 0
M  V30 15159 H 1379.04 -3.14464 2.0264 0
M  V30 15160 H 1380.37 -4.14801 2.64955 0
M  V30 15161 N 1382.02 -1.04567 -1.17913 0
M  V30 15162 C 1382.97 -0.634939 -2.23766 0
M  V30 15163 C 1383.97 0.340723 -1.65938 0
M  V30 15164 O 1385.17 0.207467 -1.788 0
M  V30 15165 H 1381.55 -0.187129 -0.728345 0
M  V30 15166 H 1383.52 -1.53798 -2.55712 0
M  V30 15167 C 1382.27 -0.0190662 -3.47695 0
M  V30 15168 H 1381.59 -0.760881 -3.92493 0
M  V30 15169 H 1383.03 0.231035 -4.2337 0
M  V30 15170 C 1381.49 1.23246 -3.13548 0
M  V30 15171 O 1382.02 2.32262 -3.27746 0
M  V30 15172 N 1380.22 1.12768 -2.67828 0
M  V30 15173 H 1379.77 0.240547 -2.56474 0
M  V30 15174 H 1379.73 1.96594 -2.45353 0
M  V30 15175 N 1383.5 1.34231 -0.825823 0
M  V30 15176 C 1384.75 1.97454 -0.411661 0
M  V30 15177 C 1385.06 1.66193 1.03147 0
M  V30 15178 O 1386.27 2.22929 1.54968 0
M  V30 15179 C 1384.73 3.53318 -0.685145 0
M  V30 15180 C 1384.33 3.9347 -2.14208 0
M  V30 15181 C 1386.08 4.23158 -0.337291 0
M  V30 15182 C 1383.98 5.42258 -2.3603 0
M  V30 15183 H 1382.91 0.738889 -0.150196 0
M  V30 15184 H 1385.57 1.53033 -1.01258 0
M  V30 15185 H 1383.95 3.95998 -0.0140178 0
M  V30 15186 H 1385.12 3.61888 -2.85261 0
M  V30 15187 H 1383.44 3.36575 -2.45165 0
M  V30 15188 H 1386.03 5.32558 -0.47813 0
M  V30 15189 H 1386.38 4.10053 0.718499 0
M  V30 15190 H 1386.91 3.85965 -0.963113 0
M  V30 15191 H 1383.65 5.60352 -3.40126 0
M  V30 15192 H 1383.17 5.75345 -1.69524 0
M  V30 15193 H 1384.85 6.08976 -2.18533 0
M  V30 15194 N 1384.98 0.581051 1.46498 0
M  V30 15195 C 1386.23 0.0660934 2.02692 0
M  V30 15196 C 1386.56 -1.28985 1.45178 0
M  V30 15197 O 1385.83 -1.84479 0.616247 0
M  V30 15198 C 1386.12 -0.00145411 3.601 0
M  V30 15199 C 1385.97 1.38327 4.28002 0
M  V30 15200 C 1387.29 -0.702914 4.3445 0
M  V30 15201 H 1384.41 0.0254923 0.736559 0
M  V30 15202 H 1387.05 0.74793 1.7466 0
M  V30 15203 H 1385.2 -0.582118 3.84114 0
M  V30 15204 H 1386.87 2.00897 4.15257 0
M  V30 15205 H 1385.11 1.95144 3.87429 0
M  V30 15206 H 1385.79 1.28849 5.36751 0
M  V30 15207 H 1388.26 -0.209641 4.15572 0
M  V30 15208 H 1387.14 -0.719202 5.44168 0
M  V30 15209 H 1387.4 -1.76389 4.05388 0
M  V30 15210 N 1386.46 -1.54343 0.318742 0
M  V30 15211 C 1387.4 -2.24166 -0.549397 0
M  V30 15212 C 1388.37 -1.23068 -1.1155 0
M  V30 15213 O 1389.56 -1.51737 -1.15674 0
M  V30 15214 C 1386.7 -2.99938 -1.70678 0
M  V30 15215 C 1385.81 -4.15844 -1.17037 0
M  V30 15216 C 1384.95 -4.79158 -2.29305 0
M  V30 15217 C 1383.99 -5.87176 -1.72888 0
M  V30 15218 N 1383.12 -6.44372 -2.78799 0
M  V30 15219 H 1387.96 -2.97954 0.0526018 0
M  V30 15220 H 1385.5 -1.47052 0.0377307 0
M  V30 15221 H 1387.46 -3.42113 -2.38777 0
M  V30 15222 H 1386.09 -2.28494 -2.28014 0
M  V30 15223 H 1385.14 -3.78486 -0.381082 0
M  V30 15224 H 1386.45 -4.93612 -0.717507 0
M  V30 15225 H 1385.61 -5.24277 -3.05317 0
M  V30 15226 H 1384.35 -4.0076 -2.77926 0
M  V30 15227 H 1383.35 -5.41465 -0.953714 0
M  V30 15228 H 1384.58 -6.67469 -1.2515 0
M  V30 15229 H 1382.52 -5.6885 -3.2672 0
M  V30 15230 H 1382.44 -7.17539 -2.38062 0
M  V30 15231 H 1383.71 -6.94147 -3.54655 0
M  V30 15232 N 1387.94 -0.0468143 -1.5753 0
M  V30 15233 C 1389.17 0.636723 -1.96544 0
M  V30 15234 C 1389.57 1.65169 -0.922814 0
M  V30 15235 O 1388.92 1.83417 0.101892 0
M  V30 15236 C 1388.98 1.38435 -3.31777 0
M  V30 15237 C 1388.64 0.525714 -4.53966 0
M  V30 15238 C 1389.64 -0.206392 -5.1949 0
M  V30 15239 C 1387.32 0.457919 -5.00208 0
M  V30 15240 C 1389.32 -0.994779 -6.29589 0
M  V30 15241 C 1387.01 -0.334159 -6.10186 0
M  V30 15242 C 1388 -1.0592 -6.74737 0
M  V30 15243 O 1387.69 -1.83826 -7.826 0
M  V30 15244 H 1387.42 0.179197 -0.651816 0
M  V30 15245 H 1389.98 -0.108214 -2.05115 0
M  V30 15246 H 1388.21 2.17482 -3.19748 0
M  V30 15247 H 1389.9 1.9577 -3.55568 0
M  V30 15248 H 1390.66 -0.163457 -4.84724 0
M  V30 15249 H 1386.54 1.01185 -4.49758 0
M  V30 15250 H 1390.09 -1.56121 -6.79906 0
M  V30 15251 H 1385.98 -0.378748 -6.44388 0
M  V30 15252 H 1386.75 -1.75991 -7.99356 0
M  V30 15253 N 1389.41 1.55964 0.226527 0
M  V30 15254 C 1390.36 1.92007 1.28069 0
M  V30 15255 C 1391.33 0.776666 1.46823 0
M  V30 15256 O 1392.52 1.03213 1.60474 0
M  V30 15257 C 1389.66 2.23784 2.62707 0
M  V30 15258 C 1388.77 3.51034 2.51792 0
M  V30 15259 C 1387.9 3.72281 3.7892 0
M  V30 15260 C 1386.94 4.93062 3.62707 0
M  V30 15261 N 1386.08 5.10725 4.81772 0
M  V30 15262 H 1390.92 2.81898 0.96631 0
M  V30 15263 H 1388.46 1.39529 0.465847 0
M  V30 15264 H 1390.42 2.40217 3.41104 0
M  V30 15265 H 1389.05 1.37073 2.92251 0
M  V30 15266 H 1388.1 3.42822 1.64856 0
M  V30 15267 H 1389.41 4.39582 2.35731 0
M  V30 15268 H 1388.56 3.88783 4.6576 0
M  V30 15269 H 1387.3 2.82004 3.97901 0
M  V30 15270 H 1386.31 4.76515 2.7425 0
M  V30 15271 H 1387.53 5.84819 3.45201 0
M  V30 15272 H 1385.48 4.2339 5.01076 0
M  V30 15273 H 1385.4 5.93397 4.68419 0
M  V30 15274 H 1386.66 5.31658 5.70053 0
M  V30 15275 N 1390.89 -0.493031 1.4969 0
M  V30 15276 C 1392.14 -1.24418 1.59263 0
M  V30 15277 C 1392.46 -1.92908 0.284882 0
M  V30 15278 O 1391.73 -1.83108 -0.696302 0
M  V30 15279 H 1390.31 -0.462223 0.586821 0
M  V30 15280 H 1392.97 -0.570713 1.86357 0
M  V30 15281 H 1392.07 -2.00386 2.39274 0
M  V30 15282 N 1392.37 -1.38898 -0.744656 0
M  V30 15283 C 1393.62 -1.34909 -1.49941 0
M  V30 15284 C 1393.93 0.0553979 -1.95522 0
M  V30 15285 O 1395.14 0.21785 -2.70625 0
M  V30 15286 C 1393.59 -2.36954 -2.70889 0
M  V30 15287 C 1393.2 -3.83069 -2.32298 0
M  V30 15288 C 1394.95 -2.42024 -3.48747 0
M  V30 15289 C 1392.85 -4.76777 -3.4991 0
M  V30 15290 H 1391.78 -0.501512 -0.563029 0
M  V30 15291 H 1394.43 -1.64497 -0.813201 0
M  V30 15292 H 1392.82 -2.00421 -3.41537 0
M  V30 15293 H 1393.99 -4.28588 -1.69259 0
M  V30 15294 H 1392.31 -3.81202 -1.67554 0
M  V30 15295 H 1394.9 -3.0923 -4.36212 0
M  V30 15296 H 1395.25 -1.44184 -3.90534 0
M  V30 15297 H 1395.78 -2.774 -2.85121 0
M  V30 15298 H 1392.52 -5.75844 -3.13183 0
M  V30 15299 H 1392.04 -4.35944 -4.11962 0
M  V30 15300 H 1393.72 -4.95219 -4.16374 0
M  V30 15301 N 1393.85 0.973806 -1.23914 0
M  V30 15302 C 1395.09 1.731 -1.08701 0
M  V30 15303 C 1395.45 1.88425 0.368772 0
M  V30 15304 O 1396.65 2.61014 0.642259 0
M  V30 15305 C 1394.92 3.08777 -1.79977 0
M  V30 15306 S 1396.48 3.99993 -1.80419 0
M  V30 15307 H 1393.3 0.595219 -0.38889 0
M  V30 15308 H 1395.9 1.16291 -1.57152 0
M  V30 15309 H 1394.61 2.95278 -2.85024 0
M  V30 15310 H 1394.14 3.70652 -1.31835 0
M  V30 15311 H 1396.15 4.88558 -0.867494 0
M  V30 15312 N 1395.33 1.05191 1.17357 0
M  V30 15313 C 1396.55 0.782373 1.91537 0
M  V30 15314 C 1396.97 -0.661935 1.76816 0
M  V30 15315 O 1396.33 -1.45221 1.10531 0
M  V30 15316 C 1396.38 1.15357 3.426 0
M  V30 15317 O 1396.1 2.54119 3.56869 0
M  V30 15318 C 1397.6 0.910167 4.33856 0
M  V30 15319 H 1394.82 0.284461 0.607719 0
M  V30 15320 H 1397.36 1.40259 1.48821 0
M  V30 15321 H 1395.52 0.578107 3.83062 0
M  V30 15322 H 1395.93 2.68668 4.50464 0
M  V30 15323 H 1397.41 1.21964 5.38358 0
M  V30 15324 H 1397.88 -0.154624 4.38928 0
M  V30 15325 H 1398.49 1.46947 3.99107 0
M  V30 15326 N 1396.8 -1.33791 0.83293 0
M  V30 15327 C 1397.71 -2.33108 0.264169 0
M  V30 15328 C 1398.73 -1.6308 -0.606694 0
M  V30 15329 O 1399.91 -1.94777 -0.512225 0
M  V30 15330 C 1396.97 -3.42208 -0.556315 0
M  V30 15331 C 1396.03 -4.27966 0.338123 0
M  V30 15332 C 1395.27 -5.31856 -0.443297 0
M  V30 15333 O 1395.49 -5.45234 -1.6756 0
M  V30 15334 O 1394.42 -6.01632 0.179599 0
M  V30 15335 H 1398.25 -2.83602 1.08645 0
M  V30 15336 H 1395.83 -1.37027 0.595307 0
M  V30 15337 H 1397.72 -4.088 -1.02277 0
M  V30 15338 H 1396.39 -2.9394 -1.35575 0
M  V30 15339 H 1395.3 -3.64262 0.852293 0
M  V30 15340 H 1396.63 -4.79701 1.10217 0
M  V30 15341 N 1398.28 -0.588812 -1.46187 0
M  V30 15342 C 1399.56 -0.00958331 -1.95598 0
M  V30 15343 C 1399.94 1.45294 -1.53144 0
M  V30 15344 O 1399.29 2.14592 -0.785015 0
M  V30 15345 C 1399.5 -0.188018 -3.48493 0
M  V30 15346 C 1400.85 -0.0590152 -4.24559 0
M  V30 15347 O 1401.87 -0.117167 -3.56007 0
M  V30 15348 O 1400.73 0.0715924 -5.46453 0
M  V30 15349 H 1397.82 0.0463708 -0.825699 0
M  V30 15350 H 1400.37 -0.657558 -1.56443 0
M  V30 15351 H 1399.14 -1.20449 -3.723 0
M  V30 15352 H 1398.76 0.496103 -3.94493 0
M  V30 15353 N 1399.76 1.54172 -0.326923 0
M  V30 15354 C 1401.01 2.00233 0.274098 0
M  V30 15355 C 1401.33 1.21665 1.5239 0
M  V30 15356 O 1400.6 0.319359 1.93279 0
M  V30 15357 H 1399.18 0.739687 0.104271 0
M  V30 15358 H 1401.84 1.8977 -0.444244 0
M  V30 15359 H 1400.94 3.07599 0.528154 0
M  V30 15360 N 1401.24 0.0551678 1.57503 0
M  V30 15361 C 1402.49 -0.6165 1.92467 0
M  V30 15362 C 1402.81 -1.71147 0.934552 0
M  V30 15363 O 1402.08 -1.9589 -0.0199649 0
M  V30 15364 H 1400.66 -0.230714 0.710479 0
M  V30 15365 H 1403.32 0.109111 1.94594 0
M  V30 15366 H 1402.42 -1.05254 2.93816 0
M  V30 15367 N 1402.72 -1.56081 -0.218252 0
M  V30 15368 C 1403.66 -1.93544 -1.2901 0
M  V30 15369 C 1404.66 -0.817886 -1.48348 0
M  V30 15370 O 1405.86 -1.00274 -1.49483 0
M  V30 15371 H 1402.24 -0.61511 -0.432601 0
M  V30 15372 H 1404.21 -2.82975 -0.946966 0
M  V30 15373 C 1402.96 -2.27134 -2.63259 0
M  V30 15374 H 1402.28 -3.12643 -2.49188 0
M  V30 15375 H 1403.72 -2.57228 -3.3706 0
M  V30 15376 C 1402.18 -1.09764 -3.18518 0
M  V30 15377 O 1402.71 -0.360501 -4.00079 0
M  V30 15378 N 1400.92 -0.880589 -2.76937 0
M  V30 15379 H 1400.46 -1.48175 -2.10718 0
M  V30 15380 H 1400.42 -0.0970234 -3.1425 0
M  V30 15381 N 1404.2 0.485086 -1.49949 0
M  V30 15382 C 1405.44 1.23571 -1.5992 0
M  V30 15383 C 1405.76 1.92754 -0.295108 0
M  V30 15384 O 1405.03 1.83474 0.686582 0
M  V30 15385 H 1403.61 0.459104 -0.589264 0
M  V30 15386 H 1406.28 0.560822 -1.86657 0
M  V30 15387 H 1405.37 1.99114 -2.40333 0
M  V30 15388 N 1405.67 1.39291 0.737279 0
M  V30 15389 C 1406.92 1.35702 1.49224 0
M  V30 15390 C 1407.24 -0.0450282 1.95548 0
M  V30 15391 O 1408.44 -0.203495 2.70736 0
M  V30 15392 C 1406.9 2.38387 2.69629 0
M  V30 15393 C 1406.51 3.84295 2.30263 0
M  V30 15394 C 1408.25 2.4387 3.47459 0
M  V30 15395 C 1406.16 4.78626 3.47377 0
M  V30 15396 H 1405.09 0.50449 0.560362 0
M  V30 15397 H 1407.74 1.64926 0.804466 0
M  V30 15398 H 1406.12 2.0223 3.40469 0
M  V30 15399 H 1407.29 4.2948 1.66984 0
M  V30 15400 H 1405.61 3.82085 1.6553 0
M  V30 15401 H 1408.21 3.11539 4.34566 0
M  V30 15402 H 1408.55 1.46253 3.89764 0
M  V30 15403 H 1409.08 2.78908 2.83646 0
M  V30 15404 H 1405.82 5.77497 3.10124 0
M  V30 15405 H 1405.34 4.38123 4.09645 0
M  V30 15406 H 1407.02 4.9742 4.13742 0
M  V30 15407 N 1407.15 -0.967221 1.24429 0
M  V30 15408 C 1408.1 -2.06187 1.03709 0
M  V30 15409 C 1409.07 -1.66025 -0.0497665 0
M  V30 15410 O 1410.25 -1.90511 0.104951 0
M  V30 15411 C 1407.39 -3.38952 0.648477 0
M  V30 15412 C 1406.51 -3.92306 1.80886 0
M  V30 15413 C 1405.64 -5.13342 1.36579 0
M  V30 15414 C 1404.68 -5.58893 2.49609 0
M  V30 15415 N 1403.82 -6.71148 2.06165 0
M  V30 15416 H 1408.66 -2.23244 1.97399 0
M  V30 15417 H 1406.19 -1.09415 0.983192 0
M  V30 15418 H 1408.15 -4.15237 0.40419 0
M  V30 15419 H 1406.78 -3.21819 -0.25142 0
M  V30 15420 H 1405.83 -3.12656 2.1668 0
M  V30 15421 H 1407.15 -4.22071 2.65815 0
M  V30 15422 H 1406.3 -5.97003 1.0804 0
M  V30 15423 H 1405.04 -4.85262 0.487051 0
M  V30 15424 H 1404.04 -4.73805 2.78906 0
M  V30 15425 H 1405.27 -5.88987 3.3804 0
M  V30 15426 H 1403.22 -6.44802 1.20691 0
M  V30 15427 H 1403.13 -7.00366 2.84647 0
M  V30 15428 H 1404.4 -7.5825 1.80769 0
M  V30 15429 N 1408.63 -1.05812 -1.16797 0
M  V30 15430 C 1409.56 -0.685778 -2.23202 0
M  V30 15431 C 1410.54 0.319428 -1.67074 0
M  V30 15432 O 1411.73 0.195635 -1.93212 0
M  V30 15433 C 1408.86 -0.0662958 -3.47237 0
M  V30 15434 C 1407.81 -0.996943 -4.16227 0
M  V30 15435 C 1407.14 -0.241015 -5.34157 0
M  V30 15436 C 1408.44 -2.32384 -4.67755 0
M  V30 15437 H 1410.13 -1.57535 -2.54604 0
M  V30 15438 H 1407.68 -0.758909 -1.22379 0
M  V30 15439 H 1409.63 0.206024 -4.20896 0
M  V30 15440 H 1408.35 0.858263 -3.15121 0
M  V30 15441 H 1407.01 -1.25393 -3.44488 0
M  V30 15442 H 1406.66 0.686508 -4.98293 0
M  V30 15443 H 1406.36 -0.861188 -5.81255 0
M  V30 15444 H 1407.88 0.0238739 -6.10595 0
M  V30 15445 H 1409.3 -2.11099 -5.3302 0
M  V30 15446 H 1407.69 -2.89855 -5.25456 0
M  V30 15447 H 1408.76 -2.958 -3.84227 0
M  V30 15448 N 1410.11 1.33347 -0.840014 0
M  V30 15449 C 1411.36 1.97007 -0.432581 0
M  V30 15450 C 1411.67 1.67278 1.01378 0
M  V30 15451 O 1412.88 2.2456 1.52595 0
M  V30 15452 C 1411.33 3.52572 -0.72258 0
M  V30 15453 C 1410.94 3.91176 -2.1837 0
M  V30 15454 C 1412.68 4.22776 -0.382153 0
M  V30 15455 C 1410.59 5.39724 -2.41768 0
M  V30 15456 H 1409.52 0.737255 -0.158024 0
M  V30 15457 H 1412.17 1.5195 -1.02876 0
M  V30 15458 H 1410.55 3.9596 -0.0560179 0
M  V30 15459 H 1411.73 3.58842 -2.89083 0
M  V30 15460 H 1410.04 3.33956 -2.48721 0
M  V30 15461 H 1412.64 5.32021 -0.534588 0
M  V30 15462 H 1412.98 4.10792 0.674967 0
M  V30 15463 H 1413.52 3.84922 -1.004 0
M  V30 15464 H 1410.25 5.56713 -3.4605 0
M  V30 15465 H 1409.77 5.73514 -1.75617 0
M  V30 15466 H 1411.45 6.06624 -2.2498 0
M  V30 15467 N 1411.59 0.596556 1.45873 0
M  V30 15468 C 1412.52 -0.177354 2.2751 0
M  V30 15469 C 1413.5 -0.883999 1.36471 0
M  V30 15470 O 1414.68 -0.895098 1.65892 0
M  V30 15471 C 1411.81 -1.25567 3.14564 0
M  V30 15472 C 1410.85 -0.653363 4.21466 0
M  V30 15473 S 1411.69 0.53036 5.32867 0
M  V30 15474 C 1412.84 -0.548817 6.23489 0
M  V30 15475 H 1413.08 0.515289 2.928 0
M  V30 15476 H 1410.61 0.383791 1.49554 0
M  V30 15477 H 1412.57 -1.87298 3.6528 0
M  V30 15478 H 1411.23 -1.92033 2.4856 0
M  V30 15479 H 1410.42 -1.46435 4.82258 0
M  V30 15480 H 1410.02 -0.111425 3.73834 0
M  V30 15481 H 1412.31 -1.43085 6.62218 0
M  V30 15482 H 1413.26 0.0226785 7.08096 0
M  V30 15483 H 1413.67 -0.859188 5.57923 0
M  V30 15484 N 1413.06 -1.53996 0.335095 0
M  V30 15485 C 1413.97 -2.28436 -0.534244 0
M  V30 15486 C 1414.99 -1.33224 -1.11926 0
M  V30 15487 O 1416.17 -1.66252 -1.13676 0
M  V30 15488 C 1413.23 -3.03634 -1.67354 0
M  V30 15489 C 1412.29 -4.14455 -1.11916 0
M  V30 15490 C 1411.52 -4.86058 -2.20416 0
M  V30 15491 O 1411.75 -4.57263 -3.40979 0
M  V30 15492 O 1410.68 -5.72704 -1.85185 0
M  V30 15493 H 1414.51 -3.03618 0.0706314 0
M  V30 15494 H 1412.09 -1.49062 0.100409 0
M  V30 15495 H 1413.97 -3.50687 -2.33659 0
M  V30 15496 H 1412.65 -2.31317 -2.26438 0
M  V30 15497 H 1411.56 -3.71725 -0.420871 0
M  V30 15498 H 1412.89 -4.8885 -0.573295 0
M  V30 15499 N 1414.54 -0.0635198 -1.57472 0
M  V30 15500 C 1415.79 0.607484 -1.93173 0
M  V30 15501 C 1416.12 1.70117 -0.942897 0
M  V30 15502 O 1415.37 1.95653 0.042832 0
M  V30 15503 C 1415.67 1.23117 -3.35525 0
M  V30 15504 C 1415.34 0.264457 -4.50124 0
M  V30 15505 C 1414 -0.00151762 -4.812 0
M  V30 15506 C 1416.35 -0.39737 -5.19683 0
M  V30 15507 C 1413.68 -0.936547 -5.79177 0
M  V30 15508 C 1416.03 -1.32067 -6.18661 0
M  V30 15509 C 1414.69 -1.59519 -6.48159 0
M  V30 15510 H 1413.96 0.222294 -0.706871 0
M  V30 15511 H 1416.61 -0.132633 -1.9104 0
M  V30 15512 H 1414.92 2.04684 -3.34084 0
M  V30 15513 H 1416.61 1.7575 -3.60434 0
M  V30 15514 H 1413.2 0.481945 -4.25882 0
M  V30 15515 H 1417.39 -0.20499 -4.95876 0
M  V30 15516 H 1412.64 -1.15658 -6.00361 0
M  V30 15517 H 1416.82 -1.83949 -6.71666 0
M  V30 15518 H 1414.44 -2.32134 -7.23891 0
M  V30 15519 N 1416.02 1.56195 0.209972 0
M  V30 15520 C 1416.95 1.96378 1.26324 0
M  V30 15521 C 1417.93 0.833606 1.48273 0
M  V30 15522 O 1419.12 1.0968 1.60262 0
M  V30 15523 C 1416.25 2.29048 2.61064 0
M  V30 15524 C 1415.2 3.44665 2.53752 0
M  V30 15525 C 1414.53 3.6297 3.92628 0
M  V30 15526 C 1415.83 4.79297 2.07536 0
M  V30 15527 H 1417.52 2.8461 0.929379 0
M  V30 15528 H 1415.07 1.36931 0.445627 0
M  V30 15529 H 1417.02 2.55752 3.34916 0
M  V30 15530 H 1415.74 1.37682 2.96161 0
M  V30 15531 H 1414.4 3.18028 1.82356 0
M  V30 15532 H 1414.05 2.68961 4.25052 0
M  V30 15533 H 1413.75 4.40741 3.88614 0
M  V30 15534 H 1415.27 3.92035 4.68125 0
M  V30 15535 H 1416.69 5.05131 2.71138 0
M  V30 15536 H 1415.08 5.60433 2.14557 0
M  V30 15537 H 1416.15 4.73877 1.02802 0
M  V30 15538 N 1417.5 -0.477127 1.50204 0
M  V30 15539 C 1418.91 -1.05815 1.53819 0
M  V30 15540 C 1419.26 -1.93264 0.338169 0
M  V30 15541 O 1418.38 -2.09305 -0.549576 0
M  V30 15542 C 1418.98 -1.92577 2.78746 0
M  V30 15543 C 1417.54 -2.45799 2.85061 0
M  V30 15544 C 1416.69 -1.23994 2.48034 0
M  V30 15545 H 1419.64 -0.259998 1.56556 0
M  V30 15546 H 1419.66 -2.7757 2.6026 0
M  V30 15547 H 1419.17 -1.28904 3.66068 0
M  V30 15548 H 1417.27 -3.13042 2.02077 0
M  V30 15549 H 1417.38 -2.81318 3.8781 0
M  V30 15550 H 1415.75 -1.5728 2.00338 0
M  V30 15551 H 1416.53 -0.619917 3.37657 0
M  V30 15552 N 1418.98 -1.3968 -0.729882 0
M  V30 15553 C 1420.2 -1.40654 -1.52418 0
M  V30 15554 C 1420.63 -0.00428997 -1.881 0
M  V30 15555 O 1419.98 0.984023 -1.52272 0
M  V30 15556 C 1420.03 -2.29057 -2.78506 0
M  V30 15557 O 1419.14 -1.72397 -3.74637 0
M  V30 15558 H 1418.48 -0.478761 -0.460091 0
M  V30 15559 H 1421.01 -1.83738 -0.900087 0
M  V30 15560 H 1421.02 -2.43748 -3.27187 0
M  V30 15561 H 1419.69 -3.30961 -2.51868 0
M  V30 15562 H 1418.27 -1.66977 -3.33426 0
M  V30 15563 N 1420.45 0.960609 -1.2494 0
M  V30 15564 C 1421.7 1.70111 -1.09117 0
M  V30 15565 C 1422.02 1.91466 0.369544 0
M  V30 15566 O 1421.29 1.49749 1.26302 0
M  V30 15567 H 1419.87 0.630372 -0.400799 0
M  V30 15568 H 1422.54 1.15525 -1.56971 0
M  V30 15569 H 1421.63 2.68277 -1.5948 0
M  V30 15570 N 1421.93 1.0643 1.16234 0
M  V30 15571 C 1423.16 0.802671 1.91238 0
M  V30 15572 C 1423.58 -0.637222 1.76978 0
M  V30 15573 O 1422.94 -1.44419 1.09603 0
M  V30 15574 C 1422.99 1.20389 3.3991 0
M  V30 15575 O 1422.09 0.343516 4.10967 0
M  V30 15576 H 1421.43 0.29323 0.595745 0
M  V30 15577 H 1423.96 1.42046 1.47255 0
M  V30 15578 H 1423.97 1.17604 3.90683 0
M  V30 15579 H 1422.65 2.2527 3.49608 0
M  V30 15580 H 1421.23 0.433051 3.70377 0
M  V30 15581 N 1423.41 -1.329 0.847073 0
M  V30 15582 C 1424.34 -2.31546 0.301422 0
M  V30 15583 C 1425.32 -1.59342 -0.595317 0
M  V30 15584 O 1426.51 -1.87188 -0.517151 0
M  V30 15585 C 1423.64 -3.43423 -0.517454 0
M  V30 15586 C 1422.59 -4.27055 0.284195 0
M  V30 15587 C 1421.92 -5.30624 -0.658944 0
M  V30 15588 C 1423.22 -5.00123 1.50578 0
M  V30 15589 H 1424.91 -2.77433 1.12567 0
M  V30 15590 H 1422.46 -1.3338 0.542739 0
M  V30 15591 H 1424.41 -4.11467 -0.909543 0
M  V30 15592 H 1423.13 -2.96246 -1.37499 0
M  V30 15593 H 1421.79 -3.60648 0.657944 0
M  V30 15594 H 1421.44 -4.79702 -1.51311 0
M  V30 15595 H 1421.14 -5.87464 -0.12662 0
M  V30 15596 H 1422.66 -6.01533 -1.04837 0
M  V30 15597 H 1424.08 -5.6089 1.18641 0
M  V30 15598 H 1422.48 -5.66652 1.97549 0
M  V30 15599 H 1423.55 -4.28424 2.27115 0
M  V30 15600 N 1424.89 -0.604284 -1.45555 0
M  V30 15601 C 1425.84 0.116491 -2.30506 0
M  V30 15602 C 1426.81 0.863214 -1.41908 0
M  V30 15603 O 1427.99 0.849606 -1.7084 0
M  V30 15604 C 1425.13 1.11009 -3.26758 0
M  V30 15605 C 1424.24 0.36458 -4.30459 0
M  V30 15606 C 1423.38 1.34761 -5.13822 0
M  V30 15607 C 1422.42 0.589724 -6.09253 0
M  V30 15608 N 1421.55 1.52187 -6.85408 0
M  V30 15609 H 1426.39 -0.61394 -2.91607 0
M  V30 15610 H 1423.93 -0.314561 -1.43697 0
M  V30 15611 H 1425.89 1.69925 -3.81027 0
M  V30 15612 H 1424.52 1.80797 -2.67418 0
M  V30 15613 H 1423.57 -0.340026 -3.78877 0
M  V30 15614 H 1424.88 -0.226906 -4.98284 0
M  V30 15615 H 1424.04 2.00893 -5.72474 0
M  V30 15616 H 1422.78 1.97302 -4.46008 0
M  V30 15617 H 1421.78 -0.0852486 -5.49734 0
M  V30 15618 H 1423.01 -0.0306001 -6.79093 0
M  V30 15619 H 1420.95 2.13499 -6.20286 0
M  V30 15620 H 1420.87 0.983737 -7.49572 0
M  V30 15621 H 1422.14 2.17287 -7.48603 0
M  V30 15622 N 1426.37 1.53816 -0.343257 0
M  V30 15623 C 1427.28 2.28716 0.522121 0
M  V30 15624 C 1428.29 1.33815 1.11218 0
M  V30 15625 O 1429.47 1.66853 1.12793 0
M  V30 15626 C 1426.53 3.04517 1.65741 0
M  V30 15627 C 1425.59 4.15043 1.09716 0
M  V30 15628 C 1424.83 4.8722 2.17835 0
M  V30 15629 O 1425.05 4.59065 3.38549 0
M  V30 15630 O 1423.98 5.73678 1.82145 0
M  V30 15631 H 1427.81 3.03576 -0.086732 0
M  V30 15632 H 1425.4 1.49007 -0.108313 0
M  V30 15633 H 1427.28 3.51921 2.31796 0
M  V30 15634 H 1425.95 2.32514 2.25208 0
M  V30 15635 H 1424.86 3.71943 0.401152 0
M  V30 15636 H 1426.19 4.89147 0.547362 0
M  V30 15637 N 1427.84 0.0718701 1.57436 0
M  V30 15638 C 1429.07 -0.605374 1.97532 0
M  V30 15639 C 1429.48 -1.6368 0.948974 0
M  V30 15640 O 1428.83 -1.83556 -0.0726987 0
M  V30 15641 C 1428.89 -1.33139 3.33937 0
M  V30 15642 C 1428.55 -0.453426 4.54745 0
M  V30 15643 C 1429.55 0.289012 5.19096 0
M  V30 15644 C 1427.23 -0.378282 5.00874 0
M  V30 15645 C 1429.23 1.09482 6.27927 0
M  V30 15646 C 1426.91 0.431192 6.09577 0
M  V30 15647 C 1427.91 1.16641 6.72966 0
M  V30 15648 O 1427.6 1.96253 7.79577 0
M  V30 15649 H 1427.33 -0.168804 0.654585 0
M  V30 15650 H 1429.89 0.140832 2.04917 0
M  V30 15651 H 1428.12 -2.12367 3.23167 0
M  V30 15652 H 1429.81 -1.90089 3.58638 0
M  V30 15653 H 1430.57 0.240552 4.84403 0
M  V30 15654 H 1426.45 -0.940166 4.51311 0
M  V30 15655 H 1429.99 1.66918 6.77336 0
M  V30 15656 H 1425.89 0.481217 6.43704 0
M  V30 15657 H 1426.66 1.88686 7.96455 0
M  V30 15658 N 1429.32 -1.56304 -0.201686 0
M  V30 15659 C 1430.25 -1.97046 -1.25281 0
M  V30 15660 C 1431.23 -0.841458 -1.47829 0
M  V30 15661 O 1432.42 -1.10529 -1.59678 0
M  V30 15662 C 1429.55 -2.30429 -2.59845 0
M  V30 15663 C 1428.5 -3.46006 -2.5192 0
M  V30 15664 C 1427.83 -3.65047 -3.90697 0
M  V30 15665 C 1429.13 -4.80391 -2.04992 0
M  V30 15666 H 1430.82 -2.85099 -0.914272 0
M  V30 15667 H 1428.37 -1.37166 -0.438359 0
M  V30 15668 H 1430.32 -2.57525 -3.33555 0
M  V30 15669 H 1429.05 -1.39251 -2.95426 0
M  V30 15670 H 1427.7 -3.18991 -1.80667 0
M  V30 15671 H 1427.35 -2.71211 -4.2362 0
M  V30 15672 H 1427.05 -4.42796 -3.86271 0
M  V30 15673 H 1428.58 -3.94512 -4.66039 0
M  V30 15674 H 1429.99 -5.06561 -2.68456 0
M  V30 15675 H 1428.39 -5.61563 -2.11582 0
M  V30 15676 H 1429.46 -4.74416 -1.00288 0
M  V30 15677 N 1430.8 0.469154 -1.50455 0
M  V30 15678 C 1432.21 1.04997 -1.54378 0
M  V30 15679 C 1432.56 1.93082 -0.348414 0
M  V30 15680 O 1431.69 2.09594 0.538469 0
M  V30 15681 C 1432.28 1.91096 -2.79764 0
M  V30 15682 C 1430.84 2.44283 -2.86361 0
M  V30 15683 C 1429.99 1.22676 -2.48688 0
M  V30 15684 H 1432.94 0.251692 -1.56691 0
M  V30 15685 H 1432.96 2.76186 -2.61728 0
M  V30 15686 H 1432.47 1.26961 -3.66746 0
M  V30 15687 H 1430.57 3.11966 -2.03735 0
M  V30 15688 H 1430.69 2.79258 -3.89297 0
M  V30 15689 H 1429.05 1.56215 -2.01169 0
M  V30 15690 H 1429.83 0.602002 -3.37981 0
M  V30 15691 N 1432.28 1.40065 0.722464 0
M  V30 15692 C 1433.23 1.39784 1.83655 0
M  V30 15693 C 1434.2 0.255743 1.64119 0
M  V30 15694 O 1435.38 0.452766 1.8535 0
M  V30 15695 C 1432.52 1.25946 3.21297 0
M  V30 15696 C 1431.63 2.49805 3.52451 0
M  V30 15697 C 1430.77 2.2846 4.79562 0
M  V30 15698 C 1429.81 3.4793 5.03598 0
M  V30 15699 N 1428.94 3.25823 6.21919 0
M  V30 15700 H 1433.78 2.35013 1.83229 0
M  V30 15701 H 1431.32 1.16728 0.895154 0
M  V30 15702 H 1433.28 1.15931 4.00769 0
M  V30 15703 H 1431.91 0.343402 3.20968 0
M  V30 15704 H 1430.96 2.70375 2.67585 0
M  V30 15705 H 1432.27 3.38753 3.66126 0
M  V30 15706 H 1431.43 2.15758 5.67039 0
M  V30 15707 H 1430.17 1.36926 4.68084 0
M  V30 15708 H 1429.17 3.61116 4.14579 0
M  V30 15709 H 1430.4 4.40382 5.16953 0
M  V30 15710 H 1428.34 2.36965 6.11705 0
M  V30 15711 H 1428.26 4.08333 6.36239 0
M  V30 15712 H 1429.53 3.16841 7.12202 0
M  V30 15713 N 1433.76 -0.95397 1.25448 0
M  V30 15714 C 1434.71 -2.07206 1.05681 0
M  V30 15715 C 1435.7 -1.69395 -0.0124672 0
M  V30 15716 O 1436.91 -1.79429 0.143201 0
M  V30 15717 H 1433.28 -0.678231 0.324817 0
M  V30 15718 H 1435.25 -2.21034 2.00466 0
M  V30 15719 C 1434 -3.40725 0.692955 0
M  V30 15720 H 1433.32 -3.70287 1.50756 0
M  V30 15721 H 1434.76 -4.19814 0.594351 0
M  V30 15722 C 1433.22 -3.31495 -0.601028 0
M  V30 15723 O 1433.75 -3.66565 -1.64296 0
M  V30 15724 N 1431.96 -2.84612 -0.586899 0
M  V30 15725 H 1431.51 -2.56271 0.261375 0
M  V30 15726 H 1431.46 -2.78819 -1.45284 0
M  V30 15727 N 1435.24 -1.07045 -1.15668 0
M  V30 15728 C 1436.18 -0.688004 -2.20307 0
M  V30 15729 C 1437.15 0.319081 -1.63006 0
M  V30 15730 O 1438.34 0.206239 -1.89682 0
M  V30 15731 C 1435.48 -0.0886692 -3.44986 0
M  V30 15732 C 1434.59 -1.14685 -4.16499 0
M  V30 15733 C 1433.73 -0.512852 -5.28719 0
M  V30 15734 C 1432.76 -1.55404 -5.92044 0
M  V30 15735 N 1431.9 -0.942848 -6.9574 0
M  V30 15736 H 1436.74 -1.58469 -2.52372 0
M  V30 15737 H 1434.28 -0.792184 -1.23947 0
M  V30 15738 H 1436.24 0.276415 -4.16283 0
M  V30 15739 H 1434.87 0.77139 -3.13448 0
M  V30 15740 H 1433.92 -1.62955 -3.43729 0
M  V30 15741 H 1435.23 -1.93643 -4.59678 0
M  V30 15742 H 1434.38 -0.0952274 -6.06625 0
M  V30 15743 H 1433.12 0.308524 -4.86723 0
M  V30 15744 H 1432.13 -1.98148 -5.12852 0
M  V30 15745 H 1433.35 -2.37765 -6.36117 0
M  V30 15746 H 1431.3 -0.142319 -6.55846 0
M  V30 15747 H 1431.22 -1.6697 -7.37331 0
M  V30 15748 H 1432.48 -0.550621 -7.77553 0
M  V30 15749 N 1436.71 1.32449 -0.85411 0
M  V30 15750 C 1437.66 2.30821 -0.287115 0
M  V30 15751 C 1438.66 1.58823 0.58921 0
M  V30 15752 O 1439.86 1.73563 0.477075 0
M  V30 15753 H 1436.24 0.748336 -0.0741416 0
M  V30 15754 H 1438.21 2.76134 -1.13104 0
M  V30 15755 C 1436.96 3.43937 0.51013 0
M  V30 15756 H 1436.28 3.995 -0.154895 0
M  V30 15757 H 1437.72 4.14927 0.872451 0
M  V30 15758 C 1436.18 2.91147 1.69513 0
M  V30 15759 O 1436.71 2.88595 2.7942 0
M  V30 15760 N 1434.91 2.47554 1.52202 0
M  V30 15761 H 1434.46 2.49829 0.627941 0
M  V30 15762 H 1434.42 2.12587 2.31633 0
M  V30 15763 N 1438.19 0.611994 1.45232 0
M  V30 15764 C 1439.14 -0.104265 2.30564 0
M  V30 15765 C 1440.11 -0.855676 1.42364 0
M  V30 15766 O 1441.29 -0.840534 1.71288 0
M  V30 15767 C 1438.43 -1.09274 3.27343 0
M  V30 15768 C 1437.55 -0.341747 4.30646 0
M  V30 15769 C 1436.68 -1.32034 5.14529 0
M  V30 15770 C 1435.72 -0.557405 6.09557 0
M  V30 15771 N 1434.86 -1.4855 6.86205 0
M  V30 15772 H 1439.7 0.629396 2.91278 0
M  V30 15773 H 1437.23 0.322177 1.43528 0
M  V30 15774 H 1439.19 -1.67902 3.81923 0
M  V30 15775 H 1437.82 -1.79376 2.68373 0
M  V30 15776 H 1436.87 0.360114 3.78692 0
M  V30 15777 H 1438.19 0.253328 4.98156 0
M  V30 15778 H 1437.34 -1.97854 5.73532 0
M  V30 15779 H 1436.08 -1.94934 4.47048 0
M  V30 15780 H 1435.08 0.114401 5.49681 0
M  V30 15781 H 1436.31 0.0666137 6.79067 0
M  V30 15782 H 1434.26 -2.10207 6.21409 0
M  V30 15783 H 1434.17 -0.943972 7.50083 0
M  V30 15784 H 1435.44 -2.13314 7.49745 0
M  V30 15785 N 1439.67 -1.53632 0.351409 0
M  V30 15786 C 1440.92 -2.00222 -0.243731 0
M  V30 15787 C 1441.23 -1.24305 -1.51022 0
M  V30 15788 O 1442.44 -1.61411 -2.18309 0
M  V30 15789 C 1440.89 -3.56619 -0.48487 0
M  V30 15790 C 1440.5 -4.414 0.766173 0
M  V30 15791 C 1442.25 -4.11603 -1.03844 0
M  V30 15792 C 1440.15 -5.89321 0.4954 0
M  V30 15793 H 1439.08 -0.74801 -0.0948534 0
M  V30 15794 H 1441.73 -1.77433 0.467957 0
M  V30 15795 H 1440.12 -3.75505 -1.25746 0
M  V30 15796 H 1441.29 -4.34288 1.54047 0
M  V30 15797 H 1439.6 -3.97448 1.24194 0
M  V30 15798 H 1442.2 -5.19736 -1.25611 0
M  V30 15799 H 1442.54 -3.65311 -1.99634 0
M  V30 15800 H 1443.08 -3.96459 -0.326363 0
M  V30 15801 H 1439.82 -6.39863 1.42324 0
M  V30 15802 H 1439.34 -5.99317 -0.240662 0
M  V30 15803 H 1441.02 -6.46897 0.115584 0
M  V30 15804 N 1441.15 -0.0802183 -1.57396 0
M  V30 15805 C 1442.1 0.901668 -2.14412 0
M  V30 15806 C 1443.09 1.30247 -1.08314 0
M  V30 15807 O 1444.3 1.27873 -1.26682 0
M  V30 15808 H 1440.67 0.308748 -0.685696 0
M  V30 15809 H 1442.64 0.395934 -2.95762 0
M  V30 15810 C 1441.39 2.15665 -2.72734 0
M  V30 15811 H 1440.71 1.8571 -3.54051 0
M  V30 15812 H 1442.15 2.82461 -3.16214 0
M  V30 15813 C 1440.61 2.9208 -1.67901 0
M  V30 15814 O 1441.14 3.86087 -1.10903 0
M  V30 15815 N 1439.35 2.55343 -1.38739 0
M  V30 15816 H 1438.9 1.78969 -1.85278 0
M  V30 15817 H 1438.85 3.06773 -0.688317 0
M  V30 15818 N 1442.63 1.56409 0.193394 0
M  V30 15819 C 1443.56 1.97707 1.24234 0
M  V30 15820 C 1444.54 0.849286 1.47381 0
M  V30 15821 O 1445.72 1.11374 1.59089 0
M  V30 15822 C 1442.85 2.31804 2.5862 0
M  V30 15823 C 1441.81 3.47337 2.50082 0
M  V30 15824 C 1441.13 3.67114 3.88756 0
M  V30 15825 C 1442.43 4.81472 2.02441 0
M  V30 15826 H 1444.13 2.8558 0.89914 0
M  V30 15827 H 1441.67 1.37396 0.431078 0
M  V30 15828 H 1443.62 2.5929 3.32185 0
M  V30 15829 H 1442.35 1.40816 2.94684 0
M  V30 15830 H 1441.01 3.19944 1.78973 0
M  V30 15831 H 1440.66 2.73454 4.22175 0
M  V30 15832 H 1440.36 4.44838 3.83918 0
M  V30 15833 H 1441.88 3.96978 4.6394 0
M  V30 15834 H 1443.29 5.07978 2.65766 0
M  V30 15835 H 1441.69 5.62677 2.08601 0
M  V30 15836 H 1442.76 4.74941 0.977704 0
M  V30 15837 N 1444.1 -0.461169 1.50702 0
M  V30 15838 C 1445.05 -1.5579 1.70288 0
M  V30 15839 C 1446.02 -1.5693 0.544251 0
M  V30 15840 O 1447.21 -1.74308 0.77597 0
M  V30 15841 C 1444.35 -2.93694 1.81212 0
M  V30 15842 C 1443.46 -3.02267 3.0864 0
M  V30 15843 C 1442.59 -4.31147 3.103 0
M  V30 15844 C 1441.63 -4.33498 4.32141 0
M  V30 15845 N 1440.77 -5.53864 4.31484 0
M  V30 15846 H 1445.61 -1.38393 2.63915 0
M  V30 15847 H 1443.15 -0.6727 1.30817 0
M  V30 15848 H 1445.1 -3.73679 1.85526 0
M  V30 15849 H 1443.73 -3.09703 0.91015 0
M  V30 15850 H 1442.79 -2.15093 3.1375 0
M  V30 15851 H 1444.1 -2.99864 3.98601 0
M  V30 15852 H 1443.25 -5.19487 3.13398 0
M  V30 15853 H 1441.99 -4.36172 2.18186 0
M  V30 15854 H 1441 -3.43554 4.29245 0
M  V30 15855 H 1442.22 -4.30156 5.25493 0
M  V30 15856 H 1440.17 -5.59657 3.42229 0
M  V30 15857 H 1440.08 -5.53244 5.15225 0
M  V30 15858 H 1441.35 -6.44302 4.38742 0
M  V30 15859 N 1445.58 -1.40446 -0.715026 0
M  V30 15860 C 1446.51 -1.36673 -1.83993 0
M  V30 15861 C 1447.53 -0.272038 -1.60511 0
M  V30 15862 O 1448.72 -0.532425 -1.70375 0
M  V30 15863 C 1445.82 -1.10423 -3.20406 0
M  V30 15864 C 1444.99 -2.31557 -3.71079 0
M  V30 15865 C 1444.05 -2.01459 -4.86108 0
M  V30 15866 O 1443.07 -2.7433 -4.9873 0
M  V30 15867 N 1444.28 -0.992899 -5.71946 0
M  V30 15868 H 1447.04 -2.3362 -1.87728 0
M  V30 15869 H 1444.6 -1.34807 -0.896586 0
M  V30 15870 H 1446.59 -0.88273 -3.94956 0
M  V30 15871 H 1445.16 -0.221408 -3.11815 0
M  V30 15872 H 1444.38 -2.69534 -2.87655 0
M  V30 15873 H 1445.67 -3.1231 -4.01671 0
M  V30 15874 H 1445.07 -0.389387 -5.64358 0
M  V30 15875 H 1443.63 -0.831299 -6.46477 0
M  V30 15876 N 1447.06 0.947303 -1.25952 0
M  V30 15877 C 1447.99 2.0487 -1.02767 0
M  V30 15878 C 1449 1.62797 0.00985984 0
M  V30 15879 O 1450.19 1.77018 -0.229527 0
M  V30 15880 C 1447.29 3.34682 -0.533048 0
M  V30 15881 C 1446.47 4.05555 -1.63841 0
M  V30 15882 C 1445.53 5.13638 -1.1429 0
M  V30 15883 O 1444.55 5.38682 -1.83876 0
M  V30 15884 N 1445.75 5.80499 0.0119377 0
M  V30 15885 H 1448.52 2.25327 -1.97605 0
M  V30 15886 H 1446.08 1.11636 -1.17256 0
M  V30 15887 H 1448.07 4.04273 -0.185868 0
M  V30 15888 H 1446.64 3.10941 0.321585 0
M  V30 15889 H 1445.86 3.29962 -2.15683 0
M  V30 15890 H 1447.15 4.49661 -2.38081 0
M  V30 15891 H 1446.55 5.62581 0.593212 0
M  V30 15892 H 1445.1 6.51109 0.30009 0
M  V30 15893 N 1448.54 1.07657 1.15099 0
M  V30 15894 C 1449.47 0.721201 2.22083 0
M  V30 15895 C 1450.45 -0.292808 1.67561 0
M  V30 15896 O 1451.63 -0.164872 1.93499 0
M  V30 15897 C 1448.76 0.12153 3.47087 0
M  V30 15898 C 1447.72 1.06303 4.14588 0
M  V30 15899 C 1447.04 0.325964 5.33706 0
M  V30 15900 C 1448.34 2.39796 4.63999 0
M  V30 15901 H 1450.04 1.61566 2.52065 0
M  V30 15902 H 1447.58 0.778282 1.21156 0
M  V30 15903 H 1449.54 -0.139037 4.21171 0
M  V30 15904 H 1448.26 -0.808022 3.16447 0
M  V30 15905 H 1446.92 1.30858 3.4245 0
M  V30 15906 H 1446.57 -0.607147 4.99322 0
M  V30 15907 H 1446.27 0.953552 5.79811 0
M  V30 15908 H 1447.79 0.0732695 6.10556 0
M  V30 15909 H 1449.21 2.19552 5.29594 0
M  V30 15910 H 1447.6 2.98178 5.20778 0
M  V30 15911 H 1448.67 3.01876 3.79472 0
M  V30 15912 N 1450.02 -1.31994 0.861122 0
M  V30 15913 C 1450.96 -2.28729 0.308476 0
M  V30 15914 C 1451.93 -1.55338 -0.588148 0
M  V30 15915 O 1453.12 -1.8353 -0.52168 0
M  V30 15916 C 1450.26 -3.4158 -0.491621 0
M  V30 15917 C 1449.37 -4.29839 0.431522 0
M  V30 15918 C 1448.51 -5.29826 -0.381836 0
M  V30 15919 C 1447.55 -6.09728 0.538296 0
M  V30 15920 N 1446.68 -7.01696 -0.238274 0
M  V30 15921 H 1451.52 -2.75389 1.13863 0
M  V30 15922 H 1449.06 -1.35485 0.572911 0
M  V30 15923 H 1451.02 -4.05738 -0.971193 0
M  V30 15924 H 1449.65 -2.96054 -1.28654 0
M  V30 15925 H 1448.7 -3.66204 1.02951 0
M  V30 15926 H 1450.01 -4.85658 1.13742 0
M  V30 15927 H 1449.17 -5.99618 -0.924297 0
M  V30 15928 H 1447.9 -4.7464 -1.12107 0
M  V30 15929 H 1446.91 -5.38834 1.09259 0
M  V30 15930 H 1448.13 -6.67 1.27625 0
M  V30 15931 H 1446.08 -6.4893 -0.960486 0
M  V30 15932 H 1446 -7.54896 0.408466 0
M  V30 15933 H 1447.27 -7.75764 -0.762252 0
M  V30 15934 N 1451.49 -0.619688 -1.44906 0
M  V30 15935 C 1452.72 -0.12618 -2.06214 0
M  V30 15936 C 1453.13 1.19978 -1.46294 0
M  V30 15937 O 1452.48 1.74437 -0.575956 0
M  V30 15938 C 1452.54 0.075085 -3.59422 0
M  V30 15939 C 1452.2 -1.17094 -4.41744 0
M  V30 15940 C 1453.2 -2.09196 -4.75955 0
M  V30 15941 C 1450.88 -1.40315 -4.82304 0
M  V30 15942 C 1452.88 -3.22839 -5.49594 0
M  V30 15943 C 1450.56 -2.54257 -5.55695 0
M  V30 15944 C 1451.56 -3.45346 -5.89258 0
M  V30 15945 O 1451.25 -4.57302 -6.61158 0
M  V30 15946 H 1450.98 -0.0715975 -0.672198 0
M  V30 15947 H 1453.54 -0.850858 -1.86948 0
M  V30 15948 H 1451.77 0.854787 -3.77134 0
M  V30 15949 H 1453.46 0.521707 -4.02533 0
M  V30 15950 H 1454.22 -1.92486 -4.45168 0
M  V30 15951 H 1450.1 -0.703094 -4.55607 0
M  V30 15952 H 1453.64 -3.93959 -5.7571 0
M  V30 15953 H 1449.54 -2.70915 -5.85897 0
M  V30 15954 H 1450.31 -4.56138 -6.79618 0
M  V30 15955 N 1452.97 1.53444 -0.359552 0
M  V30 15956 C 1453.94 2.24173 0.477412 0
M  V30 15957 C 1454.94 1.24747 1.01464 0
M  V30 15958 O 1456.13 1.49069 0.901343 0
M  V30 15959 C 1453.26 2.9738 1.66667 0
M  V30 15960 H 1454.45 2.99566 -0.141407 0
M  V30 15961 H 1452 1.55904 -0.111143 0
M  V30 15962 H 1452.74 2.26214 2.32374 0
M  V30 15963 H 1452.52 3.70325 1.28848 0
M  V30 15964 H 1454.01 3.51165 2.25994 0
M  V30 15965 N 1454.45 0.0885642 1.57351 0
M  V30 15966 C 1455.7 -0.57753 1.94403 0
M  V30 15967 C 1456.03 -1.68238 0.970029 0
M  V30 15968 O 1455.3 -1.945 0.00198684 0
M  V30 15969 C 1455.59 -1.13882 3.41618 0
M  V30 15970 C 1455.44 -0.0394686 4.49783 0
M  V30 15971 C 1456.76 -2.03922 3.90005 0
M  V30 15972 H 1453.88 -0.208468 0.706902 0
M  V30 15973 H 1456.52 0.157945 1.89342 0
M  V30 15974 H 1454.67 -1.76561 3.46061 0
M  V30 15975 H 1456.34 0.594458 4.57454 0
M  V30 15976 H 1454.59 0.627775 4.29234 0
M  V30 15977 H 1455.26 -0.472897 5.49971 0
M  V30 15978 H 1457.73 -1.51156 3.87674 0
M  V30 15979 H 1456.61 -2.40123 4.93591 0
M  V30 15980 H 1456.87 -2.95407 3.28918 0
M  V30 15981 N 1455.93 -1.56509 -0.185096 0
M  V30 15982 C 1456.86 -1.91878 -1.25361 0
M  V30 15983 C 1457.87 -0.810443 -1.41194 0
M  V30 15984 O 1459.06 -1.08887 -1.41442 0
M  V30 15985 C 1456.16 -2.14433 -2.62434 0
M  V30 15986 C 1455.34 -3.45618 -2.6808 0
M  V30 15987 C 1454.39 -3.57165 -3.86419 0
M  V30 15988 O 1453.42 -4.29904 -3.73056 0
M  V30 15989 N 1454.62 -2.90993 -5.02298 0
M  V30 15990 H 1457.39 -2.84133 -0.953328 0
M  V30 15991 H 1454.95 -1.57498 -0.374955 0
M  V30 15992 H 1456.94 -2.19437 -3.40044 0
M  V30 15993 H 1455.51 -1.28629 -2.84909 0
M  V30 15994 H 1454.73 -3.52394 -1.76669 0
M  V30 15995 H 1456.02 -4.31968 -2.68851 0
M  V30 15996 H 1455.42 -2.31743 -5.16054 0
M  V30 15997 H 1453.97 -3.01611 -5.77819 0
M  V30 15998 N 1457.41 0.45317 -1.50944 0
M  V30 15999 C 1458.66 1.20076 -1.62064 0
M  V30 16000 C 1458.97 1.92709 -0.335034 0
M  V30 16001 O 1460.17 2.69543 -0.32538 0
M  V30 16002 C 1458.63 2.18283 -2.86148 0
M  V30 16003 C 1458.24 1.5137 -4.21653 0
M  V30 16004 C 1459.98 2.93572 -3.0662 0
M  V30 16005 C 1457.89 2.47968 -5.36904 0
M  V30 16006 H 1456.82 0.451894 -0.603579 0
M  V30 16007 H 1459.47 0.46937 -1.77396 0
M  V30 16008 H 1457.85 2.94789 -2.64415 0
M  V30 16009 H 1459.03 0.805295 -4.53709 0
M  V30 16010 H 1457.34 0.882935 -4.06931 0
M  V30 16011 H 1459.94 3.65903 -3.89897 0
M  V30 16012 H 1460.28 3.54003 -2.1906 0
M  V30 16013 H 1460.81 2.24175 -3.28619 0
M  V30 16014 H 1457.55 1.92249 -6.26674 0
M  V30 16015 H 1457.07 3.16907 -5.09244 0
M  V30 16016 H 1458.75 3.09428 -5.6821 0
M  V30 16017 N 1458.88 1.40823 0.707568 0
M  V30 16018 C 1460.12 1.40992 1.47989 0
M  V30 16019 C 1460.49 0.0138056 1.91995 0
M  V30 16020 O 1461.69 -0.109666 2.68576 0
M  V30 16021 C 1459.96 2.37857 2.66756 0
M  V30 16022 S 1461.52 2.56453 3.56058 0
M  V30 16023 H 1458.34 0.499622 0.505864 0
M  V30 16024 H 1460.94 1.77161 0.826703 0
M  V30 16025 H 1459.64 3.38113 2.32611 0
M  V30 16026 H 1459.17 2.03 3.36979 0
M  V30 16027 H 1461.19 1.82294 4.61501 0
M  V30 16028 N 1460.36 -0.94061 1.26453 0
M  V30 16029 C 1461.31 -2.03941 1.08059 0
M  V30 16030 C 1462.28 -1.66094 -0.0145388 0
M  V30 16031 O 1463.46 -1.90246 0.145338 0
M  V30 16032 C 1460.6 -3.37501 0.720228 0
M  V30 16033 C 1459.72 -3.88381 1.89167 0
M  V30 16034 C 1458.85 -5.10329 1.47437 0
M  V30 16035 C 1457.89 -5.53473 2.61408 0
M  V30 16036 N 1457.03 -6.66624 2.20355 0
M  V30 16037 H 1461.87 -2.19006 2.0209 0
M  V30 16038 H 1459.41 -1.07305 1.00618 0
M  V30 16039 H 1461.36 -4.14287 0.492177 0
M  V30 16040 H 1459.99 -3.2228 -0.183101 0
M  V30 16041 H 1459.05 -3.0799 2.23264 0
M  V30 16042 H 1460.36 -4.16338 2.74708 0
M  V30 16043 H 1459.51 -5.94577 1.20679 0
M  V30 16044 H 1458.25 -4.8412 0.589873 0
M  V30 16045 H 1457.26 -4.67782 2.88894 0
M  V30 16046 H 1458.48 -5.81684 3.50458 0
M  V30 16047 H 1456.43 -6.42097 1.34341 0
M  V30 16048 H 1456.34 -6.9417 2.99439 0
M  V30 16049 H 1457.61 -7.54245 1.96811 0
M  V30 16050 N 1461.84 -1.08266 -1.14527 0
M  V30 16051 C 1463.09 -0.809856 -1.85164 0
M  V30 16052 C 1463.41 0.666263 -1.83265 0
M  V30 16053 O 1462.68 1.48295 -1.28006 0
M  V30 16054 H 1461.26 -0.296598 -0.685594 0
M  V30 16055 H 1463.92 -1.36834 -1.38789 0
M  V30 16056 H 1463.02 -1.15272 -2.90032 0
M  V30 16057 N 1463.32 1.31536 -0.86811 0
M  V30 16058 C 1464.25 2.2663 -0.2672 0
M  V30 16059 C 1465.23 1.51023 0.602574 0
M  V30 16060 O 1466.41 1.80101 0.556408 0
M  V30 16061 C 1463.54 3.32943 0.62183 0
M  V30 16062 C 1462.59 4.26135 -0.176348 0
M  V30 16063 S 1463.42 5.12467 -1.55363 0
M  V30 16064 C 1464.58 6.22296 -0.670673 0
M  V30 16065 H 1464.81 2.7725 -1.07331 0
M  V30 16066 H 1462.34 1.39273 -0.666521 0
M  V30 16067 H 1464.3 3.94667 1.12908 0
M  V30 16068 H 1462.96 2.81081 1.40187 0
M  V30 16069 H 1462.15 5.015 0.501358 0
M  V30 16070 H 1461.76 3.68898 -0.61563 0
M  V30 16071 H 1464.05 6.77395 0.119508 0
M  V30 16072 H 1464.99 6.94215 -1.39539 0
M  V30 16073 H 1465.4 5.63994 -0.239048 0
M  V30 16074 N 1464.8 0.627364 1.44575 0
M  V30 16075 C 1466.07 0.0614392 1.95503 0
M  V30 16076 C 1466.45 -1.41182 1.56942 0
M  V30 16077 O 1465.8 -2.12435 0.841634 0
M  V30 16078 C 1466.01 0.280349 3.47872 0
M  V30 16079 C 1467.36 0.171559 4.24253 0
M  V30 16080 O 1468.38 0.211515 3.55571 0
M  V30 16081 O 1467.24 0.0733152 5.46451 0
M  V30 16082 H 1464.34 -0.0244626 0.826638 0
M  V30 16083 H 1466.88 0.698805 1.54644 0
M  V30 16084 H 1465.66 1.30278 3.68976 0
M  V30 16085 H 1465.28 -0.391336 3.95669 0
M  V30 16086 N 1466.28 -1.53251 0.367684 0
M  V30 16087 C 1467.51 -2.05407 -0.221725 0
M  V30 16088 C 1467.91 -1.24081 -1.4283 0
M  V30 16089 O 1467.26 -0.275005 -1.8163 0
M  V30 16090 C 1467.32 -3.53063 -0.677281 0
M  V30 16091 C 1466.98 -4.55131 0.412894 0
M  V30 16092 C 1467.98 -5.04315 1.26343 0
M  V30 16093 C 1465.66 -4.99013 0.573739 0
M  V30 16094 C 1467.66 -5.95984 2.26014 0
M  V30 16095 C 1465.35 -5.90487 1.57381 0
M  V30 16096 C 1466.34 -6.38863 2.41544 0
M  V30 16097 O 1466.03 -7.28533 3.39845 0
M  V30 16098 H 1465.76 -0.674679 -0.0422413 0
M  V30 16099 H 1468.32 -1.98577 0.52501 0
M  V30 16100 H 1466.55 -3.57437 -1.47565 0
M  V30 16101 H 1468.24 -3.88066 -1.18993 0
M  V30 16102 H 1469 -4.7116 1.15037 0
M  V30 16103 H 1464.88 -4.60944 -0.0715806 0
M  V30 16104 H 1468.43 -6.33666 2.91742 0
M  V30 16105 H 1464.32 -6.23056 1.68734 0
M  V30 16106 H 1465.09 -7.46536 3.35598 0
M  V30 16107 N 1467.75 -0.0969077 -1.57302 0
M  V30 16108 C 1468.68 0.858443 -2.17147 0
M  V30 16109 C 1469.66 1.29294 -1.10531 0
M  V30 16110 O 1470.85 1.3595 -1.38676 0
M  V30 16111 C 1467.98 2.11691 -2.75326 0
M  V30 16112 C 1466.93 1.82097 -3.8733 0
M  V30 16113 C 1466.26 3.14787 -4.32219 0
M  V30 16114 C 1467.56 1.10651 -5.10444 0
M  V30 16115 H 1469.25 0.35982 -2.9723 0
M  V30 16116 H 1466.8 0.17163 -1.42974 0
M  V30 16117 H 1468.75 2.78963 -3.15844 0
M  V30 16118 H 1467.48 2.63839 -1.925 0
M  V30 16119 H 1466.14 1.17222 -3.47354 0
M  V30 16120 H 1465.78 3.64826 -3.46281 0
M  V30 16121 H 1465.48 2.95769 -5.07735 0
M  V30 16122 H 1467.01 3.83215 -4.75372 0
M  V30 16123 H 1468.42 1.68036 -5.48121 0
M  V30 16124 H 1466.82 1.01805 -5.91401 0
M  V30 16125 H 1467.89 0.0895634 -4.84817 0
M  V30 16126 N 1469.23 1.56605 0.176793 0
M  V30 16127 C 1470.48 1.81324 0.892535 0
M  V30 16128 C 1470.8 0.67301 1.83018 0
M  V30 16129 O 1470.07 -0.307498 1.93472 0
M  V30 16130 H 1468.65 0.668881 0.332576 0
M  V30 16131 H 1471.31 1.94086 0.17792 0
M  V30 16132 H 1470.41 2.75168 1.47272 0
M  V30 16133 N 1470.71 -0.445159 1.51182 0
M  V30 16134 C 1471.93 -1.22249 1.67541 0
M  V30 16135 C 1472.36 -1.84446 0.368972 0
M  V30 16136 O 1471.72 -1.68463 -0.670058 0
M  V30 16137 C 1471.77 -2.288 2.78717 0
M  V30 16138 O 1470.87 -3.34094 2.41775 0
M  V30 16139 H 1470.21 -0.358516 0.558894 0
M  V30 16140 H 1472.74 -0.526696 1.97704 0
M  V30 16141 H 1472.75 -2.73708 3.02569 0
M  V30 16142 H 1471.43 -1.82906 3.73521 0
M  V30 16143 H 1470 -2.94717 2.28466 0
M  V30 16144 N 1472.19 -1.41197 -0.700089 0
M  V30 16145 C 1473.6 -1.23567 -1.01012 0
M  V30 16146 C 1473.8 -0.121821 -2.01131 0
M  V30 16147 O 1472.86 0.515258 -2.47187 0
M  V30 16148 C 1474.17 -2.58329 -1.53904 0
M  V30 16149 C 1475.72 -2.65473 -1.65811 0
M  V30 16150 C 1476.2 -4.00541 -2.22106 0
M  V30 16151 N 1477.69 -4.02364 -2.29472 0
M  V30 16152 C 1478.42 -5.03672 -2.74048 0
M  V30 16153 N 1477.92 -6.15371 -3.18262 0
M  V30 16154 N 1479.71 -4.91035 -2.73571 0
M  V30 16155 H 1471.86 -2.12368 -0.0367488 0
M  V30 16156 H 1474.12 -0.944713 -0.0788795 0
M  V30 16157 H 1473.83 -3.40565 -0.877964 0
M  V30 16158 H 1473.7 -2.805 -2.5219 0
M  V30 16159 H 1476.09 -1.83598 -2.31032 0
M  V30 16160 H 1476.17 -2.47117 -0.660831 0
M  V30 16161 H 1475.82 -4.82862 -1.57502 0
M  V30 16162 H 1475.75 -4.16235 -3.22577 0
M  V30 16163 H 1478.24 -3.21713 -1.98265 0
M  V30 16164 H 1478.55 -6.88548 -3.50888 0
M  V30 16165 H 1476.9 -6.18914 -3.16182 0
M  V30 16166 H 1480.09 -4.02858 -2.38376 0
M  V30 16167 H 1480.26 -5.70127 -3.07993 0
M  V30 16168 N 1473.67 0.933891 -1.2695 0
M  V30 16169 C 1474.6 2.03768 -1.04934 0
M  V30 16170 C 1475.61 1.62798 -0.00740752 0
M  V30 16171 O 1476.8 1.76765 -0.248289 0
M  V30 16172 C 1473.9 3.34097 -0.568515 0
M  V30 16173 C 1473.07 4.03794 -1.68133 0
M  V30 16174 C 1472.13 5.12397 -1.19731 0
M  V30 16175 O 1471.16 5.36701 -1.89579 0
M  V30 16176 N 1472.36 5.80479 -0.0496327 0
M  V30 16177 H 1475.12 2.23219 -1.99984 0
M  V30 16178 H 1472.69 1.10386 -1.18433 0
M  V30 16179 H 1474.68 4.04053 -0.228736 0
M  V30 16180 H 1473.25 3.11265 0.288587 0
M  V30 16181 H 1472.47 3.27655 -2.1917 0
M  V30 16182 H 1473.76 4.4711 -2.42837 0
M  V30 16183 H 1473.15 5.63179 0.533509 0
M  V30 16184 H 1471.71 6.5139 0.231014 0
M  V30 16185 N 1475.14 1.08871 1.13951 0
M  V30 16186 C 1476.37 0.841691 1.88677 0
M  V30 16187 C 1476.78 -0.610213 1.79089 0
M  V30 16188 O 1476.12 -1.4314 1.15138 0
M  V30 16189 C 1476.19 1.19077 3.39206 0
M  V30 16190 C 1475.85 2.64642 3.72577 0
M  V30 16191 C 1476.85 3.62892 3.72297 0
M  V30 16192 C 1474.53 3.00618 4.0241 0
M  V30 16193 C 1476.53 4.95148 4.01382 0
M  V30 16194 C 1474.21 4.33066 4.31158 0
M  V30 16195 C 1475.21 5.3014 4.30628 0
M  V30 16196 O 1474.9 6.60207 4.58675 0
M  V30 16197 H 1474.63 0.302896 0.604343 0
M  V30 16198 H 1477.19 1.4527 1.45209 0
M  V30 16199 H 1475.42 0.522784 3.8315 0
M  V30 16200 H 1477.1 0.923805 3.95248 0
M  V30 16201 H 1477.87 3.36442 3.4933 0
M  V30 16202 H 1473.75 2.25696 4.01973 0
M  V30 16203 H 1477.29 5.7091 4.00884 0
M  V30 16204 H 1473.19 4.59262 4.53595 0
M  V30 16205 H 1473.96 6.65593 4.7637 0
M  V30 16206 N 1476.62 -1.31073 0.875073 0
M  V30 16207 C 1477.87 -1.96809 0.489273 0
M  V30 16208 C 1478.2 -1.68979 -0.957073 0
M  V30 16209 O 1477.48 -0.989061 -1.67475 0
M  V30 16210 C 1477.76 -3.52139 0.752998 0
M  V30 16211 C 1477.61 -3.89524 2.24925 0
M  V30 16212 C 1478.93 -4.39535 0.222871 0
M  V30 16213 H 1476.05 -0.714873 0.179238 0
M  V30 16214 H 1478.69 -1.55114 1.09725 0
M  V30 16215 H 1476.84 -3.87785 0.23553 0
M  V30 16216 H 1478.51 -3.63953 2.83436 0
M  V30 16217 H 1476.76 -3.37948 2.71981 0
M  V30 16218 H 1477.43 -4.97845 2.38441 0
M  V30 16219 H 1479.9 -4.10741 0.665645 0
M  V30 16220 H 1478.78 -5.47159 0.436806 0
M  V30 16221 H 1479.04 -4.33346 -0.875445 0
M  V30 16222 N 1478.1 -0.635022 -1.4424 0
M  V30 16223 C 1479.05 0.0895375 -2.27824 0
M  V30 16224 C 1480.03 0.812405 -1.38884 0
M  V30 16225 O 1481.23 0.69787 -1.62662 0
M  V30 16226 C 1478.36 1.06778 -3.26272 0
M  V30 16227 C 1477.44 0.344333 -4.227 0
M  V30 16228 N 1477.83 -0.629195 -5.01871 0
M  V30 16229 C 1476.13 0.588254 -4.42104 0
M  V30 16230 C 1476.83 -1.05697 -5.72017 0
M  V30 16231 N 1475.81 -0.394953 -5.42163 0
M  V30 16232 H 1479.61 -0.65777 -2.86445 0
M  V30 16233 H 1477.12 -0.460836 -1.55724 0
M  V30 16234 H 1479.12 1.6015 -3.84913 0
M  V30 16235 H 1477.78 1.81535 -2.69212 0
M  V30 16236 H 1478.79 -1.00717 -5.08012 0
M  V30 16237 H 1475.47 1.31839 -3.96137 0
M  V30 16238 H 1476.86 -1.86148 -6.45599 0
M  V30 16239 N 1479.58 1.53054 -0.375806 0
M  V30 16240 C 1480.99 1.5958 -0.0251765 0
M  V30 16241 C 1481.19 1.39047 1.45836 0
M  V30 16242 O 1480.25 1.20073 2.22123 0
M  V30 16243 C 1481.56 2.96676 -0.490274 0
M  V30 16244 C 1483.11 3.09815 -0.44537 0
M  V30 16245 C 1483.59 4.4934 -0.886442 0
M  V30 16246 N 1485.08 4.55484 -0.84191 0
M  V30 16247 C 1485.81 5.61652 -1.15476 0
M  V30 16248 N 1485.31 6.75526 -1.53741 0
M  V30 16249 N 1487.1 5.51688 -1.07689 0
M  V30 16250 H 1479.25 1.64651 -1.34178 0
M  V30 16251 H 1481.52 0.77278 -0.549104 0
M  V30 16252 H 1481.22 3.16874 -1.52589 0
M  V30 16253 H 1481.1 3.77016 0.11776 0
M  V30 16254 H 1483.48 2.89321 0.581138 0
M  V30 16255 H 1483.56 2.3146 -1.08903 0
M  V30 16256 H 1483.21 4.70573 -1.91111 0
M  V30 16257 H 1483.14 5.26141 -0.219925 0
M  V30 16258 H 1485.63 3.73725 -0.56015 0
M  V30 16259 H 1485.94 7.52489 -1.76012 0
M  V30 16260 H 1484.29 6.76892 -1.57616 0
M  V30 16261 H 1487.48 4.61605 -0.777062 0
M  V30 16262 H 1487.65 6.34329 -1.32403 0
M  V30 16263 N 1481.06 0.105248 1.57248 0
M  V30 16264 C 1482.33 -0.598871 1.86207 0
M  V30 16265 C 1482.71 -1.85698 1.00396 0
M  V30 16266 O 1482.06 -2.28363 0.0791093 0
M  V30 16267 C 1482.27 -0.904522 3.37075 0
M  V30 16268 C 1483.62 -1.26357 4.05363 0
M  V30 16269 O 1484.64 -0.99522 3.42014 0
M  V30 16270 O 1483.5 -1.76659 5.17159 0
M  V30 16271 H 1480.6 -0.300727 0.770384 0
M  V30 16272 H 1483.14 0.138713 1.69132 0
M  V30 16273 H 1481.91 -0.0123974 3.91298 0
M  V30 16274 H 1481.54 -1.69774 3.59531 0
M  V30 16275 N 1482.53 -1.56697 -0.168486 0
M  V30 16276 C 1483.46 -1.99659 -1.21073 0
M  V30 16277 C 1484.45 -0.872625 -1.46011 0
M  V30 16278 O 1485.63 -1.13891 -1.57297 0
M  V30 16279 C 1482.76 -2.35889 -2.54899 0
M  V30 16280 C 1481.71 -3.51272 -2.44524 0
M  V30 16281 C 1481.04 -3.73253 -3.82866 0
M  V30 16282 C 1482.34 -4.84631 -1.94756 0
M  V30 16283 H 1484.03 -2.86974 -0.853593 0
M  V30 16284 H 1481.58 -1.38065 -0.409165 0
M  V30 16285 H 1483.53 -2.64542 -3.28017 0
M  V30 16286 H 1482.26 -1.45486 -2.92406 0
M  V30 16287 H 1480.92 -3.22751 -1.7386 0
M  V30 16288 H 1480.56 -2.80136 -4.17772 0
M  V30 16289 H 1480.26 -4.5089 -3.76792 0
M  V30 16290 H 1481.79 -4.04309 -4.57566 0
M  V30 16291 H 1483.2 -5.12142 -2.5765 0
M  V30 16292 H 1481.6 -5.65925 -1.99623 0
M  V30 16293 H 1482.67 -4.76436 -0.902021 0
M  V30 16294 N 1484.01 0.437135 -1.51416 0
M  V30 16295 C 1484.98 1.51313 -1.72154 0
M  V30 16296 C 1485.98 1.49523 -0.59157 0
M  V30 16297 O 1487.17 1.51541 -0.859118 0
M  V30 16298 C 1484.3 2.9085 -1.77818 0
M  V30 16299 H 1485.49 1.34229 -2.68184 0
M  V30 16300 H 1483.04 0.665822 -1.41409 0
M  V30 16301 H 1483.78 3.13338 -0.836033 0
M  V30 16302 H 1483.56 2.93554 -2.59939 0
M  V30 16303 H 1485.05 3.68905 -1.957 0
M  V30 16304 N 1485.49 1.41566 0.692592 0
M  V30 16305 C 1486.45 1.43369 1.78824 0
M  V30 16306 C 1487.45 0.323867 1.57505 0
M  V30 16307 O 1488.64 0.583885 1.64123 0
M  V30 16308 C 1485.78 1.24798 3.17235 0
M  V30 16309 H 1486.97 2.40906 1.78617 0
M  V30 16310 H 1484.52 1.27752 0.900508 0
M  V30 16311 H 1485.26 0.281129 3.23079 0
M  V30 16312 H 1485.04 2.05212 3.34111 0
M  V30 16313 H 1486.53 1.28902 3.97208 0
M  V30 16314 N 1486.97 -0.927146 1.27443 0
M  V30 16315 C 1488.38 -1.20319 1.0486 0
M  V30 16316 C 1488.58 -2.00323 -0.217491 0
M  V30 16317 O 1487.64 -2.35032 -0.922833 0
M  V30 16318 C 1488.95 -1.9508 2.28833 0
M  V30 16319 C 1490.5 -2.08016 2.33877 0
M  V30 16320 C 1490.98 -2.86183 3.5758 0
M  V30 16321 N 1492.47 -2.93751 3.58141 0
M  V30 16322 C 1493.2 -3.54698 4.5053 0
M  V30 16323 N 1492.7 -4.17032 5.53223 0
M  V30 16324 N 1494.49 -3.52107 4.38152 0
M  V30 16325 H 1486.64 -0.392671 2.08739 0
M  V30 16326 H 1488.91 -0.236323 0.918072 0
M  V30 16327 H 1488.61 -1.43712 3.20998 0
M  V30 16328 H 1488.49 -2.95692 2.34193 0
M  V30 16329 H 1490.87 -2.5857 1.42217 0
M  V30 16330 H 1490.95 -1.06622 2.3252 0
M  V30 16331 H 1490.6 -2.36312 4.49576 0
M  V30 16332 H 1490.53 -3.87863 3.56188 0
M  V30 16333 H 1493.02 -2.49449 2.83872 0
M  V30 16334 H 1493.33 -4.61477 6.19886 0
M  V30 16335 H 1491.68 -4.15576 5.57065 0
M  V30 16336 H 1494.87 -3.02611 3.57134 0
M  V30 16337 H 1495.04 -3.99315 5.10344 0
M  V30 16338 N 1488.45 -1.09474 -1.13372 0
M  V30 16339 C 1489.39 -0.729274 -2.20872 0
M  V30 16340 C 1490.39 0.270036 -1.67234 0
M  V30 16341 O 1491.59 0.131445 -1.79519 0
M  V30 16342 H 1487.97 -0.217852 -0.719753 0
M  V30 16343 H 1489.94 -1.64505 -2.48959 0
M  V30 16344 C 1488.69 -0.166518 -3.47301 0
M  V30 16345 H 1488.01 -0.926666 -3.88913 0
M  V30 16346 H 1489.45 0.0512617 -4.23969 0
M  V30 16347 C 1487.91 1.09836 -3.18493 0
M  V30 16348 O 1488.44 2.18152 -3.37302 0
M  V30 16349 N 1486.65 1.01307 -2.7237 0
M  V30 16350 H 1486.19 0.131551 -2.57264 0
M  V30 16351 H 1486.15 1.86011 -2.5347 0
M  V30 16352 N 1489.92 1.30607 -0.882012 0
M  V30 16353 C 1491.17 1.96547 -0.499703 0
M  V30 16354 C 1491.5 1.69484 0.948098 0
M  V30 16355 O 1490.78 0.997929 1.66948 0
M  V30 16356 C 1491.06 3.51735 -0.771662 0
M  V30 16357 C 1490.91 3.88326 -2.26987 0
M  V30 16358 C 1492.23 4.39411 -0.246178 0
M  V30 16359 H 1489.35 0.713912 -0.183026 0
M  V30 16360 H 1491.99 1.5453 -1.10546 0
M  V30 16361 H 1490.14 3.87655 -0.256092 0
M  V30 16362 H 1491.82 3.62444 -2.85362 0
M  V30 16363 H 1490.06 3.36501 -2.7377 0
M  V30 16364 H 1490.73 4.96574 -2.41078 0
M  V30 16365 H 1493.21 4.10382 -0.687419 0
M  V30 16366 H 1492.08 5.4692 -0.465817 0
M  V30 16367 H 1492.34 4.33804 0.852452 0
M  V30 16368 N 1491.4 0.642663 1.43901 0
M  V30 16369 C 1492.33 -0.0419756 2.33462 0
M  V30 16370 C 1493.31 -0.822923 1.48869 0
M  V30 16371 O 1494.5 -0.786508 1.7756 0
M  V30 16372 C 1491.63 -1.01631 3.32097 0
M  V30 16373 C 1490.58 -0.346206 4.26597 0
M  V30 16374 C 1489.91 -1.43125 5.15189 0
M  V30 16375 C 1491.21 0.754799 5.16817 0
M  V30 16376 H 1492.9 0.705929 2.90959 0
M  V30 16377 H 1490.45 0.340924 1.39906 0
M  V30 16378 H 1492.4 -1.5041 3.93643 0
M  V30 16379 H 1491.13 -1.79525 2.72834 0
M  V30 16380 H 1489.78 0.121038 3.664 0
M  V30 16381 H 1489.43 -2.20135 4.52271 0
M  V30 16382 H 1489.13 -0.988194 5.79231 0
M  V30 16383 H 1490.66 -1.92061 5.79607 0
M  V30 16384 H 1492.07 0.349624 5.72233 0
M  V30 16385 H 1490.47 1.12169 5.89524 0
M  V30 16386 H 1491.54 1.61718 4.57138 0
M  V30 16387 N 1492.88 -1.52852 0.383918 0
M  V30 16388 C 1494.13 -2.01809 -0.200285 0
M  V30 16389 C 1494.46 -1.27009 -1.46909 0
M  V30 16390 O 1493.74 -0.369002 -1.90968 0
M  V30 16391 C 1494.02 -3.56971 -0.473672 0
M  V30 16392 C 1493.87 -4.42446 0.810048 0
M  V30 16393 C 1495.19 -4.21481 -1.26658 0
M  V30 16394 H 1492.31 -0.733541 -0.0713192 0
M  V30 16395 H 1494.95 -1.8296 0.512425 0
M  V30 16396 H 1493.1 -3.73163 -1.08081 0
M  V30 16397 H 1494.77 -4.38016 1.44706 0
M  V30 16398 H 1493.02 -4.09674 1.42652 0
M  V30 16399 H 1493.69 -5.49013 0.573478 0
M  V30 16400 H 1496.16 -4.09233 -0.752806 0
M  V30 16401 H 1495.04 -5.30037 -1.42661 0
M  V30 16402 H 1495.3 -3.78756 -2.28028 0
M  V30 16403 N 1494.36 -0.113586 -1.5719 0
M  V30 16404 C 1495.27 0.852428 -2.18565 0
M  V30 16405 C 1496.29 1.29668 -1.16026 0
M  V30 16406 O 1497.46 1.36079 -1.48474 0
M  V30 16407 C 1494.53 2.08675 -2.76867 0
M  V30 16408 C 1493.59 1.69493 -3.94424 0
M  V30 16409 C 1492.82 2.87042 -4.49936 0
M  V30 16410 O 1493.04 4.02311 -4.04354 0
M  V30 16411 O 1491.98 2.64439 -5.40699 0
M  V30 16412 H 1495.8 0.360144 -3.01557 0
M  V30 16413 H 1493.39 0.111744 -1.48982 0
M  V30 16414 H 1495.27 2.80976 -3.14054 0
M  V30 16415 H 1493.95 2.5692 -1.9691 0
M  V30 16416 H 1492.85 0.943161 -3.62016 0
M  V30 16417 H 1494.19 1.25995 -4.758 0
M  V30 16418 N 1495.84 1.56784 0.160173 0
M  V30 16419 C 1497.06 1.87129 0.894283 0
M  V30 16420 C 1497.49 0.701172 1.74543 0
M  V30 16421 O 1496.85 -0.349542 1.77899 0
M  V30 16422 C 1496.89 3.15969 1.73769 0
M  V30 16423 O 1496 2.98977 2.84054 0
M  V30 16424 H 1495.34 0.615192 0.249869 0
M  V30 16425 H 1497.87 2.04012 0.154956 0
M  V30 16426 H 1497.88 3.47657 2.13538 0
M  V30 16427 H 1496.55 4.00742 1.11258 0
M  V30 16428 H 1495.13 2.78668 2.47788 0
M  V30 16429 N 1497.32 -0.429099 1.51646 0
M  V30 16430 C 1498.23 -1.54648 1.76412 0
M  V30 16431 C 1499.24 -1.61455 0.648703 0
M  V30 16432 O 1500.42 -1.78544 0.931888 0
M  V30 16433 C 1497.48 -2.90562 1.89142 0
M  V30 16434 C 1496.54 -2.93804 3.13014 0
M  V30 16435 C 1495.78 -4.23235 3.25127 0
M  V30 16436 O 1496 -5.1606 2.42979 0
M  V30 16437 O 1494.93 -4.32929 4.18158 0
M  V30 16438 H 1498.76 -1.36661 2.71215 0
M  V30 16439 H 1496.34 -0.612946 1.36247 0
M  V30 16440 H 1498.23 -3.7121 1.99453 0
M  V30 16441 H 1496.9 -3.08659 0.975272 0
M  V30 16442 H 1495.81 -2.12082 3.08175 0
M  V30 16443 H 1497.14 -2.80654 4.04344 0
M  V30 16444 N 1498.79 -1.41931 -0.685074 0
M  V30 16445 C 1499.74 -1.41066 -1.79121 0
M  V30 16446 C 1500.73 -0.283467 -1.58383 0
M  V30 16447 O 1501.92 -0.524931 -1.69037 0
M  V30 16448 C 1499.05 -1.30551 -3.17508 0
M  V30 16449 C 1498.13 -2.48174 -3.43905 0
M  V30 16450 N 1498.53 -3.73621 -3.40941 0
M  V30 16451 C 1496.82 -2.42213 -3.74498 0
M  V30 16452 C 1497.52 -4.51693 -3.66536 0
M  V30 16453 N 1496.5 -3.81955 -3.86796 0
M  V30 16454 H 1500.3 -2.35965 -1.75208 0
M  V30 16455 H 1497.82 -1.36135 -0.885498 0
M  V30 16456 H 1499.81 -1.28013 -3.9676 0
M  V30 16457 H 1498.47 -0.366454 -3.22625 0
M  V30 16458 H 1499.48 -4.0636 -3.21079 0
M  V30 16459 H 1496.16 -1.56835 -3.86923 0
M  V30 16460 H 1497.55 -5.60654 -3.70292 0
M  V30 16461 N 1500.27 0.920374 -1.27933 0
M  V30 16462 C 1501.2 2.02644 -1.07089 0
M  V30 16463 C 1502.22 1.62781 -0.024674 0
M  V30 16464 O 1503.41 1.76491 -0.267023 0
M  V30 16465 C 1500.51 3.33476 -0.603919 0
M  V30 16466 C 1499.68 4.01988 -1.72407 0
M  V30 16467 C 1498.74 5.11098 -1.25159 0
M  V30 16468 O 1497.76 5.3466 -1.95261 0
M  V30 16469 N 1498.97 5.80393 -0.111197 0
M  V30 16470 H 1501.73 2.21085 -2.0234 0
M  V30 16471 H 1499.29 1.09124 -1.19597 0
M  V30 16472 H 1501.28 4.03788 -0.271579 0
M  V30 16473 H 1499.85 3.11554 0.255557 0
M  V30 16474 H 1499.07 3.25312 -2.22633 0
M  V30 16475 H 1500.36 4.4451 -2.47566 0
M  V30 16476 H 1499.76 5.63713 0.473746 0
M  V30 16477 H 1498.32 6.51599 0.161912 0
M  V30 16478 N 1501.75 1.10074 1.1279 0
M  V30 16479 C 1503 0.842118 1.84489 0
M  V30 16480 C 1503.33 -0.630737 1.83672 0
M  V30 16481 O 1502.6 -1.46481 1.27959 0
M  V30 16482 C 1502.89 1.3864 3.32342 0
M  V30 16483 C 1502.74 2.92585 3.41635 0
M  V30 16484 C 1504.06 1.02565 4.27982 0
M  V30 16485 H 1501.18 0.307376 0.669842 0
M  V30 16486 H 1503.82 1.36326 1.32345 0
M  V30 16487 H 1501.97 0.943134 3.76878 0
M  V30 16488 H 1503.64 3.4541 3.0576 0
M  V30 16489 H 1501.88 3.29378 2.82299 0
M  V30 16490 H 1502.56 3.25749 4.45636 0
M  V30 16491 H 1505.03 1.40807 3.91552 0
M  V30 16492 H 1503.91 1.43345 5.29852 0
M  V30 16493 H 1504.17 -0.0653712 4.42052 0
M  V30 16494 N 1503.23 -1.30138 0.888926 0
M  V30 16495 C 1504.17 -2.28023 0.356923 0
M  V30 16496 C 1505.14 -1.56551 -0.555066 0
M  V30 16497 O 1506.33 -1.84595 -0.482633 0
M  V30 16498 C 1503.47 -3.42546 -0.419056 0
M  V30 16499 C 1502.58 -4.28827 0.5226 0
M  V30 16500 C 1501.72 -5.30517 -0.269366 0
M  V30 16501 C 1500.76 -6.08449 0.667507 0
M  V30 16502 N 1499.89 -7.02043 -0.08938 0
M  V30 16503 H 1504.73 -2.72912 1.19678 0
M  V30 16504 H 1502.27 -1.34239 0.60152 0
M  V30 16505 H 1504.23 -4.07707 -0.884911 0
M  V30 16506 H 1502.86 -2.98716 -1.22346 0
M  V30 16507 H 1501.91 -3.63938 1.10695 0
M  V30 16508 H 1503.22 -4.83136 1.24018 0
M  V30 16509 H 1502.38 -6.01444 -0.796901 0
M  V30 16510 H 1501.12 -4.76911 -1.02014 0
M  V30 16511 H 1500.12 -5.36396 1.20664 0
M  V30 16512 H 1501.35 -6.64143 1.41744 0
M  V30 16513 H 1499.29 -6.50822 -0.822622 0
M  V30 16514 H 1499.21 -7.53859 0.568499 0
M  V30 16515 H 1500.48 -7.77206 -0.597529 0
M  V30 16516 N 1504.71 -0.650285 -1.43559 0
M  V30 16517 C 1505.95 -0.159832 -2.01066 0
M  V30 16518 C 1506.27 1.23246 -1.51887 0
M  V30 16519 O 1507.47 1.81797 -2.01648 0
M  V30 16520 C 1505.93 -0.23494 -3.59132 0
M  V30 16521 C 1505.54 -1.62975 -4.17305 0
M  V30 16522 C 1507.28 0.198061 -4.24038 0
M  V30 16523 C 1505.19 -1.65894 -5.67656 0
M  V30 16524 H 1504.12 -0.0559899 -0.751918 0
M  V30 16525 H 1506.77 -0.811891 -1.64562 0
M  V30 16526 H 1505.15 0.484573 -3.93024 0
M  V30 16527 H 1506.33 -2.37438 -3.94918 0
M  V30 16528 H 1504.64 -2.00847 -3.64759 0
M  V30 16529 H 1507.24 0.196054 -5.3434 0
M  V30 16530 H 1507.58 1.22896 -3.97747 0
M  V30 16531 H 1508.11 -0.469602 -3.95018 0
M  V30 16532 H 1504.85 -2.66883 -5.9871 0
M  V30 16533 H 1504.37 -0.957519 -5.92108 0
M  V30 16534 H 1506.05 -1.40137 -6.31641 0
M  V30 16535 N 1506.18 1.52647 -0.392018 0
M  V30 16536 C 1507.43 2.01215 0.188926 0
M  V30 16537 C 1507.75 1.28019 1.47092 0
M  V30 16538 O 1507.02 0.401048 1.91751 0
M  V30 16539 H 1505.6 0.743444 0.0728049 0
M  V30 16540 H 1508.26 1.87715 -0.524332 0
M  V30 16541 H 1507.36 3.09562 0.397216 0
M  V30 16542 N 1507.66 0.121921 1.57128 0
M  V30 16543 C 1508.94 -0.579087 1.86831 0
M  V30 16544 C 1509.32 -1.84623 1.0236 0
M  V30 16545 O 1508.67 -2.28266 0.103326 0
M  V30 16546 C 1508.88 -0.86872 3.38015 0
M  V30 16547 C 1510.23 -1.22051 4.0668 0
M  V30 16548 O 1511.25 -0.958889 3.43051 0
M  V30 16549 O 1510.11 -1.71164 5.19004 0
M  V30 16550 H 1507.2 -0.292539 0.773531 0
M  V30 16551 H 1509.75 0.156644 1.68975 0
M  V30 16552 H 1508.52 0.0291056 3.91289 0
M  V30 16553 H 1508.14 -1.65951 3.61312 0
M  V30 16554 N 1509.14 -1.56867 -0.151857 0
M  V30 16555 C 1510.39 -1.83082 -0.865285 0
M  V30 16556 C 1510.72 -0.702056 -1.81387 0
M  V30 16557 O 1509.97 0.309291 -1.9324 0
M  V30 16558 C 1510.27 -3.15597 -1.6773 0
M  V30 16559 C 1509.94 -4.4231 -0.875929 0
M  V30 16560 C 1508.6 -4.76724 -0.654826 0
M  V30 16561 C 1510.95 -5.20246 -0.315162 0
M  V30 16562 C 1508.28 -5.86538 0.13783 0
M  V30 16563 C 1510.63 -6.30892 0.464508 0
M  V30 16564 C 1509.29 -6.63859 0.696233 0
M  V30 16565 H 1508.56 -0.669945 -0.31663 0
M  V30 16566 H 1511.21 -1.91064 -0.129175 0
M  V30 16567 H 1509.52 -3.03044 -2.48338 0
M  V30 16568 H 1511.21 -3.33094 -2.23269 0
M  V30 16569 H 1507.8 -4.15328 -1.05832 0
M  V30 16570 H 1511.99 -4.94038 -0.473273 0
M  V30 16571 H 1507.24 -6.10525 0.32691 0
M  V30 16572 H 1511.42 -6.90479 0.906187 0
M  V30 16573 H 1509.04 -7.48788 1.3123 0
M  V30 16574 N 1510.62 0.421051 -1.51871 0
M  V30 16575 C 1511.87 1.16677 -1.65018 0
M  V30 16576 C 1512.19 1.91329 -0.376596 0
M  V30 16577 O 1511.46 1.86221 0.608146 0
M  V30 16578 H 1510.04 0.433698 -0.608206 0
M  V30 16579 H 1512.7 0.48115 -1.88868 0
M  V30 16580 H 1511.8 1.88742 -2.48562 0
M  V30 16581 N 1512.1 1.42293 0.677538 0
M  V30 16582 C 1513.03 1.48344 1.80323 0
M  V30 16583 C 1514.01 0.340276 1.66662 0
M  V30 16584 O 1515.19 0.554209 1.86124 0
M  V30 16585 C 1512.32 1.38247 3.18599 0
M  V30 16586 C 1511.28 2.50562 3.46991 0
M  V30 16587 C 1510.6 2.25524 4.84812 0
M  V30 16588 C 1511.9 3.92877 3.44158 0
M  V30 16589 H 1513.6 2.42558 1.75516 0
M  V30 16590 H 1511.14 1.16746 0.842999 0
M  V30 16591 H 1513.1 1.41089 3.97079 0
M  V30 16592 H 1511.82 0.405255 3.24076 0
M  V30 16593 H 1510.48 2.47032 2.7087 0
M  V30 16594 H 1510.13 1.26102 4.86937 0
M  V30 16595 H 1509.83 3.00797 5.04772 0
M  V30 16596 H 1511.35 2.3011 5.65581 0
M  V30 16597 H 1512.76 3.98024 4.12613 0
M  V30 16598 H 1511.16 4.6798 3.75653 0
M  V30 16599 H 1512.23 4.19743 2.42783 0
M  V30 16600 N 1513.57 -0.913576 1.28419 0
M  V30 16601 C 1514.8 -1.69649 1.18435 0
M  V30 16602 C 1515.22 -1.87043 -0.256987 0
M  V30 16603 O 1514.57 -1.39755 -1.17366 0
M  V30 16604 C 1514.63 -3.08855 1.87859 0
M  V30 16605 O 1514.35 -2.92265 3.26363 0
M  V30 16606 C 1515.85 -4.03229 1.84178 0
M  V30 16607 H 1513.07 -0.530307 0.411115 0
M  V30 16608 H 1515.61 -1.14342 1.69547 0
M  V30 16609 H 1513.77 -3.60979 1.40617 0
M  V30 16610 H 1514.18 -3.80372 3.61134 0
M  V30 16611 H 1515.65 -4.98369 2.37344 0
M  V30 16612 H 1516.13 -4.31587 0.814195 0
M  V30 16613 H 1516.74 -3.57033 2.311 0
M  V30 16614 N 1515.05 -1.1067 -1.12204 0
M  V30 16615 C 1516 -0.757745 -2.18007 0
M  V30 16616 C 1516.97 0.26706 -1.63939 0
M  V30 16617 O 1518.15 0.145789 -1.90242 0
M  V30 16618 C 1515.29 -0.198379 -3.44529 0
M  V30 16619 C 1514.41 -1.27878 -4.12639 0
M  V30 16620 C 1513.54 -0.6808 -5.26819 0
M  V30 16621 C 1512.58 -1.74161 -5.868 0
M  V30 16622 N 1511.72 -1.16372 -6.92389 0
M  V30 16623 H 1516.56 -1.66418 -2.47202 0
M  V30 16624 H 1514.1 -0.831216 -1.21364 0
M  V30 16625 H 1516.05 0.143838 -4.16952 0
M  V30 16626 H 1514.68 0.671279 -3.15743 0
M  V30 16627 H 1513.74 -1.73808 -3.38371 0
M  V30 16628 H 1515.05 -2.08169 -4.53285 0
M  V30 16629 H 1514.2 -0.288172 -6.06015 0
M  V30 16630 H 1512.94 0.153521 -4.87458 0
M  V30 16631 H 1511.95 -2.14364 -5.06289 0
M  V30 16632 H 1513.17 -2.57882 -6.28231 0
M  V30 16633 H 1511.12 -0.350899 -6.55061 0
M  V30 16634 H 1511.03 -1.90344 -7.31646 0
M  V30 16635 H 1512.3 -0.797715 -7.75407 0
M  V30 16636 N 1516.53 1.29665 -0.895815 0
M  V30 16637 C 1517.49 2.26103 -0.3755 0
M  V30 16638 C 1518.49 1.53212 0.488126 0
M  V30 16639 O 1519.68 1.71706 0.293733 0
M  V30 16640 C 1516.82 3.37732 0.46364 0
M  V30 16641 H 1518.01 2.73643 -1.22718 0
M  V30 16642 H 1515.56 1.4104 -0.673613 0
M  V30 16643 H 1516.3 2.95526 1.33546 0
M  V30 16644 H 1516.08 3.91793 -0.155123 0
M  V30 16645 H 1517.57 4.09488 0.819112 0
M  V30 16646 N 1518.01 0.657889 1.43212 0
M  V30 16647 C 1519.26 0.170493 2.00978 0
M  V30 16648 C 1519.57 -1.22439 1.52539 0
M  V30 16649 O 1520.78 -1.80725 2.02609 0
M  V30 16650 C 1519.23 0.253982 3.59003 0
M  V30 16651 C 1518.84 1.65185 4.16435 0
M  V30 16652 C 1520.58 -0.17557 4.24137 0
M  V30 16653 C 1518.49 1.68902 5.66768 0
M  V30 16654 H 1517.42 0.0599767 0.751611 0
M  V30 16655 H 1520.07 0.820606 1.64129 0
M  V30 16656 H 1518.45 -0.463723 3.93275 0
M  V30 16657 H 1519.63 2.39529 3.93653 0
M  V30 16658 H 1517.94 2.02779 3.63689 0
M  V30 16659 H 1520.54 -0.167714 5.34437 0
M  V30 16660 H 1520.88 -1.20784 3.98393 0
M  V30 16661 H 1521.42 0.490544 3.94764 0
M  V30 16662 H 1518.16 2.70055 5.97286 0
M  V30 16663 H 1517.68 0.988906 5.91592 0
M  V30 16664 H 1519.35 1.43485 6.30889 0
M  V30 16665 N 1519.49 -1.52437 0.400108 0
M  V30 16666 C 1520.4 -2.30496 -0.436875 0
M  V30 16667 C 1521.41 -1.37851 -1.06175 0
M  V30 16668 O 1522.59 -1.70924 -1.06522 0
M  V30 16669 C 1519.65 -3.10459 -1.54325 0
M  V30 16670 C 1518.71 -4.18829 -0.942367 0
M  V30 16671 C 1517.95 -4.94969 -1.99602 0
M  V30 16672 O 1518.17 -4.71314 -3.21278 0
M  V30 16673 O 1517.1 -5.80043 -1.60728 0
M  V30 16674 H 1520.93 -3.03045 0.199343 0
M  V30 16675 H 1518.52 -1.48502 0.163541 0
M  V30 16676 H 1520.4 -3.60282 -2.18575 0
M  V30 16677 H 1519.07 -2.40713 -2.16423 0
M  V30 16678 H 1517.98 -3.73176 -0.262831 0
M  V30 16679 H 1519.31 -4.90841 -0.365441 0
M  V30 16680 N 1520.96 -0.130252 -1.57061 0
M  V30 16681 C 1522.19 0.532416 -1.99932 0
M  V30 16682 C 1522.61 1.59505 -1.01013 0
M  V30 16683 O 1521.96 1.82499 -0.00463158 0
M  V30 16684 C 1522.02 1.14833 -3.42776 0
M  V30 16685 O 1521.74 0.128163 -4.37912 0
M  V30 16686 C 1523.24 1.89324 -4.00838 0
M  V30 16687 H 1520.46 0.140046 -0.656223 0
M  V30 16688 H 1523 -0.219905 -2.03314 0
M  V30 16689 H 1521.16 1.85137 -3.40298 0
M  V30 16690 H 1521.57 0.577135 -5.21315 0
M  V30 16691 H 1523.04 2.27731 -5.02835 0
M  V30 16692 H 1523.52 2.77277 -3.40608 0
M  V30 16693 H 1524.13 1.23757 -4.06896 0
M  V30 16694 N 1522.44 1.56945 0.143535 0
M  V30 16695 C 1523.72 1.74461 0.884454 0
M  V30 16696 C 1524.1 0.699201 1.99184 0
M  V30 16697 O 1523.45 -0.281267 2.26762 0
M  V30 16698 C 1523.66 3.18639 1.42373 0
M  V30 16699 C 1525.01 3.80426 1.88577 0
M  V30 16700 O 1526.03 3.2209 1.52107 0
M  V30 16701 O 1524.89 4.82913 2.55847 0
M  V30 16702 H 1521.98 0.713457 0.41822 0
M  V30 16703 H 1524.53 1.69208 0.12919 0
M  V30 16704 H 1523.3 3.86227 0.628056 0
M  V30 16705 H 1522.92 3.28332 2.2424 0
M  V30 16706 N 1523.92 -0.412991 1.52093 0
M  V30 16707 C 1524.87 -1.50294 1.75158 0
M  V30 16708 C 1525.84 -1.55119 0.593902 0
M  V30 16709 O 1527.02 -1.71751 0.831032 0
M  V30 16710 C 1524.16 -2.87781 1.90463 0
M  V30 16711 C 1523.28 -2.92295 3.181 0
M  V30 16712 C 1522.41 -4.21056 3.23859 0
M  V30 16713 C 1521.45 -4.1953 4.45714 0
M  V30 16714 N 1520.59 -5.39857 4.48886 0
M  V30 16715 H 1525.43 -1.29927 2.68185 0
M  V30 16716 H 1522.96 -0.630741 1.32891 0
M  V30 16717 H 1524.92 -3.67588 1.9732 0
M  V30 16718 H 1523.55 -3.06651 1.00822 0
M  V30 16719 H 1522.6 -2.05002 3.20434 0
M  V30 16720 H 1523.92 -2.87031 4.0794 0
M  V30 16721 H 1523.07 -5.09253 3.29767 0
M  V30 16722 H 1521.81 -4.2901 2.31952 0
M  V30 16723 H 1520.81 -3.29724 4.39957 0
M  V30 16724 H 1522.04 -4.1322 5.38912 0
M  V30 16725 H 1519.99 -5.48486 3.59861 0
M  V30 16726 H 1519.9 -5.36572 5.32566 0
M  V30 16727 H 1521.17 -6.30018 4.59018 0
M  V30 16728 N 1525.4 -1.4265 -0.669982 0
M  V30 16729 C 1526.31 -1.48916 -1.81276 0
M  V30 16730 C 1527.33 -0.377523 -1.69855 0
M  V30 16731 O 1528.5 -0.629151 -1.91321 0
M  V30 16732 C 1525.57 -1.39376 -3.17451 0
M  V30 16733 C 1524.63 -2.61072 -3.40793 0
M  V30 16734 C 1523.86 -2.51976 -4.70472 0
M  V30 16735 O 1524.08 -1.55827 -5.48702 0
M  V30 16736 O 1523.02 -3.42193 -4.95164 0
M  V30 16737 H 1526.84 -2.45382 -1.78945 0
M  V30 16738 H 1524.43 -1.24467 -0.826342 0
M  V30 16739 H 1526.31 -1.36435 -3.98702 0
M  V30 16740 H 1524.99 -0.460376 -3.20409 0
M  V30 16741 H 1523.89 -2.69587 -2.59372 0
M  V30 16742 H 1525.23 -3.53325 -3.42669 0
M  V30 16743 N 1526.88 0.906753 -1.28902 0
M  V30 16744 C 1528.11 1.68774 -1.1916 0
M  V30 16745 C 1528.52 1.87523 0.251339 0
M  V30 16746 O 1527.86 1.4071 1.18095 0
M  V30 16747 C 1527.92 3.09676 -1.82596 0
M  V30 16748 C 1527.58 3.14185 -3.31869 0
M  V30 16749 C 1528.58 2.94858 -4.282 0
M  V30 16750 C 1526.27 3.36476 -3.72947 0
M  V30 16751 C 1528.26 2.97744 -5.63584 0
M  V30 16752 C 1525.95 3.38993 -5.08456 0
M  V30 16753 C 1526.95 3.19648 -6.03584 0
M  V30 16754 O 1526.63 3.2194 -7.3662 0
M  V30 16755 H 1526.37 0.534133 -0.41434 0
M  V30 16756 H 1528.92 1.14282 -1.70671 0
M  V30 16757 H 1527.15 3.65739 -1.25587 0
M  V30 16758 H 1528.84 3.6983 -1.67273 0
M  V30 16759 H 1529.6 2.77456 -3.97798 0
M  V30 16760 H 1525.48 3.50576 -2.99362 0
M  V30 16761 H 1529.03 2.82563 -6.37812 0
M  V30 16762 H 1524.92 3.55924 -5.38506 0
M  V30 16763 H 1525.69 3.38255 -7.45336 0
M  V30 16764 N 1528.36 1.11264 1.11616 0
M  V30 16765 C 1529.59 0.881522 1.8685 0
M  V30 16766 C 1529.99 -0.572088 1.80344 0
M  V30 16767 O 1529.34 -1.40665 1.18148 0
M  V30 16768 C 1529.4 1.26245 3.36604 0
M  V30 16769 C 1529.06 2.72485 3.6688 0
M  V30 16770 C 1530.06 3.70708 3.64516 0
M  V30 16771 C 1527.74 3.09086 3.95943 0
M  V30 16772 C 1529.74 5.0355 3.90789 0
M  V30 16773 C 1527.43 4.42114 4.21875 0
M  V30 16774 C 1528.42 5.39155 4.19286 0
M  V30 16775 O 1528.11 6.69787 4.44568 0
M  V30 16776 H 1527.84 0.315647 0.597782 0
M  V30 16777 H 1530.4 1.48317 1.42095 0
M  V30 16778 H 1528.63 0.603938 3.81955 0
M  V30 16779 H 1530.32 1.00744 3.93199 0
M  V30 16780 H 1531.08 3.43776 3.42115 0
M  V30 16781 H 1526.96 2.34171 3.97095 0
M  V30 16782 H 1530.51 5.79285 3.88684 0
M  V30 16783 H 1526.4 4.6878 4.43751 0
M  V30 16784 H 1527.17 6.75548 4.62144 0
M  V30 16785 N 1529.83 -1.29188 0.902679 0
M  V30 16786 C 1531.06 -1.99576 0.545635 0
M  V30 16787 C 1531.48 -1.67541 -0.870372 0
M  V30 16788 O 1530.83 -0.922082 -1.57493 0
M  V30 16789 C 1530.88 -3.54013 0.731916 0
M  V30 16790 O 1530.61 -3.84914 2.09219 0
M  V30 16791 C 1532.11 -4.41666 0.38022 0
M  V30 16792 H 1529.33 -0.637593 0.209083 0
M  V30 16793 H 1531.87 -1.64652 1.21284 0
M  V30 16794 H 1530.03 -3.87239 0.111849 0
M  V30 16795 H 1530.44 -4.79581 2.12373 0
M  V30 16796 H 1531.91 -5.49138 0.561382 0
M  V30 16797 H 1532.39 -4.33858 -0.682915 0
M  V30 16798 H 1533 -4.13918 0.977354 0
M  V30 16799 N 1531.31 -0.665475 -1.42861 0
M  V30 16800 C 1532.56 -0.184156 -2.01962 0
M  V30 16801 C 1532.89 1.20301 -1.52451 0
M  V30 16802 O 1532.17 1.80573 -0.722756 0
M  V30 16803 C 1532.45 -0.208497 -3.59496 0
M  V30 16804 C 1532.3 -1.63045 -4.19209 0
M  V30 16805 C 1533.62 0.448421 -4.3781 0
M  V30 16806 H 1530.74 -0.0683924 -0.73382 0
M  V30 16807 H 1533.38 -0.84849 -1.70002 0
M  V30 16808 H 1531.53 0.357179 -3.86855 0
M  V30 16809 H 1533.2 -2.24766 -4.02837 0
M  V30 16810 H 1531.45 -2.17401 -3.75392 0
M  V30 16811 H 1532.12 -1.59924 -5.28326 0
M  V30 16812 H 1534.59 -0.0330053 -4.16087 0
M  V30 16813 H 1533.47 0.400713 -5.47435 0
M  V30 16814 H 1533.73 1.52454 -4.14982 0
M  V30 16815 N 1532.79 1.52222 -0.408187 0
M  V30 16816 C 1533.74 2.26988 0.417767 0
M  V30 16817 C 1534.71 1.29362 1.04185 0
M  V30 16818 O 1535.89 1.58223 1.06631 0
M  V30 16819 C 1533.03 3.09379 1.52901 0
M  V30 16820 C 1532.14 4.2196 0.92593 0
M  V30 16821 C 1531.28 4.91712 2.00979 0
M  V30 16822 C 1530.32 5.96258 1.3836 0
M  V30 16823 N 1529.46 6.59531 2.40756 0
M  V30 16824 H 1534.3 2.9714 -0.226228 0
M  V30 16825 H 1531.83 1.46581 -0.123402 0
M  V30 16826 H 1533.79 3.55452 2.18425 0
M  V30 16827 H 1532.42 2.41399 2.14304 0
M  V30 16828 H 1531.47 3.80064 0.159765 0
M  V30 16829 H 1532.78 4.96956 0.428497 0
M  V30 16830 H 1531.94 5.41186 2.74231 0
M  V30 16831 H 1530.68 4.16282 2.54087 0
M  V30 16832 H 1529.68 5.46104 0.636402 0
M  V30 16833 H 1530.91 6.7363 0.860218 0
M  V30 16834 H 1528.85 5.86931 2.92999 0
M  V30 16835 H 1528.77 7.30198 1.95822 0
M  V30 16836 H 1530.04 7.13643 3.13581 0
M  V30 16837 N 1534.27 0.138579 1.5699 0
M  V30 16838 C 1535.54 -0.559239 1.87435 0
M  V30 16839 C 1535.92 -1.83527 1.04312 0
M  V30 16840 O 1535.27 -2.28144 0.127531 0
M  V30 16841 C 1535.48 -0.83282 3.38918 0
M  V30 16842 C 1536.83 -1.1773 4.07952 0
M  V30 16843 O 1537.85 -0.92245 3.44048 0
M  V30 16844 O 1536.71 -1.6565 5.2079 0
M  V30 16845 H 1533.81 -0.284318 0.77659 0
M  V30 16846 H 1536.35 0.174558 1.688 0
M  V30 16847 H 1535.13 0.0706054 3.91236 0
M  V30 16848 H 1534.75 -1.62109 3.63051 0
M  V30 16849 N 1535.75 -1.57019 -0.13521 0
M  V30 16850 C 1537.02 -1.74928 -0.875189 0
M  V30 16851 C 1537.4 -0.709755 -1.98811 0
M  V30 16852 O 1536.75 0.269237 -2.26908 0
M  V30 16853 C 1536.96 -3.1939 -1.40681 0
M  V30 16854 C 1538.31 -3.8142 -1.86557 0
M  V30 16855 O 1539.33 -3.22892 -1.50397 0
M  V30 16856 O 1538.19 -4.84263 -2.53282 0
M  V30 16857 H 1535.29 -0.715665 -0.414431 0
M  V30 16858 H 1537.83 -1.69274 -0.120215 0
M  V30 16859 H 1536.6 -3.86554 -0.607564 0
M  V30 16860 H 1536.23 -3.29517 -2.22496 0
M  V30 16861 N 1537.22 0.404919 -1.52309 0
M  V30 16862 C 1538.64 0.743846 -1.41206 0
M  V30 16863 C 1538.84 1.94678 -0.519874 0
M  V30 16864 O 1537.9 2.52497 0.0127417 0
M  V30 16865 C 1539.21 0.99384 -2.83802 0
M  V30 16866 C 1540.76 1.0963 -2.93173 0
M  V30 16867 C 1541.23 1.37902 -4.36746 0
M  V30 16868 N 1542.72 1.44758 -4.39999 0
M  V30 16869 C 1543.46 1.68269 -5.48154 0
M  V30 16870 N 1542.95 1.89356 -6.6642 0
M  V30 16871 N 1544.75 1.70318 -5.35675 0
M  V30 16872 H 1536.9 -0.386855 -2.08847 0
M  V30 16873 H 1539.16 -0.110811 -0.941501 0
M  V30 16874 H 1538.87 0.182249 -3.51227 0
M  V30 16875 H 1538.74 1.91287 -3.25099 0
M  V30 16876 H 1541.13 1.89847 -2.25925 0
M  V30 16877 H 1541.21 0.155539 -2.55327 0
M  V30 16878 H 1540.85 0.582004 -5.04554 0
M  V30 16879 H 1540.78 2.33237 -4.72132 0
M  V30 16880 H 1543.27 1.30235 -3.5475 0
M  V30 16881 H 1543.59 2.06758 -7.44628 0
M  V30 16882 H 1541.93 1.86612 -6.69478 0
M  V30 16883 H 1545.12 1.53385 -4.42256 0
M  V30 16884 H 1545.3 1.88302 -6.20037 0
M  V30 16885 N 1538.7 1.43003 0.662408 0
M  V30 16886 C 1539.98 1.34613 1.41911 0
M  V30 16887 C 1540.36 -0.0105336 2.11097 0
M  V30 16888 O 1539.71 -1.02667 2.04137 0
M  V30 16889 C 1539.92 2.52297 2.41137 0
M  V30 16890 C 1541.27 2.94972 3.05412 0
M  V30 16891 O 1542.29 2.52277 2.51465 0
M  V30 16892 O 1541.15 3.68906 4.03201 0
M  V30 16893 H 1538.24 0.531508 0.633583 0
M  V30 16894 H 1540.79 1.55035 0.690088 0
M  V30 16895 H 1539.56 3.42685 1.88898 0
M  V30 16896 H 1539.18 2.33926 3.21503 0
M  V30 16897 N 1540.18 -0.899904 1.29381 0
M  V30 16898 C 1541.41 -1.68911 1.20349 0
M  V30 16899 C 1541.83 -1.86657 -0.232523 0
M  V30 16900 O 1541.19 -1.38674 -1.16787 0
M  V30 16901 C 1541.24 -3.05124 1.92177 0
M  V30 16902 O 1540.34 -3.93358 1.23867 0
M  V30 16903 H 1539.68 -0.516698 0.417036 0
M  V30 16904 H 1542.21 -1.12422 1.70946 0
M  V30 16905 H 1542.22 -3.55267 2.00623 0
M  V30 16906 H 1540.9 -2.91525 2.96624 0
M  V30 16907 H 1539.47 -3.51793 1.23677 0
M  V30 16908 N 1541.66 -1.11854 -1.11024 0
M  V30 16909 C 1543.07 -0.885443 -1.64368 0
M  V30 16910 C 1543.42 0.581455 -1.87386 0
M  V30 16911 O 1542.55 1.44452 -1.61129 0
M  V30 16912 C 1543.14 -1.60082 -2.98595 0
M  V30 16913 C 1541.7 -1.41403 -3.4883 0
M  V30 16914 C 1540.85 -1.64069 -2.23555 0
M  V30 16915 H 1543.8 -1.27418 -0.94606 0
M  V30 16916 H 1543.82 -1.04832 -3.65774 0
M  V30 16917 H 1543.33 -2.66842 -2.8181 0
M  V30 16918 H 1541.43 -0.368727 -3.70771 0
M  V30 16919 H 1541.54 -2.16603 -4.27341 0
M  V30 16920 H 1539.91 -1.06437 -2.31394 0
M  V30 16921 H 1540.69 -2.72112 -2.09308 0
M  V30 16922 N 1543.14 1.28707 -0.909517 0
M  V30 16923 C 1544.38 1.95443 -0.541281 0
M  V30 16924 C 1544.72 1.71457 0.911934 0
M  V30 16925 O 1543.99 1.03312 1.64794 0
M  V30 16926 C 1544.27 3.50019 -0.846097 0
M  V30 16927 C 1544.13 3.83423 -2.35173 0
M  V30 16928 C 1545.45 4.3879 -0.339328 0
M  V30 16929 H 1542.56 0.709869 -0.198128 0
M  V30 16930 H 1545.21 1.52151 -1.13799 0
M  V30 16931 H 1543.36 3.87025 -0.338262 0
M  V30 16932 H 1545.03 3.5631 -2.92986 0
M  V30 16933 H 1543.27 3.30618 -2.80846 0
M  V30 16934 H 1543.94 4.91348 -2.51557 0
M  V30 16935 H 1546.42 4.08832 -0.774312 0
M  V30 16936 H 1545.29 5.45809 -0.581722 0
M  V30 16937 H 1545.56 4.35514 0.760244 0
M  V30 16938 N 1544.61 0.673042 1.42506 0
M  V30 16939 C 1545.86 0.194576 2.01563 0
M  V30 16940 C 1546.19 -1.19829 1.53203 0
M  V30 16941 O 1545.44 -1.8181 0.724131 0
M  V30 16942 C 1545.74 0.175896 3.56967 0
M  V30 16943 C 1545.41 1.51319 4.24751 0
M  V30 16944 C 1544.07 1.87936 4.42983 0
M  V30 16945 C 1546.42 2.394 4.62965 0
M  V30 16946 C 1543.75 3.12261 4.96699 0
M  V30 16947 C 1546.1 3.63036 5.18061 0
M  V30 16948 C 1544.77 3.99824 5.34506 0
M  V30 16949 H 1544.04 0.0712004 0.737571 0
M  V30 16950 H 1546.68 0.867679 1.70715 0
M  V30 16951 H 1544.99 -0.580712 3.87473 0
M  V30 16952 H 1546.69 -0.211488 4.00442 0
M  V30 16953 H 1543.28 1.21834 4.10919 0
M  V30 16954 H 1547.46 2.12397 4.48555 0
M  V30 16955 H 1542.72 3.40787 5.07617 0
M  V30 16956 H 1546.89 4.31491 5.46616 0
M  V30 16957 H 1544.52 4.96236 5.75894 0
M  V30 16958 N 1546.09 -1.52004 0.416254 0
M  V30 16959 C 1547.34 -2.02848 -0.149787 0
M  V30 16960 C 1547.69 -1.29603 -1.422 0
M  V30 16961 O 1546.99 -0.395826 -1.87467 0
M  V30 16962 C 1547.18 -3.54624 -0.444553 0
M  V30 16963 C 1547.01 -4.42571 0.797537 0
M  V30 16964 C 1545.78 -4.87623 1.32485 0
M  V30 16965 C 1547.98 -4.86166 1.6777 0
M  V30 16966 N 1545.96 -5.59718 2.52168 0
M  V30 16967 C 1547.33 -5.57115 2.72072 0
M  V30 16968 C 1549.39 -4.68174 1.69462 0
M  V30 16969 C 1548.09 -6.1198 3.77985 0
M  V30 16970 C 1550.11 -5.23942 2.74298 0
M  V30 16971 C 1549.48 -5.94818 3.7732 0
M  V30 16972 H 1545.58 -0.781832 -0.0161927 0
M  V30 16973 H 1548.16 -1.86102 0.5722 0
M  V30 16974 H 1546.33 -3.71429 -1.13558 0
M  V30 16975 H 1548.06 -3.92148 -1.0001 0
M  V30 16976 H 1544.82 -4.65318 0.881837 0
M  V30 16977 H 1545.24 -6.00404 3.128 0
M  V30 16978 H 1549.88 -4.12858 0.911497 0
M  V30 16979 H 1547.6 -6.66364 4.57149 0
M  V30 16980 H 1551.19 -5.11885 2.76523 0
M  V30 16981 H 1550.07 -6.37198 4.57109 0
M  V30 16982 N 1547.57 -0.146903 -1.56914 0
M  V30 16983 C 1548.8 0.51044 -2.00195 0
M  V30 16984 C 1549.21 1.58966 -1.02599 0
M  V30 16985 O 1548.55 1.83694 -0.0149611 0
M  V30 16986 C 1548.61 1.17055 -3.39909 0
M  V30 16987 C 1548.28 0.235944 -4.56391 0
M  V30 16988 C 1549.27 -0.536351 -5.17126 0
M  V30 16989 C 1546.96 0.138878 -5.02108 0
M  V30 16990 C 1548.95 -1.39316 -6.21989 0
M  V30 16991 C 1546.64 -0.721538 -6.06825 0
M  V30 16992 C 1547.64 -1.48616 -6.66635 0
M  V30 16993 O 1547.33 -2.33224 -7.69325 0
M  V30 16994 H 1547.06 0.137381 -0.661893 0
M  V30 16995 H 1549.61 -0.23844 -2.04011 0
M  V30 16996 H 1547.84 1.96707 -3.32931 0
M  V30 16997 H 1549.53 1.72761 -3.67299 0
M  V30 16998 H 1550.3 -0.471393 -4.82704 0
M  V30 16999 H 1546.18 0.723769 -4.55283 0
M  V30 17000 H 1549.72 -1.99044 -6.68601 0
M  V30 17001 H 1545.62 -0.787788 -6.40675 0
M  V30 17002 H 1546.39 -2.26471 -7.86545 0
M  V30 17003 N 1549.05 1.57088 0.126881 0
M  V30 17004 C 1550.01 1.98836 1.14003 0
M  V30 17005 C 1551.01 0.877454 1.34749 0
M  V30 17006 O 1552.2 1.14366 1.314 0
M  V30 17007 C 1549.33 2.32171 2.49618 0
M  V30 17008 H 1550.53 2.89541 0.7814 0
M  V30 17009 H 1548.08 1.51835 0.370915 0
M  V30 17010 H 1548.81 1.44321 2.90417 0
M  V30 17011 H 1548.6 3.13187 2.35916 0
M  V30 17012 H 1550.09 2.65238 3.2255 0
M  V30 17013 N 1550.53 -0.396836 1.52522 0
M  V30 17014 C 1551.94 -0.975124 1.59211 0
M  V30 17015 C 1552.29 -1.91199 0.440138 0
M  V30 17016 O 1551.41 -2.11924 -0.437856 0
M  V30 17017 C 1552.01 -1.77531 2.88562 0
M  V30 17018 C 1550.57 -2.30343 2.9769 0
M  V30 17019 C 1549.71 -1.10671 2.54258 0
M  V30 17020 H 1552.67 -0.176646 1.57714 0
M  V30 17021 H 1552.69 -2.63384 2.74607 0
M  V30 17022 H 1552.2 -1.09318 3.72386 0
M  V30 17023 H 1550.3 -3.01891 2.18387 0
M  V30 17024 H 1550.41 -2.60366 4.02177 0
M  V30 17025 H 1548.78 -1.46439 2.08393 0
M  V30 17026 H 1549.56 -0.440061 3.40468 0
M  V30 17027 N 1552.01 -1.43353 -0.654814 0
M  V30 17028 C 1552.92 -1.50831 -1.79687 0
M  V30 17029 C 1553.93 -0.395518 -1.69445 0
M  V30 17030 O 1555.11 -0.649408 -1.90643 0
M  V30 17031 C 1552.17 -1.42735 -3.15955 0
M  V30 17032 C 1551.23 -2.64671 -3.38005 0
M  V30 17033 C 1550.47 -2.56952 -4.67773 0
M  V30 17034 O 1550.69 -1.61638 -5.47019 0
M  V30 17035 O 1549.62 -3.47425 -4.91507 0
M  V30 17036 H 1553.45 -2.47266 -1.76333 0
M  V30 17037 H 1551.03 -1.25336 -0.813095 0
M  V30 17038 H 1552.92 -1.40656 -3.97233 0
M  V30 17039 H 1551.59 -0.494334 -3.19903 0
M  V30 17040 H 1550.5 -2.72323 -2.56498 0
M  V30 17041 H 1551.83 -3.5694 -3.38903 0
M  V30 17042 N 1553.48 0.89303 -1.29857 0
M  V30 17043 C 1554.72 1.65836 -1.19489 0
M  V30 17044 C 1555.09 1.90389 0.248194 0
M  V30 17045 O 1556.29 2.6457 0.474963 0
M  V30 17046 C 1554.56 2.96706 -1.9925 0
M  V30 17047 S 1556.12 3.8771 -2.05492 0
M  V30 17048 H 1552.94 0.569282 -0.425956 0
M  V30 17049 H 1555.54 1.06061 -1.64229 0
M  V30 17050 H 1554.24 2.76554 -3.03226 0
M  V30 17051 H 1553.77 3.61518 -1.55141 0
M  V30 17052 H 1555.79 4.82052 -1.17644 0
M  V30 17053 N 1554.96 1.12442 1.10429 0
M  V30 17054 C 1555.89 0.814745 2.18824 0
M  V30 17055 C 1556.87 -0.221476 1.68652 0
M  V30 17056 O 1558.06 -0.0826537 1.94024 0
M  V30 17057 C 1555.19 0.268632 3.4626 0
M  V30 17058 C 1554.14 1.23792 4.09707 0
M  V30 17059 C 1553.47 0.552034 5.31843 0
M  V30 17060 C 1554.77 2.5926 4.53411 0
M  V30 17061 H 1556.46 1.72111 2.44986 0
M  V30 17062 H 1554.01 0.828968 1.17746 0
M  V30 17063 H 1555.96 0.0397207 4.21381 0
M  V30 17064 H 1554.68 -0.673079 3.19589 0
M  V30 17065 H 1553.34 1.45264 3.36592 0
M  V30 17066 H 1552.99 -0.394821 5.01448 0
M  V30 17067 H 1552.69 1.19861 5.75245 0
M  V30 17068 H 1554.22 0.332161 6.09696 0
M  V30 17069 H 1555.63 2.41816 5.19806 0
M  V30 17070 H 1554.03 3.19997 5.07663 0
M  V30 17071 H 1555.1 3.17699 3.66327 0
M  V30 17072 N 1556.44 -1.28223 0.91633 0
M  V30 17073 C 1557.37 -2.25482 0.351128 0
M  V30 17074 C 1558.35 -1.53155 -0.546108 0
M  V30 17075 O 1559.53 -1.82042 -0.489182 0
M  V30 17076 C 1556.66 -3.35021 -0.497832 0
M  V30 17077 C 1555.71 -4.25187 0.334384 0
M  V30 17078 S 1556.54 -5.06348 1.74276 0
M  V30 17079 C 1557.7 -6.19378 0.901172 0
M  V30 17080 H 1557.93 -2.73075 1.17547 0
M  V30 17081 H 1555.46 -1.36703 0.717752 0
M  V30 17082 H 1557.42 -3.98586 -0.98182 0
M  V30 17083 H 1556.08 -2.8609 -1.29658 0
M  V30 17084 H 1555.27 -5.03015 -0.314884 0
M  V30 17085 H 1554.88 -3.66359 0.75212 0
M  V30 17086 H 1557.17 -6.77371 0.131985 0
M  V30 17087 H 1558.11 -6.88558 1.65208 0
M  V30 17088 H 1558.52 -5.62718 0.448206 0
M  V30 17089 N 1557.92 -0.68059 -1.42147 0
M  V30 17090 C 1558.85 0.0331442 -2.29176 0
M  V30 17091 C 1559.86 0.759652 -1.4399 0
M  V30 17092 O 1561.05 0.612846 -1.6765 0
M  V30 17093 C 1558.15 1.07077 -3.2154 0
M  V30 17094 C 1557.32 0.416914 -4.35409 0
M  V30 17095 C 1556.38 1.3551 -5.08452 0
M  V30 17096 O 1555.41 0.853198 -5.62769 0
M  V30 17097 N 1556.61 2.68815 -5.14508 0
M  V30 17098 H 1559.38 -0.713963 -2.91072 0
M  V30 17099 H 1556.94 -0.525451 -1.53136 0
M  V30 17100 H 1558.93 1.6998 -3.67272 0
M  V30 17101 H 1557.5 1.71955 -2.61056 0
M  V30 17102 H 1556.72 -0.391734 -3.92249 0
M  V30 17103 H 1558.01 -0.0383564 -5.08786 0
M  V30 17104 H 1557.41 3.12125 -4.71799 0
M  V30 17105 H 1555.96 3.26951 -5.63867 0
M  V30 17106 N 1559.4 1.51781 -0.424309 0
M  V30 17107 C 1560.62 2.06871 0.147968 0
M  V30 17108 C 1561.05 1.29093 1.36808 0
M  V30 17109 O 1560.4 0.325279 1.78358 0
M  V30 17110 C 1560.45 3.57631 0.461757 0
M  V30 17111 O 1559.56 3.82149 1.55035 0
M  V30 17112 H 1558.9 0.663957 0.00757275 0
M  V30 17113 H 1561.43 1.95547 -0.601888 0
M  V30 17114 H 1561.44 4.01668 0.716005 0
M  V30 17115 H 1560.11 4.1367 -0.430081 0
M  V30 17116 H 1558.69 3.49984 1.28709 0
M  V30 17117 N 1560.87 0.155222 1.56834 0
M  V30 17118 C 1561.82 -0.781315 2.17173 0
M  V30 17119 C 1562.79 -1.23835 1.10699 0
M  V30 17120 O 1563.98 -1.3094 1.38778 0
M  V30 17121 C 1561.12 -2.01174 2.80398 0
M  V30 17122 C 1560.23 -1.59976 4.01287 0
M  V30 17123 C 1559.36 -2.78262 4.52486 0
M  V30 17124 C 1558.4 -2.33477 5.65822 0
M  V30 17125 N 1557.54 -3.44799 6.11603 0
M  V30 17126 H 1562.38 -0.259968 2.96864 0
M  V30 17127 H 1559.92 -0.116599 1.46637 0
M  V30 17128 H 1561.87 -2.73318 3.15203 0
M  V30 17129 H 1560.5 -2.50706 2.03338 0
M  V30 17130 H 1559.56 -0.775668 3.72408 0
M  V30 17131 H 1560.87 -1.2309 4.83374 0
M  V30 17132 H 1560.02 -3.58585 4.89389 0
M  V30 17133 H 1558.76 -3.18398 3.69424 0
M  V30 17134 H 1557.77 -1.51596 5.28487 0
M  V30 17135 H 1558.99 -1.94417 6.50676 0
M  V30 17136 H 1556.94 -3.84541 5.31474 0
M  V30 17137 H 1556.85 -3.11955 6.88637 0
M  V30 17138 H 1558.12 -4.25454 6.53153 0
M  V30 17139 N 1562.35 -1.57153 -0.118549 0
M  V30 17140 C 1563.6 -1.84876 -0.826255 0
M  V30 17141 C 1563.93 -0.740373 -1.79858 0
M  V30 17142 O 1563.18 0.268233 -1.93853 0
M  V30 17143 C 1563.48 -3.19084 -1.60998 0
M  V30 17144 C 1563.15 -4.44069 -0.781911 0
M  V30 17145 C 1561.81 -4.78005 -0.553559 0
M  V30 17146 C 1564.16 -5.20798 -0.204739 0
M  V30 17147 C 1561.49 -5.86114 0.262212 0
M  V30 17148 C 1563.84 -6.29765 0.598225 0
M  V30 17149 C 1562.5 -6.62233 0.83689 0
M  V30 17150 H 1561.77 -0.676511 -0.302348 0
M  V30 17151 H 1564.42 -1.91295 -0.0886182 0
M  V30 17152 H 1562.73 -3.08243 -2.41854 0
M  V30 17153 H 1564.42 -3.37755 -2.16153 0
M  V30 17154 H 1561.01 -4.1748 -0.969984 0
M  V30 17155 H 1565.2 -4.94931 -0.368374 0
M  V30 17156 H 1560.45 -6.09695 0.456338 0
M  V30 17157 H 1564.63 -6.88401 1.05244 0
M  V30 17158 H 1562.25 -7.45835 1.47083 0
M  V30 17159 N 1563.83 0.388742 -1.5273 0
M  V30 17160 C 1565.06 1.15328 -1.71415 0
M  V30 17161 C 1565.47 1.84193 -0.432366 0
M  V30 17162 O 1564.81 1.73522 0.602977 0
M  V30 17163 C 1564.87 2.24436 -2.80836 0
M  V30 17164 C 1564.54 1.75535 -4.21944 0
M  V30 17165 C 1565.53 1.23196 -5.05093 0
M  V30 17166 C 1563.22 1.8175 -4.68265 0
M  V30 17167 C 1565.21 0.777194 -6.32644 0
M  V30 17168 C 1562.9 1.35885 -5.95801 0
M  V30 17169 C 1563.9 0.839573 -6.7782 0
M  V30 17170 O 1563.59 0.387619 -8.02965 0
M  V30 17171 H 1563.32 0.351742 -0.577281 0
M  V30 17172 H 1565.87 0.460735 -2.00166 0
M  V30 17173 H 1564.1 2.97115 -2.47506 0
M  V30 17174 H 1565.79 2.86106 -2.87921 0
M  V30 17175 H 1566.56 1.17751 -4.70489 0
M  V30 17176 H 1562.44 2.21111 -4.04513 0
M  V30 17177 H 1565.98 0.371199 -6.96612 0
M  V30 17178 H 1561.88 1.41016 -6.29909 0
M  V30 17179 H 1562.64 0.509073 -8.16915 0
M  V30 17180 N 1565.31 1.43698 0.647203 0
M  V30 17181 C 1566.56 1.44918 1.40292 0
M  V30 17182 C 1566.87 0.0794243 1.95439 0
M  V30 17183 O 1568.08 -0.0309052 2.71482 0
M  V30 17184 C 1566.53 2.55052 2.53923 0
M  V30 17185 C 1566.14 3.98161 2.05357 0
M  V30 17186 C 1567.88 2.65473 3.31246 0
M  V30 17187 C 1565.79 4.99749 3.16235 0
M  V30 17188 H 1564.72 0.539106 0.527144 0
M  V30 17189 H 1567.37 1.69708 0.697951 0
M  V30 17190 H 1565.75 2.23473 3.26919 0
M  V30 17191 H 1566.93 4.3923 1.39333 0
M  V30 17192 H 1565.24 3.91839 1.40896 0
M  V30 17193 H 1567.84 3.38546 4.13873 0
M  V30 17194 H 1568.18 1.70745 3.79673 0
M  V30 17195 H 1568.72 2.96383 2.65334 0
M  V30 17196 H 1565.45 5.96051 2.7277 0
M  V30 17197 H 1564.97 4.63288 3.80952 0
M  V30 17198 H 1566.65 5.22725 3.81271 0
M  V30 17199 N 1566.79 -0.886131 1.30328 0
M  V30 17200 C 1567.75 -1.97328 1.16594 0
M  V30 17201 C 1568.75 -1.60504 0.0975023 0
M  V30 17202 O 1569.94 -1.70739 0.345524 0
M  V30 17203 C 1567.07 -3.31714 0.786045 0
M  V30 17204 H 1568.26 -2.1094 2.13177 0
M  V30 17205 H 1565.82 -1.07238 1.13708 0
M  V30 17206 H 1566.55 -3.23804 -0.179334 0
M  V30 17207 H 1566.34 -3.5981 1.55817 0
M  V30 17208 H 1567.83 -4.11461 0.71339 0
M  V30 17209 N 1568.26 -1.13026 -1.09832 0
M  V30 17210 C 1569.49 -0.912803 -1.86233 0
M  V30 17211 C 1569.91 0.532955 -1.80392 0
M  V30 17212 O 1569.27 1.37783 -1.17837 0
M  V30 17213 C 1569.32 -1.40002 -3.32313 0
M  V30 17214 O 1568.42 -0.582537 -4.08265 0
M  V30 17215 H 1567.77 -0.327464 -0.577636 0
M  V30 17216 H 1570.3 -1.5039 -1.38723 0
M  V30 17217 H 1570.31 -1.40182 -3.83162 0
M  V30 17218 H 1568.98 -2.4527 -3.3588 0
M  V30 17219 H 1567.56 -0.648255 -3.67222 0
M  V30 17220 N 1569.74 1.27735 -0.923117 0
M  V30 17221 C 1571.02 1.89626 -0.479724 0
M  V30 17222 C 1571.4 1.83592 1.04197 0
M  V30 17223 O 1570.75 1.27808 1.89413 0
M  V30 17224 C 1570.96 3.33742 -1.02064 0
M  V30 17225 C 1572.31 4.10678 -1.07837 0
M  V30 17226 O 1573.33 3.4274 -0.969943 0
M  V30 17227 O 1572.19 5.32135 -1.24476 0
M  V30 17228 H 1569.28 0.812615 -0.153575 0
M  V30 17229 H 1571.83 1.36036 -1.01451 0
M  V30 17230 H 1570.6 3.32404 -2.06454 0
M  V30 17231 H 1570.22 3.94845 -0.467234 0
M  V30 17232 N 1571.22 0.688118 1.41784 0
M  V30 17233 C 1572.47 0.216263 2.01644 0
M  V30 17234 C 1572.8 -1.17861 1.54345 0
M  V30 17235 O 1572.07 -1.794 0.751392 0
M  V30 17236 C 1572.36 0.265663 3.59119 0
M  V30 17237 C 1572.21 1.69694 4.16562 0
M  V30 17238 C 1573.53 -0.378713 4.38468 0
M  V30 17239 H 1570.65 0.0800582 0.732639 0
M  V30 17240 H 1573.29 0.875428 1.68631 0
M  V30 17241 H 1571.44 -0.295588 3.87374 0
M  V30 17242 H 1573.11 2.31146 3.9921 0
M  V30 17243 H 1571.36 2.23345 3.71886 0
M  V30 17244 H 1572.03 1.68309 5.25715 0
M  V30 17245 H 1574.5 0.0991969 4.15982 0
M  V30 17246 H 1573.38 -0.31357 5.48004 0
M  V30 17247 H 1573.64 -1.45832 4.17355 0
M  V30 17248 N 1572.7 -1.51554 0.432352 0
M  V30 17249 C 1573.94 -2.02995 -0.128264 0
M  V30 17250 C 1574.3 -1.31104 -1.40817 0
M  V30 17251 O 1573.59 -0.415687 -1.87036 0
M  V30 17252 C 1573.79 -3.55076 -0.406915 0
M  V30 17253 C 1573.62 -4.41701 0.844433 0
M  V30 17254 C 1572.39 -4.8619 1.37649 0
M  V30 17255 C 1574.58 -4.8436 1.72917 0
M  V30 17256 N 1572.57 -5.57012 2.5809 0
M  V30 17257 C 1573.94 -5.54198 2.77966 0
M  V30 17258 C 1575.99 -4.66351 1.74418 0
M  V30 17259 C 1574.69 -6.07937 3.84455 0
M  V30 17260 C 1576.72 -5.21003 2.79839 0
M  V30 17261 C 1576.08 -5.90783 3.83608 0
M  V30 17262 H 1572.18 -0.78196 -0.00789942 0
M  V30 17263 H 1574.77 -1.85485 0.591906 0
M  V30 17264 H 1572.94 -3.72612 -1.09612 0
M  V30 17265 H 1574.67 -3.93187 -0.958451 0
M  V30 17266 H 1571.42 -4.64356 0.931141 0
M  V30 17267 H 1571.85 -5.97053 3.1915 0
M  V30 17268 H 1576.49 -4.11868 0.955235 0
M  V30 17269 H 1574.21 -6.61478 4.64191 0
M  V30 17270 H 1577.79 -5.08923 2.81936 0
M  V30 17271 H 1576.67 -6.32313 4.63842 0
M  V30 17272 N 1574.18 -0.163538 -1.56749 0
M  V30 17273 C 1575.4 0.493087 -2.01453 0
M  V30 17274 C 1575.83 1.56535 -1.043 0
M  V30 17275 O 1575.18 1.81287 -0.0213039 0
M  V30 17276 C 1575.23 1.05546 -3.44808 0
M  V30 17277 O 1574.34 2.16977 -3.50706 0
M  V30 17278 H 1573.68 0.118905 -0.653267 0
M  V30 17279 H 1576.21 -0.265139 -2.02875 0
M  V30 17280 H 1576.22 1.38002 -3.83953 0
M  V30 17281 H 1574.89 0.270333 -4.1502 0
M  V30 17282 H 1573.47 1.85625 -3.23416 0
M  V30 17283 N 1575.65 1.57214 0.110213 0
M  V30 17284 C 1576.9 1.85312 0.816439 0
M  V30 17285 C 1577.23 0.749901 1.79462 0
M  V30 17286 O 1576.48 -0.257948 1.93993 0
M  V30 17287 C 1576.78 3.19933 1.59304 0
M  V30 17288 C 1576.45 4.44477 0.75835 0
M  V30 17289 C 1575.11 4.78292 0.528201 0
M  V30 17290 C 1577.46 5.20899 0.177117 0
M  V30 17291 C 1574.79 5.85966 -0.293292 0
M  V30 17292 C 1577.14 6.29439 -0.631615 0
M  V30 17293 C 1575.81 6.6178 -0.871998 0
M  V30 17294 H 1575.08 0.678104 0.298756 0
M  V30 17295 H 1577.72 1.91339 0.0784721 0
M  V30 17296 H 1576.03 3.09522 2.40216 0
M  V30 17297 H 1577.73 3.38897 2.14359 0
M  V30 17298 H 1574.32 4.17988 0.94783 0
M  V30 17299 H 1578.5 4.95119 0.342121 0
M  V30 17300 H 1573.76 6.09444 -0.488665 0
M  V30 17301 H 1577.93 6.87834 -1.08894 0
M  V30 17302 H 1575.56 7.45045 -1.51037 0
M  V30 17303 N 1577.13 -0.380637 1.52934 0
M  V30 17304 C 1578.38 -1.12261 1.68053 0
M  V30 17305 C 1578.7 -1.90263 0.427191 0
M  V30 17306 O 1577.97 -1.87768 -0.558559 0
M  V30 17307 H 1576.55 -0.41742 0.619491 0
M  V30 17308 H 1579.21 -0.430906 1.90077 0
M  V30 17309 H 1578.31 -1.82085 2.53479 0
M  V30 17310 N 1578.61 -1.44039 -0.639573 0
M  V30 17311 C 1579.86 -1.46594 -1.40136 0
M  V30 17312 C 1580.19 -0.0949646 -1.93968 0
M  V30 17313 O 1579.46 0.886201 -1.73138 0
M  V30 17314 C 1579.75 -2.51947 -2.57283 0
M  V30 17315 C 1579.6 -3.98371 -2.08855 0
M  V30 17316 C 1580.92 -2.53891 -3.59482 0
M  V30 17317 H 1578.04 -0.533759 -0.508203 0
M  V30 17318 H 1580.68 -1.75669 -0.723898 0
M  V30 17319 H 1578.83 -2.27285 -3.15077 0
M  V30 17320 H 1580.5 -4.34137 -1.55956 0
M  V30 17321 H 1578.75 -4.10551 -1.40109 0
M  V30 17322 H 1579.42 -4.67721 -2.93157 0
M  V30 17323 H 1581.89 -2.75906 -3.11473 0
M  V30 17324 H 1580.77 -3.29524 -4.38982 0
M  V30 17325 H 1581.03 -1.57774 -4.12989 0
M  V30 17326 N 1580.09 0.879207 -1.30796 0
M  V30 17327 C 1581.32 1.66449 -1.22891 0
M  V30 17328 C 1581.73 1.87658 0.207306 0
M  V30 17329 O 1581.09 1.42818 1.13619 0
M  V30 17330 C 1581.14 3.03765 -1.95982 0
M  V30 17331 O 1580.86 2.8351 -3.33997 0
M  V30 17332 C 1582.36 3.98204 -1.94804 0
M  V30 17333 H 1579.58 0.51922 -0.425031 0
M  V30 17334 H 1582.13 1.09807 -1.72519 0
M  V30 17335 H 1580.28 3.57124 -1.50138 0
M  V30 17336 H 1580.69 3.70663 -3.71092 0
M  V30 17337 H 1582.17 4.91901 -2.50474 0
M  V30 17338 H 1582.65 4.29277 -0.928336 0
M  V30 17339 H 1583.25 3.50781 -2.40485 0
M  V30 17340 N 1581.57 1.13606 1.09231 0
M  V30 17341 C 1582.5 0.837908 2.17948 0
M  V30 17342 C 1583.48 -0.203575 1.68877 0
M  V30 17343 O 1584.66 -0.0620702 1.94101 0
M  V30 17344 C 1581.79 0.305342 3.45955 0
M  V30 17345 C 1580.75 1.2813 4.08371 0
M  V30 17346 C 1580.07 0.608412 5.31227 0
M  V30 17347 C 1581.37 2.64055 4.50636 0
M  V30 17348 H 1583.07 1.747 2.43147 0
M  V30 17349 H 1580.61 0.84141 1.1686 0
M  V30 17350 H 1582.57 0.0844116 4.21315 0
M  V30 17351 H 1581.29 -0.639144 3.20285 0
M  V30 17352 H 1579.95 1.48826 3.35032 0
M  V30 17353 H 1579.6 -0.341613 5.01839 0
M  V30 17354 H 1579.3 1.25956 5.73942 0
M  V30 17355 H 1580.82 0.396809 6.09309 0
M  V30 17356 H 1582.24 2.47316 5.17212 0
M  V30 17357 H 1580.63 3.25364 5.0424 0
M  V30 17358 H 1581.7 3.21566 3.62937 0
M  V30 17359 N 1583.05 -1.27244 0.929878 0
M  V30 17360 C 1584 -2.24434 0.401656 0
M  V30 17361 C 1584.98 -1.53087 -0.495298 0
M  V30 17362 O 1586.17 -1.73851 -0.332387 0
M  V30 17363 C 1583.3 -3.41588 -0.342424 0
M  V30 17364 C 1582.39 -4.20236 0.571171 0
M  V30 17365 N 1582.78 -4.76661 1.69197 0
M  V30 17366 C 1581.08 -4.44424 0.374595 0
M  V30 17367 C 1581.78 -5.35987 2.26036 0
M  V30 17368 N 1580.75 -5.21043 1.54969 0
M  V30 17369 H 1584.55 -2.65644 1.25739 0
M  V30 17370 H 1582.07 -1.422 0.784408 0
M  V30 17371 H 1584.07 -4.10319 -0.737805 0
M  V30 17372 H 1582.73 -3.01908 -1.19506 0
M  V30 17373 H 1583.74 -4.74545 2.07431 0
M  V30 17374 H 1580.41 -4.15205 -0.437201 0
M  V30 17375 H 1581.8 -5.90583 3.20408 0
M  V30 17376 N 1584.52 -0.695628 -1.41417 0
M  V30 17377 C 1585.43 -0.0308378 -2.3458 0
M  V30 17378 C 1586.45 0.766 -1.56232 0
M  V30 17379 O 1587.63 0.703548 -1.88712 0
M  V30 17380 C 1584.69 0.894162 -3.34971 0
M  V30 17381 C 1583.75 0.0895231 -4.29207 0
M  V30 17382 C 1582.98 0.970467 -5.24802 0
M  V30 17383 O 1583.21 2.20997 -5.25848 0
M  V30 17384 O 1582.14 0.420114 -6.00432 0
M  V30 17385 H 1585.97 -0.798775 -2.93007 0
M  V30 17386 H 1583.55 -0.455964 -1.42272 0
M  V30 17387 H 1585.43 1.42458 -3.9659 0
M  V30 17388 H 1584.11 1.64159 -2.78987 0
M  V30 17389 H 1583.02 -0.4855 -3.70936 0
M  V30 17390 H 1584.35 -0.619241 -4.88289 0
M  V30 17391 N 1586 1.51322 -0.440383 0
M  V30 17392 C 1586.93 2.30708 0.360013 0
M  V30 17393 C 1587.91 1.36254 1.01828 0
M  V30 17394 O 1589.1 1.65174 1.02134 0
M  V30 17395 C 1586.23 3.15132 1.45977 0
M  V30 17396 C 1585.18 4.17889 0.924825 0
M  V30 17397 C 1584.51 4.90853 2.12056 0
M  V30 17398 C 1585.81 5.22282 -0.0428362 0
M  V30 17399 H 1587.5 2.97868 -0.30248 0
M  V30 17400 H 1585.05 1.43249 -0.146914 0
M  V30 17401 H 1587 3.69449 2.02695 0
M  V30 17402 H 1585.72 2.45798 2.1506 0
M  V30 17403 H 1584.38 3.64627 0.379842 0
M  V30 17404 H 1584.03 4.1802 2.79765 0
M  V30 17405 H 1583.73 5.60339 1.769 0
M  V30 17406 H 1585.26 5.47995 2.69322 0
M  V30 17407 H 1586.67 5.71654 0.434137 0
M  V30 17408 H 1585.07 5.99314 -0.307126 0
M  V30 17409 H 1586.14 4.74923 -0.978557 0
M  V30 17410 N 1587.48 0.171848 1.5666 0
M  V30 17411 C 1588.41 -0.753861 2.20996 0
M  V30 17412 C 1589.39 -1.23873 1.16574 0
M  V30 17413 O 1590.58 -1.29179 1.45005 0
M  V30 17414 C 1587.71 -1.98314 2.85112 0
M  V30 17415 C 1586.66 -1.6341 3.95577 0
M  V30 17416 C 1585.99 -2.93807 4.46745 0
M  V30 17417 C 1587.29 -0.861713 5.15142 0
M  V30 17418 H 1588.98 -0.217598 2.98608 0
M  V30 17419 H 1586.53 -0.10322 1.4363 0
M  V30 17420 H 1588.48 -2.63576 3.28794 0
M  V30 17421 H 1587.2 -2.54354 2.04869 0
M  V30 17422 H 1585.86 -1.00516 3.52551 0
M  V30 17423 H 1585.51 -3.47889 3.63293 0
M  V30 17424 H 1585.21 -2.71207 5.21268 0
M  V30 17425 H 1586.73 -3.60098 4.93114 0
M  V30 17426 H 1588.15 -1.41693 5.55514 0
M  V30 17427 H 1586.54 -0.734727 5.95585 0
M  V30 17428 H 1587.61 0.141851 4.84692 0
M  V30 17429 N 1588.96 -1.5727 -0.101874 0
M  V30 17430 C 1590.19 -1.89943 -0.820329 0
M  V30 17431 C 1590.6 -0.764867 -1.72613 0
M  V30 17432 O 1589.96 0.263499 -1.80588 0
M  V30 17433 C 1590.01 -3.2219 -1.63939 0
M  V30 17434 O 1589.73 -4.31279 -0.770039 0
M  V30 17435 C 1591.23 -3.6868 -2.46151 0
M  V30 17436 H 1588.45 -0.628532 -0.234922 0
M  V30 17437 H 1590.99 -2.04339 -0.0811362 0
M  V30 17438 H 1589.15 -3.09411 -2.33117 0
M  V30 17439 H 1589.56 -5.07182 -1.33665 0
M  V30 17440 H 1591.04 -4.63928 -2.99124 0
M  V30 17441 H 1591.51 -2.96183 -3.24303 0
M  V30 17442 H 1592.12 -3.84303 -1.82185 0
M  V30 17443 N 1590.44 0.372521 -1.53134 0
M  V30 17444 C 1591.67 1.13503 -1.72628 0
M  V30 17445 C 1592.07 1.83725 -0.451877 0
M  V30 17446 O 1591.42 1.74152 0.584539 0
M  V30 17447 C 1591.48 2.21445 -2.832 0
M  V30 17448 C 1591.14 1.7105 -4.23782 0
M  V30 17449 C 1592.14 1.17832 -5.06371 0
M  V30 17450 C 1589.82 1.76773 -4.70167 0
M  V30 17451 C 1591.82 0.710049 -6.33433 0
M  V30 17452 C 1589.51 1.29558 -5.97208 0
M  V30 17453 C 1590.5 0.767634 -6.78673 0
M  V30 17454 O 1590.19 0.302432 -8.03331 0
M  V30 17455 H 1589.92 0.3456 -0.580979 0
M  V30 17456 H 1592.48 0.439479 -2.00643 0
M  V30 17457 H 1590.71 2.94473 -2.50644 0
M  V30 17458 H 1592.4 2.83036 -2.90939 0
M  V30 17459 H 1593.16 1.12754 -4.71711 0
M  V30 17460 H 1589.04 2.16808 -4.06836 0
M  V30 17461 H 1592.59 0.297293 -6.96966 0
M  V30 17462 H 1588.48 1.34327 -6.31369 0
M  V30 17463 H 1589.25 0.4224 -8.17409 0
M  V30 17464 N 1591.91 1.44376 0.631925 0
M  V30 17465 C 1593.15 1.48638 1.40307 0
M  V30 17466 C 1593.52 0.115559 1.91652 0
M  V30 17467 O 1594.72 0.0328551 2.6878 0
M  V30 17468 C 1592.99 2.51663 2.53773 0
M  V30 17469 S 1594.55 2.74966 3.41964 0
M  V30 17470 H 1591.37 0.525735 0.478669 0
M  V30 17471 H 1593.97 1.81294 0.731632 0
M  V30 17472 H 1592.67 3.49968 2.14361 0
M  V30 17473 H 1592.2 2.20577 3.25744 0
M  V30 17474 H 1594.22 2.06501 4.51189 0
M  V30 17475 N 1593.39 -0.872258 1.31261 0
M  V30 17476 C 1594.67 -1.60739 1.11456 0
M  V30 17477 C 1595.05 -2.0848 -0.331569 0
M  V30 17478 O 1594.4 -1.86141 -1.32528 0
M  V30 17479 C 1594.61 -2.76714 2.12674 0
M  V30 17480 C 1595.95 -3.46734 2.45074 0
M  V30 17481 O 1596.98 -2.86919 2.11083 0
M  V30 17482 O 1595.84 -4.54632 3.0327 0
M  V30 17483 H 1592.93 -0.70707 0.428929 0
M  V30 17484 H 1595.48 -0.917922 1.42732 0
M  V30 17485 H 1594.25 -2.38834 3.09958 0
M  V30 17486 H 1593.87 -3.5335 1.8229 0
M  V30 17487 N 1594.87 -1.14184 -1.08627 0
M  V30 17488 C 1596.09 -0.932504 -1.85254 0
M  V30 17489 C 1596.52 0.513792 -1.80947 0
M  V30 17490 O 1595.88 1.36525 -1.19292 0
M  V30 17491 C 1595.93 -1.43519 -3.30809 0
M  V30 17492 O 1595.03 -0.625806 -4.07624 0
M  V30 17493 H 1594.37 -0.333573 -0.57413 0
M  V30 17494 H 1596.9 -1.51853 -1.3712 0
M  V30 17495 H 1596.91 -1.44238 -3.81654 0
M  V30 17496 H 1595.59 -2.48819 -3.3326 0
M  V30 17497 H 1594.16 -0.687168 -3.66514 0
M  V30 17498 N 1596.35 1.26749 -0.936613 0
M  V30 17499 C 1597.63 1.89106 -0.49981 0
M  V30 17500 C 1598.01 1.84687 1.02244 0
M  V30 17501 O 1597.35 1.2981 1.88047 0
M  V30 17502 C 1597.56 3.32641 -1.05598 0
M  V30 17503 C 1598.91 4.09511 -1.12187 0
M  V30 17504 O 1599.94 3.41692 -1.00624 0
M  V30 17505 O 1598.79 5.30785 -1.30113 0
M  V30 17506 H 1595.89 0.810941 -0.162185 0
M  V30 17507 H 1598.43 1.34952 -1.02888 0
M  V30 17508 H 1597.21 3.30196 -2.09968 0
M  V30 17509 H 1596.83 3.94327 -0.509086 0
M  V30 17510 N 1597.83 0.703118 1.41046 0
M  V30 17511 C 1599.05 0.245088 2.05947 0
M  V30 17512 C 1599.48 -1.09988 1.52592 0
M  V30 17513 O 1598.83 -1.69015 0.656023 0
M  V30 17514 C 1598.88 0.221444 3.59919 0
M  V30 17515 O 1597.99 -0.801324 4.0454 0
M  V30 17516 H 1597.33 0.117862 0.653456 0
M  V30 17517 H 1599.86 0.960099 1.80674 0
M  V30 17518 H 1599.87 0.0548681 4.07963 0
M  V30 17519 H 1598.54 1.20301 3.98121 0
M  V30 17520 H 1597.12 -0.603489 3.67984 0
M  V30 17521 N 1599.3 -1.51086 0.448402 0
M  V30 17522 C 1600.53 -2.07081 -0.115038 0
M  V30 17523 C 1600.95 -1.31253 -1.34737 0
M  V30 17524 O 1600.31 -0.353613 -1.77818 0
M  V30 17525 C 1600.36 -3.58321 -0.404803 0
M  V30 17526 O 1599.46 -3.84567 -1.48936 0
M  V30 17527 H 1598.81 -0.663993 0.00299118 0
M  V30 17528 H 1601.34 -1.94564 0.632921 0
M  V30 17529 H 1601.35 -4.02756 -0.652013 0
M  V30 17530 H 1600.02 -4.12934 0.495838 0
M  V30 17531 H 1598.6 -3.51987 -1.23124 0
M  V30 17532 N 1600.78 -0.180154 -1.56567 0
M  V30 17533 C 1602.19 0.335054 -1.83669 0
M  V30 17534 C 1602.54 1.62443 -1.1003 0
M  V30 17535 O 1601.67 2.13448 -0.356205 0
M  V30 17536 C 1602.26 0.61468 -3.33177 0
M  V30 17537 C 1600.82 1.0743 -3.60743 0
M  V30 17538 C 1599.97 0.114877 -2.77062 0
M  V30 17539 H 1602.92 -0.404245 -1.53465 0
M  V30 17540 H 1602.94 1.46574 -3.51136 0
M  V30 17541 H 1602.45 -0.323923 -3.86746 0
M  V30 17542 H 1600.56 2.0277 -3.12594 0
M  V30 17543 H 1600.67 0.977349 -4.69025 0
M  V30 17544 H 1599.03 0.613933 -2.4719 0
M  V30 17545 H 1599.82 -0.817904 -3.33414 0
M  V30 17546 N 1602.26 1.57322 0.0935319 0
M  V30 17547 C 1603.19 1.97423 1.14452 0
M  V30 17548 C 1604.17 0.84769 1.38755 0
M  V30 17549 O 1605.36 1.10812 1.52489 0
M  V30 17550 C 1602.48 2.29234 2.49338 0
M  V30 17551 C 1601.53 3.51672 2.41306 0
M  V30 17552 S 1602.36 5.0333 1.82808 0
M  V30 17553 C 1603.52 5.3832 3.19315 0
M  V30 17554 H 1603.75 2.86259 0.80268 0
M  V30 17555 H 1601.28 1.51432 0.301269 0
M  V30 17556 H 1603.24 2.48237 3.26938 0
M  V30 17557 H 1601.9 1.40966 2.80691 0
M  V30 17558 H 1601.1 3.71377 3.40727 0
M  V30 17559 H 1600.7 3.32187 1.71837 0
M  V30 17560 H 1602.99 5.35061 4.15591 0
M  V30 17561 H 1603.93 6.39327 3.04413 0
M  V30 17562 H 1604.34 4.6578 3.18919 0
M  V30 17563 N 1603.74 -0.364395 1.53329 0
M  V30 17564 C 1604.7 -1.42927 1.79178 0
M  V30 17565 C 1605.7 -1.4653 0.662235 0
M  V30 17566 O 1606.89 -1.4727 0.930442 0
M  V30 17567 C 1604.02 -2.82035 1.91492 0
M  V30 17568 H 1605.22 -1.21281 2.74283 0
M  V30 17569 H 1602.77 -0.597596 1.44425 0
M  V30 17570 H 1603.5 -3.08993 0.984579 0
M  V30 17571 H 1603.29 -2.80818 2.73649 0
M  V30 17572 H 1604.78 -3.59148 2.13078 0
M  V30 17573 N 1605.22 -1.44709 -0.62426 0
M  V30 17574 C 1606.15 -1.54934 -1.74693 0
M  V30 17575 C 1607.13 -0.401897 -1.65284 0
M  V30 17576 O 1608.31 -0.622906 -1.83939 0
M  V30 17577 C 1605.44 -1.49976 -3.13248 0
M  V30 17578 C 1604.4 -2.63267 -3.37453 0
M  V30 17579 C 1603.72 -2.43362 -4.76108 0
M  V30 17580 C 1605.02 -4.0538 -3.2934 0
M  V30 17581 H 1606.72 -2.48905 -1.66393 0
M  V30 17582 H 1604.26 -1.19794 -0.799088 0
M  V30 17583 H 1606.22 -1.55729 -3.91569 0
M  V30 17584 H 1604.94 -0.525254 -3.22349 0
M  V30 17585 H 1603.6 -2.56915 -2.61515 0
M  V30 17586 H 1603.25 -1.44088 -4.81921 0
M  V30 17587 H 1602.95 -3.19324 -4.93261 0
M  V30 17588 H 1604.47 -2.50943 -5.56651 0
M  V30 17589 H 1605.88 -4.13064 -3.97556 0
M  V30 17590 H 1604.28 -4.81599 -3.58025 0
M  V30 17591 H 1605.35 -4.28465 -2.27038 0
M  V30 17592 N 1606.69 0.865285 -1.31722 0
M  V30 17593 C 1607.94 1.61868 -1.21675 0
M  V30 17594 C 1608.27 1.93206 0.223988 0
M  V30 17595 O 1607.52 1.5657 1.17407 0
M  V30 17596 C 1607.82 2.95462 -2.0109 0
M  V30 17597 C 1607.49 2.83598 -3.50547 0
M  V30 17598 C 1606.15 2.80069 -3.91299 0
M  V30 17599 C 1608.5 2.70295 -4.45635 0
M  V30 17600 C 1605.83 2.61102 -5.25398 0
M  V30 17601 C 1608.18 2.52864 -5.79864 0
M  V30 17602 C 1606.85 2.47722 -6.19831 0
M  V30 17603 H 1606.12 0.592319 -0.445241 0
M  V30 17604 H 1608.76 1.00456 -1.63036 0
M  V30 17605 H 1607.07 3.60935 -1.52424 0
M  V30 17606 H 1608.77 3.52756 -1.90693 0
M  V30 17607 H 1605.36 2.87164 -3.18175 0
M  V30 17608 H 1609.54 2.72073 -4.15078 0
M  V30 17609 H 1604.8 2.55549 -5.55432 0
M  V30 17610 H 1608.97 2.41548 -6.53167 0
M  V30 17611 H 1606.6 2.32784 -7.23682 0
M  V30 17612 N 1608.17 1.14759 1.0802 0
M  V30 17613 C 1609.1 0.860977 2.17047 0
M  V30 17614 C 1610.08 -0.185652 1.69084 0
M  V30 17615 O 1611.27 -0.0414797 1.94156 0
M  V30 17616 C 1608.4 0.342018 3.45612 0
M  V30 17617 C 1607.35 1.32455 4.06989 0
M  V30 17618 C 1606.68 0.664721 5.30552 0
M  V30 17619 C 1607.98 2.68819 4.4781 0
M  V30 17620 H 1609.67 1.77269 2.4128 0
M  V30 17621 H 1607.22 0.853757 1.15961 0
M  V30 17622 H 1609.17 0.129093 4.21202 0
M  V30 17623 H 1607.9 -0.605138 3.20945 0
M  V30 17624 H 1606.55 1.52371 3.33435 0
M  V30 17625 H 1606.2 -0.288367 5.02173 0
M  V30 17626 H 1605.9 1.32036 5.72573 0
M  V30 17627 H 1607.43 0.461412 6.08854 0
M  V30 17628 H 1608.84 2.52787 5.14559 0
M  V30 17629 H 1607.24 3.30694 5.00761 0
M  V30 17630 H 1608.31 3.25398 3.59506 0
M  V30 17631 N 1609.65 -1.26251 0.943322 0
M  V30 17632 C 1610.6 -2.26304 0.453315 0
M  V30 17633 C 1611.57 -1.58764 -0.488168 0
M  V30 17634 O 1612.75 -1.86476 -0.403906 0
M  V30 17635 C 1609.89 -3.44015 -0.273393 0
M  V30 17636 C 1609.01 -4.26225 0.70401 0
M  V30 17637 C 1608.14 -5.31182 -0.0441134 0
M  V30 17638 C 1607.18 -6.05071 0.924971 0
M  V30 17639 N 1606.32 -7.0179 0.208461 0
M  V30 17640 H 1611.16 -2.67591 1.31146 0
M  V30 17641 H 1608.69 -1.31567 0.657914 0
M  V30 17642 H 1610.65 -4.11094 -0.711192 0
M  V30 17643 H 1609.28 -3.03636 -1.09566 0
M  V30 17644 H 1608.33 -3.58915 1.26032 0
M  V30 17645 H 1609.65 -4.77442 1.44398 0
M  V30 17646 H 1608.8 -6.04282 -0.541091 0
M  V30 17647 H 1607.54 -4.80809 -0.816952 0
M  V30 17648 H 1606.54 -5.30795 1.43305 0
M  V30 17649 H 1607.77 -6.57533 1.69785 0
M  V30 17650 H 1605.71 -6.53725 -0.545846 0
M  V30 17651 H 1605.63 -7.5077 0.887725 0
M  V30 17652 H 1606.9 -7.79041 -0.267352 0
M  V30 17653 N 1611.13 -0.710588 -1.40671 0
M  V30 17654 C 1612.06 -0.00399749 -2.282 0
M  V30 17655 C 1613.04 0.772757 -1.43064 0
M  V30 17656 O 1614.22 0.760441 -1.72481 0
M  V30 17657 C 1611.35 1.00173 -3.23548 0
M  V30 17658 C 1610.4 0.316378 -4.25325 0
M  V30 17659 S 1611.23 -0.952126 -5.26968 0
M  V30 17660 C 1612.39 0.0516252 -6.25879 0
M  V30 17661 H 1612.62 -0.746334 -2.8778 0
M  V30 17662 H 1610.15 -0.50142 -1.46031 0
M  V30 17663 H 1612.11 1.57679 -3.79009 0
M  V30 17664 H 1610.77 1.71674 -2.63034 0
M  V30 17665 H 1609.96 1.07649 -4.92369 0
M  V30 17666 H 1609.57 -0.185995 -3.73537 0
M  V30 17667 H 1611.86 0.900088 -6.71494 0
M  V30 17668 H 1612.8 -0.585297 -7.05677 0
M  V30 17669 H 1613.21 0.413117 -5.62986 0
M  V30 17670 N 1612.61 1.50847 -0.456408 0
M  V30 17671 C 1613.86 2.01425 0.105223 0
M  V30 17672 C 1614.17 1.34413 1.421 0
M  V30 17673 O 1615.38 1.76066 2.06671 0
M  V30 17674 C 1613.83 3.59112 0.238051 0
M  V30 17675 C 1613.44 4.35073 -1.06842 0
M  V30 17676 C 1615.18 4.17778 0.752428 0
M  V30 17677 C 1613.09 5.84509 -0.900194 0
M  V30 17678 H 1612.02 0.752767 0.0430992 0
M  V30 17679 H 1614.67 1.73788 -0.589075 0
M  V30 17680 H 1613.05 3.83275 0.995795 0
M  V30 17681 H 1614.23 4.22645 -1.83598 0
M  V30 17682 H 1612.54 3.87948 -1.51278 0
M  V30 17683 H 1615.14 5.27155 0.895088 0
M  V30 17684 H 1615.48 3.78195 1.73994 0
M  V30 17685 H 1616.02 3.97765 0.052476 0
M  V30 17686 H 1612.75 6.28538 -1.86064 0
M  V30 17687 H 1612.27 5.99551 -0.172767 0
M  V30 17688 H 1613.95 6.44564 -0.560943 0
M  V30 17689 N 1614.09 0.188454 1.56469 0
M  V30 17690 C 1615.33 -0.451165 1.97 0
M  V30 17691 C 1615.65 -1.6261 1.07624 0
M  V30 17692 O 1614.92 -1.95354 0.146125 0
M  V30 17693 H 1613.5 -0.16967 0.727476 0
M  V30 17694 H 1616.17 0.273638 1.9297 0
M  V30 17695 H 1615.26 -0.799741 3.0168 0
M  V30 17696 N 1615.56 -1.5737 -0.0851874 0
M  V30 17697 C 1616.97 -1.7544 -0.638575 0
M  V30 17698 C 1617.33 -0.812041 -1.78607 0
M  V30 17699 O 1616.45 0.00710428 -2.16399 0
M  V30 17700 C 1617.05 -3.18134 -1.16517 0
M  V30 17701 C 1615.6 -3.37594 -1.66454 0
M  V30 17702 C 1614.75 -2.71203 -0.578274 0
M  V30 17703 H 1617.7 -1.58073 0.140931 0
M  V30 17704 H 1617.72 -3.21553 -2.0343 0
M  V30 17705 H 1617.24 -3.86696 -0.329794 0
M  V30 17706 H 1615.34 -2.74126 -2.5236 0
M  V30 17707 H 1615.45 -4.45968 -1.75071 0
M  V30 17708 H 1613.81 -2.33379 -1.02011 0
M  V30 17709 H 1614.6 -3.42413 0.246691 0
M  V30 17710 N 1617.04 0.356258 -1.53521 0
M  V30 17711 C 1618.27 1.11828 -1.74075 0
M  V30 17712 C 1618.68 1.82753 -0.473998 0
M  V30 17713 O 1618.04 1.73899 0.553649 0
M  V30 17714 C 1618.09 2.14149 -2.91243 0
M  V30 17715 O 1617.81 1.4611 -4.13017 0
M  V30 17716 C 1619.31 3.02826 -3.23746 0
M  V30 17717 H 1616.53 0.334002 -0.581965 0
M  V30 17718 H 1619.08 0.412336 -2.003 0
M  V30 17719 H 1617.23 2.80328 -2.67386 0
M  V30 17720 H 1617.65 2.1436 -4.78696 0
M  V30 17721 H 1619.12 3.70583 -4.09112 0
M  V30 17722 H 1619.6 3.68149 -2.39505 0
M  V30 17723 H 1620.2 2.42252 -3.49563 0
M  V30 17724 N 1618.52 1.45038 0.616577 0
M  V30 17725 C 1619.47 1.49451 1.72187 0
M  V30 17726 C 1620.45 0.358711 1.5685 0
M  V30 17727 O 1621.65 0.604983 1.6634 0
M  V30 17728 C 1618.77 1.45551 3.10918 0
M  V30 17729 C 1617.86 2.643 3.31672 0
M  V30 17730 N 1618.25 3.89462 3.22727 0
M  V30 17731 C 1616.55 2.59805 3.62515 0
M  V30 17732 C 1617.25 4.68667 3.44567 0
M  V30 17733 N 1616.23 3.99974 3.68132 0
M  V30 17734 H 1620.03 2.44055 1.6375 0
M  V30 17735 H 1617.54 1.40205 0.819538 0
M  V30 17736 H 1619.54 1.46797 3.902 0
M  V30 17737 H 1618.2 0.519966 3.2051 0
M  V30 17738 H 1619.21 4.21217 3.01325 0
M  V30 17739 H 1615.89 1.75117 3.78999 0
M  V30 17740 H 1617.28 5.77683 3.43121 0
M  V30 17741 N 1620 -0.858287 1.32179 0
M  V30 17742 C 1621.25 -1.60902 1.2229 0
M  V30 17743 C 1621.57 -1.93797 -0.216227 0
M  V30 17744 O 1620.84 -1.59312 -1.14002 0
M  V30 17745 H 1619.42 -0.596529 0.449624 0
M  V30 17746 H 1622.08 -1.02686 1.65655 0
M  V30 17747 H 1621.17 -2.54755 1.80295 0
M  V30 17748 N 1621.48 -1.1533 -1.07409 0
M  V30 17749 C 1622.41 -0.807289 -2.14512 0
M  V30 17750 C 1623.42 0.18043 -1.61797 0
M  V30 17751 O 1624.61 -0.042733 -1.78449 0
M  V30 17752 C 1621.71 -0.179338 -3.38425 0
M  V30 17753 C 1620.88 -1.20433 -4.20493 0
M  V30 17754 C 1619.94 -0.598268 -5.22788 0
M  V30 17755 O 1618.97 -1.26405 -5.54987 0
M  V30 17756 N 1620.17 0.620283 -5.77177 0
M  V30 17757 H 1622.93 -1.729 -2.44797 0
M  V30 17758 H 1620.5 -1.0491 -1.23311 0
M  V30 17759 H 1622.49 0.238867 -4.03994 0
M  V30 17760 H 1621.06 0.645706 -3.05858 0
M  V30 17761 H 1620.28 -1.79912 -3.5075 0
M  V30 17762 H 1621.57 -1.89642 -4.72137 0
M  V30 17763 H 1620.96 1.17958 -5.53265 0
M  V30 17764 H 1619.52 0.980853 -6.44378 0
M  V30 17765 N 1622.95 1.25748 -0.950004 0
M  V30 17766 C 1623.89 2.24472 -0.410787 0
M  V30 17767 C 1624.86 1.54549 0.505309 0
M  V30 17768 O 1626.05 1.83275 0.440744 0
M  V30 17769 C 1623.18 3.36224 0.408832 0
M  V30 17770 C 1622.22 4.24151 -0.446997 0
M  V30 17771 S 1623.05 5.01549 -1.87639 0
M  V30 17772 C 1624.21 6.16771 -1.06507 0
M  V30 17773 H 1624.44 2.69863 -1.24745 0
M  V30 17774 H 1621.98 1.34752 -0.753744 0
M  V30 17775 H 1623.93 4.01049 0.875796 0
M  V30 17776 H 1622.6 2.89427 1.22027 0
M  V30 17777 H 1621.79 5.03673 0.181407 0
M  V30 17778 H 1621.39 3.64236 -0.848989 0
M  V30 17779 H 1623.68 6.76783 -0.311531 0
M  V30 17780 H 1624.63 6.83936 -1.83406 0
M  V30 17781 H 1625.03 5.61332 -0.597243 0
M  V30 17782 N 1624.43 0.718038 1.40292 0
M  V30 17783 C 1625.66 0.268326 2.05153 0
M  V30 17784 C 1626.07 -1.09075 1.54104 0
M  V30 17785 O 1625.43 -1.68597 0.698654 0
M  V30 17786 C 1625.48 0.242222 3.60688 0
M  V30 17787 O 1625.2 1.54764 4.09853 0
M  V30 17788 C 1626.7 -0.225741 4.42725 0
M  V30 17789 H 1623.92 0.120165 0.660153 0
M  V30 17790 H 1626.47 0.976933 1.79656 0
M  V30 17791 H 1624.62 -0.417367 3.85145 0
M  V30 17792 H 1625.04 1.44976 5.04066 0
M  V30 17793 H 1626.51 -0.192857 5.51663 0
M  V30 17794 H 1626.99 -1.26829 4.20489 0
M  V30 17795 H 1627.59 0.40366 4.2338 0
M  V30 17796 N 1625.91 -1.50602 0.464402 0
M  V30 17797 C 1627.16 -2.02587 -0.0930295 0
M  V30 17798 C 1627.49 -1.34618 -1.3997 0
M  V30 17799 O 1626.76 -0.469711 -1.88743 0
M  V30 17800 C 1627.05 -3.5898 -0.283783 0
M  V30 17801 C 1626.9 -4.3753 1.04344 0
M  V30 17802 C 1628.22 -4.27602 -1.04138 0
M  V30 17803 H 1625.34 -0.73629 -0.0323356 0
M  V30 17804 H 1627.98 -1.79986 0.608687 0
M  V30 17805 H 1626.13 -3.78368 -0.881488 0
M  V30 17806 H 1627.8 -4.29729 1.67721 0
M  V30 17807 H 1626.05 -4.01536 1.64168 0
M  V30 17808 H 1626.72 -5.45201 0.863691 0
M  V30 17809 H 1629.19 -4.12649 -0.534822 0
M  V30 17810 H 1628.07 -5.36854 -1.14364 0
M  V30 17811 H 1628.33 -3.9031 -2.0763 0
M  V30 17812 N 1627.39 -0.19675 -1.56367 0
M  V30 17813 C 1628.62 0.447139 -2.02011 0
M  V30 17814 C 1629.03 1.55077 -1.07687 0
M  V30 17815 O 1628.39 1.82316 -0.0820316 0
M  V30 17816 C 1628.44 1.00192 -3.47338 0
M  V30 17817 O 1628.16 -0.0576859 -4.38062 0
M  V30 17818 C 1629.66 1.72152 -4.08508 0
M  V30 17819 H 1626.88 0.112088 -0.661572 0
M  V30 17820 H 1629.43 -0.30594 -2.02199 0
M  V30 17821 H 1627.58 1.70537 -3.47844 0
M  V30 17822 H 1627.99 0.355508 -5.23294 0
M  V30 17823 H 1629.47 2.06199 -5.12041 0
M  V30 17824 H 1629.95 2.62581 -3.52062 0
M  V30 17825 H 1630.55 1.06388 -4.11779 0
M  V30 17826 N 1628.87 1.57413 0.0768405 0
M  V30 17827 C 1630.28 1.53656 0.431508 0
M  V30 17828 C 1630.48 0.916194 1.79466 0
M  V30 17829 O 1629.54 0.516529 2.4716 0
M  V30 17830 C 1630.85 2.98325 0.377212 0
M  V30 17831 C 1632.4 3.09635 0.457761 0
M  V30 17832 C 1632.87 4.55945 0.433425 0
M  V30 17833 N 1634.37 4.60562 0.493647 0
M  V30 17834 C 1635.1 5.71242 0.496949 0
M  V30 17835 N 1634.6 6.91302 0.455368 0
M  V30 17836 N 1636.39 5.5947 0.543129 0
M  V30 17837 H 1628.54 1.96108 -0.815811 0
M  V30 17838 H 1630.8 0.897392 -0.3056 0
M  V30 17839 H 1630.51 3.47251 -0.557628 0
M  V30 17840 H 1630.38 3.57959 1.18932 0
M  V30 17841 H 1632.77 2.60685 1.38302 0
M  V30 17842 H 1632.85 2.52919 -0.382829 0
M  V30 17843 H 1632.5 5.0555 -0.487968 0
M  V30 17844 H 1632.43 5.10518 1.29148 0
M  V30 17845 H 1634.92 3.74162 0.530237 0
M  V30 17846 H 1635.23 7.7142 0.461674 0
M  V30 17847 H 1633.57 6.93717 0.422133 0
M  V30 17848 H 1636.77 4.64576 0.573272 0
M  V30 17849 H 1636.94 6.45727 0.542234 0
M  V30 17850 N 1630.34 -0.348112 1.53707 0
M  V30 17851 C 1631.27 -1.43296 1.8436 0
M  V30 17852 C 1632.26 -1.55102 0.698376 0
M  V30 17853 O 1633.44 -1.69385 0.949864 0
M  V30 17854 C 1630.57 -2.80407 2.04912 0
M  V30 17855 C 1629.52 -2.83412 3.20721 0
M  V30 17856 C 1628.85 -4.23365 3.26597 0
M  V30 17857 C 1630.15 -2.49358 4.58931 0
M  V30 17858 H 1631.84 -1.17892 2.75212 0
M  V30 17859 H 1629.39 -0.565692 1.32423 0
M  V30 17860 H 1631.34 -3.56343 2.24939 0
M  V30 17861 H 1630.07 -3.07236 1.10786 0
M  V30 17862 H 1628.73 -2.09929 3.00542 0
M  V30 17863 H 1628.37 -4.47297 2.30076 0
M  V30 17864 H 1628.07 -4.26287 4.04417 0
M  V30 17865 H 1629.6 -5.01149 3.4883 0
M  V30 17866 H 1631.01 -3.15006 4.79003 0
M  V30 17867 H 1629.41 -2.6357 5.3912 0
M  V30 17868 H 1630.48 -1.44557 4.62851 0
M  V30 17869 N 1631.82 -1.45363 -0.608876 0
M  V30 17870 C 1633.07 -1.49534 -1.36995 0
M  V30 17871 C 1633.4 -0.136087 -1.93723 0
M  V30 17872 O 1632.68 0.849276 -1.74979 0
M  V30 17873 C 1632.96 -2.57348 -2.51881 0
M  V30 17874 C 1632.81 -4.02712 -2.00358 0
M  V30 17875 C 1634.13 -2.61459 -3.54016 0
M  V30 17876 H 1631.25 -0.544419 -0.496767 0
M  V30 17877 H 1633.89 -1.77165 -0.686473 0
M  V30 17878 H 1632.04 -2.33917 -3.10185 0
M  V30 17879 H 1633.71 -4.37348 -1.46713 0
M  V30 17880 H 1631.96 -4.1343 -1.31369 0
M  V30 17881 H 1632.63 -4.73834 -2.8317 0
M  V30 17882 H 1635.1 -2.8245 -3.0555 0
M  V30 17883 H 1633.98 -3.38761 -4.31894 0
M  V30 17884 H 1634.24 -1.66499 -4.09549 0
M  V30 17885 N 1633.3 0.851265 -1.32632 0
M  V30 17886 C 1634.25 1.98152 -1.21813 0
M  V30 17887 C 1635.24 1.68959 -0.122182 0
M  V30 17888 O 1636.45 1.77724 -0.285332 0
M  V30 17889 H 1632.82 0.650275 -0.377686 0
M  V30 17890 H 1634.79 2.04405 -2.17397 0
M  V30 17891 C 1633.54 3.34141 -0.961521 0
M  V30 17892 H 1632.87 3.57136 -1.79704 0
M  V30 17893 H 1634.31 4.13763 -0.926077 0
M  V30 17894 C 1632.77 3.35223 0.335704 0
M  V30 17895 O 1633.3 3.78461 1.34647 0
M  V30 17896 N 1631.5 2.88376 0.358875 0
M  V30 17897 H 1631.05 2.53383 -0.464194 0
M  V30 17898 H 1631.01 2.89482 1.22668 0
M  V30 17899 N 1634.78 1.15898 1.06796 0
M  V30 17900 C 1636.01 0.961372 1.83208 0
M  V30 17901 C 1636.42 -0.490392 1.8232 0
M  V30 17902 O 1635.78 -1.34025 1.2387 0
M  V30 17903 C 1635.83 1.47486 3.30045 0
M  V30 17904 O 1635.55 2.86976 3.31023 0
M  V30 17905 C 1637.05 1.31955 4.23205 0
M  V30 17906 H 1634.27 0.34109 0.57784 0
M  V30 17907 H 1636.82 1.53805 1.34775 0
M  V30 17908 H 1634.97 0.940586 3.75808 0
M  V30 17909 H 1635.38 3.1038 4.22805 0
M  V30 17910 H 1636.86 1.72721 5.24282 0
M  V30 17911 H 1637.34 0.264439 4.38403 0
M  V30 17912 H 1637.94 1.84319 3.83284 0
M  V30 17913 N 1636.26 -1.25243 0.956659 0
M  V30 17914 C 1637.19 -2.28159 0.496574 0
M  V30 17915 C 1638.17 -1.63814 -0.458132 0
M  V30 17916 O 1639.35 -1.90897 -0.356648 0
M  V30 17917 C 1636.48 -3.46573 -0.22454 0
M  V30 17918 C 1635.44 -4.2311 0.645104 0
M  V30 17919 C 1634.76 -5.343 -0.206867 0
M  V30 17920 C 1636.06 -4.85562 1.92422 0
M  V30 17921 H 1637.76 -2.66895 1.35675 0
M  V30 17922 H 1635.3 -1.28301 0.653827 0
M  V30 17923 H 1637.26 -4.17695 -0.55755 0
M  V30 17924 H 1635.98 -3.06833 -1.11898 0
M  V30 17925 H 1634.64 -3.53774 0.961228 0
M  V30 17926 H 1634.29 -4.908 -1.10112 0
M  V30 17927 H 1633.99 -5.86423 0.371714 0
M  V30 17928 H 1635.51 -6.08253 -0.534798 0
M  V30 17929 H 1636.92 -5.48817 1.65749 0
M  V30 17930 H 1635.32 -5.47871 2.44862 0
M  V30 17931 H 1636.39 -4.07634 2.62607 0
M  V30 17932 N 1637.73 -0.725468 -1.3991 0
M  V30 17933 C 1638.68 -0.0792833 -2.30664 0
M  V30 17934 C 1639.65 0.73984 -1.48713 0
M  V30 17935 O 1640.84 0.701762 -1.77426 0
M  V30 17936 C 1637.98 0.829164 -3.34991 0
M  V30 17937 C 1637.09 -0.00154779 -4.32 0
M  V30 17938 C 1636.22 0.907291 -5.23394 0
M  V30 17939 C 1635.26 0.0712573 -6.12059 0
M  V30 17940 N 1634.4 0.935508 -6.9584 0
M  V30 17941 H 1639.24 -0.858869 -2.85355 0
M  V30 17942 H 1636.78 -0.435214 -1.40514 0
M  V30 17943 H 1638.74 1.37021 -3.94057 0
M  V30 17944 H 1637.37 1.57483 -2.81778 0
M  V30 17945 H 1636.42 -0.659903 -3.74632 0
M  V30 17946 H 1637.73 -0.648387 -4.94568 0
M  V30 17947 H 1636.88 1.51652 -5.87441 0
M  V30 17948 H 1635.62 1.58793 -4.61125 0
M  V30 17949 H 1634.63 -0.550844 -5.47034 0
M  V30 17950 H 1635.85 -0.606025 -6.76391 0
M  V30 17951 H 1633.8 1.60162 -6.36148 0
M  V30 17952 H 1633.72 0.344932 -7.55213 0
M  V30 17953 H 1634.98 1.53061 -7.64325 0
M  V30 17954 N 1639.21 1.50354 -0.472382 0
M  V30 17955 C 1640.12 2.32318 0.326405 0
M  V30 17956 C 1641.14 1.4276 0.994771 0
M  V30 17957 O 1642.31 1.75811 0.98246 0
M  V30 17958 C 1639.38 3.17468 1.39337 0
M  V30 17959 C 1638.44 4.22848 0.741465 0
M  V30 17960 C 1637.67 5.03929 1.75759 0
M  V30 17961 O 1637.9 4.86105 2.98425 0
M  V30 17962 O 1636.83 5.87051 1.32871 0
M  V30 17963 H 1640.66 3.01749 -0.343702 0
M  V30 17964 H 1638.24 1.47553 -0.234207 0
M  V30 17965 H 1640.12 3.703 2.01136 0
M  V30 17966 H 1638.8 2.50764 2.04692 0
M  V30 17967 H 1637.71 3.74005 0.0844848 0
M  V30 17968 H 1639.04 4.92026 0.130838 0
M  V30 17969 N 1640.69 0.205039 1.56261 0
M  V30 17970 C 1641.94 -0.430245 1.97467 0
M  V30 17971 C 1642.26 -1.6146 1.09342 0
M  V30 17972 O 1641.53 -1.95188 0.166836 0
M  V30 17973 H 1640.11 -0.161945 0.729234 0
M  V30 17974 H 1642.77 0.294089 1.92668 0
M  V30 17975 H 1641.87 -0.767699 3.02511 0
M  V30 17976 N 1642.17 -1.57451 -0.0684915 0
M  V30 17977 C 1643.12 -2.03916 -1.08105 0
M  V30 17978 C 1644.09 -0.920418 -1.38266 0
M  V30 17979 O 1645.27 -1.18831 -1.49277 0
M  V30 17980 C 1642.41 -2.49075 -2.38863 0
M  V30 17981 C 1641.52 -3.74581 -2.15204 0
M  V30 17982 C 1640.66 -4.08509 -3.39549 0
M  V30 17983 C 1639.7 -5.27046 -3.11269 0
M  V30 17984 N 1638.84 -5.56597 -4.27954 0
M  V30 17985 H 1643.68 -2.90188 -0.677843 0
M  V30 17986 H 1641.21 -1.43507 -0.32313 0
M  V30 17987 H 1643.17 -2.7331 -3.1521 0
M  V30 17988 H 1641.8 -1.65776 -2.76981 0
M  V30 17989 H 1640.85 -3.57666 -1.29535 0
M  V30 17990 H 1642.16 -4.61065 -1.90317 0
M  V30 17991 H 1641.32 -4.33663 -4.24289 0
M  V30 17992 H 1640.06 -3.20599 -3.67515 0
M  V30 17993 H 1639.06 -5.01686 -2.24926 0
M  V30 17994 H 1640.29 -6.16577 -2.84622 0
M  V30 17995 H 1638.23 -4.71646 -4.55945 0
M  V30 17996 H 1638.15 -6.37506 -4.06352 0
M  V30 17997 H 1639.42 -5.86303 -5.13681 0
M  V30 17998 N 1643.65 0.339955 -1.5389 0
M  V30 17999 C 1645.06 0.683287 -1.44234 0
M  V30 18000 C 1645.26 1.92298 -0.601976 0
M  V30 18001 O 1644.32 2.52324 -0.0943623 0
M  V30 18002 C 1645.63 0.872576 -2.87761 0
M  V30 18003 C 1647.18 0.970965 -2.97559 0
M  V30 18004 C 1647.66 1.19254 -4.42202 0
M  V30 18005 N 1649.15 1.25966 -4.45743 0
M  V30 18006 C 1649.88 1.44869 -5.54798 0
M  V30 18007 N 1649.38 1.6092 -6.73852 0
M  V30 18008 N 1651.17 1.47445 -5.42417 0
M  V30 18009 H 1643.32 -0.475086 -2.07019 0
M  V30 18010 H 1645.58 -0.150644 -0.935954 0
M  V30 18011 H 1645.29 0.033117 -3.51684 0
M  V30 18012 H 1645.16 1.77326 -3.32919 0
M  V30 18013 H 1647.55 1.80094 -2.33774 0
M  V30 18014 H 1647.63 0.0471065 -2.55757 0
M  V30 18015 H 1647.28 0.367482 -5.06569 0
M  V30 18016 H 1647.21 2.13002 -4.81599 0
M  V30 18017 H 1649.7 1.15072 -3.59954 0
M  V30 18018 H 1650.01 1.74989 -7.52727 0
M  V30 18019 H 1648.36 1.58049 -6.7679 0
M  V30 18020 H 1651.55 1.34489 -4.48364 0
M  V30 18021 H 1651.72 1.61834 -6.27466 0
M  V30 18022 N 1645.13 1.45684 0.601159 0
M  V30 18023 C 1646.06 1.57694 1.72206 0
M  V30 18024 C 1647.04 0.428141 1.64624 0
M  V30 18025 O 1648.22 0.65209 1.82925 0
M  V30 18026 C 1645.35 1.54941 3.10822 0
M  V30 18027 C 1644.31 2.68603 3.33222 0
M  V30 18028 C 1643.63 2.50906 4.72176 0
M  V30 18029 C 1644.93 4.10568 3.22849 0
M  V30 18030 H 1646.63 2.51521 1.62412 0
M  V30 18031 H 1644.17 1.2105 0.779929 0
M  V30 18032 H 1646.12 1.61939 3.89042 0
M  V30 18033 H 1644.85 0.576471 3.21472 0
M  V30 18034 H 1643.51 2.61043 2.57394 0
M  V30 18035 H 1643.16 1.51736 4.79568 0
M  V30 18036 H 1642.86 3.27131 4.88118 0
M  V30 18037 H 1644.38 2.59767 5.52588 0
M  V30 18038 H 1645.79 4.19336 3.90935 0
M  V30 18039 H 1644.19 4.87234 3.50318 0
M  V30 18040 H 1645.26 4.32022 2.20192 0
M  V30 18041 N 1646.6 -0.84422 1.33082 0
M  V30 18042 C 1648.01 -1.41526 1.21767 0
M  V30 18043 C 1648.37 -1.955 -0.165606 0
M  V30 18044 O 1647.49 -1.88384 -1.06492 0
M  V30 18045 C 1648.09 -2.57266 2.20454 0
M  V30 18046 C 1646.64 -3.10339 2.12995 0
M  V30 18047 C 1645.79 -1.83119 2.08237 0
M  V30 18048 H 1648.74 -0.650452 1.44758 0
M  V30 18049 H 1648.76 -3.34739 1.80914 0
M  V30 18050 H 1648.28 -2.17952 3.21121 0
M  V30 18051 H 1646.38 -3.5421 1.15612 0
M  V30 18052 H 1646.49 -3.70875 3.03296 0
M  V30 18053 H 1644.85 -2.03148 1.53632 0
M  V30 18054 H 1645.64 -1.46009 3.10703 0
M  V30 18055 N 1648.08 -1.16463 -1.0618 0
M  V30 18056 C 1649.32 -0.957536 -1.80584 0
M  V30 18057 C 1649.69 0.505554 -1.85225 0
M  V30 18058 O 1650.89 0.831384 -2.5562 0
M  V30 18059 C 1649.16 -1.56919 -3.21109 0
M  V30 18060 S 1650.72 -1.5069 -4.12114 0
M  V30 18061 H 1647.53 -0.344329 -0.62206 0
M  V30 18062 H 1650.14 -1.48228 -1.2747 0
M  V30 18063 H 1648.84 -2.62672 -3.15328 0
M  V30 18064 H 1648.37 -1.04382 -3.79299 0
M  V30 18065 H 1650.39 -0.507956 -4.93593 0
M  V30 18066 N 1649.56 1.24734 -0.963288 0
M  V30 18067 C 1650.97 1.7456 -0.662246 0
M  V30 18068 C 1651.32 1.78143 0.822169 0
M  V30 18069 O 1650.45 1.40794 1.64335 0
M  V30 18070 C 1651.04 3.1701 -1.19542 0
M  V30 18071 C 1649.6 3.64361 -0.944371 0
M  V30 18072 C 1648.75 2.4314 -1.33335 0
M  V30 18073 H 1651.7 1.10498 -1.13911 0
M  V30 18074 H 1651.72 3.76362 -0.559601 0
M  V30 18075 H 1651.23 3.1437 -2.27581 0
M  V30 18076 H 1649.33 3.72405 0.120682 0
M  V30 18077 H 1649.45 4.52055 -1.58692 0
M  V30 18078 H 1647.81 2.43354 -0.751729 0
M  V30 18079 H 1648.59 2.43185 -2.42314 0
M  V30 18080 N 1651.04 0.732878 1.39523 0
M  V30 18081 C 1652.45 0.350145 1.83387 0
M  V30 18082 C 1652.8 -1.11807 1.61225 0
M  V30 18083 O 1651.92 -1.86222 1.10229 0
M  V30 18084 C 1652.52 0.628743 3.32915 0
M  V30 18085 C 1651.08 0.299529 3.75206 0
M  V30 18086 C 1650.23 0.892434 2.62547 0
M  V30 18087 H 1653.18 0.930687 1.28545 0
M  V30 18088 H 1653.2 -0.100206 3.80368 0
M  V30 18089 H 1652.71 1.6974 3.49013 0
M  V30 18090 H 1650.81 -0.763373 3.64696 0
M  V30 18091 H 1650.92 0.780607 4.72698 0
M  V30 18092 H 1649.29 0.319218 2.52692 0
M  V30 18093 H 1650.07 1.9657 2.81452 0
M  V30 18094 N 1652.52 -1.50101 0.480349 0
M  V30 18095 C 1653.46 -2.30347 -0.322924 0
M  V30 18096 C 1654.46 -1.3804 -0.981904 0
M  V30 18097 O 1655.66 -1.55188 -0.91195 0
M  V30 18098 H 1652.04 -0.741875 -0.122985 0
M  V30 18099 H 1654.01 -2.96045 0.374155 0
M  V30 18100 C 1652.76 -3.18844 -1.38686 0
M  V30 18101 H 1652.08 -3.89787 -0.889181 0
M  V30 18102 H 1653.52 -3.77971 -1.9213 0
M  V30 18103 C 1651.98 -2.37058 -2.39385 0
M  V30 18104 O 1652.51 -2.06016 -3.44848 0
M  V30 18105 N 1650.72 -1.99465 -2.11334 0
M  V30 18106 H 1650.26 -2.24909 -1.25593 0
M  V30 18107 H 1650.22 -1.45048 -2.78942 0
M  V30 18108 N 1653.99 -0.213323 -1.5615 0
M  V30 18109 C 1655.23 0.422545 -1.99985 0
M  V30 18110 C 1655.6 1.57529 -1.09765 0
M  V30 18111 O 1656.8 2.27661 -1.42913 0
M  V30 18112 C 1655.07 0.853804 -3.47052 0
M  V30 18113 S 1656.63 1.48494 -4.1291 0
M  V30 18114 H 1653.45 0.134436 -0.698175 0
M  V30 18115 H 1656.05 -0.320678 -1.92852 0
M  V30 18116 H 1654.75 0.00503066 -4.104 0
M  V30 18117 H 1654.28 1.63004 -3.58041 0
M  V30 18118 H 1656.3 2.77395 -4.1142 0
M  V30 18119 N 1655.47 1.57485 0.0601405 0
M  V30 18120 C 1656.88 1.76433 0.610583 0
M  V30 18121 C 1657.23 0.840353 1.77292 0
M  V30 18122 O 1656.36 0.0273238 2.16383 0
M  V30 18123 C 1656.95 3.19947 1.11441 0
M  V30 18124 C 1655.51 3.402 1.61062 0
M  V30 18125 C 1654.66 2.72089 0.535055 0
M  V30 18126 H 1657.61 1.57829 -0.166062 0
M  V30 18127 H 1657.63 3.24749 1.98288 0
M  V30 18128 H 1657.14 3.87172 0.268233 0
M  V30 18129 H 1655.25 2.78106 2.47967 0
M  V30 18130 H 1655.36 4.48696 1.67954 0
M  V30 18131 H 1653.72 2.34972 0.982855 0
M  V30 18132 H 1654.51 3.41977 -0.301135 0
M  V30 18133 N 1656.95 -0.331789 1.54068 0
M  V30 18134 C 1658.23 -1.08843 1.6252 0
M  V30 18135 C 1658.61 -2.06164 0.453847 0
M  V30 18136 O 1657.96 -2.21714 -0.552727 0
M  V30 18137 C 1658.17 -1.79767 2.9914 0
M  V30 18138 C 1659.51 -2.33086 3.54903 0
M  V30 18139 O 1660.54 -1.89846 3.01392 0
M  V30 18140 O 1659.4 -3.12226 4.48528 0
M  V30 18141 H 1656.49 -0.501222 0.657804 0
M  V30 18142 H 1659.04 -0.332339 1.66414 0
M  V30 18143 H 1657.81 -1.08932 3.75832 0
M  V30 18144 H 1657.43 -2.62205 2.98888 0
M  V30 18145 N 1658.43 -1.46001 -0.593424 0
M  V30 18146 C 1659.34 -1.58316 -1.73128 0
M  V30 18147 C 1660.35 -0.467029 -1.67615 0
M  V30 18148 O 1661.53 -0.729682 -1.87717 0
M  V30 18149 C 1658.6 -1.56007 -3.09617 0
M  V30 18150 C 1657.66 -2.78769 -3.26475 0
M  V30 18151 C 1656.89 -2.76561 -4.56453 0
M  V30 18152 O 1657.11 -1.84694 -5.39671 0
M  V30 18153 O 1656.05 -3.67959 -4.76329 0
M  V30 18154 H 1659.87 -2.54522 -1.65686 0
M  V30 18155 H 1657.46 -1.28672 -0.759204 0
M  V30 18156 H 1659.34 -1.57377 -3.9091 0
M  V30 18157 H 1658.01 -0.629571 -3.17519 0
M  V30 18158 H 1656.92 -2.82956 -2.44717 0
M  V30 18159 H 1658.25 -3.70992 -3.23459 0
M  V30 18160 N 1659.91 0.83715 -1.33527 0
M  V30 18161 C 1661.15 1.59487 -1.25267 0
M  V30 18162 C 1661.49 1.93357 0.180741 0
M  V30 18163 O 1660.76 1.5884 1.12251 0
M  V30 18164 C 1661.04 2.90376 -2.12964 0
M  V30 18165 C 1660.9 2.63177 -3.64771 0
M  V30 18166 C 1662.22 3.9182 -2.00412 0
M  V30 18167 H 1659.33 0.578684 -0.456392 0
M  V30 18168 H 1661.98 0.965428 -1.63644 0
M  V30 18169 H 1660.13 3.44095 -1.80364 0
M  V30 18170 H 1661.8 2.15878 -4.0767 0
M  V30 18171 H 1660.04 1.96849 -3.86566 0
M  V30 18172 H 1660.71 3.56452 -4.21481 0
M  V30 18173 H 1663.19 3.47413 -2.29005 0
M  V30 18174 H 1662.06 4.81232 -2.64021 0
M  V30 18175 H 1662.33 4.31173 -0.976852 0
M  V30 18176 N 1661.38 1.17024 1.05561 0
M  V30 18177 C 1662.61 0.979328 1.81914 0
M  V30 18178 C 1663.02 -0.475688 1.83122 0
M  V30 18179 O 1662.37 -1.34205 1.25438 0
M  V30 18180 C 1662.43 1.4391 3.29439 0
M  V30 18181 C 1662.09 2.9155 3.5192 0
M  V30 18182 C 1663.09 3.89509 3.44353 0
M  V30 18183 C 1660.77 3.2964 3.79003 0
M  V30 18184 C 1662.77 5.23557 3.63548 0
M  V30 18185 C 1660.45 4.63855 3.97846 0
M  V30 18186 C 1661.45 5.60623 3.90117 0
M  V30 18187 O 1661.14 6.92411 4.08439 0
M  V30 18188 H 1660.87 0.34689 0.58021 0
M  V30 18189 H 1663.43 1.55641 1.34034 0
M  V30 18190 H 1661.66 0.805555 3.78216 0
M  V30 18191 H 1663.35 1.21445 3.87306 0
M  V30 18192 H 1664.11 3.61428 3.23412 0
M  V30 18193 H 1659.99 2.54891 3.84124 0
M  V30 18194 H 1663.53 5.99074 3.5743 0
M  V30 18195 H 1659.43 4.91644 4.18278 0
M  V30 18196 H 1660.2 6.99095 4.25685 0
M  V30 18197 N 1662.86 -1.24221 0.969889 0
M  V30 18198 C 1663.79 -2.24544 0.459636 0
M  V30 18199 C 1664.81 -1.56941 -0.432813 0
M  V30 18200 O 1666 -1.76898 -0.238637 0
M  V30 18201 C 1663.1 -3.3703 -0.3555 0
M  V30 18202 C 1662.27 -4.34207 0.527566 0
M  V30 18203 C 1661.33 -5.25689 -0.231934 0
M  V30 18204 O 1660.35 -5.67964 0.37488 0
M  V30 18205 N 1661.56 -5.60222 -1.5209 0
M  V30 18206 H 1664.32 -2.68957 1.3222 0
M  V30 18207 H 1661.88 -1.38285 0.84196 0
M  V30 18208 H 1663.87 -3.95201 -0.871685 0
M  V30 18209 H 1662.44 -2.91885 -1.11901 0
M  V30 18210 H 1661.66 -3.74693 1.2247 0
M  V30 18211 H 1662.95 -4.96099 1.12975 0
M  V30 18212 H 1662.35 -5.27807 -2.03559 0
M  V30 18213 H 1660.91 -6.20911 -1.98273 0
M  V30 18214 N 1664.34 -0.740267 -1.39132 0
M  V30 18215 C 1665.27 -0.118951 -2.33197 0
M  V30 18216 C 1666.25 0.718416 -1.54184 0
M  V30 18217 O 1667.44 0.662322 -1.82557 0
M  V30 18218 C 1664.57 0.78512 -3.38309 0
M  V30 18219 C 1663.52 0.0515093 -4.27969 0
M  V30 18220 C 1662.85 1.07295 -5.23824 0
M  V30 18221 C 1664.15 -1.10903 -5.1039 0
M  V30 18222 H 1665.84 -0.904687 -2.85405 0
M  V30 18223 H 1663.39 -0.436493 -1.37225 0
M  V30 18224 H 1665.34 1.22935 -4.03069 0
M  V30 18225 H 1664.06 1.60303 -2.84553 0
M  V30 18226 H 1662.72 -0.373156 -3.64696 0
M  V30 18227 H 1662.37 1.88456 -4.66362 0
M  V30 18228 H 1662.07 0.586827 -5.84662 0
M  V30 18229 H 1663.59 1.51677 -5.91461 0
M  V30 18230 H 1665.01 -0.742993 -5.68465 0
M  V30 18231 H 1663.41 -1.52513 -5.80396 0
M  V30 18232 H 1664.48 -1.92825 -4.44912 0
M  V30 18233 N 1665.82 1.49844 -0.488302 0
M  V30 18234 C 1666.75 2.25604 0.343226 0
M  V30 18235 C 1667.73 1.29642 0.981415 0
M  V30 18236 O 1668.91 1.58904 1.014 0
M  V30 18237 C 1666.04 3.04541 1.48231 0
M  V30 18238 C 1665.09 4.15561 0.959774 0
M  V30 18239 S 1665.92 5.35319 -0.139328 0
M  V30 18240 C 1667.08 6.17808 1.00322 0
M  V30 18241 H 1667.31 2.95784 -0.299825 0
M  V30 18242 H 1664.84 1.5196 -0.273415 0
M  V30 18243 H 1666.8 3.50608 2.13505 0
M  V30 18244 H 1665.46 2.33854 2.09693 0
M  V30 18245 H 1664.65 4.7026 1.81304 0
M  V30 18246 H 1664.26 3.72019 0.384461 0
M  V30 18247 H 1666.55 6.49984 1.91121 0
M  V30 18248 H 1667.49 7.06367 0.495116 0
M  V30 18249 H 1667.9 5.50148 1.26482 0
M  V30 18250 N 1667.3 0.221601 1.56034 0
M  V30 18251 C 1668.71 -0.133783 1.59038 0
M  V30 18252 C 1668.91 -1.58952 1.23841 0
M  V30 18253 O 1667.97 -2.32972 0.973677 0
M  V30 18254 C 1669.28 0.192549 3.00083 0
M  V30 18255 C 1670.83 0.134791 3.1271 0
M  V30 18256 C 1671.3 0.434799 4.55931 0
M  V30 18257 N 1672.8 0.384372 4.61602 0
M  V30 18258 C 1673.53 0.59 5.70357 0
M  V30 18259 N 1673.03 0.857405 6.87474 0
M  V30 18260 N 1674.82 0.522433 5.59667 0
M  V30 18261 H 1666.97 1.17124 1.77189 0
M  V30 18262 H 1669.23 0.46946 0.823597 0
M  V30 18263 H 1668.94 1.20292 3.30488 0
M  V30 18264 H 1668.81 -0.49243 3.73972 0
M  V30 18265 H 1671.2 -0.866221 2.821 0
M  V30 18266 H 1671.28 0.853247 2.4115 0
M  V30 18267 H 1670.93 1.43325 4.87258 0
M  V30 18268 H 1670.86 -0.304849 5.25717 0
M  V30 18269 H 1673.35 0.185389 3.77445 0
M  V30 18270 H 1673.66 1.00241 7.66271 0
M  V30 18271 H 1672 0.894599 6.89218 0
M  V30 18272 H 1675.2 0.313754 4.67047 0
M  V30 18273 H 1675.37 0.686094 6.44358 0
M  V30 18274 N 1668.77 -1.57515 -0.0517878 0
M  V30 18275 C 1669.72 -2.05051 -1.05937 0
M  V30 18276 C 1670.69 -0.935032 -1.37282 0
M  V30 18277 O 1671.88 -1.20408 -1.48009 0
M  V30 18278 C 1669.02 -2.51594 -2.36208 0
M  V30 18279 C 1668.13 -3.76843 -2.11219 0
M  V30 18280 C 1667.26 -4.12088 -3.35197 0
M  V30 18281 C 1666.3 -5.30318 -3.05662 0
M  V30 18282 N 1665.44 -5.61104 -4.22026 0
M  V30 18283 H 1670.28 -2.90891 -0.647027 0
M  V30 18284 H 1667.82 -1.43842 -0.307891 0
M  V30 18285 H 1669.78 -2.76638 -3.12293 0
M  V30 18286 H 1668.41 -1.68704 -2.75207 0
M  V30 18287 H 1667.46 -3.5902 -1.25734 0
M  V30 18288 H 1668.77 -4.63057 -1.85416 0
M  V30 18289 H 1667.92 -4.38139 -4.19666 0
M  V30 18290 H 1666.66 -3.24479 -3.64094 0
M  V30 18291 H 1665.67 -5.04043 -2.19592 0
M  V30 18292 H 1666.89 -6.19561 -2.78067 0
M  V30 18293 H 1664.84 -4.76456 -4.50917 0
M  V30 18294 H 1664.76 -6.4178 -3.99568 0
M  V30 18295 H 1666.02 -5.91719 -5.07434 0
M  V30 18296 N 1670.25 0.323614 -1.54242 0
M  V30 18297 C 1671.49 1.06978 -1.74169 0
M  V30 18298 C 1671.86 1.85248 -0.504693 0
M  V30 18299 O 1673.06 2.62439 -0.581318 0
M  V30 18300 C 1671.33 1.97001 -2.98203 0
M  V30 18301 S 1672.89 2.78571 -3.39034 0
M  V30 18302 H 1669.71 0.361157 -0.612443 0
M  V30 18303 H 1672.31 0.345789 -1.92418 0
M  V30 18304 H 1671.01 1.38336 -3.86382 0
M  V30 18305 H 1670.54 2.73806 -2.82478 0
M  V30 18306 H 1672.56 3.99481 -2.94329 0
M  V30 18307 N 1671.73 1.46313 0.585673 0
M  V30 18308 C 1672.98 1.52682 1.34387 0
M  V30 18309 C 1673.33 0.174924 1.91603 0
M  V30 18310 O 1672.63 -0.816026 1.73354 0
M  V30 18311 C 1672.82 2.55895 2.49504 0
M  V30 18312 C 1672.65 4.00988 2.03564 0
M  V30 18313 C 1671.42 4.68736 1.88718 0
M  V30 18314 C 1673.62 4.88874 1.59707 0
M  V30 18315 N 1671.6 5.9846 1.36818 0
M  V30 18316 C 1672.97 6.08399 1.19377 0
M  V30 18317 C 1675.02 4.75551 1.47498 0
M  V30 18318 C 1673.73 7.16073 0.680543 0
M  V30 18319 C 1675.75 5.83294 0.975784 0
M  V30 18320 C 1675.12 7.01989 0.582251 0
M  V30 18321 H 1671.21 0.613553 0.484847 0
M  V30 18322 H 1673.8 1.82912 0.667171 0
M  V30 18323 H 1671.97 2.2758 3.14741 0
M  V30 18324 H 1673.7 2.52277 3.16446 0
M  V30 18325 H 1670.46 4.24212 2.10574 0
M  V30 18326 H 1670.88 6.67497 1.13037 0
M  V30 18327 H 1675.52 3.84178 1.76543 0
M  V30 18328 H 1673.24 8.07217 0.377678 0
M  V30 18329 H 1676.83 5.75025 0.885268 0
M  V30 18330 H 1675.71 7.8394 0.201937 0
M  V30 18331 N 1673.21 -0.830057 1.33969 0
M  V30 18332 C 1674.12 -1.97244 1.27012 0
M  V30 18333 C 1675.14 -1.73076 0.179075 0
M  V30 18334 O 1676.31 -1.97301 0.404262 0
M  V30 18335 C 1673.38 -3.31409 1.01827 0
M  V30 18336 C 1672.44 -3.68633 2.20018 0
M  V30 18337 C 1671.67 -4.96397 1.96025 0
M  V30 18338 O 1671.89 -5.63014 0.91494 0
M  V30 18339 O 1670.83 -5.31331 2.82791 0
M  V30 18340 H 1674.65 -2.06056 2.23103 0
M  V30 18341 H 1672.24 -0.964399 1.14104 0
M  V30 18342 H 1674.12 -4.11779 0.895337 0
M  V30 18343 H 1672.8 -3.23581 0.0877091 0
M  V30 18344 H 1671.7 -2.88738 2.37869 0
M  V30 18345 H 1673.04 -3.81138 3.11439 0
M  V30 18346 N 1674.69 -1.17582 -1.04939 0
M  V30 18347 C 1675.93 -0.965778 -1.77986 0
M  V30 18348 C 1676.26 0.505366 -1.8782 0
M  V30 18349 O 1675.52 1.39132 -1.37625 0
M  V30 18350 C 1675.82 -1.55507 -3.21796 0
M  V30 18351 C 1675.48 -3.05086 -3.32014 0
M  V30 18352 C 1674.14 -3.45914 -3.3451 0
M  V30 18353 C 1676.5 -4.01096 -3.32824 0
M  V30 18354 C 1673.82 -4.81344 -3.35447 0
M  V30 18355 C 1676.18 -5.3643 -3.353 0
M  V30 18356 C 1674.84 -5.76718 -3.36084 0
M  V30 18357 H 1674.11 -0.353403 -0.651297 0
M  V30 18358 H 1676.76 -1.46512 -1.23315 0
M  V30 18359 H 1675.06 -0.977509 -3.7941 0
M  V30 18360 H 1676.76 -1.36807 -3.76941 0
M  V30 18361 H 1673.35 -2.72541 -3.30786 0
M  V30 18362 H 1677.53 -3.7061 -3.30094 0
M  V30 18363 H 1672.79 -5.11868 -3.34366 0
M  V30 18364 H 1676.96 -6.106 -3.34874 0
M  V30 18365 H 1674.59 -6.81637 -3.36563 0
M  V30 18366 N 1676.17 1.23705 -0.976463 0
M  V30 18367 C 1677.1 2.24297 -0.471538 0
M  V30 18368 C 1678.11 1.57169 0.424484 0
M  V30 18369 O 1679.3 1.77022 0.229252 0
M  V30 18370 C 1676.4 3.37214 0.337621 0
M  V30 18371 C 1675.57 4.33921 -0.550586 0
M  V30 18372 C 1674.63 5.25804 0.204053 0
M  V30 18373 O 1673.66 5.67757 -0.404995 0
M  V30 18374 N 1674.86 5.61021 1.49116 0
M  V30 18375 H 1677.62 2.68252 -1.33645 0
M  V30 18376 H 1675.19 1.37836 -0.849281 0
M  V30 18377 H 1677.18 3.95658 0.850714 0
M  V30 18378 H 1675.75 2.92474 1.10351 0
M  V30 18379 H 1674.97 3.74038 -1.24455 0
M  V30 18380 H 1676.26 4.95493 -1.15604 0
M  V30 18381 H 1675.65 5.28879 2.00757 0
M  V30 18382 H 1674.21 6.21954 1.94978 0
M  V30 18383 N 1677.64 0.747635 1.38738 0
M  V30 18384 C 1679.05 0.369576 1.83006 0
M  V30 18385 C 1679.41 -1.10091 1.62402 0
M  V30 18386 O 1678.53 -1.85042 1.12198 0
M  V30 18387 C 1679.13 0.664018 3.32229 0
M  V30 18388 C 1677.68 0.339308 3.74868 0
M  V30 18389 C 1676.83 0.920231 2.61586 0
M  V30 18390 H 1679.78 0.944268 1.27551 0
M  V30 18391 H 1679.8 -0.0598575 3.80453 0
M  V30 18392 H 1679.32 1.73432 3.47193 0
M  V30 18393 H 1677.42 -0.724649 3.65485 0
M  V30 18394 H 1677.53 0.830699 4.71843 0
M  V30 18395 H 1675.89 0.346002 2.52339 0
M  V30 18396 H 1676.68 1.99544 2.79351 0
M  V30 18397 N 1679.12 -1.49583 0.496242 0
M  V30 18398 C 1680.35 -2.07342 -0.0490986 0
M  V30 18399 C 1680.77 -1.35474 -1.30493 0
M  V30 18400 O 1680.13 -0.410005 -1.76603 0
M  V30 18401 C 1680.18 -3.59427 -0.290601 0
M  V30 18402 O 1679.28 -3.89111 -1.36626 0
M  V30 18403 H 1678.62 -0.663562 0.0241141 0
M  V30 18404 H 1681.15 -1.92452 0.6945 0
M  V30 18405 H 1681.16 -4.04627 -0.523549 0
M  V30 18406 H 1679.84 -4.11147 0.626959 0
M  V30 18407 H 1678.41 -3.55726 -1.11864 0
M  V30 18408 N 1680.6 -0.229873 -1.55915 0
M  V30 18409 C 1681.55 0.693198 -2.2203 0
M  V30 18410 C 1682.54 1.1933 -1.20236 0
M  V30 18411 O 1683.75 1.15217 -1.38294 0
M  V30 18412 H 1680.12 0.241986 -0.712002 0
M  V30 18413 H 1682.09 0.112229 -2.98189 0
M  V30 18414 C 1680.84 1.88688 -2.92048 0
M  V30 18415 H 1680.17 1.51119 -3.70139 0
M  V30 18416 H 1681.61 2.51036 -3.41697 0
M  V30 18417 C 1680.06 2.74747 -1.94976 0
M  V30 18418 O 1680.59 3.73759 -1.47198 0
M  V30 18419 N 1678.8 2.40956 -1.62445 0
M  V30 18420 H 1678.35 1.60494 -2.01493 0
M  V30 18421 H 1678.31 2.98816 -0.977581 0
M  V30 18422 N 1682.08 1.5754 0.0434337 0
M  V30 18423 C 1683.49 1.54537 0.398819 0
M  V30 18424 C 1683.69 0.954055 1.77483 0
M  V30 18425 O 1682.75 0.568839 2.46009 0
M  V30 18426 C 1684.06 2.99058 0.313848 0
M  V30 18427 C 1685.61 3.10536 0.39198 0
M  V30 18428 C 1686.09 4.56761 0.336614 0
M  V30 18429 N 1687.58 4.61505 0.395844 0
M  V30 18430 C 1688.31 5.72168 0.375669 0
M  V30 18431 N 1687.81 6.92112 0.30863 0
M  V30 18432 N 1689.6 5.60496 0.424335 0
M  V30 18433 H 1681.75 1.94333 -0.857225 0
M  V30 18434 H 1684.01 0.890708 -0.324566 0
M  V30 18435 H 1683.72 3.4599 -0.631159 0
M  V30 18436 H 1683.59 3.60402 1.11313 0
M  V30 18437 H 1685.98 2.6356 1.32742 0
M  V30 18438 H 1686.06 2.5205 -0.436391 0
M  V30 18439 H 1685.71 5.04402 -0.595093 0
M  V30 18440 H 1685.64 5.13142 1.1829 0
M  V30 18441 H 1688.13 3.75202 0.450753 0
M  V30 18442 H 1688.44 7.72225 0.29794 0
M  V30 18443 H 1686.79 6.94456 0.274891 0
M  V30 18444 H 1689.98 4.65688 0.474599 0
M  V30 18445 H 1690.15 6.46732 0.405143 0
M  V30 18446 N 1683.56 -0.31543 1.54411 0
M  V30 18447 C 1684.78 -1.07173 1.76979 0
M  V30 18448 C 1685.2 -1.81432 0.522285 0
M  V30 18449 O 1684.56 -1.75306 -0.507348 0
M  V30 18450 C 1684.61 -2.06352 2.96818 0
M  V30 18451 O 1684.33 -1.35108 4.16746 0
M  V30 18452 C 1685.83 -2.94136 3.31661 0
M  V30 18453 H 1683.05 -0.318455 0.590616 0
M  V30 18454 H 1685.59 -0.359085 2.01323 0
M  V30 18455 H 1683.75 -2.7314 2.74724 0
M  V30 18456 H 1684.16 -2.01593 4.84211 0
M  V30 18457 H 1685.64 -3.59606 4.18793 0
M  V30 18458 H 1686.11 -3.6167 2.49182 0
M  V30 18459 H 1686.72 -2.32899 3.55863 0
M  V30 18460 N 1685.03 -1.46622 -0.577906 0
M  V30 18461 C 1686.26 -1.56 -1.36671 0
M  V30 18462 C 1686.68 -0.2034 -1.86997 0
M  V30 18463 O 1686.04 0.817288 -1.61834 0
M  V30 18464 C 1686.09 -2.57254 -2.52691 0
M  V30 18465 O 1685.19 -2.1109 -3.54281 0
M  V30 18466 H 1684.54 -0.524779 -0.406821 0
M  V30 18467 H 1687.07 -1.92234 -0.700512 0
M  V30 18468 H 1687.08 -2.77016 -2.99543 0
M  V30 18469 H 1685.75 -3.55766 -2.15415 0
M  V30 18470 H 1684.33 -2.01337 -3.13875 0
M  V30 18471 N 1686.51 0.822941 -1.34408 0
M  V30 18472 C 1687.76 1.57916 -1.26763 0
M  V30 18473 C 1688.09 1.93821 0.162408 0
M  V30 18474 O 1687.34 1.60226 1.12366 0
M  V30 18475 C 1687.64 2.88915 -2.10388 0
M  V30 18476 C 1687.31 2.72302 -3.59392 0
M  V30 18477 C 1685.97 2.67479 -4.00011 0
M  V30 18478 C 1688.32 2.5598 -4.54008 0
M  V30 18479 C 1685.65 2.44255 -5.33438 0
M  V30 18480 C 1688 2.34288 -5.87615 0
M  V30 18481 C 1686.67 2.27877 -6.27398 0
M  V30 18482 H 1685.94 0.577854 -0.46386 0
M  V30 18483 H 1688.58 0.95218 -1.6615 0
M  V30 18484 H 1686.89 3.55903 -1.63829 0
M  V30 18485 H 1688.58 3.46511 -2.01819 0
M  V30 18486 H 1685.17 2.76896 -3.27149 0
M  V30 18487 H 1689.36 2.5873 -4.23524 0
M  V30 18488 H 1684.61 2.37749 -5.63281 0
M  V30 18489 H 1688.79 2.20646 -6.60521 0
M  V30 18490 H 1686.42 2.09643 -7.30722 0
M  V30 18491 N 1687.99 1.18137 1.04314 0
M  V30 18492 C 1688.92 0.863879 2.12296 0
M  V30 18493 C 1689.94 -0.137469 1.62219 0
M  V30 18494 O 1691.12 0.0900306 1.78273 0
M  V30 18495 C 1688.22 0.269002 3.37831 0
M  V30 18496 C 1687.4 1.3154 4.17152 0
M  V30 18497 C 1686.46 0.736666 5.21018 0
M  V30 18498 O 1685.48 1.41075 5.5144 0
M  V30 18499 N 1686.68 -0.467037 5.78618 0
M  V30 18500 H 1689.45 1.7933 2.40127 0
M  V30 18501 H 1687.01 1.08142 1.20486 0
M  V30 18502 H 1689 -0.131671 4.04486 0
M  V30 18503 H 1687.57 -0.564386 3.07463 0
M  V30 18504 H 1686.79 1.89148 3.45856 0
M  V30 18505 H 1688.08 2.02093 4.66943 0
M  V30 18506 H 1687.48 -1.03247 5.56198 0
M  V30 18507 H 1686.04 -0.809663 6.46752 0
M  V30 18508 N 1689.47 -1.23186 0.98301 0
M  V30 18509 C 1690.42 -2.26762 0.517846 0
M  V30 18510 C 1691.41 -1.63944 -0.426459 0
M  V30 18511 O 1692.62 -1.77481 -0.300065 0
M  V30 18512 H 1688.99 -0.737082 0.149042 0
M  V30 18513 H 1690.96 -2.63356 1.40307 0
M  V30 18514 C 1689.71 -3.47324 -0.16157 0
M  V30 18515 H 1689.03 -3.95915 0.555973 0
M  V30 18516 H 1690.47 -4.21598 -0.450644 0
M  V30 18517 C 1688.93 -3.06722 -1.39366 0
M  V30 18518 O 1689.46 -3.15239 -2.48973 0
M  V30 18519 N 1687.67 -2.61609 -1.26528 0
M  V30 18520 H 1687.22 -2.54879 -0.373449 0
M  V30 18521 H 1687.17 -2.34809 -2.09074 0
M  V30 18522 N 1690.95 -0.754982 -1.38339 0
M  V30 18523 C 1691.88 -0.143678 -2.33058 0
M  V30 18524 C 1692.86 0.702022 -1.54938 0
M  V30 18525 O 1694.04 0.642922 -1.83249 0
M  V30 18526 C 1691.17 0.749194 -3.39123 0
M  V30 18527 C 1690.13 0.00611459 -4.28 0
M  V30 18528 C 1689.45 1.01733 -5.24933 0
M  V30 18529 C 1690.75 -1.1631 -5.09185 0
M  V30 18530 H 1692.45 -0.934907 -2.84429 0
M  V30 18531 H 1689.99 -0.451023 -1.36754 0
M  V30 18532 H 1691.95 1.18653 -4.04351 0
M  V30 18533 H 1690.67 1.57276 -2.86237 0
M  V30 18534 H 1689.33 -0.411816 -3.6428 0
M  V30 18535 H 1688.98 1.83499 -4.68334 0
M  V30 18536 H 1688.68 0.524783 -5.85252 0
M  V30 18537 H 1690.2 1.45395 -5.93037 0
M  V30 18538 H 1691.61 -0.803244 -5.67645 0
M  V30 18539 H 1690.01 -1.5866 -5.78746 0
M  V30 18540 H 1691.08 -1.97533 -4.42842 0
M  V30 18541 N 1692.42 1.49318 -0.504168 0
M  V30 18542 C 1693.67 2.01658 0.0410881 0
M  V30 18543 C 1693.99 1.38866 1.37752 0
M  V30 18544 O 1695.19 1.82552 2.00965 0
M  V30 18545 C 1693.65 3.59687 0.123682 0
M  V30 18546 C 1693.26 4.31454 -1.2063 0
M  V30 18547 C 1695 4.19961 0.619134 0
M  V30 18548 C 1692.91 5.81349 -1.0857 0
M  V30 18549 H 1691.84 0.753757 0.0191287 0
M  V30 18550 H 1694.49 1.71826 -0.644066 0
M  V30 18551 H 1692.87 3.86249 0.873355 0
M  V30 18552 H 1694.04 4.1659 -1.96951 0
M  V30 18553 H 1692.36 3.82939 -1.63544 0
M  V30 18554 H 1694.96 5.29736 0.726925 0
M  V30 18555 H 1695.3 3.83539 1.61874 0
M  V30 18556 H 1695.83 3.97731 -0.0740966 0
M  V30 18557 H 1692.57 6.22301 -2.05967 0
M  V30 18558 H 1692.09 5.98698 -0.363422 0
M  V30 18559 H 1693.77 6.42453 -0.765722 0
M  V30 18560 N 1693.9 0.238138 1.5579 0
M  V30 18561 C 1694.81 -0.676049 2.24648 0
M  V30 18562 C 1695.83 -1.20038 1.25964 0
M  V30 18563 O 1697 -1.2385 1.58818 0
M  V30 18564 C 1694.07 -1.86014 2.92574 0
M  V30 18565 C 1693.13 -1.37615 4.06646 0
M  V30 18566 C 1692.36 -2.5038 4.71323 0
M  V30 18567 O 1692.59 -3.68906 4.35045 0
M  V30 18568 O 1691.52 -2.20636 5.60003 0
M  V30 18569 H 1695.35 -0.119372 3.03465 0
M  V30 18570 H 1692.93 0.00699789 1.49398 0
M  V30 18571 H 1694.81 -2.55132 3.35389 0
M  V30 18572 H 1693.49 -2.4046 2.16704 0
M  V30 18573 H 1692.4 -0.652503 3.68366 0
M  V30 18574 H 1693.73 -0.877871 4.84308 0
M  V30 18575 N 1695.38 -1.57561 -0.0350783 0
M  V30 18576 C 1696.63 -1.88623 -0.725659 0
M  V30 18577 C 1696.95 -0.835055 -1.76215 0
M  V30 18578 O 1696.22 0.13206 -1.95454 0
M  V30 18579 H 1694.8 -0.696108 -0.271004 0
M  V30 18580 H 1697.46 -1.949 -0.00245508 0
M  V30 18581 H 1696.56 -2.8731 -1.21899 0
M  V30 18582 N 1696.86 0.307236 -1.54576 0
M  V30 18583 C 1698.11 1.04321 -1.73561 0
M  V30 18584 C 1698.43 1.87475 -0.51803 0
M  V30 18585 O 1697.69 1.89202 0.500093 0
M  V30 18586 C 1697.99 1.9831 -2.97335 0
M  V30 18587 C 1697.65 1.31182 -4.31395 0
M  V30 18588 C 1696.32 1.12607 -4.67839 0
M  V30 18589 C 1698.67 0.831413 -5.14526 0
M  V30 18590 C 1696 0.446652 -5.84997 0
M  V30 18591 C 1698.35 0.165743 -6.32383 0
M  V30 18592 C 1697.01 -0.0320176 -6.67492 0
M  V30 18593 H 1696.28 0.381739 -0.635103 0
M  V30 18594 H 1698.93 0.318705 -1.88829 0
M  V30 18595 H 1697.23 2.77267 -2.76821 0
M  V30 18596 H 1698.93 2.55314 -3.09218 0
M  V30 18597 H 1695.52 1.46645 -4.02732 0
M  V30 18598 H 1699.7 0.962653 -4.86874 0
M  V30 18599 H 1694.96 0.282387 -6.10748 0
M  V30 18600 H 1699.13 -0.214434 -6.9607 0
M  V30 18601 H 1696.76 -0.560493 -7.58131 0
M  V30 18602 N 1698.34 1.46926 0.570122 0
M  V30 18603 C 1699.25 1.6105 1.70587 0
M  V30 18604 C 1700.26 0.493636 1.66851 0
M  V30 18605 O 1701.44 0.759454 1.86532 0
M  V30 18606 C 1698.5 1.60913 3.07096 0
M  V30 18607 C 1697.56 2.83928 3.21999 0
M  V30 18608 C 1696.8 2.83788 4.51996 0
M  V30 18609 O 1697.02 1.93256 5.36664 0
M  V30 18610 O 1695.95 3.75491 4.70415 0
M  V30 18611 H 1699.78 2.57126 1.61616 0
M  V30 18612 H 1697.37 1.29863 0.738637 0
M  V30 18613 H 1699.25 1.63576 3.88356 0
M  V30 18614 H 1697.92 0.680005 3.16477 0
M  V30 18615 H 1696.83 2.86814 2.40185 0
M  V30 18616 H 1698.16 3.76091 3.17516 0
M  V30 18617 N 1699.82 -0.815801 1.34842 0
M  V30 18618 C 1700.78 -1.90871 1.2689 0
M  V30 18619 C 1701.78 -1.59762 0.182445 0
M  V30 18620 O 1702.97 -1.68667 0.435543 0
M  V30 18621 C 1700.1 -3.27081 0.960774 0
M  V30 18622 H 1701.29 -1.99343 2.24059 0
M  V30 18623 H 1698.85 -1.0106 1.19233 0
M  V30 18624 H 1699.58 -3.24299 -0.00744059 0
M  V30 18625 H 1699.37 -3.51045 1.74671 0
M  V30 18626 H 1700.86 -4.07101 0.930494 0
M  V30 18627 N 1701.29 -1.18689 -1.03686 0
M  V30 18628 C 1702.22 -0.94094 -2.13702 0
M  V30 18629 C 1703.2 0.12277 -1.69656 0
M  V30 18630 O 1704.39 -0.0306085 -1.94176 0
M  V30 18631 C 1701.52 -0.470054 -3.44104 0
M  V30 18632 C 1700.47 -1.47468 -4.01792 0
M  V30 18633 C 1699.8 -0.861174 -5.2772 0
M  V30 18634 C 1701.1 -2.85254 -4.37524 0
M  V30 18635 H 1702.79 -1.86102 -2.34534 0
M  V30 18636 H 1700.34 -0.896207 -1.12713 0
M  V30 18637 H 1702.29 -0.28533 -4.20433 0
M  V30 18638 H 1701.02 0.485604 -3.2297 0
M  V30 18639 H 1699.68 -1.64641 -3.2755 0
M  V30 18640 H 1699.32 0.10179 -5.02897 0
M  V30 18641 H 1699.02 -1.53196 -5.67278 0
M  V30 18642 H 1700.55 -0.687066 -6.06722 0
M  V30 18643 H 1701.96 -2.71711 -5.04823 0
M  V30 18644 H 1700.36 -3.49051 -4.88143 0
M  V30 18645 H 1701.43 -3.38516 -3.47181 0
M  V30 18646 N 1702.77 1.22662 -0.989529 0
M  V30 18647 C 1703.7 2.26762 -0.556891 0
M  V30 18648 C 1704.68 1.64971 0.414538 0
M  V30 18649 O 1705.87 1.91775 0.305909 0
M  V30 18650 C 1703 3.47047 0.132573 0
M  V30 18651 C 1701.95 4.21251 -0.757058 0
M  V30 18652 C 1701.28 5.3466 0.065134 0
M  V30 18653 C 1702.58 4.8029 -2.05229 0
M  V30 18654 H 1704.27 2.63204 -1.42703 0
M  V30 18655 H 1701.82 1.26522 -0.687614 0
M  V30 18656 H 1703.77 4.19027 0.446609 0
M  V30 18657 H 1702.49 3.09692 1.03723 0
M  V30 18658 H 1701.15 3.51101 -1.05469 0
M  V30 18659 H 1700.8 4.93547 0.970607 0
M  V30 18660 H 1700.5 5.85231 -0.527063 0
M  V30 18661 H 1702.03 6.09458 0.373342 0
M  V30 18662 H 1703.44 5.44229 -1.80242 0
M  V30 18663 H 1701.84 5.41186 -2.59302 0
M  V30 18664 H 1702.91 4.00529 -2.73322 0
M  V30 18665 N 1704.25 0.762308 1.37937 0
M  V30 18666 C 1705.2 0.140412 2.30372 0
M  V30 18667 C 1706.17 -0.700152 1.50622 0
M  V30 18668 O 1707.35 -0.654474 1.79224 0
M  V30 18669 C 1704.49 -0.740056 3.37071 0
M  V30 18670 C 1703.6 0.116084 4.31844 0
M  V30 18671 C 1702.74 -0.768203 5.25616 0
M  V30 18672 C 1701.78 0.0910442 6.12032 0
M  V30 18673 N 1700.92 -0.75069 6.98075 0
M  V30 18674 H 1705.76 0.934224 2.82977 0
M  V30 18675 H 1703.29 0.472316 1.39311 0
M  V30 18676 H 1705.25 -1.26525 3.97551 0
M  V30 18677 H 1703.88 -1.49956 2.85855 0
M  V30 18678 H 1702.93 0.758999 3.72751 0
M  V30 18679 H 1704.24 0.779285 4.92675 0
M  V30 18680 H 1703.4 -1.36024 5.91255 0
M  V30 18681 H 1702.14 -1.46511 4.65173 0
M  V30 18682 H 1701.14 0.695687 5.45381 0
M  V30 18683 H 1702.37 0.785145 6.74546 0
M  V30 18684 H 1700.31 -1.43239 6.40171 0
M  V30 18685 H 1700.23 -0.144579 7.55862 0
M  V30 18686 H 1701.5 -1.32742 7.68114 0
M  V30 18687 O 1705.77 -1.47682 0.65362 0
M  V30 18688 H 1706.46 -1.92869 0.179247 0
M  V30 END ATOM
M  V30 BEGIN BOND
M  V30 END BOND
M  V30 END CTAB
M  END
$$$$
