drugbank_target|P37001 Lipid A palmitoyltransferase PagP (DB03967; DB04147)
 OpenBabel12092120023D

  0  0  0     0  0            999 V3000
M  V30 BEGIN CTAB
M  V30 COUNTS 2996 3059 0 0 0
M  V30 BEGIN ATOM
M  V30 1 H -0.908 1.98254 -0.117106 0
M  V30 2 N 0 1.576 0 0
M  V30 3 C 0.933 2.03868 1.02534 0
M  V30 4 C 1.911 0.928543 1.3348 0
M  V30 5 O 3.095 1.19667 1.45644 0
M  V30 6 C 0.222 2.43627 2.35294 0
M  V30 7 C -0.732 3.65373 2.2001 0
M  V30 8 S 0.101 5.13292 1.52614 0
M  V30 9 C 1.257 5.56322 2.86805 0
M  V30 10 H 1.49 2.90518 0.631377 0
M  V30 11 H -0.977 1.52953 0.210867 0
M  V30 12 H 0.981 2.67203 3.11629 0
M  V30 13 H -0.358 1.57376 2.7183 0
M  V30 14 H -1.165 3.90944 3.18086 0
M  V30 15 H -1.563 3.418 1.51819 0
M  V30 16 H 0.729 5.58782 3.83104 0
M  V30 17 H 1.672 6.56266 2.65933 0
M  V30 18 H 2.08 4.83886 2.90714 0
M  V30 19 N 1.4781 -0.272755 1.55222 0
M  V30 20 C 2.4261 -1.35705 1.88909 0
M  V30 21 C 3.4201 -1.5112 0.765456 0
M  V30 22 O 4.6261 -1.52901 0.949802 0
M  V30 23 H 1.0011 -0.453868 0.59959 0
M  V30 24 H 2.9721 -1.04544 2.79487 0
M  V30 25 C 1.7211 -2.71049 2.17779 0
M  V30 26 H 1.0441 -2.59979 3.03728 0
M  V30 27 H 2.4841 -3.45858 2.45272 0
M  V30 28 C 0.9431 -3.22165 0.985473 0
M  V30 29 O 1.4731 -4.01096 0.220233 0
M  V30 30 N -0.3209 -2.7985 0.783108 0
M  V30 31 H -0.7739 -2.15775 1.40708 0
M  V30 32 H -0.8159 -3.14397 -0.0130392 0
M  V30 33 N 2.9562 -1.48159 -0.537278 0
M  V30 34 C 4.2022 -1.56035 -1.29541 0
M  V30 35 C 4.5352 -0.230377 -1.92829 0
M  V30 36 O 3.8102 0.762952 -1.78911 0
M  V30 37 C 4.0932 -2.69323 -2.39034 0
M  V30 38 C 3.9462 -4.12002 -1.80485 0
M  V30 39 C 5.2652 -2.78408 -3.40847 0
M  V30 40 H 2.3842 -0.567992 -0.469632 0
M  V30 41 H 5.0262 -1.80302 -0.599277 0
M  V30 42 H 3.1762 -2.48763 -2.98412 0
M  V30 43 H 4.8482 -4.43981 -1.25215 0
M  V30 44 H 3.0912 -4.19344 -1.11055 0
M  V30 45 H 3.7622 -4.87077 -2.59731 0
M  V30 46 H 6.2382 -2.97012 -2.91416 0
M  V30 47 H 5.1142 -3.59416 -4.14863 0
M  V30 48 H 5.3752 -1.86269 -4.00944 0
M  V30 49 N 4.4343 0.785586 -1.36625 0
M  V30 50 C 5.6593 1.57963 -1.34397 0
M  V30 51 C 6.0843 1.87964 0.071526 0
M  V30 52 O 5.4423 1.48182 1.0446 0
M  V30 53 C 5.4903 2.87511 -2.17646 0
M  V30 54 O 4.5943 3.81281 -1.57158 0
M  V30 55 H 3.9353 0.479014 -0.459828 0
M  V30 56 H 6.4653 0.973411 -1.79961 0
M  V30 57 H 6.4753 3.36745 -2.30362 0
M  V30 58 H 5.1503 2.65002 -3.20541 0
M  V30 59 H 3.7273 3.39885 -1.53403 0
M  V30 60 N 5.9124 1.20967 1.01018 0
M  V30 61 C 6.8594 0.964281 2.09691 0
M  V30 62 C 7.8294 -0.107853 1.65749 0
M  V30 63 O 9.0144 0.0381987 1.90762 0
M  V30 64 C 6.1544 0.52943 3.41015 0
M  V30 65 C 5.2674 1.67043 3.98398 0
M  V30 66 C 4.4024 1.18525 5.17808 0
M  V30 67 C 3.4414 2.29892 5.67288 0
M  V30 68 N 2.5784 1.82546 6.77954 0
M  V30 69 H 7.4184 1.89463 2.30017 0
M  V30 70 H 4.9554 0.944289 1.1279 0
M  V30 71 H 6.9134 0.258588 4.16398 0
M  V30 72 H 5.5434 -0.363919 3.20742 0
M  V30 73 H 4.5954 2.05603 3.20049 0
M  V30 74 H 5.9074 2.50877 4.31117 0
M  V30 75 H 5.0614 0.870762 6.00419 0
M  V30 76 H 3.8004 0.316887 4.86669 0
M  V30 77 H 2.8054 2.6215 4.83278 0
M  V30 78 H 4.0304 3.17216 6.00459 0
M  V30 79 H 1.9764 0.980454 6.48632 0
M  V30 80 H 1.8934 2.59956 7.09901 0
M  V30 81 H 3.1614 1.54115 7.64113 0
M  V30 82 N 7.3905 -1.2043 1.01659 0
M  V30 83 C 8.6205 -1.93496 0.724081 0
M  V30 84 C 9.0285 -1.74998 -0.71918 0
M  V30 85 O 8.3715 -1.06118 -1.49949 0
M  V30 86 C 8.4335 -3.45886 0.97994 0
M  V30 87 C 8.0975 -3.88145 2.41232 0
M  V30 88 C 9.0945 -3.93907 3.39313 0
M  V30 89 C 6.7795 -4.20134 2.75305 0
M  V30 90 C 8.7735 -4.31069 4.6953 0
M  V30 91 C 6.4605 -4.56971 4.05735 0
M  V30 92 C 7.4585 -4.62411 5.02658 0
M  V30 93 O 7.1465 -4.98403 6.30754 0
M  V30 94 H 6.8785 -0.621824 0.265162 0
M  V30 95 H 9.4325 -1.53867 1.36066 0
M  V30 96 H 7.6625 -3.85639 0.286198 0
M  V30 97 H 9.3515 -4.0018 0.679021 0
M  V30 98 H 10.1175 -3.69357 3.14325 0
M  V30 99 H 5.9965 -4.1509 2.00551 0
M  V30 100 H 9.5405 -4.3523 5.45179 0
M  V30 101 H 5.4375 -4.80977 4.30502 0
M  V30 102 H 6.2055 -5.16395 6.35042 0
M  V30 103 N 8.8686 -0.792821 -1.36206 0
M  V30 104 C 10.1146 -0.36733 -1.99446 0
M  V30 105 C 10.4476 1.05917 -1.62774 0
M  V30 106 O 9.7226 1.7324 -0.88421 0
M  V30 107 C 10.0056 -0.535044 -3.56103 0
M  V30 108 C 9.8586 -2.00548 -4.02617 0
M  V30 109 C 11.1776 0.0478191 -4.40074 0
M  V30 110 H 8.2966 -0.134941 -0.724541 0
M  V30 111 H 10.9386 -0.999794 -1.61568 0
M  V30 112 H 9.0886 0.00336329 -3.885 0
M  V30 113 H 10.7606 -2.60521 -3.80692 0
M  V30 114 H 9.0036 -2.50686 -3.54032 0
M  V30 115 H 9.6746 -2.07377 -5.11565 0
M  V30 116 H 12.1506 -0.411822 -4.14057 0
M  V30 117 H 11.0266 -0.0995336 -5.4881 0
M  V30 118 H 11.2876 1.14025 -4.27142 0
M  V30 119 N 10.3467 1.47872 -0.545128 0
M  V30 120 C 11.3097 2.28337 0.198717 0
M  V30 121 C 12.3097 1.36255 0.853888 0
M  V30 122 O 13.4997 1.59003 0.711606 0
M  V30 123 C 10.6317 3.15585 1.28915 0
M  V30 124 H 11.8247 2.95567 -0.507941 0
M  V30 125 H 9.3777 1.53362 -0.301616 0
M  V30 126 H 10.1127 2.53019 2.02859 0
M  V30 127 H 9.8977 3.83337 0.824309 0
M  V30 128 H 11.3877 3.76243 1.81194 0
M  V30 129 N 11.8248 0.280983 1.55075 0
M  V30 130 C 13.0738 -0.334784 1.98902 0
M  V30 131 C 13.3868 -1.56534 1.17288 0
M  V30 132 O 14.5928 -2.25443 1.51287 0
M  V30 133 C 13.0488 -0.646994 3.54037 0
M  V30 134 C 12.6568 0.564085 4.44435 0
M  V30 135 C 14.4008 -1.22506 4.06439 0
M  V30 136 C 12.3078 0.226137 5.90967 0
M  V30 137 H 11.2378 -0.128866 0.742906 0
M  V30 138 H 13.8888 0.386556 1.79382 0
M  V30 139 H 12.2708 -1.42739 3.6938 0
M  V30 140 H 13.4448 1.34082 4.40861 0
M  V30 141 H 11.7598 1.0594 4.02698 0
M  V30 142 H 14.3568 -1.49182 5.13468 0
M  V30 143 H 14.6998 -2.16085 3.55827 0
M  V30 144 H 15.2328 -0.50682 3.94558 0
M  V30 145 H 11.9718 1.12996 6.45687 0
M  V30 146 H 11.4918 -0.513717 5.97596 0
M  V30 147 H 13.1708 -0.179539 6.46751 0
M  V30 148 N 13.3029 -1.57598 0.00835791 0
M  V30 149 C 14.5499 -1.90928 -0.674732 0
M  V30 150 C 14.8779 -0.88277 -1.73313 0
M  V30 151 O 14.1329 0.111294 -1.95383 0
M  V30 152 C 14.4319 -3.3101 -1.34787 0
M  V30 153 C 14.0979 -4.48922 -0.421861 0
M  V30 154 C 12.7599 -4.8091 -0.166927 0
M  V30 155 C 15.1119 -5.20755 0.215211 0
M  V30 156 C 12.4399 -5.821 0.733232 0
M  V30 157 C 14.7919 -6.22905 1.1033 0
M  V30 158 C 13.4559 -6.53346 1.36733 0
M  V30 159 H 12.7259 -0.698656 -0.246902 0
M  V30 160 H 15.3729 -1.91387 0.0656779 0
M  V30 161 H 13.6779 -3.26714 -2.16253 0
M  V30 162 H 15.3749 -3.54061 -1.8826 0
M  V30 163 H 11.9649 -4.23934 -0.630729 0
M  V30 164 H 16.1489 -4.9629 0.0312829 0
M  V30 165 H 11.4049 -6.04042 0.945712 0
M  V30 166 H 15.5789 -6.77694 1.60325 0
M  V30 167 H 13.2059 -7.31573 2.06652 0
M  V30 168 N 14.781 0.264519 -1.55364 0
M  V30 169 C 16.006 1.01726 -1.80739 0
M  V30 170 C 16.431 1.78836 -0.583044 0
M  V30 171 O 15.789 1.75167 0.467566 0
M  V30 172 C 15.837 1.94482 -3.03659 0
M  V30 173 O 14.941 3.03386 -2.7934 0
M  V30 174 H 14.282 0.290395 -0.597132 0
M  V30 175 H 16.812 0.290854 -2.02522 0
M  V30 176 H 16.822 2.36278 -3.32621 0
M  V30 177 H 15.497 1.37772 -3.92418 0
M  V30 178 H 14.074 2.65844 -2.61498 0
M  V30 179 N 16.2591 1.48442 0.529413 0
M  V30 180 C 17.5061 1.56488 1.28521 0
M  V30 181 C 17.8341 0.239042 1.93025 0
M  V30 182 O 17.0891 -0.770713 1.79885 0
M  V30 183 C 17.3881 2.6523 2.39558 0
M  V30 184 C 17.0541 4.07648 1.92702 0
M  V30 185 C 15.7161 4.46411 1.79641 0
M  V30 186 C 18.0681 4.96896 1.573 0
M  V30 187 C 15.3961 5.72226 1.29514 0
M  V30 188 C 17.7481 6.23202 1.08636 0
M  V30 189 C 16.4121 6.60821 0.941919 0
M  V30 190 H 15.6821 0.572631 0.470292 0
M  V30 191 H 18.3291 1.82161 0.59072 0
M  V30 192 H 16.6341 2.33419 3.14679 0
M  V30 193 H 18.3311 2.68671 2.97686 0
M  V30 194 H 14.9211 3.77036 2.03819 0
M  V30 195 H 19.1051 4.67626 1.66251 0
M  V30 196 H 14.3611 6.00097 1.17019 0
M  V30 197 H 18.5351 6.91753 0.803136 0
M  V30 198 H 16.1621 7.58198 0.5513 0
M  V30 199 N 17.7372 -0.778329 1.37039 0
M  V30 200 C 18.9832 -1.53892 1.32079 0
M  V30 201 C 19.3162 -1.9396 -0.0965386 0
M  V30 202 O 18.5912 -1.63568 -1.05242 0
M  V30 203 C 18.8742 -2.80847 2.25382 0
M  V30 204 C 18.7272 -2.47076 3.75864 0
M  V30 205 C 20.0462 -3.82741 2.1725 0
M  V30 206 H 17.1652 -0.558303 0.48111 0
M  V30 207 H 19.8072 -0.893397 1.67685 0
M  V30 208 H 17.9572 -3.35931 1.95148 0
M  V30 209 H 19.6292 -1.97957 4.16666 0
M  V30 210 H 17.8722 -1.79863 3.94755 0
M  V30 211 H 18.5432 -3.37798 4.36574 0
M  V30 212 H 21.0192 -3.37133 2.43887 0
M  V30 213 H 19.8952 -4.69303 2.84686 0
M  V30 214 H 20.1562 -4.2652 1.16331 0
M  V30 215 N 19.2153 -1.21501 -1.00376 0
M  V30 216 C 20.4623 -1.03299 -1.74171 0
M  V30 217 C 20.7903 0.433326 -1.89612 0
M  V30 218 O 20.0453 1.33779 -1.42834 0
M  V30 219 C 20.3443 -1.67673 -3.15627 0
M  V30 220 C 20.0103 -3.17533 -3.2013 0
M  V30 221 C 18.6723 -3.58427 -3.21067 0
M  V30 222 C 21.0243 -4.13504 -3.17275 0
M  V30 223 C 18.3523 -4.93794 -3.16835 0
M  V30 224 C 20.7043 -5.48834 -3.14585 0
M  V30 225 C 19.3683 -5.89123 -3.13831 0
M  V30 226 H 18.6383 -0.377999 -0.637336 0
M  V30 227 H 21.2853 -1.51111 -1.17634 0
M  V30 228 H 19.5903 -1.12158 -3.75404 0
M  V30 229 H 21.2873 -1.51091 -3.71446 0
M  V30 230 H 17.8773 -2.84965 -3.20145 0
M  V30 231 H 22.0613 -3.82936 -3.15711 0
M  V30 232 H 17.3173 -5.24255 -3.1459 0
M  V30 233 H 21.4913 -6.22934 -3.1133 0
M  V30 234 H 19.1183 -6.93984 -3.10307 0
M  V30 235 N 20.6934 1.19889 -1.02296 0
M  V30 236 C 21.9424 1.88743 -0.711257 0
M  V30 237 C 22.2554 1.80112 0.762817 0
M  V30 238 O 23.4614 2.44161 1.18733 0
M  V30 239 C 21.9174 3.38525 -1.22185 0
M  V30 240 C 21.5254 3.55727 -2.72328 0
M  V30 241 C 23.2694 4.12893 -0.985864 0
M  V30 242 C 21.1764 4.99369 -3.16835 0
M  V30 243 H 20.1064 0.706885 -0.262353 0
M  V30 244 H 22.7574 1.35586 -1.23648 0
M  V30 245 H 21.1394 3.91044 -0.624571 0
M  V30 246 H 22.3134 3.13564 -3.3766 0
M  V30 247 H 20.6284 2.94739 -2.9414 0
M  V30 248 H 23.2254 5.18813 -1.29374 0
M  V30 249 H 23.5684 4.16228 0.0775055 0
M  V30 250 H 24.1014 3.66494 -1.54684 0
M  V30 251 H 20.8404 5.01193 -4.22476 0
M  V30 252 H 20.3604 5.42317 -2.56228 0
M  V30 253 H 22.0394 5.67988 -3.09837 0
M  V30 254 N 22.1715 0.800033 1.35784 0
M  V30 255 C 23.1035 0.163596 2.28615 0
M  V30 256 C 24.1165 -0.633317 1.49976 0
M  V30 257 O 25.3055 -0.466754 1.72289 0
M  V30 258 C 22.4055 -0.790958 3.29541 0
M  V30 259 C 21.5785 -0.0418255 4.3738 0
M  V30 260 C 20.6375 -0.91389 5.18203 0
M  V30 261 O 19.6635 -0.367234 5.68014 0
M  V30 262 N 20.8655 -2.23682 5.35674 0
M  V30 263 H 23.6305 0.96105 2.83873 0
M  V30 264 H 21.1915 0.654894 1.48063 0
M  V30 265 H 23.1835 -1.37844 3.80501 0
M  V30 266 H 21.7535 -1.48925 2.74846 0
M  V30 267 H 20.9735 0.726813 3.87442 0
M  V30 268 H 22.2615 0.474719 5.06581 0
M  V30 269 H 21.6595 -2.70497 4.96838 0
M  V30 270 H 20.2165 -2.77369 5.89839 0
M  V30 271 N 23.6496 -1.47581 0.552962 0
M  V30 272 C 24.5796 -2.32762 -0.185451 0
M  V30 273 C 25.5606 -1.43527 -0.912905 0
M  V30 274 O 26.7456 -1.72388 -0.894201 0
M  V30 275 C 23.8756 -3.25219 -1.21859 0
M  V30 276 C 22.8296 -4.23661 -0.607864 0
M  V30 277 C 22.1556 -5.05413 -1.74533 0
M  V30 278 C 23.4556 -5.20481 0.435582 0
M  V30 279 H 25.1496 -2.94749 0.525684 0
M  V30 280 H 22.6956 -1.41738 0.254251 0
M  V30 281 H 24.6486 -3.8365 -1.7433 0
M  V30 282 H 23.3726 -2.61279 -1.95961 0
M  V30 283 H 22.0316 -3.66451 -0.104489 0
M  V30 284 H 21.6796 -4.3788 -2.47529 0
M  V30 285 H 21.3796 -5.72059 -1.34249 0
M  V30 286 H 22.9036 -5.66701 -2.27338 0
M  V30 287 H 24.3176 -5.733 -0.00290157 0
M  V30 288 H 22.7146 -5.95305 0.757067 0
M  V30 289 H 23.7846 -4.66217 1.33303 0
M  V30 290 N 25.1277 -0.289203 -1.54924 0
M  V30 291 C 26.3767 0.324231 -1.99077 0
M  V30 292 C 26.6897 1.5591 -1.18117 0
M  V30 293 O 27.8957 2.24637 -1.52481 0
M  V30 294 C 26.3517 0.628209 -3.54375 0
M  V30 295 C 25.9597 -0.587647 -4.44129 0
M  V30 296 C 27.7037 1.20349 -4.07083 0
M  V30 297 C 25.6107 -0.257475 -5.90839 0
M  V30 298 H 24.5407 0.124924 -0.743579 0
M  V30 299 H 27.1917 -0.396063 -1.79175 0
M  V30 300 H 25.5737 1.40778 -3.70132 0
M  V30 301 H 26.7477 -1.36418 -4.40144 0
M  V30 302 H 25.0627 -1.08074 -4.0213 0
M  V30 303 H 27.6597 1.46456 -5.14252 0
M  V30 304 H 28.0027 2.14195 -3.56968 0
M  V30 305 H 28.5357 0.485889 -3.94821 0
M  V30 306 H 25.2747 -1.16419 -6.45079 0
M  V30 307 H 24.7947 0.482018 -5.9786 0
M  V30 308 H 26.4737 0.145238 -6.46837 0
M  V30 309 N 26.6058 1.57591 -0.0167156 0
M  V30 310 C 27.8308 1.9598 0.67872 0
M  V30 311 C 28.2558 0.892546 1.65575 0
M  V30 312 O 27.6138 -0.147772 1.80697 0
M  V30 313 C 27.6618 3.33468 1.37227 0
M  V30 314 O 26.7658 3.28954 2.48722 0
M  V30 315 H 26.1068 0.639339 0.17928 0
M  V30 316 H 28.6368 2.04463 -0.0748802 0
M  V30 317 H 28.6468 3.69417 1.7319 0
M  V30 318 H 27.3218 4.10694 0.656007 0
M  V30 319 H 25.8988 3.04705 2.14963 0
M  V30 320 N 28.0839 -0.256276 1.55502 0
M  V30 321 C 29.3299 -0.987079 1.77157 0
M  V30 322 C 29.6629 -1.85327 0.580315 0
M  V30 323 O 28.9379 -1.89874 -0.421686 0
M  V30 324 C 29.2209 -1.85553 3.08613 0
M  V30 325 C 29.0739 -1.01816 4.38125 0
M  V30 326 C 30.3929 -2.8397 3.36228 0
M  V30 327 H 27.5119 -0.357428 0.644526 0
M  V30 328 H 30.1539 -0.258239 1.88237 0
M  V30 329 H 28.3039 -2.47695 2.99298 0
M  V30 330 H 29.9759 -0.416159 4.59419 0
M  V30 331 H 28.2189 -0.322178 4.32602 0
M  V30 332 H 28.8899 -1.65939 5.26468 0
M  V30 333 H 31.3659 -2.31964 3.45445 0
M  V30 334 H 30.2419 -3.41864 4.29442 0
M  V30 335 H 30.5029 -3.59955 2.56681 0
M  V30 336 N 29.562 -1.4872 -0.521534 0
M  V30 337 C 30.81 -1.56857 -1.27437 0
M  V30 338 C 31.131 -0.247982 -1.93417 0
M  V30 339 O 30.401 0.731151 -1.81744 0
M  V30 340 H 28.981 -0.577885 -0.473347 0
M  V30 341 H 31.643 -1.85233 -0.606205 0
M  V30 342 H 30.739 -2.35402 -2.0492 0
M  V30 343 N 31.0401 0.771051 -1.3745 0
M  V30 344 C 31.9871 1.88435 -1.3327 0
M  V30 345 C 32.9571 1.64914 -0.198136 0
M  V30 346 O 34.1421 1.86821 -0.387606 0
M  V30 347 C 31.2821 3.25509 -1.14622 0
M  V30 348 C 30.3951 3.60979 -2.37314 0
M  V30 349 C 29.5301 4.87265 -2.11533 0
M  V30 350 C 28.5691 5.15469 -3.30088 0
M  V30 351 N 27.7061 6.32944 -3.03853 0
M  V30 352 H 32.5461 1.91344 -2.28455 0
M  V30 353 H 30.0831 0.935466 -1.13523 0
M  V30 354 H 32.0411 4.04582 -1.01831 0
M  V30 355 H 30.6711 3.21974 -0.230837 0
M  V30 356 H 29.7231 2.76885 -2.60842 0
M  V30 357 H 31.0351 3.77759 -3.25729 0
M  V30 358 H 30.1891 5.74244 -1.95777 0
M  V30 359 H 28.9281 4.7259 -1.20457 0
M  V30 360 H 27.9331 4.26966 -3.46382 0
M  V30 361 H 29.1581 5.32052 -4.22016 0
M  V30 362 H 27.1041 6.19625 -2.15407 0
M  V30 363 H 27.0211 6.50143 -3.85812 0
M  V30 364 H 28.2891 7.22857 -2.91716 0
M  V30 365 N 32.5182 1.22032 0.997298 0
M  V30 366 C 33.7642 1.04376 1.73878 0
M  V30 367 C 34.0972 -0.420716 1.89588 0
M  V30 368 O 33.3722 -1.31202 1.43583 0
M  V30 369 C 33.6552 1.75047 3.14691 0
M  V30 370 C 33.5082 3.29062 3.06656 0
M  V30 371 C 34.8272 1.49928 4.13775 0
M  V30 372 H 31.9462 0.380578 0.631133 0
M  V30 373 H 34.5882 1.50312 1.16217 0
M  V30 374 H 32.7382 1.35996 3.63919 0
M  V30 375 H 34.4102 3.7753 2.65083 0
M  V30 376 H 32.6532 3.58967 2.43568 0
M  V30 377 H 33.3242 3.73683 4.06282 0
M  V30 378 H 35.8002 1.83842 3.73285 0
M  V30 379 H 34.6762 2.01878 5.10428 0
M  V30 380 H 34.9372 0.430929 4.39995 0
M  V30 381 N 33.9963 -1.19345 1.0293 0
M  V30 382 C 35.2433 -1.89038 0.726008 0
M  V30 383 C 35.5713 -1.79649 -0.745427 0
M  V30 384 O 34.8263 -1.18354 -1.55855 0
M  V30 385 C 35.1253 -3.39292 1.12319 0
M  V30 386 C 34.7913 -3.68885 2.59297 0
M  V30 387 C 33.4533 -3.76671 2.99453 0
M  V30 388 C 35.8053 -3.82178 3.54386 0
M  V30 389 C 33.1333 -3.9522 4.33611 0
M  V30 390 C 35.4853 -4.0224 4.88248 0
M  V30 391 C 34.1493 -4.08259 5.28092 0
M  V30 392 H 33.4193 -0.691739 0.265665 0
M  V30 393 H 36.0663 -1.41328 1.29223 0
M  V30 394 H 34.3713 -3.88903 0.475584 0
M  V30 395 H 36.0683 -3.91536 0.866037 0
M  V30 396 H 32.6583 -3.63433 2.27189 0
M  V30 397 H 36.8423 -3.75505 3.24514 0
M  V30 398 H 32.0983 -3.98119 4.64016 0
M  V30 399 H 36.2723 -4.11468 5.61843 0
M  V30 400 H 33.8993 -4.22384 6.32057 0
M  V30 401 N 35.4744 -0.807222 -1.35358 0
M  V30 402 C 36.4374 -0.223665 -2.28106 0
M  V30 403 C 37.4374 0.589354 -1.4961 0
M  V30 404 O 38.6274 0.407745 -1.69361 0
M  V30 405 C 35.7594 0.688149 -3.33882 0
M  V30 406 H 36.9524 -1.04169 -2.81227 0
M  V30 407 H 34.5054 -0.577921 -1.45223 0
M  V30 408 H 35.2404 1.52984 -2.85948 0
M  V30 409 H 35.0254 0.10687 -3.91954 0
M  V30 410 H 36.5154 1.09075 -4.03104 0
M  V30 411 N 36.9525 1.47285 -0.560781 0
M  V30 412 C 37.9005 2.31756 0.197942 0
M  V30 413 C 38.8945 1.43146 0.905854 0
M  V30 414 O 40.1005 1.59891 0.826733 0
M  V30 415 H 36.4755 0.747438 0.0827049 0
M  V30 416 H 38.4465 2.9359 -0.533629 0
M  V30 417 C 37.1955 3.25874 1.21249 0
M  V30 418 H 36.5185 3.94023 0.67719 0
M  V30 419 H 37.9585 3.87803 1.71419 0
M  V30 420 C 36.4175 2.49651 2.26221 0
M  V30 421 O 36.9475 2.24355 3.33208 0
M  V30 422 N 35.1535 2.10597 2.00243 0
M  V30 423 H 34.7005 2.31369 1.13252 0
M  V30 424 H 34.6585 1.59913 2.70694 0
M  V30 425 N 38.4306 0.297415 1.54768 0
M  V30 426 C 39.3936 -0.567375 2.22066 0
M  V30 427 C 40.3936 -1.06409 1.20556 0
M  V30 428 O 41.5836 -0.960691 1.45315 0
M  V30 429 C 38.7156 -1.78517 2.90421 0
M  V30 430 H 39.9086 0.0205534 2.99893 0
M  V30 431 H 37.4616 0.0482163 1.56226 0
M  V30 432 H 38.1966 -2.41303 2.16664 0
M  V30 433 H 37.9816 -1.43669 3.64831 0
M  V30 434 H 39.4716 -2.39964 3.41771 0
M  V30 435 N 39.9087 -1.5758 0.0250728 0
M  V30 436 C 41.1857 -1.82917 -0.692873 0
M  V30 437 C 41.5657 -0.908137 -1.90568 0
M  V30 438 O 40.9137 0.0372298 -2.2847 0
M  V30 439 C 41.1237 -3.32034 -1.07492 0
M  V30 440 C 42.4717 -3.98406 -1.46826 0
M  V30 441 O 43.4957 -3.36505 -1.16801 0
M  V30 442 O 42.3547 -5.07497 -2.02754 0
M  V30 443 H 39.4487 -0.754079 -0.33955 0
M  V30 444 H 41.9947 -1.69619 0.0524456 0
M  V30 445 H 40.7667 -3.90728 -0.211552 0
M  V30 446 H 40.3897 -3.50424 -1.87854 0
M  V30 447 N 41.3868 0.248026 -1.55636 0
M  V30 448 C 42.2968 1.32859 -1.93354 0
M  V30 449 C 43.3128 1.52719 -0.833838 0
M  V30 450 O 44.4888 1.66363 -1.13513 0
M  V30 451 C 41.5538 2.66337 -2.21958 0
M  V30 452 C 40.6148 2.55008 -3.45354 0
M  V30 453 C 39.8478 3.82121 -3.72584 0
M  V30 454 O 40.0708 4.83951 -3.01907 0
M  V30 455 O 39.0048 3.80822 -4.6611 0
M  V30 456 H 42.8308 1.03862 -2.85388 0
M  V30 457 H 40.4158 0.448686 -1.42503 0
M  V30 458 H 42.2978 3.45216 -2.4167 0
M  V30 459 H 40.9728 2.95068 -1.33103 0
M  V30 460 H 39.8798 1.7442 -3.30951 0
M  V30 461 H 41.2128 2.31222 -4.34508 0
M  V30 462 N 42.8649 1.48995 0.513639 0
M  V30 463 C 44.1109 1.59053 1.26783 0
M  V30 464 C 44.4659 0.268136 1.90522 0
M  V30 465 O 43.7589 -0.730534 1.77126 0
M  V30 466 C 43.9529 2.67756 2.36731 0
M  V30 467 C 43.7819 4.10437 1.83771 0
M  V30 468 C 42.5519 4.7738 1.65639 0
M  V30 469 C 44.7499 4.9608 1.35681 0
M  V30 470 N 42.7319 6.04419 1.07476 0
M  V30 471 C 44.1029 6.13496 0.895715 0
M  V30 472 C 46.1579 4.82177 1.24136 0
M  V30 473 C 44.8609 7.1854 0.3306 0
M  V30 474 C 46.8869 5.87358 0.690229 0
M  V30 475 C 46.2489 7.03993 0.239292 0
M  V30 476 H 42.3479 0.636463 0.454355 0
M  V30 477 H 44.9319 1.85948 0.577196 0
M  V30 478 H 43.1029 2.42655 3.03271 0
M  V30 479 H 44.8349 2.67406 3.0377 0
M  V30 480 H 41.5899 4.33974 1.8964 0
M  V30 481 H 42.0139 6.72214 0.803579 0
M  V30 482 H 46.6559 3.92329 1.57601 0
M  V30 483 H 44.3739 8.08098 -0.0163435 0
M  V30 484 H 47.9599 5.78658 0.603852 0
M  V30 485 H 46.8399 7.83992 -0.180526 0
M  V30 486 N 44.343 -0.763751 1.37857 0
M  V30 487 C 45.276 -1.88486 1.28639 0
M  V30 488 C 46.254 -1.61757 0.165363 0
M  V30 489 O 47.438 -1.85391 0.340948 0
M  V30 490 C 44.565 -3.23884 0.990811 0
M  V30 491 C 43.611 -3.69514 2.12983 0
M  V30 492 S 44.444 -3.82244 3.75033 0
M  V30 493 C 45.6 -5.20477 3.47641 0
M  V30 494 H 45.833 -1.96017 2.23527 0
M  V30 495 H 43.366 -0.925684 1.23574 0
M  V30 496 H 45.324 -4.02081 0.827101 0
M  V30 497 H 43.985 -3.14044 0.0592832 0
M  V30 498 H 43.178 -4.67696 1.87821 0
M  V30 499 H 42.78 -2.98441 2.25408 0
M  V30 500 H 45.072 -6.05905 3.03125 0
M  V30 501 H 46.015 -5.50655 4.4518 0
M  V30 502 H 46.423 -4.88793 2.82385 0
M  V30 503 N 45.8211 -1.22559 -0.990812 0
M  V30 504 C 47.0491 -1.07779 -1.76611 0
M  V30 505 C 47.4641 0.371513 -1.85109 0
M  V30 506 O 46.8211 1.25737 -1.32274 0
M  V30 507 C 46.8721 -1.68512 -3.19822 0
M  V30 508 O 46.5931 -3.07774 -3.1178 0
M  V30 509 C 48.0941 -1.59035 -4.13791 0
M  V30 510 H 45.3141 -0.377729 -0.554583 0
M  V30 511 H 47.8581 -1.62195 -1.24551 0
M  V30 512 H 46.0131 -1.18154 -3.68942 0
M  V30 513 H 46.4271 -3.37062 -4.01858 0
M  V30 514 H 47.9011 -2.0625 -5.1202 0
M  V30 515 H 48.3781 -0.547273 -4.35777 0
M  V30 516 H 48.9841 -2.08709 -3.70568 0
M  V30 517 N 47.2992 1.18797 -1.03562 0
M  V30 518 C 48.5272 1.92599 -0.755869 0
M  V30 519 C 48.9422 1.75886 0.686271 0
M  V30 520 O 48.2992 1.08517 1.46732 0
M  V30 521 C 48.3502 3.44159 -1.10619 0
M  V30 522 O 48.0712 3.60341 -2.4917 0
M  V30 523 C 49.5722 4.3507 -0.850214 0
M  V30 524 H 46.7922 0.611587 -0.276048 0
M  V30 525 H 49.3362 1.50742 -1.38192 0
M  V30 526 H 47.4912 3.83823 -0.525194 0
M  V30 527 H 47.9052 4.54128 -2.62427 0
M  V30 528 H 49.3792 5.39989 -1.14523 0
M  V30 529 H 49.8562 4.38673 0.215176 0
M  V30 530 H 50.4622 4.01097 -1.41426 0
M  V30 531 N 48.7773 0.814389 1.34928 0
M  V30 532 C 50.0243 0.398423 1.98542 0
M  V30 533 C 50.3523 -1.03638 1.64589 0
M  V30 534 O 49.6073 -1.73509 0.90516 0
M  V30 535 C 49.9063 0.537781 3.53331 0
M  V30 536 C 49.5723 1.93704 4.07172 0
M  V30 537 C 48.2343 2.31984 4.21589 0
M  V30 538 C 50.5863 2.85213 4.36237 0
M  V30 539 C 47.9143 3.61125 4.62391 0
M  V30 540 C 50.2663 4.13809 4.78482 0
M  V30 541 C 48.9303 4.52077 4.91104 0
M  V30 542 H 48.2003 0.145793 0.726516 0
M  V30 543 H 50.8473 1.03669 1.61012 0
M  V30 544 H 49.1523 -0.183906 3.91368 0
M  V30 545 H 50.8493 0.196588 4.00518 0
M  V30 546 H 47.4393 1.62966 3.96409 0
M  V30 547 H 51.6233 2.56885 4.24645 0
M  V30 548 H 46.8793 3.90612 4.70353 0
M  V30 549 H 51.0533 4.84811 4.99932 0
M  V30 550 H 48.6803 5.52196 5.22478 0
M  V30 551 N 50.2554 -1.46986 0.568584 0
M  V30 552 C 51.6714 -1.57946 0.229189 0
M  V30 553 C 51.8714 -1.56567 -1.26843 0
M  V30 554 O 50.9274 -1.47511 -2.04931 0
M  V30 555 C 52.2404 -2.87963 0.865909 0
M  V30 556 C 53.7884 -3.01568 0.838188 0
M  V30 557 C 54.2634 -4.34301 1.45419 0
M  V30 558 N 55.7544 -4.40965 1.41788 0
M  V30 559 C 56.4894 -5.42256 1.86403 0
M  V30 560 N 55.9854 -6.50297 2.38926 0
M  V30 561 N 57.7784 -5.3337 1.77405 0
M  V30 562 H 49.9294 -1.46126 1.54146 0
M  V30 563 H 52.1924 -0.696156 0.643484 0
M  V30 564 H 51.8984 -2.94742 1.91886 0
M  V30 565 H 51.7724 -3.75423 0.365687 0
M  V30 566 H 54.1594 -2.94379 -0.206106 0
M  V30 567 H 54.2404 -2.1562 1.37629 0
M  V30 568 H 53.8844 -4.42247 2.49761 0
M  V30 569 H 53.8144 -5.19 0.891435 0
M  V30 570 H 56.3054 -3.63484 1.03381 0
M  V30 571 H 56.6184 -7.23777 2.70863 0
M  V30 572 H 54.9634 -6.51155 2.42944 0
M  V30 573 H 58.1544 -4.47865 1.3614 0
M  V30 574 H 58.3274 -6.12169 2.12492 0
M  V30 575 N 51.7335 -0.305618 -1.54608 0
M  V30 576 C 52.6435 0.57778 -2.27374 0
M  V30 577 C 53.6595 1.14451 -1.31061 0
M  V30 578 O 54.8355 1.16831 -1.6405 0
M  V30 579 C 51.9005 1.73123 -3.00382 0
M  V30 580 C 50.9615 1.19812 -4.12242 0
M  V30 581 C 50.1945 2.2966 -4.81759 0
M  V30 582 O 50.4175 3.49651 -4.50666 0
M  V30 583 O 49.3515 1.96091 -5.69062 0
M  V30 584 H 53.1775 -0.012624 -3.03697 0
M  V30 585 H 50.7625 -0.0719184 -1.49227 0
M  V30 586 H 52.6445 2.40315 -3.4616 0
M  V30 587 H 51.3195 2.30815 -2.26949 0
M  V30 588 H 50.2265 0.491798 -3.70853 0
M  V30 589 H 51.5595 0.666566 -4.87666 0
M  V30 590 N 53.2116 1.57565 -0.0334293 0
M  V30 591 C 54.1596 2.1164 0.96496 0
M  V30 592 C 55.1536 1.04398 1.33407 0
M  V30 593 O 56.3596 1.22828 1.3158 0
M  V30 594 H 52.7346 0.676222 0.32898 0
M  V30 595 H 54.7056 2.94455 0.483614 0
M  V30 596 C 53.4546 2.66207 2.23672 0
M  V30 597 H 52.7776 3.48378 1.96145 0
M  V30 598 H 54.2176 3.07685 2.9173 0
M  V30 599 C 52.6766 1.59151 2.96939 0
M  V30 600 O 53.2066 0.993858 3.89211 0
M  V30 601 N 51.4126 1.31093 2.59351 0
M  V30 602 H 50.9596 1.7988 1.84393 0
M  V30 603 H 50.9176 0.596889 3.08682 0
M  V30 604 N 54.6897 -0.239769 1.55765 0
M  V30 605 C 55.9387 -0.964754 1.77131 0
M  V30 606 C 56.2517 -1.86213 0.59868 0
M  V30 607 O 57.4577 -2.6244 0.695522 0
M  V30 608 C 55.9137 -1.76552 3.1362 0
M  V30 609 C 55.5217 -0.915185 4.38553 0
M  V30 610 C 57.2657 -2.48281 3.44321 0
M  V30 611 C 55.1727 -1.71225 5.66071 0
M  V30 612 H 54.1027 -0.363953 0.660344 0
M  V30 613 H 56.7537 -0.219181 1.82186 0
M  V30 614 H 55.1357 -2.55331 3.02691 0
M  V30 615 H 56.3097 -0.169217 4.60489 0
M  V30 616 H 54.6247 -0.310889 4.15238 0
M  V30 617 H 57.2217 -3.08382 4.36812 0
M  V30 618 H 57.5647 -3.20256 2.65973 0
M  V30 619 H 58.0977 -1.76507 3.56497 0
M  V30 620 H 54.8367 -1.03612 6.4726 0
M  V30 621 H 54.3567 -2.43331 5.48224 0
M  V30 622 H 56.0357 -2.27758 6.05587 0
M  V30 623 N 56.1678 -1.49265 -0.50573 0
M  V30 624 C 57.1308 -1.65075 -1.59006 0
M  V30 625 C 58.1308 -0.522768 -1.52065 0
M  V30 626 O 59.3208 -0.789117 -1.55302 0
M  V30 627 C 56.4528 -1.64369 -2.98656 0
M  V30 628 H 57.6458 -2.61784 -1.46319 0
M  V30 629 H 55.1988 -1.38226 -0.729616 0
M  V30 630 H 55.9338 -0.692272 -3.16825 0
M  V30 631 H 55.7188 -2.46282 -3.05103 0
M  V30 632 H 57.2088 -1.78674 -3.77446 0
M  V30 633 N 57.6459 0.756429 -1.3826 0
M  V30 634 C 58.5779 1.87971 -1.31147 0
M  V30 635 C 59.5909 1.61248 -0.224239 0
M  V30 636 O 60.7799 1.71881 -0.481581 0
M  V30 637 C 57.8799 3.23545 -1.00857 0
M  V30 638 C 57.0529 3.77794 -2.20432 0
M  V30 639 C 56.1119 4.91877 -1.86931 0
M  V30 640 O 55.1379 5.06659 -2.59395 0
M  V30 641 N 56.3399 5.74643 -0.822568 0
M  V30 642 H 59.1049 1.94585 -2.2794 0
M  V30 643 H 56.6659 0.936234 -1.32084 0
M  V30 644 H 58.6579 3.97403 -0.765021 0
M  V30 645 H 57.2279 3.12335 -0.128687 0
M  V30 646 H 56.4479 2.95534 -2.6087 0
M  V30 647 H 57.7359 4.10771 -3.00241 0
M  V30 648 H 57.1339 5.65266 -0.221575 0
M  V30 649 H 55.6909 6.48661 -0.638899 0
M  V30 650 N 59.124 1.23083 0.984299 0
M  V30 651 C 60.352 1.08714 1.76037 0
M  V30 652 C 60.767 -0.361691 1.85303 0
M  V30 653 O 60.124 -1.25034 1.32939 0
M  V30 654 C 60.175 1.70206 3.18923 0
M  V30 655 O 59.896 3.09423 3.10144 0
M  V30 656 C 61.397 1.61227 4.12941 0
M  V30 657 H 58.617 0.380664 0.552572 0
M  V30 658 H 61.161 1.62853 1.23689 0
M  V30 659 H 59.316 1.20109 3.6831 0
M  V30 660 H 59.73 3.39188 4.00065 0
M  V30 661 H 61.204 2.08962 5.10919 0
M  V30 662 H 61.681 0.570375 4.35481 0
M  V30 663 H 62.287 2.10671 3.69456 0
M  V30 664 N 60.6021 -1.18246 1.0419 0
M  V30 665 C 61.8481 -1.88793 0.75689 0
M  V30 666 C 62.2031 -1.78909 -0.707767 0
M  V30 667 O 61.4961 -1.1794 -1.50999 0
M  V30 668 C 61.6901 -3.38082 1.15911 0
M  V30 669 C 61.5191 -3.62496 2.66133 0
M  V30 670 C 60.2891 -3.7979 3.33298 0
M  V30 671 C 62.4871 -3.62976 3.64353 0
M  V30 672 N 60.4691 -3.91955 4.72487 0
M  V30 673 C 61.8401 -3.80869 4.89222 0
M  V30 674 C 63.8951 -3.46071 3.57965 0
M  V30 675 C 62.5981 -3.83608 6.08471 0
M  V30 676 C 64.6241 -3.50093 4.76643 0
M  V30 677 C 63.9861 -3.68484 6.00332 0
M  V30 678 H 60.0851 -0.709406 0.32904 0
M  V30 679 H 62.6691 -1.42022 1.33183 0
M  V30 680 H 60.8401 -3.83544 0.612238 0
M  V30 681 H 62.5721 -3.96202 0.824989 0
M  V30 682 H 59.3271 -3.79224 2.83701 0
M  V30 683 H 59.7511 -4.01857 5.44831 0
M  V30 684 H 64.3931 -3.30797 2.63311 0
M  V30 685 H 62.1111 -3.97669 7.0348 0
M  V30 686 H 65.6971 -3.38285 4.73344 0
M  V30 687 H 64.5771 -3.71488 6.90627 0
M  V30 688 N 62.0802 -0.821533 -1.34494 0
M  V30 689 C 63.0122 -0.199946 -2.28326 0
M  V30 690 C 64.0252 0.609377 -1.50965 0
M  V30 691 O 65.2142 0.439285 -1.7301 0
M  V30 692 C 62.3142 0.738431 -3.30757 0
M  V30 693 C 61.4872 -0.0277632 -4.37391 0
M  V30 694 C 60.5462 0.831332 -5.19591 0
M  V30 695 O 59.5722 0.276822 -5.68526 0
M  V30 696 N 60.7742 2.15132 -5.39165 0
M  V30 697 H 63.5392 -1.00609 -2.82308 0
M  V30 698 H 61.1002 -0.678366 -1.47003 0
M  V30 699 H 63.0922 1.31773 -3.82646 0
M  V30 700 H 61.6622 1.44533 -2.7718 0
M  V30 701 H 60.8822 -0.788359 -3.86236 0
M  V30 702 H 62.1702 -0.555251 -5.05761 0
M  V30 703 H 61.5682 2.62559 -5.01078 0
M  V30 704 H 60.1252 2.6795 -5.94177 0
M  V30 705 N 63.5583 1.46682 -0.576371 0
M  V30 706 C 64.4903 2.28341 0.198231 0
M  V30 707 C 65.5033 1.38141 0.861453 0
M  V30 708 O 66.6923 1.62797 0.732082 0
M  V30 709 C 63.7923 3.12986 1.29972 0
M  V30 710 C 62.9653 4.31271 0.729639 0
M  V30 711 C 62.0243 4.97363 1.71803 0
M  V30 712 O 61.0503 5.55156 1.25658 0
M  V30 713 N 62.2523 4.93796 3.05198 0
M  V30 714 H 65.0173 2.9546 -0.502324 0
M  V30 715 H 62.5783 1.56525 -0.413715 0
M  V30 716 H 64.5703 3.54066 1.96008 0
M  V30 717 H 63.1403 2.47984 1.90323 0
M  V30 718 H 62.3603 3.94052 -0.108012 0
M  V30 719 H 63.6483 5.07739 0.328438 0
M  V30 720 H 63.0463 4.48077 3.45317 0
M  V30 721 H 61.6033 5.38837 3.6674 0
M  V30 722 N 65.0364 0.313813 1.54444 0
M  V30 723 C 66.4474 -0.176243 1.85866 0
M  V30 724 C 66.7984 -1.52405 1.23561 0
M  V30 725 O 65.9234 -2.09605 0.538016 0
M  V30 726 C 66.5184 -0.32657 3.37222 0
M  V30 727 C 65.0774 -0.760846 3.6863 0
M  V30 728 C 64.2244 0.123247 2.77026 0
M  V30 729 H 67.1754 0.534418 1.49431 0
M  V30 730 H 67.1964 -1.15908 3.62416 0
M  V30 731 H 66.7084 0.654531 3.82541 0
M  V30 732 H 64.8094 -1.75204 3.28838 0
M  V30 733 H 64.9224 -0.571353 4.75681 0
M  V30 734 H 63.2864 -0.399597 2.51546 0
M  V30 735 H 64.0694 1.10094 3.25168 0
M  V30 736 N 66.5145 -1.57545 0.0417849 0
M  V30 737 C 67.4245 -2.14451 -0.951213 0
M  V30 738 C 68.4405 -1.09992 -1.34825 0
M  V30 739 O 69.6165 -1.42114 -1.42708 0
M  V30 740 C 66.6815 -2.67063 -2.21084 0
M  V30 741 C 65.7425 -3.86284 -1.87304 0
M  V30 742 C 64.9755 -4.36378 -3.07261 0
M  V30 743 O 65.1985 -3.85587 -4.20332 0
M  V30 744 O 64.1325 -5.28077 -2.88822 0
M  V30 745 H 67.9585 -2.99601 -0.497287 0
M  V30 746 H 65.5435 -1.48317 -0.179567 0
M  V30 747 H 67.4255 -3.00914 -2.95006 0
M  V30 748 H 66.1005 -1.84989 -2.65633 0
M  V30 749 H 65.0075 -3.57338 -1.10727 0
M  V30 750 H 66.3405 -4.6956 -1.47562 0
M  V30 751 N 67.9926 0.231505 -1.5589 0
M  V30 752 C 68.9426 1.29007 -1.87993 0
M  V30 753 C 69.9266 1.42764 -0.742102 0
M  V30 754 O 71.1186 1.45747 -1.00433 0
M  V30 755 C 68.2476 2.6425 -2.1915 0
M  V30 756 C 67.3336 2.54435 -3.39299 0
M  V30 757 N 67.7246 2.14262 -4.58176 0
M  V30 758 C 66.0226 2.85416 -3.42715 0
M  V30 759 C 66.7236 2.15455 -5.40328 0
M  V30 760 N 65.6996 2.55558 -4.79783 0
M  V30 761 H 69.5016 0.970213 -2.77424 0
M  V30 762 H 67.0156 0.440097 -1.56323 0
M  V30 763 H 69.0126 3.40665 -2.40319 0
M  V30 764 H 67.6726 2.9709 -1.31025 0
M  V30 765 H 68.6836 1.85554 -4.83518 0
M  V30 766 H 65.3606 3.22693 -2.64906 0
M  V30 767 H 66.7506 1.86605 -6.45467 0
M  V30 768 N 69.4707 1.49531 0.497807 0
M  V30 769 C 70.7007 1.62657 1.27382 0
M  V30 770 C 71.1087 0.298488 1.86831 0
M  V30 771 O 70.4517 -0.72647 1.68725 0
M  V30 772 C 70.5137 2.6393 2.44093 0
M  V30 773 C 70.1777 4.08195 2.05489 0
M  V30 774 C 71.1747 4.949 1.59279 0
M  V30 775 C 68.8597 4.53948 2.15026 0
M  V30 776 C 70.8537 6.25397 1.23113 0
M  V30 777 C 68.5407 5.84458 1.78473 0
M  V30 778 C 69.5387 6.70006 1.32591 0
M  V30 779 O 69.2267 7.98083 0.965327 0
M  V30 780 H 68.9587 0.550429 0.392434 0
M  V30 781 H 71.5127 1.96325 0.603801 0
M  V30 782 H 69.7427 2.25449 3.14181 0
M  V30 783 H 71.4317 2.66552 3.06113 0
M  V30 784 H 72.1977 4.60779 1.51354 0
M  V30 785 H 68.0767 3.87525 2.4969 0
M  V30 786 H 71.6207 6.92125 0.872299 0
M  V30 787 H 67.5177 6.18107 1.86048 0
M  V30 788 H 68.2857 8.11122 1.09652 0
M  V30 789 N 70.9488 -0.749086 1.3866 0
M  V30 790 C 72.2258 -1.4992 1.25632 0
M  V30 791 C 72.6058 -2.10633 -0.140317 0
M  V30 792 O 71.9538 -1.97437 -1.15025 0
M  V30 793 C 72.1638 -2.56195 2.36992 0
M  V30 794 C 73.5118 -3.22972 2.75634 0
M  V30 795 O 74.5358 -2.66502 2.36337 0
M  V30 796 O 73.3948 -4.25122 3.43415 0
M  V30 797 H 70.4888 -0.665067 0.491544 0
M  V30 798 H 73.0348 -0.784113 1.50498 0
M  V30 799 H 71.8068 -2.09612 3.30422 0
M  V30 800 H 71.4298 -3.35279 2.13714 0
M  V30 801 N 72.4269 -1.23603 -0.977757 0
M  V30 802 C 73.3569 -1.04401 -2.0886 0
M  V30 803 C 74.3379 0.0399052 -1.70053 0
M  V30 804 O 75.5229 -0.125246 -1.93796 0
M  V30 805 C 72.6529 -0.637269 -3.41403 0
M  V30 806 C 71.6069 -1.66883 -3.94124 0
M  V30 807 C 70.9329 -1.11745 -5.22893 0
M  V30 808 C 72.2329 -3.06247 -4.23096 0
M  V30 809 H 73.9269 -1.97316 -2.25182 0
M  V30 810 H 71.4729 -0.950096 -1.08209 0
M  V30 811 H 73.4259 -0.48998 -4.18542 0
M  V30 812 H 72.1499 0.327557 -3.24953 0
M  V30 813 H 70.8089 -1.80416 -3.19133 0
M  V30 814 H 70.4569 -0.143527 -5.02795 0
M  V30 815 H 70.1569 -1.80672 -5.59134 0
M  V30 816 H 71.6809 -0.982067 -6.02651 0
M  V30 817 H 73.0949 -2.96001 -4.90975 0
M  V30 818 H 71.4919 -3.72436 -4.70544 0
M  V30 819 H 72.5619 -3.55041 -3.30263 0
M  V30 820 N 73.905 1.17692 -1.04816 0
M  V30 821 C 75.135 1.91508 -0.775128 0
M  V30 822 C 75.543 1.76844 0.67253 0
M  V30 823 O 74.886 1.10057 1.47082 0
M  V30 824 C 74.948 3.43167 -1.0713 0
M  V30 825 C 74.612 3.81612 -2.51438 0
M  V30 826 C 75.609 3.84772 -3.49638 0
M  V30 827 C 73.294 4.12687 -2.86348 0
M  V30 828 C 75.288 4.18469 -4.80794 0
M  V30 829 C 72.975 4.46053 -4.17708 0
M  V30 830 C 73.973 4.48921 -5.14741 0
M  V30 831 O 73.661 4.81504 -6.43746 0
M  V30 832 H 73.393 0.614575 -0.281555 0
M  V30 833 H 75.947 1.50206 -1.40098 0
M  V30 834 H 74.177 3.84745 -0.388342 0
M  V30 835 H 75.866 3.98239 -0.784883 0
M  V30 836 H 76.632 3.60893 -3.24008 0
M  V30 837 H 72.511 4.09627 -2.11486 0
M  V30 838 H 76.055 4.20623 -5.56527 0
M  V30 839 H 71.952 4.69393 -4.43103 0
M  V30 840 H 72.72 4.99377 -6.4851 0
M  V30 841 N 75.3831 0.828654 1.34056 0
M  V30 842 C 76.6321 0.415828 1.97367 0
M  V30 843 C 76.9451 -1.02796 1.6641 0
M  V30 844 O 78.1511 -1.54497 2.23255 0
M  V30 845 C 76.6071 0.692601 3.53173 0
M  V30 846 C 76.2151 2.15038 3.93017 0
M  V30 847 C 77.9591 0.346222 4.23086 0
M  V30 848 C 75.8661 2.37174 5.41758 0
M  V30 849 H 74.7961 0.151755 0.738571 0
M  V30 850 H 77.4471 1.01581 1.52819 0
M  V30 851 H 75.8291 0.0223764 3.95994 0
M  V30 852 H 77.0031 2.86024 3.61285 0
M  V30 853 H 75.3181 2.45875 3.36057 0
M  V30 854 H 77.9151 0.48937 5.32456 0
M  V30 855 H 78.2581 -0.709842 4.10204 0
M  V30 856 H 78.7911 0.971258 3.85761 0
M  V30 857 H 75.5301 3.41308 5.59633 0
M  V30 858 H 75.0501 1.70738 5.74986 0
M  V30 859 H 76.7291 2.19818 6.08514 0
M  V30 860 N 76.8612 -1.46375 0.584142 0
M  V30 861 C 78.2722 -1.86031 0.157959 0
M  V30 862 C 78.6232 -1.48753 -1.27933 0
M  V30 863 O 77.7482 -0.903098 -1.96655 0
M  V30 864 C 78.3432 -3.37642 0.279892 0
M  V30 865 C 76.9022 -3.76289 -0.09143 0
M  V30 866 C 76.0492 -2.7039 0.615178 0
M  V30 867 H 79.0002 -1.37509 0.792274 0
M  V30 868 H 79.0212 -3.77275 -0.494364 0
M  V30 869 H 78.5332 -3.64742 1.32607 0
M  V30 870 H 76.6342 -3.54806 -1.13769 0
M  V30 871 H 76.7472 -4.78246 0.285886 0
M  V30 872 H 75.1112 -2.5464 0.0552833 0
M  V30 873 H 75.8942 -3.0033 1.66303 0
M  V30 874 N 78.3393 -0.321999 -1.54275 0
M  V30 875 C 79.3023 0.531975 -2.22941 0
M  V30 876 C 80.3023 1.04478 -1.22234 0
M  V30 877 O 81.4923 0.937452 -1.46825 0
M  V30 878 C 78.6243 1.73874 -2.93224 0
M  V30 879 H 79.8173 -0.0682612 -2.99822 0
M  V30 880 H 77.3703 -0.0730644 -1.56129 0
M  V30 881 H 78.1053 2.37825 -2.20476 0
M  V30 882 H 77.8903 1.37847 -3.6707 0
M  V30 883 H 79.3803 2.34496 -3.45545 0
M  V30 884 N 79.8174 1.5752 -0.0501392 0
M  V30 885 C 81.0664 1.91827 0.623328 0
M  V30 886 C 81.3794 0.930222 1.72065 0
M  V30 887 O 82.5854 1.1653 2.4522 0
M  V30 888 C 81.0414 3.40692 1.16003 0
M  V30 889 C 80.6494 4.479 0.0948811 0
M  V30 890 C 82.3934 3.84034 1.80881 0
M  V30 891 C 80.3004 5.87879 0.644411 0
M  V30 892 H 79.2304 0.715918 0.236596 0
M  V30 893 H 81.8814 1.83115 -0.118861 0
M  V30 894 H 80.2634 3.44405 1.9545 0
M  V30 895 H 81.4374 4.55775 -0.678675 0
M  V30 896 H 79.7524 4.13892 -0.45637 0
M  V30 897 H 82.3494 4.85984 2.22988 0
M  V30 898 H 82.6924 3.20225 2.6601 0
M  V30 899 H 83.2254 3.82833 1.0809 0
M  V30 900 H 79.9644 6.55282 -0.169229 0
M  V30 901 H 79.4844 5.83567 1.38598 0
M  V30 902 H 81.1634 6.37098 1.12763 0
M  V30 903 N 81.2955 -0.223234 1.56011 0
M  V30 904 C 82.5235 -0.964812 1.83027 0
M  V30 905 C 82.9385 -1.78013 0.62904 0
M  V30 906 O 82.2955 -1.78008 -0.402414 0
M  V30 907 C 82.3465 -1.88373 3.08542 0
M  V30 908 O 82.0675 -1.10137 4.2403 0
M  V30 909 C 83.5685 -2.73934 3.48533 0
M  V30 910 H 80.7885 -0.282842 0.608475 0
M  V30 911 H 83.3325 -0.238971 2.03099 0
M  V30 912 H 81.4875 -2.56354 2.9045 0
M  V30 913 H 81.9015 -1.72501 4.95322 0
M  V30 914 H 83.3755 -3.34117 4.39397 0
M  V30 915 H 83.8525 -3.46244 2.70207 0
M  V30 916 H 84.4585 -2.11369 3.69057 0
M  V30 917 N 82.7736 -1.49793 -0.48987 0
M  V30 918 C 84.0196 -1.61049 -1.24236 0
M  V30 919 C 84.3746 -0.298412 -1.90072 0
M  V30 920 O 83.6676 0.702262 -1.78266 0
M  V30 921 C 83.8616 -2.71488 -2.32441 0
M  V30 922 C 83.6906 -4.13308 -1.77218 0
M  V30 923 C 82.4606 -4.79955 -1.58023 0
M  V30 924 C 84.6586 -4.98176 -1.27772 0
M  V30 925 N 82.6406 -6.06052 -0.978465 0
M  V30 926 C 84.0116 -6.14843 -0.798 0
M  V30 927 C 86.0666 -4.84091 -1.16449 0
M  V30 928 C 84.7696 -7.18975 -0.216245 0
M  V30 929 C 86.7956 -5.88382 -0.596698 0
M  V30 930 C 86.1576 -7.04285 -0.127262 0
M  V30 931 H 82.2566 -0.643611 -0.444172 0
M  V30 932 H 84.8406 -1.86842 -0.54754 0
M  V30 933 H 83.0116 -2.47449 -2.99372 0
M  V30 934 H 84.7436 -2.72205 -2.99477 0
M  V30 935 H 81.4986 -4.36936 -1.82712 0
M  V30 936 H 81.9226 -6.73407 -0.696534 0
M  V30 937 H 86.5646 -3.94786 -1.5134 0
M  V30 938 H 84.2826 -8.0797 0.144903 0
M  V30 939 H 87.8686 -5.79545 -0.511716 0
M  V30 940 H 86.7486 -7.83606 0.30523 0
M  V30 941 N 84.2517 0.741722 -1.39055 0
M  V30 942 C 85.2017 1.84661 -1.33732 0
M  V30 943 C 86.1857 1.59397 -0.219401 0
M  V30 944 O 87.3777 1.71015 -0.456375 0
M  V30 945 C 84.5067 3.22512 -1.17647 0
M  V30 946 C 83.5927 3.53628 -2.34112 0
M  V30 947 N 83.9837 3.55723 -3.59576 0
M  V30 948 C 82.2817 3.83956 -2.26923 0
M  V30 949 C 82.9827 3.84443 -4.36553 0
M  V30 950 N 81.9587 4.01877 -3.66055 0
M  V30 951 H 85.7607 1.84576 -2.28711 0
M  V30 952 H 83.2747 0.939647 -1.32455 0
M  V30 953 H 85.2717 4.01597 -1.11917 0
M  V30 954 H 83.9317 3.2384 -0.236124 0
M  V30 955 H 84.9427 3.37196 -3.93089 0
M  V30 956 H 81.6197 3.92929 -1.41113 0
M  V30 957 H 83.0097 3.92588 -5.45274 0
M  V30 958 N 85.7298 1.2412 0.971189 0
M  V30 959 C 86.6928 1.03156 2.04674 0
M  V30 960 C 87.6928 -0.00990322 1.60797 0
M  V30 961 O 88.8828 0.230729 1.72665 0
M  V30 962 C 86.0148 0.562765 3.36223 0
M  V30 963 H 87.2078 1.98614 2.24705 0
M  V30 964 H 84.7608 1.06293 1.14593 0
M  V30 965 H 85.4958 -0.395176 3.21883 0
M  V30 966 H 85.2808 1.31441 3.69413 0
M  V30 967 H 86.7708 0.437015 4.15307 0
M  V30 968 N 87.2079 -1.17134 1.05439 0
M  V30 969 C 88.6239 -1.39454 0.776201 0
M  V30 970 C 88.8239 -1.91454 -0.628307 0
M  V30 971 O 87.8799 -2.10777 -1.39031 0
M  V30 972 C 89.1929 -2.38305 1.83388 0
M  V30 973 C 90.7409 -2.52006 1.85639 0
M  V30 974 C 91.2159 -3.54133 2.90437 0
M  V30 975 N 92.7069 -3.61653 2.89415 0
M  V30 976 C 93.4419 -4.4044 3.67152 0
M  V30 977 N 92.9379 -5.22721 4.54681 0
M  V30 978 N 94.7309 -4.35337 3.55581 0
M  V30 979 H 86.8819 -0.817134 1.96053 0
M  V30 980 H 89.1449 -0.421626 0.849079 0
M  V30 981 H 88.8509 -2.07173 2.84204 0
M  V30 982 H 88.7249 -3.37841 1.67761 0
M  V30 983 H 91.1119 -2.82447 0.85486 0
M  V30 984 H 91.1929 -1.52537 2.05344 0
M  V30 985 H 90.8369 -3.24431 3.90777 0
M  V30 986 H 90.7669 -4.53313 2.67983 0
M  V30 987 H 93.2579 -3.02909 2.25952 0
M  V30 988 H 93.5709 -5.80027 5.10674 0
M  V30 989 H 91.9159 -5.22093 4.58741 0
M  V30 990 H 95.1069 -3.70112 2.86592 0
M  V30 991 H 95.2799 -4.96494 4.1641 0
M  V30 992 N 88.686 -0.835752 -1.33615 0
M  V30 993 C 89.933 -0.429959 -1.97883 0
M  V30 994 C 90.261 1.01006 -1.66217 0
M  V30 995 O 89.516 1.72047 -0.93265 0
M  V30 996 C 89.815 -0.593925 -3.52431 0
M  V30 997 C 89.481 -2.00158 -4.04039 0
M  V30 998 C 88.143 -2.38662 -4.17844 0
M  V30 999 C 90.495 -2.92117 -4.31644 0
M  V30 1000 C 87.823 -3.68435 -4.56588 0
M  V30 1001 C 90.175 -4.21368 -4.71838 0
M  V30 1002 C 88.839 -4.59833 -4.83849 0
M  V30 1003 H 88.109 -0.157333 -0.724104 0
M  V30 1004 H 90.756 -1.06217 -1.59343 0
M  V30 1005 H 89.061 0.121619 -3.91611 0
M  V30 1006 H 90.758 -0.260282 -4.00154 0
M  V30 1007 H 87.348 -1.69252 -3.93766 0
M  V30 1008 H 91.532 -2.63608 -4.20505 0
M  V30 1009 H 86.788 -3.98046 -4.64079 0
M  V30 1010 H 90.962 -4.92703 -4.92155 0
M  V30 1011 H 88.589 -5.60438 -5.13627 0
M  V30 1012 N 90.1641 1.46063 -0.591896 0
M  V30 1013 C 91.1271 2.28854 0.125973 0
M  V30 1014 C 92.1271 1.38903 0.810107 0
M  V30 1015 O 93.3171 1.61186 0.66066 0
M  V30 1016 C 90.4491 3.19526 1.1881 0
M  V30 1017 H 91.6421 2.93802 -0.601717 0
M  V30 1018 H 89.1951 1.52325 -0.350254 0
M  V30 1019 H 89.9301 2.59345 1.94707 0
M  V30 1020 H 89.7151 3.85766 0.701936 0
M  V30 1021 H 91.2051 3.81817 1.69132 0
M  V30 1022 N 91.6422 0.330177 1.54103 0
M  V30 1023 C 92.8722 -0.271784 2.04805 0
M  V30 1024 C 93.2802 -1.45816 1.20559 0
M  V30 1025 O 92.6232 -1.82247 0.2306 0
M  V30 1026 C 92.6852 -0.763238 3.51305 0
M  V30 1027 C 92.3492 0.301705 4.56003 0
M  V30 1028 C 93.3462 1.13999 5.07248 0
M  V30 1029 C 91.0312 0.451793 5.00264 0
M  V30 1030 C 93.0252 2.11402 6.01322 0
M  V30 1031 C 90.7122 1.42924 5.94151 0
M  V30 1032 C 91.7102 2.25882 6.44567 0
M  V30 1033 O 91.3982 3.21965 7.3661 0
M  V30 1034 H 91.1302 -0.058693 0.673447 0
M  V30 1035 H 93.6842 0.476395 1.99799 0
M  V30 1036 H 91.9142 -1.56244 3.5373 0
M  V30 1037 H 93.6032 -1.28427 3.85047 0
M  V30 1038 H 94.3692 1.03505 4.73827 0
M  V30 1039 H 90.2482 -0.184044 4.60632 0
M  V30 1040 H 93.7922 2.76192 6.40596 0
M  V30 1041 H 89.6892 1.53479 6.26988 0
M  V30 1042 H 90.4572 3.17281 7.54503 0
M  V30 1043 N 93.1203 -1.57491 0.0584922 0
M  V30 1044 C 94.3973 -1.84346 -0.653918 0
M  V30 1045 C 94.7773 -0.948355 -1.88599 0
M  V30 1046 O 94.1253 -0.0112403 -2.28497 0
M  V30 1047 C 94.3353 -3.34239 -1.00425 0
M  V30 1048 C 95.6833 -4.01431 -1.38342 0
M  V30 1049 O 96.7073 -3.38907 -1.09637 0
M  V30 1050 O 95.5663 -5.11683 -1.91943 0
M  V30 1051 H 92.6603 -0.761112 -0.323478 0
M  V30 1052 H 95.2063 -1.6947 0.0884125 0
M  V30 1053 H 93.9783 -3.91089 -0.128625 0
M  V30 1054 H 93.6013 -3.54329 -1.80378 0
M  V30 1055 N 94.5984 0.214957 -1.56127 0
M  V30 1056 C 95.5454 1.26642 -1.92952 0
M  V30 1057 C 96.5154 1.46244 -0.78753 0
M  V30 1058 O 97.7004 1.59704 -1.04399 0
M  V30 1059 C 94.8404 2.6104 -2.25726 0
M  V30 1060 C 93.9534 2.49183 -3.52891 0
M  V30 1061 C 93.0884 3.76149 -3.7508 0
M  V30 1062 C 92.1274 3.59041 -4.95738 0
M  V30 1063 N 91.2644 4.77972 -5.14283 0
M  V30 1064 H 96.1044 0.945384 -2.82607 0
M  V30 1065 H 93.6414 0.455489 -1.3987 0
M  V30 1066 H 95.5994 3.39313 -2.42739 0
M  V30 1067 H 94.2294 2.91227 -1.39236 0
M  V30 1068 H 93.2814 1.6231 -3.44034 0
M  V30 1069 H 94.5934 2.32466 -4.41318 0
M  V30 1070 H 93.7474 4.62865 -3.92226 0
M  V30 1071 H 92.4864 3.95799 -2.84947 0
M  V30 1072 H 91.4914 2.7071 -4.78535 0
M  V30 1073 H 92.7164 3.40856 -5.87362 0
M  V30 1074 H 90.6624 4.97923 -4.27093 0
M  V30 1075 H 90.5794 4.64006 -5.96853 0
M  V30 1076 H 91.8474 5.66096 -5.35869 0
M  V30 1077 N 96.0765 1.50051 0.48192 0
M  V30 1078 C 96.9865 1.7089 1.60728 0
M  V30 1079 C 98.0025 0.591788 1.63627 0
M  V30 1080 O 99.1785 0.868817 1.81696 0
M  V30 1081 C 96.2435 1.78855 2.97005 0
M  V30 1082 C 95.3045 3.02537 3.04581 0
M  V30 1083 C 94.5375 3.10112 4.34357 0
M  V30 1084 O 94.7605 2.24765 5.24249 0
M  V30 1085 O 93.6945 4.02747 4.47301 0
M  V30 1086 H 97.5205 2.66264 1.46072 0
M  V30 1087 H 95.1055 1.34018 0.660264 0
M  V30 1088 H 96.9875 1.86336 3.77964 0
M  V30 1089 H 95.6625 0.866628 3.11883 0
M  V30 1090 H 94.5695 3.00563 2.22739 0
M  V30 1091 H 95.9025 3.94272 2.94636 0
M  V30 1092 N 97.5546 -0.734337 1.39446 0
M  V30 1093 C 98.5016 -1.84835 1.38219 0
M  V30 1094 C 99.4716 -1.64331 0.24179 0
M  V30 1095 O 100.657 -1.85728 0.437002 0
M  V30 1096 C 97.7966 -3.22355 1.23212 0
M  V30 1097 C 96.9096 -3.5456 2.46801 0
M  V30 1098 C 96.0446 -4.81485 2.24377 0
M  V30 1099 C 95.0836 -5.06536 3.43639 0
M  V30 1100 N 94.2206 -6.24665 3.20528 0
M  V30 1101 H 99.0606 -1.85219 2.33448 0
M  V30 1102 H 96.5976 -0.905039 1.15963 0
M  V30 1103 H 98.5556 -4.0174 1.12522 0
M  V30 1104 H 97.1856 -3.21248 0.316121 0
M  V30 1105 H 96.2376 -2.69872 2.68092 0
M  V30 1106 H 97.5496 -3.6899 3.3563 0
M  V30 1107 H 96.7036 -5.68852 2.10933 0
M  V30 1108 H 95.4426 -4.6923 1.32944 0
M  V30 1109 H 94.4476 -4.17632 3.5758 0
M  V30 1110 H 95.6726 -5.20676 4.35974 0
M  V30 1111 H 93.6186 -6.13696 2.3176 0
M  V30 1112 H 93.5356 -6.39685 4.02913 0
M  V30 1113 H 94.8036 -7.14868 3.10779 0
M  V30 1114 N 99.0327 -1.24633 -0.964593 0
M  V30 1115 C 100.261 -1.11501 -1.74285 0
M  V30 1116 C 100.676 0.332165 -1.85855 0
M  V30 1117 O 100.033 1.22903 -1.34911 0
M  V30 1118 C 100.084 -1.75258 -3.16175 0
M  V30 1119 O 99.8047 -3.14318 -3.05182 0
M  V30 1120 C 101.306 -1.67776 -4.10324 0
M  V30 1121 H 98.5257 -0.389407 -0.546446 0
M  V30 1122 H 101.07 -1.64801 -1.21083 0
M  V30 1123 H 99.2247 -1.25954 -3.66353 0
M  V30 1124 H 99.6387 -3.4551 -3.94618 0
M  V30 1125 H 101.113 -2.17064 -5.0753 0
M  V30 1126 H 101.59 -0.639584 -4.34518 0
M  V30 1127 H 102.196 -2.16522 -3.66058 0
M  V30 1128 N 100.511 1.16574 -1.06058 0
M  V30 1129 C 101.788 1.83048 -0.689416 0
M  V30 1130 C 102.168 1.94122 0.829443 0
M  V30 1131 O 101.516 1.48249 1.7388 0
M  V30 1132 C 101.726 3.20186 -1.38859 0
M  V30 1133 C 103.074 3.95989 -1.53226 0
M  V30 1134 O 104.098 3.29696 -1.3483 0
M  V30 1135 O 102.957 5.14813 -1.83384 0
M  V30 1136 H 100.051 0.790258 -0.243764 0
M  V30 1137 H 102.597 1.23797 -1.16071 0
M  V30 1138 H 101.369 3.07146 -2.4244 0
M  V30 1139 H 100.992 3.87112 -0.907216 0
M  V30 1140 N 101.989 0.842826 1.3317 0
M  V30 1141 C 103.405 0.531128 1.50503 0
M  V30 1142 C 103.605 -0.940734 1.78192 0
M  V30 1143 O 102.661 -1.72436 1.84451 0
M  V30 1144 C 103.974 1.40789 2.65705 0
M  V30 1145 C 105.522 1.40708 2.79589 0
M  V30 1146 C 105.997 2.26878 3.97857 0
M  V30 1147 N 107.488 2.24609 4.05099 0
M  V30 1148 C 108.223 2.88019 4.95815 0
M  V30 1149 N 107.719 3.60496 5.9162 0
M  V30 1150 N 109.512 2.77469 4.88843 0
M  V30 1151 H 101.663 1.79557 1.1346 0
M  V30 1152 H 103.926 0.766267 0.558156 0
M  V30 1153 H 103.632 2.454 2.51936 0
M  V30 1154 H 103.506 1.08677 3.61205 0
M  V30 1155 H 105.893 0.368668 2.92788 0
M  V30 1156 H 105.974 1.76829 1.84838 0
M  V30 1157 H 105.618 3.3078 3.85418 0
M  V30 1158 H 105.548 1.88096 4.91861 0
M  V30 1159 H 108.039 1.71906 3.36536 0
M  V30 1160 H 108.352 4.06076 6.57512 0
M  V30 1161 H 106.697 3.64604 5.91683 0
M  V30 1162 H 109.888 2.20406 4.12963 0
M  V30 1163 H 110.061 3.2717 5.59342 0
M  V30 1164 N 103.467 -1.45747 0.599634 0
M  V30 1165 C 104.697 -2.06369 0.0977132 0
M  V30 1166 C 105.105 -1.44624 -1.21985 0
M  V30 1167 O 104.448 -0.551831 -1.75216 0
M  V30 1168 C 104.51 -3.59284 -0.124673 0
M  V30 1169 C 104.174 -4.43318 1.10987 0
M  V30 1170 C 105.171 -4.78796 2.02609 0
M  V30 1171 C 102.856 -4.84194 1.33647 0
M  V30 1172 C 104.85 -5.53997 3.15224 0
M  V30 1173 C 102.537 -5.5915 2.46565 0
M  V30 1174 C 103.535 -5.93968 3.37182 0
M  V30 1175 O 103.223 -6.67405 4.48136 0
M  V30 1176 H 102.955 -0.673122 0.0623153 0
M  V30 1177 H 105.509 -1.88104 0.824981 0
M  V30 1178 H 103.739 -3.75919 -0.906745 0
M  V30 1179 H 105.428 -4.01775 -0.577201 0
M  V30 1180 H 106.194 -4.47781 1.86325 0
M  V30 1181 H 102.073 -4.56534 0.64016 0
M  V30 1182 H 105.617 -5.81091 3.85978 0
M  V30 1183 H 101.514 -5.89579 2.62805 0
M  V30 1184 H 102.282 -6.85847 4.46717 0
M  V30 1185 N 104.945 -0.338344 -1.53925 0
M  V30 1186 C 105.893 0.536231 -2.26335 0
M  V30 1187 C 106.887 1.1063 -1.28286 0
M  V30 1188 O 108.093 1.05264 -1.46012 0
M  V30 1189 H 104.468 0.191602 -0.727181 0
M  V30 1190 H 106.439 -0.0965747 -2.98244 0
M  V30 1191 C 105.188 1.67803 -3.04528 0
M  V30 1192 H 104.511 1.24864 -3.79801 0
M  V30 1193 H 105.951 2.26526 -3.58416 0
M  V30 1194 C 104.41 2.60439 -2.13712 0
M  V30 1195 O 104.94 3.6255 -1.72975 0
M  V30 1196 N 103.146 2.29006 -1.78898 0
M  V30 1197 H 102.693 1.46011 -2.12223 0
M  V30 1198 H 102.651 2.91248 -1.18416 0
M  V30 1199 N 106.423 1.57458 -0.0668435 0
M  V30 1200 C 107.333 2.15937 0.916975 0
M  V30 1201 C 108.349 1.12123 1.33058 0
M  V30 1202 O 109.525 1.44366 1.40429 0
M  V30 1203 C 106.59 2.70547 2.16807 0
M  V30 1204 C 105.651 3.89215 1.81135 0
M  V30 1205 C 104.884 4.41211 3.0028 0
M  V30 1206 O 105.107 3.92225 4.14144 0
M  V30 1207 O 104.041 5.32605 2.80384 0
M  V30 1208 H 107.867 3.00354 0.449561 0
M  V30 1209 H 105.452 1.48584 0.155949 0
M  V30 1210 H 107.334 3.0557 2.90181 0
M  V30 1211 H 106.009 1.89192 2.62656 0
M  V30 1212 H 104.916 3.59054 1.05028 0
M  V30 1213 H 106.249 4.71848 1.40073 0
M  V30 1214 N 107.901 -0.206675 1.56239 0
M  V30 1215 C 109.317 -0.557025 1.49564 0
M  V30 1216 C 109.517 -1.86424 0.764735 0
M  V30 1217 O 108.573 -2.50584 0.310491 0
M  V30 1218 C 109.886 -0.622478 2.94186 0
M  V30 1219 C 111.434 -0.712099 3.04792 0
M  V30 1220 C 111.909 -0.808767 4.50803 0
M  V30 1221 N 113.4 -0.8726 4.54907 0
M  V30 1222 C 114.135 -0.967365 5.65181 0
M  V30 1223 N 113.631 -1.02515 6.85173 0
M  V30 1224 N 115.424 -1.00366 5.53067 0
M  V30 1225 H 107.575 0.650943 2.02179 0
M  V30 1226 H 109.838 0.230387 0.919579 0
M  V30 1227 H 109.544 0.268727 3.50672 0
M  V30 1228 H 109.418 -1.4811 3.46905 0
M  V30 1229 H 111.805 -1.59374 2.48363 0
M  V30 1230 H 111.886 0.172489 2.55218 0
M  V30 1231 H 111.53 0.0684754 5.07854 0
M  V30 1232 H 111.46 -1.70899 4.98098 0
M  V30 1233 H 113.951 -0.837657 3.68499 0
M  V30 1234 H 114.264 -1.09765 7.64965 0
M  V30 1235 H 112.609 -0.994026 6.87855 0
M  V30 1236 H 115.8 -0.95527 4.58249 0
M  V30 1237 H 115.973 -1.07405 6.39037 0
M  V30 1238 N 109.379 -1.50304 -0.473955 0
M  V30 1239 C 110.79 -1.54042 -1.0549 0
M  V30 1240 C 111.141 -0.342248 -1.93192 0
M  V30 1241 O 110.266 0.545157 -2.09421 0
M  V30 1242 C 110.861 -2.79152 -1.91989 0
M  V30 1243 C 109.42 -2.8558 -2.45196 0
M  V30 1244 C 108.567 -2.48295 -1.2347 0
M  V30 1245 H 111.518 -1.5661 -0.256693 0
M  V30 1246 H 111.539 -2.60845 -2.7702 0
M  V30 1247 H 111.051 -3.66339 -1.28131 0
M  V30 1248 H 109.152 -2.02738 -3.12615 0
M  V30 1249 H 109.265 -3.88403 -2.80499 0
M  V30 1250 H 107.629 -2.00669 -1.56856 0
M  V30 1251 H 108.412 -3.37787 -0.612789 0
M  V30 1252 N 110.857 0.726932 -1.39834 0
M  V30 1253 C 112.103 1.48771 -1.38704 0
M  V30 1254 C 112.458 1.92394 0.0146387 0
M  V30 1255 O 111.751 1.64474 0.982797 0
M  V30 1256 C 111.945 2.73495 -2.30077 0
M  V30 1257 C 111.774 2.42068 -3.78989 0
M  V30 1258 C 110.544 2.33966 -4.4787 0
M  V30 1259 C 112.742 2.0708 -4.70768 0
M  V30 1260 N 110.724 1.95095 -5.82075 0
M  V30 1261 C 112.095 1.78719 -5.93683 0
M  V30 1262 C 114.15 1.93618 -4.58712 0
M  V30 1263 C 112.853 1.3825 -7.05889 0
M  V30 1264 C 114.879 1.54553 -5.70848 0
M  V30 1265 C 114.241 1.27082 -6.92842 0
M  V30 1266 H 110.34 0.542919 -0.562817 0
M  V30 1267 H 112.924 0.84408 -1.75452 0
M  V30 1268 H 111.095 3.35625 -1.95474 0
M  V30 1269 H 112.827 3.39755 -2.19883 0
M  V30 1270 H 109.582 2.51331 -4.0141 0
M  V30 1271 H 110.006 1.7823 -6.53118 0
M  V30 1272 H 114.648 2.13522 -3.64922 0
M  V30 1273 H 112.366 1.17088 -7.99572 0
M  V30 1274 H 115.952 1.44731 -5.6351 0
M  V30 1275 H 114.832 0.973069 -7.78139 0
M  V30 1276 N 112.336 1.25143 0.95797 0
M  V30 1277 C 113.584 1.09476 1.69881 0
M  V30 1278 C 113.905 -0.365502 1.91544 0
M  V30 1279 O 113.175 -1.25985 1.50015 0
M  V30 1280 H 111.755 0.402128 0.629525 0
M  V30 1281 H 114.417 1.57214 1.15194 0
M  V30 1282 H 113.513 1.60046 2.6794 0
M  V30 1283 N 113.814 -1.1601 1.06675 0
M  V30 1284 C 115.062 -1.86264 0.784229 0
M  V30 1285 C 115.383 -1.82328 -0.691488 0
M  V30 1286 O 114.653 -1.25947 -1.50047 0
M  V30 1287 H 113.233 -0.689621 0.28711 0
M  V30 1288 H 115.895 -1.40664 1.34906 0
M  V30 1289 H 114.991 -2.91595 1.11259 0
M  V30 1290 N 115.292 -0.849877 -1.32721 0
M  V30 1291 C 116.54 -0.450032 -1.97026 0
M  V30 1292 C 116.861 0.996604 -1.67609 0
M  V30 1293 O 116.131 1.6958 -0.980786 0
M  V30 1294 H 114.711 -0.163426 -0.728904 0
M  V30 1295 H 117.373 -1.08526 -1.6189 0
M  V30 1296 H 116.469 -0.591146 -3.0645 0
M  V30 1297 N 116.77 1.45427 -0.607355 0
M  V30 1298 C 118.017 2.02241 -0.102455 0
M  V30 1299 C 118.345 1.4758 1.26691 0
M  V30 1300 O 117.6 0.640468 1.84923 0
M  V30 1301 C 117.899 3.57398 -0.0129263 0
M  V30 1302 C 117.565 4.3121 -1.31792 0
M  V30 1303 C 116.227 4.51092 -1.67539 0
M  V30 1304 C 118.579 4.73401 -2.18039 0
M  V30 1305 C 115.907 5.10422 -2.89285 0
M  V30 1306 C 118.259 5.34078 -3.39034 0
M  V30 1307 C 116.923 5.52184 -3.75033 0
M  V30 1308 H 116.193 0.740051 -0.037491 0
M  V30 1309 H 118.84 1.74494 -0.788926 0
M  V30 1310 H 117.145 3.84421 0.756806 0
M  V30 1311 H 118.842 3.99061 0.393881 0
M  V30 1312 H 115.432 4.16047 -1.02968 0
M  V30 1313 H 119.616 4.57774 -1.91721 0
M  V30 1314 H 114.872 5.22629 -3.17283 0
M  V30 1315 H 119.046 5.65724 -4.06115 0
M  V30 1316 H 116.673 5.97925 -4.69457 0
M  V30 1317 N 118.248 0.346503 1.53744 0
M  V30 1318 C 119.496 -0.248612 2.00565 0
M  V30 1319 C 119.817 -1.5083 1.23593 0
M  V30 1320 O 119.087 -1.92858 0.343912 0
M  V30 1321 H 117.667 -0.0948564 0.740953 0
M  V30 1322 H 120.329 0.468341 1.89189 0
M  V30 1323 H 119.425 -0.488994 3.08245 0
M  V30 1324 N 119.726 -1.57421 0.075193 0
M  V30 1325 C 120.656 -2.15942 -0.888324 0
M  V30 1326 C 121.637 -1.08737 -1.30806 0
M  V30 1327 O 122.822 -1.36787 -1.37851 0
M  V30 1328 C 119.952 -2.72379 -2.1547 0
M  V30 1329 C 118.906 -3.8478 -1.87425 0
M  V30 1330 C 118.232 -4.27834 -3.20721 0
M  V30 1331 C 119.532 -5.08869 -1.17684 0
M  V30 1332 H 121.226 -2.96705 -0.400799 0
M  V30 1333 H 118.772 -1.42723 -0.191342 0
M  V30 1334 H 120.725 -3.11965 -2.83295 0
M  V30 1335 H 119.449 -1.88841 -2.6647 0
M  V30 1336 H 118.108 -3.45703 -1.22004 0
M  V30 1337 H 117.756 -3.41214 -3.6957 0
M  V30 1338 H 117.456 -5.03605 -3.02746 0
M  V30 1339 H 118.98 -4.70039 -3.89738 0
M  V30 1340 H 120.394 -5.4575 -1.75584 0
M  V30 1341 H 118.791 -5.8994 -1.09956 0
M  V30 1342 H 119.861 -4.84648 -0.156453 0
M  V30 1343 N 121.204 0.198386 -1.56346 0
M  V30 1344 C 122.429 0.939682 -1.84891 0
M  V30 1345 C 122.854 1.76202 -0.658369 0
M  V30 1346 O 122.212 1.76993 0.392851 0
M  V30 1347 C 122.26 1.81428 -3.11635 0
M  V30 1348 O 121.364 2.91265 -2.91956 0
M  V30 1349 H 120.705 0.264807 -0.608912 0
M  V30 1350 H 123.235 0.204695 -2.03573 0
M  V30 1351 H 123.245 2.21958 -3.42343 0
M  V30 1352 H 121.92 1.21004 -3.97908 0
M  V30 1353 H 120.497 2.54514 -2.72538 0
M  V30 1354 N 122.682 1.50554 0.465978 0
M  V30 1355 C 124.098 1.38093 0.800154 0
M  V30 1356 C 124.298 0.440988 1.96615 0
M  V30 1357 O 123.354 -0.114499 2.5224 0
M  V30 1358 C 124.667 2.79565 1.10742 0
M  V30 1359 C 126.215 2.88516 1.21357 0
M  V30 1360 C 126.69 4.30833 1.55393 0
M  V30 1361 N 128.181 4.33807 1.62375 0
M  V30 1362 C 128.916 5.40927 1.90225 0
M  V30 1363 N 128.412 6.58247 2.16062 0
M  V30 1364 N 130.205 5.28376 1.9177 0
M  V30 1365 H 122.356 2.10237 -0.302366 0
M  V30 1366 H 124.619 0.945203 -0.0727746 0
M  V30 1367 H 124.325 3.50208 0.323661 0
M  V30 1368 H 124.199 3.17125 2.04234 0
M  V30 1369 H 126.586 2.1809 1.98799 0
M  V30 1370 H 126.667 2.54492 0.258321 0
M  V30 1371 H 126.311 5.01799 0.784889 0
M  V30 1372 H 126.241 4.62347 2.52076 0
M  V30 1373 H 128.732 3.49212 1.44427 0
M  V30 1374 H 129.045 7.3569 2.36601 0
M  V30 1375 H 127.39 6.61413 2.13444 0
M  V30 1376 H 130.581 4.35715 1.71085 0
M  V30 1377 H 130.754 6.11944 2.13139 0
M  V30 1378 N 124.16 -0.719506 1.40217 0
M  V30 1379 C 125.406 -1.48034 1.39491 0
M  V30 1380 C 125.761 -1.92399 -0.00443536 0
M  V30 1381 O 125.054 -1.64993 -0.974061 0
M  V30 1382 C 125.248 -2.72271 2.31524 0
M  V30 1383 C 125.077 -2.40055 3.80268 0
M  V30 1384 C 123.847 -2.31588 4.49105 0
M  V30 1385 C 126.045 -2.04581 4.71859 0
M  V30 1386 N 124.027 -1.92006 5.83101 0
M  V30 1387 C 125.398 -1.75568 5.94623 0
M  V30 1388 C 127.453 -1.91183 4.59732 0
M  V30 1389 C 126.156 -1.34505 7.06612 0
M  V30 1390 C 128.182 -1.51524 5.71659 0
M  V30 1391 C 127.544 -1.23406 6.93506 0
M  V30 1392 H 123.643 -0.539927 0.565688 0
M  V30 1393 H 126.227 -0.834764 1.75897 0
M  V30 1394 H 124.398 -3.34584 1.97251 0
M  V30 1395 H 126.13 -3.38584 2.21682 0
M  V30 1396 H 122.885 -2.49199 4.02737 0
M  V30 1397 H 123.309 -1.74764 6.54054 0
M  V30 1398 H 127.951 -2.11584 3.66049 0
M  V30 1399 H 125.669 -1.12846 8.00182 0
M  V30 1400 H 129.255 -1.41741 5.6427 0
M  V30 1401 H 128.135 -0.931788 7.78645 0
M  V30 1402 N 125.638 -1.25649 -0.95132 0
M  V30 1403 C 126.915 -1.01361 -1.67288 0
M  V30 1404 C 127.295 0.459135 -2.06046 0
M  V30 1405 O 126.643 1.43723 -1.7764 0
M  V30 1406 C 126.853 -1.95256 -2.89268 0
M  V30 1407 C 128.201 -2.23289 -3.61147 0
M  V30 1408 O 129.225 -1.93041 -2.99355 0
M  V30 1409 O 128.084 -2.74741 -4.72419 0
M  V30 1410 H 125.178 -0.38464 -0.732107 0
M  V30 1411 H 127.724 -1.36817 -1.00395 0
M  V30 1412 H 126.496 -2.94685 -2.57442 0
M  V30 1413 H 126.119 -1.60218 -3.6389 0
M  V30 1414 N 127.117 1.15442 -1.07289 0
M  V30 1415 C 128.027 2.23786 -0.704057 0
M  V30 1416 C 129.043 1.7166 0.284413 0
M  V30 1417 O 130.219 2.00972 0.131205 0
M  V30 1418 C 127.284 3.46535 -0.106792 0
M  V30 1419 C 126.345 4.13654 -1.14842 0
M  V30 1420 C 125.578 5.30544 -0.57956 0
M  V30 1421 O 125.801 5.67187 0.604585 0
M  V30 1422 O 124.735 5.87154 -1.32414 0
M  V30 1423 H 128.561 2.57664 -1.60757 0
M  V30 1424 H 126.146 1.23152 -0.845803 0
M  V30 1425 H 128.028 4.20804 0.224048 0
M  V30 1426 H 126.703 3.14407 0.770049 0
M  V30 1427 H 125.61 3.4131 -1.5316 0
M  V30 1428 H 126.943 4.49861 -1.99714 0
M  V30 1429 N 128.595 0.856903 1.32268 0
M  V30 1430 C 129.542 0.301172 2.28827 0
M  V30 1431 C 130.512 -0.593104 1.5515 0
M  V30 1432 O 131.697 -0.527537 1.83362 0
M  V30 1433 C 128.837 -0.502523 3.41422 0
M  V30 1434 C 127.95 0.417797 4.29975 0
M  V30 1435 C 127.085 -0.398749 5.29701 0
M  V30 1436 C 126.124 0.518827 6.09897 0
M  V30 1437 N 125.261 -0.260674 7.01616 0
M  V30 1438 H 130.101 1.12983 2.75751 0
M  V30 1439 H 127.638 0.568582 1.35667 0
M  V30 1440 H 129.596 -0.984141 4.05426 0
M  V30 1441 H 128.226 -1.29599 2.95642 0
M  V30 1442 H 127.278 1.01781 3.66531 0
M  V30 1443 H 128.59 1.12191 4.86019 0
M  V30 1444 H 127.744 -0.943435 5.9932 0
M  V30 1445 H 126.483 -1.13622 4.7428 0
M  V30 1446 H 125.488 1.07538 5.39181 0
M  V30 1447 H 126.713 1.25495 6.67404 0
M  V30 1448 H 124.659 -0.981198 6.4862 0
M  V30 1449 H 124.576 0.384364 7.55022 0
M  V30 1450 H 125.844 -0.787014 7.75517 0
M  V30 1451 N 130.073 -1.45103 0.615059 0
M  V30 1452 C 131.321 -2.01784 0.112955 0
M  V30 1453 C 131.642 -1.48504 -1.26378 0
M  V30 1454 O 130.912 -0.682245 -1.83636 0
M  V30 1455 H 129.492 -0.745993 0.0387668 0
M  V30 1456 H 132.154 -1.77808 0.798141 0
M  V30 1457 H 131.25 -3.12025 0.0684069 0
M  V30 1458 N 131.551 -0.354651 -1.53558 0
M  V30 1459 C 132.499 0.512195 -2.26891 0
M  V30 1460 C 133.493 1.09263 -1.29452 0
M  V30 1461 O 134.699 1.03709 -1.47121 0
M  V30 1462 H 131.074 0.183878 -0.729173 0
M  V30 1463 H 133.045 -0.128202 -2.98124 0
M  V30 1464 C 131.794 1.64563 -3.06291 0
M  V30 1465 H 131.117 1.20829 -3.81104 0
M  V30 1466 H 132.557 2.22711 -3.60799 0
M  V30 1467 C 131.016 2.58158 -2.16462 0
M  V30 1468 O 131.546 3.60695 -1.76811 0
M  V30 1469 N 129.752 2.27096 -1.81317 0
M  V30 1470 H 129.299 1.43751 -2.1376 0
M  V30 1471 H 129.257 2.89975 -1.21498 0
M  V30 1472 N 133.029 1.57378 -0.0835403 0
M  V30 1473 C 134.275 1.95025 0.577664 0
M  V30 1474 C 134.63 0.964049 1.66505 0
M  V30 1475 O 133.923 -0.0118235 1.91596 0
M  V30 1476 C 134.117 3.37063 1.1884 0
M  V30 1477 C 133.946 4.49409 0.16171 0
M  V30 1478 C 132.716 5.04642 -0.257756 0
M  V30 1479 C 134.914 5.10722 -0.605634 0
M  V30 1480 N 132.896 6.00537 -1.27393 0
M  V30 1481 C 134.267 6.02225 -1.47395 0
M  V30 1482 C 136.322 4.93501 -0.660418 0
M  V30 1483 C 135.025 6.78355 -2.39221 0
M  V30 1484 C 137.051 5.70283 -1.56623 0
M  V30 1485 C 136.413 6.61444 -2.4222 0
M  V30 1486 H 132.512 0.760512 0.182058 0
M  V30 1487 H 135.096 1.94013 -0.163419 0
M  V30 1488 H 133.267 3.3879 1.89936 0
M  V30 1489 H 134.999 3.61917 1.81103 0
M  V30 1490 H 131.754 4.73428 0.127702 0
M  V30 1491 H 132.178 6.53184 -1.77987 0
M  V30 1492 H 136.82 4.22798 -0.0128221 0
M  V30 1493 H 134.538 7.48327 -3.05011 0
M  V30 1494 H 138.124 5.58976 -1.61361 0
M  V30 1495 H 137.004 7.1982 -3.11174 0
M  V30 1496 N 134.507 -0.190092 1.56449 0
M  V30 1497 C 135.457 -1.23977 1.91347 0
M  V30 1498 C 136.441 -1.40747 0.779693 0
M  V30 1499 O 137.633 -1.43033 1.04262 0
M  V30 1500 C 134.762 -2.58347 2.26079 0
M  V30 1501 C 133.848 -2.4535 3.45925 0
M  V30 1502 N 134.239 -2.02039 4.63696 0
M  V30 1503 C 132.537 -2.76229 3.50162 0
M  V30 1504 C 133.238 -2.01053 5.4585 0
M  V30 1505 N 132.214 -2.42747 4.8639 0
M  V30 1506 H 136.016 -0.896318 2.79899 0
M  V30 1507 H 133.53 -0.398496 1.57435 0
M  V30 1508 H 135.527 -3.34173 2.49267 0
M  V30 1509 H 134.187 -2.93512 1.38856 0
M  V30 1510 H 135.198 -1.7267 4.88268 0
M  V30 1511 H 131.875 -3.15556 2.73369 0
M  V30 1512 H 133.265 -1.69426 6.50188 0
M  V30 1513 N 135.985 -1.50799 -0.457987 0
M  V30 1514 C 137.233 -1.62121 -1.2067 0
M  V30 1515 C 137.554 -0.329793 -1.92191 0
M  V30 1516 O 136.824 0.653409 -1.84682 0
M  V30 1517 H 135.404 -0.597441 -0.448411 0
M  V30 1518 H 138.066 -1.87637 -0.527096 0
M  V30 1519 H 137.162 -2.43882 -1.94751 0
M  V30 1520 N 137.463 0.71206 -1.40597 0
M  V30 1521 C 138.393 1.83889 -1.43899 0
M  V30 1522 C 139.374 1.67442 -0.299504 0
M  V30 1523 O 140.559 1.87421 -0.508624 0
M  V30 1524 C 137.689 3.21877 -1.30431 0
M  V30 1525 C 136.643 3.53002 -2.42019 0
M  V30 1526 C 135.969 4.90172 -2.13626 0
M  V30 1527 C 137.269 3.53643 -3.84362 0
M  V30 1528 H 138.963 1.81383 -2.38203 0
M  V30 1529 H 136.509 0.871237 -1.14654 0
M  V30 1530 H 138.462 4.00404 -1.31357 0
M  V30 1531 H 137.186 3.24968 -0.326049 0
M  V30 1532 H 135.845 2.76818 -2.40349 0
M  V30 1533 H 135.493 4.89869 -1.14182 0
M  V30 1534 H 135.193 5.11962 -2.88389 0
M  V30 1535 H 136.717 5.71028 -2.1624 0
M  V30 1536 H 138.131 4.22203 -3.87837 0
M  V30 1537 H 136.528 3.86961 -4.58673 0
M  V30 1538 H 137.598 2.52954 -4.13693 0
M  V30 1539 N 138.941 1.26152 0.944643 0
M  V30 1540 C 140.171 1.14094 1.72239 0
M  V30 1541 C 140.579 -0.306931 1.86694 0
M  V30 1542 O 139.922 -1.22222 1.3714 0
M  V30 1543 C 139.984 1.73316 3.14963 0
M  V30 1544 C 139.648 3.2239 3.23904 0
M  V30 1545 C 140.645 4.19252 3.07447 0
M  V30 1546 C 138.33 3.62788 3.47405 0
M  V30 1547 C 140.324 5.54491 3.14353 0
M  V30 1548 C 138.011 4.98162 3.53947 0
M  V30 1549 C 139.009 5.93823 3.37436 0
M  V30 1550 O 138.697 7.26732 3.43679 0
M  V30 1551 H 138.429 0.398292 0.546205 0
M  V30 1552 H 140.983 1.67201 1.19301 0
M  V30 1553 H 139.213 1.14667 3.69308 0
M  V30 1554 H 140.902 1.56214 3.74636 0
M  V30 1555 H 141.668 3.8938 2.8915 0
M  V30 1556 H 137.547 2.88816 3.59313 0
M  V30 1557 H 141.091 6.29137 3.01384 0
M  V30 1558 H 136.988 5.27695 3.71763 0
M  V30 1559 H 137.756 7.3496 3.60245 0
M  V30 1560 N 140.419 -1.14872 1.07899 0
M  V30 1561 C 141.382 -2.17986 0.708161 0
M  V30 1562 C 142.382 -1.58775 -0.25442 0
M  V30 1563 O 143.572 -1.74166 -0.034645 0
M  V30 1564 C 140.704 -3.40871 0.0446929 0
M  V30 1565 H 141.897 -2.52306 1.62116 0
M  V30 1566 H 139.45 -1.2943 0.876218 0
M  V30 1567 H 140.185 -3.12124 -0.880281 0
M  V30 1568 H 139.97 -3.8511 0.737091 0
M  V30 1569 H 141.46 -4.17121 -0.19991 0
M  V30 1570 N 141.898 -0.863906 -1.31812 0
M  V30 1571 C 142.831 -0.259963 -2.26714 0
M  V30 1572 C 143.809 0.607392 -1.50829 0
M  V30 1573 O 144.993 0.562155 -1.79922 0
M  V30 1574 C 142.12 0.632456 -3.32743 0
M  V30 1575 C 141.166 -0.162743 -4.26189 0
M  V30 1576 S 141.999 -1.53726 -5.12961 0
M  V30 1577 C 143.155 -0.650803 -6.22507 0
M  V30 1578 H 143.388 -1.06445 -2.77591 0
M  V30 1579 H 140.921 -0.662071 -1.39485 0
M  V30 1580 H 142.879 1.14167 -3.94305 0
M  V30 1581 H 141.54 1.41083 -2.80632 0
M  V30 1582 H 140.733 0.517366 -5.01338 0
M  V30 1583 H 140.335 -0.60385 -3.69093 0
M  V30 1584 H 142.627 0.141134 -6.77353 0
M  V30 1585 H 143.57 -1.37322 -6.94657 0
M  V30 1586 H 143.978 -0.221041 -5.64067 0
M  V30 1587 N 143.376 1.44774 -0.622745 0
M  V30 1588 C 144.339 2.29069 0.0774015 0
M  V30 1589 C 145.339 1.4059 0.780461 0
M  V30 1590 O 146.529 1.62551 0.626322 0
M  V30 1591 C 143.661 3.21974 1.12006 0
M  V30 1592 H 144.854 2.92459 -0.663901 0
M  V30 1593 H 142.407 1.51548 -0.382486 0
M  V30 1594 H 143.142 2.63417 1.89162 0
M  V30 1595 H 142.927 3.87168 0.619951 0
M  V30 1596 H 144.417 3.85318 1.60995 0
M  V30 1597 N 144.854 0.36279 1.53368 0
M  V30 1598 C 146.101 -0.227776 2.01215 0
M  V30 1599 C 146.429 -1.49003 1.25014 0
M  V30 1600 O 145.684 -1.92876 0.331236 0
M  V30 1601 C 145.983 -0.568417 3.52851 0
M  V30 1602 C 145.649 0.59918 4.46901 0
M  V30 1603 C 144.311 0.919559 4.72332 0
M  V30 1604 C 146.663 1.38156 5.02556 0
M  V30 1605 C 143.991 2.02434 5.5067 0
M  V30 1606 C 146.343 2.47674 5.821 0
M  V30 1607 C 145.007 2.8025 6.05819 0
M  V30 1608 H 144.277 -0.083349 0.736297 0
M  V30 1609 H 146.924 0.494677 1.85001 0
M  V30 1610 H 145.229 -1.37185 3.66998 0
M  V30 1611 H 146.926 -1.03756 3.87344 0
M  V30 1612 H 143.516 0.339437 4.27254 0
M  V30 1613 H 147.7 1.14729 4.82857 0
M  V30 1614 H 142.956 2.28075 5.67267 0
M  V30 1615 H 147.13 3.08716 6.24234 0
M  V30 1616 H 144.757 3.65979 6.66306 0
M  V30 1617 N 146.332 -1.57332 0.0918853 0
M  V30 1618 C 147.279 -2.13847 -0.868211 0
M  V30 1619 C 148.249 -1.05618 -1.28196 0
M  V30 1620 O 149.434 -1.33387 -1.36427 0
M  V30 1621 C 146.574 -2.72062 -2.12312 0
M  V30 1622 C 145.687 -3.94514 -1.7602 0
M  V30 1623 C 144.822 -4.40903 -2.96273 0
M  V30 1624 C 143.861 -5.55953 -2.56092 0
M  V30 1625 N 142.998 -5.97209 -3.69169 0
M  V30 1626 H 147.838 -2.95575 -0.379406 0
M  V30 1627 H 145.375 -1.46048 -0.175606 0
M  V30 1628 H 147.333 -3.03931 -2.858 0
M  V30 1629 H 145.963 -1.93068 -2.58698 0
M  V30 1630 H 145.015 -3.68979 -0.925135 0
M  V30 1631 H 146.327 -4.7802 -1.42472 0
M  V30 1632 H 145.481 -4.74539 -3.78018 0
M  V30 1633 H 144.22 -3.56291 -3.33029 0
M  V30 1634 H 143.225 -5.21948 -1.72773 0
M  V30 1635 H 144.45 -6.42311 -2.20484 0
M  V30 1636 H 142.396 -5.15543 -4.05649 0
M  V30 1637 H 142.313 -6.75504 -3.39456 0
M  V30 1638 H 143.581 -6.35475 -4.51434 0
M  V30 1639 N 147.81 0.181792 -1.56548 0
M  V30 1640 C 149.087 0.926765 -1.72251 0
M  V30 1641 C 149.467 2.00831 -0.650386 0
M  V30 1642 O 148.815 2.26008 0.336521 0
M  V30 1643 C 149.025 1.50106 -3.1507 0
M  V30 1644 C 150.373 1.97805 -3.75711 0
M  V30 1645 O 151.397 1.59922 -3.18282 0
M  V30 1646 O 150.256 2.67555 -4.76525 0
M  V30 1647 H 147.35 0.435506 -0.703039 0
M  V30 1648 H 149.896 0.170443 -1.68842 0
M  V30 1649 H 148.668 0.72212 -3.84579 0
M  V30 1650 H 148.291 2.32186 -3.22763 0
M  V30 1651 N 149.288 1.51039 0.449983 0
M  V30 1652 C 150.513 1.6715 1.22783 0
M  V30 1653 C 150.938 0.363081 1.84563 0
M  V30 1654 O 150.296 -0.675433 1.68249 0
M  V30 1655 C 150.344 2.77985 2.29689 0
M  V30 1656 O 149.448 2.40707 3.34864 0
M  V30 1657 H 148.789 0.557746 0.360299 0
M  V30 1658 H 151.319 1.97535 0.533005 0
M  V30 1659 H 151.329 3.01693 2.74673 0
M  V30 1660 H 150.004 3.72935 1.84098 0
M  V30 1661 H 148.581 2.27523 2.95445 0
M  V30 1662 N 150.766 -0.704594 1.40972 0
M  V30 1663 C 152.012 -1.46546 1.41053 0
M  V30 1664 C 152.367 -1.92393 0.0159714 0
M  V30 1665 O 151.66 -1.66017 -0.956506 0
M  V30 1666 C 151.854 -2.698 2.34399 0
M  V30 1667 C 151.683 -2.36008 3.82793 0
M  V30 1668 C 150.453 -2.26812 4.51536 0
M  V30 1669 C 152.651 -1.99565 4.74003 0
M  V30 1670 N 150.633 -1.8581 5.85105 0
M  V30 1671 C 152.004 -1.69251 5.96451 0
M  V30 1672 C 154.059 -1.86296 4.61734 0
M  V30 1673 C 152.762 -1.27003 7.07999 0
M  V30 1674 C 154.788 -1.45452 5.73234 0
M  V30 1675 C 154.15 -1.16043 6.94776 0
M  V30 1676 H 150.249 -0.533896 0.571383 0
M  V30 1677 H 152.833 -0.816061 1.76773 0
M  V30 1678 H 151.004 -3.32473 2.00789 0
M  V30 1679 H 152.736 -3.36214 2.25261 0
M  V30 1680 H 149.491 -2.44913 4.05357 0
M  V30 1681 H 149.915 -1.67817 6.55871 0
M  V30 1682 H 154.557 -2.0769 3.68273 0
M  V30 1683 H 152.275 -1.04353 8.01334 0
M  V30 1684 H 155.861 -1.35748 5.65742 0
M  V30 1685 H 154.741 -0.84915 7.79589 0
M  V30 1686 N 152.244 -1.26651 -0.937939 0
M  V30 1687 C 153.192 -1.08308 -2.05845 0
M  V30 1688 C 154.186 -0.0090757 -1.69398 0
M  V30 1689 O 155.392 -0.166007 -1.79233 0
M  V30 1690 H 151.767 -0.333416 -0.674046 0
M  V30 1691 H 153.738 -2.03261 -2.18467 0
M  V30 1692 C 152.487 -0.736229 -3.39816 0
M  V30 1693 H 151.81 -1.55453 -3.6834 0
M  V30 1694 H 153.25 -0.64769 -4.19024 0
M  V30 1695 C 151.709 0.558824 -3.32233 0
M  V30 1696 O 152.239 1.59621 -3.68624 0
M  V30 1697 N 150.445 0.550657 -2.85335 0
M  V30 1698 H 149.992 -0.293943 -2.55917 0
M  V30 1699 H 149.95 1.41726 -2.80644 0
M  V30 1700 N 153.722 1.14298 -1.08507 0
M  V30 1701 C 154.669 2.19414 -0.715965 0
M  V30 1702 C 155.639 1.63399 0.298326 0
M  V30 1703 O 156.824 1.89929 0.182101 0
M  V30 1704 C 153.964 3.44845 -0.132534 0
M  V30 1705 C 153.077 4.15007 -1.19973 0
M  V30 1706 C 152.212 5.28024 -0.580048 0
M  V30 1707 C 151.251 5.9002 -1.62921 0
M  V30 1708 N 150.388 6.94485 -1.03125 0
M  V30 1709 H 155.228 2.50336 -1.61666 0
M  V30 1710 H 152.765 1.2293 -0.807882 0
M  V30 1711 H 154.723 4.16601 0.223454 0
M  V30 1712 H 153.353 3.14403 0.731467 0
M  V30 1713 H 152.405 3.41629 -1.67313 0
M  V30 1714 H 153.717 4.57178 -1.99473 0
M  V30 1715 H 152.871 6.06455 -0.172364 0
M  V30 1716 H 151.61 4.87076 0.246603 0
M  V30 1717 H 150.615 5.10291 -2.04654 0
M  V30 1718 H 151.84 6.33042 -2.45835 0
M  V30 1719 H 149.786 6.55612 -0.225711 0
M  V30 1720 H 149.703 7.35148 -1.76334 0
M  V30 1721 H 150.971 7.7679 -0.649458 0
M  V30 1722 N 155.201 0.870884 1.31352 0
M  V30 1723 C 156.447 0.492314 1.97352 0
M  V30 1724 C 156.802 -0.945174 1.67583 0
M  V30 1725 O 156.095 -1.65674 0.962423 0
M  V30 1726 C 156.289 0.687157 3.50732 0
M  V30 1727 C 156.118 2.14203 3.95407 0
M  V30 1728 C 154.888 2.78382 4.21701 0
M  V30 1729 C 157.086 3.1144 4.09279 0
M  V30 1730 N 155.068 4.14611 4.52737 0
M  V30 1731 C 156.439 4.32702 4.44037 0
M  V30 1732 C 158.494 3.07418 3.91661 0
M  V30 1733 C 157.197 5.50463 4.63015 0
M  V30 1734 C 159.223 4.24438 4.11833 0
M  V30 1735 C 158.585 5.44463 4.46923 0
M  V30 1736 H 154.684 0.229206 0.747655 0
M  V30 1737 H 157.268 1.12568 1.5886 0
M  V30 1738 H 155.439 0.083384 3.8831 0
M  V30 1739 H 157.171 0.276883 4.03752 0
M  V30 1740 H 153.926 2.29326 4.14375 0
M  V30 1741 H 154.35 4.84928 4.72413 0
M  V30 1742 H 158.992 2.15732 3.6362 0
M  V30 1743 H 156.71 6.42666 4.89904 0
M  V30 1744 H 160.296 4.2278 3.99685 0
M  V30 1745 H 159.176 6.33504 4.62214 0
M  V30 1746 N 156.679 -1.44442 0.630414 0
M  V30 1747 C 157.589 -2.34476 -0.0761693 0
M  V30 1748 C 158.605 -1.52576 -0.836449 0
M  V30 1749 O 159.781 -1.85307 -0.788874 0
M  V30 1750 C 156.846 -3.30545 -1.04599 0
M  V30 1751 C 155.907 -4.28352 -0.28516 0
M  V30 1752 C 155.14 -5.19831 -1.20878 0
M  V30 1753 O 155.363 -5.15223 -2.44747 0
M  V30 1754 O 154.297 -5.97892 -0.693491 0
M  V30 1755 H 158.123 -2.96345 0.664324 0
M  V30 1756 H 155.708 -1.44203 0.39061 0
M  V30 1757 H 157.59 -3.89681 -1.60396 0
M  V30 1758 H 156.265 -2.7121 -1.76711 0
M  V30 1759 H 155.172 -3.72764 0.315837 0
M  V30 1760 H 156.505 -4.90605 0.395924 0
M  V30 1761 N 158.157 -0.370918 -1.53173 0
M  V30 1762 C 159.568 0.107139 -1.86392 0
M  V30 1763 C 159.919 1.47714 -1.29132 0
M  V30 1764 O 159.044 2.07464 -0.615439 0
M  V30 1765 C 159.639 0.201187 -3.38202 0
M  V30 1766 C 158.198 0.623507 -3.712 0
M  V30 1767 C 157.345 -0.225978 -2.76378 0
M  V30 1768 H 160.296 -0.58951 -1.47345 0
M  V30 1769 H 160.317 1.02377 -3.66468 0
M  V30 1770 H 159.829 -0.796058 -3.79848 0
M  V30 1771 H 157.93 1.62879 -3.35114 0
M  V30 1772 H 158.043 0.394414 -4.77474 0
M  V30 1773 H 156.407 0.305962 -2.52856 0
M  V30 1774 H 157.19 -1.22086 -3.20858 0
M  V30 1775 N 159.635 1.57281 -0.100228 0
M  V30 1776 C 160.884 1.93713 0.561984 0
M  V30 1777 C 161.197 0.984492 1.69018 0
M  V30 1778 O 162.403 1.24273 2.41389 0
M  V30 1779 C 160.859 3.4421 1.05106 0
M  V30 1780 C 160.467 4.47975 -0.0476628 0
M  V30 1781 C 162.211 3.89595 1.68571 0
M  V30 1782 C 160.118 5.89631 0.457055 0
M  V30 1783 H 159.048 0.723082 0.2137 0
M  V30 1784 H 161.699 1.82644 -0.177057 0
M  V30 1785 H 160.081 3.50449 1.84395 0
M  V30 1786 H 161.255 4.53385 -0.823333 0
M  V30 1787 H 159.57 4.1223 -0.587816 0
M  V30 1788 H 162.167 4.92832 2.07414 0
M  V30 1789 H 162.51 3.28526 2.55688 0
M  V30 1790 H 163.043 3.86078 0.958562 0
M  V30 1791 H 159.782 6.54411 -0.377616 0
M  V30 1792 H 159.302 5.87681 1.19962 0
M  V30 1793 H 160.981 6.40363 0.92437 0
M  V30 1794 N 161.113 -0.173488 1.56642 0
M  V30 1795 C 162.076 -1.19859 1.95362 0
M  V30 1796 C 163.076 -1.37296 0.83704 0
M  V30 1797 O 164.266 -1.34739 1.10413 0
M  V30 1798 C 161.398 -2.56405 2.24654 0
M  V30 1799 H 162.591 -0.867062 2.87092 0
M  V30 1800 H 160.144 -0.415853 1.50666 0
M  V30 1801 H 160.879 -2.94576 1.35631 0
M  V30 1802 H 160.664 -2.45115 3.06041 0
M  V30 1803 H 162.154 -3.30287 2.5554 0
M  V30 1804 N 162.591 -1.51276 -0.441967 0
M  V30 1805 C 163.839 -1.63392 -1.18943 0
M  V30 1806 C 164.16 -0.350159 -1.9183 0
M  V30 1807 O 163.43 0.633784 -1.85364 0
M  V30 1808 H 162.01 -0.602164 -0.442049 0
M  V30 1809 H 164.672 -1.88186 -0.507165 0
M  V30 1810 H 163.768 -2.45934 -1.92154 0
M  V30 1811 N 164.069 0.697108 -1.41344 0
M  V30 1812 C 165.299 1.48377 -1.43763 0
M  V30 1813 C 165.707 1.89156 -0.0408726 0
M  V30 1814 O 165.05 1.57239 0.949812 0
M  V30 1815 C 165.112 2.7781 -2.2817 0
M  V30 1816 C 164.776 2.59244 -3.76353 0
M  V30 1817 C 165.773 2.25292 -4.68551 0
M  V30 1818 C 163.458 2.74933 -4.20378 0
M  V30 1819 C 165.452 2.07264 -6.02761 0
M  V30 1820 C 163.139 2.56521 -5.54653 0
M  V30 1821 C 164.137 2.22737 -6.4566 0
M  V30 1822 O 163.825 2.04485 -7.77458 0
M  V30 1823 H 163.557 0.463842 -0.491759 0
M  V30 1824 H 166.111 0.865934 -1.86255 0
M  V30 1825 H 164.341 3.41995 -1.8049 0
M  V30 1826 H 166.03 3.39608 -2.22309 0
M  V30 1827 H 166.796 2.12787 -4.35829 0
M  V30 1828 H 162.675 3.00213 -3.49848 0
M  V30 1829 H 166.219 1.80817 -6.73759 0
M  V30 1830 H 162.116 2.68616 -5.86955 0
M  V30 1831 H 162.884 2.1926 -7.88586 0
M  V30 1832 N 165.547 1.27147 0.931209 0
M  V30 1833 C 166.795 1.13055 1.6752 0
M  V30 1834 C 167.116 -0.324791 1.92276 0
M  V30 1835 O 166.386 -1.22775 1.52654 0
M  V30 1836 H 164.966 0.415391 0.620854 0
M  V30 1837 H 167.628 1.59623 1.11833 0
M  V30 1838 H 166.724 1.65694 2.64485 0
M  V30 1839 N 167.025 -1.13721 1.09112 0
M  V30 1840 C 168.271 -1.85413 0.836283 0
M  V30 1841 C 168.626 -1.8175 -0.631249 0
M  V30 1842 O 167.919 -1.24238 -1.45861 0
M  V30 1843 C 168.113 -3.32861 1.30146 0
M  V30 1844 C 167.942 -3.50882 2.81268 0
M  V30 1845 C 166.712 -3.65312 3.49106 0
M  V30 1846 C 168.91 -3.47196 3.7942 0
M  V30 1847 N 166.892 -3.71563 4.88686 0
M  V30 1848 C 168.263 -3.59777 5.04936 0
M  V30 1849 C 170.318 -3.30577 3.72321 0
M  V30 1850 C 169.021 -3.57455 6.24194 0
M  V30 1851 C 171.047 -3.29562 4.91063 0
M  V30 1852 C 170.409 -3.42691 6.15421 0
M  V30 1853 H 166.508 -0.694812 0.358832 0
M  V30 1854 H 169.092 -1.36246 1.39087 0
M  V30 1855 H 167.263 -3.80602 0.774361 0
M  V30 1856 H 168.995 -3.92346 0.99229 0
M  V30 1857 H 165.75 -3.6685 2.9953 0
M  V30 1858 H 166.174 -3.78387 5.61384 0
M  V30 1859 H 170.816 -3.19332 2.77105 0
M  V30 1860 H 168.534 -3.67475 7.19714 0
M  V30 1861 H 172.12 -3.17905 4.87266 0
M  V30 1862 H 171 -3.41862 7.05762 0
M  V30 1863 N 168.503 -0.877838 -1.30888 0
M  V30 1864 C 169.413 -0.343096 -2.32078 0
M  V30 1865 C 170.429 0.551022 -1.65045 0
M  V30 1866 O 171.605 0.445854 -1.96403 0
M  V30 1867 C 168.67 0.439905 -3.43898 0
M  V30 1868 C 167.731 -0.483111 -4.26573 0
M  V30 1869 C 166.964 0.262616 -5.33053 0
M  V30 1870 O 167.187 1.48967 -5.50604 0
M  V30 1871 O 166.121 -0.383593 -6.00676 0
M  V30 1872 H 169.947 -1.18203 -2.79753 0
M  V30 1873 H 167.532 -0.64145 -1.34929 0
M  V30 1874 H 169.414 0.883504 -4.12034 0
M  V30 1875 H 168.089 1.25526 -2.98371 0
M  V30 1876 H 166.996 -0.975374 -3.61161 0
M  V30 1877 H 168.329 -1.26427 -4.75686 0
M  V30 1878 N 169.982 1.44106 -0.638065 0
M  V30 1879 C 171.207 2.0685 -0.150916 0
M  V30 1880 C 171.632 1.47417 1.16833 0
M  V30 1881 O 170.99 0.578264 1.71831 0
M  V30 1882 C 171.038 3.60555 -0.05708 0
M  V30 1883 O 170.142 4.00465 0.984972 0
M  V30 1884 H 169.483 0.658151 -0.0879399 0
M  V30 1885 H 172.013 1.84865 -0.876707 0
M  V30 1886 H 172.023 4.07789 0.131232 0
M  V30 1887 H 170.698 4.03193 -1.02021 0
M  V30 1888 H 169.275 3.64849 0.770672 0
M  V30 1889 N 171.46 0.379036 1.52974 0
M  V30 1890 C 172.688 -0.20679 2.05864 0
M  V30 1891 C 173.103 -1.41356 1.25155 0
M  V30 1892 O 172.46 -1.8009 0.295588 0
M  V30 1893 C 172.511 -0.587045 3.56702 0
M  V30 1894 O 172.232 0.571776 4.34353 0
M  V30 1895 C 173.733 -1.22983 4.25899 0
M  V30 1896 H 170.953 -0.0336123 0.670158 0
M  V30 1897 H 173.497 0.541298 1.97206 0
M  V30 1898 H 171.652 -1.28504 3.65466 0
M  V30 1899 H 172.066 0.261544 5.23847 0
M  V30 1900 H 173.54 -1.44635 5.32715 0
M  V30 1901 H 174.017 -2.19416 3.80465 0
M  V30 1902 H 174.623 -0.572892 4.21424 0
M  V30 1903 N 172.938 -1.57226 0.108567 0
M  V30 1904 C 174.184 -1.95919 -0.546564 0
M  V30 1905 C 174.539 -0.990417 -1.6495 0
M  V30 1906 O 173.832 -0.0186593 -1.91591 0
M  V30 1907 C 174.026 -3.38911 -1.13463 0
M  V30 1908 C 173.855 -4.4961 -0.0901926 0
M  V30 1909 C 172.625 -5.04168 0.338008 0
M  V30 1910 C 174.823 -5.09693 0.686808 0
M  V30 1911 N 172.805 -5.98434 1.36931 0
M  V30 1912 C 174.176 -5.99804 1.56958 0
M  V30 1913 C 176.231 -4.92388 0.738846 0
M  V30 1914 C 174.934 -6.74463 2.49983 0
M  V30 1915 C 176.96 -5.67719 1.65676 0
M  V30 1916 C 176.322 -6.57507 2.52713 0
M  V30 1917 H 172.421 -0.763312 -0.169936 0
M  V30 1918 H 175.005 -1.93728 0.194264 0
M  V30 1919 H 173.176 -3.41769 -1.84522 0
M  V30 1920 H 174.908 -3.64752 -1.75322 0
M  V30 1921 H 171.663 -4.73571 -0.0523673 0
M  V30 1922 H 172.087 -6.5027 1.88356 0
M  V30 1923 H 176.729 -4.22724 0.080084 0
M  V30 1924 H 174.447 -7.4338 3.16878 0
M  V30 1925 H 178.033 -5.56338 1.70233 0
M  V30 1926 H 176.913 -7.14778 3.22586 0
M  V30 1927 N 174.416 0.165178 -1.56732 0
M  V30 1928 C 175.832 0.517174 -1.50988 0
M  V30 1929 C 176.032 1.84331 -0.813894 0
M  V30 1930 O 175.088 2.49672 -0.37682 0
M  V30 1931 C 176.401 0.544261 -2.95733 0
M  V30 1932 C 177.949 0.631039 -3.06573 0
M  V30 1933 C 178.424 0.68896 -4.52788 0
M  V30 1934 N 179.915 0.751683 -4.5706 0
M  V30 1935 C 180.65 0.817177 -5.67547 0
M  V30 1936 N 180.146 0.843129 -6.8765 0
M  V30 1937 N 181.939 0.856668 -5.55534 0
M  V30 1938 H 174.09 -0.704318 -2.00382 0
M  V30 1939 H 176.353 -0.254687 -0.913148 0
M  V30 1940 H 176.059 -0.361607 -3.49836 0
M  V30 1941 H 175.933 1.3886 -3.5071 0
M  V30 1942 H 178.32 1.52733 -2.52501 0
M  V30 1943 H 178.401 -0.240095 -2.54671 0
M  V30 1944 H 178.045 -0.2031 -5.07494 0
M  V30 1945 H 177.975 1.57633 -5.02454 0
M  V30 1946 H 180.466 0.739661 -3.70591 0
M  V30 1947 H 180.779 0.894448 -7.67606 0
M  V30 1948 H 179.124 0.811304 -6.90248 0
M  V30 1949 H 182.315 0.833437 -4.60621 0
M  V30 1950 H 182.488 0.904247 -6.4166 0
M  V30 1951 N 175.894 1.51508 0.433938 0
M  V30 1952 C 177.305 1.56784 1.01369 0
M  V30 1953 C 177.656 0.393349 1.92217 0
M  V30 1954 O 176.781 -0.489441 2.10792 0
M  V30 1955 C 177.376 2.84144 1.8452 0
M  V30 1956 C 175.935 2.9198 2.37539 0
M  V30 1957 C 175.082 2.51482 1.16843 0
M  V30 1958 H 178.033 1.57236 0.215081 0
M  V30 1959 H 178.054 2.68098 2.70007 0
M  V30 1960 H 177.566 3.69607 1.18373 0
M  V30 1961 H 175.667 2.10955 3.0713 0
M  V30 1962 H 175.78 3.95704 2.70103 0
M  V30 1963 H 174.144 2.04758 1.51481 0
M  V30 1964 H 174.927 3.39293 0.523015 0
M  V30 1965 N 177.372 -0.689602 1.41712 0
M  V30 1966 C 178.302 -1.81577 1.46806 0
M  V30 1967 C 179.283 -1.66945 0.326105 0
M  V30 1968 O 180.468 -1.86588 0.538377 0
M  V30 1969 C 177.598 -3.19762 1.35535 0
M  V30 1970 C 176.552 -3.49107 2.47605 0
M  V30 1971 C 175.878 -4.86711 2.21397 0
M  V30 1972 C 177.178 -3.47483 3.89939 0
M  V30 1973 H 178.872 -1.7757 2.41058 0
M  V30 1974 H 176.418 -0.852887 1.16025 0
M  V30 1975 H 178.371 -3.98263 1.3771 0
M  V30 1976 H 177.095 -3.24409 0.377708 0
M  V30 1977 H 175.754 -2.72959 2.44722 0
M  V30 1978 H 175.402 -4.8799 1.21961 0
M  V30 1979 H 175.102 -5.0731 2.96497 0
M  V30 1980 H 176.626 -5.67515 2.25297 0
M  V30 1981 H 178.04 -4.1598 3.94505 0
M  V30 1982 H 176.437 -3.79615 4.64771 0
M  V30 1983 H 177.507 -2.46341 4.17665 0
M  V30 1984 N 178.85 -1.27639 -0.924453 0
M  V30 1985 C 179.813 -1.10681 -2.00705 0
M  V30 1986 C 180.813 -0.0497823 -1.60723 0
M  V30 1987 O 182.003 -0.294654 -1.7169 0
M  V30 1988 C 179.135 -0.687164 -3.33902 0
M  V30 1989 H 180.328 -2.06817 -2.17179 0
M  V30 1990 H 177.881 -1.10473 -1.10569 0
M  V30 1991 H 178.616 0.275439 -3.23128 0
M  V30 1992 H 178.401 -1.45061 -3.6428 0
M  V30 1993 H 179.891 -0.590853 -4.13399 0
M  V30 1994 N 180.328 1.1314 -1.09713 0
M  V30 1995 C 181.605 1.80762 -0.747302 0
M  V30 1996 C 181.985 1.96663 0.767265 0
M  V30 1997 O 181.333 1.53706 1.69076 0
M  V30 1998 C 181.543 3.15606 -1.48975 0
M  V30 1999 C 182.891 3.90914 -1.65746 0
M  V30 2000 O 183.915 3.25239 -1.45251 0
M  V30 2001 O 182.774 5.08718 -1.9967 0
M  V30 2002 H 179.868 0.782103 -0.268782 0
M  V30 2003 H 182.414 1.20041 -1.19951 0
M  V30 2004 H 181.186 2.99278 -2.52088 0
M  V30 2005 H 180.809 3.84029 -1.02991 0
M  V30 2006 N 181.806 0.884767 1.30421 0
M  V30 2007 C 182.716 0.355398 2.31892 0
M  V30 2008 C 183.732 -0.542261 1.65335 0
M  V30 2009 O 184.908 -0.435432 1.96637 0
M  V30 2010 C 181.973 -0.421661 3.44126 0
M  V30 2011 C 181.034 0.505727 4.26311 0
M  V30 2012 C 180.267 -0.234343 5.33185 0
M  V30 2013 O 180.49 -1.46045 5.51386 0
M  V30 2014 O 179.424 0.415443 6.00465 0
M  V30 2015 H 183.25 1.19685 2.79122 0
M  V30 2016 H 180.835 0.648596 1.34587 0
M  V30 2017 H 182.717 -0.861641 4.12497 0
M  V30 2018 H 181.392 -1.23942 2.99032 0
M  V30 2019 H 180.299 0.994513 3.60639 0
M  V30 2020 H 181.632 1.28948 4.75009 0
M  V30 2021 N 183.284 -1.43765 0.645699 0
M  V30 2022 C 184.232 -2.32516 -0.0624849 0
M  V30 2023 C 185.226 -1.48183 -0.820855 0
M  V30 2024 O 186.432 -1.64439 -0.732106 0
M  V30 2025 H 182.807 -0.750989 -0.0389864 0
M  V30 2026 H 184.778 -2.89979 0.703892 0
M  V30 2027 C 183.527 -3.32389 -1.02044 0
M  V30 2028 H 182.85 -3.97301 -0.446312 0
M  V30 2029 H 184.29 -3.97138 -1.48517 0
M  V30 2030 C 182.749 -2.62416 -2.11281 0
M  V30 2031 O 183.279 -2.434 -3.19561 0
M  V30 2032 N 181.485 -2.21913 -1.87624 0
M  V30 2033 H 181.032 -2.37578 -0.995703 0
M  V30 2034 H 180.99 -1.75424 -2.6091 0
M  V30 2035 N 184.763 -0.387143 -1.52771 0
M  V30 2036 C 186.01 0.195735 -2.01552 0
M  V30 2037 C 186.338 1.46995 -1.27369 0
M  V30 2038 O 185.593 1.92325 -0.361879 0
M  V30 2039 C 185.892 0.512209 -3.53711 0
M  V30 2040 C 185.558 -0.670202 -4.45891 0
M  V30 2041 C 184.22 -0.994586 -4.70809 0
M  V30 2042 C 186.572 -1.46134 -5.00294 0
M  V30 2043 C 183.9 -2.11169 -5.4738 0
M  V30 2044 C 186.252 -2.56903 -5.78086 0
M  V30 2045 C 184.916 -2.89852 -6.01284 0
M  V30 2046 H 184.186 0.0716246 -0.73753 0
M  V30 2047 H 186.833 -0.524046 -1.8419 0
M  V30 2048 H 185.138 1.31329 -3.69134 0
M  V30 2049 H 186.835 0.975804 -3.88946 0
M  V30 2050 H 183.425 -0.407366 -4.2666 0
M  V30 2051 H 187.609 -1.22397 -4.80971 0
M  V30 2052 H 182.865 -2.3707 -5.63567 0
M  V30 2053 H 187.039 -3.18608 -6.19243 0
M  V30 2054 H 184.666 -3.76533 -6.60399 0
M  V30 2055 N 186.241 1.57166 -0.116904 0
M  V30 2056 C 187.191 2.11756 0.845178 0
M  V30 2057 C 188.175 1.03783 1.22955 0
M  V30 2058 O 189.367 1.3002 1.20099 0
M  V30 2059 C 186.496 2.71886 2.09602 0
M  V30 2060 C 185.582 3.86937 1.7361 0
M  V30 2061 N 185.973 4.94073 1.08284 0
M  V30 2062 C 184.271 3.97082 2.03082 0
M  V30 2063 C 184.972 5.74477 0.913855 0
M  V30 2064 N 183.948 5.2423 1.43818 0
M  V30 2065 H 187.75 2.91967 0.336523 0
M  V30 2066 H 185.264 1.62174 0.0856332 0
M  V30 2067 H 187.261 3.09338 2.79492 0
M  V30 2068 H 185.921 1.93138 2.61013 0
M  V30 2069 H 186.932 5.12483 0.747067 0
M  V30 2070 H 183.609 3.29372 2.56554 0
M  V30 2071 H 184.999 6.70701 0.40125 0
M  V30 2072 N 187.719 -0.156864 1.56817 0
M  V30 2073 C 188.649 -1.19589 2.00551 0
M  V30 2074 C 189.63 -1.4536 0.883426 0
M  V30 2075 O 190.815 -1.56449 1.15054 0
M  V30 2076 C 187.945 -2.53143 2.37773 0
M  V30 2077 C 186.899 -2.41913 3.53075 0
M  V30 2078 C 186.225 -3.80088 3.76081 0
M  V30 2079 C 187.525 -1.91157 4.86062 0
M  V30 2080 H 189.219 -0.832293 2.87599 0
M  V30 2081 H 186.765 -0.398918 1.38364 0
M  V30 2082 H 188.718 -3.26047 2.66967 0
M  V30 2083 H 187.442 -2.91319 1.4765 0
M  V30 2084 H 186.101 -1.71462 3.24031 0
M  V30 2085 H 185.749 -4.15683 2.83225 0
M  V30 2086 H 185.449 -3.73439 4.53671 0
M  V30 2087 H 186.973 -4.54556 4.0769 0
M  V30 2088 H 188.387 -2.53846 5.14038 0
M  V30 2089 H 186.784 -1.95422 5.67389 0
M  V30 2090 H 187.854 -0.866673 4.77092 0
M  V30 2091 N 189.197 -1.51736 -0.425897 0
M  V30 2092 C 190.445 -1.64644 -1.17204 0
M  V30 2093 C 190.766 -0.370486 -1.91448 0
M  V30 2094 O 190.036 0.614088 -1.86026 0
M  V30 2095 H 188.616 -0.606819 -0.435638 0
M  V30 2096 H 191.278 -1.88713 -0.487177 0
M  V30 2097 H 190.374 -2.47958 -1.89534 0
M  V30 2098 N 190.675 0.682077 -1.42076 0
M  V30 2099 C 191.605 1.80796 -1.47767 0
M  V30 2100 C 192.586 1.6677 -0.334954 0
M  V30 2101 O 193.771 1.863 -0.548264 0
M  V30 2102 C 190.901 3.19038 -1.37229 0
M  V30 2103 C 189.855 3.47789 -2.49453 0
M  V30 2104 C 189.181 4.8553 -2.23975 0
M  V30 2105 C 190.481 3.45411 -3.91776 0
M  V30 2106 H 192.175 1.7629 -2.41997 0
M  V30 2107 H 189.721 0.846721 -1.16476 0
M  V30 2108 H 191.674 3.97528 -1.39821 0
M  V30 2109 H 190.398 3.24204 -0.394907 0
M  V30 2110 H 189.057 2.71657 -2.46166 0
M  V30 2111 H 188.705 4.87337 -1.24547 0
M  V30 2112 H 188.405 5.0573 -2.99184 0
M  V30 2113 H 189.929 5.66312 -2.28304 0
M  V30 2114 H 191.343 4.13882 -3.96705 0
M  V30 2115 H 189.74 3.77145 -4.66778 0
M  V30 2116 H 190.81 2.44122 -4.18966 0
M  V30 2117 N 192.153 1.28127 0.917671 0
M  V30 2118 C 193.401 1.14825 1.66312 0
M  V30 2119 C 193.722 -0.304379 1.9261 0
M  V30 2120 O 192.992 -1.21149 1.53947 0
M  V30 2121 H 191.572 0.421953 0.616413 0
M  V30 2122 H 194.234 1.608 1.10134 0
M  V30 2123 H 193.33 1.68489 2.62712 0
M  V30 2124 N 193.631 -1.12557 1.10312 0
M  V30 2125 C 194.878 -1.84038 0.844759 0
M  V30 2126 C 195.206 -1.84026 -0.629668 0
M  V30 2127 O 194.461 -1.28026 -1.48013 0
M  V30 2128 C 194.76 -3.31462 1.33669 0
M  V30 2129 C 194.426 -3.51647 2.82232 0
M  V30 2130 C 193.088 -3.56864 3.22802 0
M  V30 2131 C 195.44 -3.58867 3.77974 0
M  V30 2132 C 192.768 -3.66844 4.57867 0
M  V30 2133 C 195.12 -3.70375 5.1284 0
M  V30 2134 C 193.784 -3.73848 5.52986 0
M  V30 2135 H 193.054 -0.673444 0.309119 0
M  V30 2136 H 195.701 -1.32824 1.37949 0
M  V30 2137 H 194.006 -3.85091 0.721949 0
M  V30 2138 H 195.703 -3.85236 1.11329 0
M  V30 2139 H 192.293 -3.48249 2.49842 0
M  V30 2140 H 196.477 -3.54107 3.47738 0
M  V30 2141 H 191.733 -3.67804 4.88396 0
M  V30 2142 H 195.907 -3.74904 5.86873 0
M  V30 2143 H 193.534 -3.81333 6.57639 0
M  V30 2144 N 195.109 -0.891671 -1.2995 0
M  V30 2145 C 196.337 -0.52866 -2.00032 0
M  V30 2146 C 196.752 0.884574 -1.66795 0
M  V30 2147 O 196.109 1.5827 -0.908669 0
M  V30 2148 C 196.16 -0.701814 -3.54622 0
M  V30 2149 O 195.881 -2.05942 -3.86678 0
M  V30 2150 C 197.382 -0.342683 -4.41973 0
M  V30 2151 H 194.602 -0.203659 -0.639347 0
M  V30 2152 H 197.146 -1.19881 -1.65677 0
M  V30 2153 H 195.301 -0.0789468 -3.8732 0
M  V30 2154 H 195.715 -2.08291 -4.81368 0
M  V30 2155 H 197.189 -0.514709 -5.49595 0
M  V30 2156 H 197.666 0.71975 -4.33262 0
M  V30 2157 H 198.272 -0.942154 -4.14733 0
M  V30 2158 N 196.587 1.43421 -0.653314 0
M  V30 2159 C 197.55 2.29182 0.0287951 0
M  V30 2160 C 198.55 1.42213 0.750465 0
M  V30 2161 O 199.74 1.63843 0.591701 0
M  V30 2162 C 196.872 3.24278 1.05151 0
M  V30 2163 H 198.065 2.90985 -0.725786 0
M  V30 2164 H 195.618 1.50702 -0.414545 0
M  V30 2165 H 196.353 2.6737 1.83532 0
M  V30 2166 H 196.138 3.88396 0.537687 0
M  V30 2167 H 197.628 3.88647 1.52786 0
M  V30 2168 N 198.065 0.39524 1.52563 0
M  V30 2169 C 199.313 -0.184678 2.01254 0
M  V30 2170 C 199.634 -1.46822 1.28329 0
M  V30 2171 O 198.904 -1.91666 0.405094 0
M  V30 2172 H 197.484 -0.0712355 0.743596 0
M  V30 2173 H 200.146 0.528293 1.87603 0
M  V30 2174 H 199.242 -0.390681 3.09645 0
M  V30 2175 N 199.544 -1.57102 0.125237 0
M  V30 2176 C 200.79 -1.95697 -0.532035 0
M  V30 2177 C 201.123 -1.009 -1.6593 0
M  V30 2178 O 200.398 -0.047347 -1.94442 0
M  V30 2179 C 200.681 -3.44181 -1.05884 0
M  V30 2180 C 200.534 -4.49752 0.0654392 0
M  V30 2181 C 201.853 -3.94655 -1.9477 0
M  V30 2182 H 198.972 -0.711571 -0.191925 0
M  V30 2183 H 201.614 -1.88923 0.20206 0
M  V30 2184 H 199.764 -3.50085 -1.68442 0
M  V30 2185 H 201.436 -4.55943 0.700982 0
M  V30 2186 H 199.679 -4.27653 0.727709 0
M  V30 2187 H 200.35 -5.50924 -0.344505 0
M  V30 2188 H 202.826 -3.91094 -1.42074 0
M  V30 2189 H 201.702 -4.99057 -2.28546 0
M  V30 2190 H 201.963 -3.35718 -2.87656 0
M  V30 2191 N 201.022 0.148545 -1.56898 0
M  V30 2192 C 202.25 0.876389 -1.87422 0
M  V30 2193 C 202.665 1.74809 -0.713256 0
M  V30 2194 O 202.022 1.79725 0.317025 0
M  V30 2195 C 202.073 1.73438 -3.17178 0
M  V30 2196 O 201.794 0.897809 -4.28802 0
M  V30 2197 C 203.295 2.56993 -3.61205 0
M  V30 2198 H 200.515 0.253489 -0.621277 0
M  V30 2199 H 203.059 0.141798 -2.04008 0
M  V30 2200 H 201.214 2.42205 -3.0235 0
M  V30 2201 H 201.628 1.48672 -5.02988 0
M  V30 2202 H 203.102 3.12773 -4.54838 0
M  V30 2203 H 203.579 3.32958 -2.86419 0
M  V30 2204 H 204.185 1.9352 -3.78722 0
M  V30 2205 N 202.5 1.5196 0.417844 0
M  V30 2206 C 203.463 1.74065 1.49111 0
M  V30 2207 C 204.463 0.610537 1.48758 0
M  V30 2208 O 205.653 0.87832 1.50437 0
M  V30 2209 C 202.785 1.81502 2.88565 0
M  V30 2210 H 203.978 2.69869 1.30807 0
M  V30 2211 H 201.531 1.42244 0.647785 0
M  V30 2212 H 202.266 0.875813 3.1225 0
M  V30 2213 H 202.051 2.63651 2.90225 0
M  V30 2214 H 203.541 2.00376 3.66387 0
M  V30 2215 N 203.978 -0.674533 1.42435 0
M  V30 2216 C 205.394 -0.98769 1.25367 0
M  V30 2217 C 205.594 -2.00879 0.158044 0
M  V30 2218 O 204.65 -2.48075 -0.470633 0
M  V30 2219 C 205.963 -1.49224 2.6106 0
M  V30 2220 C 207.511 -1.61 2.68417 0
M  V30 2221 C 207.986 -2.14852 4.04478 0
M  V30 2222 N 209.477 -2.22185 4.06434 0
M  V30 2223 C 210.212 -2.64928 5.08528 0
M  V30 2224 N 209.708 -3.07121 6.21006 0
M  V30 2225 N 211.501 -2.64679 4.95885 0
M  V30 2226 H 203.652 0.00152503 2.124 0
M  V30 2227 H 205.915 -0.0618434 0.945981 0
M  V30 2228 H 205.621 -0.816453 3.42092 0
M  V30 2229 H 205.495 -2.47094 2.84999 0
M  V30 2230 H 207.882 -2.27686 1.87732 0
M  V30 2231 H 207.963 -0.616195 2.48267 0
M  V30 2232 H 207.607 -1.48775 4.85622 0
M  V30 2233 H 207.537 -3.15024 4.2198 0
M  V30 2234 H 210.028 -1.92435 3.25234 0
M  V30 2235 H 210.341 -3.38423 6.94759 0
M  V30 2236 H 208.686 -3.04978 6.24511 0
M  V30 2237 H 211.877 -2.31078 4.07088 0
M  V30 2238 H 212.05 -2.9767 5.75584 0
M  V30 2239 N 205.456 -1.28612 -0.910864 0
M  V30 2240 C 206.733 -1.06632 -1.63979 0
M  V30 2241 C 207.113 0.393351 -2.07403 0
M  V30 2242 O 206.461 1.37999 -1.82122 0
M  V30 2243 C 206.671 -2.0436 -2.8291 0
M  V30 2244 C 208.019 -2.34666 -3.5386 0
M  V30 2245 O 209.043 -2.02467 -2.93062 0
M  V30 2246 O 207.902 -2.89631 -4.63439 0
M  V30 2247 H 204.996 -0.407737 -0.7195 0
M  V30 2248 H 207.542 -1.39942 -0.959914 0
M  V30 2249 H 206.314 -3.02727 -2.47936 0
M  V30 2250 H 205.937 -1.71714 -3.58609 0
M  V30 2251 N 206.934 1.1197 -1.10907 0
M  V30 2252 C 207.882 2.19927 -0.757303 0
M  V30 2253 C 208.876 1.67564 0.248747 0
M  V30 2254 O 210.082 1.79672 0.108605 0
M  V30 2255 H 206.457 0.716925 -0.226987 0
M  V30 2256 H 208.428 2.46847 -1.67658 0
M  V30 2257 C 207.177 3.47061 -0.210671 0
M  V30 2258 H 206.5 3.87703 -0.976049 0
M  V30 2259 H 207.94 4.24 -0.0026584 0
M  V30 2260 C 206.399 3.19864 1.05777 0
M  V30 2261 O 206.929 3.40049 2.13845 0
M  V30 2262 N 205.135 2.73636 0.978349 0
M  V30 2263 H 204.682 2.5741 0.0988246 0
M  V30 2264 H 204.64 2.55815 1.82773 0
M  V30 2265 N 208.412 0.89855 1.29475 0
M  V30 2266 C 209.658 0.534065 1.96263 0
M  V30 2267 C 210.013 -0.909415 1.69551 0
M  V30 2268 O 209.306 -1.63596 0.997349 0
M  V30 2269 C 209.5 0.761398 3.49195 0
M  V30 2270 C 209.329 2.22542 3.90775 0
M  V30 2271 C 208.099 2.87264 4.15701 0
M  V30 2272 C 210.297 3.20051 4.02581 0
M  V30 2273 N 208.279 4.24121 4.4384 0
M  V30 2274 C 209.65 4.42023 4.34759 0
M  V30 2275 C 211.705 3.15657 3.85052 0
M  V30 2276 C 210.408 5.60161 4.51235 0
M  V30 2277 C 212.434 4.33078 4.02737 0
M  V30 2278 C 211.796 5.5382 4.35273 0
M  V30 2279 H 207.895 0.245013 0.742625 0
M  V30 2280 H 210.479 1.15912 1.56437 0
M  V30 2281 H 208.65 0.165732 3.88046 0
M  V30 2282 H 210.382 0.362462 4.03074 0
M  V30 2283 H 207.137 2.38064 4.09417 0
M  V30 2284 H 207.561 4.94839 4.6202 0
M  V30 2285 H 212.203 2.23396 3.58962 0
M  V30 2286 H 209.921 6.52913 4.76162 0
M  V30 2287 H 213.507 4.31163 3.90628 0
M  V30 2288 H 212.387 6.43166 4.48672 0
M  V30 2289 N 209.89 -1.43072 0.660911 0
M  V30 2290 C 210.838 -2.32569 -0.0378199 0
M  V30 2291 C 211.832 -1.49046 -0.805092 0
M  V30 2292 O 213.038 -1.65206 -0.714624 0
M  V30 2293 H 209.413 -0.75136 -0.031019 0
M  V30 2294 H 211.384 -2.89216 0.734609 0
M  V30 2295 C 210.133 -3.33453 -0.985124 0
M  V30 2296 H 209.456 -3.97752 -0.404147 0
M  V30 2297 H 210.896 -3.98691 -1.44297 0
M  V30 2298 C 209.355 -2.64642 -2.08486 0
M  V30 2299 O 209.885 -2.46776 -3.16961 0
M  V30 2300 N 208.091 -2.23891 -1.8526 0
M  V30 2301 H 207.638 -2.38621 -0.970449 0
M  V30 2302 H 207.596 -1.78181 -2.59034 0
M  V30 2303 N 211.368 -0.403325 -1.52352 0
M  V30 2304 C 212.598 0.17376 -2.05868 0
M  V30 2305 C 213.006 1.39898 -1.27378 0
M  V30 2306 O 212.349 1.80939 -0.31729 0
M  V30 2307 C 212.411 0.594756 -3.54546 0
M  V30 2308 C 212.075 -0.518926 -4.54044 0
M  V30 2309 C 213.072 -1.3807 -5.01231 0
M  V30 2310 C 210.757 -0.689961 -4.97539 0
M  V30 2311 C 212.751 -2.39852 -5.90551 0
M  V30 2312 C 210.438 -1.71109 -5.86656 0
M  V30 2313 C 211.436 -2.56378 -6.33056 0
M  V30 2314 O 211.124 -3.56743 -7.20409 0
M  V30 2315 H 210.856 0.0264951 -0.675481 0
M  V30 2316 H 213.41 -0.571179 -1.97299 0
M  V30 2317 H 211.64 1.39189 -3.60782 0
M  V30 2318 H 213.329 1.0991 -3.90736 0
M  V30 2319 H 214.095 -1.25994 -4.68349 0
M  V30 2320 H 209.974 -0.035939 -4.60986 0
M  V30 2321 H 213.518 -3.06441 -6.26689 0
M  V30 2322 H 209.415 -1.83218 -6.18952 0
M  V30 2323 H 210.183 -3.52918 -7.38506 0
M  V30 2324 N 212.846 1.57033 -0.133567 0
M  V30 2325 C 214.095 1.94861 0.520768 0
M  V30 2326 C 214.408 1.02012 1.66892 0
M  V30 2327 O 215.614 1.29365 2.38699 0
M  V30 2328 C 214.07 3.46362 0.977809 0
M  V30 2329 C 213.678 4.47773 -0.142674 0
M  V30 2330 C 215.422 3.93083 1.60269 0
M  V30 2331 C 213.329 5.90468 0.331883 0
M  V30 2332 H 212.259 0.727453 0.198315 0
M  V30 2333 H 214.91 1.82227 -0.215759 0
M  V30 2334 H 213.292 3.54282 1.7692 0
M  V30 2335 H 214.466 4.51536 -0.919317 0
M  V30 2336 H 212.781 4.10891 -0.675124 0
M  V30 2337 H 215.378 4.97121 1.96914 0
M  V30 2338 H 215.721 3.33876 2.48662 0
M  V30 2339 H 216.254 3.88025 0.876453 0
M  V30 2340 H 212.993 6.53463 -0.516341 0
M  V30 2341 H 212.513 5.90094 1.07469 0
M  V30 2342 H 214.192 6.42179 0.788332 0
M  V30 2343 N 214.325 -0.140222 1.56975 0
M  V30 2344 C 215.736 -0.699596 1.73097 0
M  V30 2345 C 216.087 -1.8134 0.749022 0
M  V30 2346 O 215.212 -2.16241 -0.0828503 0
M  V30 2347 C 215.807 -1.27582 3.1386 0
M  V30 2348 C 214.366 -1.78169 3.31561 0
M  V30 2349 C 213.513 -0.672855 2.69013 0
M  V30 2350 H 216.464 0.0855115 1.58469 0
M  V30 2351 H 216.485 -2.14561 3.14235 0
M  V30 2352 H 215.997 -0.464955 3.85305 0
M  V30 2353 H 214.098 -2.61801 2.65124 0
M  V30 2354 H 214.211 -1.90574 4.39566 0
M  V30 2355 H 212.575 -1.10118 2.29665 0
M  V30 2356 H 213.358 0.126679 3.43066 0
M  V30 2357 N 215.803 -1.52179 -0.40978 0
M  V30 2358 C 216.733 -1.78435 -1.5061 0
M  V30 2359 C 217.714 -0.635295 -1.57791 0
M  V30 2360 O 218.899 -0.880823 -1.73076 0
M  V30 2361 C 216.029 -1.93444 -2.88439 0
M  V30 2362 C 214.983 -3.09038 -2.96108 0
M  V30 2363 C 214.309 -3.09268 -4.36185 0
M  V30 2364 C 215.609 -4.48508 -2.67652 0
M  V30 2365 H 217.303 -2.70237 -1.28889 0
M  V30 2366 H 214.849 -1.30036 -0.618605 0
M  V30 2367 H 216.802 -2.10394 -3.65119 0
M  V30 2368 H 215.526 -0.983129 -3.11452 0
M  V30 2369 H 214.185 -2.91837 -2.21872 0
M  V30 2370 H 213.833 -2.11861 -4.56206 0
M  V30 2371 H 213.533 -3.86907 -4.42241 0
M  V30 2372 H 215.057 -3.28348 -5.14801 0
M  V30 2373 H 216.471 -4.65918 -3.34056 0
M  V30 2374 H 214.868 -5.28059 -2.85085 0
M  V30 2375 H 215.938 -4.56649 -1.63095 0
M  V30 2376 N 217.281 0.66697 -1.42791 0
M  V30 2377 C 218.692 1.2478 -1.38877 0
M  V30 2378 C 219.043 1.96012 -0.0859426 0
M  V30 2379 O 218.168 2.00463 0.815081 0
M  V30 2380 C 218.763 2.26938 -2.51564 0
M  V30 2381 C 217.322 2.80529 -2.50959 0
M  V30 2382 C 216.469 1.54965 -2.29959 0
M  V30 2383 H 219.42 0.459853 -1.51892 0
M  V30 2384 H 219.441 3.08834 -2.22265 0
M  V30 2385 H 218.953 1.75065 -3.46372 0
M  V30 2386 H 217.054 3.36502 -1.59991 0
M  V30 2387 H 217.167 3.29012 -3.48265 0
M  V30 2388 H 215.531 1.81817 -1.78366 0
M  V30 2389 H 216.314 1.05047 -3.26833 0
M  V30 2390 N 218.759 1.29093 0.90403 0
M  V30 2391 C 220.005 1.16986 1.65656 0
M  V30 2392 C 220.338 -0.278925 1.92186 0
M  V30 2393 O 219.613 -1.2019 1.5292 0
M  V30 2394 C 219.896 1.97908 3.0084 0
M  V30 2395 C 219.749 3.50903 2.81403 0
M  V30 2396 C 221.068 1.80208 4.01513 0
M  V30 2397 H 218.187 0.426346 0.601164 0
M  V30 2398 H 220.829 1.58518 1.04747 0
M  V30 2399 H 218.979 1.62616 3.52829 0
M  V30 2400 H 220.651 3.96153 2.36348 0
M  V30 2401 H 218.894 3.76045 2.1627 0
M  V30 2402 H 219.565 4.02791 3.77443 0
M  V30 2403 H 222.041 2.11025 3.58619 0
M  V30 2404 H 220.917 2.39184 4.94047 0
M  V30 2405 H 221.178 0.756119 4.35586 0
M  V30 2406 N 220.237 -1.11381 1.11499 0
M  V30 2407 C 221.167 -2.19509 0.796125 0
M  V30 2408 C 222.148 -1.68458 -0.235796 0
M  V30 2409 O 223.333 -1.93947 -0.0991344 0
M  V30 2410 C 220.463 -3.46475 0.239205 0
M  V30 2411 C 219.417 -4.10744 1.20307 0
M  V30 2412 C 218.743 -5.32293 0.50683 0
M  V30 2413 C 220.043 -4.55597 2.55399 0
M  V30 2414 H 221.737 -2.46439 1.70024 0
M  V30 2415 H 219.283 -1.18446 0.818935 0
M  V30 2416 H 221.236 -4.214 0.00392006 0
M  V30 2417 H 219.96 -3.19006 -0.700206 0
M  V30 2418 H 218.619 -3.37813 1.42399 0
M  V30 2419 H 218.267 -5.01095 -0.437408 0
M  V30 2420 H 217.967 -5.76243 1.1497 0
M  V30 2421 H 219.491 -6.09956 0.280351 0
M  V30 2422 H 220.905 -5.21841 2.37391 0
M  V30 2423 H 219.302 -5.10363 3.15673 0
M  V30 2424 H 220.372 -3.69013 3.14575 0
M  V30 2425 N 221.715 -0.905404 -1.28997 0
M  V30 2426 C 222.645 -0.404212 -2.29975 0
M  V30 2427 C 223.626 0.523784 -1.61835 0
M  V30 2428 O 224.811 0.433298 -1.89304 0
M  V30 2429 C 221.941 0.364042 -3.45387 0
M  V30 2430 C 220.895 -0.474048 -4.25367 0
M  V30 2431 C 220.221 0.422045 -5.33032 0
M  V30 2432 C 221.521 -1.72696 -4.92923 0
M  V30 2433 H 223.215 -1.24807 -2.72146 0
M  V30 2434 H 220.761 -0.601585 -1.30832 0
M  V30 2435 H 222.714 0.725447 -4.15109 0
M  V30 2436 H 221.438 1.24174 -3.02074 0
M  V30 2437 H 220.097 -0.81786 -3.57361 0
M  V30 2438 H 219.745 1.29804 -4.85963 0
M  V30 2439 H 219.445 -0.135057 -5.87445 0
M  V30 2440 H 220.969 0.779517 -6.05604 0
M  V30 2441 H 222.383 -1.43495 -5.55051 0
M  V30 2442 H 220.78 -2.22582 -5.57295 0
M  V30 2443 H 221.85 -2.45964 -4.17887 0
M  V30 2444 N 223.193 1.4272 -0.668489 0
M  V30 2445 C 224.604 1.84793 -0.266151 0
M  V30 2446 C 224.955 1.55959 1.19043 0
M  V30 2447 O 224.08 1.01622 1.91055 0
M  V30 2448 C 224.675 3.35436 -0.476271 0
M  V30 2449 C 223.234 3.76182 -0.128113 0
M  V30 2450 C 222.381 2.66344 -0.771777 0
M  V30 2451 H 225.332 1.32656 -0.871098 0
M  V30 2452 H 225.353 3.79515 0.273561 0
M  V30 2453 H 224.865 3.5639 -1.53647 0
M  V30 2454 H 222.966 3.60836 0.928891 0
M  V30 2455 H 223.079 4.75766 -0.564231 0
M  V30 2456 H 221.443 2.53885 -0.203652 0
M  V30 2457 H 222.226 2.90123 -1.83531 0
M  V30 2458 N 224.671 0.411399 1.52136 0
M  V30 2459 C 225.601 -0.404015 2.29978 0
M  V30 2460 C 226.582 -1.04412 1.34284 0
M  V30 2461 O 227.767 -1.0527 1.63192 0
M  V30 2462 C 224.897 -1.5197 3.12286 0
M  V30 2463 C 223.851 -1.00448 4.16046 0
M  V30 2464 C 223.177 -2.21393 4.86712 0
M  V30 2465 C 224.477 -0.0569336 5.22269 0
M  V30 2466 H 226.171 0.245529 2.98392 0
M  V30 2467 H 223.717 0.119525 1.43503 0
M  V30 2468 H 225.67 -2.09715 3.6551 0
M  V30 2469 H 224.394 -2.19716 2.41646 0
M  V30 2470 H 223.053 -0.449421 3.63835 0
M  V30 2471 H 222.701 -2.87699 4.12599 0
M  V30 2472 H 222.401 -1.87571 5.56858 0
M  V30 2473 H 223.925 -2.7974 5.4275 0
M  V30 2474 H 225.339 -0.54325 5.7072 0
M  V30 2475 H 223.736 0.192594 5.99791 0
M  V30 2476 H 224.806 0.887663 4.76706 0
M  V30 2477 N 226.149 -1.5696 0.141893 0
M  V30 2478 C 227.112 -2.15316 -0.785587 0
M  V30 2479 C 228.112 -1.09366 -1.1788 0
M  V30 2480 O 229.302 -1.35031 -1.10056 0
M  V30 2481 C 226.434 -2.71211 -2.06537 0
M  V30 2482 H 227.627 -2.98608 -0.278041 0
M  V30 2483 H 225.18 -1.5593 -0.107519 0
M  V30 2484 H 225.915 -1.91571 -2.6167 0
M  V30 2485 H 225.7 -3.4872 -1.79268 0
M  V30 2486 H 227.19 -3.16189 -2.72789 0
M  V30 2487 N 227.627 0.131896 -1.57047 0
M  V30 2488 C 228.852 0.860418 -1.8871 0
M  V30 2489 C 229.277 1.73251 -0.73251 0
M  V30 2490 O 228.635 1.785 0.317429 0
M  V30 2491 C 228.683 1.68047 -3.19049 0
M  V30 2492 O 227.787 2.7862 -3.04047 0
M  V30 2493 H 227.128 0.238743 -0.619595 0
M  V30 2494 H 229.658 0.118169 -2.04258 0
M  V30 2495 H 229.668 2.07238 -3.51449 0
M  V30 2496 H 228.343 1.04018 -4.02682 0
M  V30 2497 H 226.92 2.42726 -2.83088 0
M  V30 2498 N 229.106 1.52395 0.401703 0
M  V30 2499 C 230.352 1.67065 1.14966 0
M  V30 2500 C 230.685 0.403052 1.89971 0
M  V30 2501 O 229.96 -0.598774 1.85054 0
M  V30 2502 C 230.243 2.8975 2.13815 0
M  V30 2503 C 230.096 4.26578 1.42658 0
M  V30 2504 C 231.415 3.07965 3.14397 0
M  V30 2505 H 228.534 0.607968 0.416587 0
M  V30 2506 H 231.176 1.84965 0.434511 0
M  V30 2507 H 229.326 2.74619 2.74803 0
M  V30 2508 H 230.998 4.53451 0.847329 0
M  V30 2509 H 229.241 4.27639 0.72849 0
M  V30 2510 H 229.912 5.08483 2.14823 0
M  V30 2511 H 232.388 3.22043 2.63491 0
M  V30 2512 H 231.264 3.95308 3.80819 0
M  V30 2513 H 231.525 2.21611 3.82545 0
M  V30 2514 N 230.584 -0.659388 1.43143 0
M  V30 2515 C 231.832 -1.41654 1.44147 0
M  V30 2516 C 232.153 -1.94893 0.0645739 0
M  V30 2517 O 231.423 -1.74044 -0.899198 0
M  V30 2518 H 230.003 -0.525708 0.530697 0
M  V30 2519 H 232.665 -0.778097 1.78694 0
M  V30 2520 H 231.761 -2.26195 2.1504 0
M  V30 2521 N 232.062 -1.29571 -0.897171 0
M  V30 2522 C 233.292 -1.20408 -1.67886 0
M  V30 2523 C 233.7 0.237429 -1.87704 0
M  V30 2524 O 233.043 1.17048 -1.41582 0
M  V30 2525 C 233.105 -1.84887 -3.08314 0
M  V30 2526 C 232.769 -3.34189 -3.11716 0
M  V30 2527 C 233.766 -4.30374 -2.91675 0
M  V30 2528 C 231.451 -3.75431 -3.33701 0
M  V30 2529 C 233.445 -5.65776 -2.93557 0
M  V30 2530 C 231.132 -5.10955 -3.35214 0
M  V30 2531 C 232.13 -6.05938 -3.15164 0
M  V30 2532 O 231.818 -7.38987 -3.1647 0
M  V30 2533 H 231.55 -0.418289 -0.531046 0
M  V30 2534 H 234.104 -1.71514 -1.13014 0
M  V30 2535 H 232.334 -1.28295 -3.64798 0
M  V30 2536 H 234.023 -1.70011 -3.6858 0
M  V30 2537 H 234.789 -3.99844 -2.74499 0
M  V30 2538 H 230.668 -3.01953 -3.48347 0
M  V30 2539 H 234.212 -6.39889 -2.77826 0
M  V30 2540 H 230.109 -5.4113 -3.51922 0
M  V30 2541 H 230.877 -7.47823 -3.3272 0
M  V30 2542 N 233.54 1.10788 -1.12088 0
M  V30 2543 C 234.788 1.8231 -0.872205 0
M  V30 2544 C 235.109 1.85419 0.603709 0
M  V30 2545 O 234.379 1.32963 1.43867 0
M  V30 2546 H 232.959 0.675137 -0.319686 0
M  V30 2547 H 235.621 1.34068 -1.41463 0
M  V30 2548 H 234.717 2.85955 -1.25045 0
M  V30 2549 N 235.018 0.912232 1.28515 0
M  V30 2550 C 236.429 0.591352 1.77087 0
M  V30 2551 C 236.78 -0.8933 1.74684 0
M  V30 2552 O 235.905 -1.69876 1.34056 0
M  V30 2553 C 236.5 1.06668 3.2157 0
M  V30 2554 C 235.059 0.79675 3.67871 0
M  V30 2555 C 234.206 1.23427 2.48316 0
M  V30 2556 H 237.157 1.09365 1.15 0
M  V30 2557 H 237.178 0.407455 3.78312 0
M  V30 2558 H 236.69 2.14726 3.23287 0
M  V30 2559 H 234.791 -0.270679 3.71616 0
M  V30 2560 H 234.904 1.40343 4.58084 0
M  V30 2561 H 233.268 0.653036 2.46186 0
M  V30 2562 H 234.051 2.32316 2.52753 0
M  V30 2563 N 236.496 -1.42363 0.676048 0
M  V30 2564 C 237.742 -2.0182 0.199125 0
M  V30 2565 C 238.075 -1.53339 -1.19168 0
M  V30 2566 O 237.35 -0.736124 -1.80032 0
M  V30 2567 C 237.633 -3.59331 0.235144 0
M  V30 2568 C 237.486 -4.17989 1.66149 0
M  V30 2569 C 238.805 -4.3813 -0.41595 0
M  V30 2570 H 235.924 -0.733293 0.0738311 0
M  V30 2571 H 238.566 -1.69368 0.86107 0
M  V30 2572 H 236.716 -3.87109 -0.328487 0
M  V30 2573 H 238.388 -4.0116 2.27747 0
M  V30 2574 H 236.631 -3.7377 2.20178 0
M  V30 2575 H 237.302 -5.27126 1.63837 0
M  V30 2576 H 239.778 -4.16051 0.0638529 0
M  V30 2577 H 238.654 -5.47717 -0.360115 0
M  V30 2578 H 238.915 -4.16101 -1.49373 0
M  V30 2579 N 237.974 -0.419461 -1.51915 0
M  V30 2580 C 239.202 0.152136 -2.0634 0
M  V30 2581 C 239.617 1.37988 -1.28859 0
M  V30 2582 O 238.974 1.79243 -0.343232 0
M  V30 2583 C 239.025 0.492266 -3.58133 0
M  V30 2584 O 238.746 -0.686736 -4.32684 0
M  V30 2585 C 240.247 1.11648 -4.2901 0
M  V30 2586 H 237.467 0.0158325 -0.670813 0
M  V30 2587 H 240.011 -0.593394 -1.95702 0
M  V30 2588 H 238.166 1.18769 -3.68745 0
M  V30 2589 H 238.58 -0.400341 -5.2297 0
M  V30 2590 H 240.054 1.3046 -5.36362 0
M  V30 2591 H 240.531 2.09251 -3.86148 0
M  V30 2592 H 241.137 0.460958 -4.22795 0
M  V30 2593 N 239.452 1.56882 -0.150215 0
M  V30 2594 C 240.699 1.96228 0.500093 0
M  V30 2595 C 241.027 1.03522 1.64661 0
M  V30 2596 O 240.282 0.0650683 1.95592 0
M  V30 2597 C 240.581 3.41801 1.04437 0
M  V30 2598 C 240.247 4.50897 0.0159671 0
M  V30 2599 C 238.909 4.8046 -0.266731 0
M  V30 2600 C 241.261 5.16703 -0.683192 0
M  V30 2601 C 238.589 5.73135 -1.25434 0
M  V30 2602 C 240.941 6.10441 -1.65964 0
M  V30 2603 C 239.605 6.38382 -1.95 0
M  V30 2604 H 238.875 0.718048 0.182997 0
M  V30 2605 H 241.522 1.90019 -0.237724 0
M  V30 2606 H 239.827 3.44857 1.85959 0
M  V30 2607 H 241.524 3.69573 1.55618 0
M  V30 2608 H 238.114 4.27891 0.246485 0
M  V30 2609 H 242.298 4.93993 -0.477983 0
M  V30 2610 H 237.554 5.93074 -1.48571 0
M  V30 2611 H 241.728 6.60507 -2.20689 0
M  V30 2612 H 239.355 7.09996 -2.71679 0
M  V30 2613 N 240.93 -0.123565 1.57115 0
M  V30 2614 C 241.862 -1.17739 1.96648 0
M  V30 2615 C 242.875 -1.37906 0.865201 0
M  V30 2616 O 244.064 -1.37062 1.14351 0
M  V30 2617 C 241.164 -2.53821 2.24562 0
M  V30 2618 C 240.337 -2.54317 3.55867 0
M  V30 2619 C 239.396 -3.72112 3.72047 0
M  V30 2620 O 238.422 -3.55907 4.44206 0
M  V30 2621 N 239.624 -4.90498 3.10471 0
M  V30 2622 H 242.389 -0.841147 2.87654 0
M  V30 2623 H 239.95 -0.31289 1.58848 0
M  V30 2624 H 241.942 -3.31175 2.32606 0
M  V30 2625 H 240.512 -2.79645 1.39705 0
M  V30 2626 H 239.732 -1.62711 3.59053 0
M  V30 2627 H 241.02 -2.51701 4.42181 0
M  V30 2628 H 240.418 -5.06567 2.51806 0
M  V30 2629 H 238.975 -5.65544 3.24043 0
M  V30 2630 N 242.408 -1.52605 -0.393616 0
M  V30 2631 C 243.341 -1.71798 -1.50202 0
M  V30 2632 C 244.319 -0.565743 -1.52441 0
M  V30 2633 O 245.503 -0.794987 -1.70916 0
M  V30 2634 C 242.63 -1.7714 -2.88685 0
M  V30 2635 C 241.676 -2.98845 -3.04292 0
M  V30 2636 S 242.509 -4.58909 -2.75976 0
M  V30 2637 C 243.665 -4.6706 -4.1666 0
M  V30 2638 H 243.898 -2.65542 -1.33696 0
M  V30 2639 H 241.431 -1.42839 -0.586195 0
M  V30 2640 H 243.389 -1.80903 -3.68489 0
M  V30 2641 H 242.05 -0.844969 -3.02521 0
M  V30 2642 H 241.243 -2.99111 -4.05646 0
M  V30 2643 H 240.845 -2.9305 -2.32374 0
M  V30 2644 H 243.137 -4.45391 -5.10523 0
M  V30 2645 H 244.08 -5.6905 -4.21412 0
M  V30 2646 H 244.488 -3.95944 -4.02354 0
M  V30 2647 N 243.887 0.651787 -1.4349 0
M  V30 2648 C 245.115 1.43937 -1.48626 0
M  V30 2649 C 245.53 1.8851 -0.104587 0
M  V30 2650 O 244.887 1.5958 0.885464 0
M  V30 2651 C 244.938 2.6734 -2.43334 0
M  V30 2652 O 244.659 2.24631 -3.76128 0
M  V30 2653 C 246.16 3.60683 -2.57726 0
M  V30 2654 H 243.38 0.44213 -0.504739 0
M  V30 2655 H 245.924 0.798944 -1.88248 0
M  V30 2656 H 244.079 3.2752 -2.06904 0
M  V30 2657 H 244.493 3.04485 -4.2707 0
M  V30 2658 H 245.967 4.43933 -3.28067 0
M  V30 2659 H 246.444 4.08126 -1.62265 0
M  V30 2660 H 247.05 3.06384 -2.94973 0
M  V30 2661 N 245.365 1.30045 0.890287 0
M  V30 2662 C 246.595 1.21296 1.67245 0
M  V30 2663 C 247.003 -0.227471 1.87828 0
M  V30 2664 O 246.346 -1.16296 1.422 0
M  V30 2665 C 246.408 1.86519 3.07329 0
M  V30 2666 C 246.072 3.35837 3.09939 0
M  V30 2667 C 247.069 4.31915 2.89389 0
M  V30 2668 C 244.754 3.77196 3.31706 0
M  V30 2669 C 246.748 5.67325 2.90552 0
M  V30 2670 C 244.435 5.12725 3.32499 0
M  V30 2671 C 245.433 6.076 3.11947 0
M  V30 2672 O 245.121 7.40655 3.12547 0
M  V30 2673 H 244.853 0.4211 0.528821 0
M  V30 2674 H 247.407 1.72111 1.12103 0
M  V30 2675 H 245.637 1.30228 3.64112 0
M  V30 2676 H 247.326 1.71963 3.67673 0
M  V30 2677 H 248.092 4.01294 2.72375 0
M  V30 2678 H 243.971 3.03796 3.4674 0
M  V30 2679 H 247.515 6.41354 2.74429 0
M  V30 2680 H 243.412 5.42988 3.49047 0
M  V30 2681 H 244.18 7.49577 3.28749 0
M  V30 2682 N 246.843 -1.10192 1.12674 0
M  V30 2683 C 248.092 -1.81573 0.8783 0
M  V30 2684 C 248.405 -1.86249 -0.597557 0
M  V30 2685 O 249.611 -2.5386 -0.962681 0
M  V30 2686 C 248.067 -3.26149 1.52167 0
M  V30 2687 C 247.675 -3.29763 3.03249 0
M  V30 2688 C 249.419 -4.0234 1.3536 0
M  V30 2689 C 247.326 -4.68815 3.60508 0
M  V30 2690 H 246.256 -0.680394 0.324931 0
M  V30 2691 H 248.907 -1.23902 1.35353 0
M  V30 2692 H 247.289 -3.83832 0.974104 0
M  V30 2693 H 248.463 -2.8189 3.6452 0
M  V30 2694 H 246.778 -2.67059 3.19481 0
M  V30 2695 H 249.375 -5.05058 1.75559 0
M  V30 2696 H 249.718 -4.15235 0.297554 0
M  V30 2697 H 250.251 -3.51079 1.87052 0
M  V30 2698 H 246.99 -4.61121 4.65884 0
M  V30 2699 H 246.51 -5.17045 3.04014 0
M  V30 2700 H 248.189 -5.37785 3.59717 0
M  V30 2701 N 248.321 -0.919034 -1.28029 0
M  V30 2702 C 249.732 -0.600735 -1.76771 0
M  V30 2703 C 250.083 0.884024 -1.75156 0
M  V30 2704 O 249.208 1.69163 -1.34956 0
M  V30 2705 C 249.803 -1.08372 -3.21 0
M  V30 2706 C 248.362 -0.816248 -3.67443 0
M  V30 2707 C 247.509 -1.24742 -2.47658 0
M  V30 2708 H 250.46 -1.09974 -1.14418 0
M  V30 2709 H 250.481 -0.427512 -3.78091 0
M  V30 2710 H 249.993 -2.16437 -3.22144 0
M  V30 2711 H 248.094 0.250968 -3.71754 0
M  V30 2712 H 248.207 -1.4277 -4.57333 0
M  V30 2713 H 246.571 -0.666083 -2.45836 0
M  V30 2714 H 247.354 -2.33653 -2.51518 0
M  V30 2715 N 249.799 1.42003 -0.683588 0
M  V30 2716 C 251.047 2.01015 -0.209101 0
M  V30 2717 C 251.368 1.54365 1.19149 0
M  V30 2718 O 250.638 0.769083 1.80172 0
M  V30 2719 H 249.218 0.743294 -0.074315 0
M  V30 2720 H 251.88 1.73798 -0.882066 0
M  V30 2721 H 250.976 3.11343 -0.2172 0
M  V30 2722 N 251.277 0.427512 1.51691 0
M  V30 2723 C 252.505 -0.141191 2.06418 0
M  V30 2724 C 252.92 -1.37303 1.29589 0
M  V30 2725 O 252.277 -1.79059 0.352732 0
M  V30 2726 C 252.328 -0.473266 3.58389 0
M  V30 2727 O 252.049 0.709673 4.32314 0
M  V30 2728 C 253.55 -1.09371 4.29596 0
M  V30 2729 H 250.77 -0.0122747 0.670888 0
M  V30 2730 H 253.314 0.603764 1.95384 0
M  V30 2731 H 251.469 -1.16812 3.69369 0
M  V30 2732 H 251.883 0.42807 5.2275 0
M  V30 2733 H 253.357 -1.27613 5.37046 0
M  V30 2734 H 253.834 -2.072 3.87253 0
M  V30 2735 H 254.44 -0.43853 4.23033 0
M  V30 2736 N 252.755 -1.56801 0.158532 0
M  V30 2737 C 253.985 -2.00568 -0.495583 0
M  V30 2738 C 254.393 -1.03774 -1.58201 0
M  V30 2739 O 253.736 -0.0285797 -1.83678 0
M  V30 2740 C 253.798 -3.40768 -1.14532 0
M  V30 2741 C 253.462 -4.56553 -0.202101 0
M  V30 2742 C 254.459 -5.16714 0.574675 0
M  V30 2743 C 252.144 -5.02197 -0.101648 0
M  V30 2744 C 254.138 -6.20939 1.43924 0
M  V30 2745 C 251.825 -6.06274 0.766508 0
M  V30 2746 C 252.823 -6.65515 1.53555 0
M  V30 2747 O 252.511 -7.67575 2.38922 0
M  V30 2748 H 252.243 -0.662893 -0.13247 0
M  V30 2749 H 254.797 -2.03829 0.253559 0
M  V30 2750 H 253.027 -3.34381 -1.94233 0
M  V30 2751 H 254.716 -3.6857 -1.70033 0
M  V30 2752 H 255.482 -4.82341 0.507167 0
M  V30 2753 H 251.361 -4.55807 -0.689994 0
M  V30 2754 H 254.905 -6.67107 2.03996 0
M  V30 2755 H 250.802 -6.40073 0.835266 0
M  V30 2756 H 251.57 -7.84844 2.32296 0
M  V30 2757 N 254.233 0.115231 -1.57178 0
M  V30 2758 C 255.181 1.16014 -2.01602 0
M  V30 2759 C 256.175 1.42653 -0.913587 0
M  V30 2760 O 257.381 1.42571 -1.09879 0
M  V30 2761 H 253.756 0.391252 -0.642204 0
M  V30 2762 H 255.727 0.758998 -2.88586 0
M  V30 2763 C 254.476 2.47767 -2.4394 0
M  V30 2764 H 253.799 2.28108 -3.28339 0
M  V30 2765 H 255.239 3.19432 -2.78818 0
M  V30 2766 C 253.698 3.10617 -1.30455 0
M  V30 2767 O 254.228 3.96846 -0.622585 0
M  V30 2768 N 252.434 2.70553 -1.06064 0
M  V30 2769 H 251.981 2.00527 -1.61699 0
M  V30 2770 H 251.939 3.12934 -0.303284 0
M  V30 2771 N 255.711 1.52812 0.385517 0
M  V30 2772 C 256.659 1.78482 1.49155 0
M  V30 2773 C 257.653 0.652914 1.56312 0
M  V30 2774 O 258.859 0.835464 1.59436 0
M  V30 2775 H 255.234 0.5648 0.496493 0
M  V30 2776 H 257.205 2.71095 1.24699 0
M  V30 2777 C 255.954 1.97378 2.86247 0
M  V30 2778 H 255.277 2.83907 2.81491 0
M  V30 2779 H 256.717 2.19327 3.62866 0
M  V30 2780 C 255.176 0.74728 3.28508 0
M  V30 2781 O 255.706 -0.0736232 4.01633 0
M  V30 2782 N 253.912 0.576396 2.84826 0
M  V30 2783 H 253.459 1.24555 2.25486 0
M  V30 2784 H 253.417 -0.24288 3.1346 0
M  V30 2785 N 257.189 -0.644168 1.43834 0
M  V30 2786 C 258.437 -1.40117 1.45642 0
M  V30 2787 C 258.758 -1.94814 0.0852413 0
M  V30 2788 O 258.028 -1.74988 -0.880688 0
M  V30 2789 H 256.608 -0.52005 0.536243 0
M  V30 2790 H 259.27 -0.7591 1.7951 0
M  V30 2791 H 258.366 -2.23902 2.17427 0
M  V30 2792 N 258.668 -1.30515 -0.883378 0
M  V30 2793 C 259.616 -1.16941 -2.01066 0
M  V30 2794 C 260.61 -0.0809148 -1.69207 0
M  V30 2795 O 261.816 -0.241877 -1.78367 0
M  V30 2796 H 258.191 -0.361705 -0.659298 0
M  V30 2797 H 260.162 -2.12344 -2.09649 0
M  V30 2798 C 258.911 -0.879694 -3.36388 0
M  V30 2799 H 258.234 -1.70936 -3.61415 0
M  V30 2800 H 259.674 -0.82483 -4.159 0
M  V30 2801 C 258.133 0.417409 -3.34304 0
M  V30 2802 O 258.663 1.43843 -3.75063 0
M  V30 2803 N 256.869 0.429141 -2.87414 0
M  V30 2804 H 256.416 -0.402222 -2.5444 0
M  V30 2805 H 256.374 1.29696 -2.86403 0
M  V30 2806 N 260.146 1.09593 -1.13257 0
M  V30 2807 C 261.392 1.82003 -0.89458 0
M  V30 2808 C 261.725 1.85402 0.577906 0
M  V30 2809 O 261 1.32099 1.42759 0
M  V30 2810 C 261.283 3.28237 -1.48096 0
M  V30 2811 C 261.136 3.3312 -3.02244 0
M  V30 2812 C 262.455 4.24871 -1.14774 0
M  V30 2813 H 259.574 0.66077 -0.326424 0
M  V30 2814 H 262.216 1.28389 -1.40058 0
M  V30 2815 H 260.366 3.74024 -1.05062 0
M  V30 2816 H 262.038 2.95748 -3.54021 0
M  V30 2817 H 260.281 2.72756 -3.37323 0
M  V30 2818 H 260.952 4.3613 -3.38371 0
M  V30 2819 H 263.428 3.87361 -1.51957 0
M  V30 2820 H 262.304 5.25532 -1.58452 0
M  V30 2821 H 262.565 4.42058 -0.0611849 0
M  V30 2822 N 261.624 0.925811 1.2754 0
M  V30 2823 C 262.854 0.580666 1.98272 0
M  V30 2824 C 263.262 -0.845207 1.69272 0
M  V30 2825 O 262.605 -1.57306 0.948707 0
M  V30 2826 C 262.667 0.724418 3.52126 0
M  V30 2827 C 262.331 2.12206 4.04744 0
M  V30 2828 C 263.328 3.09604 4.17662 0
M  V30 2829 C 261.013 2.4385 4.39138 0
M  V30 2830 C 263.007 4.36755 4.64246 0
M  V30 2831 C 260.694 3.71237 4.85414 0
M  V30 2832 C 261.692 4.67503 4.97926 0
M  V30 2833 O 261.38 5.92624 5.43187 0
M  V30 2834 H 261.112 0.218987 0.639547 0
M  V30 2835 H 263.666 1.24452 1.63404 0
M  V30 2836 H 261.896 0.0034663 3.867 0
M  V30 2837 H 263.585 0.384607 4.04074 0
M  V30 2838 H 264.351 2.86478 3.91351 0
M  V30 2839 H 260.23 1.69665 4.28643 0
M  V30 2840 H 263.774 5.11898 4.73927 0
M  V30 2841 H 259.671 3.94182 5.11166 0
M  V30 2842 H 260.439 5.95585 5.61445 0
M  V30 2843 N 263.102 -1.41638 0.69111 0
M  V30 2844 C 264.349 -2.01299 0.220193 0
M  V30 2845 C 264.677 -1.54715 -1.17871 0
M  V30 2846 O 263.932 -0.747193 -1.80874 0
M  V30 2847 C 264.231 -3.56714 0.221277 0
M  V30 2848 C 263.897 -4.22792 1.56709 0
M  V30 2849 C 262.559 -4.40557 1.93554 0
M  V30 2850 C 264.911 -4.59883 2.45268 0
M  V30 2851 C 262.239 -4.92688 3.18552 0
M  V30 2852 C 264.591 -5.13403 3.69595 0
M  V30 2853 C 263.255 -5.29379 4.06589 0
M  V30 2854 H 262.525 -0.736606 0.0805743 0
M  V30 2855 H 265.172 -1.69598 0.889319 0
M  V30 2856 H 263.477 -3.8818 -0.531391 0
M  V30 2857 H 265.174 -4.00678 -0.160547 0
M  V30 2858 H 261.764 -4.09336 1.2705 0
M  V30 2859 H 265.948 -4.45817 2.18084 0
M  V30 2860 H 261.204 -5.03242 3.47214 0
M  V30 2861 H 265.378 -5.41084 4.38407 0
M  V30 2862 H 263.005 -5.69537 5.03519 0
M  V30 2863 N 264.58 -0.43555 -1.51462 0
M  V30 2864 C 265.543 0.365137 -2.26273 0
M  V30 2865 C 266.543 0.951227 -1.29647 0
M  V30 2866 O 267.733 0.825958 -1.53374 0
M  V30 2867 C 264.865 1.51645 -3.05314 0
M  V30 2868 H 266.058 -0.290474 -2.9849 0
M  V30 2869 H 263.611 -0.188676 -1.55157 0
M  V30 2870 H 264.346 2.20816 -2.3751 0
M  V30 2871 H 264.131 1.10238 -3.76284 0
M  V30 2872 H 265.621 2.08218 -3.61987 0
M  V30 2873 N 266.058 1.56714 -0.166846 0
M  V30 2874 C 267.304 1.97813 0.473473 0
M  V30 2875 C 267.659 1.05095 1.61161 0
M  V30 2876 O 266.952 0.0897541 1.9139 0
M  V30 2877 C 267.146 3.42889 1.00806 0
M  V30 2878 C 266.975 4.49635 -0.0767392 0
M  V30 2879 C 265.745 5.02566 -0.524894 0
M  V30 2880 C 267.943 5.06793 -0.875504 0
M  V30 2881 N 265.925 5.9294 -1.59047 0
M  V30 2882 C 267.296 5.93565 -1.79111 0
M  V30 2883 C 269.351 4.89306 -0.921083 0
M  V30 2884 C 268.054 6.64721 -2.74843 0
M  V30 2885 C 270.08 5.61179 -1.86633 0
M  V30 2886 C 269.442 6.47675 -2.76942 0
M  V30 2887 H 265.541 0.769093 0.141489 0
M  V30 2888 H 268.125 1.92874 -0.266031 0
M  V30 2889 H 266.296 3.48382 1.7171 0
M  V30 2890 H 268.028 3.71008 1.61664 0
M  V30 2891 H 264.783 4.73439 -0.123432 0
M  V30 2892 H 265.207 6.42831 -2.12361 0
M  V30 2893 H 269.849 4.22136 -0.23692 0
M  V30 2894 H 267.567 7.31107 -3.44249 0
M  V30 2895 H 271.153 5.49636 -1.90764 0
M  V30 2896 H 270.033 7.02313 -3.48893 0
M  V30 2897 N 267.536 -0.106894 1.57237 0
M  V30 2898 C 268.469 -1.16125 1.96444 0
M  V30 2899 C 269.447 -1.3947 0.835871 0
M  V30 2900 O 270.631 -1.53425 1.09513 0
M  V30 2901 C 267.758 -2.51277 2.27107 0
M  V30 2902 C 266.804 -2.44285 3.4961 0
M  V30 2903 S 267.637 -1.87077 5.01759 0
M  V30 2904 C 268.793 -3.23877 5.35588 0
M  V30 2905 H 269.026 -0.826971 2.85567 0
M  V30 2906 H 266.559 -0.314124 1.51171 0
M  V30 2907 H 268.517 -3.29035 2.45451 0
M  V30 2908 H 267.178 -2.81879 1.38576 0
M  V30 2909 H 266.371 -3.4387 3.68469 0
M  V30 2910 H 265.973 -1.74652 3.30715 0
M  V30 2911 H 268.265 -4.20122 5.31511 0
M  V30 2912 H 269.208 -3.09833 6.36717 0
M  V30 2913 H 269.616 -3.22864 4.63054 0
M  V30 2914 N 269.014 -1.53014 -0.377408 0
M  V30 2915 C 270.43 -1.42523 -0.718281 0
M  V30 2916 C 270.63 -0.55487 -1.9371 0
M  V30 2917 O 269.686 -0.0327593 -2.52479 0
M  V30 2918 C 270.999 -2.85546 -0.942539 0
M  V30 2919 C 272.547 -2.95101 -1.04329 0
M  V30 2920 C 273.022 -4.3916 -1.3001 0
M  V30 2921 N 274.513 -4.42536 -1.36806 0
M  V30 2922 C 275.248 -5.51097 -1.58364 0
M  V30 2923 N 274.744 -6.69724 -1.77317 0
M  V30 2924 N 276.537 -5.38657 -1.60638 0
M  V30 2925 H 268.688 -2.08116 0.424426 0
M  V30 2926 H 270.951 -0.939352 0.127759 0
M  V30 2927 H 270.657 -3.51499 -0.118929 0
M  V30 2928 H 270.531 -3.28493 -1.85397 0
M  V30 2929 H 272.918 -2.29309 -1.85745 0
M  V30 2930 H 272.999 -2.55566 -0.109505 0
M  V30 2931 H 272.643 -5.05521 -0.490991 0
M  V30 2932 H 272.573 -4.76258 -2.24691 0
M  V30 2933 H 275.064 -3.57039 -1.23821 0
M  V30 2934 H 275.377 -7.48233 -1.93306 0
M  V30 2935 H 273.722 -6.72732 -1.74518 0
M  V30 2936 H 276.913 -4.44948 -1.45391 0
M  V30 2937 H 277.086 -6.2333 -1.77098 0
M  V30 2938 N 270.492 0.636531 -1.44174 0
M  V30 2939 C 271.739 1.39619 -1.46672 0
M  V30 2940 C 272.067 1.94257 -0.0972691 0
M  V30 2941 O 271.322 1.73768 0.900175 0
M  V30 2942 C 271.621 2.58309 -2.47005 0
M  V30 2943 C 271.287 2.21992 -3.92467 0
M  V30 2944 C 269.949 2.118 -4.32081 0
M  V30 2945 C 272.301 1.9321 -4.84065 0
M  V30 2946 C 269.629 1.71007 -5.61225 0
M  V30 2947 C 271.981 1.53911 -6.13591 0
M  V30 2948 C 270.645 1.42257 -6.52165 0
M  V30 2949 H 269.915 0.510902 -0.536712 0
M  V30 2950 H 272.562 0.722328 -1.77355 0
M  V30 2951 H 270.867 3.30903 -2.09786 0
M  V30 2952 H 272.564 3.16533 -2.46186 0
M  V30 2953 H 269.154 2.30841 -3.61124 0
M  V30 2954 H 273.338 1.99997 -4.54219 0
M  V30 2955 H 268.594 1.60583 -5.89935 0
M  V30 2956 H 272.768 1.30677 -6.8403 0
M  V30 2957 H 270.395 1.10419 -7.52138 0
M  V30 2958 N 271.97 1.30982 0.876444 0
M  V30 2959 C 272.902 1.13902 1.98894 0
M  V30 2960 C 273.915 0.0798815 1.62604 0
M  V30 2961 O 275.104 0.326743 1.75484 0
M  V30 2962 C 272.204 0.716699 3.31235 0
M  V30 2963 C 271.377 1.85945 3.95908 0
M  V30 2964 C 270.436 1.42426 5.06558 0
M  V30 2965 O 269.462 2.13287 5.27729 0
M  V30 2966 N 270.664 0.308025 5.79682 0
M  V30 2967 H 273.429 2.09724 2.14094 0
M  V30 2968 H 270.99 1.2323 1.05004 0
M  V30 2969 H 272.982 0.408403 4.02634 0
M  V30 2970 H 271.552 -0.149719 3.12241 0
M  V30 2971 H 270.772 2.33541 3.17573 0
M  V30 2972 H 272.06 2.62503 4.35855 0
M  V30 2973 H 271.458 -0.282241 5.64995 0
M  V30 2974 H 270.015 0.0592282 6.51773 0
M  V30 2975 N 273.449 -1.08991 1.13837 0
M  V30 2976 C 274.696 -1.81258 0.902882 0
M  V30 2977 C 275.024 -1.85936 -0.570803 0
M  V30 2978 O 274.279 -1.3267 -1.43865 0
M  V30 2979 C 274.578 -3.27042 1.44147 0
M  V30 2980 C 274.244 -3.4249 2.93276 0
M  V30 2981 C 272.906 -3.46414 3.33992 0
M  V30 2982 C 275.258 -3.4666 3.892 0
M  V30 2983 C 272.586 -3.52091 4.69307 0
M  V30 2984 C 274.938 -3.53872 5.24364 0
M  V30 2985 C 273.602 -3.56066 5.646 0
M  V30 2986 H 272.872 -0.663268 0.330388 0
M  V30 2987 H 275.519 -1.28368 1.42105 0
M  V30 2988 H 273.824 -3.82599 0.844097 0
M  V30 2989 H 275.521 -3.81499 1.23528 0
M  V30 2990 H 272.111 -3.40124 2.60794 0
M  V30 2991 H 276.295 -3.42865 3.58828 0
M  V30 2992 H 271.551 -3.52079 4.9985 0
M  V30 2993 H 275.725 -3.56043 5.98503 0
M  V30 2994 H 273.352 -3.60218 6.69438 0
M  V30 2995 O 274.966 -1.06362 -1.21529 0
M  V30 2996 H 275.657 -0.745266 -1.78789 0
M  V30 END ATOM
M  V30 BEGIN BOND
M  V30 END BOND
M  V30 END CTAB
M  END
$$$$
