drugbank_target|Q8WXA8 5-hydroxytryptamine receptor 3C (DB00715; DB01049; DB01239; DB09304; DB11273; DB12141; DB13025; DB13345)
 OpenBabel12092120593D

  0  0  0     0  0            999 V3000
M  V30 BEGIN CTAB
M  V30 COUNTS 7095 7190 0 0 0
M  V30 BEGIN ATOM
M  V30 1 H -0.908 1.98254 -0.117106 0
M  V30 2 N 0 1.576 0 0
M  V30 3 C 0.933 2.03868 1.02534 0
M  V30 4 C 1.911 0.928543 1.3348 0
M  V30 5 O 3.095 1.19667 1.45644 0
M  V30 6 C 0.222 2.43627 2.35294 0
M  V30 7 C -0.732 3.65373 2.2001 0
M  V30 8 S 0.101 5.13292 1.52614 0
M  V30 9 C 1.257 5.56322 2.86805 0
M  V30 10 H 1.49 2.90518 0.631377 0
M  V30 11 H -0.977 1.52953 0.210867 0
M  V30 12 H 0.981 2.67203 3.11629 0
M  V30 13 H -0.358 1.57376 2.7183 0
M  V30 14 H -1.165 3.90944 3.18086 0
M  V30 15 H -1.563 3.418 1.51819 0
M  V30 16 H 0.729 5.58782 3.83104 0
M  V30 17 H 1.672 6.56266 2.65933 0
M  V30 18 H 2.08 4.83886 2.90714 0
M  V30 19 N 1.4781 -0.272755 1.55222 0
M  V30 20 C 2.3881 -1.35918 1.91216 0
M  V30 21 C 3.4041 -1.54026 0.809436 0
M  V30 22 O 4.5801 -1.68148 1.10852 0
M  V30 23 C 1.6451 -2.69834 2.17693 0
M  V30 24 C 0.7061 -2.6047 3.41253 0
M  V30 25 C -0.0609 -3.88 3.66458 0
M  V30 26 O 0.1621 -4.88693 2.94169 0
M  V30 27 O -0.9039 -3.88189 4.59992 0
M  V30 28 H 2.9221 -1.0839 2.83699 0
M  V30 29 H 0.5071 -0.471301 1.41771 0
M  V30 30 H 2.3891 -3.49017 2.36147 0
M  V30 31 H 1.0641 -2.97148 1.28392 0
M  V30 32 H -0.0289 -1.79663 3.28134 0
M  V30 33 H 1.3041 -2.38106 4.30774 0
M  V30 34 N 2.9562 -1.48159 -0.537278 0
M  V30 35 C 4.2042 -1.55497 -1.29094 0
M  V30 36 C 4.5252 -0.227454 -1.93669 0
M  V30 37 O 3.7952 0.750386 -1.80959 0
M  V30 38 H 2.3752 -0.572832 -0.47945 0
M  V30 39 H 5.0372 -1.84579 -0.625818 0
M  V30 40 H 4.1332 -2.33216 -2.07405 0
M  V30 41 N 4.4343 0.785586 -1.36625 0
M  V30 42 C 5.6823 1.54057 -1.30808 0
M  V30 43 C 6.0033 1.94683 0.111157 0
M  V30 44 O 5.2733 1.65241 1.05224 0
M  V30 45 H 3.8533 0.571354 -0.481211 0
M  V30 46 H 6.5153 0.935821 -1.70963 0
M  V30 47 H 5.6113 2.44637 -1.93801 0
M  V30 48 N 5.9124 1.20967 1.01018 0
M  V30 49 C 7.1584 1.0353 1.7508 0
M  V30 50 C 7.5134 -0.42734 1.87594 0
M  V30 51 O 6.8064 -1.31298 1.3954 0
M  V30 52 C 7.0004 1.65997 3.16512 0
M  V30 53 C 6.8294 3.18184 3.17788 0
M  V30 54 C 5.5994 3.87198 3.24662 0
M  V30 55 C 7.7974 4.15334 3.03319 0
M  V30 56 N 5.7794 5.26618 3.15509 0
M  V30 57 C 7.1504 5.41472 3.02007 0
M  V30 58 C 9.2054 4.06449 2.87583 0
M  V30 59 C 7.9084 6.5975 2.86571 0
M  V30 60 C 9.9344 5.24357 2.73503 0
M  V30 61 C 9.2964 6.49404 2.72862 0
M  V30 62 H 5.3954 0.433137 0.651089 0
M  V30 63 H 7.9794 1.5324 1.20107 0
M  V30 64 H 6.1504 1.18863 3.69765 0
M  V30 65 H 7.8824 1.41816 3.79039 0
M  V30 66 H 4.6374 3.38093 3.31648 0
M  V30 67 H 5.0614 5.99626 3.14289 0
M  V30 68 H 9.7034 3.10573 2.86887 0
M  V30 69 H 7.4214 7.55792 2.86015 0
M  V30 70 H 11.0074 5.19299 2.62334 0
M  V30 71 H 9.8874 7.39105 2.62093 0
M  V30 72 N 7.3905 -1.2043 1.01659 0
M  V30 73 C 8.8015 -1.71517 0.737482 0
M  V30 74 C 9.1525 -1.81547 -0.743973 0
M  V30 75 O 8.2775 -1.47803 -1.58061 0
M  V30 76 C 8.8725 -3.11515 1.33206 0
M  V30 77 C 7.4315 -3.59912 1.10183 0
M  V30 78 C 6.5785 -2.37116 1.43776 0
M  V30 79 H 9.5295 -1.05444 1.18606 0
M  V30 80 H 9.5505 -3.73575 0.722636 0
M  V30 81 H 9.0625 -3.04182 2.41028 0
M  V30 82 H 7.1635 -3.72577 0.0412756 0
M  V30 83 H 7.2765 -4.44731 1.78188 0
M  V30 84 H 5.6405 -2.39857 0.856778 0
M  V30 85 H 6.4235 -2.32424 2.52654 0
M  V30 86 N 8.8686 -0.792821 -1.36206 0
M  V30 87 C 9.8316 -0.199459 -2.2833 0
M  V30 88 C 10.8316 0.605189 -1.48977 0
M  V30 89 O 12.0216 0.425685 -1.68919 0
M  V30 90 C 9.1536 0.723523 -3.33134 0
M  V30 91 H 10.3466 -1.01181 -2.82316 0
M  V30 92 H 7.8996 -0.562485 -1.45828 0
M  V30 93 H 8.6346 1.56008 -2.84309 0
M  V30 94 H 8.4196 0.148436 -3.91819 0
M  V30 95 H 9.9096 1.13344 -4.01924 0
M  V30 96 N 10.3467 1.47872 -0.545128 0
M  V30 97 C 11.7627 1.5829 -0.204032 0
M  V30 98 C 11.9627 1.54529 1.29317 0
M  V30 99 O 11.0187 1.44232 2.07252 0
M  V30 100 C 12.3317 2.89304 -0.819987 0
M  V30 101 C 13.8797 3.02864 -0.790105 0
M  V30 102 C 14.3547 4.3656 -1.38491 0
M  V30 103 N 15.8457 4.43165 -1.34755 0
M  V30 104 C 16.5807 5.45153 -1.77753 0
M  V30 105 N 16.0767 6.54016 -2.2855 0
M  V30 106 N 17.8697 5.36125 -1.68897 0
M  V30 107 H 10.0207 1.4856 -1.51802 0
M  V30 108 H 12.2837 0.706305 -0.632327 0
M  V30 109 H 11.9897 2.97757 -1.87173 0
M  V30 110 H 11.8637 3.75957 -0.305915 0
M  V30 111 H 14.2507 2.94014 0.252913 0
M  V30 112 H 14.3317 2.17782 -1.34181 0
M  V30 113 H 13.9757 4.46164 -2.42693 0
M  V30 114 H 13.9057 5.20353 -0.808754 0
M  V30 115 H 16.3967 3.65083 -0.975855 0
M  V30 116 H 16.7097 7.27994 -2.59314 0
M  V30 117 H 15.0547 6.54938 -2.32553 0
M  V30 118 H 18.2457 4.49975 -1.28998 0
M  V30 119 H 18.4187 6.15472 -2.02726 0
M  V30 120 N 11.8248 0.280983 1.55075 0
M  V30 121 C 12.7568 -0.637268 2.20163 0
M  V30 122 C 13.7698 -1.11298 1.18813 0
M  V30 123 O 14.9588 -1.03388 1.4551 0
M  V30 124 C 12.0588 -1.88199 2.81841 0
M  V30 125 C 11.2318 -1.55211 4.08936 0
M  V30 126 C 10.2908 -2.64991 4.54606 0
M  V30 127 O 9.3168 -2.30929 5.2025 0
M  V30 128 N 10.5188 -3.95161 4.25238 0
M  V30 129 H 13.2838 -0.0801694 2.99593 0
M  V30 130 H 10.8448 0.102329 1.61576 0
M  V30 131 H 12.8368 -2.60948 3.09335 0
M  V30 132 H 11.4068 -2.34799 2.06369 0
M  V30 133 H 10.6268 -0.658185 3.88666 0
M  V30 134 H 11.9148 -1.30681 4.91732 0
M  V30 135 H 11.3128 -4.25653 3.72607 0
M  V30 136 H 9.8698 -4.6427 4.5749 0
M  V30 137 N 13.3029 -1.57598 0.00835791 0
M  V30 138 C 14.5279 -1.95617 -0.689103 0
M  V30 139 C 14.9529 -0.883753 -1.66046 0
M  V30 140 O 14.3109 0.157352 -1.80616 0
M  V30 141 C 14.3589 -3.32736 -1.38994 0
M  V30 142 O 13.4629 -3.27631 -2.50463 0
M  V30 143 H 12.8039 -0.638379 -0.182668 0
M  V30 144 H 15.3339 -2.045 0.064036 0
M  V30 145 H 15.3439 -3.68494 -1.75147 0
M  V30 146 H 14.0189 -4.1034 -0.677778 0
M  V30 147 H 12.5959 -3.03561 -2.16576 0
M  V30 148 N 14.781 0.264519 -1.55364 0
M  V30 149 C 15.744 1.31046 -1.88042 0
M  V30 150 C 16.744 1.41943 -0.755569 0
M  V30 151 O 17.934 1.40947 -1.02369 0
M  V30 152 C 15.066 2.69067 -2.09323 0
M  V30 153 H 16.259 1.03297 -2.81549 0
M  V30 154 H 13.812 0.502989 -1.47986 0
M  V30 155 H 14.547 3.01982 -1.18226 0
M  V30 156 H 14.332 2.62542 -2.91229 0
M  V30 157 H 15.822 3.44623 -2.35848 0
M  V30 158 N 16.2591 1.48442 0.529413 0
M  V30 159 C 17.1891 1.65902 1.64313 0
M  V30 160 C 18.1701 0.507897 1.6234 0
M  V30 161 O 19.3551 0.740503 1.79528 0
M  V30 162 C 16.4851 1.69911 3.02898 0
M  V30 163 C 15.4391 2.8453 3.19729 0
M  V30 164 C 14.7651 2.73629 4.59381 0
M  V30 165 C 16.0651 4.25821 3.02447 0
M  V30 166 H 17.7591 2.5914 1.49955 0
M  V30 167 H 15.3051 1.24709 0.719982 0
M  V30 168 H 17.2581 1.80715 3.80684 0
M  V30 169 H 15.9821 0.732524 3.18279 0
M  V30 170 H 14.6411 2.73283 2.44361 0
M  V30 171 H 14.2891 1.74938 4.71599 0
M  V30 172 H 13.9891 3.50541 4.71588 0
M  V30 173 H 15.5131 2.86401 5.39265 0
M  V30 174 H 16.9271 4.37898 3.70024 0
M  V30 175 H 15.3241 5.03735 3.26146 0
M  V30 176 H 16.3941 4.42244 1.98867 0
M  V30 177 N 17.7372 -0.778329 1.37039 0
M  V30 178 C 18.6672 -1.90546 1.34962 0
M  V30 179 C 19.6482 -1.68681 0.219274 0
M  V30 180 O 20.8332 -1.89634 0.418624 0
M  V30 181 C 17.9632 -3.27734 1.14925 0
M  V30 182 C 16.9172 -3.64147 2.24902 0
M  V30 183 C 16.2432 -4.99806 1.89996 0
M  V30 184 C 17.5432 -3.71579 3.67051 0
M  V30 185 H 19.2372 -1.92541 2.29277 0
M  V30 186 H 16.7832 -0.924948 1.10366 0
M  V30 187 H 18.7362 -4.06215 1.12104 0
M  V30 188 H 17.4602 -3.26154 0.170631 0
M  V30 189 H 16.1192 -2.8797 2.26868 0
M  V30 190 H 15.7672 -4.94759 0.906796 0
M  V30 191 H 15.4672 -5.25139 2.63634 0
M  V30 192 H 16.9912 -5.80694 1.88749 0
M  V30 193 H 18.4052 -4.40227 3.67251 0
M  V30 194 H 16.8022 -4.08405 4.39688 0
M  V30 195 H 17.8722 -2.72404 4.01154 0
M  V30 196 N 19.2153 -1.21501 -1.00376 0
M  V30 197 C 20.4553 -1.04444 -1.75701 0
M  V30 198 C 20.8193 0.414644 -1.87469 0
M  V30 199 O 22.0203 0.705763 -2.59369 0
M  V30 200 C 20.2913 -1.72389 -3.13077 0
M  V30 201 S 21.8503 -1.70604 -4.04277 0
M  V30 202 H 18.6683 -0.374249 -0.604532 0
M  V30 203 H 21.2703 -1.54267 -1.20091 0
M  V30 204 H 19.9743 -2.77734 -3.02146 0
M  V30 205 H 19.5053 -1.22751 -3.73759 0
M  V30 206 H 21.5203 -0.748012 -4.9053 0
M  V30 207 N 20.6934 1.19889 -1.02296 0
M  V30 208 C 21.6234 2.25141 -0.619174 0
M  V30 209 C 22.6044 1.66051 0.368915 0
M  V30 210 O 23.7894 1.92546 0.252941 0
M  V30 211 C 20.9194 3.4728 0.0368783 0
M  V30 212 C 19.8734 4.19005 -0.872865 0
M  V30 213 C 19.1994 5.34637 -0.0822402 0
M  V30 214 C 20.4994 4.74452 -2.18387 0
M  V30 215 H 22.1934 2.59171 -1.49903 0
M  V30 216 H 19.7394 1.24579 -0.722222 0
M  V30 217 H 21.6924 4.20098 0.330958 0
M  V30 218 H 20.4164 3.12433 0.95149 0
M  V30 219 H 19.0754 3.48061 -1.15105 0
M  V30 220 H 18.7234 4.96034 0.83422 0
M  V30 221 H 18.4234 5.83557 -0.688149 0
M  V30 222 H 19.9474 6.10255 0.205238 0
M  V30 223 H 21.3614 5.39055 -1.95172 0
M  V30 224 H 19.7584 5.33834 -2.74119 0
M  V30 225 H 20.8284 3.92844 -2.84257 0
M  V30 226 N 22.1715 0.800033 1.35784 0
M  V30 227 C 23.3995 0.389606 2.03199 0
M  V30 228 C 23.8145 -0.997375 1.60306 0
M  V30 229 O 23.1715 -1.64154 0.797481 0
M  V30 230 C 23.2225 0.455855 3.58614 0
M  V30 231 O 22.9435 1.78815 3.99946 0
M  V30 232 C 24.4445 0.0374032 4.43284 0
M  V30 233 H 21.6645 0.159132 0.651857 0
M  V30 234 H 24.2085 1.08183 1.73541 0
M  V30 235 H 22.3635 -0.188057 3.86943 0
M  V30 236 H 22.7775 1.74636 4.94573 0
M  V30 237 H 24.2515 0.134882 5.51835 0
M  V30 238 H 24.7285 -1.01651 4.27275 0
M  V30 239 H 25.3345 0.654215 4.20238 0
M  V30 240 N 23.6496 -1.47581 0.552962 0
M  V30 241 C 24.8956 -2.02782 0.0273648 0
M  V30 242 C 25.2286 -1.42687 -1.31734 0
M  V30 243 O 24.5036 -0.580897 -1.85623 0
M  V30 244 C 24.7866 -3.60031 -0.0702371 0
M  V30 245 C 24.6396 -4.30566 1.30126 0
M  V30 246 C 25.9586 -4.33028 -0.785771 0
M  V30 247 H 23.0776 -0.736912 0.0114185 0
M  V30 248 H 25.7196 -1.76056 0.714432 0
M  V30 249 H 23.8696 -3.82932 -0.655382 0
M  V30 250 H 25.5416 -4.19018 1.92929 0
M  V30 251 H 23.7846 -3.91086 1.87709 0
M  V30 252 H 24.4556 -5.39114 1.18573 0
M  V30 253 H 26.9316 -4.15095 -0.288982 0
M  V30 254 H 25.8076 -5.42695 -0.823013 0
M  V30 255 H 26.0686 -4.01945 -1.841 0
M  V30 256 N 25.1277 -0.289203 -1.54924 0
M  V30 257 C 26.3527 0.329299 -2.04769 0
M  V30 258 C 26.7777 1.4763 -1.16564 0
M  V30 259 O 26.1357 1.80527 -0.167186 0
M  V30 260 C 26.1837 0.774438 -3.52186 0
M  V30 261 O 25.2877 1.88038 -3.67036 0
M  V30 262 H 24.6287 0.0659259 -0.660719 0
M  V30 263 H 27.1587 -0.42761 -2.00082 0
M  V30 264 H 27.1687 1.06642 -3.93816 0
M  V30 265 H 25.8437 -0.0646707 -4.1585 0
M  V30 266 H 24.4207 1.58985 -3.3731 0
M  V30 267 N 26.6058 1.57591 -0.0167156 0
M  V30 268 C 27.5358 2.12496 0.967858 0
M  V30 269 C 28.5168 1.03807 1.34752 0
M  V30 270 O 29.7018 1.31577 1.42833 0
M  V30 271 C 26.8318 2.64194 2.25431 0
M  V30 272 C 25.7858 3.77559 2.01576 0
M  V30 273 C 25.1118 4.15636 3.36379 0
M  V30 274 C 26.4118 5.04151 1.36489 0
M  V30 275 H 28.1058 2.95013 0.510643 0
M  V30 276 H 25.6518 1.41915 0.244181 0
M  V30 277 H 27.6048 3.01236 2.94678 0
M  V30 278 H 26.3288 1.78821 2.73296 0
M  V30 279 H 24.9878 3.40937 1.34751 0
M  V30 280 H 24.6358 3.27263 3.81979 0
M  V30 281 H 24.3358 4.92022 3.21229 0
M  V30 282 H 25.8598 4.5525 4.06915 0
M  V30 283 H 27.2738 5.38857 1.95718 0
M  V30 284 H 25.6708 5.85453 1.31776 0
M  V30 285 H 26.7408 4.83733 0.336219 0
M  V30 286 N 28.0839 -0.256276 1.55502 0
M  V30 287 C 29.0139 -1.32102 1.92539 0
M  V30 288 C 29.9949 -1.50684 0.789194 0
M  V30 289 O 31.1799 -1.63449 1.04872 0
M  V30 290 C 28.3099 -2.67752 2.21192 0
M  V30 291 C 27.2639 -2.63878 3.36975 0
M  V30 292 C 26.5899 -4.03236 3.51147 0
M  V30 293 C 27.8899 -2.21682 4.72921 0
M  V30 294 H 29.5839 -1.01351 2.81724 0
M  V30 295 H 27.1299 -0.486105 1.35547 0
M  V30 296 H 29.0829 -3.42365 2.45691 0
M  V30 297 H 27.8069 -3.0012 1.28824 0
M  V30 298 H 26.4659 -1.91722 3.12471 0
M  V30 299 H 26.1139 -4.32854 2.56216 0
M  V30 300 H 25.8139 -4.01535 4.29003 0
M  V30 301 H 27.3379 -4.79563 3.77957 0
M  V30 302 H 28.7519 -2.86023 4.96854 0
M  V30 303 H 27.1489 -2.3111 5.53812 0
M  V30 304 H 28.2189 -1.16833 4.70615 0
M  V30 305 N 29.562 -1.4872 -0.521534 0
M  V30 306 C 30.492 -1.66771 -1.63431 0
M  V30 307 C 31.473 -0.516499 -1.62069 0
M  V30 308 O 32.658 -0.750013 -1.79132 0
M  V30 309 C 29.788 -1.71515 -3.01993 0
M  V30 310 C 28.742 -2.86222 -3.18216 0
M  V30 311 C 28.068 -2.76061 -4.57924 0
M  V30 312 C 29.368 -4.27419 -3.00184 0
M  V30 313 H 31.062 -2.59932 -1.48579 0
M  V30 314 H 28.608 -1.25089 -0.713358 0
M  V30 315 H 30.561 -1.82731 -3.7972 0
M  V30 316 H 29.285 -0.749393 -3.17886 0
M  V30 317 H 27.944 -2.74575 -2.42908 0
M  V30 318 H 27.592 -1.77437 -4.70665 0
M  V30 319 H 27.292 -3.53037 -4.69722 0
M  V30 320 H 28.816 -2.89256 -5.37739 0
M  V30 321 H 30.23 -4.39855 -3.67697 0
M  V30 322 H 28.627 -5.05458 -3.2347 0
M  V30 323 H 29.697 -4.43293 -1.96518 0
M  V30 324 N 31.0401 0.771051 -1.3745 0
M  V30 325 C 31.9721 1.89352 -1.29146 0
M  V30 326 C 32.9851 1.61477 -0.207124 0
M  V30 327 O 34.1741 1.72382 -0.463324 0
M  V30 328 C 31.2741 3.24596 -0.974195 0
M  V30 329 C 30.4471 3.80111 -2.16413 0
M  V30 330 C 29.5061 4.93832 -1.81703 0
M  V30 331 O 28.5321 5.09382 -2.54006 0
M  V30 332 N 29.7341 5.75483 -0.761573 0
M  V30 333 H 32.4991 1.96991 -2.25864 0
M  V30 334 H 30.0601 0.950191 -1.31084 0
M  V30 335 H 32.0521 3.98193 -0.722828 0
M  V30 336 H 30.6221 3.12454 -0.0955527 0
M  V30 337 H 29.8421 2.98284 -2.57721 0
M  V30 338 H 31.1301 4.13932 -2.95867 0
M  V30 339 H 30.5281 5.65469 -0.161609 0
M  V30 340 H 29.0851 6.49302 -0.570064 0
M  V30 341 N 32.5182 1.22032 0.997298 0
M  V30 342 C 33.7662 1.04016 1.73278 0
M  V30 343 C 34.0872 -0.426255 1.90284 0
M  V30 344 O 33.3572 -1.30694 1.45931 0
M  V30 345 H 31.9372 0.381897 0.642 0
M  V30 346 H 34.5992 1.5347 1.20137 0
M  V30 347 H 33.6952 1.51441 2.72896 0
M  V30 348 N 33.9963 -1.19345 1.0293 0
M  V30 349 C 35.4123 -1.41069 0.746446 0
M  V30 350 C 35.6123 -1.90078 -0.668776 0
M  V30 351 O 34.6683 -2.0778 -1.4347 0
M  V30 352 C 35.9813 -2.42141 1.78292 0
M  V30 353 C 37.5293 -2.55887 1.80252 0
M  V30 354 C 38.0043 -3.60214 2.8286 0
M  V30 355 N 39.4953 -3.67711 2.81679 0
M  V30 356 C 40.2303 -4.48128 3.57727 0
M  V30 357 N 39.7263 -5.32248 4.43491 0
M  V30 358 N 41.5193 -4.42782 3.46267 0
M  V30 359 H 33.6703 -0.858536 1.94275 0
M  V30 360 H 35.9333 -0.439541 0.839945 0
M  V30 361 H 35.6393 -2.13155 2.79746 0
M  V30 362 H 35.5133 -3.41323 1.60557 0
M  V30 363 H 37.9003 -2.84196 0.794757 0
M  V30 364 H 37.9813 -1.56858 2.02062 0
M  V30 365 H 37.6253 -3.32647 3.83807 0
M  V30 366 H 37.5553 -4.58895 2.58307 0
M  V30 367 H 40.0463 -3.07634 2.19476 0
M  V30 368 H 40.3593 -5.90729 4.98256 0
M  V30 369 H 38.7043 -5.31707 4.47564 0
M  V30 370 H 41.8953 -3.76107 2.78677 0
M  V30 371 H 42.0683 -5.05215 4.05785 0
M  V30 372 N 35.4744 -0.807222 -1.35358 0
M  V30 373 C 36.7224 -0.387122 -1.98358 0
M  V30 374 C 37.0434 1.04942 -1.64354 0
M  V30 375 O 36.3134 1.72615 -0.926339 0
M  V30 376 H 34.8934 -0.140154 -0.733734 0
M  V30 377 H 37.5554 -1.0332 -1.6526 0
M  V30 378 H 36.6514 -0.493352 -3.08176 0
M  V30 379 N 36.9525 1.47285 -0.560781 0
M  V30 380 C 38.2295 1.9558 0.0277798 0
M  V30 381 C 38.6095 1.5034 1.48192 0
M  V30 382 O 37.9575 0.743882 2.16052 0
M  V30 383 C 38.1675 3.48789 -0.121418 0
M  V30 384 C 39.5155 4.24594 0.0220912 0
M  V30 385 O 40.5395 3.56166 -0.0491439 0
M  V30 386 O 39.3985 5.46217 0.175958 0
M  V30 387 H 36.4925 0.824663 0.0621342 0
M  V30 388 H 39.0385 1.5767 -0.627556 0
M  V30 389 H 37.8105 3.74533 -1.13316 0
M  V30 390 H 37.4335 3.93473 0.571366 0
M  V30 391 N 38.4306 0.297415 1.54768 0
M  V30 392 C 39.3936 -0.567375 2.22066 0
M  V30 393 C 40.3936 -1.06409 1.20556 0
M  V30 394 O 41.5836 -0.960691 1.45315 0
M  V30 395 C 38.7156 -1.78517 2.90421 0
M  V30 396 H 39.9086 0.0205534 2.99893 0
M  V30 397 H 37.4616 0.0482163 1.56226 0
M  V30 398 H 38.1966 -2.41303 2.16664 0
M  V30 399 H 37.9816 -1.43669 3.64831 0
M  V30 400 H 39.4716 -2.39964 3.41771 0
M  V30 401 N 39.9087 -1.5758 0.0250728 0
M  V30 402 C 41.1557 -1.91633 -0.654444 0
M  V30 403 C 41.4837 -0.901103 -1.72367 0
M  V30 404 O 40.7387 0.0905647 -1.9549 0
M  V30 405 C 41.0377 -3.32421 -1.31268 0
M  V30 406 C 40.7037 -4.49344 -0.374223 0
M  V30 407 C 39.3657 -4.8106 -0.115911 0
M  V30 408 C 41.7177 -5.20498 0.270432 0
M  V30 409 C 39.0457 -5.8129 0.79493 0
M  V30 410 C 41.3977 -6.21699 1.1693 0
M  V30 411 C 40.0617 -6.51859 1.43655 0
M  V30 412 H 39.3317 -0.701236 -0.239478 0
M  V30 413 H 41.9787 -1.91307 0.0859734 0
M  V30 414 H 40.2837 -3.28989 -2.12775 0
M  V30 415 H 41.9807 -3.56038 -1.84494 0
M  V30 416 H 38.5707 -4.24579 -0.58573 0
M  V30 417 H 42.7547 -4.96229 0.0839194 0
M  V30 418 H 38.0107 -6.03005 1.00973 0
M  V30 419 H 42.1847 -6.75955 1.67504 0
M  V30 420 H 39.8117 -7.2934 2.144 0
M  V30 421 N 41.3868 0.248026 -1.55636 0
M  V30 422 C 42.6148 0.993808 -1.81469 0
M  V30 423 C 43.0298 1.78991 -0.60064 0
M  V30 424 O 42.3868 1.77345 0.430682 0
M  V30 425 C 42.4378 1.93258 -3.05506 0
M  V30 426 O 42.1588 1.16869 -4.22224 0
M  V30 427 C 43.6598 2.79444 -3.4413 0
M  V30 428 H 40.8798 0.292486 -0.603898 0
M  V30 429 H 43.4238 0.271253 -2.02693 0
M  V30 430 H 41.5788 2.60943 -2.86335 0
M  V30 431 H 41.9928 1.80359 -4.92515 0
M  V30 432 H 43.4668 3.41066 -4.34026 0
M  V30 433 H 43.9438 3.50499 -2.64665 0
M  V30 434 H 44.5498 2.17214 -3.65648 0
M  V30 435 N 42.8649 1.48995 0.513639 0
M  V30 436 C 44.1139 1.57093 1.2651 0
M  V30 437 C 44.4269 0.257091 1.93903 0
M  V30 438 O 45.6329 0.216478 2.70636 0
M  V30 439 C 44.0889 2.77118 2.29638 0
M  V30 440 C 43.6969 4.15209 1.68241 0
M  V30 441 C 45.4409 2.94538 3.05692 0
M  V30 442 C 43.3479 5.26474 2.69406 0
M  V30 443 H 42.2779 0.584876 0.475854 0
M  V30 444 H 44.9289 1.7536 0.540487 0
M  V30 445 H 43.3109 2.52319 3.05207 0
M  V30 446 H 44.4849 4.50094 0.987505 0
M  V30 447 H 42.7999 4.03042 1.04623 0
M  V30 448 H 45.3969 3.74832 3.8132 0
M  V30 449 H 45.7399 2.04614 3.62545 0
M  V30 450 H 46.2729 3.19316 2.37238 0
M  V30 451 H 43.0119 6.18417 2.17351 0
M  V30 452 H 42.5319 4.96058 3.37175 0
M  V30 453 H 44.2109 5.55277 3.32078 0
M  V30 454 N 44.343 -0.763751 1.37857 0
M  V30 455 C 45.291 -1.89864 1.34367 0
M  V30 456 C 46.285 -1.67816 0.231143 0
M  V30 457 O 47.491 -1.75508 0.399617 0
M  V30 458 H 43.866 -0.624501 0.41893 0
M  V30 459 H 45.837 -1.89925 2.30155 0
M  V30 460 C 44.586 -3.27227 1.1755 0
M  V30 461 H 43.909 -3.44773 2.02414 0
M  V30 462 H 45.349 -4.06911 1.1916 0
M  V30 463 C 43.808 -3.36692 -0.118311 0
M  V30 464 O 44.338 -3.86374 -1.09902 0
M  V30 465 N 42.544 -2.90092 -0.171717 0
M  V30 466 H 42.091 -2.49853 0.627012 0
M  V30 467 H 42.049 -2.96806 -1.03699 0
M  V30 468 N 45.8211 -1.22559 -0.990812 0
M  V30 469 C 47.0611 -1.06302 -1.74583 0
M  V30 470 C 47.4251 0.394737 -1.87898 0
M  V30 471 O 48.6261 0.678214 -2.60103 0
M  V30 472 C 46.8971 -1.75699 -3.11231 0
M  V30 473 S 48.4561 -1.74882 -4.02445 0
M  V30 474 H 45.2741 -0.380639 -0.600529 0
M  V30 475 H 47.8761 -1.55532 -1.18449 0
M  V30 476 H 46.5801 -2.80923 -2.99183 0
M  V30 477 H 46.1111 -1.26708 -3.72436 0
M  V30 478 H 48.1261 -0.799997 -4.89709 0
M  V30 479 N 47.2992 1.18797 -1.03562 0
M  V30 480 C 48.5242 1.9314 -0.755764 0
M  V30 481 C 48.9492 1.7537 0.68022 0
M  V30 482 O 48.3072 1.06046 1.47051 0
M  V30 483 C 48.3552 3.42747 -1.12058 0
M  V30 484 O 47.4592 4.11683 -0.243124 0
M  V30 485 H 46.8002 0.602724 -0.278604 0
M  V30 486 H 49.3302 1.50678 -1.3841 0
M  V30 487 H 49.3402 3.93437 -1.08035 0
M  V30 488 H 48.0152 3.55002 -2.16672 0
M  V30 489 H 46.5922 3.71323 -0.342539 0
M  V30 490 N 48.7773 0.814389 1.34928 0
M  V30 491 C 50.0253 0.397636 1.9815 0
M  V30 492 C 50.3463 -1.04069 1.64908 0
M  V30 493 O 49.6163 -1.72121 0.93548 0
M  V30 494 H 48.1963 0.144043 0.732981 0
M  V30 495 H 50.8583 1.04195 1.6471 0
M  V30 496 H 49.9543 0.509688 3.0791 0
M  V30 497 N 50.2554 -1.46986 0.568584 0
M  V30 498 C 51.5024 -2.02441 0.0487986 0
M  V30 499 C 51.8304 -1.44169 -1.30559 0
M  V30 500 O 51.0854 -0.591213 -1.86556 0
M  V30 501 C 51.3844 -3.57306 -0.081836 0
M  V30 502 C 51.0504 -4.34552 1.20313 0
M  V30 503 C 49.7124 -4.55376 1.5552 0
M  V30 504 C 52.0644 -4.79016 2.05411 0
M  V30 505 C 49.3924 -5.17913 2.7565 0
M  V30 506 C 51.7444 -5.42879 3.24754 0
M  V30 507 C 50.4084 -5.61933 3.60261 0
M  V30 508 H 49.6784 -0.740785 0.0178567 0
M  V30 509 H 52.3254 -1.76525 0.742384 0
M  V30 510 H 50.6304 -3.8228 -0.858463 0
M  V30 511 H 52.3274 -3.97876 -0.499546 0
M  V30 512 H 48.9174 -4.18631 0.919014 0
M  V30 513 H 53.1014 -4.62696 1.79516 0
M  V30 514 H 48.3574 -5.30858 3.03315 0
M  V30 515 H 52.5314 -5.76293 3.90973 0
M  V30 516 H 50.1584 -6.10161 4.53439 0
M  V30 517 N 51.7335 -0.305618 -1.54608 0
M  V30 518 C 53.0105 0.355652 -1.92339 0
M  V30 519 C 53.3905 1.71324 -1.23335 0
M  V30 520 O 52.7385 2.25473 -0.370702 0
M  V30 521 C 52.9485 0.46572 -3.45879 0
M  V30 522 C 54.2965 0.734426 -4.182 0
M  V30 523 O 55.3205 0.54935 -3.51938 0
M  V30 524 O 54.1795 1.09024 -5.35515 0
M  V30 525 H 51.2735 0.199666 -0.802535 0
M  V30 526 H 53.8195 -0.354017 -1.65966 0
M  V30 527 H 52.5915 -0.488461 -3.88239 0
M  V30 528 H 52.2145 1.22367 -3.78301 0
M  V30 529 N 53.2116 1.57565 -0.0334293 0
M  V30 530 C 54.1436 2.0739 0.975811 0
M  V30 531 C 55.1566 0.998166 1.2861 0
M  V30 532 O 56.3456 1.27426 1.25 0
M  V30 533 C 53.4456 2.4871 2.30209 0
M  V30 534 C 52.6186 3.79413 2.17634 0
M  V30 535 C 51.6776 4.07237 3.33233 0
M  V30 536 O 50.7036 4.77425 3.09927 0
M  V30 537 N 51.9056 3.5775 4.5716 0
M  V30 538 H 54.6706 2.94598 0.55066 0
M  V30 539 H 52.2316 1.61173 0.15323 0
M  V30 540 H 54.2236 2.64413 3.06378 0
M  V30 541 H 52.7936 1.66845 2.64351 0
M  V30 542 H 52.0136 3.73465 1.26165 0
M  V30 543 H 53.3016 4.65038 2.0644 0
M  V30 544 H 52.6996 3.00976 4.78989 0
M  V30 545 H 51.2566 3.78724 5.30482 0
M  V30 546 N 54.6897 -0.239769 1.55765 0
M  V30 547 C 55.6397 -1.30002 1.87306 0
M  V30 548 C 56.6237 -1.43156 0.73452 0
M  V30 549 O 57.8157 -1.46277 0.99659 0
M  V30 550 C 54.9447 -2.65409 2.17745 0
M  V30 551 C 54.0307 -2.56231 3.37945 0
M  V30 552 N 54.4217 -2.16689 4.57033 0
M  V30 553 C 52.7197 -2.87229 3.41197 0
M  V30 554 C 53.4207 -2.18318 5.39177 0
M  V30 555 N 52.3967 -2.58098 4.78421 0
M  V30 556 H 56.1987 -0.984912 2.76906 0
M  V30 557 H 53.7127 -0.448381 1.56087 0
M  V30 558 H 55.7097 -3.41934 2.38509 0
M  V30 559 H 54.3697 -2.97781 1.29448 0
M  V30 560 H 55.3807 -1.88116 4.82528 0
M  V30 561 H 52.0577 -3.24094 2.63191 0
M  V30 562 H 53.4477 -1.90025 6.44469 0
M  V30 563 N 56.1678 -1.49265 -0.50573 0
M  V30 564 C 57.4158 -1.582 -1.25766 0
M  V30 565 C 57.7368 -0.268482 -1.93143 0
M  V30 566 O 57.0068 0.711833 -1.8251 0
M  V30 567 H 55.5868 -0.582873 -0.467191 0
M  V30 568 H 58.2488 -1.85865 -0.586525 0
M  V30 569 H 57.3448 -2.37563 -2.02412 0
M  V30 570 N 57.6459 0.756429 -1.3826 0
M  V30 571 C 58.8919 1.51772 -1.34511 0
M  V30 572 C 59.2249 1.94089 0.0656691 0
M  V30 573 O 58.4999 1.65221 1.02626 0
M  V30 574 C 58.7829 2.77226 -2.29821 0
M  V30 575 C 58.6359 2.41065 -3.79747 0
M  V30 576 C 59.9549 3.79236 -2.23312 0
M  V30 577 H 57.0739 0.550578 -0.489931 0
M  V30 578 H 59.7159 0.866607 -1.69086 0
M  V30 579 H 57.8659 3.32784 -2.00467 0
M  V30 580 H 59.5379 1.91303 -4.19763 0
M  V30 581 H 57.7809 1.7356 -3.97567 0
M  V30 582 H 58.4519 3.3081 -4.41892 0
M  V30 583 H 60.9279 3.3321 -2.49219 0
M  V30 584 H 59.8039 4.64714 -2.92116 0
M  V30 585 H 60.0649 4.24615 -1.23102 0
M  V30 586 N 59.124 1.23083 0.984299 0
M  V30 587 C 60.401 0.9689 1.69917 0
M  V30 588 C 60.781 -0.513604 2.04757 0
M  V30 589 O 60.129 -1.48383 1.73767 0
M  V30 590 C 60.339 1.87518 2.94343 0
M  V30 591 C 61.687 2.13636 3.6694 0
M  V30 592 O 62.711 1.85036 3.04368 0
M  V30 593 O 61.57 2.62119 4.79537 0
M  V30 594 H 58.664 0.365095 0.742048 0
M  V30 595 H 61.21 1.34107 1.03987 0
M  V30 596 H 59.982 2.87756 2.65164 0
M  V30 597 H 59.605 1.50514 3.6801 0
M  V30 598 N 60.6021 -1.18246 1.0419 0
M  V30 599 C 62.0131 -1.69914 0.773698 0
M  V30 600 C 62.3641 -1.83085 -0.705297 0
M  V30 601 O 61.4891 -1.51123 -1.5489 0
M  V30 602 C 62.0841 -3.08619 1.39784 0
M  V30 603 C 60.6431 -3.57494 1.17792 0
M  V30 604 C 59.7901 -2.34013 1.48773 0
M  V30 605 H 62.7411 -1.02904 1.20816 0
M  V30 606 H 62.7621 -3.71958 0.801714 0
M  V30 607 H 62.2741 -2.99001 2.47426 0
M  V30 608 H 60.3751 -3.72406 0.120295 0
M  V30 609 H 60.4881 -4.40852 1.87581 0
M  V30 610 H 58.8521 -2.37986 0.907463 0
M  V30 611 H 59.6351 -2.27013 2.57527 0
M  V30 612 N 62.0802 -0.821533 -1.34494 0
M  V30 613 C 63.0432 -0.247847 -2.27856 0
M  V30 614 C 64.0432 0.573453 -1.50227 0
M  V30 615 O 65.2332 0.389759 -1.69784 0
M  V30 616 C 62.3652 0.652698 -3.34593 0
M  V30 617 H 63.5582 -1.07146 -2.80107 0
M  V30 618 H 61.1112 -0.593291 -1.44602 0
M  V30 619 H 61.8462 1.49943 -2.87555 0
M  V30 620 H 61.6312 0.065292 -3.92046 0
M  V30 621 H 63.1212 1.04793 -4.04238 0
M  V30 622 N 63.5583 1.46682 -0.576371 0
M  V30 623 C 64.8043 2.02712 -0.0596221 0
M  V30 624 C 65.1373 1.44765 1.29448 0
M  V30 625 O 64.4123 0.610355 1.84675 0
M  V30 626 C 64.6953 3.60098 0.0129503 0
M  V30 627 C 64.5483 4.28441 -1.3696 0
M  V30 628 C 65.8673 4.34224 0.71678 0
M  V30 629 H 62.9863 0.736637 -0.0231407 0
M  V30 630 H 65.6283 1.74898 -0.742351 0
M  V30 631 H 63.7783 3.83926 0.594378 0
M  V30 632 H 65.4503 4.15896 -1.9957 0
M  V30 633 H 63.6933 3.8805 -1.93907 0
M  V30 634 H 64.3643 5.3716 -1.27135 0
M  V30 635 H 66.8403 4.15503 0.222908 0
M  V30 636 H 65.7163 5.43936 0.73657 0
M  V30 637 H 65.9773 4.04823 1.77682 0
M  V30 638 N 65.0364 0.313813 1.54444 0
M  V30 639 C 66.2834 -0.291675 2.00388 0
M  V30 640 C 66.6114 -1.52904 1.2021 0
M  V30 641 O 65.8664 -1.93833 0.269707 0
M  V30 642 C 66.1654 -0.680386 3.50864 0
M  V30 643 C 65.8314 0.456699 4.48581 0
M  V30 644 C 64.4934 0.768824 4.75018 0
M  V30 645 C 66.8454 1.22098 5.06697 0
M  V30 646 C 64.1734 1.84812 5.56831 0
M  V30 647 C 66.5254 2.29029 5.89685 0
M  V30 648 C 65.1894 2.60834 6.14428 0
M  V30 649 H 64.4594 -0.106732 0.733273 0
M  V30 650 H 67.1064 0.43557 1.86481 0
M  V30 651 H 65.4114 -1.48791 3.62448 0
M  V30 652 H 67.1084 -1.16026 3.83847 0
M  V30 653 H 63.6984 0.203337 4.28117 0
M  V30 654 H 67.8824 0.993096 4.86263 0
M  V30 655 H 63.1384 2.09912 5.74236 0
M  V30 656 H 67.3124 2.887 6.33739 0
M  V30 657 H 64.9394 3.44596 6.77612 0
M  V30 658 N 66.5145 -1.57545 0.0417849 0
M  V30 659 C 67.4465 -2.07904 -0.964799 0
M  V30 660 C 68.4595 -1.00497 -1.28079 0
M  V30 661 O 69.6485 -1.28087 -1.24322 0
M  V30 662 C 66.7485 -2.49928 -2.28887 0
M  V30 663 C 65.9215 -3.80562 -2.15619 0
M  V30 664 C 64.9805 -4.08999 -3.31069 0
M  V30 665 O 64.0065 -4.79061 -3.0739 0
M  V30 666 N 65.2085 -3.6017 -4.55256 0
M  V30 667 H 67.9735 -2.94886 -0.535029 0
M  V30 668 H 65.5345 -1.61252 -0.144681 0
M  V30 669 H 67.5265 -2.66034 -3.04972 0
M  V30 670 H 66.0965 -1.68245 -2.63463 0
M  V30 671 H 65.3165 -3.74129 -1.24183 0
M  V30 672 H 66.6045 -4.66126 -2.03971 0
M  V30 673 H 66.0025 -3.03512 -4.77386 0
M  V30 674 H 64.5595 -3.81532 -5.28466 0
M  V30 675 N 67.9926 0.231505 -1.5589 0
M  V30 676 C 68.9556 1.27028 -1.90779 0
M  V30 677 C 69.9556 1.40308 -0.785507 0
M  V30 678 O 71.1456 1.38744 -1.05336 0
M  V30 679 C 68.2776 2.64566 -2.14983 0
M  V30 680 H 69.4706 0.973017 -2.83677 0
M  V30 681 H 67.0236 0.471486 -1.49019 0
M  V30 682 H 67.7586 2.99406 -1.24604 0
M  V30 683 H 67.5436 2.56305 -2.96732 0
M  V30 684 H 69.0336 3.39543 -2.43105 0
M  V30 685 N 69.4707 1.49531 0.497807 0
M  V30 686 C 70.7167 1.59415 1.25358 0
M  V30 687 C 71.0497 0.281422 1.9215 0
M  V30 688 O 70.3247 -0.715249 1.80871 0
M  V30 689 C 70.6077 2.75566 2.3181 0
M  V30 690 C 70.4607 4.16642 1.69498 0
M  V30 691 C 71.7797 2.87347 3.33346 0
M  V30 692 H 68.8987 0.580244 0.454408 0
M  V30 693 H 71.5407 1.81827 0.551262 0
M  V30 694 H 69.6907 2.56587 2.91711 0
M  V30 695 H 71.3627 4.47145 1.13399 0
M  V30 696 H 69.6057 4.22141 0.998978 0
M  V30 697 H 70.2767 4.93792 2.46725 0
M  V30 698 H 72.7527 3.04634 2.83438 0
M  V30 699 H 71.6287 3.70289 4.05188 0
M  V30 700 H 71.8897 1.96834 3.95865 0
M  V30 701 N 70.9488 -0.749086 1.3866 0
M  V30 702 C 72.1958 -1.50833 1.35114 0
M  V30 703 C 72.5238 -1.94415 -0.0574049 0
M  V30 704 O 71.7788 -1.66065 -1.03541 0
M  V30 705 C 72.0778 -2.7712 2.25697 0
M  V30 706 C 71.7438 -2.52477 3.73585 0
M  V30 707 C 70.4058 -2.45466 4.13884 0
M  V30 708 C 72.7578 -2.31066 4.67181 0
M  V30 709 C 70.0858 -2.15064 5.45861 0
M  V30 710 C 72.4378 -2.02183 5.9942 0
M  V30 711 C 71.1018 -1.93631 6.38798 0
M  V30 712 H 70.3718 -0.551936 0.494416 0
M  V30 713 H 73.0188 -0.860979 1.71054 0
M  V30 714 H 71.3238 -3.46528 1.82827 0
M  V30 715 H 73.0208 -3.35096 2.20254 0
M  V30 716 H 69.6108 -2.58807 3.41638 0
M  V30 717 H 73.7948 -2.35459 4.3689 0
M  V30 718 H 69.0508 -2.06954 5.75308 0
M  V30 719 H 73.2248 -1.8462 6.71482 0
M  V30 720 H 70.8518 -1.69839 7.40985 0
M  V30 721 N 72.4269 -1.23603 -0.977757 0
M  V30 722 C 73.7039 -0.977897 -1.69401 0
M  V30 723 C 74.0839 0.502738 -2.05026 0
M  V30 724 O 73.4319 1.47459 -1.74551 0
M  V30 725 C 73.6419 -1.89077 -2.93345 0
M  V30 726 C 74.9899 -2.15579 -3.65802 0
M  V30 727 O 76.0139 -1.86648 -3.03383 0
M  V30 728 O 74.8729 -2.64658 -4.78141 0
M  V30 729 H 71.9669 -0.369025 -0.740101 0
M  V30 730 H 74.5129 -1.34657 -1.03274 0
M  V30 731 H 73.2849 -2.89158 -2.63634 0
M  V30 732 H 72.9079 -1.52463 -3.67207 0
M  V30 733 N 73.905 1.17692 -1.04816 0
M  V30 734 C 75.321 1.39863 -0.768794 0
M  V30 735 C 75.521 1.91118 0.638451 0
M  V30 736 O 74.577 2.10036 1.40146 0
M  V30 737 C 75.89 2.39274 -1.82122 0
M  V30 738 C 77.438 2.52987 -1.843 0
M  V30 739 C 77.913 3.55669 -2.88555 0
M  V30 740 N 79.404 3.63183 -2.87493 0
M  V30 741 C 80.139 4.42381 -3.64811 0
M  V30 742 N 79.635 5.25125 -4.51903 0
M  V30 743 N 81.428 4.37217 -3.53267 0
M  V30 744 H 73.579 0.82752 -1.95617 0
M  V30 745 H 75.842 0.426123 -0.846831 0
M  V30 746 H 75.548 2.08678 -2.83102 0
M  V30 747 H 75.422 3.38725 -1.65967 0
M  V30 748 H 77.809 2.82896 -0.839869 0
M  V30 749 H 77.89 1.53623 -2.04532 0
M  V30 750 H 77.534 3.26499 -3.89051 0
M  V30 751 H 77.464 4.54728 -2.65575 0
M  V30 752 H 79.955 3.04103 -2.24343 0
M  V30 753 H 80.268 5.82728 -5.07591 0
M  V30 754 H 78.613 5.24519 -4.55966 0
M  V30 755 H 81.804 3.71626 -2.84625 0
M  V30 756 H 81.977 4.98696 -4.13771 0
M  V30 757 N 75.3831 0.828654 1.34056 0
M  V30 758 C 76.3301 0.252567 2.29414 0
M  V30 759 C 77.3001 -0.62588 1.53857 0
M  V30 760 O 78.4851 -0.566312 1.82202 0
M  V30 761 C 75.6251 -0.574831 3.40279 0
M  V30 762 C 74.7381 0.326499 4.30764 0
M  V30 763 C 73.8731 -0.511016 5.28736 0
M  V30 764 C 72.9121 0.389342 6.1086 0
M  V30 765 N 72.0491 -0.409439 7.00905 0
M  V30 766 H 76.8891 1.07108 2.78086 0
M  V30 767 H 74.4261 0.539677 1.36843 0
M  V30 768 H 76.3841 -1.06992 4.03248 0
M  V30 769 H 75.0141 -1.35841 2.92826 0
M  V30 770 H 74.0661 0.939837 3.68607 0
M  V30 771 H 75.3781 1.01857 4.88289 0
M  V30 772 H 74.5321 -1.07035 5.97184 0
M  V30 773 H 73.2711 -1.23657 4.71763 0
M  V30 774 H 72.2761 0.960769 5.4134 0
M  V30 775 H 73.5011 1.1131 6.69916 0
M  V30 776 H 71.4471 -1.11856 6.46393 0
M  V30 777 H 71.3641 0.224126 7.55668 0
M  V30 778 H 72.6321 -0.951336 7.73673 0
M  V30 779 N 76.8612 -1.46375 0.584142 0
M  V30 780 C 77.8242 -2.28784 -0.138108 0
M  V30 781 C 78.8242 -1.38471 -0.817462 0
M  V30 782 O 80.0142 -1.60833 -0.669199 0
M  V30 783 C 77.1462 -3.18892 -1.20503 0
M  V30 784 H 78.3392 -2.94117 0.586127 0
M  V30 785 H 75.8922 -1.52509 0.342171 0
M  V30 786 H 76.6272 -2.58309 -1.96079 0
M  V30 787 H 76.4122 -3.85388 -0.722384 0
M  V30 788 H 77.9022 -3.80914 -1.71155 0
M  V30 789 N 78.3393 -0.321999 -1.54275 0
M  V30 790 C 79.5863 0.281044 -2.0054 0
M  V30 791 C 79.9143 1.52265 -1.21019 0
M  V30 792 O 79.1693 1.93687 -0.279982 0
M  V30 793 C 79.4683 0.661769 -3.5122 0
M  V30 794 C 79.1343 -0.480482 -4.48333 0
M  V30 795 C 77.7963 -0.794005 -4.74604 0
M  V30 796 C 80.1483 -1.24783 -5.06042 0
M  V30 797 C 77.4763 -1.87763 -5.55844 0
M  V30 798 C 79.8283 -2.32153 -5.88462 0
M  V30 799 C 78.4923 -2.64089 -6.13036 0
M  V30 800 H 77.7623 0.102841 -0.733829 0
M  V30 801 H 80.4093 -0.445453 -1.86247 0
M  V30 802 H 78.7143 1.46867 -3.63232 0
M  V30 803 H 80.4113 1.13989 -3.84457 0
M  V30 804 H 77.0013 -0.226039 -4.28004 0
M  V30 805 H 81.1853 -1.01887 -4.85729 0
M  V30 806 H 76.4413 -2.12954 -5.73115 0
M  V30 807 H 80.6153 -2.92057 -6.32199 0
M  V30 808 H 78.2423 -3.48185 -6.75775 0
M  V30 809 N 79.8174 1.5752 -0.0501392 0
M  V30 810 C 81.2334 1.56631 0.306402 0
M  V30 811 C 81.4334 1.0577 1.71508 0
M  V30 812 O 80.4894 0.713837 2.422 0
M  V30 813 C 81.8024 3.00393 0.135811 0
M  V30 814 C 83.3504 3.12315 0.206993 0
M  V30 815 C 83.8254 4.57954 0.064944 0
M  V30 816 N 85.3164 4.63041 0.121254 0
M  V30 817 C 86.0514 5.73389 0.0354381 0
M  V30 818 N 85.5474 6.92724 -0.102666 0
M  V30 819 N 87.3404 5.62026 0.090946 0
M  V30 820 H 79.4914 1.88903 -0.971046 0
M  V30 821 H 81.7544 0.869876 -0.376855 0
M  V30 822 H 81.4604 3.41635 -0.835384 0
M  V30 823 H 81.3344 3.66373 0.897275 0
M  V30 824 H 83.7214 2.70973 1.16866 0
M  V30 825 H 83.8024 2.49016 -0.585208 0
M  V30 826 H 83.4464 4.99981 -0.893394 0
M  V30 827 H 83.3764 5.19258 0.876277 0
M  V30 828 H 85.8674 3.77216 0.227284 0
M  V30 829 H 86.1804 7.72633 -0.160882 0
M  V30 830 H 84.5254 6.94864 -0.137737 0
M  V30 831 H 87.7164 4.67684 0.197388 0
M  V30 832 H 87.8894 6.47997 0.0206089 0
M  V30 833 N 81.2955 -0.223234 1.56011 0
M  V30 834 C 82.7065 -0.790368 1.69145 0
M  V30 835 C 83.0575 -1.85055 0.651845 0
M  V30 836 O 82.1825 -2.15498 -0.197359 0
M  V30 837 C 82.7775 -1.4404 3.06656 0
M  V30 838 C 81.3365 -1.95494 3.2165 0
M  V30 839 C 80.4835 -0.814506 2.65068 0
M  V30 840 H 83.4345 0.00139011 1.587 0
M  V30 841 H 83.4555 -2.30916 3.0242 0
M  V30 842 H 82.9675 -0.668543 3.82298 0
M  V30 843 H 81.0685 -2.75487 2.50874 0
M  V30 844 H 81.1815 -2.13607 4.28846 0
M  V30 845 H 79.5455 -1.22137 2.23505 0
M  V30 846 H 80.3285 -0.0553515 3.43255 0
M  V30 847 N 82.7736 -1.49793 -0.48987 0
M  V30 848 C 84.0206 -1.59841 -1.24327 0
M  V30 849 C 84.3486 -0.290135 -1.92324 0
M  V30 850 O 83.6036 0.722749 -1.81865 0
M  V30 851 C 83.9026 -2.71488 -2.32441 0
M  V30 852 C 83.5686 -4.12614 -1.81826 0
M  V30 853 C 82.2306 -4.51017 -1.67742 0
M  V30 854 C 84.5826 -5.00892 -1.4407 0
M  V30 855 C 81.9106 -5.75459 -1.14297 0
M  V30 856 C 84.2626 -6.25863 -0.920742 0
M  V30 857 C 82.9266 -6.63086 -0.766383 0
M  V30 858 H 82.1966 -0.584899 -0.454944 0
M  V30 859 H 84.8436 -1.83663 -0.542215 0
M  V30 860 H 83.1486 -2.4168 -3.0838 0
M  V30 861 H 84.8456 -2.76469 -2.90458 0
M  V30 862 H 81.4356 -3.82307 -1.93751 0
M  V30 863 H 85.6196 -4.7187 -1.53794 0
M  V30 864 H 80.8756 -6.02989 -1.01068 0
M  V30 865 H 85.0496 -6.9364 -0.619448 0
M  V30 866 H 82.6766 -7.59393 -0.350083 0
M  V30 867 N 84.2517 0.741722 -1.39055 0
M  V30 868 C 85.4797 1.53098 -1.39171 0
M  V30 869 C 85.8947 1.88794 0.0155099 0
M  V30 870 O 85.2517 1.53626 0.985159 0
M  V30 871 C 85.3027 2.82274 -2.2584 0
M  V30 872 O 85.0237 2.48097 -3.61081 0
M  V30 873 C 86.5247 3.76343 -2.34266 0
M  V30 874 H 83.7447 0.473335 -0.4756 0
M  V30 875 H 86.2887 0.917045 -1.82785 0
M  V30 876 H 84.4437 3.40015 -1.85656 0
M  V30 877 H 84.8577 3.31029 -4.06842 0
M  V30 878 H 86.3317 4.63898 -2.9917 0
M  V30 879 H 86.8087 4.17619 -1.35982 0
M  V30 880 H 87.4147 3.24523 -2.74891 0
M  V30 881 N 85.7298 1.2412 0.971189 0
M  V30 882 C 86.6778 1.02812 2.08644 0
M  V30 883 C 87.6718 -0.0358403 1.69362 0
M  V30 884 O 88.8778 0.118429 1.7961 0
M  V30 885 H 85.2528 0.315428 0.682649 0
M  V30 886 H 87.2238 1.97397 2.23779 0
M  V30 887 C 85.9728 0.645874 3.41649 0
M  V30 888 H 85.2958 1.45632 3.72332 0
M  V30 889 H 86.7358 0.536366 4.20594 0
M  V30 890 C 85.1948 -0.646713 3.30635 0
M  V30 891 O 85.7248 -1.69338 3.64263 0
M  V30 892 N 83.9308 -0.626115 2.83775 0
M  V30 893 H 83.4778 0.225988 2.56607 0
M  V30 894 H 83.4358 -1.49117 2.76788 0
M  V30 895 N 87.2079 -1.17134 1.05439 0
M  V30 896 C 88.4379 -1.91094 0.785274 0
M  V30 897 C 88.8459 -1.77198 -0.663142 0
M  V30 898 O 88.1889 -1.10835 -1.46497 0
M  V30 899 C 88.2509 -3.42594 1.08949 0
M  V30 900 C 87.9149 -3.80274 2.53458 0
M  V30 901 C 88.9119 -3.82912 3.51673 0
M  V30 902 C 86.5969 -4.11162 2.88532 0
M  V30 903 C 88.5909 -4.15913 4.83006 0
M  V30 904 C 86.2779 -4.43831 4.20068 0
M  V30 905 C 87.2759 -4.46185 5.17115 0
M  V30 906 O 86.9639 -4.78083 6.46291 0
M  V30 907 H 86.6959 -0.613073 0.284811 0
M  V30 908 H 89.2499 -1.49461 1.40893 0
M  V30 909 H 87.4799 -3.84534 0.408741 0
M  V30 910 H 89.1689 -3.97817 0.805991 0
M  V30 911 H 89.9349 -3.5917 3.25917 0
M  V30 912 H 85.8139 -4.085 2.13656 0
M  V30 913 H 89.3579 -4.17665 5.5875 0
M  V30 914 H 85.2549 -4.67037 4.45586 0
M  V30 915 H 86.0229 -4.9593 6.51149 0
M  V30 916 N 88.686 -0.835752 -1.33615 0
M  V30 917 C 89.911 -0.442389 -2.02627 0
M  V30 918 C 90.336 0.947735 -1.62479 0
M  V30 919 O 89.694 1.61907 -0.815826 0
M  V30 920 C 89.742 -0.567216 -3.56111 0
M  V30 921 O 88.846 0.407799 -4.10379 0
M  V30 922 H 88.187 -0.180278 -0.639059 0
M  V30 923 H 90.717 -1.12972 -1.70583 0
M  V30 924 H 90.727 -0.447708 -4.05536 0
M  V30 925 H 89.402 -1.58103 -3.84677 0
M  V30 926 H 87.979 0.246107 -3.72087 0
M  V30 927 N 90.1641 1.46063 -0.591896 0
M  V30 928 C 91.4131 2.01547 -0.0786637 0
M  V30 929 C 91.7261 1.46796 1.29268 0
M  V30 930 O 92.9321 1.94157 1.89777 0
M  V30 931 C 91.3881 3.59787 -0.0900024 0
M  V30 932 C 90.9961 4.23534 -1.46023 0
M  V30 933 C 92.7401 4.22895 0.368806 0
M  V30 934 C 90.6471 5.73881 -1.4288 0
M  V30 935 H 89.5771 0.753564 -0.0256388 0
M  V30 936 H 92.2281 1.677 -0.744905 0
M  V30 937 H 90.6101 3.90752 0.642586 0
M  V30 938 H 91.7841 4.04167 -2.21328 0
M  V30 939 H 90.0991 3.72558 -1.85982 0
M  V30 940 H 92.6961 5.33116 0.411258 0
M  V30 941 H 93.0391 3.9247 1.38827 0
M  V30 942 H 93.5721 3.9659 -0.31001 0
M  V30 943 H 90.3111 6.0898 -2.42536 0
M  V30 944 H 89.8311 5.95486 -0.718095 0
M  V30 945 H 91.5101 6.36776 -1.14565 0
M  V30 946 N 91.6422 0.330177 1.54103 0
M  V30 947 C 93.0532 -0.15652 1.86043 0
M  V30 948 C 93.4042 -1.51086 1.2517 0
M  V30 949 O 92.5292 -2.09023 0.560217 0
M  V30 950 C 93.1242 -0.290784 3.3755 0
M  V30 951 C 91.6832 -0.721705 3.69416 0
M  V30 952 C 90.8302 0.152622 2.7688 0
M  V30 953 H 93.7812 0.550237 1.48856 0
M  V30 954 H 93.8022 -1.12058 3.63625 0
M  V30 955 H 93.3142 0.695068 3.81825 0
M  V30 956 H 91.4152 -1.71706 3.30678 0
M  V30 957 H 91.5282 -0.520869 4.7626 0
M  V30 958 H 89.8922 -0.372894 2.51956 0
M  V30 959 H 90.6752 1.13536 3.23982 0
M  V30 960 N 93.1203 -1.57491 0.0584922 0
M  V30 961 C 94.3483 -1.97296 -0.623037 0
M  V30 962 C 94.7633 -0.936338 -1.63946 0
M  V30 963 O 94.1203 0.0785981 -1.82331 0
M  V30 964 C 94.1713 -3.37183 -1.30345 0
M  V30 965 O 93.8923 -4.36872 -0.32773 0
M  V30 966 C 95.3933 -3.91788 -2.07406 0
M  V30 967 H 92.6133 -0.649153 -0.169826 0
M  V30 968 H 95.1573 -2.04106 0.12696 0
M  V30 969 H 93.3123 -3.31502 -2.00463 0
M  V30 970 H 93.7263 -5.18141 -0.814269 0
M  V30 971 H 95.2003 -4.91926 -2.50425 0
M  V30 972 H 95.6773 -3.27609 -2.92521 0
M  V30 973 H 96.2833 -4.00829 -1.42184 0
M  V30 974 N 94.5984 0.214957 -1.56127 0
M  V30 975 C 96.0144 0.564948 -1.49267 0
M  V30 976 C 96.2144 1.86827 -0.754838 0
M  V30 977 O 95.2704 2.50745 -0.297198 0
M  V30 978 C 96.5834 0.638071 -2.93852 0
M  V30 979 C 98.1314 0.728253 -3.0441 0
M  V30 980 C 98.6064 0.832663 -4.50367 0
M  V30 981 N 100.097 0.896712 -4.54437 0
M  V30 982 C 100.832 0.997324 -5.6466 0
M  V30 983 N 100.328 1.06147 -6.8462 0
M  V30 984 N 102.121 1.03297 -5.52527 0
M  V30 985 H 94.2724 -0.640211 -2.02522 0
M  V30 986 H 96.5354 -0.225507 -0.920788 0
M  V30 987 H 96.2414 -0.250126 -3.50809 0
M  V30 988 H 96.1154 1.49947 -3.46115 0
M  V30 989 H 98.5024 1.60689 -2.47514 0
M  V30 990 H 98.5834 -0.158952 -2.55306 0
M  V30 991 H 98.2274 -0.0415417 -5.07883 0
M  V30 992 H 98.1574 1.73538 -4.97184 0
M  V30 993 H 100.648 0.857188 -3.6805 0
M  V30 994 H 100.961 1.1382 -7.64372 0
M  V30 995 H 99.3064 1.03049 -6.87318 0
M  V30 996 H 102.497 0.979558 -4.57736 0
M  V30 997 H 102.67 1.10793 -6.38458 0
M  V30 998 N 96.0765 1.50051 0.48192 0
M  V30 999 C 97.3225 1.60736 1.2366 0
M  V30 1000 C 97.6555 0.301786 1.91841 0
M  V30 1001 O 96.9305 -0.696025 1.8162 0
M  V30 1002 C 97.2135 2.78009 2.28874 0
M  V30 1003 C 97.0665 4.18416 1.65069 0
M  V30 1004 C 98.3855 2.90867 3.30279 0
M  V30 1005 H 95.5045 0.585031 0.448228 0
M  V30 1006 H 98.1465 1.82402 0.531946 0
M  V30 1007 H 96.2965 2.59667 2.88973 0
M  V30 1008 H 97.9685 4.48322 1.0865 0
M  V30 1009 H 96.2115 4.23177 0.954148 0
M  V30 1010 H 96.8825 4.96381 2.41474 0
M  V30 1011 H 99.3585 3.07623 2.80191 0
M  V30 1012 H 98.2345 3.74566 4.01238 0
M  V30 1013 H 98.4955 2.01021 3.93755 0
M  V30 1014 N 97.5546 -0.734337 1.39446 0
M  V30 1015 C 98.5026 -1.86971 1.38364 0
M  V30 1016 C 99.4966 -1.67288 0.266687 0
M  V30 1017 O 100.703 -1.74621 0.436755 0
M  V30 1018 H 97.0776 -0.615474 0.432082 0
M  V30 1019 H 99.0486 -1.85 2.34132 0
M  V30 1020 C 97.7976 -3.2466 1.24465 0
M  V30 1021 H 97.1206 -3.40402 2.09682 0
M  V30 1022 H 98.5606 -4.04292 1.27764 0
M  V30 1023 C 97.0196 -3.36867 -0.0468674 0
M  V30 1024 O 97.5496 -3.88618 -1.01681 0
M  V30 1025 N 95.7556 -2.90391 -0.110145 0
M  V30 1026 H 95.3026 -2.48466 0.679868 0
M  V30 1027 H 95.2606 -2.98939 -0.973799 0
M  V30 1028 N 99.0327 -1.24633 -0.964593 0
M  V30 1029 C 100.282 -1.08188 -1.7023 0
M  V30 1030 C 100.595 0.37873 -1.91898 0
M  V30 1031 O 101.801 0.663427 -2.6327 0
M  V30 1032 C 100.257 -1.88773 -3.06419 0
M  V30 1033 C 99.8647 -3.39263 -2.92582 0
M  V30 1034 C 101.609 -1.80867 -3.84041 0
M  V30 1035 C 99.5157 -4.1218 -4.24101 0
M  V30 1036 H 98.4457 -0.401245 -0.638372 0
M  V30 1037 H 101.097 -1.48742 -1.07462 0
M  V30 1038 H 99.4787 -1.41035 -3.70034 0
M  V30 1039 H 100.653 -3.94603 -2.37961 0
M  V30 1040 H 98.9677 -3.48154 -2.28424 0
M  V30 1041 H 101.565 -2.32646 -4.81435 0
M  V30 1042 H 101.908 -0.774543 -4.09031 0
M  V30 1043 H 102.441 -2.26301 -3.27159 0
M  V30 1044 H 99.1797 -5.15965 -4.04303 0
M  V30 1045 H 98.6997 -3.61626 -4.78526 0
M  V30 1046 H 100.379 -4.19349 -4.92702 0
M  V30 1047 N 100.511 1.16574 -1.06058 0
M  V30 1048 C 101.736 1.91493 -0.796562 0
M  V30 1049 C 102.161 1.76773 0.642868 0
M  V30 1050 O 101.519 1.09142 1.44768 0
M  V30 1051 C 101.567 3.40293 -1.19303 0
M  V30 1052 O 100.671 4.11074 -0.330394 0
M  V30 1053 H 100.012 0.596678 -0.291326 0
M  V30 1054 H 102.542 1.47708 -1.41575 0
M  V30 1055 H 102.552 3.91057 -1.16356 0
M  V30 1056 H 101.227 3.50326 -2.24153 0
M  V30 1057 H 99.8038 3.70513 -0.421225 0
M  V30 1058 N 101.989 0.842826 1.3317 0
M  V30 1059 C 103.236 0.440447 1.97652 0
M  V30 1060 C 103.564 -1.00123 1.6675 0
M  V30 1061 O 102.819 -1.7155 0.941761 0
M  V30 1062 C 103.118 0.612607 3.52111 0
M  V30 1063 C 102.784 2.02297 4.02972 0
M  V30 1064 C 101.446 2.40874 4.16573 0
M  V30 1065 C 103.798 2.94402 4.30089 0
M  V30 1066 C 101.126 3.70852 4.54627 0
M  V30 1067 C 103.478 4.23865 4.69597 0
M  V30 1068 C 102.142 4.62392 4.81404 0
M  V30 1069 H 101.412 0.161171 0.72326 0
M  V30 1070 H 104.059 1.07061 1.58777 0
M  V30 1071 H 102.364 -0.100849 3.9167 0
M  V30 1072 H 104.061 0.2815 4.00011 0
M  V30 1073 H 100.651 1.71338 3.92863 0
M  V30 1074 H 104.835 2.65835 4.19101 0
M  V30 1075 H 100.091 4.00501 4.61962 0
M  V30 1076 H 104.265 4.95306 4.89536 0
M  V30 1077 H 101.892 5.63154 5.10648 0
M  V30 1078 N 103.467 -1.45747 0.599634 0
M  V30 1079 C 104.695 -2.06668 0.0978551 0
M  V30 1080 C 105.11 -1.44562 -1.21439 0
M  V30 1081 O 104.467 -0.556923 -1.73795 0
M  V30 1082 C 104.518 -3.61456 -0.0567044 0
M  V30 1083 O 104.239 -4.21242 1.20361 0
M  V30 1084 C 105.74 -4.39345 -0.590869 0
M  V30 1085 H 102.96 -0.667825 0.0651943 0
M  V30 1086 H 105.504 -1.87115 0.82511 0
M  V30 1087 H 103.659 -3.80378 -0.734251 0
M  V30 1088 H 104.073 -5.14323 1.02821 0
M  V30 1089 H 105.547 -5.48182 -0.648131 0
M  V30 1090 H 106.024 -4.08568 -1.61147 0
M  V30 1091 H 106.63 -4.25268 0.0523679 0
M  V30 1092 N 104.945 -0.338344 -1.53925 0
M  V30 1093 C 105.875 0.51328 -2.27789 0
M  V30 1094 C 106.856 1.107 -1.29149 0
M  V30 1095 O 108.041 1.12937 -1.57984 0
M  V30 1096 C 105.171 1.66697 -3.04679 0
M  V30 1097 C 104.125 1.20183 -4.1078 0
M  V30 1098 C 103.451 2.44363 -4.75595 0
M  V30 1099 C 104.751 0.30605 -5.21403 0
M  V30 1100 H 106.445 -0.102883 -2.99223 0
M  V30 1101 H 103.991 -0.0509219 -1.4391 0
M  V30 1102 H 105.944 2.26915 -3.55088 0
M  V30 1103 H 104.668 2.30995 -2.30887 0
M  V30 1104 H 103.327 0.622499 -3.61276 0
M  V30 1105 H 102.975 3.07057 -3.98403 0
M  V30 1106 H 102.675 2.13925 -5.47275 0
M  V30 1107 H 104.199 3.05317 -5.28786 0
M  V30 1108 H 105.613 0.814929 -5.67478 0
M  V30 1109 H 104.01 0.0937929 -6.00027 0
M  V30 1110 H 105.08 -0.65921 -4.80398 0
M  V30 1111 N 106.423 1.57458 -0.0668435 0
M  V30 1112 C 107.648 1.9804 0.616027 0
M  V30 1113 C 108.073 0.944771 1.62652 0
M  V30 1114 O 107.431 -0.0902094 1.81075 0
M  V30 1115 C 107.479 3.37665 1.26549 0
M  V30 1116 O 106.583 3.36701 2.38131 0
M  V30 1117 H 105.924 0.644719 0.158849 0
M  V30 1118 H 108.454 2.04121 -0.139891 0
M  V30 1119 H 108.464 3.7474 1.6135 0
M  V30 1120 H 107.139 4.12573 0.525016 0
M  V30 1121 H 105.716 3.1139 2.0516 0
M  V30 1122 N 107.901 -0.206675 1.56239 0
M  V30 1123 C 108.864 -1.23976 1.92776 0
M  V30 1124 C 109.864 -1.39041 0.807729 0
M  V30 1125 O 111.054 -1.37051 1.0753 0
M  V30 1126 C 108.186 -2.61112 2.19165 0
M  V30 1127 H 109.379 -0.927764 2.85189 0
M  V30 1128 H 106.932 -0.447718 1.4975 0
M  V30 1129 H 107.667 -2.97386 1.29352 0
M  V30 1130 H 107.452 -2.51552 3.00772 0
M  V30 1131 H 108.942 -3.35633 2.48476 0
M  V30 1132 N 109.379 -1.50304 -0.473955 0
M  V30 1133 C 110.628 -1.60392 -1.22301 0
M  V30 1134 C 110.941 -0.308411 -1.93153 0
M  V30 1135 O 112.147 -0.288156 -2.69966 0
M  V30 1136 C 110.603 -2.83109 -2.2221 0
M  V30 1137 C 110.211 -4.19524 -1.57173 0
M  V30 1138 C 111.955 -3.0254 -2.97775 0
M  V30 1139 C 109.862 -5.33431 -2.55353 0
M  V30 1140 H 108.792 -0.597286 -0.460179 0
M  V30 1141 H 111.443 -1.76731 -0.493803 0
M  V30 1142 H 109.825 -2.60322 -2.9841 0
M  V30 1143 H 110.999 -4.52554 -0.867824 0
M  V30 1144 H 109.314 -4.05674 -0.939002 0
M  V30 1145 H 111.911 -3.84811 -3.71248 0
M  V30 1146 H 112.254 -2.14154 -3.56992 0
M  V30 1147 H 112.787 -3.25494 -2.28688 0
M  V30 1148 H 109.526 -6.23962 -2.00878 0
M  V30 1149 H 109.046 -5.04823 -3.23904 0
M  V30 1150 H 110.725 -5.63887 -3.17239 0
M  V30 1151 N 110.857 0.726932 -1.39834 0
M  V30 1152 C 111.787 1.85405 -1.41941 0
M  V30 1153 C 112.768 1.67751 -0.281728 0
M  V30 1154 O 113.953 1.8795 -0.488717 0
M  V30 1155 C 111.083 3.23243 -1.2701 0
M  V30 1156 C 110.037 3.55549 -2.38262 0
M  V30 1157 C 109.363 4.9241 -2.08415 0
M  V30 1158 C 110.663 3.577 -3.80589 0
M  V30 1159 H 112.357 1.83899 -2.36266 0
M  V30 1160 H 109.903 0.883349 -1.13723 0
M  V30 1161 H 111.856 4.01775 -1.27103 0
M  V30 1162 H 110.58 3.25296 -0.291564 0
M  V30 1163 H 109.239 2.79351 -2.37399 0
M  V30 1164 H 108.887 4.91052 -1.0898 0
M  V30 1165 H 108.587 5.14992 -2.82943 0
M  V30 1166 H 110.111 5.73289 -2.10171 0
M  V30 1167 H 111.525 4.26293 -3.83337 0
M  V30 1168 H 109.922 3.91804 -4.54543 0
M  V30 1169 H 110.992 2.57328 -4.10987 0
M  V30 1170 N 112.336 1.25143 0.95797 0
M  V30 1171 C 113.584 1.09476 1.69881 0
M  V30 1172 C 113.905 -0.365502 1.91544 0
M  V30 1173 O 113.175 -1.25985 1.50015 0
M  V30 1174 H 111.755 0.402128 0.629525 0
M  V30 1175 H 114.417 1.57214 1.15194 0
M  V30 1176 H 113.513 1.60046 2.6794 0
M  V30 1177 N 113.814 -1.1601 1.06675 0
M  V30 1178 C 115.06 -1.86909 0.786945 0
M  V30 1179 C 115.393 -1.81717 -0.685018 0
M  V30 1180 O 114.668 -1.23551 -1.50218 0
M  V30 1181 C 114.951 -3.36313 1.28707 0
M  V30 1182 C 114.804 -3.50175 2.82308 0
M  V30 1183 C 116.123 -4.3084 0.898071 0
M  V30 1184 H 113.242 -0.678677 0.287343 0
M  V30 1185 H 115.884 -1.36336 1.32334 0
M  V30 1186 H 114.034 -3.79513 0.830768 0
M  V30 1187 H 115.706 -3.15886 3.36175 0
M  V30 1188 H 113.949 -2.91959 3.20847 0
M  V30 1189 H 114.62 -4.55116 3.12368 0
M  V30 1190 H 117.096 -3.95561 1.29114 0
M  V30 1191 H 115.972 -5.33876 1.27543 0
M  V30 1192 H 116.233 -4.41662 -0.196651 0
M  V30 1193 N 115.292 -0.849877 -1.32721 0
M  V30 1194 C 116.569 -0.372405 -1.92022 0
M  V30 1195 C 116.949 1.1435 -1.77447 0
M  V30 1196 O 116.297 1.96296 -1.16962 0
M  V30 1197 C 116.507 -0.831482 -3.3895 0
M  V30 1198 C 117.855 -0.845882 -4.16089 0
M  V30 1199 O 118.879 -0.775806 -3.47649 0
M  V30 1200 O 117.738 -0.943753 -5.38289 0
M  V30 1201 H 114.832 -0.107667 -0.819961 0
M  V30 1202 H 117.378 -0.93646 -1.41522 0
M  V30 1203 H 116.15 -1.87448 -3.4348 0
M  V30 1204 H 115.773 -0.24461 -3.96847 0
M  V30 1205 N 116.77 1.45427 -0.607355 0
M  V30 1206 C 117.733 2.28974 0.101693 0
M  V30 1207 C 118.733 1.39754 0.795329 0
M  V30 1208 O 119.923 1.61878 0.643527 0
M  V30 1209 C 117.055 3.20768 1.15414 0
M  V30 1210 H 118.248 2.93147 -0.632844 0
M  V30 1211 H 115.801 1.51945 -0.366391 0
M  V30 1212 H 116.536 2.61395 1.91945 0
M  V30 1213 H 116.321 3.86489 0.66098 0
M  V30 1214 H 117.811 3.83589 1.65073 0
M  V30 1215 N 118.248 0.346503 1.53744 0
M  V30 1216 C 119.18 -0.543316 2.22667 0
M  V30 1217 C 120.193 -1.06159 1.23427 0
M  V30 1218 O 121.382 -0.971235 1.49764 0
M  V30 1219 C 118.482 -1.76076 2.89569 0
M  V30 1220 C 117.655 -1.37727 4.15151 0
M  V30 1221 C 116.714 -2.45471 4.65436 0
M  V30 1222 O 115.74 -2.08655 5.29577 0
M  V30 1223 N 116.942 -3.7677 4.41616 0
M  V30 1224 H 119.707 0.0469703 2.99663 0
M  V30 1225 H 117.268 0.170766 1.60997 0
M  V30 1226 H 119.26 -2.47593 3.20125 0
M  V30 1227 H 117.83 -2.25835 2.16142 0
M  V30 1228 H 117.05 -0.492746 3.91108 0
M  V30 1229 H 118.338 -1.09708 4.96832 0
M  V30 1230 H 117.736 -4.09467 3.90325 0
M  V30 1231 H 116.293 -4.44448 4.7677 0
M  V30 1232 N 119.726 -1.57421 0.075193 0
M  V30 1233 C 120.656 -2.15942 -0.888324 0
M  V30 1234 C 121.637 -1.08737 -1.30806 0
M  V30 1235 O 122.822 -1.36787 -1.37851 0
M  V30 1236 C 119.952 -2.72379 -2.1547 0
M  V30 1237 C 118.906 -3.8478 -1.87425 0
M  V30 1238 C 118.232 -4.27834 -3.20721 0
M  V30 1239 C 119.532 -5.08869 -1.17684 0
M  V30 1240 H 121.226 -2.96705 -0.400799 0
M  V30 1241 H 118.772 -1.42723 -0.191342 0
M  V30 1242 H 120.725 -3.11965 -2.83295 0
M  V30 1243 H 119.449 -1.88841 -2.6647 0
M  V30 1244 H 118.108 -3.45703 -1.22004 0
M  V30 1245 H 117.756 -3.41214 -3.6957 0
M  V30 1246 H 117.456 -5.03605 -3.02746 0
M  V30 1247 H 118.98 -4.70039 -3.89738 0
M  V30 1248 H 120.394 -5.4575 -1.75584 0
M  V30 1249 H 118.791 -5.8994 -1.09956 0
M  V30 1250 H 119.861 -4.84648 -0.156453 0
M  V30 1251 N 121.204 0.198386 -1.56346 0
M  V30 1252 C 122.136 1.26987 -1.90806 0
M  V30 1253 C 123.149 1.41877 -0.798419 0
M  V30 1254 O 124.338 1.42362 -1.07682 0
M  V30 1255 C 121.438 2.64246 -2.12196 0
M  V30 1256 C 120.611 2.71007 -3.43328 0
M  V30 1257 C 119.67 3.89439 -3.5387 0
M  V30 1258 O 118.696 3.76695 -4.26719 0
M  V30 1259 N 119.898 5.04752 -2.86715 0
M  V30 1260 H 122.663 0.977433 -2.83313 0
M  V30 1261 H 120.224 0.388322 -1.57174 0
M  V30 1262 H 122.216 3.41896 -2.1654 0
M  V30 1263 H 120.786 2.85992 -1.26204 0
M  V30 1264 H 120.006 1.79657 -3.50881 0
M  V30 1265 H 121.294 2.72512 -4.29668 0
M  V30 1266 H 120.692 5.18004 -2.2735 0
M  V30 1267 H 119.249 5.8036 -2.96691 0
M  V30 1268 N 122.682 1.50554 0.465978 0
M  V30 1269 C 123.612 1.72722 1.57128 0
M  V30 1270 C 124.593 0.576294 1.6004 0
M  V30 1271 O 125.778 0.81598 1.76225 0
M  V30 1272 C 122.908 1.82605 2.95419 0
M  V30 1273 C 121.862 2.97835 3.07373 0
M  V30 1274 C 121.188 2.92867 4.47363 0
M  V30 1275 C 122.488 4.38265 2.84114 0
M  V30 1276 H 124.182 2.65267 1.38829 0
M  V30 1277 H 121.728 1.2765 0.666441 0
M  V30 1278 H 123.681 1.96698 3.72677 0
M  V30 1279 H 122.405 0.866858 3.14886 0
M  V30 1280 H 121.064 2.83401 2.3255 0
M  V30 1281 H 120.712 1.94783 4.63755 0
M  V30 1282 H 120.412 3.70227 4.56296 0
M  V30 1283 H 121.936 3.09015 5.26633 0
M  V30 1284 H 123.35 4.53198 3.51118 0
M  V30 1285 H 121.747 5.17115 3.04487 0
M  V30 1286 H 122.817 4.50281 1.7993 0
M  V30 1287 N 124.16 -0.719506 1.40217 0
M  V30 1288 C 125.09 -1.8465 1.42922 0
M  V30 1289 C 126.071 -1.67599 0.29062 0
M  V30 1290 O 127.256 -1.87688 0.498677 0
M  V30 1291 C 124.386 -3.22565 1.28722 0
M  V30 1292 C 123.34 -3.54281 2.40144 0
M  V30 1293 C 122.666 -4.91298 2.11023 0
M  V30 1294 C 123.966 -3.55676 3.82481 0
M  V30 1295 H 125.66 -1.82644 2.37237 0
M  V30 1296 H 123.206 -0.877305 1.1419 0
M  V30 1297 H 125.159 -4.01095 1.29232 0
M  V30 1298 H 123.883 -3.25137 0.308811 0
M  V30 1299 H 122.542 -2.78088 2.38877 0
M  V30 1300 H 122.19 -4.90468 1.11582 0
M  V30 1301 H 121.89 -5.13485 2.8567 0
M  V30 1302 H 123.414 -5.72166 2.13209 0
M  V30 1303 H 124.828 -4.24254 3.85592 0
M  V30 1304 H 123.225 -3.89388 4.56614 0
M  V30 1305 H 124.295 -2.55144 4.12346 0
M  V30 1306 N 125.638 -1.25649 -0.95132 0
M  V30 1307 C 126.866 -1.13343 -1.73092 0
M  V30 1308 C 127.281 0.312434 -1.86197 0
M  V30 1309 O 126.638 1.21465 -1.36207 0
M  V30 1310 C 126.689 -1.78602 -3.14299 0
M  V30 1311 O 126.41 -3.17537 -3.01831 0
M  V30 1312 C 127.911 -1.72119 -4.08522 0
M  V30 1313 H 125.131 -0.395181 -0.542285 0
M  V30 1314 H 127.675 -1.66076 -1.19328 0
M  V30 1315 H 125.83 -1.29832 -3.64996 0
M  V30 1316 H 126.244 -3.49676 -3.90931 0
M  V30 1317 H 127.718 -2.22435 -5.052 0
M  V30 1318 H 128.195 -0.685635 -4.33815 0
M  V30 1319 H 128.801 -2.20393 -3.63741 0
M  V30 1320 N 127.117 1.15442 -1.07289 0
M  V30 1321 C 128.342 1.90638 -0.816828 0
M  V30 1322 C 128.767 1.77445 0.624083 0
M  V30 1323 O 128.125 1.10671 1.43602 0
M  V30 1324 C 128.173 3.39008 -1.22906 0
M  V30 1325 O 127.277 4.10701 -0.373975 0
M  V30 1326 H 126.618 0.593555 -0.297638 0
M  V30 1327 H 129.148 1.46198 -1.43134 0
M  V30 1328 H 129.158 3.89801 -1.20497 0
M  V30 1329 H 127.833 3.47929 -2.27856 0
M  V30 1330 H 126.41 3.70046 -0.460499 0
M  V30 1331 N 128.595 0.856903 1.32268 0
M  V30 1332 C 129.842 0.461386 1.97174 0
M  V30 1333 C 130.17 -0.983491 1.67803 0
M  V30 1334 O 129.425 -1.70541 0.959903 0
M  V30 1335 C 129.724 0.649919 3.51441 0
M  V30 1336 C 129.39 2.0656 4.00804 0
M  V30 1337 C 128.052 2.45279 4.13995 0
M  V30 1338 C 130.404 2.98947 4.26943 0
M  V30 1339 C 127.732 3.75653 4.50668 0
M  V30 1340 C 130.084 4.28822 4.65075 0
M  V30 1341 C 128.748 4.67472 4.76472 0
M  V30 1342 H 128.018 0.168833 0.72151 0
M  V30 1343 H 130.665 1.08739 1.57633 0
M  V30 1344 H 128.97 -0.0593018 3.91755 0
M  V30 1345 H 130.667 0.32391 3.9969 0
M  V30 1346 H 127.257 1.75495 3.91024 0
M  V30 1347 H 131.441 2.70265 4.16258 0
M  V30 1348 H 126.697 4.05379 4.57688 0
M  V30 1349 H 130.871 5.0047 4.84255 0
M  V30 1350 H 128.498 5.68539 5.04646 0
M  V30 1351 N 130.073 -1.45103 0.615059 0
M  V30 1352 C 131.003 -2.33339 -0.0865619 0
M  V30 1353 C 131.984 -1.4727 -0.851209 0
M  V30 1354 O 133.169 -1.76026 -0.820281 0
M  V30 1355 C 130.299 -3.30095 -1.07956 0
M  V30 1356 C 129.253 -4.25858 -0.427628 0
M  V30 1357 C 128.579 -5.12361 -1.5294 0
M  V30 1358 C 129.879 -5.18165 0.655944 0
M  V30 1359 H 131.573 -2.92254 0.650224 0
M  V30 1360 H 129.119 -1.40532 0.314138 0
M  V30 1361 H 131.072 -3.90698 -1.57901 0
M  V30 1362 H 129.796 -2.69355 -1.84703 0
M  V30 1363 H 128.455 -3.66564 0.0510292 0
M  V30 1364 H 128.103 -4.47984 -2.28734 0
M  V30 1365 H 127.803 -5.77238 -1.09865 0
M  V30 1366 H 129.327 -5.75833 -2.03098 0
M  V30 1367 H 130.741 -5.72796 0.240257 0
M  V30 1368 H 129.138 -5.91559 1.00888 0
M  V30 1369 H 130.208 -4.60144 1.52957 0
M  V30 1370 N 131.551 -0.354651 -1.53558 0
M  V30 1371 C 132.797 0.231422 -2.02079 0
M  V30 1372 C 133.152 1.47308 -1.23767 0
M  V30 1373 O 132.445 1.8891 -0.319947 0
M  V30 1374 C 132.639 0.587121 -3.52545 0
M  V30 1375 C 132.468 -0.618513 -4.45426 0
M  V30 1376 C 131.238 -1.12724 -4.92566 0
M  V30 1377 C 133.436 -1.48039 -4.92533 0
M  V30 1378 N 131.418 -2.29404 -5.69427 0
M  V30 1379 C 132.789 -2.49397 -5.67628 0
M  V30 1380 C 134.844 -1.50454 -4.74624 0
M  V30 1381 C 133.547 -3.53013 -6.26717 0
M  V30 1382 C 135.573 -2.52958 -5.34571 0
M  V30 1383 C 134.935 -3.5304 -6.09543 0
M  V30 1384 H 131.034 0.0476909 -0.780544 0
M  V30 1385 H 133.618 -0.496727 -1.88257 0
M  V30 1386 H 131.789 1.28436 -3.6655 0
M  V30 1387 H 133.521 1.15734 -3.87799 0
M  V30 1388 H 130.276 -0.693577 -4.68494 0
M  V30 1389 H 130.7 -2.88347 -6.12524 0
M  V30 1390 H 135.342 -0.744356 -4.16196 0
M  V30 1391 H 133.06 -4.2992 -6.84247 0
M  V30 1392 H 136.646 -2.55667 -5.22614 0
M  V30 1393 H 135.526 -4.31056 -6.55103 0
M  V30 1394 N 133.029 1.57378 -0.0835403 0
M  V30 1395 C 133.962 2.09016 0.915833 0
M  V30 1396 C 134.94 0.997993 1.2837 0
M  V30 1397 O 136.124 1.27219 1.39096 0
M  V30 1398 C 133.251 2.55757 2.22049 0
M  V30 1399 C 132.297 3.76522 2.00333 0
M  V30 1400 S 133.13 5.20661 1.25191 0
M  V30 1401 C 134.286 5.70743 2.56912 0
M  V30 1402 H 134.519 2.93457 0.476492 0
M  V30 1403 H 132.052 1.53856 0.129493 0
M  V30 1404 H 134.01 2.83346 2.97027 0
M  V30 1405 H 132.671 1.71564 2.63106 0
M  V30 1406 H 131.864 4.07256 2.96916 0
M  V30 1407 H 131.466 3.49367 1.33488 0
M  V30 1408 H 133.758 5.78304 3.52946 0
M  V30 1409 H 134.701 6.6944 2.30772 0
M  V30 1410 H 135.109 4.98616 2.64655 0
M  V30 1411 N 134.507 -0.190092 1.56449 0
M  V30 1412 C 135.784 -0.935886 1.71757 0
M  V30 1413 C 136.164 -2.01173 0.639726 0
M  V30 1414 O 135.512 -2.25827 -0.348502 0
M  V30 1415 C 135.722 -1.51775 3.1427 0
M  V30 1416 C 137.07 -1.99794 3.74656 0
M  V30 1417 O 138.094 -1.61607 3.1743 0
M  V30 1418 O 136.953 -2.70079 4.751 0
M  V30 1419 H 134.047 -0.439229 0.700719 0
M  V30 1420 H 136.593 -0.179395 1.68749 0
M  V30 1421 H 135.365 -0.742505 3.84191 0
M  V30 1422 H 134.988 -2.33894 3.21527 0
M  V30 1423 N 135.985 -1.50799 -0.457987 0
M  V30 1424 C 136.915 -1.73553 -1.5621 0
M  V30 1425 C 137.896 -0.584774 -1.59732 0
M  V30 1426 O 139.081 -0.825314 -1.7579 0
M  V30 1427 C 136.211 -1.84169 -2.94447 0
M  V30 1428 C 135.165 -2.99461 -3.0579 0
M  V30 1429 C 134.491 -2.95235 -4.45803 0
M  V30 1430 C 135.791 -4.39766 -2.81786 0
M  V30 1431 H 137.485 -2.66 -1.37421 0
M  V30 1432 H 135.031 -1.28002 -0.659662 0
M  V30 1433 H 136.984 -1.98672 -3.71628 0
M  V30 1434 H 135.708 -0.883545 -3.14422 0
M  V30 1435 H 134.367 -2.8463 -2.31044 0
M  V30 1436 H 134.015 -1.97239 -4.62715 0
M  V30 1437 H 133.715 -3.72642 -4.54326 0
M  V30 1438 H 135.239 -3.11803 -5.24987 0
M  V30 1439 H 136.653 -4.55054 -3.4871 0
M  V30 1440 H 135.05 -5.18722 -3.0174 0
M  V30 1441 H 136.12 -4.51229 -1.7754 0
M  V30 1442 N 137.463 0.71206 -1.40597 0
M  V30 1443 C 138.709 1.47416 -1.39271 0
M  V30 1444 C 139.042 1.942 0.00388791 0
M  V30 1445 O 138.317 1.68403 0.973179 0
M  V30 1446 C 138.6 2.69774 -2.38525 0
M  V30 1447 C 138.453 2.28861 -3.87224 0
M  V30 1448 C 139.772 3.71939 -2.35264 0
M  V30 1449 H 136.891 0.534713 -0.5072 0
M  V30 1450 H 139.533 0.812375 -1.71757 0
M  V30 1451 H 137.683 3.26238 -2.10953 0
M  V30 1452 H 139.355 1.77852 -4.25636 0
M  V30 1453 H 137.598 1.60824 -4.02887 0
M  V30 1454 H 138.269 3.16584 -4.52193 0
M  V30 1455 H 140.745 3.25113 -2.59694 0
M  V30 1456 H 139.621 4.55186 -3.06753 0
M  V30 1457 H 139.882 4.20484 -1.36549 0
M  V30 1458 N 138.941 1.26152 0.944643 0
M  V30 1459 C 140.187 1.12665 1.69346 0
M  V30 1460 C 140.542 -0.3273 1.89596 0
M  V30 1461 O 139.835 -1.23717 1.46303 0
M  V30 1462 C 140.029 1.82541 3.07268 0
M  V30 1463 C 139.858 3.34582 3.00475 0
M  V30 1464 C 138.628 4.03863 3.03681 0
M  V30 1465 C 140.826 4.30828 2.80877 0
M  V30 1466 N 138.808 5.42603 2.87151 0
M  V30 1467 C 140.179 5.5672 2.7288 0
M  V30 1468 C 142.234 4.21122 2.65633 0
M  V30 1469 C 140.937 6.74013 2.51196 0
M  V30 1470 C 142.963 5.38118 2.45323 0
M  V30 1471 C 142.325 6.62955 2.38055 0
M  V30 1472 H 138.424 0.467041 0.627214 0
M  V30 1473 H 141.008 1.59391 1.11815 0
M  V30 1474 H 139.179 1.38296 3.62945 0
M  V30 1475 H 140.911 1.61708 3.70989 0
M  V30 1476 H 137.666 3.55198 3.1326 0
M  V30 1477 H 138.09 6.15443 2.82063 0
M  V30 1478 H 142.732 3.25344 2.70021 0
M  V30 1479 H 140.45 7.6989 2.4555 0
M  V30 1480 H 144.036 5.32475 2.34439 0
M  V30 1481 H 142.916 7.51959 2.22546 0
M  V30 1482 N 140.419 -1.14872 1.07899 0
M  V30 1483 C 141.696 -1.81928 0.71845 0
M  V30 1484 C 142.076 -1.95417 -0.798455 0
M  V30 1485 O 141.424 -1.50997 -1.715 0
M  V30 1486 C 141.634 -3.17937 1.43935 0
M  V30 1487 C 142.982 -3.93501 1.59506 0
M  V30 1488 O 144.006 -3.27509 1.40058 0
M  V30 1489 O 142.865 -5.1183 1.91551 0
M  V30 1490 H 139.959 -0.78628 0.256305 0
M  V30 1491 H 142.505 -1.21934 1.18026 0
M  V30 1492 H 141.277 -3.0325 2.47295 0
M  V30 1493 H 140.9 -3.85619 0.968687 0
M  V30 1494 N 141.898 -0.863906 -1.31812 0
M  V30 1495 C 142.846 -0.30422 -2.30602 0
M  V30 1496 C 143.84 0.577419 -1.59255 0
M  V30 1497 O 145.046 0.464194 -1.73912 0
M  V30 1498 H 141.421 -0.0796877 -0.747766 0
M  V30 1499 H 143.392 -1.15148 -2.75288 0
M  V30 1500 C 142.141 0.484617 -3.44306 0
M  V30 1501 H 141.464 -0.18451 -3.99374 0
M  V30 1502 H 142.904 0.841664 -4.15562 0
M  V30 1503 C 141.363 1.6735 -2.92396 0
M  V30 1504 O 141.893 2.77273 -2.90659 0
M  V30 1505 N 140.099 1.50362 -2.48676 0
M  V30 1506 H 139.646 0.609402 -2.50288 0
M  V30 1507 H 139.604 2.30051 -2.14299 0
M  V30 1508 N 143.376 1.44774 -0.622745 0
M  V30 1509 C 144.787 1.85546 -0.207226 0
M  V30 1510 C 145.138 1.52093 1.23944 0
M  V30 1511 O 144.263 0.95492 1.94191 0
M  V30 1512 C 144.858 3.36781 -0.369313 0
M  V30 1513 C 143.417 3.76399 -0.00836847 0
M  V30 1514 C 142.564 2.68664 -0.686651 0
M  V30 1515 H 145.515 1.3536 -0.828454 0
M  V30 1516 H 145.536 3.78453 0.394162 0
M  V30 1517 H 145.048 3.61098 -1.42231 0
M  V30 1518 H 143.149 3.57698 1.04322 0
M  V30 1519 H 143.262 4.7732 -0.412584 0
M  V30 1520 H 141.626 2.54404 -0.122777 0
M  V30 1521 H 142.409 2.95815 -1.74208 0
M  V30 1522 N 144.854 0.36279 1.53368 0
M  V30 1523 C 146.101 -0.227776 2.01215 0
M  V30 1524 C 146.429 -1.49003 1.25014 0
M  V30 1525 O 145.684 -1.92876 0.331236 0
M  V30 1526 C 145.983 -0.568417 3.52851 0
M  V30 1527 C 145.649 0.59918 4.46901 0
M  V30 1528 C 144.311 0.919559 4.72332 0
M  V30 1529 C 146.663 1.38156 5.02556 0
M  V30 1530 C 143.991 2.02434 5.5067 0
M  V30 1531 C 146.343 2.47674 5.821 0
M  V30 1532 C 145.007 2.8025 6.05819 0
M  V30 1533 H 144.277 -0.083349 0.736297 0
M  V30 1534 H 146.924 0.494677 1.85001 0
M  V30 1535 H 145.229 -1.37185 3.66998 0
M  V30 1536 H 146.926 -1.03756 3.87344 0
M  V30 1537 H 143.516 0.339437 4.27254 0
M  V30 1538 H 147.7 1.14729 4.82857 0
M  V30 1539 H 142.956 2.28075 5.67267 0
M  V30 1540 H 147.13 3.08716 6.24234 0
M  V30 1541 H 144.757 3.65979 6.66306 0
M  V30 1542 N 146.332 -1.57332 0.0918853 0
M  V30 1543 C 147.581 -1.93412 -0.572249 0
M  V30 1544 C 147.894 -0.975515 -1.69538 0
M  V30 1545 O 149.1 -1.22991 -2.42045 0
M  V30 1546 C 147.556 -3.43648 -1.0693 0
M  V30 1547 C 147.164 -4.47994 0.0239049 0
M  V30 1548 C 148.908 -3.88695 -1.70635 0
M  V30 1549 C 146.815 -5.89381 -0.488319 0
M  V30 1550 H 145.745 -0.721939 -0.217532 0
M  V30 1551 H 148.396 -1.82735 0.167369 0
M  V30 1552 H 146.778 -3.49466 -1.8625 0
M  V30 1553 H 147.952 -4.53815 0.799277 0
M  V30 1554 H 146.267 -4.12536 0.565946 0
M  V30 1555 H 148.864 -4.91725 -2.10025 0
M  V30 1556 H 149.207 -3.27166 -2.57426 0
M  V30 1557 H 149.74 -3.85564 -0.979023 0
M  V30 1558 H 146.479 -6.54602 0.342906 0
M  V30 1559 H 145.999 -5.87037 -1.23077 0
M  V30 1560 H 147.678 -6.39863 -0.958317 0
M  V30 1561 N 147.81 0.181792 -1.56548 0
M  V30 1562 C 148.758 1.24461 -1.965 0
M  V30 1563 C 149.752 1.464 -0.852261 0
M  V30 1564 O 150.958 1.47103 -1.03733 0
M  V30 1565 H 147.333 0.418138 -0.625031 0
M  V30 1566 H 149.304 0.880714 -2.85107 0
M  V30 1567 C 148.053 2.57891 -2.33212 0
M  V30 1568 H 147.376 2.41829 -3.18369 0
M  V30 1569 H 148.816 3.3097 -2.65019 0
M  V30 1570 C 147.275 3.15871 -1.17163 0
M  V30 1571 O 147.805 3.9913 -0.453708 0
M  V30 1572 N 146.011 2.74808 -0.944936 0
M  V30 1573 H 145.558 2.07205 -1.53049 0
M  V30 1574 H 145.516 3.13939 -0.170286 0
M  V30 1575 N 149.288 1.51039 0.449983 0
M  V30 1576 C 150.534 1.64287 1.19923 0
M  V30 1577 C 150.889 0.348701 1.89214 0
M  V30 1578 O 150.182 -0.654751 1.80065 0
M  V30 1579 C 150.376 2.77556 2.25161 0
M  V30 1580 C 150.205 4.17862 1.66198 0
M  V30 1581 C 148.975 4.83976 1.45243 0
M  V30 1582 C 151.173 5.01388 1.14519 0
M  V30 1583 N 149.155 6.08433 0.817437 0
M  V30 1584 C 150.526 6.16743 0.634705 0
M  V30 1585 C 152.581 4.87008 1.03574 0
M  V30 1586 C 151.284 7.19295 0.0255452 0
M  V30 1587 C 153.31 5.89757 0.440489 0
M  V30 1588 C 152.672 7.04375 -0.0595112 0
M  V30 1589 H 148.771 0.655161 0.426952 0
M  V30 1590 H 151.355 1.88228 0.49781 0
M  V30 1591 H 149.526 2.553 2.92706 0
M  V30 1592 H 151.258 2.80049 2.92155 0
M  V30 1593 H 148.013 4.41627 1.71063 0
M  V30 1594 H 148.437 6.75017 0.517747 0
M  V30 1595 H 153.079 3.9866 1.4082 0
M  V30 1596 H 150.797 8.07302 -0.359071 0
M  V30 1597 H 154.383 5.80698 0.35788 0
M  V30 1598 H 153.263 7.82521 -0.512882 0
M  V30 1599 N 150.766 -0.704594 1.40972 0
M  V30 1600 C 151.714 -1.83994 1.42299 0
M  V30 1601 C 152.708 -1.66684 0.302111 0
M  V30 1602 O 153.914 -1.73655 0.473697 0
M  V30 1603 H 150.289 -0.606171 0.44504 0
M  V30 1604 H 152.26 -1.79992 2.38003 0
M  V30 1605 C 151.009 -3.21946 1.31323 0
M  V30 1606 H 150.332 -3.35878 2.16855 0
M  V30 1607 H 151.772 -4.01491 1.36311 0
M  V30 1608 C 150.231 -3.36891 0.0245977 0
M  V30 1609 O 150.761 -3.90687 -0.934153 0
M  V30 1610 N 148.967 -2.90559 -0.0485243 0
M  V30 1611 H 148.514 -2.46968 0.732419 0
M  V30 1612 H 148.472 -3.00937 -0.910171 0
M  V30 1613 N 152.244 -1.26651 -0.937939 0
M  V30 1614 C 153.655 -1.1125 -1.49934 0
M  V30 1615 C 154.006 0.306077 -1.93798 0
M  V30 1616 O 153.131 1.19792 -1.80219 0
M  V30 1617 C 153.726 -2.01339 -2.72485 0
M  V30 1618 C 152.285 -1.90074 -3.24883 0
M  V30 1619 C 151.432 -1.94498 -1.97651 0
M  V30 1620 H 154.383 -1.39693 -0.753091 0
M  V30 1621 H 154.404 -1.56319 -3.46907 0
M  V30 1622 H 153.916 -3.04577 -2.40529 0
M  V30 1623 H 152.017 -0.897827 -3.61621 0
M  V30 1624 H 152.13 -2.75778 -3.9177 0
M  V30 1625 H 150.494 -1.38591 -2.13693 0
M  V30 1626 H 151.277 -2.99372 -1.68022 0
M  V30 1627 N 153.722 1.14298 -1.08507 0
M  V30 1628 C 154.669 2.19414 -0.715965 0
M  V30 1629 C 155.639 1.63399 0.298326 0
M  V30 1630 O 156.824 1.89929 0.182101 0
M  V30 1631 C 153.964 3.44845 -0.132534 0
M  V30 1632 C 153.077 4.15007 -1.19973 0
M  V30 1633 C 152.212 5.28024 -0.580048 0
M  V30 1634 C 151.251 5.9002 -1.62921 0
M  V30 1635 N 150.388 6.94485 -1.03125 0
M  V30 1636 H 155.228 2.50336 -1.61666 0
M  V30 1637 H 152.765 1.2293 -0.807882 0
M  V30 1638 H 154.723 4.16601 0.223454 0
M  V30 1639 H 153.353 3.14403 0.731467 0
M  V30 1640 H 152.405 3.41629 -1.67313 0
M  V30 1641 H 153.717 4.57178 -1.99473 0
M  V30 1642 H 152.871 6.06455 -0.172364 0
M  V30 1643 H 151.61 4.87076 0.246603 0
M  V30 1644 H 150.615 5.10291 -2.04654 0
M  V30 1645 H 151.84 6.33042 -2.45835 0
M  V30 1646 H 149.786 6.55612 -0.225711 0
M  V30 1647 H 149.703 7.35148 -1.76334 0
M  V30 1648 H 150.971 7.7679 -0.649458 0
M  V30 1649 N 155.201 0.870884 1.31352 0
M  V30 1650 C 156.111 0.330783 2.32256 0
M  V30 1651 C 157.127 -0.559767 1.6475 0
M  V30 1652 O 158.303 -0.456263 1.96164 0
M  V30 1653 C 155.368 -0.458137 3.4366 0
M  V30 1654 C 154.429 0.460482 4.26823 0
M  V30 1655 C 153.662 -0.290881 5.32907 0
M  V30 1656 O 153.885 -1.51885 5.49806 0
M  V30 1657 O 152.819 0.351732 6.00871 0
M  V30 1658 H 156.645 1.16718 2.80376 0
M  V30 1659 H 154.23 0.634285 1.35267 0
M  V30 1660 H 156.112 -0.905343 4.1156 0
M  V30 1661 H 154.787 -1.27106 2.97701 0
M  V30 1662 H 153.694 0.956207 3.61673 0
M  V30 1663 H 155.027 1.23903 4.7635 0
M  V30 1664 N 156.679 -1.44442 0.630414 0
M  V30 1665 C 157.919 -2.03934 0.137919 0
M  V30 1666 C 158.283 -1.48509 -1.21692 0
M  V30 1667 O 159.484 -1.99499 -1.80149 0
M  V30 1668 C 157.755 -3.57187 0.123373 0
M  V30 1669 S 159.314 -4.37741 -0.304604 0
M  V30 1670 H 156.132 -0.708401 0.0607353 0
M  V30 1671 H 158.734 -1.76835 0.833643 0
M  V30 1672 H 157.438 -3.95032 1.11256 0
M  V30 1673 H 156.969 -3.88895 -0.59362 0
M  V30 1674 H 158.984 -4.71403 -1.54897 0
M  V30 1675 N 158.157 -0.370918 -1.53173 0
M  V30 1676 C 159.403 0.217423 -2.01631 0
M  V30 1677 C 159.736 1.47983 -1.25756 0
M  V30 1678 O 159.011 1.91274 -0.352764 0
M  V30 1679 C 159.294 0.503982 -3.56556 0
M  V30 1680 C 159.147 -0.77243 -4.43118 0
M  V30 1681 C 160.466 1.30234 -4.20389 0
M  V30 1682 H 157.585 0.0775486 -0.732909 0
M  V30 1683 H 160.227 -0.496863 -1.83388 0
M  V30 1684 H 158.377 1.11248 -3.72231 0
M  V30 1685 H 160.049 -1.4098 -4.39229 0
M  V30 1686 H 158.292 -1.39167 -4.10871 0
M  V30 1687 H 158.963 -0.526815 -5.4948 0
M  V30 1688 H 161.439 0.787546 -4.08579 0
M  V30 1689 H 160.315 1.47158 -5.28806 0
M  V30 1690 H 160.576 2.31237 -3.76805 0
M  V30 1691 N 159.635 1.57281 -0.100228 0
M  V30 1692 C 160.883 1.94153 0.561157 0
M  V30 1693 C 161.204 0.983157 1.68401 0
M  V30 1694 O 160.474 0.0361132 1.95867 0
M  V30 1695 H 159.054 0.716791 0.210283 0
M  V30 1696 H 161.716 1.94202 -0.164765 0
M  V30 1697 H 160.812 2.96709 0.968008 0
M  V30 1698 N 161.113 -0.173488 1.56642 0
M  V30 1699 C 162.362 -0.888758 1.81063 0
M  V30 1700 C 162.675 -1.83506 0.67712 0
M  V30 1701 O 163.881 -2.59254 0.806206 0
M  V30 1702 C 162.337 -1.63091 3.20826 0
M  V30 1703 C 161.945 -0.728357 4.4204 0
M  V30 1704 C 163.689 -2.33454 3.54541 0
M  V30 1705 C 161.596 -1.47062 5.72823 0
M  V30 1706 H 160.526 -0.335618 0.675186 0
M  V30 1707 H 163.177 -0.141712 1.82952 0
M  V30 1708 H 161.559 -2.42263 3.13248 0
M  V30 1709 H 162.733 0.0262449 4.60793 0
M  V30 1710 H 161.048 -0.134492 4.16183 0
M  V30 1711 H 163.645 -2.89578 4.49498 0
M  V30 1712 H 163.988 -3.08687 2.79317 0
M  V30 1713 H 164.521 -1.61227 3.63663 0
M  V30 1714 H 161.26 -0.760658 6.51072 0
M  V30 1715 H 160.78 -2.1986 5.58052 0
M  V30 1716 H 162.459 -2.01868 6.14702 0
M  V30 1717 N 162.591 -1.51276 -0.441967 0
M  V30 1718 C 163.539 -1.72823 -1.55676 0
M  V30 1719 C 164.533 -0.59445 -1.58627 0
M  V30 1720 O 165.739 -0.775715 -1.62427 0
M  V30 1721 H 162.114 -0.545983 -0.517113 0
M  V30 1722 H 164.085 -2.6628 -1.34675 0
M  V30 1723 C 162.834 -1.86619 -2.93375 0
M  V30 1724 H 162.157 -2.73264 -2.91834 0
M  V30 1725 H 163.597 -2.05709 -3.70756 0
M  V30 1726 C 162.056 -0.624842 -3.31055 0
M  V30 1727 O 162.586 0.222636 -4.01083 0
M  V30 1728 N 160.792 -0.470288 -2.86769 0
M  V30 1729 H 160.339 -1.161 -2.29953 0
M  V30 1730 H 160.297 0.359051 -3.12343 0
M  V30 1731 N 164.069 0.697108 -1.41344 0
M  V30 1732 C 165.016 1.81106 -1.43071 0
M  V30 1733 C 165.986 1.63632 -0.285275 0
M  V30 1734 O 167.171 1.84504 -0.486091 0
M  V30 1735 C 164.311 3.18975 -1.31715 0
M  V30 1736 C 163.424 3.47892 -2.56115 0
M  V30 1737 C 162.559 4.75367 -2.37064 0
M  V30 1738 C 161.598 4.97247 -3.56948 0
M  V30 1739 N 160.735 6.15947 -3.36977 0
M  V30 1740 H 165.575 1.78965 -2.38276 0
M  V30 1741 H 163.112 0.873975 -1.18322 0
M  V30 1742 H 165.07 3.98615 -1.23133 0
M  V30 1743 H 163.7 3.20297 -0.401183 0
M  V30 1744 H 162.752 2.62669 -2.75153 0
M  V30 1745 H 164.064 3.59962 -3.45295 0
M  V30 1746 H 163.218 5.63059 -2.25941 0
M  V30 1747 H 161.957 4.65541 -1.45338 0
M  V30 1748 H 160.962 4.08004 -3.68527 0
M  V30 1749 H 162.187 5.08934 -4.49626 0
M  V30 1750 H 160.133 6.07336 -2.47949 0
M  V30 1751 H 160.05 6.28777 -4.19732 0
M  V30 1752 H 161.318 7.06377 -3.29623 0
M  V30 1753 N 165.547 1.27147 0.931209 0
M  V30 1754 C 166.477 1.12081 2.04842 0
M  V30 1755 C 167.458 0.0232364 1.70084 0
M  V30 1756 O 168.643 0.197085 1.93197 0
M  V30 1757 C 165.773 0.76354 3.38803 0
M  V30 1758 C 164.727 1.81396 3.87659 0
M  V30 1759 C 164.053 1.31075 5.18385 0
M  V30 1760 C 165.353 3.21739 4.11438 0
M  V30 1761 H 167.047 2.05537 2.17703 0
M  V30 1762 H 164.593 0.989603 1.04608 0
M  V30 1763 H 166.546 0.644982 4.16435 0
M  V30 1764 H 165.27 -0.206727 3.25945 0
M  V30 1765 H 163.929 1.92136 3.12217 0
M  V30 1766 H 163.577 0.330037 5.01916 0
M  V30 1767 H 163.277 2.013 5.52044 0
M  V30 1768 H 164.801 1.20506 5.98591 0
M  V30 1769 H 166.215 3.14019 4.79651 0
M  V30 1770 H 164.612 3.89644 4.56397 0
M  V30 1771 H 165.682 3.67054 3.16859 0
M  V30 1772 N 167.025 -1.13721 1.09112 0
M  V30 1773 C 168.253 -1.88773 0.846899 0
M  V30 1774 C 168.668 -1.7896 -0.601572 0
M  V30 1775 O 168.025 -1.15394 -1.41388 0
M  V30 1776 C 168.076 -3.3849 1.26913 0
M  V30 1777 O 167.797 -3.48043 2.66079 0
M  V30 1778 C 169.298 -4.30518 1.05682 0
M  V30 1779 H 166.518 -0.59772 0.304914 0
M  V30 1780 H 169.062 -1.43977 1.45227 0
M  V30 1781 H 167.217 -3.80881 0.707723 0
M  V30 1782 H 167.631 -4.4109 2.83795 0
M  V30 1783 H 169.105 -5.3391 1.40156 0
M  V30 1784 H 169.582 -4.392 -0.00563416 0
M  V30 1785 H 170.188 -3.93893 1.60402 0
M  V30 1786 N 168.503 -0.877838 -1.30888 0
M  V30 1787 C 169.749 -0.493426 -1.96706 0
M  V30 1788 C 170.082 0.953504 -1.6918 0
M  V30 1789 O 169.357 1.67266 -0.992594 0
M  V30 1790 C 169.64 -0.760429 -3.51979 0
M  V30 1791 C 169.493 -2.25747 -3.89048 0
M  V30 1792 C 170.812 -0.232148 -4.39487 0
M  V30 1793 H 167.931 -0.180746 -0.714493 0
M  V30 1794 H 170.573 -1.10052 -1.54882 0
M  V30 1795 H 168.723 -0.243715 -3.87735 0
M  V30 1796 H 170.395 -2.84204 -3.63354 0
M  V30 1797 H 168.638 -2.72694 -3.37373 0
M  V30 1798 H 169.309 -2.39491 -4.97341 0
M  V30 1799 H 171.785 -0.674314 -4.106 0
M  V30 1800 H 170.661 -0.448355 -5.47066 0
M  V30 1801 H 170.922 0.866297 -4.33529 0
M  V30 1802 N 169.982 1.44106 -0.638065 0
M  V30 1803 C 170.912 2.33448 0.0494287 0
M  V30 1804 C 171.893 1.48606 0.827672 0
M  V30 1805 O 173.078 1.77308 0.792173 0
M  V30 1806 C 170.208 3.31771 1.02691 0
M  V30 1807 C 169.162 4.26485 0.359823 0
M  V30 1808 C 168.488 5.14729 1.44769 0
M  V30 1809 C 169.788 5.17056 -0.738296 0
M  V30 1810 H 171.482 2.91183 -0.696636 0
M  V30 1811 H 169.028 1.40014 -0.336456 0
M  V30 1812 H 170.981 3.93161 1.51666 0
M  V30 1813 H 169.705 2.7226 1.80395 0
M  V30 1814 H 168.364 3.66437 -0.10934 0
M  V30 1815 H 168.012 4.51566 2.21578 0
M  V30 1816 H 167.712 5.78913 1.00668 0
M  V30 1817 H 169.236 5.78991 1.93911 0
M  V30 1818 H 170.65 5.72342 -0.331354 0
M  V30 1819 H 169.047 5.89879 -1.10286 0
M  V30 1820 H 170.117 4.57652 -1.60258 0
M  V30 1821 N 171.46 0.379036 1.52974 0
M  V30 1822 C 172.423 -0.448865 2.24762 0
M  V30 1823 C 173.423 -0.998689 1.26027 0
M  V30 1824 O 174.613 -0.882313 1.50203 0
M  V30 1825 C 171.745 -1.62872 2.99476 0
M  V30 1826 H 172.938 0.179491 2.99362 0
M  V30 1827 H 170.491 0.13096 1.5575 0
M  V30 1828 H 171.226 -2.29479 2.29151 0
M  V30 1829 H 171.011 -1.24128 3.71934 0
M  V30 1830 H 172.501 -2.2151 3.5401 0
M  V30 1831 N 172.938 -1.57226 0.108567 0
M  V30 1832 C 173.848 -2.18292 -0.859401 0
M  V30 1833 C 174.864 -1.15612 -1.30038 0
M  V30 1834 O 176.04 -1.48039 -1.36552 0
M  V30 1835 C 173.105 -2.762 -2.09558 0
M  V30 1836 C 172.166 -3.93881 -1.70752 0
M  V30 1837 C 171.399 -4.49018 -2.88477 0
M  V30 1838 O 171.622 -4.03068 -4.036 0
M  V30 1839 O 170.556 -5.39852 -2.66164 0
M  V30 1840 H 174.382 -3.01441 -0.369769 0
M  V30 1841 H 171.967 -1.48945 -0.1165 0
M  V30 1842 H 173.849 -3.13156 -2.81978 0
M  V30 1843 H 172.524 -1.96089 -2.57548 0
M  V30 1844 H 171.431 -3.61713 -0.954714 0
M  V30 1845 H 172.764 -4.75396 -1.27513 0
M  V30 1846 N 174.416 0.165178 -1.56732 0
M  V30 1847 C 175.364 1.22369 -1.97809 0
M  V30 1848 C 176.358 1.45488 -0.867741 0
M  V30 1849 O 177.564 1.45995 -1.05288 0
M  V30 1850 H 173.939 0.411486 -0.629431 0
M  V30 1851 H 175.91 0.850425 -2.86025 0
M  V30 1852 C 174.659 2.55403 -2.35934 0
M  V30 1853 H 173.982 2.38438 -3.20916 0
M  V30 1854 H 175.422 3.2814 -2.68514 0
M  V30 1855 C 173.881 3.14611 -1.20506 0
M  V30 1856 O 174.411 3.98626 -0.496016 0
M  V30 1857 N 172.617 2.7379 -0.97403 0
M  V30 1858 H 172.164 2.0557 -1.55238 0
M  V30 1859 H 172.122 3.1374 -0.203573 0
M  V30 1860 N 175.894 1.51508 0.433938 0
M  V30 1861 C 176.824 1.76016 1.53429 0
M  V30 1862 C 177.805 0.610112 1.58782 0
M  V30 1863 O 178.99 0.853177 1.74455 0
M  V30 1864 C 176.12 1.88831 2.9148 0
M  V30 1865 C 175.074 3.04288 3.00987 0
M  V30 1866 C 174.4 3.0229 4.4105 0
M  V30 1867 C 175.7 4.44193 2.74754 0
M  V30 1868 H 177.394 2.68152 1.33171 0
M  V30 1869 H 174.94 1.29035 0.639214 0
M  V30 1870 H 176.893 2.04559 3.6842 0
M  V30 1871 H 175.617 0.933455 3.12976 0
M  V30 1872 H 174.276 2.8827 2.26486 0
M  V30 1873 H 173.924 2.04576 4.59519 0
M  V30 1874 H 173.624 3.79822 4.4834 0
M  V30 1875 H 175.148 3.20116 5.1996 0
M  V30 1876 H 176.562 4.60544 3.41426 0
M  V30 1877 H 174.959 5.23457 2.9345 0
M  V30 1878 H 176.029 4.53996 1.70339 0
M  V30 1879 N 177.372 -0.689602 1.41712 0
M  V30 1880 C 178.618 -1.45041 1.42599 0
M  V30 1881 C 178.973 -1.92366 0.0363764 0
M  V30 1882 O 178.266 -1.67022 -0.938844 0
M  V30 1883 C 178.46 -2.67298 2.37247 0
M  V30 1884 C 178.289 -2.31935 3.85274 0
M  V30 1885 C 177.059 -2.2201 4.53916 0
M  V30 1886 C 179.257 -1.94526 4.76093 0
M  V30 1887 N 177.239 -1.79594 5.87043 0
M  V30 1888 C 178.61 -1.62915 5.98213 0
M  V30 1889 C 180.665 -1.81388 4.63684 0
M  V30 1890 C 179.368 -1.19486 7.09306 0
M  V30 1891 C 181.394 -1.39364 5.74745 0
M  V30 1892 C 180.756 -1.08668 6.95967 0
M  V30 1893 H 176.855 -0.527806 0.577014 0
M  V30 1894 H 179.439 -0.797266 1.77628 0
M  V30 1895 H 177.61 -3.30325 2.04304 0
M  V30 1896 H 179.342 -3.33806 2.28814 0
M  V30 1897 H 176.097 -2.406 4.07932 0
M  V30 1898 H 176.521 -1.60851 6.57614 0
M  V30 1899 H 181.163 -2.03772 3.70455 0
M  V30 1900 H 178.881 -0.958477 8.02396 0
M  V30 1901 H 182.467 -1.2974 5.6715 0
M  V30 1902 H 181.347 -0.766417 7.80446 0
M  V30 1903 N 178.85 -1.27639 -0.924453 0
M  V30 1904 C 179.78 -1.13166 -2.04244 0
M  V30 1905 C 180.761 -0.032256 -1.70069 0
M  V30 1906 O 181.946 -0.207328 -1.9309 0
M  V30 1907 C 179.076 -0.781496 -3.38393 0
M  V30 1908 C 178.03 -1.83449 -3.86692 0
M  V30 1909 C 177.356 -1.33822 -5.17683 0
M  V30 1910 C 178.656 -3.23917 -4.09726 0
M  V30 1911 H 180.35 -2.06689 -2.1661 0
M  V30 1912 H 177.896 -0.995136 -1.04082 0
M  V30 1913 H 179.849 -0.667057 -4.16087 0
M  V30 1914 H 178.573 0.189439 -3.2605 0
M  V30 1915 H 177.232 -1.93789 -3.11193 0
M  V30 1916 H 176.88 -0.35665 -5.01734 0
M  V30 1917 H 176.58 -2.04224 -5.50968 0
M  V30 1918 H 178.104 -1.23679 -5.97943 0
M  V30 1919 H 179.518 -3.16559 -4.77978 0
M  V30 1920 H 177.915 -3.92059 -4.54324 0
M  V30 1921 H 178.985 -3.68729 -3.14908 0
M  V30 1922 N 180.328 1.1314 -1.09713 0
M  V30 1923 C 181.739 1.66029 -0.853885 0
M  V30 1924 C 182.09 1.86241 0.617142 0
M  V30 1925 O 181.215 1.5834 1.47503 0
M  V30 1926 C 181.81 3.01599 -1.5435 0
M  V30 1927 C 180.369 3.51467 -1.34714 0
M  V30 1928 C 179.516 2.26648 -1.59769 0
M  V30 1929 H 182.467 0.970226 -1.25588 0
M  V30 1930 H 182.488 3.67709 -0.978267 0
M  V30 1931 H 182 2.86856 -2.6141 0
M  V30 1932 H 180.101 3.71408 -0.297838 0
M  V30 1933 H 180.214 4.314 -2.08401 0
M  V30 1934 H 178.578 2.33385 -1.01998 0
M  V30 1935 H 179.361 2.14467 -2.68065 0
M  V30 1936 N 181.806 0.884767 1.30421 0
M  V30 1937 C 183.083 0.423185 1.90967 0
M  V30 1938 C 183.463 -1.09605 1.80416 0
M  V30 1939 O 182.811 -1.93126 1.22125 0
M  V30 1940 C 183.021 0.921056 3.36627 0
M  V30 1941 C 184.369 0.955903 4.137 0
M  V30 1942 O 185.393 0.867706 3.4547 0
M  V30 1943 O 184.252 1.08614 5.35598 0
M  V30 1944 H 181.346 0.129369 0.816819 0
M  V30 1945 H 183.892 0.973653 1.3899 0
M  V30 1946 H 182.664 1.96489 3.3839 0
M  V30 1947 H 182.287 0.349741 3.96059 0
M  V30 1948 N 183.284 -1.43765 0.645699 0
M  V30 1949 C 184.533 -2.01116 0.153412 0
M  V30 1950 C 184.846 -1.51493 -1.23731 0
M  V30 1951 O 186.052 -2.01067 -1.8244 0
M  V30 1952 C 184.508 -3.59206 0.223473 0
M  V30 1953 C 184.116 -4.17823 1.61642 0
M  V30 1954 C 185.86 -4.23972 -0.211597 0
M  V30 1955 C 183.767 -5.68183 1.64081 0
M  V30 1956 H 182.697 -0.752093 0.0535891 0
M  V30 1957 H 185.348 -1.6482 0.806633 0
M  V30 1958 H 183.73 -3.92867 -0.497118 0
M  V30 1959 H 184.904 -3.95674 2.36176 0
M  V30 1960 H 183.219 -3.65399 1.99681 0
M  V30 1961 H 185.816 -5.34275 -0.213112 0
M  V30 1962 H 186.159 -3.97352 -1.24165 0
M  V30 1963 H 186.692 -3.95166 0.456988 0
M  V30 1964 H 183.431 -5.99559 2.64971 0
M  V30 1965 H 182.951 -5.9241 0.938611 0
M  V30 1966 H 184.63 -6.32085 1.3812 0
M  V30 1967 N 184.763 -0.387143 -1.52771 0
M  V30 1968 C 186.01 0.195735 -2.01552 0
M  V30 1969 C 186.338 1.46995 -1.27369 0
M  V30 1970 O 185.593 1.92325 -0.361879 0
M  V30 1971 C 185.892 0.512209 -3.53711 0
M  V30 1972 C 185.558 -0.670202 -4.45891 0
M  V30 1973 C 184.22 -0.994586 -4.70809 0
M  V30 1974 C 186.572 -1.46134 -5.00294 0
M  V30 1975 C 183.9 -2.11169 -5.4738 0
M  V30 1976 C 186.252 -2.56903 -5.78086 0
M  V30 1977 C 184.916 -2.89852 -6.01284 0
M  V30 1978 H 184.186 0.0716246 -0.73753 0
M  V30 1979 H 186.833 -0.524046 -1.8419 0
M  V30 1980 H 185.138 1.31329 -3.69134 0
M  V30 1981 H 186.835 0.975804 -3.88946 0
M  V30 1982 H 183.425 -0.407366 -4.2666 0
M  V30 1983 H 187.609 -1.22397 -4.80971 0
M  V30 1984 H 182.865 -2.3707 -5.63567 0
M  V30 1985 H 187.039 -3.18608 -6.19243 0
M  V30 1986 H 184.666 -3.76533 -6.60399 0
M  V30 1987 N 186.241 1.57166 -0.116904 0
M  V30 1988 C 187.49 1.94298 0.541407 0
M  V30 1989 C 187.803 1.00236 1.67964 0
M  V30 1990 O 189.009 1.26826 2.40057 0
M  V30 1991 C 187.465 3.45306 1.01449 0
M  V30 1992 C 187.073 4.47899 -0.0951738 0
M  V30 1993 C 188.817 3.91361 1.6443 0
M  V30 1994 C 186.724 5.90083 0.394491 0
M  V30 1995 H 185.654 0.725308 0.206019 0
M  V30 1996 H 188.305 1.82446 -0.196419 0
M  V30 1997 H 186.687 3.52385 1.80667 0
M  V30 1998 H 187.861 4.52486 -0.871374 0
M  V30 1999 H 186.176 4.11583 -0.631505 0
M  V30 2000 H 188.773 4.95004 2.02176 0
M  V30 2001 H 189.116 3.3122 2.52189 0
M  V30 2002 H 189.649 3.87073 0.917559 0
M  V30 2003 H 186.388 6.53974 -0.447004 0
M  V30 2004 H 185.908 5.88921 1.13722 0
M  V30 2005 H 187.587 6.41307 0.856399 0
M  V30 2006 N 187.719 -0.156864 1.56817 0
M  V30 2007 C 188.965 -0.872416 1.83076 0
M  V30 2008 C 189.298 -1.81261 0.697001 0
M  V30 2009 O 188.573 -1.92171 -0.30008 0
M  V30 2010 C 188.856 -1.65551 3.19789 0
M  V30 2011 C 188.709 -0.737467 4.43713 0
M  V30 2012 C 190.028 -2.62012 3.53606 0
M  V30 2013 H 187.147 -0.315715 0.665953 0
M  V30 2014 H 189.789 -0.138004 1.89498 0
M  V30 2015 H 187.939 -2.28159 3.14445 0
M  V30 2016 H 189.611 -0.123143 4.61136 0
M  V30 2017 H 187.854 -0.0464067 4.33775 0
M  V30 2018 H 188.525 -1.32122 5.35955 0
M  V30 2019 H 191.001 -2.09525 3.59497 0
M  V30 2020 H 189.877 -3.13861 4.50314 0
M  V30 2021 H 190.138 -3.42902 2.79053 0
M  V30 2022 N 189.197 -1.51736 -0.425897 0
M  V30 2023 C 190.107 -1.76738 -1.54275 0
M  V30 2024 C 191.123 -0.65211 -1.61318 0
M  V30 2025 O 192.299 -0.935654 -1.78346 0
M  V30 2026 C 189.364 -1.89755 -2.90162 0
M  V30 2027 C 188.425 -3.13633 -2.93143 0
M  V30 2028 C 187.658 -3.2602 -4.22548 0
M  V30 2029 O 187.881 -2.44067 -5.15546 0
M  V30 2030 O 186.815 -4.19071 -4.32046 0
M  V30 2031 H 190.641 -2.71502 -1.36089 0
M  V30 2032 H 188.226 -1.36376 -0.610069 0
M  V30 2033 H 190.108 -2.00236 -3.70788 0
M  V30 2034 H 188.783 -0.981785 -3.08452 0
M  V30 2035 H 187.69 -3.08622 -2.11431 0
M  V30 2036 H 189.023 -4.04936 -2.798 0
M  V30 2037 N 190.675 0.682077 -1.42076 0
M  V30 2038 C 191.9 1.47558 -1.45744 0
M  V30 2039 C 192.325 1.87977 -0.0680981 0
M  V30 2040 O 191.683 1.55522 0.9318 0
M  V30 2041 C 191.731 2.70575 -2.38373 0
M  V30 2042 O 190.835 3.68573 -1.85007 0
M  V30 2043 H 190.176 0.443585 -0.494093 0
M  V30 2044 H 192.706 0.837238 -1.86686 0
M  V30 2045 H 192.716 3.18729 -2.54707 0
M  V30 2046 H 191.391 2.40495 -3.39315 0
M  V30 2047 H 189.968 3.2757 -1.78192 0
M  V30 2048 N 192.153 1.28127 0.917671 0
M  V30 2049 C 193.086 1.06039 2.02067 0
M  V30 2050 C 194.064 -0.0223285 1.62585 0
M  V30 2051 O 195.248 0.124823 1.88086 0
M  V30 2052 C 192.375 0.610596 3.33151 0
M  V30 2053 C 191.421 1.68937 3.91615 0
M  V30 2054 S 192.254 3.28437 4.22953 0
M  V30 2055 C 193.41 2.85283 5.57103 0
M  V30 2056 H 193.643 1.99425 2.20493 0
M  V30 2057 H 191.176 1.12071 1.06205 0
M  V30 2058 H 193.134 0.357778 4.08938 0
M  V30 2059 H 191.795 -0.303364 3.12632 0
M  V30 2060 H 190.988 1.32619 4.86239 0
M  V30 2061 H 190.59 1.89478 3.2245 0
M  V30 2062 H 192.882 2.3121 6.36827 0
M  V30 2063 H 193.825 3.7869 5.98331 0
M  V30 2064 H 194.233 2.24118 5.18104 0
M  V30 2065 N 193.631 -1.12557 1.10312 0
M  V30 2066 C 194.908 -1.80363 0.756878 0
M  V30 2067 C 195.288 -1.97067 -0.756824 0
M  V30 2068 O 194.636 -1.54601 -1.68259 0
M  V30 2069 C 194.846 -3.14812 1.50647 0
M  V30 2070 C 196.194 -3.90029 1.67817 0
M  V30 2071 O 197.218 -3.24464 1.46974 0
M  V30 2072 O 196.077 -5.07652 2.02365 0
M  V30 2073 H 193.171 -0.780667 0.272926 0
M  V30 2074 H 195.717 -1.19404 1.20586 0
M  V30 2075 H 194.489 -2.97936 2.53672 0
M  V30 2076 H 194.112 -3.83478 1.05026 0
M  V30 2077 N 195.109 -0.891671 -1.2995 0
M  V30 2078 C 196.355 -0.514261 -1.96171 0
M  V30 2079 C 196.688 0.935506 -1.70182 0
M  V30 2080 O 195.963 1.66204 -1.01028 0
M  V30 2081 C 196.246 -0.797719 -3.51153 0
M  V30 2082 C 196.099 -2.2986 -3.86632 0
M  V30 2083 C 197.418 -0.278749 -4.39216 0
M  V30 2084 H 194.537 -0.188314 -0.712535 0
M  V30 2085 H 197.179 -1.11689 -1.53706 0
M  V30 2086 H 195.329 -0.284826 -3.87455 0
M  V30 2087 H 197.001 -2.88042 -3.60319 0
M  V30 2088 H 195.244 -2.76257 -3.34462 0
M  V30 2089 H 195.915 -2.44753 -4.94773 0
M  V30 2090 H 198.391 -0.717825 -4.09862 0
M  V30 2091 H 197.267 -0.506353 -5.46559 0
M  V30 2092 H 197.528 0.820266 -4.34424 0
M  V30 2093 N 196.587 1.43421 -0.653314 0
M  V30 2094 C 197.864 1.95361 -0.0966581 0
M  V30 2095 C 198.244 1.59461 1.38331 0
M  V30 2096 O 197.592 0.879777 2.10884 0
M  V30 2097 C 197.802 3.47311 -0.342988 0
M  V30 2098 C 199.15 4.23875 -0.24798 0
M  V30 2099 O 200.174 3.55133 -0.275553 0
M  V30 2100 O 199.033 5.4623 -0.171771 0
M  V30 2101 H 196.127 0.826945 0.00956291 0
M  V30 2102 H 198.673 1.5336 -0.726558 0
M  V30 2103 H 197.445 3.66569 -1.36906 0
M  V30 2104 H 197.068 3.9631 0.319975 0
M  V30 2105 N 198.065 0.39524 1.52563 0
M  V30 2106 C 198.997 -0.472201 2.24283 0
M  V30 2107 C 200.01 -1.02178 1.26742 0
M  V30 2108 O 201.199 -0.923097 1.52778 0
M  V30 2109 C 198.299 -1.66775 2.95024 0
M  V30 2110 C 197.472 -1.2445 4.19322 0
M  V30 2111 C 196.531 -2.30539 4.7301 0
M  V30 2112 O 195.557 -1.91702 5.35947 0
M  V30 2113 N 196.759 -3.6253 4.53379 0
M  V30 2114 H 199.524 0.142282 2.99362 0
M  V30 2115 H 197.085 0.2219 1.60372 0
M  V30 2116 H 199.077 -2.37283 3.27839 0
M  V30 2117 H 197.647 -2.18845 2.23217 0
M  V30 2118 H 196.867 -0.368069 3.92478 0
M  V30 2119 H 198.155 -0.938457 5.0007 0
M  V30 2120 H 197.553 -3.96841 4.03154 0
M  V30 2121 H 196.11 -4.29055 4.90668 0
M  V30 2122 N 199.544 -1.57102 0.125237 0
M  V30 2123 C 200.772 -1.99761 -0.538797 0
M  V30 2124 C 201.187 -1.00503 -1.59827 0
M  V30 2125 O 200.544 0.00119474 -1.825 0
M  V30 2126 C 200.595 -3.42408 -1.15927 0
M  V30 2127 O 200.316 -4.37869 -0.142143 0
M  V30 2128 C 201.817 -4.00232 -1.90602 0
M  V30 2129 H 199.037 -0.655772 -0.14214 0
M  V30 2130 H 201.581 -2.03383 0.213413 0
M  V30 2131 H 199.736 -3.39706 -1.86223 0
M  V30 2132 H 200.15 -5.21128 -0.593775 0
M  V30 2133 H 201.624 -5.02105 -2.29335 0
M  V30 2134 H 202.101 -3.39721 -2.78363 0
M  V30 2135 H 202.707 -4.06499 -1.25055 0
M  V30 2136 N 201.022 0.148545 -1.56898 0
M  V30 2137 C 202.433 0.708766 -1.72723 0
M  V30 2138 C 202.784 1.81734 -0.739395 0
M  V30 2139 O 201.909 2.16194 0.0943169 0
M  V30 2140 C 202.504 1.29245 -3.13179 0
M  V30 2141 C 201.063 1.79925 -3.30611 0
M  V30 2142 C 200.21 0.687111 -2.68652 0
M  V30 2143 H 203.161 -0.0771063 -1.58513 0
M  V30 2144 H 203.182 2.16224 -3.13093 0
M  V30 2145 H 202.694 0.485382 -3.85053 0
M  V30 2146 H 200.795 2.63203 -2.63732 0
M  V30 2147 H 200.908 1.92903 -4.38549 0
M  V30 2148 H 199.272 1.11335 -2.29078 0
M  V30 2149 H 200.055 -0.108483 -3.43129 0
M  V30 2150 N 202.5 1.5196 0.417844 0
M  V30 2151 C 203.725 1.69717 1.1921 0
M  V30 2152 C 204.15 0.402148 1.83751 0
M  V30 2153 O 203.508 -0.639593 1.69643 0
M  V30 2154 C 203.556 2.82794 2.2374 0
M  V30 2155 O 202.66 2.47756 3.29683 0
M  V30 2156 H 202.001 0.565263 0.348387 0
M  V30 2157 H 204.531 1.98621 0.490985 0
M  V30 2158 H 204.541 3.07452 2.68212 0
M  V30 2159 H 203.216 3.76756 1.76146 0
M  V30 2160 H 201.793 2.33739 2.90552 0
M  V30 2161 N 203.978 -0.674533 1.42435 0
M  V30 2162 C 205.226 -1.43175 1.42637 0
M  V30 2163 C 205.547 -1.94951 0.0438992 0
M  V30 2164 O 204.817 -1.7308 -0.917607 0
M  V30 2165 H 203.397 -0.531307 0.525092 0
M  V30 2166 H 206.059 -0.797006 1.77859 0
M  V30 2167 H 205.155 -2.28463 2.12629 0
M  V30 2168 N 205.456 -1.28612 -0.910864 0
M  V30 2169 C 206.386 -1.15326 -2.03032 0
M  V30 2170 C 207.367 -0.0502924 -1.70026 0
M  V30 2171 O 208.552 -0.227797 -1.92859 0
M  V30 2172 C 205.682 -0.817343 -3.37545 0
M  V30 2173 C 204.636 -1.8754 -3.84724 0
M  V30 2174 C 203.962 -1.39305 -5.16235 0
M  V30 2175 C 205.262 -3.28244 -4.06267 0
M  V30 2176 H 206.956 -2.08975 -2.14406 0
M  V30 2177 H 204.502 -1.00612 -1.03021 0
M  V30 2178 H 206.455 -0.711151 -4.15356 0
M  V30 2179 H 205.179 0.154846 -3.26233 0
M  V30 2180 H 203.838 -1.97079 -3.09121 0
M  V30 2181 H 203.486 -0.409846 -5.01328 0
M  V30 2182 H 203.186 -2.10057 -5.48771 0
M  V30 2183 H 204.71 -1.30014 -5.96598 0
M  V30 2184 H 206.124 -3.21611 -4.74594 0
M  V30 2185 H 204.521 -3.96855 -4.5014 0
M  V30 2186 H 205.591 -3.72048 -3.10979 0
M  V30 2187 N 206.934 1.1197 -1.10907 0
M  V30 2188 C 208.162 1.87402 -0.876824 0
M  V30 2189 C 208.577 1.79894 0.573025 0
M  V30 2190 O 207.934 1.17629 1.39534 0
M  V30 2191 C 207.985 3.36428 -1.32282 0
M  V30 2192 O 207.706 3.43765 -2.71582 0
M  V30 2193 C 209.207 4.28783 -1.12518 0
M  V30 2194 H 206.427 0.592793 -0.314384 0
M  V30 2195 H 208.971 1.41649 -1.47499 0
M  V30 2196 H 207.126 3.79706 -0.768229 0
M  V30 2197 H 207.54 4.3652 -2.90776 0
M  V30 2198 H 209.014 5.31613 -1.48633 0
M  V30 2199 H 209.491 4.39153 -0.0642394 0
M  V30 2200 H 210.097 3.91291 -1.66648 0
M  V30 2201 N 208.412 0.89855 1.29475 0
M  V30 2202 C 209.375 0.380272 2.26023 0
M  V30 2203 C 210.375 -0.484891 1.53315 0
M  V30 2204 O 211.565 -0.290108 1.71767 0
M  V30 2205 C 208.697 -0.45651 3.3783 0
M  V30 2206 H 209.89 1.23295 2.73383 0
M  V30 2207 H 207.443 0.676589 1.40897 0
M  V30 2208 H 208.178 -1.32922 2.95808 0
M  V30 2209 H 207.963 0.163393 3.91759 0
M  V30 2210 H 209.453 -0.810466 4.0966 0
M  V30 2211 N 209.89 -1.43072 0.660911 0
M  V30 2212 C 211.12 -2.05769 0.185153 0
M  V30 2213 C 211.528 -1.49668 -1.15742 0
M  V30 2214 O 210.871 -0.625649 -1.72717 0
M  V30 2215 C 210.933 -3.59489 0.0278237 0
M  V30 2216 C 210.597 -4.38212 1.2969 0
M  V30 2217 C 211.594 -4.69772 2.22734 0
M  V30 2218 C 209.279 -4.7809 1.54063 0
M  V30 2219 C 211.273 -5.40129 3.38437 0
M  V30 2220 C 208.96 -5.4819 2.70058 0
M  V30 2221 C 209.958 -5.79132 3.62071 0
M  V30 2222 O 209.646 -6.47798 4.76039 0
M  V30 2223 H 209.378 -0.669873 0.0908086 0
M  V30 2224 H 211.932 -1.84436 0.90402 0
M  V30 2225 H 210.162 -3.79426 -0.746489 0
M  V30 2226 H 211.851 -4.03862 -0.406275 0
M  V30 2227 H 212.617 -4.39476 2.05149 0
M  V30 2228 H 208.496 -4.53408 0.833215 0
M  V30 2229 H 212.04 -5.64198 4.10277 0
M  V30 2230 H 207.937 -5.77902 2.87574 0
M  V30 2231 H 208.705 -6.66283 4.75404 0
M  V30 2232 N 211.368 -0.403325 -1.52352 0
M  V30 2233 C 212.617 0.175668 -2.00934 0
M  V30 2234 C 212.93 1.46718 -1.29356 0
M  V30 2235 O 214.136 2.12708 -1.68724 0
M  V30 2236 C 212.592 0.363612 -3.58058 0
M  V30 2237 C 212.2 -0.915472 -4.38547 0
M  V30 2238 C 213.944 0.89821 -4.14888 0
M  V30 2239 C 211.851 -0.695035 -5.87302 0
M  V30 2240 H 210.781 0.0694234 -0.750797 0
M  V30 2241 H 213.432 -0.527879 -1.75743 0
M  V30 2242 H 211.814 1.12935 -3.79555 0
M  V30 2243 H 212.988 -1.68691 -4.28812 0
M  V30 2244 H 211.303 -1.37606 -3.93006 0
M  V30 2245 H 213.9 1.07907 -5.23699 0
M  V30 2246 H 214.243 1.87126 -3.71873 0
M  V30 2247 H 214.776 0.191681 -3.97338 0
M  V30 2248 H 211.515 -1.63948 -6.34666 0
M  V30 2249 H 211.035 0.0372116 -5.99788 0
M  V30 2250 H 212.714 -0.33497 -6.46132 0
M  V30 2251 N 212.846 1.57033 -0.133567 0
M  V30 2252 C 214.071 2.00475 0.531477 0
M  V30 2253 C 214.496 1.01291 1.58499 0
M  V30 2254 O 213.854 -0.0133279 1.81295 0
M  V30 2255 C 213.902 3.42729 1.12113 0
M  V30 2256 O 213.006 3.46498 2.23636 0
M  V30 2257 H 212.347 0.650876 0.131362 0
M  V30 2258 H 214.877 2.03344 -0.22634 0
M  V30 2259 H 214.887 3.81246 1.4531 0
M  V30 2260 H 213.562 4.14428 0.349557 0
M  V30 2261 H 212.139 3.19811 1.91769 0
M  V30 2262 N 214.325 -0.140222 1.56975 0
M  V30 2263 C 215.55 -0.870414 1.88251 0
M  V30 2264 C 215.975 -1.73637 0.723312 0
M  V30 2265 O 215.333 -1.78329 -0.32689 0
M  V30 2266 C 215.381 -1.69737 3.18154 0
M  V30 2267 O 214.485 -2.80229 3.02565 0
M  V30 2268 H 213.826 -0.242025 0.61832 0
M  V30 2269 H 216.356 -0.128999 2.04193 0
M  V30 2270 H 216.366 -2.09099 3.50345 0
M  V30 2271 H 215.041 -1.06152 4.02125 0
M  V30 2272 H 213.618 -2.44224 2.81796 0
M  V30 2273 N 215.803 -1.52179 -0.40978 0
M  V30 2274 C 216.713 -1.78364 -1.52392 0
M  V30 2275 C 217.729 -0.669183 -1.60617 0
M  V30 2276 O 218.905 -0.954518 -1.77344 0
M  V30 2277 C 215.97 -1.92822 -2.88133 0
M  V30 2278 C 215.031 -3.16725 -2.898 0
M  V30 2279 C 214.264 -3.30483 -4.19067 0
M  V30 2280 O 214.487 -2.49522 -5.12928 0
M  V30 2281 O 213.421 -4.2363 -4.27576 0
M  V30 2282 H 217.247 -2.72931 -1.33201 0
M  V30 2283 H 214.832 -1.37016 -0.59557 0
M  V30 2284 H 216.714 -2.04157 -3.68643 0
M  V30 2285 H 215.389 -1.01444 -3.07393 0
M  V30 2286 H 214.296 -3.10848 -2.08146 0
M  V30 2287 H 215.629 -4.07881 -2.75489 0
M  V30 2288 N 217.281 0.66697 -1.42791 0
M  V30 2289 C 218.529 1.42417 -1.43394 0
M  V30 2290 C 218.85 1.94925 -0.0542373 0
M  V30 2291 O 218.12 1.73564 0.908415 0
M  V30 2292 H 216.7 0.528515 -0.527902 0
M  V30 2293 H 219.362 0.787562 -1.78279 0
M  V30 2294 H 218.458 2.27333 -2.13837 0
M  V30 2295 N 218.759 1.29093 0.90403 0
M  V30 2296 C 220.175 1.07011 1.1841 0
M  V30 2297 C 220.375 -0.181358 2.00682 0
M  V30 2298 O 219.431 -0.880331 2.36657 0
M  V30 2299 C 220.744 2.32311 1.90924 0
M  V30 2300 C 222.292 2.37587 2.03768 0
M  V30 2301 C 222.767 3.62679 2.79693 0
M  V30 2302 N 224.258 3.63376 2.87249 0
M  V30 2303 C 224.993 4.56848 3.46522 0
M  V30 2304 N 224.489 5.60648 4.06996 0
M  V30 2305 N 226.282 4.44426 3.44154 0
M  V30 2306 H 218.433 2.09412 0.354993 0
M  V30 2307 H 220.696 0.922181 0.219742 0
M  V30 2308 H 220.402 3.23536 1.37905 0
M  V30 2309 H 220.276 2.39483 2.91424 0
M  V30 2310 H 222.663 1.46853 2.55965 0
M  V30 2311 H 222.744 2.34403 1.02415 0
M  V30 2312 H 222.388 4.53762 2.28173 0
M  V30 2313 H 222.318 3.63119 3.81381 0
M  V30 2314 H 224.809 2.88321 2.44293 0
M  V30 2315 H 225.122 6.28101 4.50232 0
M  V30 2316 H 223.467 5.64463 4.05471 0
M  V30 2317 H 226.658 3.62529 2.96126 0
M  V30 2318 H 226.831 5.17457 3.90054 0
M  V30 2319 N 220.237 -1.11381 1.11499 0
M  V30 2320 C 221.486 -1.82494 0.858993 0
M  V30 2321 C 221.799 -1.85605 -0.617278 0
M  V30 2322 O 223.005 -2.52824 -0.989552 0
M  V30 2323 C 221.461 -3.27745 1.48699 0
M  V30 2324 C 221.069 -3.32961 2.99735 0
M  V30 2325 C 222.813 -4.03754 1.31085 0
M  V30 2326 C 220.72 -4.72612 3.55516 0
M  V30 2327 H 219.65 -0.683802 0.317696 0
M  V30 2328 H 222.301 -1.25331 1.34031 0
M  V30 2329 H 220.683 -3.84844 0.933339 0
M  V30 2330 H 221.857 -2.85741 3.61509 0
M  V30 2331 H 220.172 -2.70433 3.16631 0
M  V30 2332 H 222.769 -5.06891 1.70192 0
M  V30 2333 H 223.112 -4.15527 0.253496 0
M  V30 2334 H 223.645 -3.53043 1.83318 0
M  V30 2335 H 220.384 -4.66036 4.60967 0
M  V30 2336 H 219.904 -5.2024 2.98513 0
M  V30 2337 H 221.583 -5.4157 3.53992 0
M  V30 2338 N 221.715 -0.905404 -1.28997 0
M  V30 2339 C 222.662 -0.385892 -2.27551 0
M  V30 2340 C 223.632 0.535113 -1.57244 0
M  V30 2341 O 224.817 0.459119 -1.85194 0
M  V30 2342 C 221.957 0.375461 -3.43051 0
M  V30 2343 C 221.07 -0.577092 -4.28128 0
M  V30 2344 C 220.205 0.201879 -5.30816 0
M  V30 2345 C 219.244 -0.744829 -6.07551 0
M  V30 2346 N 218.381 9.42587e-05 -7.021 0
M  V30 2347 H 223.221 -1.23139 -2.71368 0
M  V30 2348 H 220.758 -0.618542 -1.33463 0
M  V30 2349 H 222.716 0.832992 -4.088 0
M  V30 2350 H 221.346 1.18537 -3.00248 0
M  V30 2351 H 220.398 -1.15315 -3.62501 0
M  V30 2352 H 221.71 -1.30152 -4.8152 0
M  V30 2353 H 220.864 0.720351 -6.02408 0
M  V30 2354 H 219.603 0.959413 -4.7817 0
M  V30 2355 H 218.608 -1.27475 -5.34818 0
M  V30 2356 H 219.833 -1.50178 -6.62286 0
M  V30 2357 H 217.779 0.739791 -6.51815 0
M  V30 2358 H 217.696 -0.664321 -7.53076 0
M  V30 2359 H 218.964 0.498644 -7.77903 0
M  V30 2360 N 223.193 1.4272 -0.668489 0
M  V30 2361 C 224.423 2.05668 -0.196063 0
M  V30 2362 C 224.831 1.5028 1.14946 0
M  V30 2363 O 224.174 0.6348 1.72383 0
M  V30 2364 C 224.236 3.59469 -0.0468879 0
M  V30 2365 C 223.9 4.37518 -1.32012 0
M  V30 2366 C 224.897 4.68584 -2.25222 0
M  V30 2367 C 222.582 4.77266 -1.56596 0
M  V30 2368 C 224.576 5.38326 -3.41297 0
M  V30 2369 C 222.263 5.4675 -2.72962 0
M  V30 2370 C 223.261 5.77204 -3.65137 0
M  V30 2371 O 222.949 6.45264 -4.79468 0
M  V30 2372 H 222.681 0.669382 -0.0943599 0
M  V30 2373 H 225.235 1.83954 -0.913788 0
M  V30 2374 H 223.465 3.79817 0.726357 0
M  V30 2375 H 225.154 4.04071 0.384852 0
M  V30 2376 H 225.92 4.38382 -2.07477 0
M  V30 2377 H 221.799 4.52959 -0.857249 0
M  V30 2378 H 225.343 5.62014 -4.13263 0
M  V30 2379 H 221.24 5.76369 -2.90635 0
M  V30 2380 H 222.008 6.63753 -4.78931 0
M  V30 2381 N 224.671 0.411399 1.52136 0
M  V30 2382 C 225.948 -0.222308 1.94333 0
M  V30 2383 C 226.328 -1.6242 1.34844 0
M  V30 2384 O 225.676 -2.22384 0.525145 0
M  V30 2385 C 225.886 -0.226345 3.48265 0
M  V30 2386 C 227.234 -0.444592 4.22266 0
M  V30 2387 O 228.258 -0.305602 3.54887 0
M  V30 2388 O 227.117 -0.718749 5.41753 0
M  V30 2389 H 224.211 -0.143907 0.814383 0
M  V30 2390 H 226.757 0.467506 1.63133 0
M  V30 2391 H 225.529 0.75475 3.83952 0
M  V30 2392 H 225.152 -0.960163 3.85832 0
M  V30 2393 N 226.149 -1.5696 0.141893 0
M  V30 2394 C 227.096 -2.16501 -0.799737 0
M  V30 2395 C 228.066 -1.09643 -1.24771 0
M  V30 2396 O 229.251 -1.3766 -1.32115 0
M  V30 2397 C 226.391 -2.78679 -2.03549 0
M  V30 2398 C 225.504 -3.99914 -1.6338 0
M  V30 2399 C 224.639 -4.50106 -2.82096 0
M  V30 2400 C 223.678 -5.63819 -2.38275 0
M  V30 2401 N 222.815 -6.08651 -3.49983 0
M  V30 2402 H 227.655 -2.96632 -0.285179 0
M  V30 2403 H 225.192 -1.46533 -0.129053 0
M  V30 2404 H 227.15 -3.1287 -2.75986 0
M  V30 2405 H 225.78 -2.012 -2.52425 0
M  V30 2406 H 224.832 -3.71735 -0.807279 0
M  V30 2407 H 226.144 -4.82311 -1.27192 0
M  V30 2408 H 225.298 -4.86325 -3.62729 0
M  V30 2409 H 224.037 -3.66706 -3.21525 0
M  V30 2410 H 223.042 -5.2718 -1.56081 0
M  V30 2411 H 224.267 -6.49 -1.99938 0
M  V30 2412 H 222.213 -5.28188 -3.89042 0
M  V30 2413 H 222.13 -6.85961 -3.17794 0
M  V30 2414 H 223.398 -6.49515 -4.30988 0
M  V30 2415 N 227.627 0.131896 -1.57047 0
M  V30 2416 C 229.038 0.690407 -1.73465 0
M  V30 2417 C 229.389 1.8094 -0.758629 0
M  V30 2418 O 228.514 2.16282 0.0713813 0
M  V30 2419 C 229.109 1.25916 -3.14532 0
M  V30 2420 C 227.668 1.76409 -3.32501 0
M  V30 2421 C 226.815 0.658579 -2.69366 0
M  V30 2422 H 229.766 -0.0939144 -1.58422 0
M  V30 2423 H 229.787 2.12892 -3.15369 0
M  V30 2424 H 229.299 0.444515 -3.85546 0
M  V30 2425 H 227.4 2.60391 -2.66509 0
M  V30 2426 H 227.513 1.88241 -4.4057 0
M  V30 2427 H 225.877 1.08899 -2.30246 0
M  V30 2428 H 226.66 -0.14487 -3.42994 0
M  V30 2429 N 229.106 1.52395 0.401703 0
M  V30 2430 C 230.039 1.70999 1.51111 0
M  V30 2431 C 231.017 0.55765 1.52738 0
M  V30 2432 O 232.201 0.785912 1.71335 0
M  V30 2433 C 229.328 1.75607 2.8962 0
M  V30 2434 C 228.374 2.97227 3.05873 0
M  V30 2435 S 229.207 4.57439 2.78405 0
M  V30 2436 C 230.363 4.64844 4.19131 0
M  V30 2437 H 230.596 2.6483 1.35102 0
M  V30 2438 H 228.129 1.42527 0.593762 0
M  V30 2439 H 230.087 1.78947 3.69443 0
M  V30 2440 H 228.748 0.828914 3.02965 0
M  V30 2441 H 227.941 2.96955 4.07227 0
M  V30 2442 H 227.543 2.91813 2.33925 0
M  V30 2443 H 229.835 4.42677 5.12877 0
M  V30 2444 H 230.778 5.66807 4.24424 0
M  V30 2445 H 231.186 3.93804 4.04448 0
M  V30 2446 N 230.584 -0.659388 1.43143 0
M  V30 2447 C 232 -0.974337 1.26407 0
M  V30 2448 C 232.2 -2.007 0.179341 0
M  V30 2449 O 231.256 -2.4856 -0.444295 0
M  V30 2450 C 232.569 -1.46447 2.62628 0
M  V30 2451 C 234.117 -1.58144 2.7011 0
M  V30 2452 C 234.592 -2.1055 4.06734 0
M  V30 2453 N 236.083 -2.17861 4.08767 0
M  V30 2454 C 236.818 -2.59519 5.1131 0
M  V30 2455 N 236.314 -3.00518 6.24228 0
M  V30 2456 N 238.107 -2.59404 4.98664 0
M  V30 2457 H 230.258 0.0240528 2.12386 0
M  V30 2458 H 232.521 -0.0518065 0.946583 0
M  V30 2459 H 232.227 -0.780123 3.42939 0
M  V30 2460 H 232.101 -2.44058 2.87603 0
M  V30 2461 H 234.488 -2.25682 1.90136 0
M  V30 2462 H 234.569 -0.589828 2.48907 0
M  V30 2463 H 234.213 -1.43616 4.87172 0
M  V30 2464 H 234.143 -3.10531 4.25298 0
M  V30 2465 H 236.634 -1.88975 3.27257 0
M  V30 2466 H 236.947 -3.31036 6.98309 0
M  V30 2467 H 235.292 -2.98337 6.2771 0
M  V30 2468 H 238.483 -2.26747 4.09516 0
M  V30 2469 H 238.656 -2.91548 5.78709 0
M  V30 2470 N 232.062 -1.29571 -0.897171 0
M  V30 2471 C 233.308 -1.17863 -1.65034 0
M  V30 2472 C 233.641 0.268729 -1.92332 0
M  V30 2473 O 232.916 1.19378 -1.53555 0
M  V30 2474 C 233.199 -1.995 -2.99786 0
M  V30 2475 C 233.052 -3.5239 -2.79538 0
M  V30 2476 C 234.371 -1.82335 -4.00552 0
M  V30 2477 H 231.49 -0.429528 -0.598895 0
M  V30 2478 H 234.132 -1.59072 -1.03905 0
M  V30 2479 H 232.282 -1.64485 -3.51962 0
M  V30 2480 H 233.954 -3.97401 -2.34244 0
M  V30 2481 H 232.197 -3.77187 -2.14273 0
M  V30 2482 H 232.868 -4.04787 -3.75302 0
M  V30 2483 H 235.344 -2.12924 -3.57495 0
M  V30 2484 H 234.22 -2.41801 -4.92771 0
M  V30 2485 H 234.481 -0.779209 -4.35179 0
M  V30 2486 N 233.54 1.10788 -1.12088 0
M  V30 2487 C 234.768 1.86461 -0.896651 0
M  V30 2488 C 235.183 1.80492 0.553912 0
M  V30 2489 O 234.54 1.19102 1.38278 0
M  V30 2490 C 234.591 3.35006 -1.35843 0
M  V30 2491 O 234.312 3.40866 -2.75213 0
M  V30 2492 C 235.813 4.27565 -1.1706 0
M  V30 2493 H 233.033 0.589425 -0.320654 0
M  V30 2494 H 235.577 1.40076 -1.48993 0
M  V30 2495 H 233.732 3.7887 -0.808458 0
M  V30 2496 H 234.146 4.33411 -2.9539 0
M  V30 2497 H 235.62 5.30007 -1.54263 0
M  V30 2498 H 236.097 4.3906 -0.110814 0
M  V30 2499 H 236.703 3.89501 -1.70789 0
M  V30 2500 N 235.018 0.912232 1.28515 0
M  V30 2501 C 236.243 0.559774 1.99703 0
M  V30 2502 C 236.668 -0.851393 1.67729 0
M  V30 2503 O 236.026 -1.56875 0.908834 0
M  V30 2504 C 236.074 0.773874 3.52198 0
M  V30 2505 O 235.178 -0.167842 4.12058 0
M  V30 2506 H 234.519 0.21723 0.627461 0
M  V30 2507 H 237.049 1.22725 1.63706 0
M  V30 2508 H 237.059 0.683386 4.02236 0
M  V30 2509 H 235.734 1.80261 3.74805 0
M  V30 2510 H 234.311 -0.0287509 3.72889 0
M  V30 2511 N 236.496 -1.42363 0.676048 0
M  V30 2512 C 237.745 -2.00745 0.196037 0
M  V30 2513 C 238.058 -1.54083 -1.20489 0
M  V30 2514 O 239.264 -2.04891 -1.78134 0
M  V30 2515 C 237.72 -3.58651 0.299616 0
M  V30 2516 C 237.328 -4.143 1.70468 0
M  V30 2517 C 239.072 -4.24326 -0.121619 0
M  V30 2518 C 236.979 -5.64574 1.76096 0
M  V30 2519 H 235.909 -0.750787 0.0695301 0
M  V30 2520 H 238.56 -1.63072 0.841412 0
M  V30 2521 H 236.942 -3.93833 -0.413673 0
M  V30 2522 H 238.116 -3.90575 2.44515 0
M  V30 2523 H 236.431 -3.61081 2.07387 0
M  V30 2524 H 239.028 -5.34607 -0.0997362 0
M  V30 2525 H 239.371 -3.99897 -1.15708 0
M  V30 2526 H 239.904 -3.94108 0.540706 0
M  V30 2527 H 236.643 -5.93804 2.77628 0
M  V30 2528 H 236.163 -5.90286 1.06406 0
M  V30 2529 H 237.842 -6.29013 1.51496 0
M  V30 2530 N 237.974 -0.419461 -1.51915 0
M  V30 2531 C 239.214 0.152336 -2.03832 0
M  V30 2532 C 239.578 1.41501 -1.29775 0
M  V30 2533 O 240.779 2.06591 -1.7197 0
M  V30 2534 C 239.05 0.383812 -3.55333 0
M  V30 2535 S 240.609 0.921577 -4.29013 0
M  V30 2536 H 237.427 0.0402193 -0.709862 0
M  V30 2537 H 240.029 -0.574758 -1.8686 0
M  V30 2538 H 238.733 -0.541794 -4.06808 0
M  V30 2539 H 238.264 1.13849 -3.76566 0
M  V30 2540 H 240.279 2.20108 -4.4471 0
M  V30 2541 N 239.452 1.56882 -0.150215 0
M  V30 2542 C 240.4 2.18214 0.805313 0
M  V30 2543 C 241.394 1.14006 1.25296 0
M  V30 2544 O 242.6 1.3225 1.22107 0
M  V30 2545 H 238.975 0.698762 0.277913 0
M  V30 2546 H 240.946 2.97231 0.263862 0
M  V30 2547 C 239.695 2.82065 2.03309 0
M  V30 2548 H 239.018 3.61968 1.69763 0
M  V30 2549 H 240.458 3.28477 2.68103 0
M  V30 2550 C 238.917 1.80739 2.84315 0
M  V30 2551 O 239.447 1.27983 3.80767 0
M  V30 2552 N 237.653 1.4997 2.48913 0
M  V30 2553 H 237.2 1.93062 1.70542 0
M  V30 2554 H 237.158 0.824217 3.03404 0
M  V30 2555 N 240.93 -0.123565 1.57115 0
M  V30 2556 C 241.86 -1.15309 2.03042 0
M  V30 2557 C 242.841 -1.43454 0.914061 0
M  V30 2558 O 244.026 -1.53973 1.18347 0
M  V30 2559 C 241.156 -2.48043 2.43089 0
M  V30 2560 C 240.11 -2.3437 3.58127 0
M  V30 2561 C 239.436 -3.72026 3.84059 0
M  V30 2562 C 240.736 -1.80804 4.90007 0
M  V30 2563 H 242.43 -0.771102 2.893 0
M  V30 2564 H 239.976 -0.369479 1.39179 0
M  V30 2565 H 241.929 -3.20311 2.73823 0
M  V30 2566 H 240.653 -2.88122 1.53796 0
M  V30 2567 H 239.312 -1.64551 3.27595 0
M  V30 2568 H 238.96 -4.09582 2.91979 0
M  V30 2569 H 238.66 -3.63732 4.6149 0
M  V30 2570 H 240.184 -4.45806 4.1724 0
M  V30 2571 H 241.598 -2.42886 5.19307 0
M  V30 2572 H 239.995 -1.83343 5.71407 0
M  V30 2573 H 241.065 -0.76528 4.78823 0
M  V30 2574 N 242.408 -1.52605 -0.393616 0
M  V30 2575 C 243.685 -1.58001 -1.15304 0
M  V30 2576 C 244.065 -0.370385 -2.07825 0
M  V30 2577 O 243.413 0.641638 -2.19306 0
M  V30 2578 C 243.623 -2.91652 -1.91677 0
M  V30 2579 C 244.971 -3.4522 -2.47201 0
M  V30 2580 O 245.995 -2.93495 -2.01839 0
M  V30 2581 O 244.854 -4.35579 -3.3005 0
M  V30 2582 H 241.948 -0.637068 -0.527327 0
M  V30 2583 H 244.494 -1.64939 -0.399141 0
M  V30 2584 H 243.266 -3.71136 -1.23992 0
M  V30 2585 H 242.889 -2.88077 -2.74039 0
M  V30 2586 N 243.887 0.651787 -1.4349 0
M  V30 2587 C 245.136 1.40754 -1.44469 0
M  V30 2588 C 245.449 1.95463 -0.0731845 0
M  V30 2589 O 246.655 2.71471 0.0395721 0
M  V30 2590 C 245.111 2.54735 -2.5424 0
M  V30 2591 C 244.719 2.06628 -3.97504 0
M  V30 2592 C 246.463 3.32092 -2.64414 0
M  V30 2593 C 244.37 3.17829 -4.98737 0
M  V30 2594 H 243.3 0.528862 -0.53742 0
M  V30 2595 H 245.951 0.703365 -1.69485 0
M  V30 2596 H 244.333 3.2763 -2.22428 0
M  V30 2597 H 245.507 1.40734 -4.38783 0
M  V30 2598 H 243.822 1.42146 -3.91387 0
M  V30 2599 H 246.419 4.14952 -3.37223 0
M  V30 2600 H 246.762 3.80217 -1.69532 0
M  V30 2601 H 247.295 2.66279 -2.95534 0
M  V30 2602 H 244.034 2.74671 -5.95177 0
M  V30 2603 H 243.554 3.82429 -4.62069 0
M  V30 2604 H 245.233 3.82937 -5.21505 0
M  V30 2605 N 245.365 1.30045 0.890287 0
M  V30 2606 C 246.612 1.18561 1.64163 0
M  V30 2607 C 246.94 -0.260852 1.92743 0
M  V30 2608 O 246.195 -1.20376 1.54299 0
M  V30 2609 C 246.494 1.95409 2.99249 0
M  V30 2610 C 246.16 3.45066 2.90242 0
M  V30 2611 C 244.822 3.85878 2.87492 0
M  V30 2612 C 247.174 4.4039 2.78758 0
M  V30 2613 C 244.502 5.20314 2.7109 0
M  V30 2614 C 246.854 5.74928 2.63894 0
M  V30 2615 C 245.518 6.14986 2.59516 0
M  V30 2616 H 244.788 0.433846 0.600715 0
M  V30 2617 H 247.435 1.61088 1.03552 0
M  V30 2618 H 245.74 1.45501 3.63781 0
M  V30 2619 H 247.437 1.8392 3.56334 0
M  V30 2620 H 244.027 3.12631 2.93189 0
M  V30 2621 H 248.211 4.09806 2.79952 0
M  V30 2622 H 243.467 5.50449 2.66112 0
M  V30 2623 H 247.641 6.48434 2.53981 0
M  V30 2624 H 245.268 7.19104 2.46565 0
M  V30 2625 N 246.843 -1.10192 1.12674 0
M  V30 2626 C 248.073 -1.85713 0.905213 0
M  V30 2627 C 248.481 -1.81056 -0.549108 0
M  V30 2628 O 247.824 -1.19927 -1.39151 0
M  V30 2629 C 247.886 -3.34972 1.30516 0
M  V30 2630 C 247.55 -3.63385 2.77129 0
M  V30 2631 C 248.547 -3.59772 3.75313 0
M  V30 2632 C 246.232 -3.91981 3.14096 0
M  V30 2633 C 248.226 -3.84354 5.08479 0
M  V30 2634 C 245.913 -4.16218 4.47443 0
M  V30 2635 C 246.911 -4.12395 5.44444 0
M  V30 2636 O 246.599 -4.36014 6.75387 0
M  V30 2637 H 246.331 -0.593719 0.323223 0
M  V30 2638 H 248.885 -1.40198 1.50112 0
M  V30 2639 H 247.115 -3.81156 0.652463 0
M  V30 2640 H 248.804 -3.91886 1.05736 0
M  V30 2641 H 249.57 -3.37716 3.48099 0
M  V30 2642 H 245.449 -3.94085 2.39202 0
M  V30 2643 H 248.993 -3.81285 5.84181 0
M  V30 2644 H 244.89 -4.37754 4.74386 0
M  V30 2645 H 245.658 -4.53516 6.8137 0
M  V30 2646 N 248.321 -0.919034 -1.28029 0
M  V30 2647 C 249.568 -0.554934 -1.94748 0
M  V30 2648 C 249.896 0.90231 -1.72304 0
M  V30 2649 O 249.151 1.65767 -1.04018 0
M  V30 2650 C 249.45 -0.816855 -3.4794 0
M  V30 2651 C 249.116 -2.25448 -3.90492 0
M  V30 2652 C 247.778 -2.64752 -4.01821 0
M  V30 2653 C 250.13 -3.18977 -4.12193 0
M  V30 2654 C 247.458 -3.96727 -4.32232 0
M  V30 2655 C 249.81 -4.50523 -4.44086 0
M  V30 2656 C 248.474 -4.89673 -4.53626 0
M  V30 2657 H 247.744 -0.203065 -0.712633 0
M  V30 2658 H 250.391 -1.16136 -1.52265 0
M  V30 2659 H 248.696 -0.127677 -3.91592 0
M  V30 2660 H 250.393 -0.514238 -3.97689 0
M  V30 2661 H 246.983 -1.93952 -3.82205 0
M  V30 2662 H 251.167 -2.89817 -4.02889 0
M  V30 2663 H 246.423 -4.26754 -4.37825 0
M  V30 2664 H 250.597 -5.23005 -4.59825 0
M  V30 2665 H 248.224 -5.91969 -4.76946 0
M  V30 2666 N 249.799 1.42003 -0.683588 0
M  V30 2667 C 251.21 1.84501 -0.285736 0
M  V30 2668 C 251.561 1.57213 1.17382 0
M  V30 2669 O 250.686 1.03642 1.89966 0
M  V30 2670 C 251.281 3.34912 -0.511821 0
M  V30 2671 C 249.84 3.76025 -0.168005 0
M  V30 2672 C 248.987 2.6551 -0.799983 0
M  V30 2673 H 251.938 1.31724 -0.885119 0
M  V30 2674 H 251.959 3.79784 0.233292 0
M  V30 2675 H 251.471 3.54741 -1.57418 0
M  V30 2676 H 249.572 3.61801 0.890567 0
M  V30 2677 H 249.685 4.75141 -0.614661 0
M  V30 2678 H 248.049 2.53654 -0.230568 0
M  V30 2679 H 248.832 2.8816 -1.86597 0
M  V30 2680 N 251.277 0.427512 1.51691 0
M  V30 2681 C 252.524 -0.142229 2.02 0
M  V30 2682 C 252.852 -1.43566 1.31221 0
M  V30 2683 O 252.107 -1.91298 0.412744 0
M  V30 2684 C 252.406 -0.418249 3.54944 0
M  V30 2685 C 252.072 0.788187 4.43958 0
M  V30 2686 C 250.734 1.11906 4.68007 0
M  V30 2687 C 253.086 1.59347 4.96244 0
M  V30 2688 C 250.414 2.25608 5.41588 0
M  V30 2689 C 252.766 2.7214 5.71072 0
M  V30 2690 C 251.43 3.05692 5.93387 0
M  V30 2691 H 250.7 -0.0520451 0.73917 0
M  V30 2692 H 253.347 0.572697 1.82736 0
M  V30 2693 H 251.652 -1.21496 3.72486 0
M  V30 2694 H 253.349 -0.872339 3.91397 0
M  V30 2695 H 249.939 0.520344 4.2543 0
M  V30 2696 H 254.123 1.35106 4.77556 0
M  V30 2697 H 249.379 2.51929 5.57083 0
M  V30 2698 H 253.553 3.34914 6.10578 0
M  V30 2699 H 251.18 3.9391 6.50184 0
M  V30 2700 N 252.755 -1.56801 0.158532 0
M  V30 2701 C 254.032 -1.88131 -0.535357 0
M  V30 2702 C 254.412 -1.06638 -1.82186 0
M  V30 2703 O 253.76 -0.156533 -2.27963 0
M  V30 2704 C 253.97 -3.39949 -0.789653 0
M  V30 2705 C 255.318 -4.09416 -1.12533 0
M  V30 2706 O 256.342 -3.45194 -0.878622 0
M  V30 2707 O 255.201 -5.22855 -1.59014 0
M  V30 2708 H 252.295 -0.780143 -0.27442 0
M  V30 2709 H 254.841 -1.68564 0.19601 0
M  V30 2710 H 253.613 -3.91115 0.120353 0
M  V30 2711 H 253.236 -3.65084 -1.57479 0
M  V30 2712 N 254.233 0.115231 -1.57178 0
M  V30 2713 C 255.165 1.16694 -1.97269 0
M  V30 2714 C 256.178 1.37445 -0.872502 0
M  V30 2715 O 257.367 1.36454 -1.15077 0
M  V30 2716 C 254.467 2.52627 -2.25905 0
M  V30 2717 C 253.64 2.52427 -3.57211 0
M  V30 2718 C 252.699 3.70134 -3.74016 0
M  V30 2719 O 251.725 3.53546 -4.46087 0
M  V30 2720 N 252.927 4.88844 -3.13068 0
M  V30 2721 H 255.692 0.82588 -2.88096 0
M  V30 2722 H 253.253 0.304461 -1.59011 0
M  V30 2723 H 255.245 3.29937 -2.34359 0
M  V30 2724 H 253.815 2.789 -1.41186 0
M  V30 2725 H 253.035 1.60805 -3.5991 0
M  V30 2726 H 254.323 2.49353 -4.43509 0
M  V30 2727 H 253.721 5.05225 -2.54489 0
M  V30 2728 H 252.278 5.63817 -3.27037 0
M  V30 2729 N 255.711 1.52812 0.385517 0
M  V30 2730 C 256.643 1.74096 1.49074 0
M  V30 2731 C 257.656 0.621462 1.50472 0
M  V30 2732 O 258.845 0.897245 1.54311 0
M  V30 2733 C 255.945 1.78774 2.87911 0
M  V30 2734 C 255.118 3.08134 3.10439 0
M  V30 2735 C 254.177 3.04313 4.29278 0
M  V30 2736 O 253.203 3.78168 4.25415 0
M  V30 2737 N 254.405 2.23741 5.35649 0
M  V30 2738 H 257.17 2.69455 1.31202 0
M  V30 2739 H 254.731 1.51343 0.575065 0
M  V30 2740 H 256.723 1.73721 3.65518 0
M  V30 2741 H 255.293 0.907869 2.99126 0
M  V30 2742 H 254.513 3.26649 2.20667 0
M  V30 2743 H 255.801 3.93662 3.22347 0
M  V30 2744 H 255.199 1.63211 5.41645 0
M  V30 2745 H 253.756 2.24524 6.11909 0
M  V30 2746 N 257.189 -0.644168 1.43834 0
M  V30 2747 C 258.137 -1.77793 1.49974 0
M  V30 2748 C 259.131 -1.65253 0.372536 0
M  V30 2749 O 260.337 -1.7149 0.546924 0
M  V30 2750 H 256.712 -0.58675 0.47035 0
M  V30 2751 H 258.683 -1.69736 2.45423 0
M  V30 2752 C 257.432 -3.16087 1.4486 0
M  V30 2753 H 256.755 -3.26378 2.30905 0
M  V30 2754 H 258.195 -3.95349 1.53217 0
M  V30 2755 C 256.654 -3.36484 0.167463 0
M  V30 2756 O 257.184 -3.94298 -0.767609 0
M  V30 2757 N 255.39 -2.90504 0.0747556 0
M  V30 2758 H 254.937 -2.4364 0.836507 0
M  V30 2759 H 254.895 -3.04527 -0.781714 0
M  V30 2760 N 258.668 -1.30515 -0.883378 0
M  V30 2761 C 259.908 -1.20716 -1.64946 0
M  V30 2762 C 260.272 0.234072 -1.90568 0
M  V30 2763 O 261.473 0.455335 -2.64915 0
M  V30 2764 C 259.744 -2.01444 -2.9522 0
M  V30 2765 S 261.303 -2.0836 -3.86175 0
M  V30 2766 H 258.121 -0.430165 -0.566109 0
M  V30 2767 H 260.723 -1.65011 -1.04841 0
M  V30 2768 H 259.427 -3.05268 -2.74298 0
M  V30 2769 H 258.958 -1.57817 -3.60357 0
M  V30 2770 H 260.973 -1.21215 -4.81167 0
M  V30 2771 N 260.146 1.09593 -1.13257 0
M  V30 2772 C 261.374 1.855 -0.916378 0
M  V30 2773 C 261.789 1.81069 0.534738 0
M  V30 2774 O 261.146 1.20562 1.37007 0
M  V30 2775 C 261.197 3.33546 -1.39388 0
M  V30 2776 O 260.918 3.37927 -2.78813 0
M  V30 2777 C 262.419 4.26299 -1.21588 0
M  V30 2778 H 259.639 0.585991 -0.326887 0
M  V30 2779 H 262.183 1.38488 -1.5047 0
M  V30 2780 H 260.338 3.77992 -0.848597 0
M  V30 2781 H 260.752 4.30254 -2.9997 0
M  V30 2782 H 262.226 5.28341 -1.59876 0
M  V30 2783 H 262.703 4.38918 -0.157376 0
M  V30 2784 H 263.309 3.87668 -1.7491 0
M  V30 2785 N 261.624 0.925811 1.2754 0
M  V30 2786 C 262.871 0.565255 1.94451 0
M  V30 2787 C 263.199 -0.89316 1.7278 0
M  V30 2788 O 262.454 -1.65213 1.04895 0
M  V30 2789 C 262.753 0.835296 3.47502 0
M  V30 2790 C 262.419 2.27515 3.89291 0
M  V30 2791 C 261.081 2.66879 4.00411 0
M  V30 2792 C 263.433 3.21158 4.10496 0
M  V30 2793 C 260.761 3.99014 4.30122 0
M  V30 2794 C 263.113 4.52871 4.4169 0
M  V30 2795 C 261.777 4.92072 4.51023 0
M  V30 2796 H 261.047 0.206841 0.711546 0
M  V30 2797 H 263.694 1.16942 1.51647 0
M  V30 2798 H 261.999 0.148442 3.91519 0
M  V30 2799 H 263.696 0.535322 3.97411 0
M  V30 2800 H 260.286 1.95976 3.81171 0
M  V30 2801 H 264.47 2.9195 4.01346 0
M  V30 2802 H 259.726 4.2907 4.35556 0
M  V30 2803 H 263.9 5.25436 4.57045 0
M  V30 2804 H 261.527 5.9449 4.738 0
M  V30 2805 N 263.102 -1.41638 0.69111 0
M  V30 2806 C 264.33 -2.05628 0.22909 0
M  V30 2807 C 264.745 -1.51992 -1.11999 0
M  V30 2808 O 264.102 -0.666322 -1.69901 0
M  V30 2809 C 264.153 -3.61084 0.173283 0
M  V30 2810 O 263.874 -4.12735 1.46907 0
M  V30 2811 C 265.375 -4.42213 -0.310266 0
M  V30 2812 H 262.595 -0.662327 0.107534 0
M  V30 2813 H 265.139 -1.81489 0.942438 0
M  V30 2814 H 263.294 -3.84278 -0.490858 0
M  V30 2815 H 263.708 -5.06743 1.35322 0
M  V30 2816 H 265.182 -5.51194 -0.298196 0
M  V30 2817 H 265.659 -4.1799 -1.34838 0
M  V30 2818 H 266.265 -4.24074 0.322716 0
M  V30 2819 N 264.58 -0.43555 -1.51462 0
M  V30 2820 C 265.827 0.131514 -2.02072 0
M  V30 2821 C 266.155 1.42868 -1.31981 0
M  V30 2822 O 265.41 1.91076 -0.422883 0
M  V30 2823 C 265.709 0.39942 -3.55161 0
M  V30 2824 C 265.375 -0.81172 -4.43533 0
M  V30 2825 C 264.037 -1.14387 -4.67407 0
M  V30 2826 C 266.389 -1.61976 -4.95392 0
M  V30 2827 C 263.717 -2.28477 -5.40384 0
M  V30 2828 C 266.069 -2.75164 -5.6962 0
M  V30 2829 C 264.733 -3.08835 -5.91758 0
M  V30 2830 H 264.003 0.0481244 -0.739436 0
M  V30 2831 H 266.65 -0.58238 -1.8243 0
M  V30 2832 H 264.955 1.19519 -3.73125 0
M  V30 2833 H 266.652 0.85157 -3.91854 0
M  V30 2834 H 263.242 -0.542898 -4.25148 0
M  V30 2835 H 267.426 -1.37637 -4.76833 0
M  V30 2836 H 262.682 -2.5488 -5.55739 0
M  V30 2837 H 266.856 -3.38147 -6.08793 0
M  V30 2838 H 264.483 -3.97353 -6.48086 0
M  V30 2839 N 266.058 1.56714 -0.166846 0
M  V30 2840 C 267.283 2.01557 0.488833 0
M  V30 2841 C 267.708 1.0463 1.56314 0
M  V30 2842 O 267.066 0.0251304 1.81283 0
M  V30 2843 C 267.114 3.4503 1.04818 0
M  V30 2844 O 266.218 3.51163 2.16236 0
M  V30 2845 H 265.559 0.653516 0.117526 0
M  V30 2846 H 268.089 2.02818 -0.269421 0
M  V30 2847 H 268.099 3.84243 1.37191 0
M  V30 2848 H 266.774 4.15077 0.261572 0
M  V30 2849 H 265.351 3.23807 1.84942 0
M  V30 2850 N 267.536 -0.106894 1.57237 0
M  V30 2851 C 268.761 -0.830287 1.90055 0
M  V30 2852 C 269.186 -1.72064 0.75998 0
M  V30 2853 O 268.544 -1.78982 -0.288991 0
M  V30 2854 C 268.592 -1.6295 3.21683 0
M  V30 2855 O 267.696 -2.73748 3.08441 0
M  V30 2856 H 267.037 -0.228855 0.623315 0
M  V30 2857 H 269.567 -0.085658 2.04421 0
M  V30 2858 H 269.577 -2.01621 3.54701 0
M  V30 2859 H 268.252 -0.975989 4.04286 0
M  V30 2860 H 266.829 -2.38192 2.86913 0
M  V30 2861 N 269.014 -1.53014 -0.377408 0
M  V30 2862 C 270.261 -1.68623 -1.12128 0
M  V30 2863 C 270.589 -0.431997 -1.89642 0
M  V30 2864 O 269.844 0.585855 -1.86725 0
M  V30 2865 C 270.143 -2.87982 -2.11663 0
M  V30 2866 C 269.809 -4.24964 -1.50719 0
M  V30 2867 C 268.471 -4.62217 -1.33825 0
M  V30 2868 C 270.823 -5.10199 -1.06519 0
M  V30 2869 C 268.151 -5.82352 -0.712963 0
M  V30 2870 C 270.503 -6.30969 -0.453955 0
M  V30 2871 C 269.167 -6.66944 -0.272411 0
M  V30 2872 H 268.437 -0.617034 -0.410305 0
M  V30 2873 H 271.084 -1.8718 -0.404484 0
M  V30 2874 H 269.389 -2.63889 -2.89603 0
M  V30 2875 H 271.086 -2.97253 -2.6915 0
M  V30 2876 H 267.676 -3.95626 -1.64858 0
M  V30 2877 H 271.86 -4.81978 -1.18368 0
M  V30 2878 H 267.116 -6.08824 -0.560611 0
M  V30 2879 H 271.29 -6.96324 -0.103217 0
M  V30 2880 H 268.917 -7.59898 0.214181 0
M  V30 2881 N 270.492 0.636531 -1.44174 0
M  V30 2882 C 271.422 1.76003 -1.53444 0
M  V30 2883 C 272.403 1.65619 -0.387841 0
M  V30 2884 O 273.588 1.84461 -0.607257 0
M  V30 2885 C 270.718 3.14511 -1.4731 0
M  V30 2886 C 269.672 3.39677 -2.60391 0
M  V30 2887 C 268.998 4.78159 -2.39308 0
M  V30 2888 C 270.298 3.32772 -4.02567 0
M  V30 2889 H 271.992 1.68501 -2.47483 0
M  V30 2890 H 269.538 0.809237 -1.19111 0
M  V30 2891 H 271.491 3.92878 -1.52397 0
M  V30 2892 H 270.215 3.22783 -0.49785 0
M  V30 2893 H 268.874 2.63688 -2.54684 0
M  V30 2894 H 268.522 4.83128 -1.39988 0
M  V30 2895 H 268.222 4.95956 -3.15122 0
M  V30 2896 H 269.746 5.58762 -2.46205 0
M  V30 2897 H 271.16 4.01051 -4.09672 0
M  V30 2898 H 269.557 3.62104 -4.7854 0
M  V30 2899 H 270.627 2.30669 -4.2652 0
M  V30 2900 N 271.97 1.30982 0.876444 0
M  V30 2901 C 273.2 1.23063 1.65949 0
M  V30 2902 C 273.608 -0.207537 1.88058 0
M  V30 2903 O 272.951 -1.14781 1.43426 0
M  V30 2904 C 273.013 1.89768 3.05333 0
M  V30 2905 C 272.677 3.39106 3.0636 0
M  V30 2906 C 273.674 4.3496 2.84791 0
M  V30 2907 C 271.359 3.80693 3.27686 0
M  V30 2908 C 273.353 5.70375 2.84519 0
M  V30 2909 C 271.04 5.16223 3.27043 0
M  V30 2910 C 272.038 6.10875 3.05485 0
M  V30 2911 O 271.726 7.43928 3.04674 0
M  V30 2912 H 271.458 0.426685 0.524324 0
M  V30 2913 H 274.012 1.7329 1.10271 0
M  V30 2914 H 272.242 1.34082 3.6271 0
M  V30 2915 H 273.931 1.75853 3.65829 0
M  V30 2916 H 274.697 4.0416 2.68103 0
M  V30 2917 H 270.576 3.07457 3.43499 0
M  V30 2918 H 274.12 6.44228 2.67611 0
M  V30 2919 H 270.017 5.4666 3.43269 0
M  V30 2920 H 270.785 7.53022 3.2078 0
M  V30 2921 N 273.449 -1.08991 1.13837 0
M  V30 2922 C 274.677 -1.85011 0.926202 0
M  V30 2923 C 275.092 -1.8135 -0.525127 0
M  V30 2924 O 274.449 -1.21287 -1.36366 0
M  V30 2925 C 274.5 -3.32802 1.41155 0
M  V30 2926 O 274.221 -3.36444 2.80601 0
M  V30 2927 C 275.722 -4.25649 1.23847 0
M  V30 2928 H 272.942 -0.584249 0.32999 0
M  V30 2929 H 275.486 -1.37688 1.51202 0
M  V30 2930 H 273.641 -3.77536 0.868631 0
M  V30 2931 H 274.055 -4.28657 3.02248 0
M  V30 2932 H 275.529 -5.27485 1.62675 0
M  V30 2933 H 276.006 -4.38828 0.18065 0
M  V30 2934 H 276.612 -3.86735 1.76964 0
M  V30 2935 N 274.927 -0.932562 -1.27047 0
M  V30 2936 C 276.173 -0.576412 -1.94436 0
M  V30 2937 C 276.506 0.880891 -1.73072 0
M  V30 2938 O 275.781 1.62905 -1.06264 0
M  V30 2939 C 276.064 -0.909031 -3.48437 0
M  V30 2940 C 275.917 -2.42044 -3.79123 0
M  V30 2941 C 277.236 -0.418341 -4.38107 0
M  V30 2942 H 274.355 -0.210888 -0.706184 0
M  V30 2943 H 276.997 -1.16522 -1.50075 0
M  V30 2944 H 275.147 -0.407947 -3.86352 0
M  V30 2945 H 276.819 -2.99359 -3.50973 0
M  V30 2946 H 275.062 -2.86758 -3.25503 0
M  V30 2947 H 275.733 -2.6037 -4.86736 0
M  V30 2948 H 278.209 -0.847856 -4.0737 0
M  V30 2949 H 277.085 -0.679981 -5.44672 0
M  V30 2950 H 277.346 0.681642 -4.36814 0
M  V30 2951 N 276.405 1.4127 -0.698611 0
M  V30 2952 C 277.682 1.94955 -0.158762 0
M  V30 2953 C 278.062 1.63781 1.33188 0
M  V30 2954 O 277.41 0.946423 2.07979 0
M  V30 2955 C 277.62 3.46044 -0.453309 0
M  V30 2956 C 278.968 4.22872 -0.382707 0
M  V30 2957 O 279.992 3.54076 -0.388396 0
M  V30 2958 O 278.851 5.45407 -0.345463 0
M  V30 2959 H 275.945 0.82683 -0.0167505 0
M  V30 2960 H 278.491 1.50971 -0.77498 0
M  V30 2961 H 277.263 3.62028 -1.48498 0
M  V30 2962 H 276.886 3.97128 0.19373 0
M  V30 2963 N 277.883 0.443576 1.51229 0
M  V30 2964 C 279.108 -0.121648 2.07043 0
M  V30 2965 C 279.533 -1.35156 1.30823 0
M  V30 2966 O 278.891 -1.7793 0.347934 0
M  V30 2967 C 278.939 -0.41624 3.5819 0
M  V30 2968 O 278.043 -1.50163 3.8409 0
M  V30 2969 H 277.384 0.000871367 0.663999 0
M  V30 2970 H 279.914 0.626706 1.94765 0
M  V30 2971 H 279.924 -0.664867 4.02546 0
M  V30 2972 H 278.599 0.482653 4.1309 0
M  V30 2973 H 277.176 -1.24248 3.51592 0
M  V30 2974 N 279.361 -1.56624 0.175154 0
M  V30 2975 C 280.294 -2.14 -0.792412 0
M  V30 2976 C 281.272 -1.07114 -1.22333 0
M  V30 2977 O 282.456 -1.35112 -1.31442 0
M  V30 2978 C 279.583 -2.68268 -2.0676 0
M  V30 2979 C 278.629 -3.87562 -1.7804 0
M  V30 2980 S 279.462 -5.27074 -0.946222 0
M  V30 2981 C 280.618 -5.8475 -2.23199 0
M  V30 2982 H 280.851 -2.95736 -0.304588 0
M  V30 2983 H 278.384 -1.54349 -0.0395705 0
M  V30 2984 H 280.342 -3.00182 -2.80002 0
M  V30 2985 H 279.003 -1.86612 -2.52656 0
M  V30 2986 H 278.196 -4.23874 -2.72666 0
M  V30 2987 H 277.798 -3.56555 -1.12891 0
M  V30 2988 H 280.09 -5.97898 -3.18629 0
M  V30 2989 H 281.033 -6.81756 -1.91349 0
M  V30 2990 H 281.441 -5.13198 -2.35134 0
M  V30 2991 N 280.839 0.0985539 -1.57292 0
M  V30 2992 C 281.769 1.12064 -2.04851 0
M  V30 2993 C 282.75 1.41981 -0.936767 0
M  V30 2994 O 283.935 1.52071 -1.20781 0
M  V30 2995 C 281.065 2.44144 -2.47004 0
M  V30 2996 C 280.019 2.28643 -3.6181 0
M  V30 2997 C 279.345 3.65869 -3.89929 0
M  V30 2998 C 280.645 1.72986 -4.92822 0
M  V30 2999 H 282.339 0.724979 -2.9049 0
M  V30 3000 H 279.885 0.34729 -1.39749 0
M  V30 3001 H 281.838 3.15914 -2.78884 0
M  V30 3002 H 280.562 2.85639 -1.5836 0
M  V30 3003 H 279.221 1.59318 -3.30172 0
M  V30 3004 H 278.869 4.04885 -2.98458 0
M  V30 3005 H 278.569 3.56344 -4.67218 0
M  V30 3006 H 280.093 4.39112 -4.2428 0
M  V30 3007 H 281.507 2.34593 -5.23105 0
M  V30 3008 H 279.904 1.74229 -5.74251 0
M  V30 3009 H 280.974 0.689007 -4.7998 0
M  V30 3010 N 282.317 1.53212 0.369288 0
M  V30 3011 C 283.247 1.82365 1.45826 0
M  V30 3012 C 284.228 0.676907 1.56051 0
M  V30 3013 O 285.413 0.926401 1.70679 0
M  V30 3014 C 282.543 2.01023 2.83208 0
M  V30 3015 C 281.497 3.1678 2.8781 0
M  V30 3016 C 280.823 3.20724 4.27832 0
M  V30 3017 C 282.123 4.55447 2.55667 0
M  V30 3018 H 283.817 2.73559 1.21678 0
M  V30 3019 H 281.363 1.3163 0.583911 0
M  V30 3020 H 283.316 2.20001 3.59413 0
M  V30 3021 H 282.04 1.06536 3.08736 0
M  V30 3022 H 280.699 2.97616 2.14056 0
M  V30 3023 H 280.347 2.23882 4.50429 0
M  V30 3024 H 280.047 3.98496 4.31827 0
M  V30 3025 H 281.571 3.41881 5.05915 0
M  V30 3026 H 282.985 4.74611 3.21586 0
M  V30 3027 H 281.382 5.35432 2.70984 0
M  V30 3028 H 282.452 4.60812 1.5093 0
M  V30 3029 N 283.795 -0.628877 1.44509 0
M  V30 3030 C 285.043 -1.38565 1.4712 0
M  V30 3031 C 285.364 -1.94712 0.105899 0
M  V30 3032 O 284.634 -1.75912 -0.862079 0
M  V30 3033 H 283.214 -0.514333 0.541729 0
M  V30 3034 H 285.876 -0.740018 1.80305 0
M  V30 3035 H 284.972 -2.21583 2.19789 0
M  V30 3036 N 285.273 -1.31445 -0.869486 0
M  V30 3037 C 286.206 -1.13465 -1.97992 0
M  V30 3038 C 287.184 -0.0380291 -1.62556 0
M  V30 3039 O 288.368 -0.194544 -1.87493 0
M  V30 3040 C 285.495 -0.733822 -3.30655 0
M  V30 3041 C 284.541 -1.83356 -3.85075 0
M  V30 3042 S 285.374 -3.43909 -4.10472 0
M  V30 3043 C 286.53 -3.05763 -5.46132 0
M  V30 3044 H 286.763 -2.07471 -2.1294 0
M  V30 3045 H 284.296 -1.15936 -1.01972 0
M  V30 3046 H 286.254 -0.509306 -4.07328 0
M  V30 3047 H 284.915 0.187123 -3.13542 0
M  V30 3048 H 284.108 -1.50574 -4.80982 0
M  V30 3049 H 283.71 -2.01315 -3.15195 0
M  V30 3050 H 286.002 -2.54686 -6.27807 0
M  V30 3051 H 286.945 -4.00635 -5.83864 0
M  V30 3052 H 287.353 -2.43192 -5.09429 0
M  V30 3053 N 286.751 1.08385 -1.14413 0
M  V30 3054 C 288.028 1.77429 -0.823297 0
M  V30 3055 C 288.408 1.9974 0.683163 0
M  V30 3056 O 287.756 1.60739 1.62405 0
M  V30 3057 C 287.966 3.09004 -1.62227 0
M  V30 3058 C 289.314 3.83532 -1.82177 0
M  V30 3059 O 290.338 3.18786 -1.58915 0
M  V30 3060 O 289.197 4.99792 -2.21067 0
M  V30 3061 H 286.291 0.769999 -0.301712 0
M  V30 3062 H 288.837 1.14846 -1.24934 0
M  V30 3063 H 287.609 2.88316 -2.64555 0
M  V30 3064 H 287.232 3.79316 -1.19187 0
M  V30 3065 N 288.23 0.939286 1.26551 0
M  V30 3066 C 289.177 0.446088 2.26448 0
M  V30 3067 C 290.147 -0.493234 1.58608 0
M  V30 3068 O 291.332 -0.409857 1.86346 0
M  V30 3069 C 288.472 -0.284375 3.43926 0
M  V30 3070 C 287.585 0.690399 4.26448 0
M  V30 3071 C 286.72 -0.0610712 5.31165 0
M  V30 3072 C 285.759 0.905649 6.05363 0
M  V30 3073 N 284.896 0.186055 7.01853 0
M  V30 3074 H 289.736 1.30291 2.68008 0
M  V30 3075 H 287.273 0.65371 1.31776 0
M  V30 3076 H 289.231 -0.724313 4.10864 0
M  V30 3077 H 287.861 -1.10535 3.03285 0
M  V30 3078 H 286.913 1.24885 3.59316 0
M  V30 3079 H 288.225 1.42873 4.779 0
M  V30 3080 H 287.379 -0.56038 6.04106 0
M  V30 3081 H 286.118 -0.832297 4.80546 0
M  V30 3082 H 285.123 1.4161 5.3125 0
M  V30 3083 H 286.348 1.67685 6.58072 0
M  V30 3084 H 284.294 -0.566714 6.53548 0
M  V30 3085 H 284.211 0.863752 7.51049 0
M  V30 3086 H 285.479 -0.292221 7.78952 0
M  V30 3087 N 289.708 -1.40897 0.706093 0
M  V30 3088 C 290.618 -2.3455 0.0482286 0
M  V30 3089 C 291.634 -1.56796 -0.754396 0
M  V30 3090 O 292.81 -1.89228 -0.689538 0
M  V30 3091 C 289.875 -3.35625 -0.869303 0
M  V30 3092 C 288.936 -4.29261 -0.0576994 0
M  V30 3093 C 288.169 -5.25508 -0.931531 0
M  V30 3094 O 288.392 -5.27472 -2.17092 0
M  V30 3095 O 287.326 -6.00727 -0.375587 0
M  V30 3096 H 291.152 -2.92407 0.820476 0
M  V30 3097 H 288.737 -1.4193 0.4665 0
M  V30 3098 H 290.619 -3.97635 -1.39514 0
M  V30 3099 H 289.294 -2.80196 -1.62086 0
M  V30 3100 H 288.201 -3.70566 0.512988 0
M  V30 3101 H 289.534 -4.87817 0.655426 0
M  V30 3102 N 291.186 -0.45159 -1.50991 0
M  V30 3103 C 292.432 0.110237 -2.025 0
M  V30 3104 C 292.765 1.41109 -1.33424 0
M  V30 3105 O 292.04 1.89135 -0.453659 0
M  V30 3106 C 292.323 0.314271 -3.58726 0
M  V30 3107 C 292.176 -1.00623 -4.38401 0
M  V30 3108 C 293.495 1.07767 -4.26702 0
M  V30 3109 H 290.614 0.0385897 -0.735989 0
M  V30 3110 H 293.256 -0.593374 -1.80497 0
M  V30 3111 H 291.406 0.913601 -3.77605 0
M  V30 3112 H 293.078 -1.64064 -4.31139 0
M  V30 3113 H 291.321 -1.6075 -4.02917 0
M  V30 3114 H 291.992 -0.817341 -5.45915 0
M  V30 3115 H 294.468 0.56986 -4.12179 0
M  V30 3116 H 293.344 1.18921 -5.35863 0
M  V30 3117 H 293.605 2.10939 -3.88532 0
M  V30 3118 N 292.664 1.56529 -0.183458 0
M  V30 3119 C 293.91 1.98304 0.452466 0
M  V30 3120 C 294.265 1.06799 1.60037 0
M  V30 3121 O 293.558 0.110049 1.91284 0
M  V30 3122 C 293.752 3.43939 0.971637 0
M  V30 3123 C 293.581 4.49528 -0.124425 0
M  V30 3124 C 292.351 5.01981 -0.578168 0
M  V30 3125 C 294.549 5.05836 -0.929207 0
M  V30 3126 N 292.531 5.91219 -1.65327 0
M  V30 3127 C 293.902 5.91632 -1.85396 0
M  V30 3128 C 295.957 4.88302 -0.972929 0
M  V30 3129 C 294.66 6.61768 -2.81878 0
M  V30 3130 C 296.686 5.59168 -1.92574 0
M  V30 3131 C 296.048 6.44701 -2.83795 0
M  V30 3132 H 292.147 0.770551 0.133324 0
M  V30 3133 H 294.731 1.92581 -0.286473 0
M  V30 3134 H 292.902 3.50184 1.68006 0
M  V30 3135 H 294.634 3.72702 1.5772 0
M  V30 3136 H 291.389 4.73282 -0.173639 0
M  V30 3137 H 291.813 6.40543 -2.19167 0
M  V30 3138 H 296.455 4.21861 -0.28168 0
M  V30 3139 H 294.173 7.27415 -3.51984 0
M  V30 3140 H 297.759 5.47582 -1.96583 0
M  V30 3141 H 296.639 6.98573 -3.56322 0
M  V30 3142 N 294.142 -0.090211 1.57342 0
M  V30 3143 C 295.052 -1.12735 2.05738 0
M  V30 3144 C 296.068 -1.43557 0.983231 0
M  V30 3145 O 297.244 -1.54101 1.29672 0
M  V30 3146 C 294.309 -2.42659 2.47624 0
M  V30 3147 C 293.37 -2.18975 3.69254 0
M  V30 3148 C 292.603 -3.42704 4.09133 0
M  V30 3149 O 292.826 -4.51127 3.49057 0
M  V30 3150 O 291.76 -3.32003 5.02053 0
M  V30 3151 H 295.586 -0.746279 2.94388 0
M  V30 3152 H 293.171 -0.303064 1.46294 0
M  V30 3153 H 295.053 -3.19155 2.7517 0
M  V30 3154 H 293.728 -2.80182 1.62109 0
M  V30 3155 H 292.635 -1.40244 3.46818 0
M  V30 3156 H 293.968 -1.86342 4.55563 0
M  V30 3157 N 295.62 -1.53406 -0.361157 0
M  V30 3158 C 296.869 -1.69022 -1.10066 0
M  V30 3159 C 297.182 -0.450838 -1.90333 0
M  V30 3160 O 298.388 -0.487617 -2.67085 0
M  V30 3161 C 296.844 -2.98812 -2.00598 0
M  V30 3162 C 296.452 -4.30027 -1.25621 0
M  V30 3163 C 298.196 -3.23795 -2.74513 0
M  V30 3164 C 296.103 -5.50903 -2.1508 0
M  V30 3165 H 295.033 -0.629776 -0.414606 0
M  V30 3166 H 297.684 -1.79907 -0.361348 0
M  V30 3167 H 296.066 -2.8174 -2.78278 0
M  V30 3168 H 297.24 -4.57745 -0.529739 0
M  V30 3169 H 295.555 -4.11522 -0.635496 0
M  V30 3170 H 298.152 -4.11289 -3.41681 0
M  V30 3171 H 298.495 -2.40045 -3.40123 0
M  V30 3172 H 299.028 -3.41561 -2.03914 0
M  V30 3173 H 295.767 -6.37143 -1.54041 0
M  V30 3174 H 295.287 -5.27459 -2.85565 0
M  V30 3175 H 296.966 -5.85865 -2.74538 0
M  V30 3176 N 297.098 0.621204 -1.44841 0
M  V30 3177 C 298.326 1.40752 -1.51646 0
M  V30 3178 C 298.741 1.88246 -0.144549 0
M  V30 3179 O 298.098 1.61422 0.851416 0
M  V30 3180 C 298.149 2.62119 -2.4895 0
M  V30 3181 O 297.87 2.16602 -3.80808 0
M  V30 3182 C 299.371 3.55135 -2.65319 0
M  V30 3183 H 296.591 0.431325 -0.514004 0
M  V30 3184 H 299.135 0.758835 -1.899 0
M  V30 3185 H 297.29 3.23058 -2.13805 0
M  V30 3186 H 297.704 2.95358 -4.33433 0
M  V30 3187 H 299.178 4.36874 -3.37409 0
M  V30 3188 H 299.655 4.04592 -1.70886 0
M  V30 3189 H 300.261 3.00058 -3.01405 0
M  V30 3190 N 298.576 1.31904 0.862503 0
M  V30 3191 C 299.853 1.12644 1.59908 0
M  V30 3192 C 300.233 -0.316104 2.0872 0
M  V30 3193 O 299.581 -1.31145 1.87118 0
M  V30 3194 C 299.791 2.1472 2.7513 0
M  V30 3195 C 301.139 2.47637 3.44907 0
M  V30 3196 O 302.163 2.13205 2.85346 0
M  V30 3197 O 301.022 3.06632 4.52371 0
M  V30 3198 H 298.116 0.43416 0.703871 0
M  V30 3199 H 300.662 1.43408 0.907314 0
M  V30 3200 H 299.434 3.1172 2.3653 0
M  V30 3201 H 299.057 1.84905 3.51989 0
M  V30 3202 N 300.054 -1.07777 1.14986 0
M  V30 3203 C 301.282 -1.84018 0.945773 0
M  V30 3204 C 301.697 -1.81897 -0.505863 0
M  V30 3205 O 301.054 -1.22726 -1.35072 0
M  V30 3206 C 301.105 -3.31287 1.44677 0
M  V30 3207 O 300.826 -3.33449 2.84154 0
M  V30 3208 C 302.327 -4.24311 1.28355 0
M  V30 3209 H 299.547 -0.580716 0.336169 0
M  V30 3210 H 302.091 -1.36077 1.52654 0
M  V30 3211 H 300.246 -3.76594 0.908625 0
M  V30 3212 H 300.66 -4.25427 3.06777 0
M  V30 3213 H 302.134 -5.2573 1.68261 0
M  V30 3214 H 302.611 -4.38612 0.227184 0
M  V30 3215 H 303.217 -3.84836 1.81056 0
M  V30 3216 N 301.532 -0.945985 -1.26051 0
M  V30 3217 C 302.757 -0.612525 -1.98149 0
M  V30 3218 C 303.182 0.806623 -1.69927 0
M  V30 3219 O 302.54 1.54411 -0.950108 0
M  V30 3220 C 302.588 -0.866981 -3.50023 0
M  V30 3221 O 301.692 0.0585333 -4.12358 0
M  V30 3222 H 301.033 -0.23379 -0.621481 0
M  V30 3223 H 303.563 -1.27023 -1.60395 0
M  V30 3224 H 303.573 -0.789792 -4.00283 0
M  V30 3225 H 302.248 -1.90135 -3.69894 0
M  V30 3226 H 300.825 -0.0701241 -3.72834 0
M  V30 3227 N 303.011 1.40521 -0.713556 0
M  V30 3228 C 304.427 1.54839 -0.386907 0
M  V30 3229 C 304.627 1.68532 1.1045 0
M  V30 3230 O 303.683 1.67377 1.89053 0
M  V30 3231 C 304.996 2.77792 -1.15118 0
M  V30 3232 C 306.544 2.91607 -1.13729 0
M  V30 3233 C 307.019 4.1747 -1.88368 0
M  V30 3234 N 308.51 4.24466 -1.85427 0
M  V30 3235 C 309.245 5.20755 -2.40004 0
M  V30 3236 N 308.741 6.22965 -3.03129 0
M  V30 3237 N 310.534 5.1282 -2.30158 0
M  V30 3238 H 302.685 1.29879 -1.68063 0
M  V30 3239 H 304.948 0.627896 -0.710247 0
M  V30 3240 H 304.654 2.73944 -2.20561 0
M  V30 3241 H 304.528 3.6984 -0.741477 0
M  V30 3242 H 306.915 2.94959 -0.0910608 0
M  V30 3243 H 306.996 2.00682 -1.5862 0
M  V30 3244 H 306.64 4.1488 -2.9298 0
M  V30 3245 H 306.57 5.074 -1.40898 0
M  V30 3246 H 309.061 3.51241 -1.3942 0
M  V30 3247 H 309.374 6.92859 -3.42295 0
M  V30 3248 H 307.719 6.23415 -3.07212 0
M  V30 3249 H 310.91 4.31899 -1.80501 0
M  V30 3250 H 311.083 5.87689 -2.72993 0
M  V30 3251 N 304.489 0.459591 1.5075 0
M  V30 3252 C 305.436 -0.340524 2.28274 0
M  V30 3253 C 306.406 -0.997371 1.32822 0
M  V30 3254 O 307.591 -1.01202 1.61749 0
M  V30 3255 C 304.731 -1.42317 3.14388 0
M  V30 3256 C 303.844 -0.782251 4.24859 0
M  V30 3257 C 302.979 -1.84182 4.98247 0
M  V30 3258 C 302.018 -1.18053 6.00608 0
M  V30 3259 N 301.155 -2.18244 6.67319 0
M  V30 3260 H 305.995 0.326899 2.96202 0
M  V30 3261 H 303.532 0.173057 1.46078 0
M  V30 3262 H 305.49 -2.06241 3.62658 0
M  V30 3263 H 304.12 -2.05992 2.4853 0
M  V30 3264 H 303.172 -0.0307404 3.80388 0
M  V30 3265 H 304.484 -0.259663 4.98124 0
M  V30 3266 H 303.638 -2.55714 5.50177 0
M  V30 3267 H 302.377 -2.39819 4.24662 0
M  V30 3268 H 301.382 -0.450776 5.47949 0
M  V30 3269 H 302.607 -0.631202 6.7616 0
M  V30 3270 H 300.553 -2.72919 5.96533 0
M  V30 3271 H 300.47 -1.70938 7.36421 0
M  V30 3272 H 301.738 -2.89191 7.23871 0
M  V30 3273 N 305.967 -1.56429 0.191757 0
M  V30 3274 C 307.213 -1.97777 -0.448554 0
M  V30 3275 C 307.546 -1.07847 -1.61501 0
M  V30 3276 O 306.821 -0.129774 -1.94067 0
M  V30 3277 C 307.104 -3.48362 -0.911906 0
M  V30 3278 C 306.957 -4.4907 0.256136 0
M  V30 3279 C 308.276 -4.02561 -1.77857 0
M  V30 3280 H 305.395 -0.719071 -0.161572 0
M  V30 3281 H 308.037 -1.87896 0.282007 0
M  V30 3282 H 306.187 -3.56914 -1.53442 0
M  V30 3283 H 307.859 -4.5256 0.893733 0
M  V30 3284 H 306.102 -4.24181 0.908436 0
M  V30 3285 H 306.773 -5.51889 -0.11053 0
M  V30 3286 H 309.249 -3.96767 -1.25359 0
M  V30 3287 H 308.125 -5.08301 -2.07174 0
M  V30 3288 H 308.386 -3.47616 -2.73158 0
M  V30 3289 N 307.445 0.0818655 -1.57387 0
M  V30 3290 C 308.694 0.781681 -1.85937 0
M  V30 3291 C 309.007 1.79246 -0.782957 0
M  V30 3292 O 310.213 2.54112 -0.955987 0
M  V30 3293 C 308.669 1.44109 -3.29789 0
M  V30 3294 C 308.277 0.469396 -4.45534 0
M  V30 3295 C 310.021 2.12386 -3.67549 0
M  V30 3296 C 307.928 1.13415 -5.80423 0
M  V30 3297 H 306.858 0.295682 -0.693605 0
M  V30 3298 H 309.509 0.0348051 -1.83467 0
M  V30 3299 H 307.891 2.23588 -3.2684 0
M  V30 3300 H 309.065 -0.294856 -4.59856 0
M  V30 3301 H 307.38 -0.108383 -4.16259 0
M  V30 3302 H 309.977 2.62878 -4.65617 0
M  V30 3303 H 310.32 2.91877 -2.96839 0
M  V30 3304 H 310.853 1.39751 -3.72444 0
M  V30 3305 H 307.592 0.379771 -6.54399 0
M  V30 3306 H 307.112 1.8695 -5.69921 0
M  V30 3307 H 308.791 1.65686 -6.25426 0
M  V30 3308 N 308.923 1.53595 0.353017 0
M  V30 3309 C 309.855 1.77219 1.45348 0
M  V30 3310 C 310.868 0.65324 1.49119 0
M  V30 3311 O 312.057 0.929775 1.52373 0
M  V30 3312 C 309.157 1.84841 2.84055 0
M  V30 3313 C 308.33 3.14649 3.03833 0
M  V30 3314 C 307.389 3.13351 4.22727 0
M  V30 3315 O 306.415 3.87107 4.17297 0
M  V30 3316 N 307.617 2.35052 5.30783 0
M  V30 3317 H 310.382 2.72178 1.25457 0
M  V30 3318 H 307.943 1.52528 0.542833 0
M  V30 3319 H 309.935 1.81435 3.61751 0
M  V30 3320 H 308.505 0.971114 2.97133 0
M  V30 3321 H 307.725 3.31256 2.13689 0
M  V30 3322 H 309.013 4.00411 3.13925 0
M  V30 3323 H 308.411 1.74663 5.38061 0
M  V30 3324 H 306.968 2.37453 6.07009 0
M  V30 3325 N 310.401 -0.613514 1.45168 0
M  V30 3326 C 311.629 -1.39946 1.5239 0
M  V30 3327 C 312.044 -1.88167 0.154531 0
M  V30 3328 O 311.401 -1.61872 -0.842843 0
M  V30 3329 C 311.452 -2.60795 2.50337 0
M  V30 3330 O 311.173 -2.1458 3.81952 0
M  V30 3331 C 312.674 -3.53723 2.67198 0
M  V30 3332 H 309.894 -0.428593 0.516284 0
M  V30 3333 H 312.438 -0.748753 1.903 0
M  V30 3334 H 310.593 -3.21919 2.15515 0
M  V30 3335 H 311.007 -2.93055 4.34993 0
M  V30 3336 H 312.481 -4.35079 3.39721 0
M  V30 3337 H 312.958 -4.0368 1.73029 0
M  V30 3338 H 313.564 -2.98456 3.02992 0
M  V30 3339 N 311.879 -1.3236 -0.855495 0
M  V30 3340 C 312.811 -1.17052 -1.97057 0
M  V30 3341 C 313.824 -0.10574 -1.62456 0
M  V30 3342 O 315.013 -0.354619 -1.74942 0
M  V30 3343 C 312.113 -0.769305 -3.30053 0
M  V30 3344 C 311.286 -1.9222 -3.929 0
M  V30 3345 C 310.345 -1.50466 -5.04228 0
M  V30 3346 O 309.371 -2.21655 -5.24269 0
M  V30 3347 N 310.573 -0.400209 -5.79119 0
M  V30 3348 H 313.338 -2.13103 -2.1073 0
M  V30 3349 H 310.899 -1.24885 -1.0303 0
M  V30 3350 H 312.891 -0.472407 -4.01933 0
M  V30 3351 H 311.461 0.100025 -3.1244 0
M  V30 3352 H 310.681 -2.38563 -3.13817 0
M  V30 3353 H 311.969 -2.69403 -4.31624 0
M  V30 3354 H 311.367 0.192319 -5.65373 0
M  V30 3355 H 309.924 -0.162912 -6.51596 0
M  V30 3356 N 313.357 1.07166 -1.15556 0
M  V30 3357 C 314.605 1.79443 -0.929764 0
M  V30 3358 C 314.926 1.87246 0.544414 0
M  V30 3359 O 314.196 1.37473 1.39564 0
M  V30 3360 H 312.776 0.664625 -0.341003 0
M  V30 3361 H 315.438 1.29499 -1.45657 0
M  V30 3362 H 314.534 2.81832 -1.34079 0
M  V30 3363 N 314.835 0.952656 1.25548 0
M  V30 3364 C 315.745 0.47782 2.29682 0
M  V30 3365 C 316.761 -0.453859 1.67977 0
M  V30 3366 O 317.937 -0.330587 1.98668 0
M  V30 3367 C 315.002 -0.238655 3.45878 0
M  V30 3368 C 314.063 0.730994 4.23031 0
M  V30 3369 C 313.296 0.0486165 5.33678 0
M  V30 3370 O 313.519 -1.16612 5.58353 0
M  V30 3371 O 312.453 0.733152 5.97418 0
M  V30 3372 H 316.279 1.34312 2.72386 0
M  V30 3373 H 313.864 0.719026 1.30959 0
M  V30 3374 H 315.746 -0.641774 4.16484 0
M  V30 3375 H 314.421 -1.07916 3.05181 0
M  V30 3376 H 313.328 1.18428 3.5486 0
M  V30 3377 H 314.661 1.53946 4.67506 0
M  V30 3378 N 316.313 -1.40141 0.720998 0
M  V30 3379 C 317.559 -2.01572 0.272075 0
M  V30 3380 C 317.914 -1.5616 -1.12391 0
M  V30 3381 O 317.207 -0.774198 -1.75262 0
M  V30 3382 C 317.401 -3.56165 0.296892 0
M  V30 3383 C 317.23 -4.16584 1.69375 0
M  V30 3384 C 316 -4.49783 2.30269 0
M  V30 3385 C 318.198 -4.41076 2.64493 0
M  V30 3386 N 316.18 -4.95626 3.62254 0
M  V30 3387 C 317.551 -4.88971 3.81192 0
M  V30 3388 C 319.606 -4.23122 2.62435 0
M  V30 3389 C 318.309 -5.20796 4.96149 0
M  V30 3390 C 320.335 -4.56052 3.76524 0
M  V30 3391 C 319.697 -5.04141 4.91956 0
M  V30 3392 H 315.796 -0.768343 0.145511 0
M  V30 3393 H 318.38 -1.70287 0.943959 0
M  V30 3394 H 316.551 -3.86868 -0.344578 0
M  V30 3395 H 318.283 -4.04346 -0.169254 0
M  V30 3396 H 315.038 -4.37101 1.82318 0
M  V30 3397 H 315.462 -5.22923 4.29977 0
M  V30 3398 H 320.104 -3.85158 1.74393 0
M  V30 3399 H 317.822 -5.57672 5.84831 0
M  V30 3400 H 321.408 -4.43796 3.76213 0
M  V30 3401 H 320.288 -5.29142 5.78774 0
M  V30 3402 N 317.792 -0.46758 -1.50504 0
M  V30 3403 C 318.702 0.33382 -2.32213 0
M  V30 3404 C 319.718 0.999323 -1.42441 0
M  V30 3405 O 320.894 0.988068 -1.75497 0
M  V30 3406 C 317.959 1.4035 -3.17022 0
M  V30 3407 C 317.02 0.754961 -4.2261 0
M  V30 3408 C 316.253 1.77367 -5.03365 0
M  V30 3409 O 316.476 2.99976 -4.8515 0
M  V30 3410 O 315.41 1.34744 -5.86624 0
M  V30 3411 H 319.236 -0.334067 -3.01857 0
M  V30 3412 H 316.821 -0.229496 -1.47627 0
M  V30 3413 H 318.703 2.02318 -3.69656 0
M  V30 3414 H 317.378 2.05492 -2.5011 0
M  V30 3415 H 316.285 0.0964244 -3.73976 0
M  V30 3416 H 317.618 0.146545 -4.91982 0
M  V30 3417 N 319.27 1.56325 -0.20005 0
M  V30 3418 C 320.2 2.22318 0.713916 0
M  V30 3419 C 321.181 1.18788 1.21752 0
M  V30 3420 O 322.366 1.47309 1.26545 0
M  V30 3421 C 319.496 2.88639 1.93144 0
M  V30 3422 C 318.45 3.98457 1.56255 0
M  V30 3423 C 317.776 4.51967 2.85709 0
M  V30 3424 C 319.076 5.16612 0.768747 0
M  V30 3425 H 320.77 2.98952 0.163755 0
M  V30 3426 H 318.316 1.43792 0.0773219 0
M  V30 3427 H 320.269 3.33491 2.57608 0
M  V30 3428 H 318.993 2.09419 2.50621 0
M  V30 3429 H 317.652 3.54305 0.941471 0
M  V30 3430 H 317.3 3.69503 3.41287 0
M  V30 3431 H 317 5.26071 2.6177 0
M  V30 3432 H 318.524 4.99523 3.51154 0
M  V30 3433 H 319.938 5.57977 1.3166 0
M  V30 3434 H 318.335 5.96812 0.627286 0
M  V30 3435 H 319.405 4.84358 -0.229168 0
M  V30 3436 N 320.748 -0.0735177 1.57428 0
M  V30 3437 C 321.678 -1.0879 2.06608 0
M  V30 3438 C 322.659 -1.40473 0.959237 0
M  V30 3439 O 323.844 -1.5013 1.23185 0
M  V30 3440 C 320.974 -2.40183 2.50857 0
M  V30 3441 C 319.928 -2.22858 3.65402 0
M  V30 3442 C 319.254 -3.59619 3.957 0
M  V30 3443 C 320.554 -1.65123 4.95511 0
M  V30 3444 H 322.248 -0.678673 2.91607 0
M  V30 3445 H 319.794 -0.325013 1.40284 0
M  V30 3446 H 321.747 -3.11437 2.83874 0
M  V30 3447 H 320.471 -2.83083 1.62885 0
M  V30 3448 H 319.13 -1.54045 3.32664 0
M  V30 3449 H 318.778 -4.00086 3.04861 0
M  V30 3450 H 318.478 -3.48866 4.72828 0
M  V30 3451 H 320.002 -4.32306 4.31212 0
M  V30 3452 H 321.416 -2.26241 5.26771 0
M  V30 3453 H 319.813 -1.65071 5.7695 0
M  V30 3454 H 320.883 -0.612559 4.81015 0
M  V30 3455 N 322.226 -1.5378 -0.344866 0
M  V30 3456 C 323.474 -1.70625 -1.08311 0
M  V30 3457 C 323.795 -0.471447 -1.89215 0
M  V30 3458 O 323.065 0.514616 -1.8902 0
M  V30 3459 H 321.645 -0.629058 -0.402859 0
M  V30 3460 H 324.307 -1.9103 -0.386459 0
M  V30 3461 H 323.403 -2.57656 -1.76124 0
M  V30 3462 N 323.704 0.605807 -1.45491 0
M  V30 3463 C 324.953 1.36086 -1.48874 0
M  V30 3464 C 325.266 1.95131 -0.135333 0
M  V30 3465 O 326.472 2.7146 -0.0468144 0
M  V30 3466 C 324.928 2.46518 -2.62215 0
M  V30 3467 C 324.536 1.93877 -4.03876 0
M  V30 3468 C 326.28 3.23512 -2.74846 0
M  V30 3469 C 324.187 3.01801 -5.08596 0
M  V30 3470 H 323.117 0.511497 -0.553974 0
M  V30 3471 H 325.768 0.649089 -1.71636 0
M  V30 3472 H 324.15 3.20388 -2.32739 0
M  V30 3473 H 325.324 1.26704 -4.43038 0
M  V30 3474 H 323.639 1.29622 -3.95711 0
M  V30 3475 H 326.236 4.04013 -3.50253 0
M  V30 3476 H 326.579 3.74631 -1.81542 0
M  V30 3477 H 327.112 2.56742 -3.03856 0
M  V30 3478 H 323.851 2.55597 -6.03614 0
M  V30 3479 H 323.371 3.67535 -4.74002 0
M  V30 3480 H 325.05 3.66152 -5.33424 0
M  V30 3481 N 325.182 1.32811 0.848464 0
M  V30 3482 C 326.13 1.22231 1.97895 0
M  V30 3483 C 327.124 0.125749 1.68933 0
M  V30 3484 O 328.33 0.289083 1.77663 0
M  V30 3485 H 324.705 0.379058 0.649476 0
M  V30 3486 H 326.676 2.17828 2.03945 0
M  V30 3487 C 325.425 0.968572 3.33937 0
M  V30 3488 H 324.748 1.80458 3.56756 0
M  V30 3489 H 326.188 0.934808 4.13567 0
M  V30 3490 C 324.647 -0.328628 3.35293 0
M  V30 3491 O 325.177 -1.33848 3.78745 0
M  V30 3492 N 323.383 -0.352788 2.88451 0
M  V30 3493 H 322.93 0.469541 2.53285 0
M  V30 3494 H 322.888 -1.22057 2.89741 0
M  V30 3495 N 326.66 -1.06551 1.16123 0
M  V30 3496 C 327.607 -2.13961 0.865414 0
M  V30 3497 C 328.577 -1.65066 -0.185055 0
M  V30 3498 O 329.762 -1.90732 -0.05083 0
M  V30 3499 C 326.902 -3.43113 0.369776 0
M  V30 3500 C 326.015 -4.05756 1.48276 0
M  V30 3501 C 325.15 -5.22773 0.942414 0
M  V30 3502 C 324.189 -5.77395 2.03179 0
M  V30 3503 N 323.326 -6.85731 1.50721 0
M  V30 3504 H 328.166 -2.38605 1.78527 0
M  V30 3505 H 325.703 -1.17072 0.890646 0
M  V30 3506 H 327.661 -4.17151 0.0640643 0
M  V30 3507 H 326.291 -3.18695 -0.513143 0
M  V30 3508 H 325.343 -3.29292 1.9045 0
M  V30 3509 H 326.655 -4.42351 2.30493 0
M  V30 3510 H 325.809 -6.03827 0.589729 0
M  V30 3511 H 324.548 -4.87618 0.0895191 0
M  V30 3512 H 323.553 -4.94981 2.3932 0
M  V30 3513 H 324.778 -6.14603 2.8886 0
M  V30 3514 H 322.724 -6.52499 0.676811 0
M  V30 3515 H 322.641 -7.21254 2.26557 0
M  V30 3516 H 323.909 -7.7047 1.18303 0
M  V30 3517 N 328.138 -0.959301 -1.25041 0
M  V30 3518 C 329.101 -0.487677 -2.23952 0
M  V30 3519 C 330.101 0.41119 -1.55454 0
M  V30 3520 O 331.291 0.207825 -1.72956 0
M  V30 3521 C 328.423 0.294807 -3.39623 0
M  V30 3522 H 329.616 -1.36198 -2.67189 0
M  V30 3523 H 327.169 -0.743042 -1.37508 0
M  V30 3524 H 327.904 1.18658 -3.01813 0
M  V30 3525 H 327.689 -0.35012 -3.90534 0
M  V30 3526 H 329.179 0.614089 -4.1306 0
M  V30 3527 N 329.616 1.39756 -0.72842 0
M  V30 3528 C 330.844 2.04948 -0.283528 0
M  V30 3529 C 331.259 1.54908 1.0793 0
M  V30 3530 O 330.616 0.711135 1.68075 0
M  V30 3531 C 330.667 3.60498 -0.268957 0
M  V30 3532 O 330.388 4.08695 -1.57798 0
M  V30 3533 C 331.889 4.4288 0.192912 0
M  V30 3534 H 329.109 0.659243 -0.125056 0
M  V30 3535 H 331.653 1.78927 -0.990226 0
M  V30 3536 H 329.808 3.85444 0.388801 0
M  V30 3537 H 330.222 5.02977 -1.48709 0
M  V30 3538 H 331.696 5.51791 0.151952 0
M  V30 3539 H 332.173 4.21418 1.23708 0
M  V30 3540 H 332.779 4.23069 -0.435039 0
M  V30 3541 N 331.094 0.475555 1.50254 0
M  V30 3542 C 332.505 0.0215174 1.86688 0
M  V30 3543 C 332.856 -1.38467 1.39001 0
M  V30 3544 O 331.981 -2.02732 0.756894 0
M  V30 3545 C 332.576 0.0322715 3.38785 0
M  V30 3546 C 331.135 -0.366314 3.74613 0
M  V30 3547 C 330.282 0.415832 2.74164 0
M  V30 3548 H 333.233 0.689612 1.42934 0
M  V30 3549 H 333.254 -0.76889 3.7265 0
M  V30 3550 H 332.766 1.05584 3.73462 0
M  V30 3551 H 330.867 -1.39406 3.45538 0
M  V30 3552 H 330.98 -0.064555 4.79057 0
M  V30 3553 H 329.344 -0.131048 2.54363 0
M  V30 3554 H 330.127 1.43899 3.11686 0
M  V30 3555 N 332.573 -1.56217 0.208337 0
M  V30 3556 C 333.52 -2.19699 -0.707192 0
M  V30 3557 C 334.49 -1.14836 -1.20008 0
M  V30 3558 O 335.675 -1.4314 -1.26157 0
M  V30 3559 C 332.815 -2.87061 -1.91546 0
M  V30 3560 C 331.928 -4.06483 -1.46271 0
M  V30 3561 C 331.063 -4.61665 -2.62752 0
M  V30 3562 C 330.102 -5.73417 -2.14147 0
M  V30 3563 N 329.239 -6.22948 -3.23853 0
M  V30 3564 H 334.079 -2.97575 -0.159111 0
M  V30 3565 H 331.616 -1.46948 -0.0667874 0
M  V30 3566 H 333.574 -3.24294 -2.62468 0
M  V30 3567 H 332.204 -2.11725 -2.43664 0
M  V30 3568 H 331.256 -3.74825 -0.648886 0
M  V30 3569 H 332.568 -4.87271 -1.06622 0
M  V30 3570 H 331.722 -5.01272 -3.41776 0
M  V30 3571 H 330.461 -3.80013 -3.05682 0
M  V30 3572 H 329.466 -5.33326 -1.33581 0
M  V30 3573 H 330.691 -6.56897 -1.72232 0
M  V30 3574 H 328.637 -5.44213 -3.6629 0
M  V30 3575 H 328.554 -6.98823 -2.88414 0
M  V30 3576 H 329.822 -6.6721 -4.03052 0
M  V30 3577 N 334.051 0.0651679 -1.57465 0
M  V30 3578 C 334.984 1.10876 -1.99453 0
M  V30 3579 C 335.962 1.37205 -0.872555 0
M  V30 3580 O 337.146 1.50468 -1.13542 0
M  V30 3581 C 334.273 2.45167 -2.3369 0
M  V30 3582 C 333.319 2.3493 -3.55964 0
M  V30 3583 S 334.152 1.73708 -5.06543 0
M  V30 3584 C 335.308 3.09563 -5.43987 0
M  V30 3585 H 335.541 0.750967 -2.87659 0
M  V30 3586 H 333.074 0.273933 -1.51951 0
M  V30 3587 H 335.032 3.22412 -2.54088 0
M  V30 3588 H 333.693 2.78105 -1.46001 0
M  V30 3589 H 332.886 3.3398 -3.77457 0
M  V30 3590 H 332.488 1.65823 -3.3523 0
M  V30 3591 H 334.78 4.05882 -5.42463 0
M  V30 3592 H 335.723 2.92843 -6.44708 0
M  V30 3593 H 336.131 3.10474 -4.71451 0
M  V30 3594 N 335.529 1.53961 0.336706 0
M  V30 3595 C 336.754 1.75797 1.10046 0
M  V30 3596 C 337.179 0.498985 1.81361 0
M  V30 3597 O 336.537 -0.548769 1.72795 0
M  V30 3598 C 336.585 2.94257 2.08436 0
M  V30 3599 O 335.689 2.64883 3.16087 0
M  V30 3600 H 335.03 0.582936 0.317934 0
M  V30 3601 H 337.56 2.00945 0.38501 0
M  V30 3602 H 337.57 3.21237 2.51537 0
M  V30 3603 H 336.245 3.85564 1.55927 0
M  V30 3604 H 334.822 2.48812 2.77753 0
M  V30 3605 N 337.007 -0.598083 1.45811 0
M  V30 3606 C 337.94 -1.7223 1.49706 0
M  V30 3607 C 338.918 -1.58732 0.352535 0
M  V30 3608 O 340.102 -1.80162 0.554438 0
M  V30 3609 C 337.229 -3.10148 1.3611 0
M  V30 3610 C 336.275 -3.42209 2.54549 0
M  V30 3611 S 337.108 -3.35989 4.16979 0
M  V30 3612 C 338.264 -4.76471 4.05865 0
M  V30 3613 H 338.497 -1.68665 2.44826 0
M  V30 3614 H 336.03 -0.775541 1.33509 0
M  V30 3615 H 337.988 -3.8972 1.28953 0
M  V30 3616 H 336.649 -3.11219 0.424451 0
M  V30 3617 H 335.842 -4.42652 2.40988 0
M  V30 3618 H 335.444 -2.70173 2.58617 0
M  V30 3619 H 337.736 -5.665 3.71596 0
M  V30 3620 H 338.679 -4.95089 5.06253 0
M  V30 3621 H 339.087 -4.52599 3.37364 0
M  V30 3622 N 338.485 -1.33259 -0.841409 0
M  V30 3623 C 339.733 -1.24326 -1.59334 0
M  V30 3624 C 340.054 0.191564 -1.94057 0
M  V30 3625 O 339.324 1.11967 -1.60749 0
M  V30 3626 H 337.904 -0.457174 -0.590763 0
M  V30 3627 H 340.566 -1.66947 -1.00571 0
M  V30 3628 H 339.662 -1.8352 -2.52442 0
M  V30 3629 N 339.963 1.05934 -1.16686 0
M  V30 3630 C 340.911 2.15603 -0.872817 0
M  V30 3631 C 341.905 1.68647 0.159576 0
M  V30 3632 O 343.111 1.79995 0.0132125 0
M  V30 3633 H 339.486 0.703885 -0.264671 0
M  V30 3634 H 341.457 2.37613 -1.80507 0
M  V30 3635 C 340.206 3.45457 -0.394344 0
M  V30 3636 H 339.529 3.81984 -1.18019 0
M  V30 3637 H 340.969 4.2339 -0.227408 0
M  V30 3638 C 339.428 3.25021 0.88673 0
M  V30 3639 O 339.958 3.50906 1.95519 0
M  V30 3640 N 338.164 2.78437 0.831925 0
M  V30 3641 H 337.711 2.57572 -0.0377619 0
M  V30 3642 H 337.669 2.65144 1.68956 0
M  V30 3643 N 341.441 0.965919 1.2453 0
M  V30 3644 C 342.389 0.486506 2.27455 0
M  V30 3645 C 343.383 -0.449041 1.6334 0
M  V30 3646 O 344.589 -0.324527 1.7705 0
M  V30 3647 H 340.964 0.138857 0.739069 0
M  V30 3648 H 342.935 1.3666 2.65267 0
M  V30 3649 C 341.684 -0.209481 3.47068 0
M  V30 3650 H 341.007 0.50129 3.96645 0
M  V30 3651 H 342.447 -0.508775 4.20936 0
M  V30 3652 C 340.906 -1.43586 3.0477 0
M  V30 3653 O 341.436 -2.53299 3.11773 0
M  V30 3654 N 339.642 -1.30126 2.59838 0
M  V30 3655 H 339.189 -0.408583 2.54339 0
M  V30 3656 H 339.147 -2.12294 2.31902 0
M  V30 3657 N 342.919 -1.39368 0.735821 0
M  V30 3658 C 343.849 -2.33234 0.111506 0
M  V30 3659 C 344.83 -1.53954 -0.723334 0
M  V30 3660 O 346.015 -1.82344 -0.668147 0
M  V30 3661 C 343.145 -3.38057 -0.795917 0
M  V30 3662 C 342.099 -4.2795 -0.065172 0
M  V30 3663 C 341.425 -5.23479 -1.08967 0
M  V30 3664 C 342.725 -5.10741 1.09273 0
M  V30 3665 H 344.419 -2.85692 0.895571 0
M  V30 3666 H 341.965 -1.37364 0.432109 0
M  V30 3667 H 343.918 -4.02675 -1.24221 0
M  V30 3668 H 342.642 -2.8404 -1.61211 0
M  V30 3669 H 341.301 -3.64813 0.361511 0
M  V30 3670 H 340.949 -4.65758 -1.89944 0
M  V30 3671 H 340.649 -5.84472 -0.605489 0
M  V30 3672 H 342.173 -5.90974 -1.53565 0
M  V30 3673 H 343.587 -5.68699 0.724841 0
M  V30 3674 H 341.984 -5.8088 1.50659 0
M  V30 3675 H 343.054 -4.45525 1.91404 0
M  V30 3676 N 344.397 -0.483516 -1.5 0
M  V30 3677 C 345.627 0.0643896 -2.065 0
M  V30 3678 C 346.035 1.32949 -1.34615 0
M  V30 3679 O 345.378 1.79003 -0.412756 0
M  V30 3680 C 345.44 0.405983 -3.572 0
M  V30 3681 C 345.104 -0.758875 -4.50655 0
M  V30 3682 C 346.101 -1.64445 -4.93208 0
M  V30 3683 C 343.786 -0.952725 -4.93182 0
M  V30 3684 C 345.78 -2.70818 -5.77006 0
M  V30 3685 C 343.467 -2.01966 -5.76761 0
M  V30 3686 C 344.465 -2.89574 -6.18576 0
M  V30 3687 O 344.153 -3.94429 -7.00486 0
M  V30 3688 H 343.885 -0.00934786 -0.675935 0
M  V30 3689 H 346.439 -0.674959 -1.93993 0
M  V30 3690 H 344.669 1.19869 -3.67652 0
M  V30 3691 H 346.358 0.890433 -3.96013 0
M  V30 3692 H 347.124 -1.50643 -4.61012 0
M  V30 3693 H 343.003 -0.280247 -4.60147 0
M  V30 3694 H 346.547 -3.3923 -6.09565 0
M  V30 3695 H 342.444 -2.1577 -6.0837 0
M  V30 3696 H 343.212 -3.91568 -7.1876 0
M  V30 3697 N 345.875 1.56104 -0.216619 0
M  V30 3698 C 347.152 1.89988 0.465165 0
M  V30 3699 C 347.532 1.13326 1.78102 0
M  V30 3700 O 346.88 0.241033 2.27225 0
M  V30 3701 C 347.09 3.42646 0.662939 0
M  V30 3702 C 348.438 4.13311 0.972602 0
M  V30 3703 O 349.462 3.48217 0.749901 0
M  V30 3704 O 348.321 5.28396 1.39499 0
M  V30 3705 H 345.415 0.78979 0.245276 0
M  V30 3706 H 347.961 1.67721 -0.258436 0
M  V30 3707 H 346.733 3.90399 -0.26543 0
M  V30 3708 H 346.356 3.70677 1.43821 0
M  V30 3709 N 347.353 -0.0568162 1.57498 0
M  V30 3710 C 348.285 -1.09292 2.01464 0
M  V30 3711 C 349.298 -1.34112 0.922913 0
M  V30 3712 O 350.487 -1.32089 1.20062 0
M  V30 3713 C 347.587 -2.44068 2.35125 0
M  V30 3714 C 346.76 -2.38995 3.66333 0
M  V30 3715 C 345.819 -3.55997 3.87495 0
M  V30 3716 O 344.845 -3.36746 4.58901 0
M  V30 3717 N 346.047 -4.76888 3.30996 0
M  V30 3718 H 348.812 -0.718386 2.90963 0
M  V30 3719 H 346.373 -0.245235 1.60032 0
M  V30 3720 H 348.365 -3.21011 2.46443 0
M  V30 3721 H 346.935 -2.73468 1.5144 0
M  V30 3722 H 346.155 -1.47336 3.65631 0
M  V30 3723 H 347.443 -2.3272 4.52458 0
M  V30 3724 H 346.841 -4.95431 2.73065 0
M  V30 3725 H 345.398 -5.51291 3.47738 0
M  V30 3726 N 348.832 -1.54138 -0.328536 0
M  V30 3727 C 350.081 -1.71318 -1.06456 0
M  V30 3728 C 350.394 -0.491109 -1.89334 0
M  V30 3729 O 351.6 -0.54416 -2.65991 0
M  V30 3730 C 350.056 -3.03 -1.94214 0
M  V30 3731 C 349.664 -4.32595 -1.16471 0
M  V30 3732 C 351.408 -3.29544 -2.67583 0
M  V30 3733 C 349.315 -5.55341 -2.03347 0
M  V30 3734 H 348.245 -0.638429 -0.401155 0
M  V30 3735 H 350.896 -1.80633 -0.323106 0
M  V30 3736 H 349.278 -2.87579 -2.72239 0
M  V30 3737 H 350.452 -4.58766 -0.432525 0
M  V30 3738 H 348.767 -4.12777 -0.548063 0
M  V30 3739 H 351.364 -4.18444 -3.3288 0
M  V30 3740 H 351.707 -2.47206 -3.34955 0
M  V30 3741 H 352.24 -3.45809 -1.96623 0
M  V30 3742 H 348.979 -6.40268 -1.40491 0
M  V30 3743 H 348.499 -5.33397 -2.74313 0
M  V30 3744 H 350.178 -5.91557 -2.62049 0
M  V30 3745 N 350.31 0.590341 -1.46126 0
M  V30 3746 C 351.243 1.71434 -1.50617 0
M  V30 3747 C 352.221 1.58543 -0.360948 0
M  V30 3748 O 353.405 1.79865 -0.563985 0
M  V30 3749 C 350.532 3.09422 -1.37753 0
M  V30 3750 C 349.578 3.40854 -2.5636 0
M  V30 3751 S 350.411 3.33773 -4.18755 0
M  V30 3752 C 351.567 4.74312 -4.08386 0
M  V30 3753 H 351.8 1.67364 -2.45717 0
M  V30 3754 H 349.333 0.76845 -1.33919 0
M  V30 3755 H 351.291 3.8903 -1.31018 0
M  V30 3756 H 349.952 3.10989 -0.440949 0
M  V30 3757 H 349.145 4.41368 -2.43332 0
M  V30 3758 H 348.747 2.68798 -2.60046 0
M  V30 3759 H 351.039 5.64522 -3.74595 0
M  V30 3760 H 351.982 4.92397 -5.08872 0
M  V30 3761 H 352.39 4.50803 -3.3976 0
M  V30 3762 N 351.788 1.33704 0.83433 0
M  V30 3763 C 353.035 1.25417 1.58987 0
M  V30 3764 C 353.363 -0.178869 1.93676 0
M  V30 3765 O 352.618 -1.13723 1.59265 0
M  V30 3766 C 352.917 2.07926 2.90692 0
M  V30 3767 C 352.583 3.57066 2.75345 0
M  V30 3768 C 351.245 3.97724 2.70867 0
M  V30 3769 C 353.597 4.51817 2.59828 0
M  V30 3770 C 350.925 5.31344 2.48778 0
M  V30 3771 C 353.277 5.85604 2.39272 0
M  V30 3772 C 351.941 6.25439 2.33199 0
M  V30 3773 H 351.211 0.458934 0.581774 0
M  V30 3774 H 353.858 1.65335 0.966261 0
M  V30 3775 H 352.163 1.608 3.57282 0
M  V30 3776 H 353.86 1.98868 3.48213 0
M  V30 3777 H 350.45 3.24785 2.79665 0
M  V30 3778 H 354.634 4.21311 2.62319 0
M  V30 3779 H 349.89 5.61241 2.42526 0
M  V30 3780 H 354.064 6.58623 2.2625 0
M  V30 3781 H 351.691 7.28914 2.15843 0
M  V30 3782 N 353.266 -1.05314 1.17247 0
M  V30 3783 C 354.496 -1.81707 0.983166 0
M  V30 3784 C 354.904 -1.83222 -0.471822 0
M  V30 3785 O 354.247 -1.25721 -1.3394 0
M  V30 3786 C 354.309 -3.29134 1.44606 0
M  V30 3787 C 353.973 -3.51304 2.92292 0
M  V30 3788 C 354.97 -3.4353 3.90235 0
M  V30 3789 C 352.655 -3.78306 3.30439 0
M  V30 3790 C 354.649 -3.62442 5.24323 0
M  V30 3791 C 352.336 -3.96866 4.64694 0
M  V30 3792 C 353.334 -3.88933 5.61445 0
M  V30 3793 O 353.022 -4.06976 6.93272 0
M  V30 3794 H 352.754 -0.579476 0.348114 0
M  V30 3795 H 355.308 -1.33705 1.55924 0
M  V30 3796 H 353.538 -3.78046 0.813537 0
M  V30 3797 H 355.227 -3.87049 1.22262 0
M  V30 3798 H 355.993 -3.22648 3.62109 0
M  V30 3799 H 351.872 -3.83585 2.55702 0
M  V30 3800 H 355.416 -3.56165 5.99827 0
M  V30 3801 H 351.313 -4.1724 4.92525 0
M  V30 3802 H 352.081 -4.24209 6.99992 0
M  V30 3803 N 354.744 -0.972509 -1.24016 0
M  V30 3804 C 355.99 -0.637978 -1.92504 0
M  V30 3805 C 356.323 0.825383 -1.75787 0
M  V30 3806 O 355.598 1.59442 -1.11393 0
M  V30 3807 C 355.881 -1.01942 -3.45369 0
M  V30 3808 C 355.734 -2.53983 -3.71231 0
M  V30 3809 C 357.053 -0.55751 -4.36555 0
M  V30 3810 H 354.172 -0.233248 -0.699117 0
M  V30 3811 H 356.814 -1.21238 -1.46292 0
M  V30 3812 H 354.964 -0.530656 -3.84859 0
M  V30 3813 H 356.636 -3.10374 -3.41271 0
M  V30 3814 H 354.879 -2.96968 -3.16216 0
M  V30 3815 H 355.55 -2.75723 -4.78206 0
M  V30 3816 H 358.026 -0.977029 -4.04467 0
M  V30 3817 H 356.902 -0.85292 -5.42233 0
M  V30 3818 H 357.163 0.542328 -4.38761 0
M  V30 3819 N 356.222 1.38976 -0.743202 0
M  V30 3820 C 357.185 2.28901 -0.117014 0
M  V30 3821 C 358.185 1.46698 0.658503 0
M  V30 3822 O 359.375 1.67274 0.486305 0
M  V30 3823 C 356.507 3.30309 0.84315 0
M  V30 3824 H 357.7 2.8578 -0.909373 0
M  V30 3825 H 355.253 1.47761 -0.509547 0
M  V30 3826 H 355.988 2.785 1.66157 0
M  V30 3827 H 355.773 3.91029 0.289594 0
M  V30 3828 H 357.263 3.97577 1.2776 0
M  V30 3829 N 357.7 0.491464 1.49741 0
M  V30 3830 C 358.949 -0.0582189 2.01616 0
M  V30 3831 C 359.262 -1.38927 1.3769 0
M  V30 3832 O 360.468 -2.02509 1.80838 0
M  V30 3833 C 358.924 -0.154235 3.59569 0
M  V30 3834 C 358.532 1.1696 4.32463 0
M  V30 3835 C 360.276 -0.65479 4.1942 0
M  V30 3836 C 358.183 1.03627 5.8225 0
M  V30 3837 H 357.113 -0.0255317 0.753568 0
M  V30 3838 H 359.764 0.629445 1.72367 0
M  V30 3839 H 358.146 -0.906138 3.85493 0
M  V30 3840 H 359.32 1.93405 4.18248 0
M  V30 3841 H 357.635 1.60285 3.84315 0
M  V30 3842 H 360.232 -0.771903 5.29099 0
M  V30 3843 H 360.575 -1.65127 3.8215 0
M  V30 3844 H 361.108 0.040304 3.9778 0
M  V30 3845 H 357.847 2.00672 6.24028 0
M  V30 3846 H 357.367 0.312546 5.98985 0
M  V30 3847 H 359.046 0.711114 6.4308 0
M  V30 3848 N 359.178 -1.55987 0.224894 0
M  V30 3849 C 360.594 -1.59066 -0.130426 0
M  V30 3850 C 360.794 -1.24176 -1.5869 0
M  V30 3851 O 359.85 -0.978592 -2.32766 0
M  V30 3852 C 361.163 -3.00042 0.198883 0
M  V30 3853 C 362.711 -3.1268 0.141391 0
M  V30 3854 C 363.186 -4.55839 0.444422 0
M  V30 3855 N 364.677 -4.6152 0.394115 0
M  V30 3856 C 365.412 -5.70231 0.602038 0
M  V30 3857 N 364.908 -6.87291 0.871914 0
M  V30 3858 N 366.701 -5.59555 0.534245 0
M  V30 3859 H 358.852 -1.76941 1.17497 0
M  V30 3860 H 361.115 -0.822604 0.471197 0
M  V30 3861 H 360.821 -3.30234 1.2099 0
M  V30 3862 H 360.695 -3.74075 -0.484535 0
M  V30 3863 H 363.082 -2.82283 -0.860265 0
M  V30 3864 H 363.163 -2.40969 0.858335 0
M  V30 3865 H 362.807 -4.86954 1.44353 0
M  V30 3866 H 362.737 -5.2578 -0.293752 0
M  V30 3867 H 365.228 -3.77405 0.193356 0
M  V30 3868 H 365.541 -7.66058 1.01858 0
M  V30 3869 H 363.886 -6.89028 0.909145 0
M  V30 3870 H 367.077 -4.6698 0.323612 0
M  V30 3871 H 367.25 -6.44211 0.699693 0
M  V30 3872 N 360.656 0.0484629 -1.57525 0
M  V30 3873 C 362.072 0.40375 -1.54409 0
M  V30 3874 C 362.272 1.77786 -0.948384 0
M  V30 3875 O 361.328 2.46189 -0.560983 0
M  V30 3876 C 362.641 0.323394 -2.98956 0
M  V30 3877 C 364.189 0.401892 -3.10409 0
M  V30 3878 C 364.664 0.351195 -4.56652 0
M  V30 3879 N 366.155 0.410576 -4.61377 0
M  V30 3880 C 366.89 0.393933 -5.72045 0
M  V30 3881 N 366.386 0.330724 -6.9201 0
M  V30 3882 N 368.179 0.442227 -5.60358 0
M  V30 3883 H 360.33 -0.851016 -1.94606 0
M  V30 3884 H 362.593 -0.321721 -0.89174 0
M  V30 3885 H 362.299 -0.62011 -3.4619 0
M  V30 3886 H 362.173 1.12463 -3.60044 0
M  V30 3887 H 364.56 1.33582 -2.63134 0
M  V30 3888 H 364.641 -0.428342 -2.52188 0
M  V30 3889 H 364.285 -0.578987 -5.04589 0
M  V30 3890 H 364.215 1.19928 -5.12762 0
M  V30 3891 H 366.706 0.462729 -3.75056 0
M  V30 3892 H 367.019 0.322592 -7.72126 0
M  V30 3893 H 365.364 0.29706 -6.94365 0
M  V30 3894 H 368.555 0.489464 -4.65534 0
M  V30 3895 H 368.728 0.425788 -6.466 0
M  V30 3896 N 362.134 1.5431 0.320358 0
M  V30 3897 C 363.55 1.45091 0.664889 0
M  V30 3898 C 363.75 0.626382 1.91517 0
M  V30 3899 O 362.806 0.126443 2.52183 0
M  V30 3900 C 364.119 2.88848 0.83591 0
M  V30 3901 C 365.667 2.9877 0.933046 0
M  V30 3902 C 366.142 4.43683 1.13621 0
M  V30 3903 N 367.633 4.47309 1.20287 0
M  V30 3904 C 368.368 5.56595 1.37801 0
M  V30 3905 N 367.864 6.75844 1.52338 0
M  V30 3906 N 369.657 5.44248 1.40535 0
M  V30 3907 H 361.808 2.06398 -0.501374 0
M  V30 3908 H 364.071 0.933963 -0.162534 0
M  V30 3909 H 363.777 3.51698 -0.0116092 0
M  V30 3910 H 363.651 3.35148 1.73078 0
M  V30 3911 H 366.038 2.36045 1.77107 0
M  V30 3912 H 366.119 2.55796 0.0145782 0
M  V30 3913 H 365.763 5.06995 0.303032 0
M  V30 3914 H 365.693 4.84269 2.0686 0
M  V30 3915 H 368.184 3.61388 1.10485 0
M  V30 3916 H 368.497 7.54892 1.65403 0
M  V30 3917 H 366.842 6.78746 1.4943 0
M  V30 3918 H 370.033 4.50038 1.28777 0
M  V30 3919 H 370.206 6.29473 1.53842 0
M  V30 3920 N 363.613 -0.582584 1.46437 0
M  V30 3921 C 365.024 -1.1647 1.45916 0
M  V30 3922 C 365.375 -1.95177 0.200077 0
M  V30 3923 O 364.5 -2.04874 -0.696819 0
M  V30 3924 C 365.095 -2.11885 2.64367 0
M  V30 3925 C 363.654 -2.65421 2.66887 0
M  V30 3926 C 362.801 -1.41294 2.38603 0
M  V30 3927 H 365.752 -0.370514 1.54314 0
M  V30 3928 H 365.773 -2.9535 2.39892 0
M  V30 3929 H 365.285 -1.54573 3.5599 0
M  V30 3930 H 363.386 -3.26602 1.79338 0
M  V30 3931 H 363.499 -3.08147 3.66854 0
M  V30 3932 H 361.863 -1.71109 1.88663 0
M  V30 3933 H 362.646 -0.858125 3.32402 0
M  V30 3934 N 365.091 -1.34144 -0.827227 0
M  V30 3935 C 366.316 -1.29476 -1.62021 0
M  V30 3936 C 366.741 0.129292 -1.87655 0
M  V30 3937 O 366.099 1.08967 -1.449 0
M  V30 3938 C 366.147 -2.08702 -2.94068 0
M  V30 3939 O 365.251 -1.45359 -3.85933 0
M  V30 3940 H 364.592 -0.444881 -0.492927 0
M  V30 3941 H 367.122 -1.76882 -1.02829 0
M  V30 3942 H 367.132 -2.19898 -3.43669 0
M  V30 3943 H 365.807 -3.12241 -2.74734 0
M  V30 3944 H 364.384 -1.42879 -3.44442 0
M  V30 3945 N 366.569 1.04691 -1.17803 0
M  V30 3946 C 367.499 2.14494 -0.92275 0
M  V30 3947 C 368.48 1.69546 0.137179 0
M  V30 3948 O 369.665 1.94195 -0.0141108 0
M  V30 3949 C 366.795 3.44491 -0.440803 0
M  V30 3950 C 365.749 4.03031 -1.4405 0
M  V30 3951 C 365.075 5.28432 -0.81631 0
M  V30 3952 C 366.375 4.39932 -2.81527 0
M  V30 3953 H 368.069 2.36107 -1.84103 0
M  V30 3954 H 365.615 1.1347 -0.886599 0
M  V30 3955 H 367.568 4.2066 -0.249602 0
M  V30 3956 H 366.292 3.22546 0.513025 0
M  V30 3957 H 364.951 3.28937 -1.61853 0
M  V30 3958 H 364.599 5.02792 0.144511 0
M  V30 3959 H 364.299 5.68559 -1.48371 0
M  V30 3960 H 365.823 6.07284 -0.635496 0
M  V30 3961 H 367.237 5.07113 -2.67412 0
M  V30 3962 H 365.634 4.9109 -3.44892 0
M  V30 3963 H 366.704 3.50045 -3.35554 0
M  V30 3964 N 368.047 0.979072 1.23499 0
M  V30 3965 C 369.277 0.664237 1.95631 0
M  V30 3966 C 369.685 -0.772653 1.72704 0
M  V30 3967 O 369.028 -1.53141 1.01457 0
M  V30 3968 C 369.09 0.873115 3.48736 0
M  V30 3969 C 368.754 2.29182 3.95379 0
M  V30 3970 C 369.751 3.2704 4.04155 0
M  V30 3971 C 367.436 2.62256 4.28401 0
M  V30 3972 C 369.43 4.56052 4.45304 0
M  V30 3973 C 367.117 3.91491 4.69231 0
M  V30 3974 C 368.115 4.88201 4.77649 0
M  V30 3975 O 367.803 6.15129 5.17563 0
M  V30 3976 H 367.535 0.245915 0.629684 0
M  V30 3977 H 370.089 1.3127 1.57979 0
M  V30 3978 H 368.319 0.167476 3.86337 0
M  V30 3979 H 370.008 0.555642 4.02079 0
M  V30 3980 H 370.774 3.02819 3.78848 0
M  V30 3981 H 366.653 1.87692 4.21061 0
M  V30 3982 H 370.197 5.31538 4.51789 0
M  V30 3983 H 366.094 4.15508 4.93987 0
M  V30 3984 H 366.862 6.18862 5.35679 0
M  V30 3985 N 369.525 -1.3858 0.750561 0
M  V30 3986 C 370.774 -1.99424 0.302172 0
M  V30 3987 C 371.087 -1.60254 -1.12152 0
M  V30 3988 O 372.293 -2.14046 -1.67023 0
M  V30 3989 C 370.749 -3.56558 0.489307 0
M  V30 3990 C 370.357 -4.04682 1.92189 0
M  V30 3991 C 372.101 -4.24374 0.103478 0
M  V30 3992 C 370.008 -5.54446 2.05775 0
M  V30 3993 H 368.938 -0.746046 0.10923 0
M  V30 3994 H 371.589 -1.58383 0.92667 0
M  V30 3995 H 369.971 -3.95472 -0.204329 0
M  V30 3996 H 371.145 -3.77065 2.64875 0
M  V30 3997 H 369.46 -3.4958 2.26236 0
M  V30 3998 H 372.057 -5.34384 0.183787 0
M  V30 3999 H 372.4 -4.05468 -0.943481 0
M  V30 4000 H 372.933 -3.90688 0.748854 0
M  V30 4001 H 369.672 -5.78252 3.08714 0
M  V30 4002 H 369.192 -5.83816 1.37546 0
M  V30 4003 H 370.871 -6.20099 1.84626 0
M  V30 4004 N 371.003 -0.499398 -1.49478 0
M  V30 4005 C 372.252 0.0475259 -2.01644 0
M  V30 4006 C 372.565 1.38195 -1.38425 0
M  V30 4007 O 373.771 2.01547 -1.8191 0
M  V30 4008 C 372.227 0.135164 -3.59646 0
M  V30 4009 C 371.835 -1.19252 -4.31837 0
M  V30 4010 C 373.579 0.632538 -4.19761 0
M  V30 4011 C 371.486 -1.06713 -5.81693 0
M  V30 4012 H 370.416 0.0215349 -0.753692 0
M  V30 4013 H 373.067 -0.638577 -1.7203 0
M  V30 4014 H 371.449 0.885681 -3.85969 0
M  V30 4015 H 372.623 -1.9562 -4.17216 0
M  V30 4016 H 370.938 -1.62321 -3.83459 0
M  V30 4017 H 373.535 0.743833 -5.29501 0
M  V30 4018 H 373.878 1.63098 -3.83021 0
M  V30 4019 H 374.411 -0.0613987 -3.97753 0
M  V30 4020 H 371.15 -2.03979 -6.22955 0
M  V30 4021 H 370.67 -0.344307 -5.98811 0
M  V30 4022 H 372.349 -0.745208 -6.42694 0
M  V30 4023 N 372.481 1.55866 -0.233164 0
M  V30 4024 C 373.429 2.22176 0.68851 0
M  V30 4025 C 374.423 1.20487 1.19076 0
M  V30 4026 O 375.629 1.38536 1.14925 0
M  V30 4027 H 372.004 0.712511 0.240483 0
M  V30 4028 H 373.975 2.98212 0.105935 0
M  V30 4029 C 372.724 2.92446 1.88071 0
M  V30 4030 H 372.047 3.70458 1.50337 0
M  V30 4031 H 373.487 3.42226 2.50314 0
M  V30 4032 C 371.946 1.95555 2.74335 0
M  V30 4033 O 372.476 1.47986 3.73447 0
M  V30 4034 N 370.682 1.62953 2.40613 0
M  V30 4035 H 370.229 2.01831 1.60069 0
M  V30 4036 H 370.187 0.983886 2.98609 0
M  V30 4037 N 373.959 -0.0401083 1.57549 0
M  V30 4038 C 374.889 -1.04384 2.08869 0
M  V30 4039 C 375.87 -1.38407 0.988817 0
M  V30 4040 O 377.055 -1.47483 1.26342 0
M  V30 4041 C 374.185 -2.34808 2.55895 0
M  V30 4042 C 373.139 -2.15057 3.70047 0
M  V30 4043 C 372.465 -3.51145 4.03239 0
M  V30 4044 C 373.765 -1.54576 4.98902 0
M  V30 4045 H 375.459 -0.616666 2.92981 0
M  V30 4046 H 373.005 -0.295184 1.40942 0
M  V30 4047 H 374.958 -3.05346 2.90417 0
M  V30 4048 H 373.682 -2.79565 1.68853 0
M  V30 4049 H 372.341 -1.46954 3.35857 0
M  V30 4050 H 371.989 -3.93529 3.13279 0
M  V30 4051 H 371.689 -3.38758 4.80122 0
M  V30 4052 H 373.213 -4.23062 4.40285 0
M  V30 4053 H 374.627 -2.15017 5.31451 0
M  V30 4054 H 373.024 -1.52796 5.80322 0
M  V30 4055 H 374.094 -0.51039 4.82206 0
M  V30 4056 N 375.437 -1.54477 -0.31217 0
M  V30 4057 C 376.367 -1.87652 -1.38957 0
M  V30 4058 C 377.348 -0.734358 -1.53431 0
M  V30 4059 O 378.533 -0.98911 -1.67123 0
M  V30 4060 C 375.663 -2.11396 -2.75552 0
M  V30 4061 C 374.617 -3.27243 -2.75855 0
M  V30 4062 C 373.943 -3.36382 -4.15633 0
M  V30 4063 C 375.243 -4.64622 -2.38587 0
M  V30 4064 H 376.937 -2.77887 -1.11442 0
M  V30 4065 H 374.483 -1.33707 -0.534655 0
M  V30 4066 H 376.436 -2.33189 -3.51 0
M  V30 4067 H 375.16 -1.17921 -3.04569 0
M  V30 4068 H 373.819 -3.05356 -2.02863 0
M  V30 4069 H 373.467 -2.40445 -4.41809 0
M  V30 4070 H 373.167 -4.14249 -4.1674 0
M  V30 4071 H 374.691 -3.60422 -4.92877 0
M  V30 4072 H 376.105 -4.86219 -3.03749 0
M  V30 4073 H 374.502 -5.45121 -2.50925 0
M  V30 4074 H 375.572 -4.66097 -1.33723 0
M  V30 4075 N 376.915 0.57481 -1.46744 0
M  V30 4076 C 378.161 1.3347 -1.52688 0
M  V30 4077 C 378.494 1.93353 -0.181229 0
M  V30 4078 O 377.769 1.76912 0.808237 0
M  V30 4079 C 378.052 2.45811 -2.63152 0
M  V30 4080 C 377.905 1.90912 -4.07275 0
M  V30 4081 C 379.224 3.47822 -2.69644 0
M  V30 4082 H 376.343 0.483935 -0.555856 0
M  V30 4083 H 378.985 0.644968 -1.78718 0
M  V30 4084 H 377.135 3.04646 -2.41088 0
M  V30 4085 H 378.807 1.36473 -4.4065 0
M  V30 4086 H 377.05 1.21691 -4.16382 0
M  V30 4087 H 377.721 2.72042 -4.80309 0
M  V30 4088 H 380.197 2.9888 -2.895 0
M  V30 4089 H 379.073 4.23876 -3.48742 0
M  V30 4090 H 379.334 4.05555 -1.76005 0
M  V30 4091 N 378.394 1.34581 0.820102 0
M  V30 4092 C 379.805 1.24298 1.39309 0
M  V30 4093 C 380.156 -0.130351 1.95767 0
M  V30 4094 O 379.281 -1.0308 1.90272 0
M  V30 4095 C 379.876 2.25054 2.53251 0
M  V30 4096 C 378.435 2.18552 3.0645 0
M  V30 4097 C 377.582 2.11503 1.79337 0
M  V30 4098 H 380.533 1.45906 0.624262 0
M  V30 4099 H 380.554 1.86917 3.31425 0
M  V30 4100 H 380.066 3.24996 2.1213 0
M  V30 4101 H 378.167 1.21976 3.52069 0
M  V30 4102 H 378.28 3.0993 3.65349 0
M  V30 4103 H 376.644 1.57268 2.00347 0
M  V30 4104 H 377.427 3.13284 1.40386 0
M  V30 4105 N 379.872 -1.04064 1.18357 0
M  V30 4106 C 381.097 -1.81454 1.00445 0
M  V30 4107 C 381.522 -1.82823 -0.442423 0
M  V30 4108 O 380.88 -1.24555 -1.31741 0
M  V30 4109 C 380.928 -3.24925 1.56384 0
M  V30 4110 O 380.032 -4.04856 0.785209 0
M  V30 4111 H 379.373 -0.560604 0.355835 0
M  V30 4112 H 381.903 -1.31059 1.57114 0
M  V30 4113 H 381.913 -3.75702 1.59097 0
M  V30 4114 H 380.588 -3.23244 2.61699 0
M  V30 4115 H 379.165 -3.63537 0.830399 0
M  V30 4116 N 381.35 -0.985608 -1.22978 0
M  V30 4117 C 382.575 -0.675254 -1.961 0
M  V30 4118 C 383 0.752154 -1.72407 0
M  V30 4119 O 382.358 1.5131 -0.998751 0
M  V30 4120 C 382.406 -0.977899 -3.47087 0
M  V30 4121 O 381.51 -0.072685 -4.12336 0
M  V30 4122 H 380.851 -0.253443 -0.613728 0
M  V30 4123 H 383.381 -1.32061 -1.56272 0
M  V30 4124 H 383.391 -0.916739 -3.97567 0
M  V30 4125 H 382.066 -2.01807 -3.63657 0
M  V30 4126 H 380.643 -0.188703 -3.72422 0
M  V30 4127 N 382.828 1.3818 -0.7579 0
M  V30 4128 C 384.075 2.00019 -0.315985 0
M  V30 4129 C 384.403 1.60163 1.10355 0
M  V30 4130 O 383.658 0.83264 1.77103 0
M  V30 4131 C 383.957 3.55252 -0.391218 0
M  V30 4132 C 383.623 4.14834 -1.76702 0
M  V30 4133 C 382.285 4.30821 -2.14353 0
M  V30 4134 C 384.637 4.47658 -2.66931 0
M  V30 4135 C 381.965 4.76928 -3.41696 0
M  V30 4136 C 384.317 4.95184 -3.93669 0
M  V30 4137 C 382.981 5.09377 -4.31383 0
M  V30 4138 H 382.251 0.731923 -0.115627 0
M  V30 4139 H 384.898 1.65161 -0.969223 0
M  V30 4140 H 383.203 3.90273 0.34558 0
M  V30 4141 H 384.9 4.00988 -0.030805 0
M  V30 4142 H 381.49 4.02808 -1.46435 0
M  V30 4143 H 385.674 4.34904 -2.39106 0
M  V30 4144 H 380.93 4.86103 -3.70829 0
M  V30 4145 H 385.104 5.19551 -4.63724 0
M  V30 4146 H 382.731 5.44865 -5.30119 0
M  V30 4147 N 384.306 0.507319 1.49211 0
M  V30 4148 C 385.236 -0.256939 2.32082 0
M  V30 4149 C 386.217 -0.956609 1.40652 0
M  V30 4150 O 387.402 -0.946788 1.69557 0
M  V30 4151 C 384.532 -1.31802 3.21318 0
M  V30 4152 C 383.486 -0.737855 4.21592 0
M  V30 4153 C 382.812 -1.89992 4.99807 0
M  V30 4154 C 384.112 0.275325 5.21574 0
M  V30 4155 H 385.806 0.434798 2.96226 0
M  V30 4156 H 383.352 0.210546 1.42452 0
M  V30 4157 H 385.305 -1.86045 3.78107 0
M  V30 4158 H 384.029 -2.03903 2.5513 0
M  V30 4159 H 382.688 -0.217126 3.65956 0
M  V30 4160 H 382.336 -2.60877 4.30061 0
M  V30 4161 H 382.036 -1.51777 5.6766 0
M  V30 4162 H 383.56 -2.44657 5.59442 0
M  V30 4163 H 384.974 -0.179193 5.7302 0
M  V30 4164 H 383.371 0.573649 5.97352 0
M  V30 4165 H 384.441 1.18903 4.70096 0
M  V30 4166 N 385.784 -1.5574 0.241426 0
M  V30 4167 C 387.03 -1.99104 -0.385406 0
M  V30 4168 C 387.363 -1.1293 -1.57988 0
M  V30 4169 O 386.638 -0.191449 -1.93555 0
M  V30 4170 C 386.921 -3.51087 -0.800616 0
M  V30 4171 C 386.774 -4.48028 0.398874 0
M  V30 4172 C 388.093 -4.08015 -1.64959 0
M  V30 4173 H 385.212 -0.723848 -0.138614 0
M  V30 4174 H 387.854 -1.86903 0.341642 0
M  V30 4175 H 386.004 -3.61615 -1.4201 0
M  V30 4176 H 387.676 -4.49487 1.03726 0
M  V30 4177 H 385.919 -4.21077 1.04293 0
M  V30 4178 H 386.59 -5.51962 0.0651056 0
M  V30 4179 H 389.066 -4.00555 -1.12672 0
M  V30 4180 H 387.942 -5.14635 -1.90898 0
M  V30 4181 H 388.203 -3.56131 -2.61961 0
M  V30 4182 N 387.262 0.0317525 -1.57568 0
M  V30 4183 C 388.225 1.01783 -2.0536 0
M  V30 4184 C 389.225 1.29203 -0.957253 0
M  V30 4185 O 390.415 1.24251 -1.22095 0
M  V30 4186 C 387.547 2.35137 -2.46827 0
M  V30 4187 H 388.74 0.605062 -2.93733 0
M  V30 4188 H 386.293 0.278514 -1.53799 0
M  V30 4189 H 387.028 2.81168 -1.61602 0
M  V30 4190 H 386.813 2.16566 -3.26866 0
M  V30 4191 H 388.303 3.05938 -2.84239 0
M  V30 4192 N 388.74 1.54641 0.303973 0
M  V30 4193 C 389.989 1.7299 1.03717 0
M  V30 4194 C 390.302 0.521168 1.88529 0
M  V30 4195 O 391.508 0.586408 2.65092 0
M  V30 4196 C 389.964 3.06051 1.89369 0
M  V30 4197 C 389.572 4.34393 1.09574 0
M  V30 4198 C 391.316 3.3376 2.62306 0
M  V30 4199 C 389.223 5.58506 1.94486 0
M  V30 4200 H 388.153 0.64473 0.390947 0
M  V30 4201 H 390.804 1.81124 0.294328 0
M  V30 4202 H 389.186 2.91874 2.67629 0
M  V30 4203 H 390.36 4.59396 0.359485 0
M  V30 4204 H 388.675 4.13597 0.482324 0
M  V30 4205 H 391.272 4.23687 3.26181 0
M  V30 4206 H 391.615 2.52503 3.3098 0
M  V30 4207 H 392.148 3.48894 1.91097 0
M  V30 4208 H 388.887 6.42422 1.30287 0
M  V30 4209 H 388.407 5.37694 2.65792 0
M  V30 4210 H 390.086 5.95651 2.52605 0
M  V30 4211 N 390.218 -0.567019 1.47046 0
M  V30 4212 C 391.495 -1.3276 1.43646 0
M  V30 4213 C 391.875 -2.1071 0.128186 0
M  V30 4214 O 391.223 -2.10441 -0.890326 0
M  V30 4215 C 391.433 -2.2404 2.67595 0
M  V30 4216 C 392.781 -2.85372 3.14401 0
M  V30 4217 O 393.805 -2.34346 2.68254 0
M  V30 4218 O 392.664 -3.78091 3.946 0
M  V30 4219 H 389.758 -0.597293 0.571988 0
M  V30 4220 H 392.304 -0.586735 1.59234 0
M  V30 4221 H 391.076 -1.65975 3.54356 0
M  V30 4222 H 390.699 -3.05439 2.54544 0
M  V30 4223 N 391.696 -1.35014 -0.812953 0
M  V30 4224 C 392.659 -1.27292 -1.90602 0
M  V30 4225 C 393.659 -0.185817 -1.59723 0
M  V30 4226 O 394.849 -0.439102 -1.68575 0
M  V30 4227 C 391.981 -0.967676 -3.26877 0
M  V30 4228 H 393.174 -2.24479 -1.9887 0
M  V30 4229 H 390.727 -1.19446 -1.00808 0
M  V30 4230 H 391.462 0.0005954 -3.243 0
M  V30 4231 H 391.247 -1.75412 -3.50675 0
M  V30 4232 H 392.737 -0.939085 -4.06904 0
M  V30 4233 N 393.175 1.03435 -1.18907 0
M  V30 4234 C 394.105 2.13503 -0.945448 0
M  V30 4235 C 395.086 1.69682 0.119189 0
M  V30 4236 O 396.271 1.94169 -0.034707 0
M  V30 4237 C 393.401 3.44004 -0.477316 0
M  V30 4238 C 392.355 4.0148 -1.48316 0
M  V30 4239 C 391.681 5.27537 -0.872311 0
M  V30 4240 C 392.981 4.36921 -2.86177 0
M  V30 4241 H 394.675 2.34141 -1.86597 0
M  V30 4242 H 392.221 1.12523 -0.898584 0
M  V30 4243 H 394.174 4.20372 -0.294204 0
M  V30 4244 H 392.898 3.23072 0.478786 0
M  V30 4245 H 391.557 3.27201 -1.65332 0
M  V30 4246 H 391.205 5.02917 0.0911752 0
M  V30 4247 H 390.905 5.66954 -1.54393 0
M  V30 4248 H 392.429 6.06576 -0.699871 0
M  V30 4249 H 393.843 5.04248 -2.72776 0
M  V30 4250 H 392.24 4.87405 -3.50081 0
M  V30 4251 H 393.31 3.46466 -3.39248 0
M  V30 4252 N 394.653 0.992116 1.22453 0
M  V30 4253 C 395.878 0.685644 1.95739 0
M  V30 4254 C 396.303 -0.743 1.72804 0
M  V30 4255 O 395.661 -1.50778 1.00676 0
M  V30 4256 C 395.709 0.996293 3.46564 0
M  V30 4257 O 394.813 0.0945512 4.12292 0
M  V30 4258 H 394.154 0.256694 0.612376 0
M  V30 4259 H 396.684 1.32888 1.5557 0
M  V30 4260 H 396.694 0.93781 3.97076 0
M  V30 4261 H 395.369 2.03733 3.62582 0
M  V30 4262 H 393.946 0.208451 3.72317 0
M  V30 4263 N 396.131 -1.37776 0.765217 0
M  V30 4264 C 397.378 -1.99849 0.326588 0
M  V30 4265 C 397.706 -1.60746 -1.09504 0
M  V30 4266 O 396.961 -0.84202 -1.76659 0
M  V30 4267 C 397.26 -3.5504 0.410053 0
M  V30 4268 C 396.926 -4.13891 1.78899 0
M  V30 4269 C 395.588 -4.29678 2.16635 0
M  V30 4270 C 397.94 -4.46236 2.69301 0
M  V30 4271 C 395.268 -4.7511 3.44221 0
M  V30 4272 C 397.62 -4.93089 3.9629 0
M  V30 4273 C 396.284 -5.07082 4.34078 0
M  V30 4274 H 395.554 -0.7313 0.119507 0
M  V30 4275 H 398.201 -1.64645 0.977968 0
M  V30 4276 H 396.506 -3.90451 -0.324878 0
M  V30 4277 H 398.203 -4.00966 0.0520699 0
M  V30 4278 H 394.793 -4.02026 1.48569 0
M  V30 4279 H 398.977 -4.3363 2.41409 0
M  V30 4280 H 394.233 -4.84129 3.73402 0
M  V30 4281 H 398.407 -5.17084 4.66472 0
M  V30 4282 H 396.034 -5.42046 5.33001 0
M  V30 4283 N 397.609 -0.515225 -1.4894 0
M  V30 4284 C 398.839 0.0205735 -2.0659 0
M  V30 4285 C 399.247 1.30064 -1.37405 0
M  V30 4286 O 398.59 1.78087 -0.450632 0
M  V30 4287 C 398.652 0.330124 -3.57981 0
M  V30 4288 C 398.316 -0.854295 -4.48944 0
M  V30 4289 C 399.313 -1.7487 -4.89609 0
M  V30 4290 C 396.998 -1.05712 -4.9105 0
M  V30 4291 C 398.992 -2.82996 -5.71132 0
M  V30 4292 C 396.679 -2.14154 -5.72347 0
M  V30 4293 C 397.677 -3.0263 -6.12294 0
M  V30 4294 O 397.365 -4.09198 -6.91962 0
M  V30 4295 H 397.097 -0.0236833 -0.675585 0
M  V30 4296 H 399.651 -0.715956 -1.92518 0
M  V30 4297 H 397.881 1.12044 -3.70112 0
M  V30 4298 H 399.57 0.806233 -3.97812 0
M  V30 4299 H 400.336 -1.60388 -4.57712 0
M  V30 4300 H 396.215 -0.377788 -4.59449 0
M  V30 4301 H 399.759 -3.52083 -6.02232 0
M  V30 4302 H 395.656 -2.28626 -6.03656 0
M  V30 4303 H 396.424 -4.06726 -7.10293 0
M  V30 4304 N 399.087 1.5561 -0.249682 0
M  V30 4305 C 400.017 2.24477 0.642826 0
M  V30 4306 C 400.998 1.22601 1.17911 0
M  V30 4307 O 402.183 1.5126 1.21795 0
M  V30 4308 C 399.313 2.94638 1.83863 0
M  V30 4309 C 398.267 4.03227 1.435 0
M  V30 4310 C 397.593 4.60828 2.71186 0
M  V30 4311 C 398.893 5.18796 0.604002 0
M  V30 4312 H 400.587 2.99321 0.0685625 0
M  V30 4313 H 398.133 1.43965 0.0315363 0
M  V30 4314 H 400.086 3.41517 2.46868 0
M  V30 4315 H 398.81 2.17287 2.43832 0
M  V30 4316 H 397.469 3.57121 0.828275 0
M  V30 4317 H 397.117 3.80174 3.29358 0
M  V30 4318 H 396.817 5.34132 2.44901 0
M  V30 4319 H 398.341 5.10442 3.35084 0
M  V30 4320 H 399.755 5.61883 1.13842 0
M  V30 4321 H 398.152 5.98506 0.437097 0
M  V30 4322 H 399.222 4.83384 -0.383147 0
M  V30 4323 N 400.565 -0.0233959 1.57583 0
M  V30 4324 C 401.976 -0.56927 1.77809 0
M  V30 4325 C 402.327 -1.75284 0.881472 0
M  V30 4326 O 401.452 -2.1626 0.0777805 0
M  V30 4327 C 402.047 -1.03949 3.22459 0
M  V30 4328 C 400.606 -1.53084 3.43864 0
M  V30 4329 C 399.753 -0.471454 2.73263 0
M  V30 4330 H 402.704 0.202825 1.57399 0
M  V30 4331 H 402.725 -1.90661 3.29285 0
M  V30 4332 H 402.237 -0.177865 3.87692 0
M  V30 4333 H 400.338 -2.41414 2.83814 0
M  V30 4334 H 400.451 -1.57443 4.52491 0
M  V30 4335 H 398.815 -0.927788 2.37201 0
M  V30 4336 H 399.598 0.380808 3.41181 0
M  V30 4337 N 402.043 -1.548 -0.295768 0
M  V30 4338 C 403.006 -1.85363 -1.34808 0
M  V30 4339 C 404.006 -0.726817 -1.43436 0
M  V30 4340 O 405.196 -0.995088 -1.42981 0
M  V30 4341 C 402.328 -2.03859 -2.73229 0
M  V30 4342 H 403.521 -2.7941 -1.08949 0
M  V30 4343 H 401.074 -1.46942 -0.532702 0
M  V30 4344 H 401.809 -1.12117 -3.04303 0
M  V30 4345 H 401.594 -2.8588 -2.68356 0
M  V30 4346 H 403.084 -2.28857 -3.49305 0
M  V30 4347 N 403.521 0.559213 -1.47345 0
M  V30 4348 C 404.431 1.69388 -1.62311 0
M  V30 4349 C 405.447 1.6648 -0.505993 0
M  V30 4350 O 406.623 1.85964 -0.773262 0
M  V30 4351 C 403.688 3.05894 -1.63185 0
M  V30 4352 C 402.749 3.19885 -2.86307 0
M  V30 4353 C 401.982 4.49879 -2.87131 0
M  V30 4354 O 402.205 5.35217 -1.97229 0
M  V30 4355 O 401.139 4.67618 -3.78968 0
M  V30 4356 H 404.965 1.59706 -2.58317 0
M  V30 4357 H 402.55 0.728989 -1.30407 0
M  V30 4358 H 404.432 3.87133 -1.66451 0
M  V30 4359 H 403.107 3.15964 -0.70345 0
M  V30 4360 H 402.014 2.38052 -2.88587 0
M  V30 4361 H 403.347 3.14718 -3.78435 0
M  V30 4362 N 404.999 1.35443 0.805782 0
M  V30 4363 C 406.224 1.32037 1.59941 0
M  V30 4364 C 406.649 -0.0994215 1.87837 0
M  V30 4365 O 406.007 -1.06648 1.46615 0
M  V30 4366 C 406.055 2.13354 2.90711 0
M  V30 4367 O 405.159 1.5148 3.83572 0
M  V30 4368 H 404.5 0.452666 0.485787 0
M  V30 4369 H 407.03 1.78496 1.00002 0
M  V30 4370 H 407.04 2.25338 3.40128 0
M  V30 4371 H 405.715 3.16572 2.69732 0
M  V30 4372 H 404.292 1.4834 3.42125 0
M  V30 4373 N 406.477 -1.02803 1.19454 0
M  V30 4374 C 407.387 -2.14575 0.948408 0
M  V30 4375 C 408.403 -1.73757 -0.091871 0
M  V30 4376 O 409.579 -2.01185 0.0929654 0
M  V30 4377 C 406.644 -3.43202 0.491265 0
M  V30 4378 C 405.705 -3.98328 1.60103 0
M  V30 4379 C 404.938 -5.20816 1.16561 0
M  V30 4380 O 405.161 -5.70392 0.0295238 0
M  V30 4381 O 404.095 -5.68801 1.96849 0
M  V30 4382 H 407.921 -2.38202 1.88397 0
M  V30 4383 H 405.506 -1.12989 0.977433 0
M  V30 4384 H 407.388 -4.20687 0.245015 0
M  V30 4385 H 406.063 -3.21018 -0.415851 0
M  V30 4386 H 404.97 -3.22174 1.90144 0
M  V30 4387 H 406.303 -4.24879 2.48473 0
M  V30 4388 N 407.956 -0.998596 -1.21925 0
M  V30 4389 C 408.904 -0.546641 -2.26085 0
M  V30 4390 C 409.898 0.405576 -1.64473 0
M  V30 4391 O 411.104 0.277471 -1.77849 0
M  V30 4392 H 407.479 -0.158403 -0.735127 0
M  V30 4393 H 409.45 -1.43645 -2.61551 0
M  V30 4394 C 408.199 0.117388 -3.47502 0
M  V30 4395 H 407.522 -0.606277 -3.95176 0
M  V30 4396 H 408.962 0.396993 -4.22137 0
M  V30 4397 C 407.421 1.35455 -3.0847 0
M  V30 4398 O 407.951 2.44944 -3.18379 0
M  V30 4399 N 406.157 1.23191 -2.63196 0
M  V30 4400 H 405.704 0.341006 -2.55333 0
M  V30 4401 H 405.662 2.06071 -2.37449 0
M  V30 4402 N 409.434 1.37368 -0.772513 0
M  V30 4403 C 410.85 1.53059 -0.452231 0
M  V30 4404 C 411.05 1.73065 1.03203 0
M  V30 4405 O 410.106 1.75245 1.81784 0
M  V30 4406 C 411.419 2.72659 -1.26797 0
M  V30 4407 C 412.967 2.86521 -1.25995 0
M  V30 4408 C 413.442 4.09105 -2.05905 0
M  V30 4409 N 414.933 4.16219 -2.03263 0
M  V30 4410 C 415.668 5.10107 -2.61875 0
M  V30 4411 N 415.164 6.09547 -3.29278 0
M  V30 4412 N 416.957 5.02596 -2.51701 0
M  V30 4413 H 409.108 1.22634 -1.7342 0
M  V30 4414 H 411.371 0.597206 -0.736239 0
M  V30 4415 H 411.077 2.64343 -2.31982 0
M  V30 4416 H 410.951 3.66363 -0.897672 0
M  V30 4417 H 413.338 2.94308 -0.216081 0
M  V30 4418 H 413.419 1.93774 -1.66989 0
M  V30 4419 H 413.063 4.0208 -3.10313 0
M  V30 4420 H 412.993 5.00968 -1.62292 0
M  V30 4421 H 415.484 3.45012 -1.54192 0
M  V30 4422 H 415.797 6.77718 -3.71374 0
M  V30 4423 H 414.142 6.09824 -3.33377 0
M  V30 4424 H 417.333 4.23855 -1.98657 0
M  V30 4425 H 417.506 5.75582 -2.97673 0
M  V30 4426 N 410.912 0.523116 1.48665 0
M  V30 4427 C 411.875 -0.232592 2.28017 0
M  V30 4428 C 412.875 -0.874021 1.34972 0
M  V30 4429 O 414.065 -0.735132 1.57929 0
M  V30 4430 C 411.197 -1.33586 3.13636 0
M  V30 4431 H 412.39 0.464008 2.96289 0
M  V30 4432 H 409.943 0.278816 1.53793 0
M  V30 4433 H 410.678 -2.06593 2.4998 0
M  V30 4434 H 410.463 -0.881125 3.82071 0
M  V30 4435 H 411.953 -1.86759 3.73511 0
M  V30 4436 N 412.39 -1.55475 0.257931 0
M  V30 4437 C 413.801 -1.8511 -0.243135 0
M  V30 4438 C 414.152 -1.17986 -1.5676 0
M  V30 4439 O 413.277 -0.462102 -2.11409 0
M  V30 4440 C 413.872 -3.35826 -0.447929 0
M  V30 4441 C 412.431 -3.65647 -0.893245 0
M  V30 4442 C 411.578 -2.7729 0.0232965 0
M  V30 4443 H 414.529 -1.51261 0.480199 0
M  V30 4444 H 414.55 -3.58002 -1.28898 0
M  V30 4445 H 414.062 -3.84652 0.516196 0
M  V30 4446 H 412.163 -3.22308 -1.86945 0
M  V30 4447 H 412.276 -4.73312 -0.742469 0
M  V30 4448 H 410.64 -2.49942 -0.490021 0
M  V30 4449 H 411.423 -3.28926 0.982994 0
M  V30 4450 N 413.868 0.0150385 -1.57593 0
M  V30 4451 C 415.115 0.703001 -1.89906 0
M  V30 4452 C 415.443 1.74604 -0.856944 0
M  V30 4453 O 414.698 1.95197 0.140287 0
M  V30 4454 C 414.997 1.39686 -3.28972 0
M  V30 4455 C 414.663 0.488457 -4.48246 0
M  V30 4456 C 413.325 0.2383 -4.8061 0
M  V30 4457 C 415.677 -0.137881 -5.21018 0
M  V30 4458 C 413.005 -0.646738 -5.83125 0
M  V30 4459 C 415.357 -1.0107 -6.24474 0
M  V30 4460 C 414.021 -1.27019 -6.55303 0
M  V30 4461 H 413.291 0.257246 -0.694914 0
M  V30 4462 H 415.938 -0.037259 -1.91464 0
M  V30 4463 H 414.243 2.21079 -3.23468 0
M  V30 4464 H 415.94 1.93495 -3.51227 0
M  V30 4465 H 412.53 0.693593 -4.22951 0
M  V30 4466 H 416.714 0.0423953 -4.96282 0
M  V30 4467 H 411.97 -0.855937 -6.05379 0
M  V30 4468 H 416.144 -1.50247 -6.79999 0
M  V30 4469 H 413.771 -1.95769 -7.3456 0
M  V30 4470 N 415.346 1.54954 0.287554 0
M  V30 4471 C 416.293 1.86834 1.35505 0
M  V30 4472 C 417.263 0.718452 1.49758 0
M  V30 4473 O 418.448 0.968358 1.644 0
M  V30 4474 C 415.588 2.13303 2.71286 0
M  V30 4475 C 414.701 3.40883 2.65373 0
M  V30 4476 C 413.836 3.57125 3.93236 0
M  V30 4477 C 412.875 4.78449 3.81776 0
M  V30 4478 N 412.012 4.91426 5.01443 0
M  V30 4479 H 416.852 2.77889 1.07619 0
M  V30 4480 H 414.389 1.37593 0.520241 0
M  V30 4481 H 416.347 2.26646 3.50267 0
M  V30 4482 H 414.977 1.25499 2.97405 0
M  V30 4483 H 414.029 3.36088 1.78182 0
M  V30 4484 H 415.341 4.29993 2.52799 0
M  V30 4485 H 414.495 3.70207 4.80658 0
M  V30 4486 H 413.234 2.66173 4.0866 0
M  V30 4487 H 412.239 4.65386 2.92738 0
M  V30 4488 H 413.464 5.70822 3.67884 0
M  V30 4489 H 411.41 4.03401 5.17304 0
M  V30 4490 H 411.327 5.74559 4.91343 0
M  V30 4491 H 412.595 5.08879 5.90477 0
M  V30 4492 N 416.824 -0.551391 1.4764 0
M  V30 4493 C 418.073 -1.30467 1.53822 0
M  V30 4494 C 418.386 -1.94495 0.207661 0
M  V30 4495 O 419.592 -2.71099 0.147533 0
M  V30 4496 C 418.048 -2.36616 2.71184 0
M  V30 4497 C 417.656 -1.78754 4.10793 0
M  V30 4498 C 419.4 -3.13088 2.86663 0
M  V30 4499 C 417.307 -2.82717 5.19447 0
M  V30 4500 H 416.237 -0.490584 0.572576 0
M  V30 4501 H 418.888 -0.58494 1.73927 0
M  V30 4502 H 417.27 -3.11529 2.4447 0
M  V30 4503 H 418.444 -1.10173 4.47435 0
M  V30 4504 H 416.759 -1.14846 4.00249 0
M  V30 4505 H 419.356 -3.90736 3.65007 0
M  V30 4506 H 419.699 -3.67635 1.95321 0
M  V30 4507 H 420.232 -2.45288 3.13175 0
M  V30 4508 H 416.971 -2.33018 6.12685 0
M  V30 4509 H 416.491 -3.4969 4.87316 0
M  V30 4510 H 418.17 -3.46102 5.46646 0
M  V30 4511 N 418.302 -1.35869 -0.798587 0
M  V30 4512 C 419.53 -1.32722 -1.58722 0
M  V30 4513 C 419.945 0.0935631 -1.88568 0
M  V30 4514 O 419.302 1.04784 -1.49421 0
M  V30 4515 C 419.353 -2.13974 -2.91371 0
M  V30 4516 O 419.074 -3.50514 -2.62815 0
M  V30 4517 C 420.575 -2.18504 -3.85708 0
M  V30 4518 H 417.795 -0.45562 -0.492596 0
M  V30 4519 H 420.339 -1.78837 -0.991843 0
M  V30 4520 H 418.494 -1.71438 -3.47402 0
M  V30 4521 H 418.908 -3.92806 -3.47568 0
M  V30 4522 H 420.382 -2.79732 -4.75872 0
M  V30 4523 H 420.859 -1.18597 -4.22885 0
M  V30 4524 H 421.465 -2.61236 -3.35612 0
M  V30 4525 N 419.78 1.02168 -1.19998 0
M  V30 4526 C 420.71 2.12488 -0.96804 0
M  V30 4527 C 421.691 1.69799 0.101185 0
M  V30 4528 O 422.876 1.94121 -0.0552993 0
M  V30 4529 C 420.006 3.43479 -0.513776 0
M  V30 4530 C 418.96 3.99884 -1.52566 0
M  V30 4531 C 418.286 5.26582 -0.928214 0
M  V30 4532 C 419.586 4.33861 -2.90795 0
M  V30 4533 H 421.28 2.32149 -1.89069 0
M  V30 4534 H 418.826 1.11564 -0.910468 0
M  V30 4535 H 420.779 4.20036 -0.338774 0
M  V30 4536 H 419.503 3.23561 0.444493 0
M  V30 4537 H 418.162 3.25429 -1.68794 0
M  V30 4538 H 417.81 5.02986 0.0378289 0
M  V30 4539 H 417.51 5.65284 -1.60397 0
M  V30 4540 H 419.034 6.05799 -0.764167 0
M  V30 4541 H 420.448 5.01327 -2.78109 0
M  V30 4542 H 418.845 4.83664 -3.55231 0
M  V30 4543 H 419.915 3.42848 -3.42904 0
M  V30 4544 N 421.258 1.00505 1.21394 0
M  V30 4545 C 422.188 0.585684 2.26035 0
M  V30 4546 C 423.169 -0.393525 1.65485 0
M  V30 4547 O 424.354 -0.281497 1.92149 0
M  V30 4548 C 421.484 -0.0884283 3.47187 0
M  V30 4549 C 420.438 0.810567 4.20254 0
M  V30 4550 C 419.764 0.00286382 5.347 0
M  V30 4551 C 421.064 2.1132 4.77641 0
M  V30 4552 H 422.758 1.46039 2.61368 0
M  V30 4553 H 420.304 0.703648 1.25638 0
M  V30 4554 H 422.257 -0.393286 4.19561 0
M  V30 4555 H 420.981 -0.997766 3.10986 0
M  V30 4556 H 419.64 1.09925 3.49731 0
M  V30 4557 H 419.288 -0.907765 4.94741 0
M  V30 4558 H 418.988 0.601444 5.84514 0
M  V30 4559 H 420.512 -0.295808 6.09883 0
M  V30 4560 H 421.926 1.87148 5.41893 0
M  V30 4561 H 420.323 2.66164 5.37845 0
M  V30 4562 H 421.393 2.78393 3.9702 0
M  V30 4563 N 422.737 -1.36956 0.779787 0
M  V30 4564 C 423.667 -2.32761 0.185651 0
M  V30 4565 C 424.648 -1.56177 -0.673989 0
M  V30 4566 O 425.833 -1.84378 -0.609797 0
M  V30 4567 C 422.963 -3.40418 -0.687964 0
M  V30 4568 C 421.917 -4.27941 0.0710102 0
M  V30 4569 C 421.243 -5.26681 -0.922573 0
M  V30 4570 C 422.543 -5.07006 1.25467 0
M  V30 4571 H 424.237 -2.82698 0.986008 0
M  V30 4572 H 421.783 -1.3592 0.475592 0
M  V30 4573 H 423.736 -4.06423 -1.11348 0
M  V30 4574 H 422.46 -2.89025 -1.52093 0
M  V30 4575 H 421.119 -3.63478 0.47739 0
M  V30 4576 H 420.767 -4.71565 -1.7503 0
M  V30 4577 H 420.467 -5.86103 -0.419237 0
M  V30 4578 H 421.991 -5.9556 -1.34686 0
M  V30 4579 H 423.405 -5.66105 0.905401 0
M  V30 4580 H 421.802 -5.75793 1.69063 0
M  V30 4581 H 422.872 -4.3921 2.05481 0
M  V30 4582 N 424.215 -0.530993 -1.48385 0
M  V30 4583 C 425.463 0.00273189 -2.021 0
M  V30 4584 C 425.784 1.34672 -1.41027 0
M  V30 4585 O 425.054 1.8724 -0.576012 0
M  V30 4586 H 423.634 0.00399774 -0.746989 0
M  V30 4587 H 426.296 -0.695054 -1.82085 0
M  V30 4588 H 425.392 0.11031 -3.11905 0
M  V30 4589 N 425.693 1.55336 -0.266172 0
M  V30 4590 C 426.923 2.03506 0.356239 0
M  V30 4591 C 427.331 1.14426 1.50676 0
M  V30 4592 O 426.674 0.155043 1.83045 0
M  V30 4593 C 426.736 3.47848 0.90785 0
M  V30 4594 C 426.4 4.56861 -0.112888 0
M  V30 4595 C 427.397 5.11528 -0.929264 0
M  V30 4596 C 425.082 5.01704 -0.244546 0
M  V30 4597 C 427.076 6.09549 -1.86357 0
M  V30 4598 C 424.763 5.99553 -1.18234 0
M  V30 4599 C 425.761 6.53356 -1.99036 0
M  V30 4600 O 425.449 7.49293 -2.91231 0
M  V30 4601 H 425.181 0.670444 0.08649 0
M  V30 4602 H 427.735 2.01598 -0.39337 0
M  V30 4603 H 425.965 3.46967 1.70737 0
M  V30 4604 H 427.654 3.79407 1.44239 0
M  V30 4605 H 428.42 4.77701 -0.838237 0
M  V30 4606 H 424.299 4.59477 0.374359 0
M  V30 4607 H 427.843 6.51469 -2.49467 0
M  V30 4608 H 423.74 6.32799 -1.27421 0
M  V30 4609 H 424.508 7.66978 -2.8581 0
M  V30 4610 N 427.171 -0.0066808 1.57599 0
M  V30 4611 C 428.119 -1.01851 2.09115 0
M  V30 4612 C 429.113 -1.36021 1.00969 0
M  V30 4613 O 430.319 -1.34663 1.19439 0
M  V30 4614 H 426.694 -0.346083 0.667631 0
M  V30 4615 H 428.665 -0.558394 2.93129 0
M  V30 4616 C 427.414 -2.30374 2.60429 0
M  V30 4617 H 426.737 -2.04947 3.43273 0
M  V30 4618 H 428.177 -2.99466 3.00161 0
M  V30 4619 C 426.636 -3.00893 1.51542 0
M  V30 4620 O 427.166 -3.91614 0.894484 0
M  V30 4621 N 425.372 -2.62603 1.2445 0
M  V30 4622 H 424.919 -1.88911 1.75129 0
M  V30 4623 H 424.877 -3.10101 0.518137 0
M  V30 4624 N 428.649 -1.55105 -0.279332 0
M  V30 4625 C 429.895 -1.75672 -1.01327 0
M  V30 4626 C 430.228 -0.552739 -1.86168 0
M  V30 4627 O 429.503 0.449827 -1.89227 0
M  V30 4628 C 429.786 -3.05825 -1.90114 0
M  V30 4629 C 429.639 -4.36565 -1.08309 0
M  V30 4630 C 430.958 -3.31975 -2.8893 0
M  V30 4631 H 428.077 -0.639149 -0.366957 0
M  V30 4632 H 430.719 -1.87833 -0.286154 0
M  V30 4633 H 428.869 -2.95588 -2.52111 0
M  V30 4634 H 430.541 -4.58751 -0.484314 0
M  V30 4635 H 428.784 -4.32076 -0.386362 0
M  V30 4636 H 429.455 -5.23946 -1.73737 0
M  V30 4637 H 431.931 -3.41963 -2.37067 0
M  V30 4638 H 430.807 -4.2432 -3.48201 0
M  V30 4639 H 431.068 -2.51309 -3.63725 0
M  V30 4640 N 430.127 0.543554 -1.4793 0
M  V30 4641 C 431.374 1.30008 -1.55255 0
M  V30 4642 C 431.702 1.93245 -0.220612 0
M  V30 4643 O 430.957 1.79141 0.787843 0
M  V30 4644 C 431.256 2.42078 -2.62932 0
M  V30 4645 C 430.922 1.96583 -4.0579 0
M  V30 4646 C 429.584 1.83893 -4.44676 0
M  V30 4647 C 431.936 1.62034 -4.95373 0
M  V30 4648 C 429.264 1.34969 -5.70964 0
M  V30 4649 C 431.616 1.14577 -6.22137 0
M  V30 4650 C 430.28 1.00493 -6.59892 0
M  V30 4651 H 429.55 0.475735 -0.568117 0
M  V30 4652 H 432.197 0.608075 -1.81589 0
M  V30 4653 H 430.502 3.16892 -2.30406 0
M  V30 4654 H 432.199 3.00236 -2.65818 0
M  V30 4655 H 428.789 2.07407 -3.75074 0
M  V30 4656 H 432.973 1.70705 -4.66019 0
M  V30 4657 H 428.229 1.2274 -5.98953 0
M  V30 4658 H 432.403 0.869109 -6.90955 0
M  V30 4659 H 430.03 0.623624 -7.57638 0
M  V30 4660 N 431.605 1.3629 0.791371 0
M  V30 4661 C 432.535 1.33137 1.91825 0
M  V30 4662 C 433.516 0.203168 1.68882 0
M  V30 4663 O 434.701 0.400509 1.90025 0
M  V30 4664 C 431.831 1.11793 3.28816 0
M  V30 4665 C 430.785 2.21417 3.66277 0
M  V30 4666 C 430.111 1.85218 5.01596 0
M  V30 4667 C 431.411 3.63489 3.75064 0
M  V30 4668 H 433.105 2.2743 1.9472 0
M  V30 4669 H 430.651 1.09479 0.935437 0
M  V30 4670 H 432.604 1.08222 4.07266 0
M  V30 4671 H 431.328 0.139501 3.26302 0
M  V30 4672 H 429.987 2.2411 2.90121 0
M  V30 4673 H 429.635 0.859544 4.95602 0
M  V30 4674 H 429.335 2.58611 5.27631 0
M  V30 4675 H 430.859 1.832 5.82469 0
M  V30 4676 H 432.273 3.63034 4.43711 0
M  V30 4677 H 430.67 4.35771 4.12582 0
M  V30 4678 H 431.74 3.98536 2.76219 0
M  V30 4679 N 433.083 -1.0153 1.20538 0
M  V30 4680 C 434.013 -2.11972 0.979295 0
M  V30 4681 C 434.994 -1.6985 -0.0921787 0
M  V30 4682 O 436.179 -1.94089 0.0655932 0
M  V30 4683 C 433.309 -3.43201 0.531984 0
M  V30 4684 C 432.263 -3.9907 1.54685 0
M  V30 4685 C 431.589 -5.26082 0.956127 0
M  V30 4686 C 432.889 -4.32313 2.93092 0
M  V30 4687 H 434.583 -2.31143 1.90298 0
M  V30 4688 H 432.129 -1.11079 0.916372 0
M  V30 4689 H 434.082 -4.1985 0.361044 0
M  V30 4690 H 432.806 -3.23792 -0.427327 0
M  V30 4691 H 431.465 -3.2453 1.70517 0
M  V30 4692 H 431.113 -5.02999 -0.0111538 0
M  V30 4693 H 430.813 -5.64426 1.63393 0
M  V30 4694 H 432.337 -6.05386 0.796284 0
M  V30 4695 H 433.751 -4.99845 2.80763 0
M  V30 4696 H 432.148 -4.81774 3.57791 0
M  V30 4697 H 433.218 -3.41025 3.44717 0
M  V30 4698 N 434.561 -1.01147 -1.20859 0
M  V30 4699 C 435.494 -0.522108 -2.22147 0
M  V30 4700 C 436.472 0.427686 -1.56874 0
M  V30 4701 O 437.656 0.34889 -1.85243 0
M  V30 4702 C 434.783 0.240819 -3.37843 0
M  V30 4703 C 433.829 -0.657752 -4.21398 0
M  V30 4704 S 434.662 -2.12393 -4.91578 0
M  V30 4705 C 435.818 -1.37102 -6.10699 0
M  V30 4706 H 436.051 -1.38035 -2.63313 0
M  V30 4707 H 433.584 -0.819941 -1.30829 0
M  V30 4708 H 435.542 0.674908 -4.04914 0
M  V30 4709 H 434.203 1.07457 -2.95147 0
M  V30 4710 H 433.396 -0.0697456 -5.03952 0
M  V30 4711 H 432.998 -1.0294 -3.59555 0
M  V30 4712 H 435.29 -0.648315 -6.74391 0
M  V30 4713 H 436.233 -2.17252 -6.73949 0
M  V30 4714 H 436.641 -0.876154 -5.57659 0
M  V30 4715 N 436.039 1.36541 -0.78704 0
M  V30 4716 C 436.972 2.27831 -0.129765 0
M  V30 4717 C 437.95 1.47105 0.692732 0
M  V30 4718 O 439.134 1.7641 0.664222 0
M  V30 4719 C 436.261 3.28577 0.821883 0
M  V30 4720 C 435.307 4.26422 0.0814771 0
M  V30 4721 S 436.14 5.20919 -1.24112 0
M  V30 4722 C 437.296 6.25212 -0.293409 0
M  V30 4723 H 437.529 2.83229 -0.903811 0
M  V30 4724 H 435.062 1.43046 -0.581144 0
M  V30 4725 H 437.02 3.87123 1.3655 0
M  V30 4726 H 435.681 2.72096 1.56916 0
M  V30 4727 H 434.874 4.97554 0.803485 0
M  V30 4728 H 434.476 3.71944 -0.391589 0
M  V30 4729 H 436.768 6.75435 0.528622 0
M  V30 4730 H 437.711 7.01378 -0.973344 0
M  V30 4731 H 438.119 5.64407 0.102196 0
M  V30 4732 N 437.518 0.538854 1.48102 0
M  V30 4733 C 438.466 -0.232325 2.31437 0
M  V30 4734 C 439.46 -0.927004 1.41785 0
M  V30 4735 O 440.666 -0.850378 1.58646 0
M  V30 4736 H 437.041 -0.0937916 0.746128 0
M  V30 4737 H 439.012 0.489986 2.9435 0
M  V30 4738 C 437.761 -1.26074 3.24038 0
M  V30 4739 H 437.084 -0.735609 3.92974 0
M  V30 4740 H 438.524 -1.77157 3.85216 0
M  V30 4741 C 436.983 -2.29902 2.46265 0
M  V30 4742 O 437.513 -3.36502 2.19384 0
M  V30 4743 N 435.719 -2.03348 2.07601 0
M  V30 4744 H 435.266 -1.16675 2.29662 0
M  V30 4745 H 435.224 -2.73038 1.55877 0
M  V30 4746 N 438.996 -1.55193 0.274407 0
M  V30 4747 C 440.273 -1.91584 -0.394331 0
M  V30 4748 C 440.653 -1.19858 -1.73774 0
M  V30 4749 O 440.001 -0.3252 -2.26174 0
M  V30 4750 C 440.211 -3.4487 -0.535311 0
M  V30 4751 C 441.559 -4.16636 -0.818534 0
M  V30 4752 O 442.583 -3.5076 -0.620146 0
M  V30 4753 O 441.442 -5.33209 -1.19792 0
M  V30 4754 H 438.536 -0.798349 -0.215794 0
M  V30 4755 H 441.082 -1.66646 0.320507 0
M  V30 4756 H 439.854 -3.89145 0.410141 0
M  V30 4757 H 439.477 -3.75759 -1.29964 0
M  V30 4758 N 440.474 -0.00167713 -1.576 0
M  V30 4759 C 441.404 0.988091 -2.11563 0
M  V30 4760 C 442.385 1.35736 -1.02517 0
M  V30 4761 O 443.57 1.44082 -1.30208 0
M  V30 4762 C 440.7 2.27941 -2.62031 0
M  V30 4763 C 439.654 2.0517 -3.75619 0
M  V30 4764 C 438.98 3.4033 -4.12407 0
M  V30 4765 C 440.28 1.41294 -5.02825 0
M  V30 4766 H 441.974 0.538771 -2.94513 0
M  V30 4767 H 439.52 0.257712 -1.41675 0
M  V30 4768 H 441.473 2.97539 -2.9841 0
M  V30 4769 H 440.197 2.74989 -1.76205 0
M  V30 4770 H 438.856 1.37998 -3.39635 0
M  V30 4771 H 438.504 3.85085 -3.23603 0
M  V30 4772 H 438.204 3.25909 -4.88935 0
M  V30 4773 H 439.728 4.1124 -4.51347 0
M  V30 4774 H 441.142 2.00851 -5.36965 0
M  V30 4775 H 439.539 1.37356 -5.84169 0
M  V30 4776 H 440.609 0.382362 -4.8339 0
M  V30 4777 N 441.952 1.55251 0.271103 0
M  V30 4778 C 442.882 1.9127 1.33933 0
M  V30 4779 C 443.863 0.77478 1.5143 0
M  V30 4780 O 445.048 1.03307 1.64442 0
M  V30 4781 C 442.178 2.18627 2.69851 0
M  V30 4782 C 441.132 3.34442 2.67081 0
M  V30 4783 C 440.458 3.47284 4.06569 0
M  V30 4784 C 441.758 4.70784 2.26185 0
M  V30 4785 H 443.452 2.80744 1.04035 0
M  V30 4786 H 440.998 1.35077 0.499017 0
M  V30 4787 H 442.951 2.42413 3.44694 0
M  V30 4788 H 441.675 1.25955 3.01335 0
M  V30 4789 H 440.334 3.10627 1.94695 0
M  V30 4790 H 439.982 2.52074 4.35279 0
M  V30 4791 H 439.682 4.25152 4.0561 0
M  V30 4792 H 441.206 3.73363 4.83148 0
M  V30 4793 H 442.62 4.94102 2.90751 0
M  V30 4794 H 441.017 5.51582 2.36384 0
M  V30 4795 H 442.087 4.69478 1.21319 0
M  V30 4796 N 443.43 -0.535701 1.48216 0
M  V30 4797 C 444.841 -1.11769 1.49548 0
M  V30 4798 C 445.192 -1.94442 0.26207 0
M  V30 4799 O 444.317 -2.06987 -0.631287 0
M  V30 4800 C 444.912 -2.03367 2.70975 0
M  V30 4801 C 443.471 -2.56795 2.75196 0
M  V30 4802 C 442.618 -1.33631 2.42977 0
M  V30 4803 H 445.569 -0.321232 1.55415 0
M  V30 4804 H 445.59 -2.87569 2.49167 0
M  V30 4805 H 445.102 -1.43169 3.60727 0
M  V30 4806 H 443.203 -3.20731 1.89638 0
M  V30 4807 H 443.316 -2.9632 3.76472 0
M  V30 4808 H 441.68 -1.6502 1.94012 0
M  V30 4809 H 442.463 -0.75194 3.34964 0
M  V30 4810 N 444.908 -1.36708 -0.784132 0
M  V30 4811 C 445.871 -1.31307 -1.87859 0
M  V30 4812 C 446.871 -0.219654 -1.59293 0
M  V30 4813 O 448.061 -0.47476 -1.67606 0
M  V30 4814 C 445.193 -1.03679 -3.24751 0
M  V30 4815 H 446.386 -2.28647 -1.94064 0
M  V30 4816 H 443.939 -1.21558 -0.98252 0
M  V30 4817 H 444.674 -0.0681936 -3.24228 0
M  V30 4818 H 444.459 -1.82811 -3.46876 0
M  V30 4819 H 445.949 -1.02518 -4.04821 0
M  V30 4820 N 446.386 1.0089 -1.21074 0
M  V30 4821 C 447.611 1.78727 -1.05221 0
M  V30 4822 C 448.036 1.83932 0.393795 0
M  V30 4823 O 447.394 1.28004 1.28393 0
M  V30 4824 C 447.442 3.20665 -1.64944 0
M  V30 4825 O 446.546 4.02632 -0.892273 0
M  V30 4826 H 445.887 0.550973 -0.370574 0
M  V30 4827 H 448.417 1.26847 -1.60534 0
M  V30 4828 H 448.427 3.71352 -1.69002 0
M  V30 4829 H 447.102 3.16191 -2.70177 0
M  V30 4830 H 445.679 3.61207 -0.926492 0
M  V30 4831 N 447.864 1.01787 1.20321 0
M  V30 4832 C 449.112 0.706538 1.89347 0
M  V30 4833 C 449.433 -0.766289 1.79313 0
M  V30 4834 O 448.703 -1.55126 1.19635 0
M  V30 4835 H 447.283 0.258348 0.700903 0
M  V30 4836 H 449.945 1.28974 1.46122 0
M  V30 4837 H 449.041 0.991066 2.95946 0
M  V30 4838 N 449.342 -1.36122 0.79427 0
M  V30 4839 C 450.57 -2.03362 0.380989 0
M  V30 4840 C 450.985 -1.59881 -1.00416 0
M  V30 4841 O 450.342 -0.790515 -1.6449 0
M  V30 4842 C 450.393 -3.58804 0.440649 0
M  V30 4843 O 450.114 -4.007 1.77118 0
M  V30 4844 C 451.615 -4.43296 0.0186117 0
M  V30 4845 H 448.835 -0.652526 0.156367 0
M  V30 4846 H 451.379 -1.73998 1.07447 0
M  V30 4847 H 449.534 -3.8686 -0.204458 0
M  V30 4848 H 449.948 -4.95309 1.72538 0
M  V30 4849 H 451.422 -5.51887 0.111488 0
M  V30 4850 H 451.899 -4.2684 -1.03461 0
M  V30 4851 H 452.505 -4.20512 0.636395 0
M  V30 4852 N 450.82 -0.546701 -1.47814 0
M  V30 4853 C 452.231 -0.110564 -1.86372 0
M  V30 4854 C 452.582 1.31678 -1.45449 0
M  V30 4855 O 451.707 1.98889 -0.852758 0
M  V30 4856 C 452.302 -0.193873 -3.38245 0
M  V30 4857 C 450.861 0.187164 -3.75934 0
M  V30 4858 C 450.008 -0.546166 -2.71868 0
M  V30 4859 H 452.959 -0.757022 -1.39481 0
M  V30 4860 H 452.98 0.590218 -3.75895 0
M  V30 4861 H 452.492 -1.23282 -3.67999 0
M  V30 4862 H 450.593 1.22762 -3.51796 0
M  V30 4863 H 450.706 -0.164083 -4.78819 0
M  V30 4864 H 449.07 0.00953904 -2.54698 0
M  V30 4865 H 449.853 -1.58606 -3.04465 0
M  V30 4866 N 452.299 1.55045 -0.282633 0
M  V30 4867 C 453.229 2.2579 0.595066 0
M  V30 4868 C 454.21 1.25074 1.15284 0
M  V30 4869 O 455.395 1.5381 1.18559 0
M  V30 4870 C 452.525 2.98472 1.77572 0
M  V30 4871 C 451.479 4.0618 1.34914 0
M  V30 4872 C 450.805 4.66477 2.6135 0
M  V30 4873 C 452.105 5.1996 0.493821 0
M  V30 4874 H 453.799 2.994 0.00505653 0
M  V30 4875 H 451.345 1.44 0.000992001 0
M  V30 4876 H 453.298 3.46677 2.39568 0
M  V30 4877 H 452.022 2.2241 2.39168 0
M  V30 4878 H 450.681 3.58797 0.752338 0
M  V30 4879 H 450.329 3.87074 3.2122 0
M  V30 4880 H 450.029 5.39207 2.33516 0
M  V30 4881 H 451.553 5.17435 3.24181 0
M  V30 4882 H 452.967 5.64172 1.01898 0
M  V30 4883 H 451.364 5.99299 0.310047 0
M  V30 4884 H 452.434 4.82462 -0.485593 0
M  V30 4885 N 453.777 0.010035 1.57597 0
M  V30 4886 C 455.026 -0.671945 1.90178 0
M  V30 4887 C 455.339 -1.74376 0.886131 0
M  V30 4888 O 456.545 -2.48107 1.10252 0
M  V30 4889 C 455.001 -1.24636 3.3763 0
M  V30 4890 C 454.609 -0.208838 4.47513 0
M  V30 4891 C 456.353 -1.90595 3.79307 0
M  V30 4892 C 454.26 -0.793814 5.86048 0
M  V30 4893 H 453.19 -0.25474 0.709665 0
M  V30 4894 H 455.841 0.0722206 1.83358 0
M  V30 4895 H 454.223 -2.04152 3.3932 0
M  V30 4896 H 455.397 0.562463 4.57354 0
M  V30 4897 H 453.712 0.350889 4.14919 0
M  V30 4898 H 456.309 -2.35284 4.80151 0
M  V30 4899 H 456.652 -2.74074 3.13352 0
M  V30 4900 H 457.185 -1.17798 3.79958 0
M  V30 4901 H 453.924 0.00240855 6.555 0
M  V30 4902 H 453.444 -1.53404 5.79851 0
M  V30 4903 H 455.123 -1.2894 6.34022 0
M  V30 4904 N 455.255 -1.55392 -0.262866 0
M  V30 4905 C 456.48 -1.80847 -1.01533 0
M  V30 4906 C 456.905 -0.584946 -1.78774 0
M  V30 4907 O 456.263 0.465701 -1.75217 0
M  V30 4908 C 456.311 -3.03866 -1.94159 0
M  V30 4909 O 455.415 -2.79662 -3.03089 0
M  V30 4910 H 454.756 -0.597441 -0.289759 0
M  V30 4911 H 457.286 -2.02553 -0.288698 0
M  V30 4912 H 457.296 -3.32872 -2.35924 0
M  V30 4913 H 455.971 -3.92564 -1.37354 0
M  V30 4914 H 454.548 -2.61781 -2.65566 0
M  V30 4915 N 456.733 0.527833 -1.48498 0
M  V30 4916 C 457.979 1.28545 -1.56857 0
M  V30 4917 C 458.312 1.92678 -0.242651 0
M  V30 4918 O 457.587 1.79394 0.751545 0
M  V30 4919 C 457.87 2.37314 -2.70839 0
M  V30 4920 C 457.723 1.77858 -4.13142 0
M  V30 4921 C 459.042 3.39068 -2.80573 0
M  V30 4922 H 456.161 0.466006 -0.570971 0
M  V30 4923 H 458.803 0.587784 -1.8068 0
M  V30 4924 H 456.953 2.96821 -2.50658 0
M  V30 4925 H 458.625 1.22385 -4.44769 0
M  V30 4926 H 456.868 1.08383 -4.20042 0
M  V30 4927 H 457.539 2.56624 -4.88721 0
M  V30 4928 H 460.015 2.89518 -2.98862 0
M  V30 4929 H 458.891 4.12566 -3.6205 0
M  V30 4930 H 459.152 3.9975 -1.88818 0
M  V30 4931 N 458.211 1.37122 0.776871 0
M  V30 4932 C 459.441 1.35034 1.56363 0
M  V30 4933 C 459.849 -0.0674681 1.8908 0
M  V30 4934 O 459.192 -1.03826 1.51545 0
M  V30 4935 C 459.254 2.11894 2.90415 0
M  V30 4936 C 458.918 3.60897 2.80362 0
M  V30 4937 C 459.915 4.54887 2.51742 0
M  V30 4938 C 457.6 4.03951 2.98545 0
M  V30 4939 C 459.594 5.89909 2.41426 0
M  V30 4940 C 457.281 5.3906 2.87849 0
M  V30 4941 C 458.279 6.31852 2.5933 0
M  V30 4942 O 457.967 7.64479 2.48651 0
M  V30 4943 H 457.699 0.464402 0.49123 0
M  V30 4944 H 460.253 1.80992 0.971127 0
M  V30 4945 H 458.483 1.60618 3.51765 0
M  V30 4946 H 460.172 2.02505 3.51776 0
M  V30 4947 H 460.938 4.22934 2.37385 0
M  V30 4948 H 456.817 3.3209 3.19746 0
M  V30 4949 H 460.361 6.62304 2.19086 0
M  V30 4950 H 456.258 5.70617 3.01773 0
M  V30 4951 H 457.026 7.74742 2.64039 0
M  V30 4952 N 459.689 -1.00246 1.21608 0
M  V30 4953 C 460.936 -1.74061 1.03485 0
M  V30 4954 C 461.264 -1.89658 -0.431308 0
M  V30 4955 O 460.519 -1.42976 -1.33627 0
M  V30 4956 C 460.818 -3.15448 1.68009 0
M  V30 4957 C 460.484 -3.19792 3.17874 0
M  V30 4958 C 459.146 -3.20685 3.58768 0
M  V30 4959 C 461.498 -3.16835 4.13842 0
M  V30 4960 C 458.826 -3.16309 4.94131 0
M  V30 4961 C 461.178 -3.14001 5.49169 0
M  V30 4962 C 459.842 -3.13204 5.89457 0
M  V30 4963 H 459.112 -0.636934 0.378677 0
M  V30 4964 H 461.759 -1.17473 1.51236 0
M  V30 4965 H 460.064 -3.75284 1.12557 0
M  V30 4966 H 461.761 -3.71285 1.51487 0
M  V30 4967 H 458.351 -3.19842 2.85305 0
M  V30 4968 H 462.535 -3.15303 3.83272 0
M  V30 4969 H 457.791 -3.14032 5.24589 0
M  V30 4970 H 461.965 -3.10667 6.23265 0
M  V30 4971 H 459.592 -3.09568 6.94314 0
M  V30 4972 N 461.167 -1.02423 -1.1978 0
M  V30 4973 C 462.13 -0.605703 -2.21052 0
M  V30 4974 C 463.13 0.328209 -1.57415 0
M  V30 4975 O 464.32 0.115853 -1.73814 0
M  V30 4976 C 461.452 0.114366 -3.40708 0
M  V30 4977 H 462.645 -1.5017 -2.59594 0
M  V30 4978 H 460.198 -0.814888 -1.33376 0
M  V30 4979 H 460.933 1.02492 -3.07678 0
M  V30 4980 H 460.718 -0.556641 -3.88129 0
M  V30 4981 H 462.208 0.394272 -4.15735 0
M  V30 4982 N 462.645 1.35699 -0.801477 0
M  V30 4983 C 463.575 2.32436 -0.222658 0
M  V30 4984 C 464.556 1.5723 0.649057 0
M  V30 4985 O 465.741 1.85324 0.580387 0
M  V30 4986 C 462.871 3.41469 0.633719 0
M  V30 4987 C 461.825 4.27774 -0.139083 0
M  V30 4988 C 461.151 5.28082 0.838666 0
M  V30 4989 C 462.451 5.04946 -1.33517 0
M  V30 4990 H 464.145 2.81094 -1.03086 0
M  V30 4991 H 461.691 1.35146 -0.497155 0
M  V30 4992 H 463.644 4.08143 1.04868 0
M  V30 4993 H 462.368 2.91408 1.47475 0
M  V30 4994 H 461.027 3.62673 -0.535156 0
M  V30 4995 H 460.675 4.7429 1.67506 0
M  V30 4996 H 460.375 5.86695 0.32594 0
M  V30 4997 H 461.899 5.97628 1.25194 0
M  V30 4998 H 463.313 5.64593 -0.995349 0
M  V30 4999 H 461.71 5.7303 -1.78202 0
M  V30 5000 H 462.78 4.35886 -2.12442 0
M  V30 5001 N 464.123 0.554532 1.47522 0
M  V30 5002 C 465.363 0.0317994 2.04375 0
M  V30 5003 C 465.727 -1.29242 1.41988 0
M  V30 5004 O 466.928 -1.90269 1.89872 0
M  V30 5005 C 465.199 -0.0623344 3.57346 0
M  V30 5006 S 466.758 -0.531578 4.35568 0
M  V30 5007 H 463.576 0.0238553 0.7106 0
M  V30 5008 H 466.178 0.74066 1.80927 0
M  V30 5009 H 464.882 0.905857 4.00278 0
M  V30 5010 H 464.413 -0.794831 3.85287 0
M  V30 5011 H 466.428 -1.79175 4.62721 0
M  V30 5012 N 465.601 -1.54893 0.290851 0
M  V30 5013 C 466.531 -2.26103 -0.583084 0
M  V30 5014 C 467.512 -1.25684 -1.14619 0
M  V30 5015 O 468.697 -1.54436 -1.17741 0
M  V30 5016 C 465.827 -2.99409 -1.75987 0
M  V30 5017 C 464.781 -4.0689 -1.32758 0
M  V30 5018 C 464.107 -4.67856 -2.58872 0
M  V30 5019 C 465.407 -5.20215 -0.46624 0
M  V30 5020 H 467.101 -2.99398 0.0108214 0
M  V30 5021 H 464.647 -1.43998 0.00664468 0
M  V30 5022 H 466.6 -3.47943 -2.37727 0
M  V30 5023 H 465.324 -2.23675 -2.37985 0
M  V30 5024 H 463.983 -3.59191 -0.733299 0
M  V30 5025 H 463.631 -3.88772 -3.19163 0
M  V30 5026 H 463.331 -5.40438 -2.30653 0
M  V30 5027 H 464.855 -5.19147 -3.21433 0
M  V30 5028 H 466.269 -5.64704 -0.989047 0
M  V30 5029 H 464.666 -5.99455 -0.27826 0
M  V30 5030 H 465.736 -4.82198 0.511173 0
M  V30 5031 N 467.08 -0.0183926 -1.57589 0
M  V30 5032 C 468.305 0.676634 -1.96052 0
M  V30 5033 C 468.73 1.6548 -0.894307 0
M  V30 5034 O 468.088 1.80712 0.145849 0
M  V30 5035 C 468.136 1.36872 -3.33614 0
M  V30 5036 O 467.24 2.48372 -3.29219 0
M  V30 5037 H 466.581 0.1786 -0.63953 0
M  V30 5038 H 469.111 -0.077056 -2.04455 0
M  V30 5039 H 469.121 1.72797 -3.69601 0
M  V30 5040 H 467.796 0.651636 -4.10763 0
M  V30 5041 H 466.373 2.14639 -3.04934 0
M  V30 5042 N 468.558 1.5553 0.254621 0
M  V30 5043 C 469.488 1.9268 1.31897 0
M  V30 5044 C 470.469 0.790797 1.506 0
M  V30 5045 O 471.654 1.05045 1.63337 0
M  V30 5046 C 468.784 2.21477 2.67517 0
M  V30 5047 C 467.738 3.37256 2.63519 0
M  V30 5048 C 467.064 3.51576 4.02862 0
M  V30 5049 C 468.364 4.73157 2.21179 0
M  V30 5050 H 470.058 2.81832 1.01051 0
M  V30 5051 H 467.604 1.35599 0.484662 0
M  V30 5052 H 469.557 2.46055 3.42104 0
M  V30 5053 H 468.281 1.29144 2.99982 0
M  V30 5054 H 466.94 3.12675 1.9139 0
M  V30 5055 H 466.588 2.56676 4.32581 0
M  V30 5056 H 466.288 4.2943 4.01078 0
M  V30 5057 H 467.812 3.78467 4.79161 0
M  V30 5058 H 469.226 4.97158 2.85494 0
M  V30 5059 H 467.623 5.54058 2.30521 0
M  V30 5060 H 468.693 4.70739 1.16332 0
M  V30 5061 N 470.036 -0.519951 1.48776 0
M  V30 5062 C 470.969 -1.64053 1.58625 0
M  V30 5063 C 471.947 -1.5664 0.43618 0
M  V30 5064 O 473.131 -1.76969 0.649159 0
M  V30 5065 C 470.258 -3.02497 1.52359 0
M  V30 5066 C 469.304 -3.28235 2.72331 0
M  V30 5067 S 470.137 -3.13414 4.34203 0
M  V30 5068 C 471.293 -4.54287 4.30551 0
M  V30 5069 H 471.526 -1.5545 2.53422 0
M  V30 5070 H 469.059 -0.703681 1.37433 0
M  V30 5071 H 471.017 -3.82336 1.4943 0
M  V30 5072 H 469.678 -3.08531 0.588824 0
M  V30 5073 H 468.871 -4.29256 2.64113 0
M  V30 5074 H 468.473 -2.56085 2.72574 0
M  V30 5075 H 470.765 -5.46006 4.01103 0
M  V30 5076 H 471.708 -4.67558 5.31785 0
M  V30 5077 H 472.116 -4.34079 3.60881 0
M  V30 5078 N 471.514 -1.37532 -0.769588 0
M  V30 5079 C 472.76 -1.33057 -1.53048 0
M  V30 5080 C 473.093 0.0841865 -1.94017 0
M  V30 5081 O 472.368 1.04198 -1.64235 0
M  V30 5082 C 472.651 -2.27166 -2.79406 0
M  V30 5083 C 472.504 -3.77429 -2.44677 0
M  V30 5084 C 473.823 -2.19683 -3.81349 0
M  V30 5085 H 470.942 -0.484655 -0.555228 0
M  V30 5086 H 473.584 -1.68251 -0.882702 0
M  V30 5087 H 471.734 -1.97283 -3.34682 0
M  V30 5088 H 473.406 -4.17918 -1.953 0
M  V30 5089 H 471.649 -3.95892 -1.77346 0
M  V30 5090 H 472.32 -4.38716 -3.35011 0
M  V30 5091 H 474.796 -2.46029 -3.35573 0
M  V30 5092 H 473.672 -2.87668 -4.67481 0
M  V30 5093 H 473.933 -1.19045 -4.25771 0
M  V30 5094 N 472.992 0.995999 -1.22138 0
M  V30 5095 C 474.238 1.73767 -1.04561 0
M  V30 5096 C 474.571 1.89633 0.418698 0
M  V30 5097 O 473.846 1.43723 1.3105 0
M  V30 5098 C 474.129 3.14505 -1.75382 0
M  V30 5099 C 473.982 3.06306 -3.29388 0
M  V30 5100 C 475.301 4.13615 -1.50369 0
M  V30 5101 H 472.42 0.630728 -0.38125 0
M  V30 5102 H 475.062 1.16057 -1.50435 0
M  V30 5103 H 473.212 3.63775 -1.36383 0
M  V30 5104 H 474.884 2.64681 -3.77812 0
M  V30 5105 H 473.127 2.43186 -3.59226 0
M  V30 5106 H 473.798 4.05884 -3.74116 0
M  V30 5107 H 476.274 3.73089 -1.84239 0
M  V30 5108 H 475.15 5.10212 -2.02421 0
M  V30 5109 H 475.411 4.39949 -0.435611 0
M  V30 5110 N 474.47 1.03057 1.19235 0
M  V30 5111 C 475.695 0.74757 1.93458 0
M  V30 5112 C 476.12 -0.687648 1.7508 0
M  V30 5113 O 475.478 -1.47499 1.05422 0
M  V30 5114 C 475.526 1.10604 3.43219 0
M  V30 5115 O 474.63 0.225671 4.11782 0
M  V30 5116 H 473.971 0.276047 0.603899 0
M  V30 5117 H 476.501 1.3777 1.51263 0
M  V30 5118 H 476.511 1.06366 3.93891 0
M  V30 5119 H 475.186 2.15165 3.55917 0
M  V30 5120 H 473.763 0.326795 3.71465 0
M  V30 5121 N 475.948 -1.35272 0.808662 0
M  V30 5122 C 476.878 -2.32315 0.234981 0
M  V30 5123 C 477.859 -1.57572 -0.64071 0
M  V30 5124 O 479.044 -1.8563 -0.570551 0
M  V30 5125 C 476.174 -3.41801 -0.615601 0
M  V30 5126 C 475.128 -4.27694 0.161767 0
M  V30 5127 C 474.454 -5.28519 -0.810649 0
M  V30 5128 C 475.754 -5.04231 1.36193 0
M  V30 5129 H 477.448 -2.80543 1.04575 0
M  V30 5130 H 474.994 -1.3488 0.504315 0
M  V30 5131 H 476.947 -4.08693 -1.02702 0
M  V30 5132 H 475.671 -2.92186 -1.45928 0
M  V30 5133 H 474.33 -3.62384 0.554382 0
M  V30 5134 H 473.978 -4.75171 -1.64988 0
M  V30 5135 H 473.678 -5.8686 -0.294822 0
M  V30 5136 H 475.202 -5.98283 -1.22023 0
M  V30 5137 H 476.616 -5.64058 1.02528 0
M  V30 5138 H 475.013 -5.72077 1.81239 0
M  V30 5139 H 476.083 -4.34753 2.14751 0
M  V30 5140 N 477.426 -0.562348 -1.47226 0
M  V30 5141 C 478.356 0.170627 -2.32876 0
M  V30 5142 C 479.337 0.903748 -1.44106 0
M  V30 5143 O 480.522 0.883206 -1.72954 0
M  V30 5144 C 477.652 1.19786 -3.25989 0
M  V30 5145 C 476.606 0.580875 -4.2404 0
M  V30 5146 C 475.932 1.71311 -5.06514 0
M  V30 5147 C 477.232 -0.468714 -5.20193 0
M  V30 5148 H 478.926 -0.544441 -2.94408 0
M  V30 5149 H 476.472 -0.263271 -1.41573 0
M  V30 5150 H 478.425 1.71884 -3.84752 0
M  V30 5151 H 477.149 1.94294 -2.62521 0
M  V30 5152 H 475.808 0.0811538 -3.6651 0
M  V30 5153 H 475.456 2.44736 -4.39447 0
M  V30 5154 H 475.156 1.30604 -5.72902 0
M  V30 5155 H 476.68 2.23725 -5.68137 0
M  V30 5156 H 478.094 -0.0336028 -5.7329 0
M  V30 5157 H 476.491 -0.794957 -5.94811 0
M  V30 5158 H 477.561 -1.36269 -4.65359 0
M  V30 5159 N 478.904 1.54736 -0.299062 0
M  V30 5160 C 479.814 2.27127 0.587413 0
M  V30 5161 C 480.83 1.30575 1.15005 0
M  V30 5162 O 482.006 1.63554 1.17525 0
M  V30 5163 C 479.071 2.99645 1.74395 0
M  V30 5164 C 478.132 4.11731 1.21559 0
M  V30 5165 C 477.365 4.80781 2.317 0
M  V30 5166 O 477.588 4.4918 3.51558 0
M  V30 5167 O 476.522 5.68226 1.98501 0
M  V30 5168 H 480.348 3.037 0.000250109 0
M  V30 5169 H 477.933 1.49256 -0.0655919 0
M  V30 5170 H 479.815 3.45138 2.4178 0
M  V30 5171 H 478.49 2.25969 2.31775 0
M  V30 5172 H 477.397 3.70641 0.507514 0
M  V30 5173 H 478.73 4.87379 0.687233 0
M  V30 5174 N 480.382 0.0267497 1.57577 0
M  V30 5175 C 481.61 -0.662661 1.96001 0
M  V30 5176 C 482.025 -1.65799 0.903117 0
M  V30 5177 O 481.382 -1.82135 -0.115317 0
M  V30 5178 C 481.433 -1.37112 3.34488 0
M  V30 5179 O 481.154 -0.415683 4.36123 0
M  V30 5180 C 482.655 -2.15257 3.8753 0
M  V30 5181 H 479.875 -0.18287 0.6456 0
M  V30 5182 H 482.419 0.0858116 2.0432 0
M  V30 5183 H 480.574 -2.07101 3.27395 0
M  V30 5184 H 480.988 -0.918496 5.16395 0
M  V30 5185 H 482.462 -2.60285 4.86781 0
M  V30 5186 H 482.939 -2.99063 3.21649 0
M  V30 5187 H 483.545 -1.50231 3.97883 0
M  V30 5188 N 481.861 -1.55662 -0.24637 0
M  V30 5189 C 483.107 -1.77782 -0.975779 0
M  V30 5190 C 483.44 -0.592103 -1.84953 0
M  V30 5191 O 482.715 0.409588 -1.90138 0
M  V30 5192 C 482.998 -3.09788 -1.83584 0
M  V30 5193 C 482.851 -4.38764 -0.990241 0
M  V30 5194 C 484.17 -3.38029 -2.81823 0
M  V30 5195 H 481.289 -0.646789 -0.353317 0
M  V30 5196 H 483.931 -1.88398 -0.246248 0
M  V30 5197 H 482.081 -3.00869 -2.45784 0
M  V30 5198 H 483.753 -4.59675 -0.386897 0
M  V30 5199 H 481.996 -4.32798 -0.294626 0
M  V30 5200 H 482.667 -5.27514 -1.62584 0
M  V30 5201 H 485.143 -3.46915 -2.2976 0
M  V30 5202 H 484.019 -4.3161 -3.39122 0
M  V30 5203 H 484.28 -2.58968 -3.58313 0
M  V30 5204 N 483.339 0.512053 -1.4905 0
M  V30 5205 C 484.586 1.26686 -1.57978 0
M  V30 5206 C 484.914 1.92733 -0.261553 0
M  V30 5207 O 484.169 1.80772 0.749667 0
M  V30 5208 C 484.468 2.36446 -2.68008 0
M  V30 5209 C 484.134 1.87932 -4.09869 0
M  V30 5210 C 482.796 1.74419 -4.48477 0
M  V30 5211 C 485.148 1.5149 -4.98698 0
M  V30 5212 C 482.476 1.22827 -5.73699 0
M  V30 5213 C 484.828 1.01355 -6.24428 0
M  V30 5214 C 483.492 0.864735 -6.61875 0
M  V30 5215 H 482.762 0.463577 -0.578081 0
M  V30 5216 H 485.409 0.569421 -1.82838 0
M  V30 5217 H 483.714 3.11933 -2.37076 0
M  V30 5218 H 485.411 2.9453 -2.72127 0
M  V30 5219 H 482.001 1.99405 -3.79389 0
M  V30 5220 H 486.185 1.60782 -4.69535 0
M  V30 5221 H 481.441 1.10008 -6.01422 0
M  V30 5222 H 485.615 0.722351 -6.92644 0
M  V30 5223 H 483.242 0.462777 -7.5879 0
M  V30 5224 N 484.817 1.37938 0.762283 0
M  V30 5225 C 486.066 1.32989 1.51647 0
M  V30 5226 C 486.379 -0.0802922 1.95435 0
M  V30 5227 O 487.585 -0.252295 2.70325 0
M  V30 5228 C 486.041 2.33485 2.73885 0
M  V30 5229 C 485.649 3.80079 2.37157 0
M  V30 5230 C 487.393 2.37563 3.51801 0
M  V30 5231 C 485.3 4.72283 3.55954 0
M  V30 5232 H 484.23 0.494301 0.56937 0
M  V30 5233 H 486.881 1.63448 0.834083 0
M  V30 5234 H 485.263 1.96056 3.44061 0
M  V30 5235 H 486.437 4.26398 1.74704 0
M  V30 5236 H 484.752 3.79037 1.72395 0
M  V30 5237 H 487.349 3.0365 4.40114 0
M  V30 5238 H 487.692 1.39199 3.92338 0
M  V30 5239 H 488.225 2.73747 2.8863 0
M  V30 5240 H 484.964 5.7181 3.2049 0
M  V30 5241 H 484.484 4.30663 4.1748 0
M  V30 5242 H 486.163 4.89876 4.22647 0
M  V30 5243 N 486.295 -0.989507 1.22664 0
M  V30 5244 C 487.523 -1.76496 1.07967 0
M  V30 5245 C 487.938 -1.85148 -0.369543 0
M  V30 5246 O 487.295 -1.32408 -1.25596 0
M  V30 5247 C 487.346 -3.19642 1.68853 0
M  V30 5248 O 487.067 -3.11453 3.08105 0
M  V30 5249 C 488.568 -4.13621 1.59475 0
M  V30 5250 H 485.788 -0.55418 0.378319 0
M  V30 5251 H 488.332 -1.24378 1.62328 0
M  V30 5252 H 486.487 -3.68816 1.18547 0
M  V30 5253 H 486.901 -4.01499 3.37489 0
M  V30 5254 H 488.375 -5.11801 2.06795 0
M  V30 5255 H 488.852 -4.35718 0.55191 0
M  V30 5256 H 489.458 -3.70346 2.09103 0
M  V30 5257 N 487.773 -1.03688 -1.18687 0
M  V30 5258 C 489.003 -0.756819 -1.92239 0
M  V30 5259 C 489.411 0.689374 -1.76194 0
M  V30 5260 O 488.754 1.48126 -1.08648 0
M  V30 5261 C 488.816 -1.03851 -3.44173 0
M  V30 5262 C 488.48 -2.47785 -3.83994 0
M  V30 5263 C 489.477 -3.4595 -3.88091 0
M  V30 5264 C 487.162 -2.82397 -4.154 0
M  V30 5265 C 489.156 -4.76779 -4.23038 0
M  V30 5266 C 486.843 -4.13433 -4.50018 0
M  V30 5267 C 487.841 -5.10434 -4.53813 0
M  V30 5268 O 487.529 -6.39122 -4.87625 0
M  V30 5269 H 487.261 -0.275678 -0.617234 0
M  V30 5270 H 489.815 -1.38658 -1.51536 0
M  V30 5271 H 488.045 -0.351612 -3.85098 0
M  V30 5272 H 489.734 -0.746846 -3.9897 0
M  V30 5273 H 490.5 -3.20549 -3.63969 0
M  V30 5274 H 486.379 -2.07568 -4.11627 0
M  V30 5275 H 489.923 -5.52488 -4.25914 0
M  V30 5276 H 485.82 -4.38604 -4.736 0
M  V30 5277 H 486.588 -6.43715 -5.05542 0
M  V30 5278 N 489.251 1.34841 -0.815825 0
M  V30 5279 C 490.181 2.32187 -0.247298 0
M  V30 5280 C 491.162 1.5791 0.632344 0
M  V30 5281 O 492.347 1.8593 0.560698 0
M  V30 5282 C 489.477 3.42122 0.597466 0
M  V30 5283 C 488.431 4.27602 -0.184446 0
M  V30 5284 C 487.757 5.28942 0.782609 0
M  V30 5285 C 489.057 5.03502 -1.38865 0
M  V30 5286 H 490.751 2.79985 -1.06061 0
M  V30 5287 H 488.297 1.34611 -0.511461 0
M  V30 5288 H 490.25 4.09232 1.00533 0
M  V30 5289 H 488.974 2.92956 1.44376 0
M  V30 5290 H 487.633 3.62085 -0.573592 0
M  V30 5291 H 487.281 4.7604 1.62466 0
M  V30 5292 H 486.981 5.87008 0.263695 0
M  V30 5293 H 488.505 5.98922 1.18848 0
M  V30 5294 H 489.919 5.63506 -1.05518 0
M  V30 5295 H 488.316 5.71108 -1.8427 0
M  V30 5296 H 489.386 4.33608 -2.17054 0
M  V30 5297 N 490.729 0.570148 1.46925 0
M  V30 5298 C 491.659 -0.158274 2.32963 0
M  V30 5299 C 492.64 -0.896093 1.44583 0
M  V30 5300 O 493.825 -0.874022 1.7342 0
M  V30 5301 C 490.955 -1.18055 3.26619 0
M  V30 5302 C 489.909 -0.558379 4.24342 0
M  V30 5303 C 489.235 -1.68623 5.07415 0
M  V30 5304 C 490.535 0.496295 5.19937 0
M  V30 5305 H 492.229 0.560046 2.94115 0
M  V30 5306 H 489.775 0.270775 1.41431 0
M  V30 5307 H 491.728 -1.69841 3.85658 0
M  V30 5308 H 490.452 -1.92899 2.63548 0
M  V30 5309 H 489.111 -0.0617157 3.66548 0
M  V30 5310 H 488.759 -2.42402 4.40738 0
M  V30 5311 H 488.459 -1.27564 5.73586 0
M  V30 5312 H 489.983 -2.20709 5.69315 0
M  V30 5313 H 491.397 0.0640052 5.73264 0
M  V30 5314 H 489.794 0.82649 5.94381 0
M  V30 5315 H 490.864 1.38735 4.6463 0
M  V30 5316 N 492.207 -1.54576 0.307264 0
M  V30 5317 C 493.157 -2.20467 -0.581249 0
M  V30 5318 C 494.141 -1.17972 -1.09414 0
M  V30 5319 O 495.333 -1.43667 -1.03387 0
M  V30 5320 C 492.462 -2.95369 -1.74963 0
M  V30 5321 C 491.548 -4.05186 -1.25241 0
M  V30 5322 N 491.939 -5.03577 -0.47364 0
M  V30 5323 C 490.237 -4.18841 -1.53259 0
M  V30 5324 C 490.938 -5.81328 -0.208083 0
M  V30 5325 N 489.914 -5.37834 -0.789651 0
M  V30 5326 H 493.716 -2.93892 0.0212221 0
M  V30 5327 H 491.23 -1.62011 0.112325 0
M  V30 5328 H 493.227 -3.41046 -2.39777 0
M  V30 5329 H 491.887 -2.23461 -2.35574 0
M  V30 5330 H 492.898 -5.17766 -0.117963 0
M  V30 5331 H 489.575 -3.58141 -2.14573 0
M  V30 5332 H 490.965 -6.706 0.417793 0
M  V30 5333 N 493.685 -0.035106 -1.57561 0
M  V30 5334 C 494.931 0.64318 -1.92331 0
M  V30 5335 C 495.264 1.71434 -0.912368 0
M  V30 5336 O 494.539 1.94395 0.0640303 0
M  V30 5337 C 494.822 1.25411 -3.37556 0
M  V30 5338 C 494.675 0.192109 -4.4939 0
M  V30 5339 C 495.994 2.17041 -3.82859 0
M  V30 5340 H 493.113 0.232341 -0.699419 0
M  V30 5341 H 495.755 -0.0935889 -1.89769 0
M  V30 5342 H 493.905 1.88205 -3.39869 0
M  V30 5343 H 495.577 -0.438849 -4.59208 0
M  V30 5344 H 493.82 -0.481725 -4.31117 0
M  V30 5345 H 494.491 0.659292 -5.48049 0
M  V30 5346 H 496.967 1.64228 -3.8232 0
M  V30 5347 H 495.843 2.56738 -4.85157 0
M  V30 5348 H 496.104 3.06401 -3.18702 0
M  V30 5349 N 495.163 1.55791 0.238111 0
M  V30 5350 C 496.126 1.90239 1.27835 0
M  V30 5351 C 497.126 0.779552 1.4064 0
M  V30 5352 O 498.316 1.04747 1.3919 0
M  V30 5353 C 495.448 2.13859 2.65475 0
M  V30 5354 H 496.641 2.83262 0.985034 0
M  V30 5355 H 494.194 1.48818 0.477799 0
M  V30 5356 H 494.929 1.23334 2.99932 0
M  V30 5357 H 494.714 2.95643 2.57561 0
M  V30 5358 H 496.204 2.41664 3.40571 0
M  V30 5359 N 496.642 -0.504142 1.49319 0
M  V30 5360 C 497.87 -1.28256 1.62351 0
M  V30 5361 C 498.285 -1.86502 0.293682 0
M  V30 5362 O 497.642 -1.67678 -0.720449 0
M  V30 5363 C 497.693 -2.41507 2.68992 0
M  V30 5364 O 497.414 -1.85656 3.96817 0
M  V30 5365 C 498.915 -3.32929 2.927 0
M  V30 5366 H 496.135 -0.389115 0.546654 0
M  V30 5367 H 498.679 -0.605531 1.95329 0
M  V30 5368 H 496.834 -3.05046 2.38801 0
M  V30 5369 H 497.248 -2.59981 4.55533 0
M  V30 5370 H 498.722 -4.0868 3.71058 0
M  V30 5371 H 499.199 -3.89733 2.02496 0
M  V30 5372 H 499.805 -2.75158 3.24296 0
M  V30 5373 N 498.12 -1.38341 -0.754957 0
M  V30 5374 C 499.348 -1.37704 -1.54419 0
M  V30 5375 C 499.763 0.0335243 -1.8877 0
M  V30 5376 O 499.12 0.999773 -1.52679 0
M  V30 5377 C 499.171 -2.23136 -2.84416 0
M  V30 5378 O 498.892 -3.58697 -2.51531 0
M  V30 5379 C 500.393 -2.30664 -3.78562 0
M  V30 5380 H 497.613 -0.471061 -0.477852 0
M  V30 5381 H 500.157 -1.81902 -0.934446 0
M  V30 5382 H 498.312 -1.82403 -3.41772 0
M  V30 5383 H 498.726 -4.03665 -3.34896 0
M  V30 5384 H 500.2 -2.9473 -4.66732 0
M  V30 5385 H 500.677 -1.3199 -4.18898 0
M  V30 5386 H 501.283 -2.71781 -3.27131 0
M  V30 5387 N 499.598 0.982988 -1.23187 0
M  V30 5388 C 500.53 2.07729 -0.968572 0
M  V30 5389 C 501.543 1.62702 0.0564821 0
M  V30 5390 O 502.732 1.77603 -0.178733 0
M  V30 5391 C 499.832 3.36071 -0.436974 0
M  V30 5392 C 499.005 4.10081 -1.52159 0
M  V30 5393 C 498.064 5.16701 -0.99532 0
M  V30 5394 O 497.09 5.43727 -1.68373 0
M  V30 5395 N 498.292 5.80226 0.178192 0
M  V30 5396 H 501.057 2.30894 -1.9107 0
M  V30 5397 H 498.618 1.14949 -1.1401 0
M  V30 5398 H 500.61 4.04639 -0.0700051 0
M  V30 5399 H 499.18 3.09893 0.410509 0
M  V30 5400 H 498.4 3.36004 -2.06144 0
M  V30 5401 H 499.688 4.56295 -2.25105 0
M  V30 5402 H 499.086 5.60651 0.754096 0
M  V30 5403 H 497.643 6.49982 0.486449 0
M  V30 5404 N 501.076 1.04316 1.18135 0
M  V30 5405 C 502.487 0.775505 1.69832 0
M  V30 5406 C 502.838 -0.703348 1.8316 0
M  V30 5407 O 501.963 -1.54729 1.51287 0
M  V30 5408 C 502.558 1.40112 3.0847 0
M  V30 5409 C 501.117 1.18172 3.57368 0
M  V30 5410 C 500.264 1.49022 2.33854 0
M  V30 5411 H 503.215 1.20925 1.02775 0
M  V30 5412 H 503.236 0.805672 3.71873 0
M  V30 5413 H 502.748 2.47744 2.98738 0
M  V30 5414 H 500.849 0.124258 3.72393 0
M  V30 5415 H 500.962 1.8805 4.40652 0
M  V30 5416 H 499.326 0.909995 2.37889 0
M  V30 5417 H 500.109 2.57768 2.26738 0
M  V30 5418 N 502.554 -1.34406 0.822964 0
M  V30 5419 C 503.965 -1.8069 0.469879 0
M  V30 5420 C 504.316 -1.68223 -1.00972 0
M  V30 5421 O 503.441 -1.22226 -1.78577 0
M  V30 5422 C 504.036 -3.28064 0.846118 0
M  V30 5423 C 502.595 -3.72428 0.545402 0
M  V30 5424 C 501.742 -2.56116 1.06301 0
M  V30 5425 H 504.693 -1.22153 1.01313 0
M  V30 5426 H 504.714 -3.80205 0.149922 0
M  V30 5427 H 504.226 -3.37107 1.92304 0
M  V30 5428 H 502.327 -3.68924 -0.522109 0
M  V30 5429 H 502.44 -4.66548 1.0895 0
M  V30 5430 H 500.804 -2.50048 0.484554 0
M  V30 5431 H 501.587 -2.67928 2.14638 0
M  V30 5432 N 504.032 -0.577932 -1.46621 0
M  V30 5433 C 505.443 -0.150071 -1.86096 0
M  V30 5434 C 505.794 1.28563 -1.48209 0
M  V30 5435 O 504.919 1.97036 -0.894754 0
M  V30 5436 C 505.514 -0.265576 -3.37758 0
M  V30 5437 C 504.073 0.10738 -3.76247 0
M  V30 5438 C 503.22 -0.603711 -2.70649 0
M  V30 5439 H 506.171 -0.786438 -1.37844 0
M  V30 5440 H 506.192 0.510352 -3.77062 0
M  V30 5441 H 505.704 -1.3106 -3.65301 0
M  V30 5442 H 503.805 1.15272 -3.54321 0
M  V30 5443 H 503.918 -0.26561 -4.78363 0
M  V30 5444 H 502.282 -0.0444884 -2.54661 0
M  V30 5445 H 503.065 -1.65029 -3.01032 0
M  V30 5446 N 505.51 1.54411 -0.315457 0
M  V30 5447 C 506.443 2.20265 0.596522 0
M  V30 5448 C 507.421 1.17693 1.12192 0
M  V30 5449 O 508.605 1.46397 1.18744 0
M  V30 5450 C 505.732 2.85794 1.81767 0
M  V30 5451 C 504.778 4.02017 1.42424 0
M  V30 5452 S 505.611 5.33452 0.467836 0
M  V30 5453 C 506.767 6.02471 1.69645 0
M  V30 5454 H 507 2.97277 0.0370896 0
M  V30 5455 H 504.533 1.54079 -0.0995562 0
M  V30 5456 H 506.491 3.24172 2.51839 0
M  V30 5457 H 505.152 2.08601 2.34828 0
M  V30 5458 H 504.345 4.46701 2.33396 0
M  V30 5459 H 503.947 3.65271 0.803311 0
M  V30 5460 H 506.239 6.24157 2.63504 0
M  V30 5461 H 507.182 6.96215 1.29192 0
M  V30 5462 H 507.59 5.32284 1.87974 0
M  V30 5463 N 506.988 0.0434614 1.5754 0
M  V30 5464 C 508.399 -0.493343 1.80064 0
M  V30 5465 C 508.75 -1.71388 0.955023 0
M  V30 5466 O 507.875 -2.15736 0.169434 0
M  V30 5467 C 508.47 -0.90179 3.26578 0
M  V30 5468 C 507.029 -1.38362 3.50047 0
M  V30 5469 C 506.176 -0.355129 2.75017 0
M  V30 5470 H 509.127 0.2694 1.56397 0
M  V30 5471 H 509.148 -1.76523 3.37075 0
M  V30 5472 H 508.66 -0.013271 3.88098 0
M  V30 5473 H 506.761 -2.29159 2.93798 0
M  V30 5474 H 506.874 -1.3811 4.58762 0
M  V30 5475 H 505.238 -0.826348 2.40922 0
M  V30 5476 H 506.021 0.525172 3.39259 0
M  V30 5477 N 508.466 -1.55915 -0.229846 0
M  V30 5478 C 509.882 -1.48721 -0.579166 0
M  V30 5479 C 510.082 -0.736976 -1.87539 0
M  V30 5480 O 509.138 -0.273258 -2.51017 0
M  V30 5481 C 510.451 -2.9323 -0.666082 0
M  V30 5482 C 511.999 -3.03701 -0.757267 0
M  V30 5483 C 512.474 -4.49552 -0.8756 0
M  V30 5484 N 513.965 -4.53561 -0.940035 0
M  V30 5485 C 514.7 -5.63683 -1.05116 0
M  V30 5486 N 514.196 -6.83576 -1.12675 0
M  V30 5487 N 515.989 -5.51516 -1.08565 0
M  V30 5488 H 508.14 -2.03123 0.620857 0
M  V30 5489 H 510.403 -0.922898 0.21671 0
M  V30 5490 H 510.109 -3.51032 0.21664 0
M  V30 5491 H 509.983 -3.44668 -1.53243 0
M  V30 5492 H 512.37 -2.45969 -1.63043 0
M  V30 5493 H 512.451 -2.55446 0.134583 0
M  V30 5494 H 512.095 -5.079 -0.00692351 0
M  V30 5495 H 512.025 -4.95506 -1.78274 0
M  V30 5496 H 514.516 -3.67215 -0.892269 0
M  V30 5497 H 514.829 -7.63251 -1.21109 0
M  V30 5498 H 513.174 -6.86303 -1.09603 0
M  V30 5499 H 516.365 -4.5678 -1.02319 0
M  V30 5500 H 516.538 -6.37372 -1.1688 0
M  V30 5501 N 509.944 0.496216 -1.49584 0
M  V30 5502 C 511.19 1.24918 -1.60521 0
M  V30 5503 C 511.545 1.90197 -0.290352 0
M  V30 5504 O 510.838 1.77967 0.709813 0
M  V30 5505 C 511.032 2.3359 -2.705 0
M  V30 5506 C 510.861 1.78969 -4.12553 0
M  V30 5507 C 509.631 1.60057 -4.79281 0
M  V30 5508 C 511.829 1.29883 -4.97629 0
M  V30 5509 N 509.811 1.00415 -6.05632 0
M  V30 5510 C 511.182 0.824057 -6.14499 0
M  V30 5511 C 513.237 1.18501 -4.83593 0
M  V30 5512 C 511.94 0.246721 -7.18877 0
M  V30 5513 C 513.966 0.621634 -5.88124 0
M  V30 5514 C 513.328 0.157116 -7.04225 0
M  V30 5515 H 509.427 0.446896 -0.641722 0
M  V30 5516 H 512.011 0.555456 -1.86609 0
M  V30 5517 H 510.182 3.00418 -2.46178 0
M  V30 5518 H 511.914 3.00628 -2.70933 0
M  V30 5519 H 508.669 1.84562 -4.36158 0
M  V30 5520 H 509.093 0.725074 -6.73106 0
M  V30 5521 H 513.735 1.53012 -3.94141 0
M  V30 5522 H 511.453 -0.110651 -8.08024 0
M  V30 5523 H 515.039 0.536279 -5.79323 0
M  V30 5524 H 513.919 -0.272009 -7.83728 0
M  V30 5525 N 511.423 1.38739 0.74761 0
M  V30 5526 C 512.353 1.39173 1.87492 0
M  V30 5527 C 513.334 0.256794 1.6815 0
M  V30 5528 O 514.519 0.460762 1.88655 0
M  V30 5529 C 511.649 1.22197 3.25093 0
M  V30 5530 C 510.603 2.32957 3.59047 0
M  V30 5531 C 509.929 2.01082 4.95449 0
M  V30 5532 C 511.229 3.75237 3.6331 0
M  V30 5533 H 512.923 2.3351 1.87386 0
M  V30 5534 H 510.469 1.12399 0.900134 0
M  V30 5535 H 512.422 1.21124 4.03617 0
M  V30 5536 H 511.146 0.243241 3.25693 0
M  V30 5537 H 509.805 2.33226 2.82845 0
M  V30 5538 H 509.453 1.01678 4.92616 0
M  V30 5539 H 509.153 2.75267 5.19136 0
M  V30 5540 H 510.677 2.01638 5.76346 0
M  V30 5541 H 512.091 3.76966 4.31937 0
M  V30 5542 H 510.488 4.48677 3.98509 0
M  V30 5543 H 511.558 4.07122 2.634 0
M  V30 5544 N 512.901 -0.976442 1.23707 0
M  V30 5545 C 513.851 -2.0544 0.988851 0
M  V30 5546 C 514.835 -1.60762 -0.0665901 0
M  V30 5547 O 516.027 -1.76396 0.14604 0
M  V30 5548 C 513.156 -3.38258 0.586223 0
M  V30 5549 C 512.242 -3.89523 1.67728 0
M  V30 5550 N 512.633 -4.13823 2.90834 0
M  V30 5551 C 510.931 -4.18097 1.55277 0
M  V30 5552 C 511.632 -4.55731 3.61502 0
M  V30 5553 N 510.608 -4.60394 2.8903 0
M  V30 5554 H 514.41 -2.22191 1.92376 0
M  V30 5555 H 511.924 -1.15954 1.13704 0
M  V30 5556 H 513.921 -4.15075 0.389658 0
M  V30 5557 H 512.581 -3.22898 -0.341594 0
M  V30 5558 H 513.592 -4.01529 3.271 0
M  V30 5559 H 510.269 -4.11719 0.692351 0
M  V30 5560 H 511.659 -4.83018 4.67059 0
M  V30 5561 N 514.379 -1.04941 -1.1758 0
M  V30 5562 C 515.604 -0.778253 -1.92245 0
M  V30 5563 C 516.029 0.659707 -1.76152 0
M  V30 5564 O 515.387 1.45803 -1.07755 0
M  V30 5565 C 515.435 -1.16051 -3.41416 0
M  V30 5566 O 514.539 -0.291153 -4.11371 0
M  V30 5567 H 513.88 -0.285619 -0.599431 0
M  V30 5568 H 516.41 -1.40159 -1.49052 0
M  V30 5569 H 516.42 -1.12619 -3.92149 0
M  V30 5570 H 515.095 -2.208 -3.52449 0
M  V30 5571 H 513.672 -0.385851 -3.70898 0
M  V30 5572 N 515.857 1.33968 -0.830081 0
M  V30 5573 C 516.787 2.31911 -0.271911 0
M  V30 5574 C 517.768 1.58571 0.61556 0
M  V30 5575 O 518.953 1.86514 0.540946 0
M  V30 5576 C 516.083 3.42737 0.561146 0
M  V30 5577 C 515.037 4.27383 -0.229789 0
M  V30 5578 C 514.363 5.29742 0.726463 0
M  V30 5579 C 515.663 5.02 -1.44197 0
M  V30 5580 H 517.357 2.78844 -1.09025 0
M  V30 5581 H 514.903 1.34061 -0.52571 0
M  V30 5582 H 516.856 4.10276 0.961867 0
M  V30 5583 H 515.58 2.94471 1.41261 0
M  V30 5584 H 514.239 3.61456 -0.611964 0
M  V30 5585 H 513.887 4.77736 1.57408 0
M  V30 5586 H 513.587 5.87255 0.20142 0
M  V30 5587 H 515.111 6.00149 1.12489 0
M  V30 5588 H 516.525 5.62355 -1.11488 0
M  V30 5589 H 514.922 5.69122 -1.90317 0
M  V30 5590 H 515.992 4.31281 -2.2164 0
M  V30 5591 N 517.335 0.585699 1.46312 0
M  V30 5592 C 518.265 -0.133556 2.33118 0
M  V30 5593 C 519.246 -0.880707 1.45525 0
M  V30 5594 O 520.431 -0.855579 1.74337 0
M  V30 5595 C 517.561 -1.14585 3.27853 0
M  V30 5596 C 516.515 -0.513341 4.2491 0
M  V30 5597 C 515.841 -1.63231 5.09175 0
M  V30 5598 C 517.141 0.551413 5.19381 0
M  V30 5599 H 518.835 0.59121 2.93505 0
M  V30 5600 H 516.381 0.285761 1.41136 0
M  V30 5601 H 518.334 -1.65741 3.87438 0
M  V30 5602 H 517.058 -1.90093 2.65579 0
M  V30 5603 H 515.717 -0.0228349 3.66593 0
M  V30 5604 H 515.365 -2.37713 4.43285 0
M  V30 5605 H 515.065 -1.21473 5.74907 0
M  V30 5606 H 516.589 -2.14658 5.71624 0
M  V30 5607 H 518.003 0.124804 5.73164 0
M  V30 5608 H 516.4 0.889486 5.93471 0
M  V30 5609 H 517.47 1.43655 4.63132 0
M  V30 5610 N 518.813 -1.54241 0.323641 0
M  V30 5611 C 519.743 -2.27289 -0.534993 0
M  V30 5612 C 520.724 -1.28087 -1.11927 0
M  V30 5613 O 521.909 -1.56899 -1.14439 0
M  V30 5614 C 519.039 -3.03075 -1.69596 0
M  V30 5615 C 517.993 -4.09614 -1.24098 0
M  V30 5616 C 517.319 -4.73242 -2.4889 0
M  V30 5617 C 518.619 -5.21087 -0.355789 0
M  V30 5618 H 520.313 -2.99308 0.0743257 0
M  V30 5619 H 517.859 -1.43952 0.0371874 0
M  V30 5620 H 519.812 -3.52907 -2.30293 0
M  V30 5621 H 518.536 -2.28673 -2.33187 0
M  V30 5622 H 517.195 -3.60666 -0.656945 0
M  V30 5623 H 516.843 -3.95455 -3.10845 0
M  V30 5624 H 516.543 -5.45209 -2.19138 0
M  V30 5625 H 518.067 -5.25848 -3.10348 0
M  V30 5626 H 519.481 -5.66675 -0.869042 0
M  V30 5627 H 517.878 -5.9991 -0.151045 0
M  V30 5628 H 518.948 -4.81005 0.613339 0
M  V30 5629 N 520.291 -0.0518155 -1.57515 0
M  V30 5630 C 521.241 0.932017 -2.0808 0
M  V30 5631 C 522.225 1.27141 -0.986098 0
M  V30 5632 O 523.417 1.25373 -1.24943 0
M  V30 5633 C 520.546 2.20665 -2.62986 0
M  V30 5634 C 519.632 1.89462 -3.79427 0
M  V30 5635 N 520.023 1.28621 -4.89173 0
M  V30 5636 C 518.321 2.19327 -3.88345 0
M  V30 5637 C 519.022 1.15062 -5.70207 0
M  V30 5638 N 517.998 1.65372 -5.17835 0
M  V30 5639 H 521.8 0.456964 -2.90326 0
M  V30 5640 H 519.314 0.152619 -1.61681 0
M  V30 5641 H 521.311 2.92044 -2.97516 0
M  V30 5642 H 519.971 2.68776 -1.8218 0
M  V30 5643 H 520.982 0.958341 -5.08956 0
M  V30 5644 H 517.659 2.69955 -3.18482 0
M  V30 5645 H 519.049 0.678243 -6.68468 0
M  V30 5646 N 521.769 1.56035 0.221574 0
M  V30 5647 C 523.009 1.80822 0.953038 0
M  V30 5648 C 523.373 0.625316 1.81532 0
M  V30 5649 O 524.574 0.752491 2.58052 0
M  V30 5650 C 522.845 3.10503 1.76983 0
M  V30 5651 S 524.404 3.56604 2.55693 0
M  V30 5652 H 521.222 0.634849 0.320137 0
M  V30 5653 H 523.824 1.94274 0.218619 0
M  V30 5654 H 522.528 3.94636 1.12651 0
M  V30 5655 H 522.059 2.99858 2.54655 0
M  V30 5656 H 524.074 3.1994 3.79279 0
M  V30 5657 N 523.247 -0.488276 1.49845 0
M  V30 5658 C 524.475 -1.26527 1.63702 0
M  V30 5659 C 524.89 -1.8618 0.313447 0
M  V30 5660 O 524.247 -1.68432 -0.702624 0
M  V30 5661 C 524.298 -2.3864 2.71538 0
M  V30 5662 O 524.019 -1.81437 3.98763 0
M  V30 5663 C 525.52 -3.29805 2.96215 0
M  V30 5664 H 522.74 -0.383295 0.55075 0
M  V30 5665 H 525.284 -0.584779 1.95961 0
M  V30 5666 H 523.439 -3.02496 2.42023 0
M  V30 5667 H 523.853 -2.55135 4.58265 0
M  V30 5668 H 525.327 -4.04722 3.75372 0
M  V30 5669 H 525.804 -3.87563 2.06619 0
M  V30 5670 H 526.41 -2.71703 3.27196 0
M  V30 5671 N 524.725 -1.39134 -0.740242 0
M  V30 5672 C 525.95 -1.39518 -1.53459 0
M  V30 5673 C 526.375 0.00968883 -1.88098 0
M  V30 5674 O 525.733 0.995312 -1.51536 0
M  V30 5675 C 525.781 -2.26981 -2.802 0
M  V30 5676 O 524.885 -1.69609 -3.75908 0
M  V30 5677 H 524.226 -0.475328 -0.463637 0
M  V30 5678 H 526.756 -1.83064 -0.913717 0
M  V30 5679 H 526.766 -2.41309 -3.28989 0
M  V30 5680 H 525.441 -3.29081 -2.5432 0
M  V30 5681 H 524.018 -1.64495 -3.34658 0
M  V30 5682 N 526.204 0.969867 -1.24223 0
M  V30 5683 C 527.615 1.52717 -1.07399 0
M  V30 5684 C 527.966 1.92956 0.355298 0
M  V30 5685 O 527.091 1.77112 1.2434 0
M  V30 5686 C 527.686 2.77521 -1.94339 0
M  V30 5687 C 526.245 3.29615 -1.81744 0
M  V30 5688 C 525.392 2.02537 -1.89405 0
M  V30 5689 H 528.343 0.788399 -1.37732 0
M  V30 5690 H 528.364 3.50773 -1.47439 0
M  V30 5691 H 527.876 2.48203 -2.98357 0
M  V30 5692 H 525.977 3.63789 -0.805505 0
M  V30 5693 H 526.09 3.98661 -2.65718 0
M  V30 5694 H 524.454 2.17151 -1.33108 0
M  V30 5695 H 525.237 1.75587 -2.94999 0
M  V30 5696 N 527.682 1.05563 1.17022 0
M  V30 5697 C 528.93 0.76642 1.87004 0
M  V30 5698 C 529.251 -0.708854 1.8166 0
M  V30 5699 O 528.521 -1.51242 1.2451 0
M  V30 5700 H 527.101 0.280516 0.692329 0
M  V30 5701 H 529.763 1.33557 1.41945 0
M  V30 5702 H 528.859 1.08472 2.92644 0
M  V30 5703 N 529.16 -1.33526 0.837174 0
M  V30 5704 C 530.576 -1.50727 0.524743 0
M  V30 5705 C 530.776 -1.77792 -0.948279 0
M  V30 5706 O 529.832 -1.83719 -1.73216 0
M  V30 5707 C 531.145 -2.66299 1.39661 0
M  V30 5708 C 532.693 -2.80183 1.39521 0
M  V30 5709 C 533.168 -3.98815 2.25189 0
M  V30 5710 N 534.659 -4.06047 2.2289 0
M  V30 5711 C 535.394 -4.97032 2.85915 0
M  V30 5712 N 534.89 -5.93143 3.57985 0
M  V30 5713 N 536.683 -4.90015 2.75394 0
M  V30 5714 H 528.834 -1.1422 1.79074 0
M  V30 5715 H 531.097 -0.561399 0.763894 0
M  V30 5716 H 530.803 -2.52974 2.4433 0
M  V30 5717 H 530.677 -3.61663 1.07145 0
M  V30 5718 H 533.064 -2.92942 0.356253 0
M  V30 5719 H 533.145 -1.85586 1.76044 0
M  V30 5720 H 532.789 -3.86817 3.29143 0
M  V30 5721 H 532.719 -4.92654 1.86009 0
M  V30 5722 H 535.21 -3.37262 1.70478 0
M  V30 5723 H 535.523 -6.59227 4.03286 0
M  V30 5724 H 533.868 -5.93223 3.62093 0
M  V30 5725 H 537.059 -4.13894 2.18654 0
M  V30 5726 H 537.232 -5.60724 3.24796 0
M  V30 5727 N 530.638 -0.59345 -1.46 0
M  V30 5728 C 531.878 -0.0859747 -2.04219 0
M  V30 5729 C 532.242 1.25432 -1.45364 0
M  V30 5730 O 533.443 1.85168 -1.9485 0
M  V30 5731 C 531.714 -0.0324314 -3.57385 0
M  V30 5732 S 533.273 0.415908 -4.36824 0
M  V30 5733 H 530.091 -0.0426872 -0.709717 0
M  V30 5734 H 532.693 -0.788369 -1.78899 0
M  V30 5735 H 531.397 -1.01166 -3.97735 0
M  V30 5736 H 530.928 0.6924 -3.87259 0
M  V30 5737 H 532.943 1.66844 -4.67309 0
M  V30 5738 N 532.116 1.54067 -0.331816 0
M  V30 5739 C 533.356 2.02625 0.26876 0
M  V30 5740 C 533.72 1.21462 1.48697 0
M  V30 5741 O 534.921 1.59863 2.16096 0
M  V30 5742 C 533.192 3.52554 0.586577 0
M  V30 5743 S 534.751 4.23035 1.16563 0
M  V30 5744 H 531.569 0.706395 0.0807862 0
M  V30 5745 H 534.171 1.89844 -0.466856 0
M  V30 5746 H 532.875 4.09242 -0.308046 0
M  V30 5747 H 532.406 3.69432 1.35217 0
M  V30 5748 H 534.421 4.31382 2.45203 0
M  V30 5749 N 533.594 0.0601682 1.57485 0
M  V30 5750 C 535.005 -0.474217 1.80577 0
M  V30 5751 C 535.356 -1.70365 0.973147 0
M  V30 5752 O 534.481 -2.15544 0.192306 0
M  V30 5753 C 535.076 -0.867102 3.27516 0
M  V30 5754 C 533.635 -1.34642 3.51495 0
M  V30 5755 C 532.782 -0.32594 2.75378 0
M  V30 5756 H 535.733 0.285973 1.56102 0
M  V30 5757 H 535.754 -1.72938 3.38929 0
M  V30 5758 H 535.266 0.0278927 3.8809 0
M  V30 5759 H 533.367 -2.2603 2.96212 0
M  V30 5760 H 533.48 -1.33237 4.60201 0
M  V30 5761 H 531.844 -0.800749 2.41785 0
M  V30 5762 H 532.627 0.561125 3.38683 0
M  V30 5763 N 535.072 -1.5615 -0.213296 0
M  V30 5764 C 536.3 -1.83638 -0.953139 0
M  V30 5765 C 536.715 -0.640362 -1.77609 0
M  V30 5766 O 536.072 0.391071 -1.78261 0
M  V30 5767 C 536.123 -3.09735 -1.86405 0
M  V30 5768 O 535.844 -4.24723 -1.07435 0
M  V30 5769 C 537.345 -3.5027 -2.71709 0
M  V30 5770 H 534.565 -0.610263 -0.278962 0
M  V30 5771 H 537.109 -2.03247 -0.226035 0
M  V30 5772 H 535.264 -2.92077 -2.545 0
M  V30 5773 H 535.678 -4.9641 -1.69343 0
M  V30 5774 H 537.152 -4.41515 -3.31313 0
M  V30 5775 H 537.629 -2.72406 -3.44516 0
M  V30 5776 H 538.235 -3.70396 -2.09015 0
M  V30 5777 N 536.55 0.480323 -1.50102 0
M  V30 5778 C 537.513 1.56181 -1.6775 0
M  V30 5779 C 538.513 1.51156 -0.548503 0
M  V30 5780 O 539.703 1.5394 -0.815363 0
M  V30 5781 C 536.835 2.95823 -1.69415 0
M  V30 5782 H 538.028 1.41855 -2.6423 0
M  V30 5783 H 535.581 0.70605 -1.39444 0
M  V30 5784 H 536.316 3.15604 -0.745948 0
M  V30 5785 H 536.101 3.00878 -2.51425 0
M  V30 5786 H 537.591 3.74359 -1.85054 0
M  V30 5787 N 538.028 1.39524 0.732853 0
M  V30 5788 C 539.439 1.32905 1.31122 0
M  V30 5789 C 539.79 -0.00558708 1.96199 0
M  V30 5790 O 538.915 -0.907706 1.96443 0
M  V30 5791 C 539.51 2.40704 2.38426 0
M  V30 5792 C 538.069 2.37599 2.91931 0
M  V30 5793 C 537.216 2.2248 1.65523 0
M  V30 5794 H 540.167 1.49581 0.530207 0
M  V30 5795 H 540.188 2.07616 3.18867 0
M  V30 5796 H 539.7 3.37829 1.91033 0
M  V30 5797 H 537.801 1.44119 3.43599 0
M  V30 5798 H 537.914 3.32538 3.44899 0
M  V30 5799 H 536.278 1.69691 1.8994 0
M  V30 5800 H 537.061 3.21577 1.20178 0
M  V30 5801 N 539.506 -0.963266 1.24736 0
M  V30 5802 C 540.438 -2.06162 1.0015 0
M  V30 5803 C 541.451 -1.62771 -0.0305905 0
M  V30 5804 O 542.64 -1.77296 0.206966 0
M  V30 5805 C 539.74 -3.35333 0.490385 0
M  V30 5806 C 538.913 -4.07609 1.58663 0
M  V30 5807 C 537.972 -5.15052 1.0774 0
M  V30 5808 O 536.998 -5.4098 1.77002 0
M  V30 5809 N 538.2 -5.80436 -0.0858605 0
M  V30 5810 H 540.965 -2.27825 1.94719 0
M  V30 5811 H 538.526 -1.13121 1.15825 0
M  V30 5812 H 540.518 -4.04477 0.134371 0
M  V30 5813 H 539.088 -3.10507 -0.361155 0
M  V30 5814 H 538.308 -3.32681 2.11463 0
M  V30 5815 H 539.596 -4.52656 2.32336 0
M  V30 5816 H 538.994 -5.6178 -0.664806 0
M  V30 5817 H 537.551 -6.50674 -0.382981 0
M  V30 5818 N 540.985 -1.06182 -1.16461 0
M  V30 5819 C 541.932 -0.671613 -2.20812 0
M  V30 5820 C 542.902 0.331186 -1.62765 0
M  V30 5821 O 544.087 0.22033 -1.89524 0
M  V30 5822 C 541.227 -0.063029 -3.45042 0
M  V30 5823 C 540.34 -1.11587 -4.1734 0
M  V30 5824 C 539.475 -0.473546 -5.29085 0
M  V30 5825 C 538.514 -1.51 -5.93182 0
M  V30 5826 N 537.651 -0.891118 -6.96422 0
M  V30 5827 H 542.491 -1.56589 -2.53542 0
M  V30 5828 H 540.028 -0.782951 -1.24532 0
M  V30 5829 H 541.986 0.307344 -4.16066 0
M  V30 5830 H 540.616 0.794663 -3.12866 0
M  V30 5831 H 539.668 -1.60396 -3.44931 0
M  V30 5832 H 540.98 -1.90221 -4.61104 0
M  V30 5833 H 540.134 -0.0501432 -6.06679 0
M  V30 5834 H 538.873 0.344687 -4.8648 0
M  V30 5835 H 537.878 -1.94331 -5.14311 0
M  V30 5836 H 539.103 -2.33031 -6.37866 0
M  V30 5837 H 537.049 -0.0935753 -6.55933 0
M  V30 5838 H 536.966 -1.61486 -7.38551 0
M  V30 5839 H 538.234 -0.492822 -7.77941 0
M  V30 5840 N 542.463 1.3308 -0.844243 0
M  V30 5841 C 543.711 1.97215 -0.441676 0
M  V30 5842 C 544.032 1.67185 1.0037 0
M  V30 5843 O 543.302 0.973588 1.69994 0
M  V30 5844 H 541.882 0.72959 -0.160335 0
M  V30 5845 H 544.544 1.62348 -1.07838 0
M  V30 5846 H 543.64 3.06698 -0.57815 0
M  V30 5847 N 543.941 0.601185 1.45683 0
M  V30 5848 C 544.889 -0.133955 2.32214 0
M  V30 5849 C 545.883 -0.866034 1.45589 0
M  V30 5850 O 547.089 -0.782326 1.6211 0
M  V30 5851 H 543.464 -0.0620613 0.749435 0
M  V30 5852 H 545.435 0.614389 2.92007 0
M  V30 5853 C 544.184 -1.12216 3.29094 0
M  V30 5854 H 543.507 -0.568273 3.95741 0
M  V30 5855 H 544.947 -1.60659 3.92383 0
M  V30 5856 C 543.406 -2.19251 2.55794 0
M  V30 5857 O 543.936 -3.26894 2.33459 0
M  V30 5858 N 542.142 -1.9436 2.16039 0
M  V30 5859 H 541.689 -1.06829 2.34404 0
M  V30 5860 H 541.647 -2.66181 1.67318 0
M  V30 5861 N 545.419 -1.53889 0.339982 0
M  V30 5862 C 546.366 -2.24902 -0.518452 0
M  V30 5863 C 547.336 -1.24593 -1.09844 0
M  V30 5864 O 548.521 -1.53317 -1.13572 0
M  V30 5865 C 545.661 -3.02262 -1.66529 0
M  V30 5866 C 544.774 -4.17418 -1.11295 0
M  V30 5867 C 543.909 -4.82273 -2.2268 0
M  V30 5868 C 542.948 -5.89503 -1.6478 0
M  V30 5869 N 542.085 -6.48153 -2.69893 0
M  V30 5870 H 546.925 -2.97853 0.0936579 0
M  V30 5871 H 544.462 -1.46986 0.0579924 0
M  V30 5872 H 546.42 -3.45371 -2.3404 0
M  V30 5873 H 545.05 -2.31614 -2.24844 0
M  V30 5874 H 544.102 -3.78976 -0.328886 0
M  V30 5875 H 545.414 -4.94554 -0.649414 0
M  V30 5876 H 544.568 -5.28435 -2.98063 0
M  V30 5877 H 543.307 -4.04552 -2.72376 0
M  V30 5878 H 542.312 -5.42728 -0.879004 0
M  V30 5879 H 543.537 -6.6913 -1.1594 0
M  V30 5880 H 541.483 -5.73298 -3.1885 0
M  V30 5881 H 541.4 -7.20752 -2.28151 0
M  V30 5882 H 542.668 -6.98968 -3.45056 0
M  V30 5883 N 546.897 -0.0685191 -1.57451 0
M  V30 5884 C 548.145 0.60016 -1.92983 0
M  V30 5885 C 548.466 1.70348 -0.949028 0
M  V30 5886 O 547.736 1.959 0.00335647 0
M  V30 5887 H 546.316 0.224682 -0.712409 0
M  V30 5888 H 548.978 -0.125605 -1.94495 0
M  V30 5889 H 548.074 1.02759 -2.94698 0
M  V30 5890 N 548.375 1.56261 0.205012 0
M  V30 5891 C 549.305 1.96779 1.257 0
M  V30 5892 C 550.286 0.838309 1.48008 0
M  V30 5893 O 551.471 1.10189 1.59913 0
M  V30 5894 C 548.601 2.29876 2.60335 0
M  V30 5895 C 547.555 3.45469 2.52656 0
M  V30 5896 C 546.881 3.64215 3.91473 0
M  V30 5897 C 548.181 4.79954 2.06014 0
M  V30 5898 H 549.875 2.84904 0.920338 0
M  V30 5899 H 547.421 1.37072 0.441277 0
M  V30 5900 H 549.374 2.56814 3.34102 0
M  V30 5901 H 548.098 1.38622 2.95722 0
M  V30 5902 H 546.757 3.18605 1.81345 0
M  V30 5903 H 546.405 2.70309 4.24196 0
M  V30 5904 H 546.105 4.41973 3.87213 0
M  V30 5905 H 547.629 3.93519 4.66878 0
M  V30 5906 H 549.043 5.05989 2.69533 0
M  V30 5907 H 547.44 5.61111 2.12777 0
M  V30 5908 H 548.51 4.74201 1.01297 0
M  V30 5909 N 549.853 -0.472356 1.50355 0
M  V30 5910 C 551.101 -1.22211 1.60962 0
M  V30 5911 C 551.422 -1.92497 0.311439 0
M  V30 5912 O 550.692 -1.8405 -0.671002 0
M  V30 5913 H 549.272 -0.454092 0.593135 0
M  V30 5914 H 551.934 -0.544977 1.87126 0
M  V30 5915 H 551.03 -1.9707 2.42012 0
M  V30 5916 N 551.331 -1.39911 -0.725443 0
M  V30 5917 C 552.261 -1.42138 -1.85254 0
M  V30 5918 C 553.242 -0.283513 -1.67721 0
M  V30 5919 O 554.427 -0.490717 -1.87898 0
M  V30 5920 C 551.557 -1.27354 -3.23107 0
M  V30 5921 C 550.511 -2.3864 -3.55296 0
M  V30 5922 C 549.837 -2.08939 -4.92188 0
M  V30 5923 C 551.137 -3.8097 -3.57295 0
M  V30 5924 H 552.831 -2.36461 -1.83648 0
M  V30 5925 H 550.377 -1.13817 -0.882138 0
M  V30 5926 H 552.33 -1.2753 -4.01639 0
M  V30 5927 H 551.054 -0.295025 -3.25265 0
M  V30 5928 H 549.713 -2.37696 -2.79099 0
M  V30 5929 H 549.361 -1.09502 -4.90936 0
M  V30 5930 H 549.061 -2.83491 -5.14691 0
M  V30 5931 H 550.585 -2.10781 -5.73065 0
M  V30 5932 H 551.999 -3.8379 -4.25885 0
M  V30 5933 H 550.396 -4.5496 -3.9132 0
M  V30 5934 H 551.466 -4.11261 -2.5689 0
M  V30 5935 N 552.809 0.956637 -1.25245 0
M  V30 5936 C 554.037 1.73571 -1.12608 0
M  V30 5937 C 554.452 1.86063 0.320324 0
M  V30 5938 O 553.809 1.35691 1.22042 0
M  V30 5939 C 553.86 3.15053 -1.77268 0
M  V30 5940 O 553.581 3.03174 -3.16255 0
M  V30 5941 C 555.082 4.09248 -1.70386 0
M  V30 5942 H 552.302 0.543955 -0.392879 0
M  V30 5943 H 554.846 1.20031 -1.65568 0
M  V30 5944 H 553.001 3.65543 -1.28284 0
M  V30 5945 H 553.415 3.9241 -3.48015 0
M  V30 5946 H 554.889 5.06138 -2.20291 0
M  V30 5947 H 555.366 4.34102 -0.667239 0
M  V30 5948 H 555.972 3.64672 -2.18849 0
M  V30 5949 N 554.287 1.06798 1.15896 0
M  V30 5950 C 555.217 0.704677 2.22613 0
M  V30 5951 C 556.198 -0.305252 1.67339 0
M  V30 5952 O 557.383 -0.179247 1.93371 0
M  V30 5953 C 554.513 0.0957325 3.47168 0
M  V30 5954 C 553.467 1.0322 4.15367 0
M  V30 5955 C 552.793 0.286293 5.33933 0
M  V30 5956 C 554.093 2.36341 4.65768 0
M  V30 5957 H 555.787 1.59688 2.53259 0
M  V30 5958 H 553.333 0.769257 1.21731 0
M  V30 5959 H 555.286 -0.170333 4.21056 0
M  V30 5960 H 554.01 -0.831516 3.15838 0
M  V30 5961 H 552.669 1.28309 3.43413 0
M  V30 5962 H 552.317 -0.644237 4.98857 0
M  V30 5963 H 552.017 0.910436 5.80504 0
M  V30 5964 H 553.541 0.0278938 6.10594 0
M  V30 5965 H 554.955 2.1561 5.31211 0
M  V30 5966 H 553.352 2.94299 5.2298 0
M  V30 5967 H 554.422 2.99047 3.81705 0
M  V30 5968 N 555.766 -1.3263 0.851289 0
M  V30 5969 C 556.994 -2.01563 0.466899 0
M  V30 5970 C 557.409 -1.63996 -0.935447 0
M  V30 5971 O 556.766 -0.85957 -1.6099 0
M  V30 5972 C 556.817 -3.56613 0.592433 0
M  V30 5973 O 556.538 -3.92828 1.93954 0
M  V30 5974 C 558.039 -4.42818 0.206612 0
M  V30 5975 H 555.259 -0.645307 0.183902 0
M  V30 5976 H 557.803 -1.69285 1.1473 0
M  V30 5977 H 555.958 -3.87379 -0.0401936 0
M  V30 5978 H 556.372 -4.87545 1.9339 0
M  V30 5979 H 557.846 -5.50918 0.345462 0
M  V30 5980 H 558.323 -4.30844 -0.85264 0
M  V30 5981 H 558.929 -4.17434 0.814176 0
M  V30 5982 N 557.244 -0.608902 -1.45362 0
M  V30 5983 C 558.194 0.130616 -2.27626 0
M  V30 5984 C 559.178 0.837323 -1.37396 0
M  V30 5985 O 560.37 0.727096 -1.61376 0
M  V30 5986 C 557.499 1.12646 -3.24293 0
M  V30 5987 C 556.585 0.42052 -4.2201 0
M  V30 5988 N 556.976 -0.538569 -5.02925 0
M  V30 5989 C 555.274 0.667901 -4.40971 0
M  V30 5990 C 555.975 -0.953625 -5.7383 0
M  V30 5991 N 554.951 -0.297097 -5.42788 0
M  V30 5992 H 558.753 -0.605996 -2.87585 0
M  V30 5993 H 556.267 -0.432672 -1.5653 0
M  V30 5994 H 558.264 1.67066 -3.81961 0
M  V30 5995 H 556.924 1.86361 -2.65894 0
M  V30 5996 H 557.935 -0.915375 -5.09746 0
M  V30 5997 H 554.612 1.38963 -3.93695 0
M  V30 5998 H 556.002 -1.74473 -6.48852 0
M  V30 5999 N 558.722 1.53707 -0.348139 0
M  V30 6000 C 559.652 2.28111 0.498766 0
M  V30 6001 C 560.633 1.29851 1.09876 0
M  V30 6002 O 561.818 1.587 1.11928 0
M  V30 6003 C 558.948 3.05735 1.64753 0
M  V30 6004 C 557.902 4.11537 1.17565 0
M  V30 6005 C 557.228 4.77142 2.4133 0
M  V30 6006 C 558.528 5.21587 0.272844 0
M  V30 6007 H 560.222 2.99152 -0.121934 0
M  V30 6008 H 557.768 1.43875 -0.0600842 0
M  V30 6009 H 559.721 3.56526 2.24649 0
M  V30 6010 H 558.445 2.32354 2.2952 0
M  V30 6011 H 557.104 3.61665 0.599483 0
M  V30 6012 H 556.752 4.0035 3.04514 0
M  V30 6013 H 556.452 5.48626 2.10436 0
M  V30 6014 H 557.976 5.30719 3.01943 0
M  V30 6015 H 559.39 5.67986 0.778779 0
M  V30 6016 H 557.787 6.00074 0.0555849 0
M  V30 6017 H 558.857 4.79969 -0.689785 0
M  V30 6018 N 560.2 0.0768682 1.57412 0
M  V30 6019 C 561.611 -0.455037 1.8107 0
M  V30 6020 C 561.962 -1.69323 0.991162 0
M  V30 6021 O 561.087 -2.15328 0.215156 0
M  V30 6022 C 561.682 -0.832316 3.28417 0
M  V30 6023 C 560.241 -1.30906 3.52903 0
M  V30 6024 C 559.388 -0.296714 2.75708 0
M  V30 6025 H 562.339 0.302514 1.5579 0
M  V30 6026 H 562.36 -1.69333 3.40744 0
M  V30 6027 H 561.872 0.0690532 3.88039 0
M  V30 6028 H 559.973 -2.22875 2.98592 0
M  V30 6029 H 560.086 -1.28348 4.61588 0
M  V30 6030 H 558.45 -0.775059 2.42621 0
M  V30 6031 H 559.233 0.597015 3.38069 0
M  V30 6032 N 561.678 -1.56367 -0.196722 0
M  V30 6033 C 562.926 -1.80172 -0.915554 0
M  V30 6034 C 563.247 -0.649649 -1.8386 0
M  V30 6035 O 562.517 0.332111 -1.93064 0
M  V30 6036 H 561.097 -0.664592 -0.341067 0
M  V30 6037 H 563.759 -1.93844 -0.202622 0
M  V30 6038 H 562.855 -2.7327 -1.50764 0
M  V30 6039 N 563.156 0.464375 -1.50603 0
M  V30 6040 C 564.567 1.04507 -1.5471 0
M  V30 6041 C 564.918 1.9297 -0.354542 0
M  V30 6042 O 564.043 2.09763 0.531812 0
M  V30 6043 C 564.638 1.90207 -2.80369 0
M  V30 6044 C 563.197 2.43373 -2.87135 0
M  V30 6045 C 562.344 1.21886 -2.49076 0
M  V30 6046 H 565.295 0.246716 -1.56771 0
M  V30 6047 H 565.316 2.75353 -2.62604 0
M  V30 6048 H 564.828 1.25796 -3.67147 0
M  V30 6049 H 562.929 3.11318 -2.04724 0
M  V30 6050 H 563.042 2.7802 -3.90181 0
M  V30 6051 H 561.406 1.55575 -2.01664 0
M  V30 6052 H 562.189 0.591268 -3.3817 0
M  V30 6053 N 564.634 1.40294 0.718013 0
M  V30 6054 C 565.581 1.40367 1.8321 0
M  V30 6055 C 566.551 0.260952 1.64037 0
M  V30 6056 O 567.736 0.458648 1.85205 0
M  V30 6057 C 564.876 1.26965 3.20895 0
M  V30 6058 C 563.989 2.50922 3.51656 0
M  V30 6059 C 563.124 2.29981 4.78834 0
M  V30 6060 C 562.163 3.49527 5.02491 0
M  V30 6061 N 561.3 3.27796 6.20882 0
M  V30 6062 H 566.14 2.35593 1.82482 0
M  V30 6063 H 563.677 1.17012 0.891444 0
M  V30 6064 H 565.635 1.17202 4.00399 0
M  V30 6065 H 564.265 0.353591 3.20858 0
M  V30 6066 H 563.317 2.71223 2.66725 0
M  V30 6067 H 564.629 3.39913 3.65048 0
M  V30 6068 H 563.783 2.17558 5.66351 0
M  V30 6069 H 562.522 1.38411 4.67647 0
M  V30 6070 H 561.527 3.6243 4.1343 0
M  V30 6071 H 562.752 4.42021 5.15553 0
M  V30 6072 H 560.698 2.38906 6.1095 0
M  V30 6073 H 560.615 4.10351 6.34939 0
M  V30 6074 H 561.883 3.19101 7.11193 0
M  V30 6075 N 566.112 -0.949982 1.2575 0
M  V30 6076 C 567.022 -2.08109 1.08295 0
M  V30 6077 C 568.038 -1.7399 0.0188181 0
M  V30 6078 O 569.214 -2.00187 0.220724 0
M  V30 6079 C 566.279 -3.39383 0.708534 0
M  V30 6080 C 565.34 -3.8734 1.85111 0
M  V30 6081 C 564.573 -5.12349 1.49447 0
M  V30 6082 O 564.796 -5.6905 0.392212 0
M  V30 6083 O 563.73 -5.5513 2.32624 0
M  V30 6084 H 567.556 -2.25738 2.03165 0
M  V30 6085 H 565.141 -1.06545 1.04731 0
M  V30 6086 H 567.023 -4.18277 0.512061 0
M  V30 6087 H 565.698 -3.23013 -0.210854 0
M  V30 6088 H 564.605 -3.09429 2.10248 0
M  V30 6089 H 565.938 -4.08216 2.74991 0
M  V30 6090 N 567.59 -1.07411 -1.15328 0
M  V30 6091 C 569.001 -0.820261 -1.67716 0
M  V30 6092 C 569.352 0.654539 -1.8496 0
M  V30 6093 O 568.477 1.50664 -1.55337 0
M  V30 6094 C 569.072 -1.48242 -3.04647 0
M  V30 6095 C 567.631 -1.27606 -3.5411 0
M  V30 6096 C 566.778 -1.5517 -2.29821 0
M  V30 6097 H 569.729 -1.23608 -0.995332 0
M  V30 6098 H 569.75 -0.903984 -3.69606 0
M  V30 6099 H 569.262 -2.55578 -2.92064 0
M  V30 6100 H 567.363 -0.222948 -3.71932 0
M  V30 6101 H 567.476 -1.99667 -4.35511 0
M  V30 6102 H 565.84 -0.972747 -2.35393 0
M  V30 6103 H 566.623 -2.63689 -2.19824 0
M  V30 6104 N 569.068 1.32177 -0.85831 0
M  V30 6105 C 570.316 1.96735 -0.462568 0
M  V30 6106 C 570.637 1.6824 0.985911 0
M  V30 6107 O 569.907 0.991564 1.68952 0
M  V30 6108 H 568.487 0.727849 -0.168064 0
M  V30 6109 H 571.149 1.61195 -1.09554 0
M  V30 6110 H 570.245 3.06068 -0.610647 0
M  V30 6111 N 570.547 0.616602 1.45037 0
M  V30 6112 C 571.457 -0.0985401 2.34393 0
M  V30 6113 C 572.473 -0.850971 1.51771 0
M  V30 6114 O 573.649 -0.806521 1.84546 0
M  V30 6115 C 570.714 -1.07748 3.29532 0
M  V30 6116 C 569.775 -0.326022 4.2806 0
M  V30 6117 C 569.008 -1.25833 5.18654 0
M  V30 6118 O 569.231 -2.49652 5.12864 0
M  V30 6119 O 568.165 -0.750512 5.97203 0
M  V30 6120 H 571.991 0.636016 2.96966 0
M  V30 6121 H 569.576 0.376832 1.44569 0
M  V30 6122 H 571.458 -1.64107 3.88133 0
M  V30 6123 H 570.133 -1.79291 2.69512 0
M  V30 6124 H 569.04 0.280253 3.73049 0
M  V30 6125 H 570.373 0.349091 4.9096 0
M  V30 6126 N 572.025 -1.5352 0.356285 0
M  V30 6127 C 572.955 -2.28372 -0.486661 0
M  V30 6128 C 573.936 -1.30432 -1.09185 0
M  V30 6129 O 575.121 -1.59291 -1.11085 0
M  V30 6130 C 572.251 -3.06604 -1.63129 0
M  V30 6131 C 571.205 -4.12154 -1.15381 0
M  V30 6132 C 570.531 -4.78415 -2.38796 0
M  V30 6133 C 571.831 -5.21724 -0.245179 0
M  V30 6134 H 573.525 -2.99083 0.137797 0
M  V30 6135 H 571.071 -1.43841 0.0677134 0
M  V30 6136 H 573.024 -3.57712 -2.22755 0
M  V30 6137 H 571.748 -2.33568 -2.28284 0
M  V30 6138 H 570.407 -3.61978 -0.580294 0
M  V30 6139 H 570.055 -4.01959 -3.02387 0
M  V30 6140 H 569.755 -5.49734 -2.07524 0
M  V30 6141 H 571.279 -5.32313 -2.99125 0
M  V30 6142 H 572.693 -5.68391 -0.748646 0
M  V30 6143 H 571.09 -6.00095 -0.0237608 0
M  V30 6144 H 572.16 -4.79596 0.715229 0
M  V30 6145 N 573.503 -0.0852151 -1.57369 0
M  V30 6146 C 574.466 0.8627 -2.12344 0
M  V30 6147 C 575.466 1.21746 -1.05046 0
M  V30 6148 O 576.656 1.14852 -1.30976 0
M  V30 6149 C 573.788 2.1618 -2.63589 0
M  V30 6150 H 574.981 0.385511 -2.97412 0
M  V30 6151 H 572.534 0.163663 -1.55441 0
M  V30 6152 H 573.269 2.68406 -1.82013 0
M  V30 6153 H 573.054 1.91723 -3.4203 0
M  V30 6154 H 574.544 2.84011 -3.06149 0
M  V30 6155 N 574.981 1.5647 0.188427 0
M  V30 6156 C 576.229 1.80655 0.905986 0
M  V30 6157 C 576.55 0.659391 1.83513 0
M  V30 6158 O 575.82 -0.321868 1.93238 0
M  V30 6159 H 574.4 0.666391 0.337538 0
M  V30 6160 H 577.062 1.93949 0.192339 0
M  V30 6161 H 576.158 2.74066 1.49313 0
M  V30 6162 N 576.459 -0.456382 1.50847 0
M  V30 6163 C 577.406 -1.55249 1.70782 0
M  V30 6164 C 578.376 -1.56757 0.549231 0
M  V30 6165 O 579.561 -1.74061 0.7815 0
M  V30 6166 C 576.701 -2.93118 1.82143 0
M  V30 6167 C 575.814 -3.01285 3.09598 0
M  V30 6168 C 574.949 -4.30159 3.11667 0
M  V30 6169 C 573.988 -4.32124 4.33515 0
M  V30 6170 N 573.125 -5.52492 4.3324 0
M  V30 6171 H 577.965 -1.37555 2.64353 0
M  V30 6172 H 575.502 -0.668543 1.3103 0
M  V30 6173 H 577.46 -3.73088 1.86711 0
M  V30 6174 H 576.09 -3.09413 0.919978 0
M  V30 6175 H 575.142 -2.14096 3.14431 0
M  V30 6176 H 576.454 -2.98597 3.99551 0
M  V30 6177 H 575.608 -5.18489 3.15046 0
M  V30 6178 H 574.347 -4.35477 2.1957 0
M  V30 6179 H 573.352 -3.42189 4.30333 0
M  V30 6180 H 574.577 -4.28485 5.26856 0
M  V30 6181 H 572.523 -5.58567 3.44004 0
M  V30 6182 H 572.44 -5.51605 5.16979 0
M  V30 6183 H 573.708 -6.42906 4.40786 0
M  V30 6184 N 577.937 -1.40673 -0.710563 0
M  V30 6185 C 578.884 -1.41336 -1.82463 0
M  V30 6186 C 579.854 -0.269648 -1.63897 0
M  V30 6187 O 581.039 -0.468463 -1.8496 0
M  V30 6188 C 578.179 -1.28665 -3.20218 0
M  V30 6189 C 577.292 -2.52784 -3.5032 0
M  V30 6190 C 576.427 -2.32517 -4.77608 0
M  V30 6191 C 575.466 -3.52187 -5.0063 0
M  V30 6192 N 574.603 -3.31084 -6.19135 0
M  V30 6193 H 579.443 -2.36558 -1.8123 0
M  V30 6194 H 576.98 -1.17483 -0.885226 0
M  V30 6195 H 578.938 -1.19324 -3.99772 0
M  V30 6196 H 577.568 -0.370602 -3.20666 0
M  V30 6197 H 576.62 -2.72634 -2.65283 0
M  V30 6198 H 577.932 -3.41845 -3.63241 0
M  V30 6199 H 577.086 -2.20558 -5.65189 0
M  V30 6200 H 575.825 -1.40889 -4.66906 0
M  V30 6201 H 574.83 -3.64617 -4.11502 0
M  V30 6202 H 576.055 -4.44749 -5.13201 0
M  V30 6203 H 574.001 -2.42143 -6.09674 0
M  V30 6204 H 573.918 -4.13713 -6.32754 0
M  V30 6205 H 575.186 -3.22868 -7.0949 0
M  V30 6206 N 579.415 0.9433 -1.26252 0
M  V30 6207 C 580.345 2.05902 -1.10122 0
M  V30 6208 C 581.326 1.70099 -0.00700552 0
M  V30 6209 O 582.511 1.93377 -0.178641 0
M  V30 6210 C 579.641 3.39516 -0.731175 0
M  V30 6211 C 578.595 3.89372 -1.77688 0
M  V30 6212 C 577.921 5.19613 -1.26122 0
M  V30 6213 C 579.221 4.14489 -3.17799 0
M  V30 6214 H 580.915 2.19655 -2.03451 0
M  V30 6215 H 578.461 1.05548 -0.979576 0
M  V30 6216 H 580.414 4.17031 -0.605215 0
M  V30 6217 H 579.138 3.25733 0.23782 0
M  V30 6218 H 577.797 3.14036 -1.89148 0
M  V30 6219 H 577.445 5.02208 -0.282128 0
M  V30 6220 H 577.145 5.53939 -1.96023 0
M  V30 6221 H 578.669 5.99713 -1.14789 0
M  V30 6222 H 580.083 4.82625 -3.09428 0
M  V30 6223 H 578.48 4.60094 -3.85271 0
M  V30 6224 H 579.55 3.20347 -3.64014 0
M  V30 6225 N 580.893 1.08022 1.14757 0
M  V30 6226 C 582.141 0.805913 1.85336 0
M  V30 6227 C 582.462 -0.670162 1.83122 0
M  V30 6228 O 581.732 -1.48567 1.2769 0
M  V30 6229 H 580.312 0.295138 0.686223 0
M  V30 6230 H 582.974 1.36538 1.3908 0
M  V30 6231 H 582.07 1.14655 2.90277 0
M  V30 6232 N 582.371 -1.3172 0.865308 0
M  V30 6233 C 583.782 -1.79104 0.527126 0
M  V30 6234 C 584.133 -1.7135 -0.955695 0
M  V30 6235 O 583.258 -1.27845 -1.74598 0
M  V30 6236 C 583.853 -3.25207 0.950061 0
M  V30 6237 C 582.412 -3.70504 0.663611 0
M  V30 6238 C 581.559 -2.52605 1.14395 0
M  V30 6239 H 584.51 -1.18868 1.05148 0
M  V30 6240 H 584.531 -3.79535 0.270805 0
M  V30 6241 H 584.043 -3.30818 2.02931 0
M  V30 6242 H 582.144 -3.70398 -0.404474 0
M  V30 6243 H 582.257 -4.62845 1.23737 0
M  V30 6244 H 580.621 -2.4838 0.563859 0
M  V30 6245 H 581.404 -2.60964 2.23053 0
M  V30 6246 N 583.85 -0.624285 -1.44708 0
M  V30 6247 C 585.266 -0.289322 -1.56956 0
M  V30 6248 C 585.466 1.20773 -1.61295 0
M  V30 6249 O 584.522 1.9915 -1.55227 0
M  V30 6250 C 585.835 -0.975215 -2.84447 0
M  V30 6251 C 587.383 -0.952709 -2.98148 0
M  V30 6252 C 587.858 -1.61893 -4.28433 0
M  V30 6253 N 589.349 -1.5852 -4.35231 0
M  V30 6254 C 590.084 -2.06969 -5.34744 0
M  V30 6255 N 589.58 -2.63579 -6.40701 0
M  V30 6256 N 591.373 -1.97638 -5.26209 0
M  V30 6257 H 583.524 -1.59612 -1.40135 0
M  V30 6258 H 585.787 -0.669592 -0.671081 0
M  V30 6259 H 585.493 -2.02999 -2.87201 0
M  V30 6260 H 585.367 -0.508749 -3.73753 0
M  V30 6261 H 587.754 0.093568 -2.94952 0
M  V30 6262 H 587.835 -1.4576 -2.10209 0
M  V30 6263 H 587.479 -2.66463 -4.32389 0
M  V30 6264 H 587.409 -1.08893 -5.15218 0
M  V30 6265 H 589.899 -1.17183 -3.59272 0
M  V30 6266 H 590.213 -2.98298 -7.12908 0
M  V30 6267 H 588.558 -2.67626 -6.41406 0
M  V30 6268 H 591.749 -1.5314 -4.42341 0
M  V30 6269 H 591.922 -2.35708 -6.03611 0
M  V30 6270 N 585.328 1.53329 -0.364422 0
M  V30 6271 C 586.238 2.29414 0.490552 0
M  V30 6272 C 587.254 1.35335 1.09363 0
M  V30 6273 O 588.43 1.68391 1.10483 0
M  V30 6274 C 585.495 3.06772 1.61529 0
M  V30 6275 C 584.556 4.16516 1.03986 0
M  V30 6276 C 583.789 4.90176 2.111 0
M  V30 6277 O 584.012 4.63687 3.32191 0
M  V30 6278 O 582.946 5.76134 1.74222 0
M  V30 6279 H 586.772 3.03428 -0.12856 0
M  V30 6280 H 584.357 1.48843 -0.128837 0
M  V30 6281 H 586.239 3.55082 2.26924 0
M  V30 6282 H 584.914 2.35596 2.21983 0
M  V30 6283 H 583.821 3.7246 0.349856 0
M  V30 6284 H 585.154 4.89855 0.4799 0
M  V30 6285 N 586.806 0.0935595 1.57322 0
M  V30 6286 C 588.034 -0.578934 1.98635 0
M  V30 6287 C 588.449 -1.61819 0.972626 0
M  V30 6288 O 587.806 -1.82461 -0.0379638 0
M  V30 6289 C 587.857 -1.22802 3.40003 0
M  V30 6290 O 587.578 -0.230334 4.37494 0
M  V30 6291 C 589.079 -1.98627 3.96311 0
M  V30 6292 H 586.299 -0.155324 0.652775 0
M  V30 6293 H 588.843 0.172393 2.03772 0
M  V30 6294 H 586.998 -1.93029 3.35885 0
M  V30 6295 H 587.412 -0.698649 5.19826 0
M  V30 6296 H 588.886 -2.39405 4.97382 0
M  V30 6297 H 589.363 -2.85151 3.34044 0
M  V30 6298 H 589.969 -1.3322 4.03897 0
M  V30 6299 N 588.284 -1.56567 -0.180126 0
M  V30 6300 C 589.194 -1.98947 -1.24327 0
M  V30 6301 C 590.21 -0.899446 -1.4895 0
M  V30 6302 O 591.386 -1.20639 -1.61271 0
M  V30 6303 C 588.451 -2.33328 -2.56435 0
M  V30 6304 C 587.512 -3.56114 -2.39752 0
M  V30 6305 C 586.745 -3.88845 -3.65561 0
M  V30 6306 O 586.968 -3.22662 -4.70368 0
M  V30 6307 O 585.902 -4.82226 -3.60197 0
M  V30 6308 H 589.728 -2.89634 -0.913565 0
M  V30 6309 H 587.313 -1.44319 -0.386306 0
M  V30 6310 H 589.195 -2.5645 -3.34382 0
M  V30 6311 H 587.87 -1.45806 -2.89002 0
M  V30 6312 H 586.777 -3.38221 -1.59866 0
M  V30 6313 H 588.11 -4.4415 -2.12113 0
M  V30 6314 N 589.762 0.448376 -1.51087 0
M  V30 6315 C 591.173 1.0286 -1.5581 0
M  V30 6316 C 591.524 1.92583 -0.374989 0
M  V30 6317 O 590.649 2.10316 0.509533 0
M  V30 6318 C 591.244 1.87223 -2.8237 0
M  V30 6319 C 589.803 2.40314 -2.897 0
M  V30 6320 C 588.95 1.19238 -2.50355 0
M  V30 6321 H 591.901 0.230075 -1.57023 0
M  V30 6322 H 591.922 2.72553 -2.6551 0
M  V30 6323 H 591.434 1.21894 -3.68461 0
M  V30 6324 H 589.535 3.09129 -2.08014 0
M  V30 6325 H 589.648 2.73866 -3.93108 0
M  V30 6326 H 588.012 1.53428 -2.03303 0
M  V30 6327 H 588.795 0.555367 -3.38778 0
M  V30 6328 N 591.24 1.41047 0.703093 0
M  V30 6329 C 592.517 1.30493 1.45708 0
M  V30 6330 C 592.897 -0.0709892 2.10981 0
M  V30 6331 O 592.245 -1.08471 2.01113 0
M  V30 6332 C 592.455 2.45287 2.48265 0
M  V30 6333 C 593.803 2.86104 3.13735 0
M  V30 6334 O 594.827 2.44971 2.58587 0
M  V30 6335 O 593.686 3.57206 4.13601 0
M  V30 6336 H 590.78 0.513144 0.648546 0
M  V30 6337 H 593.326 1.52995 0.734208 0
M  V30 6338 H 592.098 3.37135 1.98635 0
M  V30 6339 H 591.721 2.24622 3.28071 0
M  V30 6340 N 592.718 -0.936591 1.26751 0
M  V30 6341 C 593.966 -1.67998 1.12343 0
M  V30 6342 C 594.287 -1.92137 -0.332938 0
M  V30 6343 O 593.557 -1.52132 -1.23421 0
M  V30 6344 H 592.137 -0.622609 0.412756 0
M  V30 6345 H 594.799 -1.12509 1.59147 0
M  V30 6346 H 593.895 -2.65185 1.64571 0
M  V30 6347 N 594.196 -1.08629 -1.14182 0
M  V30 6348 C 595.444 -0.815731 -1.84906 0
M  V30 6349 C 595.765 0.660441 -1.83475 0
M  V30 6350 O 595.035 1.47888 -1.28476 0
M  V30 6351 H 593.615 -0.298773 -0.684648 0
M  V30 6352 H 596.277 -1.37274 -1.38354 0
M  V30 6353 H 595.373 -1.16193 -2.89665 0
M  V30 6354 N 595.674 1.31259 -0.872281 0
M  V30 6355 C 596.899 2.0133 -0.498099 0
M  V30 6356 C 597.324 1.65031 0.902568 0
M  V30 6357 O 596.682 0.860164 1.59596 0
M  V30 6358 C 596.73 3.54411 -0.665205 0
M  V30 6359 O 595.834 4.11347 0.294473 0
M  V30 6360 H 595.175 0.633844 -0.197832 0
M  V30 6361 H 597.705 1.67402 -1.17633 0
M  V30 6362 H 597.715 4.04147 -0.559373 0
M  V30 6363 H 596.39 3.80171 -1.68651 0
M  V30 6364 H 594.967 3.72624 0.143403 0
M  V30 6365 N 597.152 0.631951 1.44375 0
M  V30 6366 C 598.4 0.136497 2.01639 0
M  V30 6367 C 598.721 -1.24637 1.49969 0
M  V30 6368 O 597.991 -1.82827 0.70363 0
M  V30 6369 H 596.571 0.0474703 0.74549 0
M  V30 6370 H 599.233 0.818837 1.76865 0
M  V30 6371 H 598.329 0.104817 3.11924 0
M  V30 6372 N 598.631 -1.53133 0.372548 0
M  V30 6373 C 599.877 -2.02336 -0.207823 0
M  V30 6374 C 600.232 -1.25477 -1.45853 0
M  V30 6375 O 599.525 -0.341971 -1.88524 0
M  V30 6376 C 599.719 -3.53206 -0.545938 0
M  V30 6377 C 599.548 -4.44674 0.670454 0
M  V30 6378 C 598.318 -4.91217 1.18465 0
M  V30 6379 C 600.516 -4.90772 1.53777 0
M  V30 6380 N 598.498 -5.66711 2.36034 0
M  V30 6381 C 599.869 -5.64678 2.56004 0
M  V30 6382 C 601.924 -4.72836 1.55983 0
M  V30 6383 C 600.627 -6.22555 3.60303 0
M  V30 6384 C 602.653 -5.31583 2.59179 0
M  V30 6385 C 602.015 -6.05381 3.6013 0
M  V30 6386 H 598.114 -0.781048 -0.0385783 0
M  V30 6387 H 600.698 -1.87665 0.518664 0
M  V30 6388 H 598.869 -3.68024 -1.24149 0
M  V30 6389 H 600.601 -3.89123 -1.112 0
M  V30 6390 H 597.356 -4.67652 0.748205 0
M  V30 6391 H 597.78 -6.09117 2.95475 0
M  V30 6392 H 602.422 -4.15299 0.792877 0
M  V30 6393 H 600.14 -6.79183 4.37876 0
M  V30 6394 H 603.726 -5.19595 2.61749 0
M  V30 6395 H 602.606 -6.50028 4.38672 0
M  V30 6396 N 600.109 -0.101901 -1.5727 0
M  V30 6397 C 601.337 0.568392 -1.98939 0
M  V30 6398 C 601.752 1.61301 -0.981194 0
M  V30 6399 O 601.109 1.82478 0.0282869 0
M  V30 6400 C 601.16 1.20997 -3.40649 0
M  V30 6401 O 600.881 0.207129 -4.3761 0
M  V30 6402 C 602.382 1.96523 -3.97358 0
M  V30 6403 H 599.602 0.15186 -0.65359 0
M  V30 6404 H 602.146 -0.183198 -2.03678 0
M  V30 6405 H 600.301 1.91245 -3.36904 0
M  V30 6406 H 600.715 0.671071 -5.20189 0
M  V30 6407 H 602.189 2.36764 -4.98645 0
M  V30 6408 H 602.666 2.83376 -3.35552 0
M  V30 6409 H 603.272 1.31076 -4.04598 0
M  V30 6410 N 601.587 1.56661 0.17182 0
M  V30 6411 C 602.534 1.96371 1.21273 0
M  V30 6412 C 603.504 0.82756 1.44016 0
M  V30 6413 O 604.689 1.08764 1.56764 0
M  V30 6414 C 601.829 2.32838 2.54716 0
M  V30 6415 C 600.942 3.59628 2.39356 0
M  V30 6416 C 600.077 3.85311 3.65662 0
M  V30 6417 C 599.116 5.0545 3.45234 0
M  V30 6418 N 598.253 5.27268 4.63608 0
M  V30 6419 H 603.093 2.85106 0.86709 0
M  V30 6420 H 600.63 1.41073 0.416744 0
M  V30 6421 H 602.588 2.52004 3.3249 0
M  V30 6422 H 601.218 1.47214 2.87277 0
M  V30 6423 H 600.27 3.4838 1.52761 0
M  V30 6424 H 601.582 4.4756 2.20207 0
M  V30 6425 H 600.736 4.04841 4.51872 0
M  V30 6426 H 599.475 2.95753 3.8779 0
M  V30 6427 H 598.48 4.85819 2.5741 0
M  V30 6428 H 599.705 5.96538 3.24529 0
M  V30 6429 H 597.651 4.40662 4.85956 0
M  V30 6430 H 597.568 6.09422 4.4737 0
M  V30 6431 H 598.836 5.51277 5.51103 0
M  V30 6432 N 603.065 -0.440357 1.51323 0
M  V30 6433 C 604.293 -1.21255 1.67645 0
M  V30 6434 C 604.708 -1.85088 0.37252 0
M  V30 6435 O 604.065 -1.70582 -0.648683 0
M  V30 6436 C 604.116 -2.29881 2.78993 0
M  V30 6437 O 603.837 -1.68659 4.04334 0
M  V30 6438 C 605.338 -3.20214 3.06558 0
M  V30 6439 H 602.558 -0.36558 0.562666 0
M  V30 6440 H 605.102 -0.52214 1.97722 0
M  V30 6441 H 603.257 -2.94643 2.51524 0
M  V30 6442 H 603.671 -2.40426 4.6615 0
M  V30 6443 H 605.145 -3.92575 3.88058 0
M  V30 6444 H 605.622 -3.80794 2.18844 0
M  V30 6445 H 606.228 -2.61156 3.35675 0
M  V30 6446 N 604.543 -1.41418 -0.695603 0
M  V30 6447 C 605.475 -1.39195 -1.82092 0
M  V30 6448 C 606.488 -0.294132 -1.60121 0
M  V30 6449 O 607.677 -0.555854 -1.69625 0
M  V30 6450 C 604.777 -1.14828 -3.18854 0
M  V30 6451 C 603.95 -2.36649 -3.67853 0
M  V30 6452 C 603.009 -2.08139 -4.83285 0
M  V30 6453 O 602.035 -2.81177 -4.94902 0
M  V30 6454 N 603.237 -1.07162 -5.70523 0
M  V30 6455 H 606.002 -2.36185 -1.84491 0
M  V30 6456 H 603.563 -1.3603 -0.877923 0
M  V30 6457 H 605.555 -0.937075 -3.93702 0
M  V30 6458 H 604.125 -0.264358 -3.1148 0
M  V30 6459 H 603.345 -2.73472 -2.83913 0
M  V30 6460 H 604.633 -3.17816 -3.97329 0
M  V30 6461 H 604.031 -0.467124 -5.63768 0
M  V30 6462 H 602.588 -0.920311 -6.4527 0
M  V30 6463 N 606.021 0.929856 -1.27246 0
M  V30 6464 C 606.951 2.04722 -1.12299 0
M  V30 6465 C 607.932 1.70082 -0.0250464 0
M  V30 6466 O 609.117 1.93176 -0.199141 0
M  V30 6467 C 606.247 3.38721 -0.767145 0
M  V30 6468 C 605.201 3.87466 -1.81808 0
M  V30 6469 C 604.527 5.18246 -1.31626 0
M  V30 6470 C 605.827 4.11095 -3.22177 0
M  V30 6471 H 607.521 2.17485 -2.05769 0
M  V30 6472 H 605.067 1.04503 -0.990715 0
M  V30 6473 H 607.02 4.16366 -0.649413 0
M  V30 6474 H 605.744 3.25967 0.203259 0
M  V30 6475 H 604.403 3.12012 -1.92468 0
M  V30 6476 H 604.051 5.01881 -0.335378 0
M  V30 6477 H 603.751 5.51829 -2.01887 0
M  V30 6478 H 605.275 5.98462 -1.21143 0
M  V30 6479 H 606.689 4.79316 -3.1453 0
M  V30 6480 H 605.086 4.55982 -3.90129 0
M  V30 6481 H 606.156 3.16468 -3.67391 0
M  V30 6482 N 607.499 1.09233 1.13605 0
M  V30 6483 C 608.432 0.6739 2.18023 0
M  V30 6484 C 609.41 -0.318603 1.59448 0
M  V30 6485 O 610.594 -0.220452 1.87206 0
M  V30 6486 C 607.721 -0.00751458 3.38699 0
M  V30 6487 C 606.767 0.946481 4.15865 0
M  V30 6488 S 607.6 2.45753 4.75779 0
M  V30 6489 C 608.756 1.78846 5.99804 0
M  V30 6490 H 608.989 1.55846 2.53178 0
M  V30 6491 H 606.522 0.908118 1.2487 0
M  V30 6492 H 608.48 -0.394368 4.08601 0
M  V30 6493 H 607.141 -0.868693 3.01849 0
M  V30 6494 H 606.334 0.416742 5.02274 0
M  V30 6495 H 605.936 1.27464 3.51609 0
M  V30 6496 H 608.228 1.11135 6.68323 0
M  V30 6497 H 609.171 2.63163 6.57382 0
M  V30 6498 H 609.579 1.25823 5.50299 0
M  V30 6499 N 608.977 -1.30795 0.87923 0
M  V30 6500 C 609.887 -2.32041 0.345565 0
M  V30 6501 C 610.903 -1.65103 -0.549265 0
M  V30 6502 O 612.079 -1.9645 -0.443763 0
M  V30 6503 C 609.144 -3.43944 -0.436245 0
M  V30 6504 C 608.205 -4.26521 0.48765 0
M  V30 6505 C 607.438 -5.33081 -0.256943 0
M  V30 6506 O 607.661 -5.50762 -1.48381 0
M  V30 6507 O 606.595 -6.00635 0.389985 0
M  V30 6508 H 610.421 -2.79627 1.18501 0
M  V30 6509 H 608.006 -1.3486 0.642885 0
M  V30 6510 H 609.888 -4.12128 -0.879119 0
M  V30 6511 H 608.563 -2.98504 -1.25208 0
M  V30 6512 H 607.47 -3.61057 0.979216 0
M  V30 6513 H 608.803 -4.75551 1.26933 0
M  V30 6514 N 610.455 -0.639598 -1.44038 0
M  V30 6515 C 611.385 0.0469443 -2.33453 0
M  V30 6516 C 612.366 0.82609 -1.48694 0
M  V30 6517 O 613.551 0.790285 -1.77393 0
M  V30 6518 C 610.681 1.02338 -3.3188 0
M  V30 6519 C 609.635 0.355284 -4.26523 0
M  V30 6520 C 608.961 1.44221 -5.14883 0
M  V30 6521 C 610.261 -0.743798 -5.16977 0
M  V30 6522 H 611.955 -0.699735 -2.91108 0
M  V30 6523 H 609.501 -0.337946 -1.39978 0
M  V30 6524 H 611.454 1.51247 -3.93322 0
M  V30 6525 H 610.178 1.80105 -2.72451 0
M  V30 6526 H 608.837 -0.113239 -3.66425 0
M  V30 6527 H 608.485 2.21097 -4.51802 0
M  V30 6528 H 608.185 1.00052 -5.79019 0
M  V30 6529 H 609.709 1.93295 -5.79197 0
M  V30 6530 H 611.123 -0.337444 -5.72306 0
M  V30 6531 H 609.52 -1.10914 -5.89761 0
M  V30 6532 H 610.59 -1.60745 -4.57481 0
M  V30 6533 N 611.933 1.52934 -0.380664 0
M  V30 6534 C 613.179 2.02443 0.197089 0
M  V30 6535 C 613.534 1.26249 1.45186 0
M  V30 6536 O 612.827 0.351964 1.8834 0
M  V30 6537 C 613.021 3.5349 0.527199 0
M  V30 6538 C 612.85 4.44312 -0.694027 0
M  V30 6539 C 611.62 4.90582 -1.21068 0
M  V30 6540 C 613.818 4.8995 -1.56377 0
M  V30 6541 N 611.8 5.65451 -2.39036 0
M  V30 6542 C 613.171 5.63313 -2.58995 0
M  V30 6543 C 615.226 4.72002 -1.58488 0
M  V30 6544 C 613.929 6.20635 -3.63599 0
M  V30 6545 C 615.955 5.30201 -2.61995 0
M  V30 6546 C 615.317 6.03463 -3.63335 0
M  V30 6547 H 611.416 0.781241 0.0344357 0
M  V30 6548 H 614 1.87387 -0.528609 0
M  V30 6549 H 612.171 3.68677 1.22196 0
M  V30 6550 H 613.903 3.89707 1.09135 0
M  V30 6551 H 610.658 4.67249 -0.772995 0
M  V30 6552 H 611.082 6.07541 -2.98701 0
M  V30 6553 H 615.724 4.14873 -0.814891 0
M  V30 6554 H 613.442 6.76852 -4.41472 0
M  V30 6555 H 617.028 5.182 -2.645 0
M  V30 6556 H 615.908 6.47693 -4.42113 0
M  V30 6557 N 613.412 0.11024 1.57214 0
M  V30 6558 C 614.658 -0.550684 1.9518 0
M  V30 6559 C 614.991 -1.66885 0.993122 0
M  V30 6560 O 614.266 -1.94479 0.0287907 0
M  V30 6561 C 614.549 -1.09163 3.43155 0
M  V30 6562 C 614.402 0.0225198 4.49794 0
M  V30 6563 C 615.721 -1.98527 3.92778 0
M  V30 6564 H 612.84 -0.198706 0.709708 0
M  V30 6565 H 615.482 0.184024 1.89107 0
M  V30 6566 H 613.632 -1.71775 3.48462 0
M  V30 6567 H 615.304 0.657443 4.56591 0
M  V30 6568 H 613.547 0.686868 4.28328 0
M  V30 6569 H 614.218 -0.39706 5.5057 0
M  V30 6570 H 616.694 -1.458 3.8972 0
M  V30 6571 H 615.57 -2.33298 4.96853 0
M  V30 6572 H 615.831 -2.90846 3.32958 0
M  V30 6573 N 614.89 -1.56749 -0.16351 0
M  V30 6574 C 615.822 -1.93587 -1.22705 0
M  V30 6575 C 616.835 -0.829824 -1.40063 0
M  V30 6576 O 618.024 -1.10826 -1.39928 0
M  V30 6577 C 615.124 -2.1803 -2.59454 0
M  V30 6578 C 614.297 -3.4928 -2.63292 0
M  V30 6579 C 613.356 -3.62457 -3.8146 0
M  V30 6580 O 612.382 -4.35004 -3.67096 0
M  V30 6581 N 613.584 -2.97888 -4.9824 0
M  V30 6582 H 616.349 -2.8542 -0.914081 0
M  V30 6583 H 613.91 -1.58 -0.353214 0
M  V30 6584 H 615.902 -2.24102 -3.36987 0
M  V30 6585 H 614.472 -1.32543 -2.8311 0
M  V30 6586 H 613.692 -3.54795 -1.71796 0
M  V30 6587 H 614.98 -4.35632 -2.62873 0
M  V30 6588 H 614.378 -2.38833 -5.12811 0
M  V30 6589 H 612.935 -3.09545 -5.73607 0
M  V30 6590 N 616.368 0.432326 -1.51554 0
M  V30 6591 C 617.615 1.18134 -1.64471 0
M  V30 6592 C 617.943 1.91076 -0.363349 0
M  V30 6593 O 617.198 1.84492 0.65279 0
M  V30 6594 C 617.497 2.21907 -2.80164 0
M  V30 6595 C 617.163 1.65941 -4.19255 0
M  V30 6596 C 615.825 1.50401 -4.57092 0
M  V30 6597 C 618.177 1.24843 -5.06027 0
M  V30 6598 C 615.505 0.922443 -5.79403 0
M  V30 6599 C 617.857 0.68113 -6.28922 0
M  V30 6600 C 616.521 0.512673 -6.65528 0
M  V30 6601 H 615.791 0.432283 -0.601841 0
M  V30 6602 H 618.438 0.471701 -1.856 0
M  V30 6603 H 616.743 2.98928 -2.53277 0
M  V30 6604 H 618.44 2.79691 -2.87357 0
M  V30 6605 H 615.03 1.79014 -3.89425 0
M  V30 6606 H 619.214 1.35667 -4.77397 0
M  V30 6607 H 614.47 0.779733 -6.06408 0
M  V30 6608 H 618.644 0.35418 -6.95499 0
M  V30 6609 H 616.271 0.0599084 -7.60176 0
M  V30 6610 N 617.846 1.41785 0.688094 0
M  V30 6611 C 619.071 1.45117 1.48175 0
M  V30 6612 C 619.496 0.060129 1.88004 0
M  V30 6613 O 618.854 -0.938385 1.55126 0
M  V30 6614 C 618.902 2.37224 2.71583 0
M  V30 6615 O 618.006 1.83443 3.69354 0
M  V30 6616 H 617.347 0.492208 0.445676 0
M  V30 6617 H 619.877 1.86329 0.845145 0
M  V30 6618 H 619.887 2.53353 3.19806 0
M  V30 6619 H 618.562 3.38293 2.41931 0
M  V30 6620 H 617.139 1.76802 3.28322 0
M  V30 6621 N 619.324 -0.923095 1.27737 0
M  V30 6622 C 620.274 -2.01061 1.0751 0
M  V30 6623 C 621.258 -1.609 0.00165451 0
M  V30 6624 O 622.45 -1.75618 0.220724 0
M  V30 6625 C 619.579 -3.35467 0.729162 0
M  V30 6626 C 618.665 -3.82059 1.84098 0
M  V30 6627 N 619.056 -4.01115 3.08124 0
M  V30 6628 C 617.354 -4.11135 1.7287 0
M  V30 6629 C 618.055 -4.39989 3.80506 0
M  V30 6630 N 617.031 -4.47721 3.08297 0
M  V30 6631 H 620.833 -2.13832 2.01626 0
M  V30 6632 H 618.347 -1.11027 1.18519 0
M  V30 6633 H 620.344 -4.13049 0.565355 0
M  V30 6634 H 619.004 -3.24056 -0.204334 0
M  V30 6635 H 620.015 -3.87294 3.43836 0
M  V30 6636 H 616.692 -4.08412 0.866352 0
M  V30 6637 H 618.082 -4.62773 4.87125 0
M  V30 6638 N 620.802 -1.09834 -1.13024 0
M  V30 6639 C 621.765 -0.745058 -2.16752 0
M  V30 6640 C 622.765 0.227435 -1.59183 0
M  V30 6641 O 623.955 0.0050786 -1.74199 0
M  V30 6642 C 621.087 -0.102543 -3.40746 0
M  V30 6643 H 622.28 -1.66375 -2.49518 0
M  V30 6644 H 619.833 -0.898061 -1.27924 0
M  V30 6645 H 620.568 0.827177 -3.13573 0
M  V30 6646 H 620.353 -0.80235 -3.83803 0
M  V30 6647 H 621.843 0.129082 -4.174 0
M  V30 6648 N 622.28 1.30327 -0.886154 0
M  V30 6649 C 623.213 2.26241 -0.298407 0
M  V30 6650 C 624.191 1.51839 0.581704 0
M  V30 6651 O 625.375 1.80851 0.531536 0
M  V30 6652 C 622.502 3.33768 0.575888 0
M  V30 6653 C 621.548 4.25852 -0.235057 0
M  V30 6654 S 622.381 5.10277 -1.62411 0
M  V30 6655 C 623.537 6.21313 -0.756368 0
M  V30 6656 H 623.77 2.75744 -1.11141 0
M  V30 6657 H 621.303 1.38341 -0.685651 0
M  V30 6658 H 623.261 3.96186 1.07458 0
M  V30 6659 H 621.922 2.82986 1.363 0
M  V30 6660 H 621.115 5.02143 0.432198 0
M  V30 6661 H 620.717 3.68015 -0.666409 0
M  V30 6662 H 623.009 6.77495 0.0261451 0
M  V30 6663 H 623.952 6.92226 -1.49093 0
M  V30 6664 H 624.36 5.63611 -0.316749 0
M  V30 6665 N 623.758 0.647228 1.43697 0
M  V30 6666 C 625.035 0.0883758 1.954 0
M  V30 6667 C 625.415 -1.39006 1.58873 0
M  V30 6668 O 624.763 -2.11255 0.87083 0
M  V30 6669 C 624.973 0.328263 3.47453 0
M  V30 6670 C 626.321 0.230009 4.23977 0
M  V30 6671 O 627.345 0.260496 3.55246 0
M  V30 6672 O 626.204 0.148615 5.46298 0
M  V30 6673 H 623.298 -0.0130683 0.826897 0
M  V30 6674 H 625.844 0.72005 1.53666 0
M  V30 6675 H 624.616 1.3535 3.67146 0
M  V30 6676 H 624.239 -0.336772 3.96171 0
M  V30 6677 N 625.236 -1.5273 0.388769 0
M  V30 6678 C 626.464 -2.05992 -0.193677 0
M  V30 6679 C 626.879 -1.26053 -1.40557 0
M  V30 6680 O 626.236 -0.307049 -1.79898 0
M  V30 6681 C 626.287 -3.57068 -0.564321 0
M  V30 6682 O 626.008 -4.3398 0.599422 0
M  V30 6683 C 627.509 -4.26674 -1.20269 0
M  V30 6684 H 624.729 -0.670358 -0.0293445 0
M  V30 6685 H 627.273 -1.96857 0.553844 0
M  V30 6686 H 625.428 -3.66277 -1.26174 0
M  V30 6687 H 625.842 -5.2367 0.294895 0
M  V30 6688 H 627.316 -5.33625 -1.4124 0
M  V30 6689 H 627.793 -3.81854 -2.16989 0
M  V30 6690 H 628.399 -4.2178 -0.546047 0
M  V30 6691 N 626.714 -0.118576 -1.57153 0
M  V30 6692 C 627.644 0.828436 -2.1831 0
M  V30 6693 C 628.625 1.27758 -1.12303 0
M  V30 6694 O 629.81 1.34026 -1.40537 0
M  V30 6695 C 626.94 2.07876 -2.78217 0
M  V30 6696 C 625.894 1.76742 -3.89803 0
M  V30 6697 C 625.22 3.08801 -4.36516 0
M  V30 6698 C 626.52 1.03606 -5.11921 0
M  V30 6699 H 628.214 0.318824 -2.97698 0
M  V30 6700 H 625.76 0.151911 -1.43196 0
M  V30 6701 H 627.713 2.74584 -3.19659 0
M  V30 6702 H 626.437 2.61161 -1.96118 0
M  V30 6703 H 625.096 1.12424 -3.48936 0
M  V30 6704 H 624.744 3.6002 -3.51276 0
M  V30 6705 H 624.444 2.88743 -5.11763 0
M  V30 6706 H 625.968 3.76627 -4.80608 0
M  V30 6707 H 627.382 1.60467 -5.50385 0
M  V30 6708 H 625.779 0.936454 -5.92748 0
M  V30 6709 H 626.849 0.0227421 -4.84895 0
M  V30 6710 N 628.193 1.56834 0.155195 0
M  V30 6711 C 629.123 2.00678 1.19376 0
M  V30 6712 C 630.104 0.884973 1.45266 0
M  V30 6713 O 631.289 1.1522 1.56326 0
M  V30 6714 C 628.419 2.38042 2.5289 0
M  V30 6715 C 627.373 3.53332 2.41538 0
M  V30 6716 C 626.699 3.76485 3.79688 0
M  V30 6717 C 627.999 4.86265 1.9064 0
M  V30 6718 H 629.693 2.87688 0.829232 0
M  V30 6719 H 627.239 1.38407 0.397445 0
M  V30 6720 H 629.192 2.67314 3.25763 0
M  V30 6721 H 627.916 1.4796 2.91162 0
M  V30 6722 H 626.575 3.24213 1.71117 0
M  V30 6723 H 626.223 2.83667 4.15382 0
M  V30 6724 H 625.923 4.54068 3.72956 0
M  V30 6725 H 627.447 4.08174 4.54122 0
M  V30 6726 H 628.861 5.14308 2.53299 0
M  V30 6727 H 627.258 5.67597 1.94818 0
M  V30 6728 H 628.328 4.77184 0.861596 0
M  V30 6729 N 629.671 -0.424282 1.51781 0
M  V30 6730 C 630.918 -1.1726 1.65095 0
M  V30 6731 C 631.246 -1.90881 0.373477 0
M  V30 6732 O 630.501 -1.84835 -0.642997 0
M  V30 6733 C 630.8 -2.20418 2.81337 0
M  V30 6734 C 630.466 -1.63715 4.20129 0
M  V30 6735 C 629.128 -1.47975 4.57883 0
M  V30 6736 C 631.48 -1.22157 5.06682 0
M  V30 6737 C 628.808 -0.891703 5.79884 0
M  V30 6738 C 631.16 -0.647767 6.29275 0
M  V30 6739 C 629.824 -0.477371 6.65791 0
M  V30 6740 H 629.094 -0.429085 0.604125 0
M  V30 6741 H 631.741 -0.461852 1.85847 0
M  V30 6742 H 630.046 -2.97581 2.54859 0
M  V30 6743 H 631.743 -2.78163 2.88836 0
M  V30 6744 H 628.333 -1.76946 3.90369 0
M  V30 6745 H 632.517 -1.33133 4.7811 0
M  V30 6746 H 627.773 -0.747563 6.06813 0
M  V30 6747 H 631.947 -0.317291 6.95677 0
M  V30 6748 H 629.574 -0.0195936 7.60197 0
M  V30 6749 N 631.149 -1.42148 -0.680565 0
M  V30 6750 C 632.565 -1.24947 -0.992995 0
M  V30 6751 C 632.765 -0.149527 -2.00944 0
M  V30 6752 O 631.821 0.481145 -2.47873 0
M  V30 6753 C 633.134 -2.60426 -1.5033 0
M  V30 6754 C 634.682 -2.67733 -1.62137 0
M  V30 6755 C 635.157 -4.03564 -2.16565 0
M  V30 6756 N 636.648 -4.05488 -2.23905 0
M  V30 6757 C 637.383 -5.07401 -2.67081 0
M  V30 6758 N 636.879 -6.19698 -3.09751 0
M  V30 6759 N 638.672 -4.94758 -2.66778 0
M  V30 6760 H 630.823 -2.12399 -0.0074788 0
M  V30 6761 H 633.086 -0.94571 -0.0658529 0
M  V30 6762 H 632.792 -3.41743 -0.830947 0
M  V30 6763 H 632.666 -2.83949 -2.483 0
M  V30 6764 H 635.053 -1.86765 -2.2848 0
M  V30 6765 H 635.134 -2.48004 -0.626713 0
M  V30 6766 H 634.778 -4.84987 -1.50833 0
M  V30 6767 H 634.708 -4.20641 -3.1681 0
M  V30 6768 H 637.199 -3.24415 -1.93812 0
M  V30 6769 H 637.512 -6.93318 -3.41365 0
M  V30 6770 H 635.857 -6.23212 -3.07623 0
M  V30 6771 H 639.048 -4.06105 -2.32801 0
M  V30 6772 H 639.221 -5.74317 -3.00107 0
M  V30 6773 N 632.627 0.916307 -1.28225 0
M  V30 6774 C 633.557 2.0352 -1.14464 0
M  V30 6775 C 634.538 1.70045 -0.0430844 0
M  V30 6776 O 635.723 1.92954 -0.219619 0
M  V30 6777 C 632.853 3.37889 -0.803027 0
M  V30 6778 C 631.807 3.85516 -1.85908 0
M  V30 6779 C 631.133 5.1682 -1.37116 0
M  V30 6780 C 632.433 4.07655 -3.26519 0
M  V30 6781 H 634.127 2.1529 -2.08064 0
M  V30 6782 H 631.673 1.03446 -1.00174 0
M  V30 6783 H 633.626 4.15654 -0.693537 0
M  V30 6784 H 632.35 3.26164 0.168674 0
M  V30 6785 H 631.009 3.09953 -1.95767 0
M  V30 6786 H 630.657 5.01497 -0.38859 0
M  V30 6787 H 630.357 5.49657 -2.07728 0
M  V30 6788 H 631.881 5.97143 -1.27484 0
M  V30 6789 H 633.295 4.75953 -3.19596 0
M  V30 6790 H 631.692 4.51818 -3.94943 0
M  V30 6791 H 632.762 3.12553 -3.70727 0
M  V30 6792 N 634.105 1.10431 1.1244 0
M  V30 6793 C 635.335 0.867612 1.87499 0
M  V30 6794 C 635.743 -0.585475 1.79913 0
M  V30 6795 O 635.086 -1.41539 1.171 0
M  V30 6796 C 635.148 1.2374 3.37533 0
M  V30 6797 C 634.812 2.69751 3.68895 0
M  V30 6798 C 635.809 3.67988 3.67261 0
M  V30 6799 C 633.494 3.06135 3.98229 0
M  V30 6800 C 635.488 5.00632 3.9452 0
M  V30 6801 C 633.175 4.38967 4.25149 0
M  V30 6802 C 634.173 5.36025 4.23281 0
M  V30 6803 O 633.861 6.66465 4.49533 0
M  V30 6804 H 633.593 0.311196 0.600111 0
M  V30 6805 H 636.147 1.47257 1.43194 0
M  V30 6806 H 634.377 0.575537 3.82393 0
M  V30 6807 H 636.066 0.978187 3.93937 0
M  V30 6808 H 636.832 3.41224 3.44661 0
M  V30 6809 H 632.711 2.31214 3.98825 0
M  V30 6810 H 636.255 5.7638 3.92978 0
M  V30 6811 H 632.152 4.6547 4.47223 0
M  V30 6812 H 632.92 6.72095 4.67152 0
M  V30 6813 N 635.583 -1.29855 0.893053 0
M  V30 6814 C 636.513 -2.3035 0.382249 0
M  V30 6815 C 637.494 -1.61328 -0.539203 0
M  V30 6816 O 638.679 -1.88882 -0.451342 0
M  V30 6817 C 635.809 -3.45024 -0.396983 0
M  V30 6818 C 634.763 -4.258 0.433437 0
M  V30 6819 C 634.089 -5.32605 -0.472889 0
M  V30 6820 C 635.389 -4.94549 1.67984 0
M  V30 6821 H 637.083 -2.73325 1.22205 0
M  V30 6822 H 634.629 -1.314 0.589073 0
M  V30 6823 H 636.582 -4.14398 -0.765024 0
M  V30 6824 H 635.306 -3.00875 -1.2705 0
M  V30 6825 H 633.965 -3.58125 0.783723 0
M  V30 6826 H 633.613 -4.84702 -1.34435 0
M  V30 6827 H 633.313 -5.87547 0.0789958 0
M  V30 6828 H 634.837 -6.04832 -0.837269 0
M  V30 6829 H 636.251 -5.56395 1.38192 0
M  V30 6830 H 634.648 -5.59393 2.17254 0
M  V30 6831 H 635.718 -4.20215 2.41965 0
M  V30 6832 N 637.061 -0.65484 -1.43351 0
M  V30 6833 C 637.991 0.0221809 -2.33489 0
M  V30 6834 C 638.972 0.810272 -1.49561 0
M  V30 6835 O 640.157 0.771426 -1.78221 0
M  V30 6836 C 637.287 0.988117 -3.32947 0
M  V30 6837 C 636.241 0.310026 -4.26876 0
M  V30 6838 C 635.567 1.38752 -5.16384 0
M  V30 6839 C 636.867 -0.798589 -5.16159 0
M  V30 6840 H 638.561 -0.730571 -2.9035 0
M  V30 6841 H 636.107 -0.352773 -1.39612 0
M  V30 6842 H 638.06 1.47067 -3.94904 0
M  V30 6843 H 636.784 1.77205 -2.74346 0
M  V30 6844 H 635.443 -0.152097 -3.66284 0
M  V30 6845 H 635.091 2.16293 -4.54121 0
M  V30 6846 H 634.791 0.939051 -5.80048 0
M  V30 6847 H 636.315 1.87141 -5.81215 0
M  V30 6848 H 637.729 -0.398126 -5.71916 0
M  V30 6849 H 636.126 -1.17163 -5.88552 0
M  V30 6850 H 637.196 -1.65588 -4.55751 0
M  V30 6851 N 638.539 1.52521 -0.396863 0
M  V30 6852 C 639.786 2.01672 0.182898 0
M  V30 6853 C 640.114 1.28302 1.46181 0
M  V30 6854 O 639.369 0.374118 1.92091 0
M  V30 6855 C 639.668 3.5403 0.489677 0
M  V30 6856 C 639.334 4.45456 -0.698581 0
M  V30 6857 C 637.996 4.70166 -1.02454 0
M  V30 6858 C 640.348 4.99354 -1.49316 0
M  V30 6859 C 637.676 5.46024 -2.1465 0
M  V30 6860 C 640.028 5.76439 -2.60579 0
M  V30 6861 C 638.692 5.99426 -2.93675 0
M  V30 6862 H 637.962 0.737971 0.066927 0
M  V30 6863 H 640.609 1.83853 -0.535764 0
M  V30 6864 H 638.914 3.69963 1.28976 0
M  V30 6865 H 640.611 3.8956 0.951018 0
M  V30 6866 H 637.201 4.26392 -0.434525 0
M  V30 6867 H 641.385 4.80182 -1.25457 0
M  V30 6868 H 636.641 5.62046 -2.40654 0
M  V30 6869 H 640.815 6.17202 -3.22544 0
M  V30 6870 H 638.442 6.57988 -3.80731 0
M  V30 6871 N 640.017 0.126909 1.57088 0
M  V30 6872 C 640.95 -0.857844 2.11462 0
M  V30 6873 C 641.928 -1.25569 1.03301 0
M  V30 6874 O 643.112 -1.35535 1.31006 0
M  V30 6875 C 640.239 -2.14912 2.61784 0
M  V30 6876 C 639.285 -1.89874 3.81903 0
M  V30 6877 S 640.118 -1.10785 5.23915 0
M  V30 6878 C 641.274 -2.41075 5.7761 0
M  V30 6879 H 641.507 -0.395384 2.94659 0
M  V30 6880 H 639.04 -0.0870151 1.54155 0
M  V30 6881 H 640.998 -2.89101 2.91429 0
M  V30 6882 H 639.659 -2.58275 1.78754 0
M  V30 6883 H 638.852 -2.85572 4.15289 0
M  V30 6884 H 638.454 -1.23802 3.52915 0
M  V30 6885 H 640.746 -3.36864 5.87817 0
M  V30 6886 H 641.689 -2.12223 6.75549 0
M  V30 6887 H 642.097 -2.50804 5.05725 0
M  V30 6888 N 641.495 -1.56914 -0.146875 0
M  V30 6889 C 642.458 -1.97368 -1.16526 0
M  V30 6890 C 643.458 -0.860223 -1.35856 0
M  V30 6891 O 644.648 -1.12684 -1.32846 0
M  V30 6892 C 641.78 -2.28974 -2.52555 0
M  V30 6893 H 642.973 -2.88523 -0.818209 0
M  V30 6894 H 640.526 -1.5135 -0.390221 0
M  V30 6895 H 641.261 -1.40611 -2.92231 0
M  V30 6896 H 641.046 -3.10157 -2.39886 0
M  V30 6897 H 642.536 -2.61109 -3.25902 0
M  V30 6898 N 642.974 0.416227 -1.52004 0
M  V30 6899 C 644.199 1.19029 -1.69843 0
M  V30 6900 C 644.624 1.83708 -0.404103 0
M  V30 6901 O 643.982 1.69711 0.637787 0
M  V30 6902 C 644.03 2.23439 -2.83032 0
M  V30 6903 O 643.134 3.29419 -2.48106 0
M  V30 6904 H 642.475 0.347785 -0.565634 0
M  V30 6905 H 645.005 0.488871 -1.98674 0
M  V30 6906 H 645.015 2.67884 -3.07737 0
M  V30 6907 H 643.69 1.75745 -3.76944 0
M  V30 6908 H 642.267 2.90303 -2.34048 0
M  V30 6909 N 644.452 1.42507 0.673017 0
M  V30 6910 C 645.677 1.4668 1.46627 0
M  V30 6911 C 646.102 0.080066 1.8793 0
M  V30 6912 O 645.46 -0.921879 1.56112 0
M  V30 6913 C 645.508 2.40091 2.69051 0
M  V30 6914 O 644.612 1.8735 3.67387 0
M  V30 6915 H 643.953 0.496908 0.44043 0
M  V30 6916 H 646.483 1.87215 0.825334 0
M  V30 6917 H 646.493 2.56731 3.17101 0
M  V30 6918 H 645.168 3.4084 2.3833 0
M  V30 6919 H 643.745 1.80274 3.26429 0
M  V30 6920 N 645.93 -0.909495 1.28709 0
M  V30 6921 C 647.179 -1.65365 1.15487 0
M  V30 6922 C 647.492 -1.93364 -0.294941 0
M  V30 6923 O 648.698 -2.65905 -0.548338 0
M  V30 6924 C 647.154 -2.97923 2.01916 0
M  V30 6925 C 646.762 -2.77556 3.51663 0
M  V30 6926 C 648.506 -3.75814 1.97393 0
M  V30 6927 C 646.413 -4.0578 4.30229 0
M  V30 6928 H 645.343 -0.620323 0.42862 0
M  V30 6929 H 647.994 -1.00894 1.53273 0
M  V30 6930 H 646.376 -3.63552 1.5699 0
M  V30 6931 H 647.55 -2.2058 4.04575 0
M  V30 6932 H 645.865 -2.13072 3.57756 0
M  V30 6933 H 648.462 -4.70866 2.53357 0
M  V30 6934 H 648.805 -4.05277 0.951643 0
M  V30 6935 H 649.338 -3.1701 2.40311 0
M  V30 6936 H 646.077 -3.81488 5.33055 0
M  V30 6937 H 645.597 -4.62351 3.82089 0
M  V30 6938 H 647.276 -4.74004 4.40374 0
M  V30 6939 N 647.408 -1.11026 -1.11852 0
M  V30 6940 C 648.338 -0.786812 -2.19844 0
M  V30 6941 C 649.319 0.242935 -1.68356 0
M  V30 6942 O 650.504 0.107355 -1.93903 0
M  V30 6943 C 647.634 -0.224516 -3.46574 0
M  V30 6944 C 646.588 -1.18564 -4.1125 0
M  V30 6945 C 645.914 -0.484261 -5.32503 0
M  V30 6946 C 647.214 -2.53465 -4.56676 0
M  V30 6947 H 648.908 -1.68978 -2.47158 0
M  V30 6948 H 646.454 -0.813906 -1.18792 0
M  V30 6949 H 648.407 0.0139435 -4.21398 0
M  V30 6950 H 647.131 0.713722 -3.18706 0
M  V30 6951 H 645.79 -1.40966 -3.38414 0
M  V30 6952 H 645.438 0.458646 -5.00905 0
M  V30 6953 H 645.138 -1.12526 -5.76725 0
M  V30 6954 H 646.662 -0.254492 -6.10069 0
M  V30 6955 H 648.076 -2.35177 -5.22843 0
M  V30 6956 H 646.473 -3.13507 -5.11697 0
M  V30 6957 H 647.543 -3.13008 -3.70343 0
M  V30 6958 N 648.886 1.2938 -0.899927 0
M  V30 6959 C 650.114 1.99691 -0.541386 0
M  V30 6960 C 650.529 1.67355 0.873936 0
M  V30 6961 O 649.886 0.918728 1.57688 0
M  V30 6962 C 649.937 3.54168 -0.72438 0
M  V30 6963 O 649.658 3.85359 -2.08399 0
M  V30 6964 C 651.159 4.41746 -0.370819 0
M  V30 6965 H 648.379 0.638037 -0.207726 0
M  V30 6966 H 650.923 1.6491 -1.20934 0
M  V30 6967 H 649.078 3.87261 -0.103607 0
M  V30 6968 H 649.492 4.80032 -2.11352 0
M  V30 6969 H 650.966 5.49256 -0.549693 0
M  V30 6970 H 651.443 4.33712 0.692148 0
M  V30 6971 H 652.049 4.14125 -0.968543 0
M  V30 6972 N 650.364 0.662433 1.43002 0
M  V30 6973 C 651.61 0.179857 2.02001 0
M  V30 6974 C 651.943 -1.20625 1.52195 0
M  V30 6975 O 651.218 -1.80726 0.718911 0
M  V30 6976 C 651.501 0.200845 3.59539 0
M  V30 6977 C 651.354 1.62153 4.19555 0
M  V30 6978 C 652.673 -0.457738 4.37713 0
M  V30 6979 H 649.792 0.0668305 0.733964 0
M  V30 6980 H 652.434 0.84487 1.70182 0
M  V30 6981 H 650.584 -0.365411 3.86778 0
M  V30 6982 H 652.256 2.23908 4.03315 0
M  V30 6983 H 650.499 2.16601 3.75854 0
M  V30 6984 H 651.17 1.58799 5.28665 0
M  V30 6985 H 653.646 0.0241495 4.16093 0
M  V30 6986 H 652.522 -0.412363 5.47349 0
M  V30 6987 H 652.783 -1.53336 4.14657 0
M  V30 6988 N 651.842 -1.52309 0.404946 0
M  V30 6989 C 653.091 -2.00952 -0.173529 0
M  V30 6990 C 653.404 -1.29512 -1.46581 0
M  V30 6991 O 654.61 -1.6895 -2.12528 0
M  V30 6992 C 653.066 -3.58097 -0.359801 0
M  V30 6993 C 652.674 -4.38449 0.920138 0
M  V30 6994 C 654.418 -4.14984 -0.893794 0
M  V30 6995 C 652.325 -5.87227 0.701285 0
M  V30 6996 H 651.255 -0.750871 -0.0686244 0
M  V30 6997 H 653.906 -1.75687 0.529749 0
M  V30 6998 H 652.288 -3.79675 -1.12531 0
M  V30 6999 H 653.462 -4.28633 1.69147 0
M  V30 7000 H 651.777 -3.92859 1.38024 0
M  V30 7001 H 654.374 -5.23813 -1.0735 0
M  V30 7002 H 654.717 -3.72072 -1.8673 0
M  V30 7003 H 655.25 -3.97358 -0.187453 0
M  V30 7004 H 651.989 -6.34491 1.64624 0
M  V30 7005 H 651.509 -5.99792 -0.0308288 0
M  V30 7006 H 653.188 -6.46096 0.341846 0
M  V30 7007 N 653.32 -0.135238 -1.57019 0
M  V30 7008 C 654.566 0.519563 -1.96032 0
M  V30 7009 C 654.899 1.65284 -1.01955 0
M  V30 7010 O 654.174 1.94408 -0.059727 0
M  V30 7011 C 654.457 1.0369 -3.44848 0
M  V30 7012 C 654.31 -0.0940754 -4.49702 0
M  V30 7013 C 655.629 1.92254 -3.95887 0
M  V30 7014 H 652.748 0.18739 -0.712779 0
M  V30 7015 H 655.39 -0.214086 -1.8879 0
M  V30 7016 H 653.54 1.66209 -3.5115 0
M  V30 7017 H 655.212 -0.73 -4.55487 0
M  V30 7018 H 653.455 -0.754924 -4.27181 0
M  V30 7019 H 654.126 0.309419 -5.51132 0
M  V30 7020 H 656.602 1.39581 -3.9199 0
M  V30 7021 H 655.478 2.25364 -5.00502 0
M  V30 7022 H 655.739 2.85513 -3.37543 0
M  V30 7023 N 654.798 1.5699 0.138552 0
M  V30 7024 C 655.728 2.01933 1.17241 0
M  V30 7025 C 656.709 0.90033 1.44319 0
M  V30 7026 O 657.894 1.16872 1.55095 0
M  V30 7027 C 655.024 2.40711 2.50351 0
M  V30 7028 C 653.978 3.55874 2.37776 0
M  V30 7029 C 653.304 3.80491 3.75674 0
M  V30 7030 C 654.604 4.8826 1.85472 0
M  V30 7031 H 656.298 2.88551 0.798672 0
M  V30 7032 H 653.844 1.3882 0.382743 0
M  V30 7033 H 655.797 2.70754 3.22909 0
M  V30 7034 H 654.521 1.5104 2.89576 0
M  V30 7035 H 653.18 3.2601 1.67669 0
M  V30 7036 H 652.828 2.88057 4.12349 0
M  V30 7037 H 652.528 4.57998 3.68119 0
M  V30 7038 H 654.052 4.12967 4.49767 0
M  V30 7039 H 655.466 5.16965 2.4783 0
M  V30 7040 H 653.863 5.69631 1.88787 0
M  V30 7041 H 654.933 4.78071 0.810935 0
M  V30 7042 N 656.276 -0.40816 1.52223 0
M  V30 7043 C 657.522 -1.15347 1.67531 0
M  V30 7044 C 657.877 -1.8818 0.400748 0
M  V30 7045 O 657.17 -1.81803 -0.604845 0
M  V30 7046 C 657.364 -2.17422 2.83659 0
M  V30 7047 C 657.193 -1.54611 4.22286 0
M  V30 7048 C 655.963 -1.31841 4.87797 0
M  V30 7049 C 658.161 -1.00648 5.04355 0
M  V30 7050 N 656.143 -0.649338 6.10456 0
M  V30 7051 C 657.514 -0.464384 6.18258 0
M  V30 7052 C 659.569 -0.901041 4.89679 0
M  V30 7053 C 658.272 0.172825 7.19092 0
M  V30 7054 C 660.298 -0.277684 5.90748 0
M  V30 7055 C 659.66 0.253734 7.03943 0
M  V30 7056 H 655.759 -0.408722 0.666686 0
M  V30 7057 H 658.343 -0.445713 1.8953 0
M  V30 7058 H 656.514 -2.85554 2.63274 0
M  V30 7059 H 658.246 -2.84321 2.87999 0
M  V30 7060 H 655.001 -1.58819 4.46176 0
M  V30 7061 H 655.425 -0.3314 6.76188 0
M  V30 7062 H 660.067 -1.29772 4.02392 0
M  V30 7063 H 657.785 0.581564 8.06005 0
M  V30 7064 H 661.371 -0.197605 5.81464 0
M  V30 7065 H 660.251 0.728482 7.80809 0
M  V30 7066 N 657.755 -1.42862 -0.66545 0
M  V30 7067 C 658.703 -1.47319 -1.8 0
M  V30 7068 C 659.697 -0.347963 -1.65788 0
M  V30 7069 O 660.903 -0.521406 -1.72283 0
M  V30 7070 H 657.278 -0.461588 -0.593667 0
M  V30 7071 H 659.249 -2.42876 -1.7336 0
M  V30 7072 C 657.998 -1.40152 -3.18203 0
M  V30 7073 H 657.321 -2.26035 -3.2977 0
M  V30 7074 H 658.761 -1.47331 -3.9758 0
M  V30 7075 C 657.22 -0.117493 -3.36695 0
M  V30 7076 O 657.75 0.826058 -3.93115 0
M  V30 7077 N 655.956 -0.0316218 -2.90583 0
M  V30 7078 H 655.503 -0.800247 -2.44855 0
M  V30 7079 H 655.461 0.826835 -3.03333 0
M  V30 7080 N 659.233 0.902656 -1.29189 0
M  V30 7081 C 660.461 1.68639 -1.19869 0
M  V30 7082 C 660.876 1.87254 0.241121 0
M  V30 7083 O 660.233 1.40745 1.16177 0
M  V30 7084 C 660.284 3.07251 -1.90471 0
M  V30 7085 O 660.005 2.89488 -3.28829 0
M  V30 7086 C 661.506 4.01653 -1.8759 0
M  V30 7087 H 658.726 0.526802 -0.415596 0
M  V30 7088 H 661.27 1.12901 -1.7051 0
M  V30 7089 H 659.425 3.59774 -1.43672 0
M  V30 7090 H 659.839 3.77296 -3.64346 0
M  V30 7091 H 661.313 4.96339 -2.4156 0
M  V30 7092 H 661.79 4.30881 -0.850756 0
M  V30 7093 H 662.396 3.55061 -2.34119 0
M  V30 7094 O 660.75 1.23723 1.03802 0
M  V30 7095 H 661.441 1.01035 1.65262 0
M  V30 END ATOM
M  V30 BEGIN BOND
M  V30 END BOND
M  V30 END CTAB
M  END
$$$$
