drugbank_target|O43677 NADH dehydrogenase [ubiquinone] 1 subunit C1, mitochondrial (DB00157)
 OpenBabel12092119293D

  0  0  0     0  0            999 V3000
M  V30 BEGIN CTAB
M  V30 COUNTS 1265 1283 0 0 0
M  V30 BEGIN ATOM
M  V30 1 H -0.908 1.98254 -0.117106 0
M  V30 2 N 0 1.576 0 0
M  V30 3 C 0.933 2.03868 1.02534 0
M  V30 4 C 1.911 0.928543 1.3348 0
M  V30 5 O 3.095 1.19667 1.45644 0
M  V30 6 C 0.222 2.43627 2.35294 0
M  V30 7 C -0.732 3.65373 2.2001 0
M  V30 8 S 0.101 5.13292 1.52614 0
M  V30 9 C 1.257 5.56322 2.86805 0
M  V30 10 H 1.49 2.90518 0.631377 0
M  V30 11 H -0.977 1.52953 0.210867 0
M  V30 12 H 0.981 2.67203 3.11629 0
M  V30 13 H -0.358 1.57376 2.7183 0
M  V30 14 H -1.165 3.90944 3.18086 0
M  V30 15 H -1.563 3.418 1.51819 0
M  V30 16 H 0.729 5.58782 3.83104 0
M  V30 17 H 1.672 6.56266 2.65933 0
M  V30 18 H 2.08 4.83886 2.90714 0
M  V30 19 N 1.4781 -0.272755 1.55222 0
M  V30 20 C 2.4411 -1.32041 1.87344 0
M  V30 21 C 3.4411 -1.42342 0.74803 0
M  V30 22 O 4.6311 -1.41488 1.0162 0
M  V30 23 C 1.7631 -2.70173 2.07893 0
M  V30 24 H 2.9561 -1.04789 2.80997 0
M  V30 25 H 0.5091 -0.51083 1.47717 0
M  V30 26 H 1.2441 -3.02605 1.16622 0
M  V30 27 H 1.0291 -2.64082 2.89833 0
M  V30 28 H 2.5191 -3.45869 2.34017 0
M  V30 29 N 2.9562 -1.48159 -0.537278 0
M  V30 30 C 4.3672 -1.49429 -1.11928 0
M  V30 31 C 4.7182 -0.26 -1.9447 0
M  V30 32 O 3.8432 0.633489 -2.0692 0
M  V30 33 C 4.4382 -2.70758 -2.03656 0
M  V30 34 C 2.9972 -2.74923 -2.57088 0
M  V30 35 C 2.1442 -2.42835 -1.3389 0
M  V30 36 H 5.0952 -1.55381 -0.322886 0
M  V30 37 H 5.1162 -2.48861 -2.87834 0
M  V30 38 H 4.6282 -3.60575 -1.43553 0
M  V30 39 H 2.7292 -1.89296 -3.20933 0
M  V30 40 H 2.8422 -3.76157 -2.9672 0
M  V30 41 H 1.2062 -1.93836 -1.65226 0
M  V30 42 H 1.9892 -3.34884 -0.755504 0
M  V30 43 N 4.4343 0.785586 -1.36625 0
M  V30 44 C 5.6593 1.57963 -1.34397 0
M  V30 45 C 6.0843 1.87964 0.071526 0
M  V30 46 O 5.4423 1.48182 1.0446 0
M  V30 47 C 5.4903 2.87511 -2.17646 0
M  V30 48 O 4.5943 3.81281 -1.57158 0
M  V30 49 H 3.9353 0.479014 -0.459828 0
M  V30 50 H 6.4653 0.973411 -1.79961 0
M  V30 51 H 6.4753 3.36745 -2.30362 0
M  V30 52 H 5.1503 2.65002 -3.20541 0
M  V30 53 H 3.7273 3.39885 -1.53403 0
M  V30 54 N 5.9124 1.20967 1.01018 0
M  V30 55 C 6.8754 0.965918 2.07853 0
M  V30 56 C 7.8754 -0.0610545 1.60684 0
M  V30 57 O 9.0654 0.175681 1.73312 0
M  V30 58 C 6.1974 0.455513 3.37843 0
M  V30 59 H 7.3904 1.91365 2.3091 0
M  V30 60 H 4.9434 1.02594 1.17916 0
M  V30 61 H 5.6784 -0.497381 3.20463 0
M  V30 62 H 5.4634 1.19622 3.73407 0
M  V30 63 H 6.9534 0.304667 4.16487 0
M  V30 64 N 7.3905 -1.2043 1.01659 0
M  V30 65 C 8.3205 -2.25466 0.607226 0
M  V30 66 C 9.3015 -1.65853 -0.377716 0
M  V30 67 O 10.4865 -1.92409 -0.263149 0
M  V30 68 C 7.6165 -3.47256 -0.0552949 0
M  V30 69 C 6.5705 -4.19462 0.850632 0
M  V30 70 C 5.8965 -5.34673 0.0538859 0
M  V30 71 C 7.1965 -4.75603 2.15868 0
M  V30 72 H 8.8905 -2.59962 1.48526 0
M  V30 73 H 6.4365 -1.2496 0.715605 0
M  V30 74 H 8.3895 -4.19917 -0.353233 0
M  V30 75 H 7.1135 -3.11924 -0.968045 0
M  V30 76 H 5.7725 -3.48667 1.13257 0
M  V30 77 H 5.4205 -4.95585 -0.860514 0
M  V30 78 H 5.1205 -5.83913 0.657192 0
M  V30 79 H 6.6445 -6.10138 -0.237598 0
M  V30 80 H 8.0585 -5.40083 1.92311 0
M  V30 81 H 6.4555 -5.3528 2.71284 0
M  V30 82 H 7.5255 -3.94346 2.82169 0
M  V30 83 N 8.8686 -0.792821 -1.36206 0
M  V30 84 C 9.7986 -0.207853 -2.32573 0
M  V30 85 C 10.7796 0.659055 -1.56813 0
M  V30 86 O 11.9646 0.592176 -1.84951 0
M  V30 87 C 9.0946 0.655449 -3.41059 0
M  V30 88 C 8.0486 -0.111842 -4.27854 0
M  V30 89 C 7.3746 0.872274 -5.27537 0
M  V30 90 C 8.6746 -1.30299 -5.05786 0
M  V30 91 H 10.3686 -1.01294 -2.81744 0
M  V30 92 H 7.9146 -0.48854 -1.3546 0
M  V30 93 H 9.8676 1.07464 -4.07467 0
M  V30 94 H 8.5916 1.49328 -2.90463 0
M  V30 95 H 7.2506 -0.512053 -3.63006 0
M  V30 96 H 6.8986 1.70523 -4.73214 0
M  V30 97 H 6.5986 0.363291 -5.86476 0
M  V30 98 H 8.1226 1.28996 -5.96818 0
M  V30 99 H 9.5366 -0.959379 -5.65216 0
M  V30 100 H 7.9336 -1.7455 -5.74154 0
M  V30 101 H 9.0036 -2.09663 -4.37229 0
M  V30 102 N 10.3467 1.47872 -0.545128 0
M  V30 103 C 11.7627 1.5829 -0.204032 0
M  V30 104 C 11.9627 1.54529 1.29317 0
M  V30 105 O 11.0187 1.44232 2.07252 0
M  V30 106 C 12.3317 2.89304 -0.819987 0
M  V30 107 C 13.8797 3.02864 -0.790105 0
M  V30 108 C 14.3547 4.3656 -1.38491 0
M  V30 109 N 15.8457 4.43165 -1.34755 0
M  V30 110 C 16.5807 5.45153 -1.77753 0
M  V30 111 N 16.0767 6.54016 -2.2855 0
M  V30 112 N 17.8697 5.36125 -1.68897 0
M  V30 113 H 10.0207 1.4856 -1.51802 0
M  V30 114 H 12.2837 0.706305 -0.632327 0
M  V30 115 H 11.9897 2.97757 -1.87173 0
M  V30 116 H 11.8637 3.75957 -0.305915 0
M  V30 117 H 14.2507 2.94014 0.252913 0
M  V30 118 H 14.3317 2.17782 -1.34181 0
M  V30 119 H 13.9757 4.46164 -2.42693 0
M  V30 120 H 13.9057 5.20353 -0.808754 0
M  V30 121 H 16.3967 3.65083 -0.975855 0
M  V30 122 H 16.7097 7.27994 -2.59314 0
M  V30 123 H 15.0547 6.54938 -2.32553 0
M  V30 124 H 18.2457 4.49975 -1.28998 0
M  V30 125 H 18.4187 6.15472 -2.02726 0
M  V30 126 N 11.8248 0.280983 1.55075 0
M  V30 127 C 13.2358 -0.215629 1.85451 0
M  V30 128 C 13.5868 -1.54991 1.203 0
M  V30 129 O 12.7118 -2.10699 0.493435 0
M  V30 130 C 13.3068 -0.398026 3.36454 0
M  V30 131 C 11.8658 -0.838866 3.66933 0
M  V30 132 C 11.0128 0.064458 2.77225 0
M  V30 133 H 13.9638 0.502601 1.50531 0
M  V30 134 H 13.9848 -1.23569 3.59876 0
M  V30 135 H 13.4968 0.573241 3.83843 0
M  V30 136 H 11.5978 -1.8214 3.25048 0
M  V30 137 H 11.7108 -0.672123 4.74362 0
M  V30 138 H 10.0748 -0.452863 2.50642 0
M  V30 139 H 10.8578 1.03172 3.2743 0
M  V30 140 N 13.3029 -1.57598 0.00835791 0
M  V30 141 C 14.2329 -2.1198 -0.979113 0
M  V30 142 C 15.2139 -1.03091 -1.35301 0
M  V30 143 O 16.3989 -1.30818 -1.43528 0
M  V30 144 C 13.5289 -2.62995 -2.26828 0
M  V30 145 C 12.4829 -3.76485 -2.03576 0
M  V30 146 C 11.8089 -4.13846 -3.38579 0
M  V30 147 C 13.1089 -5.0342 -1.39161 0
M  V30 148 H 14.8029 -2.94738 -0.526281 0
M  V30 149 H 12.3489 -1.41783 -0.251704 0
M  V30 150 H 14.3019 -2.99669 -2.96271 0
M  V30 151 H 13.0259 -1.7737 -2.7424 0
M  V30 152 H 11.6849 -3.40217 -1.36557 0
M  V30 153 H 11.3329 -3.25232 -3.83709 0
M  V30 154 H 11.0329 -4.90312 -3.23834 0
M  V30 155 H 12.5569 -4.53086 -4.09323 0
M  V30 156 H 13.9709 -5.37812 -1.98573 0
M  V30 157 H 12.3679 -5.84746 -1.34878 0
M  V30 158 H 13.4379 -4.83548 -0.361868 0
M  V30 159 N 14.781 0.264519 -1.55364 0
M  V30 160 C 16.006 1.01726 -1.80739 0
M  V30 161 C 16.431 1.78836 -0.583044 0
M  V30 162 O 15.789 1.75167 0.467566 0
M  V30 163 C 15.837 1.94482 -3.03659 0
M  V30 164 O 14.941 3.03386 -2.7934 0
M  V30 165 H 14.282 0.290395 -0.597132 0
M  V30 166 H 16.812 0.290854 -2.02522 0
M  V30 167 H 16.822 2.36278 -3.32621 0
M  V30 168 H 15.497 1.37772 -3.92418 0
M  V30 169 H 14.074 2.65844 -2.61498 0
M  V30 170 N 16.2591 1.48442 0.529413 0
M  V30 171 C 17.6751 1.34575 0.858004 0
M  V30 172 C 17.8751 0.3572 1.98309 0
M  V30 173 O 16.9311 -0.221379 2.51528 0
M  V30 174 C 18.2441 2.74617 1.22499 0
M  V30 175 C 19.7921 2.83109 1.33484 0
M  V30 176 C 20.2671 4.23854 1.73526 0
M  V30 177 N 21.7581 4.2653 1.80628 0
M  V30 178 C 22.4931 5.32372 2.12997 0
M  V30 179 N 21.9891 6.48491 2.43786 0
M  V30 180 N 23.7821 5.19766 2.14008 0
M  V30 181 H 15.9331 2.1133 -0.212925 0
M  V30 182 H 18.1961 0.947439 -0.0326199 0
M  V30 183 H 17.9021 3.4852 0.471905 0
M  V30 184 H 17.7761 3.08177 2.17501 0
M  V30 185 H 20.1631 2.09462 2.0787 0
M  V30 186 H 20.2441 2.53168 0.366027 0
M  V30 187 H 19.8881 4.98018 0.997013 0
M  V30 188 H 19.8181 4.5124 2.71459 0
M  V30 189 H 22.3091 3.42772 1.59108 0
M  V30 190 H 22.6221 7.24993 2.67592 0
M  V30 191 H 20.9671 6.51765 2.41304 0
M  V30 192 H 24.1581 4.28066 1.89412 0
M  V30 193 H 24.3311 6.02354 2.38902 0
M  V30 194 N 17.7372 -0.778329 1.37039 0
M  V30 195 C 18.6672 -1.90546 1.34962 0
M  V30 196 C 19.6482 -1.68681 0.219274 0
M  V30 197 O 20.8332 -1.89634 0.418624 0
M  V30 198 C 17.9632 -3.27734 1.14925 0
M  V30 199 C 16.9172 -3.64147 2.24902 0
M  V30 200 C 16.2432 -4.99806 1.89996 0
M  V30 201 C 17.5432 -3.71579 3.67051 0
M  V30 202 H 19.2372 -1.92541 2.29277 0
M  V30 203 H 16.7832 -0.924948 1.10366 0
M  V30 204 H 18.7362 -4.06215 1.12104 0
M  V30 205 H 17.4602 -3.26154 0.170631 0
M  V30 206 H 16.1192 -2.8797 2.26868 0
M  V30 207 H 15.7672 -4.94759 0.906796 0
M  V30 208 H 15.4672 -5.25139 2.63634 0
M  V30 209 H 16.9912 -5.80694 1.88749 0
M  V30 210 H 18.4052 -4.40227 3.67251 0
M  V30 211 H 16.8022 -4.08405 4.39688 0
M  V30 212 H 17.8722 -2.72404 4.01154 0
M  V30 213 N 19.2153 -1.21501 -1.00376 0
M  V30 214 C 20.1453 -0.999478 -2.11028 0
M  V30 215 C 21.1263 0.0759671 -1.6993 0
M  V30 216 O 22.3113 -0.0841106 -1.94018 0
M  V30 217 C 19.4413 -0.564709 -3.42678 0
M  V30 218 C 18.3953 -1.58486 -3.97576 0
M  V30 219 C 17.7213 -1.00628 -5.25146 0
M  V30 220 C 19.0213 -2.97204 -4.29496 0
M  V30 221 H 20.7153 -1.92495 -2.29317 0
M  V30 222 H 18.2613 -0.92693 -1.102 0
M  V30 223 H 20.2143 -0.401091 -4.19487 0
M  V30 224 H 18.9383 0.396411 -3.24185 0
M  V30 225 H 17.5973 -1.73606 -3.22888 0
M  V30 226 H 17.2453 -0.0368439 -5.02987 0
M  V30 227 H 16.9453 -1.68771 -5.62841 0
M  V30 228 H 18.4693 -0.854015 -6.04598 0
M  V30 229 H 19.8833 -2.8552 -4.97143 0
M  V30 230 H 18.2803 -3.62372 -4.78338 0
M  V30 231 H 19.3503 -3.47956 -3.3772 0
M  V30 232 N 20.6934 1.19889 -1.02296 0
M  V30 233 C 21.6564 2.21116 -0.603351 0
M  V30 234 C 22.6564 1.5738 0.329884 0
M  V30 235 O 23.8464 1.73802 0.117702 0
M  V30 236 C 20.9784 3.40696 0.117992 0
M  V30 237 H 22.1714 2.59754 -1.49893 0
M  V30 238 H 19.7244 1.33463 -0.813468 0
M  V30 239 H 20.4594 3.07569 1.0282 0
M  V30 240 H 20.2444 3.88188 -0.552511 0
M  V30 241 H 21.7344 4.15692 0.398696 0
M  V30 242 N 22.1715 0.800033 1.35784 0
M  V30 243 C 23.5825 0.439142 1.81462 0
M  V30 244 C 23.9335 -1.03813 1.66485 0
M  V30 245 O 23.0585 -1.80626 1.19177 0
M  V30 246 C 23.6535 0.790314 3.29453 0
M  V30 247 C 22.2125 0.482111 3.733 0
M  V30 248 C 21.3595 1.01938 2.57883 0
M  V30 249 H 24.3105 0.992254 1.23855 0
M  V30 250 H 24.3315 0.0853677 3.80404 0
M  V30 251 H 23.8435 1.86554 3.40322 0
M  V30 252 H 21.9445 -0.584652 3.67984 0
M  V30 253 H 22.0575 1.01015 4.6833 0
M  V30 254 H 20.4215 0.442043 2.50835 0
M  V30 255 H 21.2045 2.10059 2.71533 0
M  V30 256 N 23.6496 -1.47581 0.552962 0
M  V30 257 C 24.6126 -2.28439 -0.186605 0
M  V30 258 C 25.6126 -1.36706 -0.84665 0
M  V30 259 O 26.8026 -1.59378 -0.703164 0
M  V30 260 C 23.9346 -3.16264 -1.2724 0
M  V30 261 H 25.1276 -2.95294 0.523609 0
M  V30 262 H 22.6806 -1.532 0.309745 0
M  V30 263 H 23.4156 -2.54091 -2.01514 0
M  V30 264 H 23.2006 -3.83769 -0.803968 0
M  V30 265 H 24.6906 -3.77198 -1.79196 0
M  V30 266 N 25.1277 -0.289203 -1.54924 0
M  V30 267 C 26.5437 0.0645403 -1.59469 0
M  V30 268 C 26.7437 1.53419 -1.30632 0
M  V30 269 O 25.7997 2.2852 -1.074 0
M  V30 270 C 27.1127 -0.32278 -2.98963 0
M  V30 271 C 28.6607 -0.270564 -3.11828 0
M  V30 272 C 29.1357 -0.632532 -4.53611 0
M  V30 273 N 30.6267 -0.584617 -4.59496 0
M  V30 274 C 31.3617 -0.837314 -5.67254 0
M  V30 275 N 30.8577 -1.15536 -6.83098 0
M  V30 276 N 32.6507 -0.765166 -5.56868 0
M  V30 277 H 24.8017 -1.24714 -1.71931 0
M  V30 278 H 27.0647 -0.504809 -0.802416 0
M  V30 279 H 26.7707 -1.34541 -3.24948 0
M  V30 280 H 26.6447 0.32944 -3.75759 0
M  V30 281 H 29.0317 0.742805 -2.85598 0
M  V30 282 H 29.1127 -0.957242 -2.37214 0
M  V30 283 H 28.7567 -1.64365 -4.80569 0
M  V30 284 H 28.6867 0.07609 -5.26545 0
M  V30 285 H 31.1777 -0.349248 -3.76283 0
M  V30 286 H 31.4907 -1.33447 -7.61191 0
M  V30 287 H 29.8357 -1.19328 -6.84679 0
M  V30 288 H 33.0267 -0.516432 -4.65243 0
M  V30 289 H 33.1997 -0.965477 -6.40767 0
M  V30 290 N 26.6058 1.57591 -0.0167156 0
M  V30 291 C 27.5358 2.12496 0.967858 0
M  V30 292 C 28.5168 1.03807 1.34752 0
M  V30 293 O 29.7018 1.31577 1.42833 0
M  V30 294 C 26.8318 2.64194 2.25431 0
M  V30 295 C 25.7858 3.77559 2.01576 0
M  V30 296 C 25.1118 4.15636 3.36379 0
M  V30 297 C 26.4118 5.04151 1.36489 0
M  V30 298 H 28.1058 2.95013 0.510643 0
M  V30 299 H 25.6518 1.41915 0.244181 0
M  V30 300 H 27.6048 3.01236 2.94678 0
M  V30 301 H 26.3288 1.78821 2.73296 0
M  V30 302 H 24.9878 3.40937 1.34751 0
M  V30 303 H 24.6358 3.27263 3.81979 0
M  V30 304 H 24.3358 4.92022 3.21229 0
M  V30 305 H 25.8598 4.5525 4.06915 0
M  V30 306 H 27.2738 5.38857 1.95718 0
M  V30 307 H 25.6708 5.85453 1.31776 0
M  V30 308 H 26.7408 4.83733 0.336219 0
M  V30 309 N 28.0839 -0.256276 1.55502 0
M  V30 310 C 29.4949 -0.826068 1.67431 0
M  V30 311 C 29.8459 -1.86396 0.612446 0
M  V30 312 O 28.9709 -2.15031 -0.243025 0
M  V30 313 C 29.5659 -1.50512 3.03532 0
M  V30 314 C 28.1249 -2.02273 3.17431 0
M  V30 315 C 27.2719 -0.870548 2.63281 0
M  V30 316 H 30.2229 -0.0322728 1.58667 0
M  V30 317 H 30.2439 -2.37279 2.97454 0
M  V30 318 H 29.7559 -0.749484 3.80794 0
M  V30 319 H 27.8569 -2.80746 2.44974 0
M  V30 320 H 27.9699 -2.22655 4.24219 0
M  V30 321 H 26.3339 -1.26851 2.20864 0
M  V30 322 H 27.1169 -0.128149 3.43061 0
M  V30 323 N 29.562 -1.4872 -0.521534 0
M  V30 324 C 30.787 -1.61101 -1.30618 0
M  V30 325 C 31.212 -0.274611 -1.86085 0
M  V30 326 O 30.57 0.754937 -1.64834 0
M  V30 327 C 30.618 -2.66709 -2.4269 0
M  V30 328 O 29.722 -2.24456 -3.45967 0
M  V30 329 H 29.063 -0.539921 -0.386499 0
M  V30 330 H 31.593 -1.94767 -0.626645 0
M  V30 331 H 31.603 -2.88245 -2.88754 0
M  V30 332 H 30.278 -3.63727 -2.01682 0
M  V30 333 H 28.855 -2.13168 -3.05964 0
M  V30 334 N 31.0401 0.771051 -1.3745 0
M  V30 335 C 32.2881 1.52661 -1.32435 0
M  V30 336 C 32.6091 1.9479 0.0905024 0
M  V30 337 O 31.8791 1.66348 1.03466 0
M  V30 338 H 30.4591 0.566218 -0.487244 0
M  V30 339 H 33.1211 0.917636 -1.71946 0
M  V30 340 H 32.2171 2.42568 -1.96385 0
M  V30 341 N 32.5182 1.22032 0.997298 0
M  V30 342 C 33.9292 1.0397 1.55071 0
M  V30 343 C 34.2802 -0.398192 1.92117 0
M  V30 344 O 33.4052 -1.28254 1.74298 0
M  V30 345 C 34.0002 1.88109 2.81781 0
M  V30 346 C 32.5592 1.74357 3.33581 0
M  V30 347 C 31.7062 1.84846 2.06706 0
M  V30 348 H 34.6572 1.35941 0.818883 0
M  V30 349 H 34.6782 1.39589 3.53971 0
M  V30 350 H 34.1902 2.92754 2.54787 0
M  V30 351 H 32.2912 0.72427 3.65493 0
M  V30 352 H 32.4042 2.56772 4.04481 0
M  V30 353 H 30.7682 1.28238 2.20062 0
M  V30 354 H 31.5512 2.91014 1.82114 0
M  V30 355 N 33.9963 -1.19345 1.0293 0
M  V30 356 C 35.2213 -1.93538 0.745511 0
M  V30 357 C 35.6463 -1.75007 -0.689511 0
M  V30 358 O 35.0043 -1.05265 -1.47611 0
M  V30 359 C 35.0523 -3.43336 1.10239 0
M  V30 360 O 34.1563 -4.11806 0.221289 0
M  V30 361 H 33.4973 -0.604193 0.275404 0
M  V30 362 H 36.0273 -1.5141 1.37609 0
M  V30 363 H 36.0373 -3.94004 1.05947 0
M  V30 364 H 34.7123 -3.56146 2.14786 0
M  V30 365 H 33.2893 -3.715 0.322842 0
M  V30 366 N 35.4744 -0.807222 -1.35358 0
M  V30 367 C 36.7204 -0.388463 -1.99045 0
M  V30 368 C 37.0534 1.04184 -1.63888 0
M  V30 369 O 36.3284 1.72292 -0.902535 0
M  V30 370 C 36.6114 -0.572783 -3.55515 0
M  V30 371 C 36.4644 -2.04807 -4.00468 0
M  V30 372 C 37.7834 0.00114064 -4.401 0
M  V30 373 H 34.9024 -0.142619 -0.723069 0
M  V30 374 H 37.5444 -1.01687 -1.60498 0
M  V30 375 H 35.6944 -0.0378425 -3.88482 0
M  V30 376 H 37.3664 -2.64544 -3.77908 0
M  V30 377 H 35.6094 -2.54427 -3.51353 0
M  V30 378 H 36.2804 -2.12792 -5.09337 0
M  V30 379 H 38.7564 -0.455716 -4.13597 0
M  V30 380 H 37.6324 -0.157737 -5.48673 0
M  V30 381 H 37.8934 1.09488 -4.28328 0
M  V30 382 N 36.9525 1.47285 -0.560781 0
M  V30 383 C 38.3685 1.58065 -0.22081 0
M  V30 384 C 38.5685 1.55892 1.27671 0
M  V30 385 O 37.6245 1.46422 2.0571 0
M  V30 386 C 38.9375 2.88418 -0.850625 0
M  V30 387 C 40.4855 3.02009 -0.822184 0
M  V30 388 C 40.9605 4.35066 -1.43113 0
M  V30 389 N 42.4515 4.41711 -1.39448 0
M  V30 390 C 43.1865 5.43237 -1.83525 0
M  V30 391 N 42.6825 6.51555 -2.35474 0
M  V30 392 N 44.4755 5.34304 -1.74574 0
M  V30 393 H 36.6265 1.46941 -1.53369 0
M  V30 394 H 38.8895 0.699558 -0.639783 0
M  V30 395 H 38.5955 2.95755 -1.9032 0
M  V30 396 H 38.4695 3.75612 -0.345773 0
M  V30 397 H 40.8565 2.94266 0.221714 0
M  V30 398 H 40.9375 2.16347 -1.36483 0
M  V30 399 H 40.5815 4.43565 -2.47412 0
M  V30 400 H 40.5115 5.19465 -0.863899 0
M  V30 401 H 43.0025 3.64027 -1.01452 0
M  V30 402 H 43.3155 7.25203 -2.67021 0
M  V30 403 H 41.6605 6.52435 -2.39487 0
M  V30 404 H 44.8515 4.48581 -1.33763 0
M  V30 405 H 45.0245 6.13288 -2.09242 0
M  V30 406 N 38.4306 0.297415 1.54768 0
M  V30 407 C 39.6556 -0.318435 2.04941 0
M  V30 408 C 40.0806 -1.4701 1.17345 0
M  V30 409 O 39.4386 -1.80436 0.176758 0
M  V30 410 C 39.4866 -0.755749 3.52592 0
M  V30 411 O 38.5906 -1.86088 3.68028 0
M  V30 412 H 37.9316 -0.062421 0.661059 0
M  V30 413 H 40.4616 0.438215 1.99852 0
M  V30 414 H 40.4716 -1.04552 3.94376 0
M  V30 415 H 39.1466 0.0867233 4.1581 0
M  V30 416 H 37.7236 -1.57193 3.38149 0
M  V30 417 N 39.9087 -1.5758 0.0250728 0
M  V30 418 C 40.8557 -2.09973 -0.958129 0
M  V30 419 C 41.8257 -1.00085 -1.3256 0
M  V30 420 O 43.0107 -1.27481 -1.41962 0
M  V30 421 C 40.1507 -2.62812 -2.2366 0
M  V30 422 C 39.2637 -3.86693 -1.92594 0
M  V30 423 C 38.3987 -4.27941 -3.14707 0
M  V30 424 C 37.4377 -5.44591 -2.79442 0
M  V30 425 N 36.5747 -5.81014 -3.94167 0
M  V30 426 H 41.4147 -2.937 -0.504428 0
M  V30 427 H 38.9517 -1.45172 -0.237392 0
M  V30 428 H 40.9097 -2.91536 -2.98434 0
M  V30 429 H 39.5397 -1.81922 -2.66654 0
M  V30 430 H 38.5917 -3.64723 -1.0808 0
M  V30 431 H 39.9037 -4.71547 -1.62619 0
M  V30 432 H 39.0577 -4.58079 -3.97804 0
M  V30 433 H 37.7967 -3.41845 -3.4784 0
M  V30 434 H 36.8017 -5.1415 -1.94755 0
M  V30 435 H 38.0267 -6.32382 -2.47528 0
M  V30 436 H 35.9727 -4.97874 -4.2715 0
M  V30 437 H 35.8897 -6.60498 -3.67801 0
M  V30 438 H 37.1577 -6.15756 -4.7798 0
M  V30 439 N 41.3868 0.248026 -1.55636 0
M  V30 440 C 42.6338 0.976224 -1.77415 0
M  V30 441 C 42.9618 1.85361 -0.589193 0
M  V30 442 O 42.2168 1.90973 0.427529 0
M  V30 443 C 42.5158 1.86819 -3.04686 0
M  V30 444 C 42.1818 1.14625 -4.36087 0
M  V30 445 C 40.8438 0.946723 -4.71795 0
M  V30 446 C 43.1958 0.634463 -5.17324 0
M  V30 447 C 40.5238 0.223091 -5.86276 0
M  V30 448 C 42.8758 -0.0756959 -6.32555 0
M  V30 449 C 41.5398 -0.286711 -6.66884 0
M  V30 450 H 40.8098 0.357226 -0.649208 0
M  V30 451 H 43.4568 0.246415 -1.89908 0
M  V30 452 H 41.7618 2.66502 -2.872 0
M  V30 453 H 43.4588 2.43329 -3.18735 0
M  V30 454 H 40.0488 1.3117 -4.08035 0
M  V30 455 H 44.2328 0.77616 -4.90193 0
M  V30 456 H 39.4888 0.0491185 -6.1138 0
M  V30 457 H 43.6628 -0.479899 -6.94745 0
M  V30 458 H 41.2898 -0.849389 -7.5544 0
M  V30 459 N 42.8649 1.48995 0.513639 0
M  V30 460 C 44.0949 1.61297 1.291 0
M  V30 461 C 44.5029 0.278656 1.87137 0
M  V30 462 O 43.8459 -0.744325 1.67945 0
M  V30 463 C 43.9079 2.61326 2.46879 0
M  V30 464 C 43.5719 4.05993 2.09807 0
M  V30 465 C 44.5689 4.93183 1.64519 0
M  V30 466 C 42.2539 4.51642 2.19829 0
M  V30 467 C 44.2479 6.24056 1.2974 0
M  V30 468 C 41.9349 5.82532 1.84662 0
M  V30 469 C 42.9329 6.68562 1.3969 0
M  V30 470 O 42.6209 7.97014 1.04992 0
M  V30 471 H 42.3529 0.546236 0.39825 0
M  V30 472 H 44.9069 1.95673 0.62459 0
M  V30 473 H 43.1369 2.22104 3.16554 0
M  V30 474 H 44.8259 2.6329 3.08923 0
M  V30 475 H 45.5919 4.59147 1.56233 0
M  V30 476 H 41.4709 3.84855 2.53786 0
M  V30 477 H 45.0149 6.91161 0.945659 0
M  V30 478 H 40.9119 6.16099 1.92594 0
M  V30 479 H 41.6799 8.09913 1.18249 0
M  V30 480 N 44.343 -0.763751 1.37857 0
M  V30 481 C 45.589 -1.52483 1.33704 0
M  V30 482 C 45.922 -1.94051 -0.0759612 0
M  V30 483 O 45.197 -1.64675 -1.03501 0
M  V30 484 C 45.48 -2.78441 2.28348 0
M  V30 485 C 45.333 -2.43075 3.78463 0
M  V30 486 C 46.652 -3.80415 2.21298 0
M  V30 487 H 43.771 -0.553169 0.487005 0
M  V30 488 H 46.413 -0.875562 1.68624 0
M  V30 489 H 44.563 -3.33842 1.987 0
M  V30 490 H 46.235 -1.93527 4.18742 0
M  V30 491 H 44.478 -1.75666 3.96641 0
M  V30 492 H 45.149 -3.33149 4.40132 0
M  V30 493 H 47.625 -3.34527 2.47449 0
M  V30 494 H 46.501 -4.66257 2.89647 0
M  V30 495 H 46.762 -4.25262 1.20849 0
M  V30 496 N 45.8211 -1.22559 -0.990812 0
M  V30 497 C 47.2371 -0.985996 -1.255 0
M  V30 498 C 47.4371 0.319173 -1.98956 0
M  V30 499 O 46.4931 1.04127 -2.3003 0
M  V30 500 C 47.8061 -2.18607 -2.06474 0
M  V30 501 C 49.3541 -2.22985 -2.19651 0
M  V30 502 C 49.8291 -3.4255 -3.04012 0
M  V30 503 N 51.3201 -3.42725 -3.11599 0
M  V30 504 C 52.0551 -4.31892 -3.7717 0
M  V30 505 N 51.5511 -5.31279 -4.44651 0
M  V30 506 N 53.3441 -4.19662 -3.73952 0
M  V30 507 H 45.4951 -2.06469 -0.49841 0
M  V30 508 H 47.7581 -0.904853 -0.282747 0
M  V30 509 H 47.4641 -3.13267 -1.59865 0
M  V30 510 H 47.3381 -2.18838 -3.07229 0
M  V30 511 H 49.7251 -1.28871 -2.65474 0
M  V30 512 H 49.8061 -2.26791 -1.18319 0
M  V30 513 H 49.4501 -4.36965 -2.58889 0
M  V30 514 H 49.3801 -3.35984 -4.0549 0
M  V30 515 H 51.8711 -2.70807 -2.63575 0
M  V30 516 H 52.1841 -5.95593 -4.92431 0
M  V30 517 H 50.5291 -5.3519 -4.43392 0
M  V30 518 H 53.7201 -3.41268 -3.20396 0
M  V30 519 H 53.8931 -4.89358 -4.24774 0
M  V30 520 N 47.2992 1.18797 -1.03562 0
M  V30 521 C 48.2092 2.25913 -0.632505 0
M  V30 522 C 49.2252 1.70668 0.338882 0
M  V30 523 O 50.4012 2.00453 0.195076 0
M  V30 524 C 47.4662 3.467 0.00350942 0
M  V30 525 C 46.5272 4.17098 -1.01624 0
M  V30 526 C 45.7602 5.32119 -0.410478 0
M  V30 527 O 45.9832 5.64976 0.784725 0
M  V30 528 O 44.9172 5.9107 -1.13667 0
M  V30 529 H 48.7432 2.62648 -1.52478 0
M  V30 530 H 46.3282 1.25781 -0.806195 0
M  V30 531 H 48.2102 4.19878 0.35781 0
M  V30 532 H 46.8852 3.11798 0.869686 0
M  V30 533 H 45.7922 3.4601 -1.42224 0
M  V30 534 H 47.1252 4.55987 -1.85301 0
M  V30 535 N 48.7773 0.814389 1.34928 0
M  V30 536 C 50.1883 0.458364 1.80986 0
M  V30 537 C 50.5393 -1.02042 1.67577 0
M  V30 538 O 49.6643 -1.79352 1.21086 0
M  V30 539 C 50.2593 0.825212 3.28597 0
M  V30 540 C 48.8183 0.521677 3.72767 0
M  V30 541 C 47.9653 1.04668 2.56788 0
M  V30 542 H 50.9163 1.00533 1.22795 0
M  V30 543 H 50.9373 0.12571 3.80292 0
M  V30 544 H 50.4493 1.90154 3.38324 0
M  V30 545 H 48.5503 -0.545589 3.68584 0
M  V30 546 H 48.6633 1.05977 4.67232 0
M  V30 547 H 47.0273 0.468622 2.50352 0
M  V30 548 H 47.8103 2.12927 2.6929 0
M  V30 549 N 50.2554 -1.46986 0.568584 0
M  V30 550 C 51.6664 -1.86188 0.138219 0
M  V30 551 C 52.0174 -1.47388 -1.29504 0
M  V30 552 O 51.1424 -0.88219 -1.97602 0
M  V30 553 C 51.7374 -3.3792 0.244065 0
M  V30 554 C 50.2964 -3.76171 -0.131335 0
M  V30 555 C 49.4434 -2.71027 0.586465 0
M  V30 556 H 52.3944 -1.38342 0.777645 0
M  V30 557 H 52.4154 -3.76729 -0.534351 0
M  V30 558 H 51.9274 -3.66128 1.28731 0
M  V30 559 H 50.0284 -3.5358 -1.17526 0
M  V30 560 H 50.1414 -4.78523 0.235146 0
M  V30 561 H 48.5054 -2.54684 0.0282722 0
M  V30 562 H 49.2884 -3.02077 1.63109 0
M  V30 563 N 51.7335 -0.305618 -1.54608 0
M  V30 564 C 52.6815 0.584119 -2.25146 0
M  V30 565 C 53.6755 1.13326 -1.25911 0
M  V30 566 O 54.8815 1.08337 -1.43747 0
M  V30 567 H 51.2565 0.206983 -0.722954 0
M  V30 568 H 53.2275 -0.033291 -2.98381 0
M  V30 569 C 51.9765 1.74225 -3.009 0
M  V30 570 H 51.2995 1.32892 -3.77067 0
M  V30 571 H 52.7395 2.34077 -3.53531 0
M  V30 572 C 51.1985 2.64914 -2.0814 0
M  V30 573 O 51.7285 3.66137 -1.65246 0
M  V30 574 N 49.9345 2.3275 -1.74 0
M  V30 575 H 49.4815 1.50479 -2.09078 0
M  V30 576 H 49.4395 2.93694 -1.12211 0
M  V30 577 N 53.2116 1.57565 -0.0334293 0
M  V30 578 C 54.1746 2.09393 0.932048 0
M  V30 579 C 55.1746 1.00986 1.25134 0
M  V30 580 O 56.3646 1.27129 1.19096 0
M  V30 581 C 53.4966 2.56338 2.2473 0
M  V30 582 H 54.6896 2.95984 0.483085 0
M  V30 583 H 52.2426 1.54819 0.21468 0
M  V30 584 H 52.9776 1.7309 2.74245 0
M  V30 585 H 52.7626 3.35542 2.02865 0
M  V30 586 H 54.2526 2.96646 2.93923 0
M  V30 587 N 54.6897 -0.239769 1.55765 0
M  V30 588 C 55.6367 -1.29696 1.90913 0
M  V30 589 C 56.6067 -1.47478 0.764164 0
M  V30 590 O 57.7917 -1.61345 1.01845 0
M  V30 591 C 54.9317 -2.64598 2.21544 0
M  V30 592 C 54.0447 -2.54765 3.48882 0
M  V30 593 C 53.1797 -3.82069 3.69049 0
M  V30 594 C 52.2187 -3.66883 4.89963 0
M  V30 595 N 51.3557 -4.86094 5.06614 0
M  V30 596 H 56.1957 -0.990224 2.81067 0
M  V30 597 H 53.7327 -0.477684 1.39128 0
M  V30 598 H 55.6907 -3.43132 2.3731 0
M  V30 599 H 54.3207 -2.93405 1.34585 0
M  V30 600 H 53.3727 -1.67763 3.41409 0
M  V30 601 H 54.6847 -2.39457 4.37563 0
M  V30 602 H 53.8387 -4.69046 3.84812 0
M  V30 603 H 52.5777 -4.00282 2.78614 0
M  V30 604 H 51.5827 -2.78289 4.74168 0
M  V30 605 H 52.8077 -3.50157 5.81865 0
M  V30 606 H 50.7537 -5.04655 4.19117 0
M  V30 607 H 50.6707 -4.73443 5.89396 0
M  V30 608 H 51.9387 -5.74549 5.26795 0
M  V30 609 N 56.1678 -1.49265 -0.50573 0
M  V30 610 C 57.5788 -1.51769 -1.08734 0
M  V30 611 C 57.9298 -0.301192 -1.93874 0
M  V30 612 O 57.0548 0.589456 -2.08217 0
M  V30 613 C 57.6498 -2.75017 -1.97867 0
M  V30 614 C 56.2088 -2.80314 -2.51199 0
M  V30 615 C 55.3558 -2.4562 -1.28709 0
M  V30 616 H 58.3068 -1.56031 -0.289855 0
M  V30 617 H 58.3278 -2.5491 -2.82491 0
M  V30 618 H 57.8398 -3.63539 -1.35873 0
M  V30 619 H 55.9408 -1.96061 -3.16845 0
M  V30 620 H 56.0538 -3.82366 -2.88675 0
M  V30 621 H 54.4178 -1.97297 -1.61078 0
M  V30 622 H 55.2008 -3.36411 -0.6843 0
M  V30 623 N 57.6459 0.756429 -1.3826 0
M  V30 624 C 58.9229 1.50584 -1.24835 0
M  V30 625 C 59.3029 2.10556 0.151485 0
M  V30 626 O 58.6509 1.96825 1.1607 0
M  V30 627 C 58.8609 2.57448 -2.3563 0
M  V30 628 C 60.2089 3.24429 -2.73917 0
M  V30 629 O 61.2329 2.67751 -2.34921 0
M  V30 630 O 60.0919 4.26937 -3.41156 0
M  V30 631 H 57.1859 0.667664 -0.48801 0
M  V30 632 H 59.7319 0.792083 -1.5008 0
M  V30 633 H 58.5039 2.11362 -3.29305 0
M  V30 634 H 58.1269 3.36408 -2.11933 0
M  V30 635 N 59.124 1.23083 0.984299 0
M  V30 636 C 60.37 1.07221 1.72845 0
M  V30 637 C 60.725 -0.387453 1.88458 0
M  V30 638 O 60.018 -1.28309 1.42293 0
M  V30 639 C 60.212 1.72673 3.1292 0
M  V30 640 C 60.041 3.24853 3.10967 0
M  V30 641 C 58.811 3.93998 3.16376 0
M  V30 642 C 61.009 4.21674 2.94441 0
M  V30 643 N 58.991 5.33192 3.04268 0
M  V30 644 C 60.362 5.47756 2.90453 0
M  V30 645 C 62.417 4.12457 2.78897 0
M  V30 646 C 61.12 6.6568 2.72512 0
M  V30 647 C 63.146 5.3004 2.62319 0
M  V30 648 C 62.508 6.55046 2.59026 0
M  V30 649 H 58.607 0.44685 0.641755 0
M  V30 650 H 61.191 1.55753 1.16829 0
M  V30 651 H 59.362 1.26679 3.67161 0
M  V30 652 H 61.094 1.49824 3.75945 0
M  V30 653 H 57.849 3.45052 3.24401 0
M  V30 654 H 58.273 6.06157 3.015 0
M  V30 655 H 62.915 3.16588 2.80235 0
M  V30 656 H 60.633 7.61689 2.69919 0
M  V30 657 H 64.219 5.24747 2.5126 0
M  V30 658 H 63.099 7.44498 2.46357 0
M  V30 659 N 60.6021 -1.18246 1.0419 0
M  V30 660 C 61.5321 -2.24127 0.654914 0
M  V30 661 C 62.5131 -1.66617 -0.342451 0
M  V30 662 O 63.6981 -1.92924 -0.222277 0
M  V30 663 C 60.8281 -3.47295 0.0183757 0
M  V30 664 C 59.7821 -4.17563 0.939414 0
M  V30 665 C 59.1081 -5.34438 0.167286 0
M  V30 666 C 60.4081 -4.70917 2.25908 0
M  V30 667 H 62.1021 -2.56753 1.54007 0
M  V30 668 H 59.6481 -1.23414 0.74195 0
M  V30 669 H 61.6011 -4.20572 -0.264082 0
M  V30 670 H 60.3251 -3.13907 -0.901664 0
M  V30 671 H 58.9841 -3.46186 1.20628 0
M  V30 672 H 58.6321 -4.97298 -0.7552 0
M  V30 673 H 58.3321 -5.82388 0.780901 0
M  V30 674 H 59.8561 -6.10504 -0.108125 0
M  V30 675 H 61.2701 -5.35882 2.03724 0
M  V30 676 H 59.6671 -5.29406 2.82577 0
M  V30 677 H 60.7371 -3.88272 2.9047 0
M  V30 678 N 62.0802 -0.821533 -1.34494 0
M  V30 679 C 63.0272 -0.240397 -2.29545 0
M  V30 680 C 63.9972 0.634031 -1.53523 0
M  V30 681 O 65.1822 0.575966 -1.81899 0
M  V30 682 C 62.3222 0.592869 -3.39969 0
M  V30 683 C 61.4352 -0.30365 -4.30932 0
M  V30 684 C 60.5702 0.539049 -5.28458 0
M  V30 685 C 59.6092 -0.356942 -6.11058 0
M  V30 686 N 58.7462 0.446603 -7.00678 0
M  V30 687 H 63.5862 -1.05632 -2.7865 0
M  V30 688 H 61.1232 -0.532413 -1.37127 0
M  V30 689 H 63.0812 1.09129 -4.02675 0
M  V30 690 H 61.7112 1.37392 -2.92102 0
M  V30 691 H 60.7632 -0.920276 -3.691 0
M  V30 692 H 62.0752 -0.992661 -4.88823 0
M  V30 693 H 61.2292 1.102 -5.96608 0
M  V30 694 H 59.9682 1.26157 -4.71101 0
M  V30 695 H 58.9732 -0.932047 -5.41842 0
M  V30 696 H 60.1982 -1.07755 -6.70497 0
M  V30 697 H 58.1442 1.15282 -6.45791 0
M  V30 698 H 58.0612 -0.184048 -7.55776 0
M  V30 699 H 59.3292 0.992352 -7.73158 0
M  V30 700 N 63.5583 1.46682 -0.576371 0
M  V30 701 C 64.8043 2.02712 -0.0596221 0
M  V30 702 C 65.1373 1.44765 1.29448 0
M  V30 703 O 64.4123 0.610355 1.84675 0
M  V30 704 C 64.6953 3.60098 0.0129503 0
M  V30 705 C 64.5483 4.28441 -1.3696 0
M  V30 706 C 65.8673 4.34224 0.71678 0
M  V30 707 H 62.9863 0.736637 -0.0231407 0
M  V30 708 H 65.6283 1.74898 -0.742351 0
M  V30 709 H 63.7783 3.83926 0.594378 0
M  V30 710 H 65.4503 4.15896 -1.9957 0
M  V30 711 H 63.6933 3.8805 -1.93907 0
M  V30 712 H 64.3643 5.3716 -1.27135 0
M  V30 713 H 66.8403 4.15503 0.222908 0
M  V30 714 H 65.7163 5.43936 0.73657 0
M  V30 715 H 65.9773 4.04823 1.77682 0
M  V30 716 N 65.0364 0.313813 1.54444 0
M  V30 717 C 66.2844 -0.291099 1.99993 0
M  V30 718 C 66.6054 -1.53418 1.20366 0
M  V30 719 O 65.8754 -1.93544 0.302927 0
M  V30 720 H 64.4554 -0.110552 0.738774 0
M  V30 721 H 67.1174 0.428106 1.9014 0
M  V30 722 H 66.2134 -0.554268 3.07139 0
M  V30 723 N 66.5145 -1.57545 0.0417849 0
M  V30 724 C 67.7615 -1.92317 -0.634082 0
M  V30 725 C 68.0895 -0.919334 -1.71402 0
M  V30 726 O 67.3445 0.0698253 -1.95575 0
M  V30 727 C 67.6435 -3.33794 -1.27735 0
M  V30 728 C 67.3095 -4.49716 -0.326543 0
M  V30 729 C 65.9715 -4.81156 -0.0648814 0
M  V30 730 C 68.3235 -5.20182 0.325623 0
M  V30 731 C 65.6515 -5.80414 0.856539 0
M  V30 732 C 68.0035 -6.20424 1.23518 0
M  V30 733 C 66.6675 -6.50298 1.5056 0
M  V30 734 H 65.9375 -0.703736 -0.232027 0
M  V30 735 H 68.5845 -1.91205 0.106259 0
M  V30 736 H 66.8895 -3.31228 -2.09274 0
M  V30 737 H 68.5865 -3.57975 -1.80707 0
M  V30 738 H 65.1765 -4.25176 -0.540665 0
M  V30 739 H 69.3605 -4.96112 0.136546 0
M  V30 740 H 64.6165 -6.019 1.07363 0
M  V30 741 H 68.7905 -6.74141 1.74664 0
M  V30 742 H 66.4175 -7.27025 2.22123 0
M  V30 743 N 67.9926 0.231505 -1.5589 0
M  V30 744 C 69.2206 0.974505 -1.82513 0
M  V30 745 C 69.6356 1.78344 -0.619591 0
M  V30 746 O 68.9926 1.77792 0.411848 0
M  V30 747 C 69.0436 1.90007 -3.07538 0
M  V30 748 O 68.7646 1.12385 -4.2344 0
M  V30 749 C 70.2656 2.75779 -3.47075 0
M  V30 750 H 67.4856 0.286065 -0.606966 0
M  V30 751 H 70.0296 0.249739 -2.02969 0
M  V30 752 H 68.1846 2.57891 -2.89086 0
M  V30 753 H 68.5986 1.75125 -4.944 0
M  V30 754 H 70.0726 3.36443 -4.37619 0
M  V30 755 H 70.5496 3.47672 -2.68367 0
M  V30 756 H 71.1556 2.13323 -3.67931 0
M  V30 757 N 69.4707 1.49531 0.497807 0
M  V30 758 C 70.4007 1.6935 1.60757 0
M  V30 759 C 71.3817 0.542218 1.61227 0
M  V30 760 O 72.5667 0.778417 1.77917 0
M  V30 761 C 69.6967 1.76298 2.99226 0
M  V30 762 C 68.6507 2.91248 3.13622 0
M  V30 763 C 67.9767 2.83312 4.53474 0
M  V30 764 C 69.2767 4.3214 2.93346 0
M  V30 765 H 70.9707 2.62263 1.44425 0
M  V30 766 H 68.5167 1.26208 0.693367 0
M  V30 767 H 70.4697 1.88749 3.76765 0
M  V30 768 H 69.1937 0.799871 3.16654 0
M  V30 769 H 67.8527 2.78404 2.38509 0
M  V30 770 H 67.5007 1.84902 4.67782 0
M  V30 771 H 67.2007 3.60465 4.64046 0
M  V30 772 H 68.7247 2.97775 5.33069 0
M  V30 773 H 70.1387 4.45649 3.60652 0
M  V30 774 H 68.5357 5.1054 3.15387 0
M  V30 775 H 69.6057 4.46363 1.89441 0
M  V30 776 N 70.9488 -0.749086 1.3866 0
M  V30 777 C 72.1968 -1.50535 1.34847 0
M  V30 778 C 72.5178 -1.94909 -0.0595016 0
M  V30 779 O 71.7878 -1.67973 -1.00806 0
M  V30 780 H 70.3678 -0.558395 0.49619 0
M  V30 781 H 73.0298 -0.890165 1.73384 0
M  V30 782 H 72.1258 -2.39413 2.00219 0
M  V30 783 N 72.4269 -1.23603 -0.977757 0
M  V30 784 C 73.6549 -1.09646 -1.75458 0
M  V30 785 C 74.0699 0.351859 -1.85492 0
M  V30 786 O 73.4269 1.24327 -1.336 0
M  V30 787 C 73.4779 -1.71895 -3.18016 0
M  V30 788 O 73.1989 -3.11063 -3.08498 0
M  V30 789 C 74.6999 -1.63415 -4.12081 0
M  V30 790 H 71.9199 -0.38359 -0.550545 0
M  V30 791 H 74.4639 -1.63507 -1.22824 0
M  V30 792 H 72.6189 -1.22061 -3.67668 0
M  V30 793 H 73.0329 -3.41305 -3.9826 0
M  V30 794 H 74.5069 -2.11669 -5.09804 0
M  V30 795 H 74.9839 -0.593462 -4.35172 0
M  V30 796 H 75.5899 -2.12628 -3.68334 0
M  V30 797 N 73.905 1.17692 -1.04816 0
M  V30 798 C 75.133 1.91786 -0.776254 0
M  V30 799 C 75.548 1.76604 0.667577 0
M  V30 800 O 74.905 1.10067 1.45573 0
M  V30 801 C 74.956 3.42967 -1.14263 0
M  V30 802 O 74.677 3.57678 -2.52978 0
M  V30 803 C 76.178 4.34144 -0.896311 0
M  V30 804 H 73.398 0.608624 -0.282519 0
M  V30 805 H 75.942 1.49268 -1.39783 0
M  V30 806 H 74.097 3.83245 -0.565874 0
M  V30 807 H 74.511 4.51319 -2.67229 0
M  V30 808 H 75.985 5.38744 -1.20244 0
M  V30 809 H 76.462 4.38876 0.168636 0
M  V30 810 H 77.068 3.99574 -1.45672 0
M  V30 811 N 75.3831 0.828654 1.34056 0
M  V30 812 C 76.6291 0.42008 1.98402 0
M  V30 813 C 76.9621 -1.01564 1.65525 0
M  V30 814 O 76.2371 -1.70834 0.929831 0
M  V30 815 C 76.5201 0.62927 3.54559 0
M  V30 816 C 76.3731 2.11152 3.97159 0
M  V30 817 C 77.6921 0.0688756 4.40046 0
M  V30 818 H 74.8111 0.154104 0.720709 0
M  V30 819 H 77.4531 1.04228 1.5886 0
M  V30 820 H 75.6031 0.0996418 3.88372 0
M  V30 821 H 77.2751 2.70522 3.73651 0
M  V30 822 H 75.5181 2.59985 3.47261 0
M  V30 823 H 76.1891 2.20868 5.05887 0
M  V30 824 H 78.6651 0.521458 4.1282 0
M  V30 825 H 77.5411 0.245006 5.48353 0
M  V30 826 H 77.8021 -1.0266 4.30015 0
M  V30 827 N 76.8612 -1.46375 0.584142 0
M  V30 828 C 78.1082 -2.02378 0.0702675 0
M  V30 829 C 78.4362 -1.45545 -1.29023 0
M  V30 830 O 77.6912 -0.610967 -1.85918 0
M  V30 831 C 77.9902 -3.57373 -0.0439342 0
M  V30 832 C 77.6562 -4.33252 1.24915 0
M  V30 833 C 76.3182 -4.53701 1.60341 0
M  V30 834 C 78.6702 -4.7681 2.1048 0
M  V30 835 C 75.9982 -5.1496 2.81128 0
M  V30 836 C 78.3502 -5.39404 3.30494 0
M  V30 837 C 77.0142 -5.5808 3.66201 0
M  V30 838 H 76.2842 -0.740554 0.0257127 0
M  V30 839 H 78.9312 -1.75727 0.761065 0
M  V30 840 H 77.2362 -3.83169 -0.817869 0
M  V30 841 H 78.9332 -3.98384 -0.457318 0
M  V30 842 H 75.5232 -4.17633 0.963364 0
M  V30 843 H 79.7072 -4.60766 1.84414 0
M  V30 844 H 74.9632 -5.27611 3.08928 0
M  V30 845 H 79.1372 -5.72114 3.97063 0
M  V30 846 H 76.7642 -6.05318 4.59885 0
M  V30 847 N 78.3393 -0.321999 -1.54275 0
M  V30 848 C 79.2693 0.537411 -2.27231 0
M  V30 849 C 80.2503 1.12064 -1.27968 0
M  V30 850 O 81.4353 1.14606 -1.56777 0
M  V30 851 C 78.5653 1.69919 -3.02894 0
M  V30 852 C 77.5193 1.24534 -4.09482 0
M  V30 853 C 76.8453 2.49394 -4.72977 0
M  V30 854 C 78.1453 0.361335 -5.21049 0
M  V30 855 H 79.8393 -0.0711406 -2.99315 0
M  V30 856 H 77.3853 -0.0356555 -1.43956 0
M  V30 857 H 79.3383 2.30668 -3.52662 0
M  V30 858 H 78.0623 2.33431 -2.28424 0
M  V30 859 H 76.7213 0.660782 -3.60596 0
M  V30 860 H 76.3693 3.11265 -3.95124 0
M  V30 861 H 76.0693 2.19718 -5.44975 0
M  V30 862 H 77.5933 3.10908 -5.25517 0
M  V30 863 H 79.0073 0.875072 -5.66582 0
M  V30 864 H 77.4043 0.157428 -5.99893 0
M  V30 865 H 78.4743 -0.60822 -4.8107 0
M  V30 866 N 79.8174 1.5752 -0.0501392 0
M  V30 867 C 81.0634 1.93755 0.618901 0
M  V30 868 C 81.4184 0.928514 1.68512 0
M  V30 869 O 80.7114 -0.0524613 1.91528 0
M  V30 870 C 80.9054 3.34467 1.25963 0
M  V30 871 C 80.7344 4.48965 0.257 0
M  V30 872 C 79.5044 5.05075 -0.150656 0
M  V30 873 C 81.7024 5.11891 -0.497166 0
M  V30 874 N 79.6844 6.03104 -1.14626 0
M  V30 875 C 81.0554 6.05216 -1.34588 0
M  V30 876 C 83.1104 4.9479 -0.55559 0
M  V30 877 C 81.8134 6.83277 -2.24778 0
M  V30 878 C 83.8394 5.73477 -1.44492 0
M  V30 879 C 83.2014 6.66433 -2.28136 0
M  V30 880 H 79.3004 0.756479 0.198149 0
M  V30 881 H 81.8844 1.94316 -0.122229 0
M  V30 882 H 80.0554 3.34685 1.97079 0
M  V30 883 H 81.7874 3.57994 1.88739 0
M  V30 884 H 78.5424 4.7305 0.228094 0
M  V30 885 H 78.9664 6.56813 -1.64092 0
M  V30 886 H 83.6084 4.2273 0.0768625 0
M  V30 887 H 81.3264 7.54629 -2.89069 0
M  V30 888 H 84.9124 5.62273 -1.49468 0
M  V30 889 H 83.7924 7.26258 -2.95835 0
M  V30 890 N 81.2955 -0.223234 1.56011 0
M  V30 891 C 82.5445 -0.945912 1.78144 0
M  V30 892 C 82.8575 -1.85567 0.618396 0
M  V30 893 O 84.0635 -2.61688 0.723318 0
M  V30 894 C 82.5195 -1.73216 3.15475 0
M  V30 895 C 82.1275 -0.868619 4.39499 0
M  V30 896 C 83.8715 -2.44615 3.46935 0
M  V30 897 C 81.7785 -1.65212 5.67855 0
M  V30 898 H 80.7085 -0.356929 0.664167 0
M  V30 899 H 83.3595 -0.199845 1.82409 0
M  V30 900 H 81.7415 -2.52107 3.05382 0
M  V30 901 H 82.9155 -0.120366 4.60643 0
M  V30 902 H 81.2305 -0.26683 4.15544 0
M  V30 903 H 83.8275 -3.03732 4.40058 0
M  V30 904 H 84.1705 -3.17417 2.69355 0
M  V30 905 H 84.7035 -1.72715 3.58349 0
M  V30 906 H 81.4425 -0.967407 6.48322 0
M  V30 907 H 80.9625 -2.37503 5.50774 0
M  V30 908 H 82.6415 -2.21322 6.07968 0
M  V30 909 N 82.7736 -1.49793 -0.48987 0
M  V30 910 C 84.0036 -1.6333 -1.26518 0
M  V30 911 C 84.4116 -0.308392 -1.8667 0
M  V30 912 O 83.7546 0.717512 -1.69108 0
M  V30 913 C 83.8166 -2.6522 -2.4269 0
M  V30 914 C 83.4806 -4.09279 -2.03321 0
M  V30 915 C 84.4776 -4.95738 -1.56652 0
M  V30 916 C 82.1626 -4.55082 -2.12616 0
M  V30 917 C 84.1566 -6.26041 -1.19795 0
M  V30 918 C 81.8436 -5.85396 -1.75371 0
M  V30 919 C 82.8416 -6.707 -1.29036 0
M  V30 920 O 82.5296 -7.98584 -0.92299 0
M  V30 921 H 82.2616 -0.552502 -0.389509 0
M  V30 922 H 84.8156 -1.96642 -0.593381 0
M  V30 923 H 83.0456 -2.27112 -3.12981 0
M  V30 924 H 84.7346 -2.68171 -3.04695 0
M  V30 925 H 85.5006 -4.61575 -1.48908 0
M  V30 926 H 81.3796 -3.88844 -2.47631 0
M  V30 927 H 84.9236 -6.92578 -0.835582 0
M  V30 928 H 80.8206 -6.19085 -1.82768 0
M  V30 929 H 81.5886 -8.11692 -1.05349 0
M  V30 930 N 84.2517 0.741722 -1.39055 0
M  V30 931 C 85.1817 1.869 -1.39966 0
M  V30 932 C 86.1627 1.6804 -0.26392 0
M  V30 933 O 87.3477 1.88458 -0.468755 0
M  V30 934 C 84.4777 3.24572 -1.23574 0
M  V30 935 C 83.4317 3.58056 -2.34477 0
M  V30 936 C 82.7577 4.94593 -2.0318 0
M  V30 937 C 84.0577 3.61716 -3.76774 0
M  V30 938 H 85.7517 1.86395 -2.34302 0
M  V30 939 H 83.2977 0.895361 -1.1278 0
M  V30 940 H 85.2507 4.031 -1.22834 0
M  V30 941 H 83.9747 3.25587 -0.257045 0
M  V30 942 H 82.6337 2.81854 -2.34423 0
M  V30 943 H 82.2817 4.92181 -1.03765 0
M  V30 944 H 81.9817 5.17964 -2.77465 0
M  V30 945 H 83.5057 5.75486 -2.04079 0
M  V30 946 H 84.9197 4.30335 -3.78794 0
M  V30 947 H 83.3167 3.96603 -4.50362 0
M  V30 948 H 84.3867 2.61672 -4.08235 0
M  V30 949 N 85.7298 1.2412 0.971189 0
M  V30 950 C 86.9788 1.07284 1.70801 0
M  V30 951 C 87.2918 -0.388902 1.91695 0
M  V30 952 O 88.4978 -0.677379 2.62914 0
M  V30 953 C 86.9538 1.87145 3.07416 0
M  V30 954 C 86.5618 3.37707 2.94377 0
M  V30 955 C 88.3058 1.78828 3.84995 0
M  V30 956 C 86.2128 4.09925 4.26281 0
M  V30 957 H 85.1428 0.397854 0.64049 0
M  V30 958 H 87.7938 1.4817 1.0825 0
M  V30 959 H 86.1758 1.39071 3.70777 0
M  V30 960 H 87.3498 3.93335 2.4005 0
M  V30 961 H 85.6648 3.46938 2.30267 0
M  V30 962 H 88.2618 2.30089 4.82662 0
M  V30 963 H 88.6048 0.75284 4.09436 0
M  V30 964 H 89.1378 2.24563 3.28354 0
M  V30 965 H 85.8768 5.13813 4.07033 0
M  V30 966 H 85.3968 3.59083 4.80437 0
M  V30 967 H 87.0758 4.1673 4.94919 0
M  V30 968 N 87.2079 -1.17134 1.05439 0
M  V30 969 C 88.1549 -2.21235 0.657539 0
M  V30 970 C 89.1249 -1.62551 -0.341543 0
M  V30 971 O 90.3099 -1.89379 -0.232393 0
M  V30 972 C 87.4499 -3.45076 0.0410575 0
M  V30 973 C 86.5629 -4.18042 1.08927 0
M  V30 974 C 85.6979 -5.29376 0.439848 0
M  V30 975 C 84.7369 -5.94132 1.4722 0
M  V30 976 N 83.8739 -6.96975 0.846756 0
M  V30 977 H 88.7139 -2.54534 1.54972 0
M  V30 978 H 86.2509 -1.25028 0.775006 0
M  V30 979 H 88.2089 -4.15862 -0.33383 0
M  V30 980 H 86.8389 -3.12353 -0.814568 0
M  V30 981 H 85.8909 -3.45945 1.58196 0
M  V30 982 H 87.2029 -4.62306 1.87282 0
M  V30 983 H 86.3569 -6.06699 0.0115125 0
M  V30 984 H 85.0959 -4.86251 -0.375656 0
M  V30 985 H 84.1009 -5.15538 1.91052 0
M  V30 986 H 85.3259 -6.39337 2.28965 0
M  V30 987 H 83.2719 -6.5598 0.0518075 0
M  V30 988 H 83.1889 -7.39565 1.5678 0
M  V30 989 H 84.4569 -7.78239 0.443277 0
M  V30 990 N 88.686 -0.835752 -1.33615 0
M  V30 991 C 89.618 -0.224151 -2.28101 0
M  V30 992 C 90.631 0.593331 -1.51603 0
M  V30 993 O 91.82 0.420911 -1.73466 0
M  V30 994 C 88.92 0.703309 -3.31522 0
M  V30 995 C 88.093 -0.0741528 -4.37337 0
M  V30 996 C 87.152 0.776176 -5.20444 0
M  V30 997 O 86.178 0.216506 -5.68788 0
M  V30 998 N 87.38 2.09401 -5.41416 0
M  V30 999 H 90.145 -1.03598 -2.81225 0
M  V30 1000 H 87.706 -0.69392 -1.46275 0
M  V30 1001 H 89.698 1.27707 -3.84022 0
M  V30 1002 H 88.268 1.41585 -2.78698 0
M  V30 1003 H 87.488 -0.82928 -3.85378 0
M  V30 1004 H 88.776 -0.608863 -5.05144 0
M  V30 1005 H 88.174 2.57229 -5.03835 0
M  V30 1006 H 86.731 2.61633 -5.96985 0
M  V30 1007 N 90.1641 1.46063 -0.591896 0
M  V30 1008 C 91.1141 2.27458 0.157172 0
M  V30 1009 C 92.0981 1.3641 0.853301 0
M  V30 1010 O 93.2901 1.60517 0.74588 0
M  V30 1011 C 90.4191 3.22956 1.16423 0
M  V30 1012 C 89.5051 4.2149 0.469742 0
M  V30 1013 N 89.8961 5.03519 -0.479839 0
M  V30 1014 C 88.1941 4.40161 0.719319 0
M  V30 1015 C 88.8951 5.74904 -0.886591 0
M  V30 1016 N 87.8711 5.43097 -0.233731 0
M  V30 1017 H 91.6731 2.88272 -0.572392 0
M  V30 1018 H 89.1871 1.57024 -0.414375 0
M  V30 1019 H 91.1841 3.79986 1.71513 0
M  V30 1020 H 89.8441 2.63701 1.89451 0
M  V30 1021 H 90.8551 5.1078 -0.855823 0
M  V30 1022 H 87.5321 3.92046 1.43548 0
M  V30 1023 H 88.9221 6.50844 -1.66888 0
M  V30 1024 N 91.6422 0.330177 1.54103 0
M  V30 1025 C 92.5902 -0.548226 2.26047 0
M  V30 1026 C 93.5842 -1.11309 1.27698 0
M  V30 1027 O 94.7902 -1.06036 1.45452 0
M  V30 1028 H 91.1652 -0.195456 0.726155 0
M  V30 1029 H 93.1362 0.0807567 2.98291 0
M  V30 1030 C 91.8852 -1.69415 3.03634 0
M  V30 1031 H 91.2082 -1.26876 3.79134 0
M  V30 1032 H 92.6482 -2.28423 3.5721 0
M  V30 1033 C 91.1072 -2.61569 2.12328 0
M  V30 1034 O 91.6372 -3.63462 1.7105 0
M  V30 1035 N 89.8432 -2.29952 1.77681 0
M  V30 1036 H 89.3902 -1.47134 2.11446 0
M  V30 1037 H 89.3482 -2.91871 1.16869 0
M  V30 1038 N 93.1203 -1.57491 0.0584922 0
M  V30 1039 C 94.0303 -2.15448 -0.928414 0
M  V30 1040 C 95.0463 -1.11416 -1.3365 0
M  V30 1041 O 96.2223 -1.4362 -1.41193 0
M  V30 1042 C 93.2873 -2.69393 -2.18239 0
M  V30 1043 C 92.3483 -3.88249 -1.83196 0
M  V30 1044 C 91.5813 -4.39613 -3.02616 0
M  V30 1045 O 91.8043 -3.90023 -4.16219 0
M  V30 1046 O 90.7383 -5.31111 -2.83204 0
M  V30 1047 H 94.5643 -3.00112 -0.465483 0
M  V30 1048 H 92.1493 -1.48499 -0.163826 0
M  V30 1049 H 94.0313 -3.04026 -2.91798 0
M  V30 1050 H 92.7063 -1.87796 -2.63656 0
M  V30 1051 H 91.6133 -3.58492 -1.06931 0
M  V30 1052 H 92.9463 -4.71098 -1.42573 0
M  V30 1053 N 94.5984 0.214957 -1.56127 0
M  V30 1054 C 95.8754 0.963093 -1.70247 0
M  V30 1055 C 96.2554 2.02166 -0.60764 0
M  V30 1056 O 95.6034 2.25244 0.384385 0
M  V30 1057 C 95.8134 1.56756 -3.11815 0
M  V30 1058 C 97.1614 2.0573 -3.7143 0
M  V30 1059 O 98.1854 1.66637 -3.14818 0
M  V30 1060 O 97.0444 2.77603 -4.70743 0
M  V30 1061 H 94.1384 0.450321 -0.693643 0
M  V30 1062 H 96.6844 0.206219 -1.68442 0
M  V30 1063 H 95.4564 0.803533 -3.82961 0
M  V30 1064 H 95.0794 2.3898 -3.17765 0
M  V30 1065 N 96.0765 1.50051 0.48192 0
M  V30 1066 C 97.3255 1.59741 1.23149 0
M  V30 1067 C 97.6385 0.298163 1.93314 0
M  V30 1068 O 98.8445 0.273835 2.70116 0
M  V30 1069 C 97.3005 2.81926 2.23708 0
M  V30 1070 C 96.9085 4.18685 1.59396 0
M  V30 1071 C 98.6525 3.00956 2.99375 0
M  V30 1072 C 96.5595 5.3207 2.58178 0
M  V30 1073 H 95.4895 0.594838 0.46334 0
M  V30 1074 H 98.1405 1.76467 0.503169 0
M  V30 1075 H 96.5225 2.58736 2.99786 0
M  V30 1076 H 97.6965 4.52088 0.891811 0
M  V30 1077 H 96.0115 4.05171 0.960503 0
M  V30 1078 H 98.6085 3.82836 3.73283 0
M  V30 1079 H 98.9515 2.12258 3.58123 0
M  V30 1080 H 99.4845 3.24277 2.30411 0
M  V30 1081 H 96.2235 6.22888 2.04184 0
M  V30 1082 H 95.7435 5.03098 3.26577 0
M  V30 1083 H 97.4225 5.62196 3.20225 0
M  V30 1084 N 97.5546 -0.734337 1.39446 0
M  V30 1085 C 98.4846 -1.86155 1.40955 0
M  V30 1086 C 99.4656 -1.67898 0.272827 0
M  V30 1087 O 100.651 -1.88207 0.478743 0
M  V30 1088 C 97.7806 -3.23912 1.25294 0
M  V30 1089 C 96.7346 -3.56808 2.36373 0
M  V30 1090 C 96.0606 -4.93508 2.058 0
M  V30 1091 C 97.3606 -3.59713 3.78687 0
M  V30 1092 H 99.0546 -1.8515 2.35287 0
M  V30 1093 H 96.6006 -0.889367 1.13253 0
M  V30 1094 H 98.5536 -4.02443 1.2497 0
M  V30 1095 H 97.2776 -3.25446 0.274308 0
M  V30 1096 H 95.9366 -2.80606 2.35914 0
M  V30 1097 H 95.5846 -4.91623 1.06374 0
M  V30 1098 H 95.2846 -5.16486 2.80208 0
M  V30 1099 H 96.8086 -5.74396 2.07128 0
M  V30 1100 H 98.2226 -4.2832 3.81071 0
M  V30 1101 H 96.6196 -3.94209 4.52459 0
M  V30 1102 H 97.6896 -2.59504 4.09617 0
M  V30 1103 N 99.0327 -1.24633 -0.964593 0
M  V30 1104 C 99.9427 -1.05859 -2.09359 0
M  V30 1105 C 100.959 0.00148855 -1.74 0
M  V30 1106 O 102.135 -0.197346 -2.00431 0
M  V30 1107 C 99.1997 -0.668879 -3.40187 0
M  V30 1108 C 98.2607 -1.80578 -3.89474 0
M  V30 1109 C 97.4937 -1.43457 -5.14058 0
M  V30 1110 O 97.7167 -0.325775 -5.69469 0
M  V30 1111 O 96.6507 -2.2613 -5.57807 0
M  V30 1112 H 100.477 -2.00516 -2.28094 0
M  V30 1113 H 98.0617 -1.03481 -1.0776 0
M  V30 1114 H 99.9437 -0.463211 -4.18846 0
M  V30 1115 H 98.6187 0.248536 -3.22744 0
M  V30 1116 H 97.5257 -2.06623 -3.11862 0
M  V30 1117 H 98.8587 -2.70208 -4.11398 0
M  V30 1118 N 100.511 1.16574 -1.06058 0
M  V30 1119 C 101.741 1.90675 -0.795397 0
M  V30 1120 C 102.149 1.77547 0.653735 0
M  V30 1121 O 101.492 1.11611 1.45907 0
M  V30 1122 C 101.554 3.42011 -1.10764 0
M  V30 1123 C 101.218 3.78924 -2.55471 0
M  V30 1124 C 102.215 3.81042 -3.53699 0
M  V30 1125 C 99.8998 4.09626 -2.90708 0
M  V30 1126 C 101.894 4.13346 -4.85205 0
M  V30 1127 C 99.5808 4.41597 -4.22416 0
M  V30 1128 C 100.579 4.43436 -5.19474 0
M  V30 1129 O 100.267 4.74649 -6.48817 0
M  V30 1130 H 99.9988 0.611554 -0.288058 0
M  V30 1131 H 102.553 1.48711 -1.41683 0
M  V30 1132 H 100.783 3.84312 -0.429128 0
M  V30 1133 H 102.472 3.97384 -0.827077 0
M  V30 1134 H 103.238 3.57437 -3.27817 0
M  V30 1135 H 99.1168 4.07361 -2.15819 0
M  V30 1136 H 102.661 4.14696 -5.60957 0
M  V30 1137 H 98.5578 4.64667 -4.48056 0
M  V30 1138 H 99.3258 4.9247 -6.5377 0
M  V30 1139 N 101.989 0.842826 1.3317 0
M  V30 1140 C 102.936 0.276885 2.29133 0
M  V30 1141 C 103.906 -0.609527 1.54512 0
M  V30 1142 O 105.091 -0.546955 1.82792 0
M  V30 1143 C 102.231 -0.538707 3.40869 0
M  V30 1144 C 101.344 0.372169 4.30394 0
M  V30 1145 C 100.479 -0.454908 5.29249 0
M  V30 1146 C 99.5179 0.45411 6.10413 0
M  V30 1147 N 98.6549 -0.335075 7.013 0
M  V30 1148 H 103.495 1.10052 2.76934 0
M  V30 1149 H 101.032 0.554161 1.36262 0
M  V30 1150 H 102.99 -1.02709 4.0436 0
M  V30 1151 H 101.62 -1.32727 2.9425 0
M  V30 1152 H 100.672 0.97888 3.6759 0
M  V30 1153 H 101.984 1.0703 4.87182 0
M  V30 1154 H 101.138 -1.00695 5.98285 0
M  V30 1155 H 99.8769 -1.18646 4.73048 0
M  V30 1156 H 98.8819 1.01813 5.40291 0
M  V30 1157 H 100.107 1.18409 6.68697 0
M  V30 1158 H 98.0529 -1.04994 6.47543 0
M  V30 1159 H 97.9699 0.304262 7.55387 0
M  V30 1160 H 99.2379 -0.869224 7.74638 0
M  V30 1161 N 103.467 -1.45747 0.599634 0
M  V30 1162 C 104.883 -1.57424 0.26264 0
M  V30 1163 C 105.083 -1.59222 -1.23493 0
M  V30 1164 O 104.139 -1.51825 -2.01756 0
M  V30 1165 C 105.452 -2.86061 0.926795 0
M  V30 1166 C 107 -2.99722 0.901967 0
M  V30 1167 C 107.475 -4.31119 1.54598 0
M  V30 1168 N 108.966 -4.37858 1.5111 0
M  V30 1169 C 109.701 -5.3818 1.97863 0
M  V30 1170 N 109.197 -6.45083 2.52666 0
M  V30 1171 N 110.99 -5.29487 1.88679 0
M  V30 1172 H 103.141 -1.42823 1.57211 0
M  V30 1173 H 105.404 -0.68235 0.658105 0
M  V30 1174 H 105.11 -2.90605 1.98095 0
M  V30 1175 H 104.984 -3.74563 0.445238 0
M  V30 1176 H 107.371 -2.9475 -0.143617 0
M  V30 1177 H 107.452 -2.12652 1.42171 0
M  V30 1178 H 107.096 -4.36849 2.59085 0
M  V30 1179 H 107.026 -5.16992 1.00132 0
M  V30 1180 H 109.517 -3.61209 1.11068 0
M  V30 1181 H 109.83 -7.17869 2.86155 0
M  V30 1182 H 108.175 -6.45856 2.56701 0
M  V30 1183 H 111.366 -4.44877 1.4561 0
M  V30 1184 H 111.539 -6.07524 2.25429 0
M  V30 1185 N 104.945 -0.338344 -1.53925 0
M  V30 1186 C 106.361 0.0137736 -1.59594 0
M  V30 1187 C 106.561 1.49186 -1.35447 0
M  V30 1188 O 105.617 2.24987 -1.14616 0
M  V30 1189 C 106.93 -0.41773 -2.97784 0
M  V30 1190 C 108.478 -0.369633 -3.1081 0
M  V30 1191 C 108.953 -0.776524 -4.51369 0
M  V30 1192 N 110.444 -0.730506 -4.57403 0
M  V30 1193 C 111.179 -1.01736 -5.64303 0
M  V30 1194 N 110.675 -1.3721 -6.79077 0
M  V30 1195 N 112.468 -0.941942 -5.54151 0
M  V30 1196 H 104.619 -1.3012 -1.67876 0
M  V30 1197 H 106.882 -0.530082 -0.78595 0
M  V30 1198 H 106.588 -1.44811 -3.20504 0
M  V30 1199 H 106.462 0.209729 -3.76616 0
M  V30 1200 H 108.849 0.651568 -2.87817 0
M  V30 1201 H 108.93 -1.03223 -2.34049 0
M  V30 1202 H 108.574 -1.79571 -4.75096 0
M  V30 1203 H 108.504 -0.0914649 -5.26521 0
M  V30 1204 H 110.995 -0.468783 -3.74981 0
M  V30 1205 H 111.308 -1.57597 -7.5656 0
M  V30 1206 H 109.653 -1.4105 -6.80536 0
M  V30 1207 H 112.844 -0.664184 -4.63364 0
M  V30 1208 H 113.017 -1.16884 -6.37371 0
M  V30 1209 N 106.423 1.57458 -0.0668435 0
M  V30 1210 C 107.371 2.13639 0.919851 0
M  V30 1211 C 108.365 1.07204 1.31163 0
M  V30 1212 O 109.571 1.25591 1.28945 0
M  V30 1213 H 105.946 0.683048 0.314562 0
M  V30 1214 H 107.917 2.95415 0.421047 0
M  V30 1215 C 106.666 2.70892 2.17975 0
M  V30 1216 H 105.989 3.5246 1.88711 0
M  V30 1217 H 107.429 3.13803 2.85138 0
M  V30 1218 C 105.888 1.65414 2.93496 0
M  V30 1219 O 106.418 1.07619 3.87015 0
M  V30 1220 N 104.624 1.36564 2.56512 0
M  V30 1221 H 104.171 1.83751 1.80536 0
M  V30 1222 H 104.129 0.66223 3.07347 0
M  V30 1223 N 107.901 -0.206675 1.56239 0
M  V30 1224 C 109.149 -0.927007 1.79586 0
M  V30 1225 C 109.47 -1.8427 0.637929 0
M  V30 1226 O 108.74 -1.92849 -0.344398 0
M  V30 1227 H 107.32 -0.345292 0.662407 0
M  V30 1228 H 109.982 -0.21496 1.93711 0
M  V30 1229 H 109.078 -1.52501 2.72305 0
M  V30 1230 N 109.379 -1.50304 -0.473955 0
M  V30 1231 C 110.309 -1.71886 -1.58042 0
M  V30 1232 C 111.29 -0.567799 -1.60344 0
M  V30 1233 O 112.475 -0.806623 -1.76656 0
M  V30 1234 C 109.605 -1.81036 -2.96384 0
M  V30 1235 C 108.559 -2.962 -3.08949 0
M  V30 1236 C 107.885 -2.9049 -4.48909 0
M  V30 1237 C 109.185 -4.36752 -2.86434 0
M  V30 1238 H 110.879 -2.64527 -1.40234 0
M  V30 1239 H 108.425 -1.27295 -0.673201 0
M  V30 1240 H 110.378 -1.94719 -3.73714 0
M  V30 1241 H 109.102 -0.850147 -3.15341 0
M  V30 1242 H 107.761 -2.82164 -2.3405 0
M  V30 1243 H 107.409 -1.92321 -4.64781 0
M  V30 1244 H 107.109 -3.67802 -4.58253 0
M  V30 1245 H 108.633 -3.06218 -5.28264 0
M  V30 1246 H 110.047 -4.5133 -3.53517 0
M  V30 1247 H 108.444 -5.15493 -3.07225 0
M  V30 1248 H 109.514 -4.49321 -1.82316 0
M  V30 1249 N 110.857 0.726932 -1.39834 0
M  V30 1250 C 111.767 1.87131 -1.41489 0
M  V30 1251 C 112.783 1.71239 -0.308757 0
M  V30 1252 O 113.959 1.93701 -0.551529 0
M  V30 1253 C 111.024 3.22811 -1.26468 0
M  V30 1254 C 110.085 3.51039 -2.47124 0
M  V30 1255 C 109.318 4.80245 -2.3281 0
M  V30 1256 O 109.541 5.54537 -1.33585 0
M  V30 1257 O 108.475 5.08554 -3.21957 0
M  V30 1258 H 112.301 1.8869 -2.3797 0
M  V30 1259 H 109.886 0.875837 -1.21035 0
M  V30 1260 H 111.768 4.03877 -1.20255 0
M  V30 1261 H 110.443 3.22005 -0.330862 0
M  V30 1262 H 109.35 2.70027 -2.58914 0
M  V30 1263 H 110.683 3.56632 -3.39227 0
M  V30 1264 O 112.374 1.36175 0.868252 0
M  V30 1265 H 113.065 1.21675 1.50715 0
M  V30 END ATOM
M  V30 BEGIN BOND
M  V30 END BOND
M  V30 END CTAB
M  END
$$$$
