drugbank_target|P21554 Cannabinoid receptor 1 (DB00470; DB00486; DB02955; DB05077; DB05201; DB05750; DB06155; DB09061; DB09288; DB11745; DB11755; DB14009; DB14011)
 OpenBabel12092119233D

  0  0  0     0  0            999 V3000
M  V30 BEGIN CTAB
M  V30 COUNTS 7504 7584 0 0 0
M  V30 BEGIN ATOM
M  V30 1 H -0.908 1.98254 -0.117106 0
M  V30 2 N 0 1.576 0 0
M  V30 3 C 0.933 2.03868 1.02534 0
M  V30 4 C 1.911 0.928543 1.3348 0
M  V30 5 O 3.095 1.19667 1.45644 0
M  V30 6 C 0.222 2.43627 2.35294 0
M  V30 7 C -0.732 3.65373 2.2001 0
M  V30 8 S 0.101 5.13292 1.52614 0
M  V30 9 C 1.257 5.56322 2.86805 0
M  V30 10 H 1.49 2.90518 0.631377 0
M  V30 11 H -0.977 1.52953 0.210867 0
M  V30 12 H 0.981 2.67203 3.11629 0
M  V30 13 H -0.358 1.57376 2.7183 0
M  V30 14 H -1.165 3.90944 3.18086 0
M  V30 15 H -1.563 3.418 1.51819 0
M  V30 16 H 0.729 5.58782 3.83104 0
M  V30 17 H 1.672 6.56266 2.65933 0
M  V30 18 H 2.08 4.83886 2.90714 0
M  V30 19 N 1.4781 -0.272755 1.55222 0
M  V30 20 C 2.4251 -1.33716 1.88119 0
M  V30 21 C 3.3951 -1.49066 0.73271 0
M  V30 22 O 4.5801 -1.63469 0.984002 0
M  V30 23 C 1.7201 -2.69238 2.15882 0
M  V30 24 C 0.8331 -2.62108 3.43399 0
M  V30 25 C -0.0319 -3.89811 3.60861 0
M  V30 26 C -0.9929 -3.77193 4.8207 0
M  V30 27 N -1.8559 -4.9673 4.96189 0
M  V30 28 H 2.9841 -1.04962 2.78903 0
M  V30 29 H 0.5211 -0.507088 1.38083 0
M  V30 30 H 2.4791 -3.48089 2.29978 0
M  V30 31 H 1.1091 -2.96194 1.28331 0
M  V30 32 H 0.1611 -1.74967 3.37773 0
M  V30 33 H 1.4731 -2.48685 4.32386 0
M  V30 34 H 0.6271 -4.77103 3.74777 0
M  V30 35 H -0.6339 -4.06102 2.7006 0
M  V30 36 H -1.6289 -2.88284 4.68159 0
M  V30 37 H -0.4039 -3.62421 5.74307 0
M  V30 38 H -2.4579 -5.13431 4.08319 0
M  V30 39 H -2.5409 -4.85839 5.79221 0
M  V30 40 H -1.2729 -5.85594 5.1449 0
M  V30 41 N 2.9562 -1.48159 -0.537278 0
M  V30 42 C 4.1812 -1.59707 -1.32319 0
M  V30 43 C 4.6062 -0.254859 -1.86365 0
M  V30 44 O 3.9642 0.772378 -1.64024 0
M  V30 45 C 4.0122 -2.6412 -2.45505 0
M  V30 46 O 3.1162 -2.20774 -3.48328 0
M  V30 47 H 2.4572 -0.535791 -0.392204 0
M  V30 48 H 4.9872 -1.94092 -0.647268 0
M  V30 49 H 4.9972 -2.85166 -2.91795 0
M  V30 50 H 3.6722 -3.61567 -2.05528 0
M  V30 51 H 2.2492 -2.09911 -3.08207 0
M  V30 52 N 4.4343 0.785586 -1.36625 0
M  V30 53 C 5.6833 1.53883 -1.30396 0
M  V30 54 C 5.9963 1.95271 0.113452 0
M  V30 55 O 7.2023 2.69858 0.298142 0
M  V30 56 C 5.6583 2.77808 -2.28802 0
M  V30 57 C 5.2663 2.43574 -3.75999 0
M  V30 58 C 7.0103 3.55783 -2.31558 0
M  V30 59 C 4.9173 3.63919 -4.66173 0
M  V30 60 H 3.8473 0.577678 -0.484566 0
M  V30 61 H 6.4983 0.861705 -1.62009 0
M  V30 62 H 4.8803 3.47339 -1.90188 0
M  V30 63 H 6.0543 1.81916 -4.23371 0
M  V30 64 H 4.3693 1.78803 -3.76056 0
M  V30 65 H 6.9663 4.45205 -2.96137 0
M  V30 66 H 7.3093 3.94644 -1.3252 0
M  V30 67 H 7.8423 2.93235 -2.68809 0
M  V30 68 H 4.5813 3.3015 -5.66287 0
M  V30 69 H 4.1013 4.2473 -4.23515 0
M  V30 70 H 5.7803 4.30901 -4.82632 0
M  V30 71 N 5.9124 1.20967 1.01018 0
M  V30 72 C 6.8424 0.988272 2.11555 0
M  V30 73 C 7.8234 -0.0849778 1.69888 0
M  V30 74 O 9.0084 0.0738202 1.9406 0
M  V30 75 C 6.1384 0.546528 3.42973 0
M  V30 76 C 5.0924 1.56375 3.9841 0
M  V30 77 C 4.4184 0.97842 5.25672 0
M  V30 78 C 5.7184 2.94922 4.31066 0
M  V30 79 H 7.4124 1.91276 2.30334 0
M  V30 80 H 4.9584 0.921073 1.1069 0
M  V30 81 H 6.9114 0.378839 4.19694 0
M  V30 82 H 5.6354 -0.413598 3.23971 0
M  V30 83 H 4.2944 1.71891 3.23804 0
M  V30 84 H 3.9424 0.0101688 5.02999 0
M  V30 85 H 3.6424 1.65784 5.63728 0
M  V30 86 H 5.1664 0.821939 6.05043 0
M  V30 87 H 6.5804 2.8288 4.9865 0
M  V30 88 H 4.9774 3.5983 4.80253 0
M  V30 89 H 6.0474 3.4616 3.39561 0
M  V30 90 N 7.3905 -1.2043 1.01659 0
M  V30 91 C 8.6675 -1.8548 0.621004 0
M  V30 92 C 9.0475 -1.9091 -0.900919 0
M  V30 93 O 8.3955 -1.41694 -1.79263 0
M  V30 94 C 8.6055 -3.25119 1.2688 0
M  V30 95 C 9.9535 -4.01403 1.38423 0
M  V30 96 O 10.9775 -3.34473 1.22501 0
M  V30 97 O 9.8365 -5.21265 1.64151 0
M  V30 98 H 6.9305 -0.798761 0.214266 0
M  V30 99 H 9.4765 -1.28019 1.11396 0
M  V30 100 H 8.2485 -3.15932 2.30873 0
M  V30 101 H 7.8715 -3.90212 0.762917 0
M  V30 102 N 8.8686 -0.792821 -1.36206 0
M  V30 103 C 10.1166 -0.366062 -1.98757 0
M  V30 104 C 10.4376 1.0668 -1.63231 0
M  V30 105 O 9.7076 1.73587 -0.907978 0
M  V30 106 H 8.2876 -0.132364 -0.735179 0
M  V30 107 H 10.9496 -1.01562 -1.66347 0
M  V30 108 H 10.0456 -0.460638 -3.08682 0
M  V30 109 N 10.3467 1.47872 -0.545128 0
M  V30 110 C 11.2767 2.32661 0.197793 0
M  V30 111 C 12.2577 1.43041 0.920504 0
M  V30 112 O 13.4427 1.71912 0.90333 0
M  V30 113 C 10.5727 3.24569 1.23582 0
M  V30 114 C 9.5267 4.23333 0.630323 0
M  V30 115 C 8.8527 5.0448 1.77211 0
M  V30 116 C 10.1527 5.20704 -0.407974 0
M  V30 117 H 11.8467 2.95024 -0.510045 0
M  V30 118 H 9.3927 1.4187 -0.246731 0
M  V30 119 H 11.3457 3.8272 1.76362 0
M  V30 120 H 10.0697 2.60236 1.97344 0
M  V30 121 H 8.7287 3.6639 0.123922 0
M  V30 122 H 8.3767 4.36561 2.49847 0
M  V30 123 H 8.0767 5.71339 1.37281 0
M  V30 124 H 9.6007 5.65487 2.3034 0
M  V30 125 H 11.0147 5.7329 0.033305 0
M  V30 126 H 9.4117 5.95699 -0.725486 0
M  V30 127 H 10.4817 4.66917 -1.30828 0
M  V30 128 N 11.8248 0.280983 1.55075 0
M  V30 129 C 12.7878 -0.590896 2.21452 0
M  V30 130 C 13.7878 -1.07682 1.19421 0
M  V30 131 O 14.9778 -0.97605 1.44288 0
M  V30 132 C 12.1098 -1.81587 2.88511 0
M  V30 133 H 13.3028 -0.0112554 2.99898 0
M  V30 134 H 10.8558 0.0316438 1.56268 0
M  V30 135 H 11.5908 -2.43587 2.14093 0
M  V30 136 H 11.3758 -1.4753 3.63287 0
M  V30 137 H 12.8658 -2.43575 3.39206 0
M  V30 138 N 13.3029 -1.57598 0.00835791 0
M  V30 139 C 14.5799 -1.82172 -0.712235 0
M  V30 140 C 14.9599 -0.887873 -1.9152 0
M  V30 141 O 14.3079 0.06146 -2.28417 0
M  V30 142 C 14.5179 -3.30875 -1.11008 0
M  V30 143 C 15.8659 -3.96826 -1.51044 0
M  V30 144 O 16.8899 -3.35248 -1.20364 0
M  V30 145 O 15.7489 -5.05318 -2.08125 0
M  V30 146 H 12.8429 -0.750435 -0.347529 0
M  V30 147 H 15.3889 -1.69665 0.0344523 0
M  V30 148 H 14.1609 -3.90481 -0.252982 0
M  V30 149 H 13.7839 -3.48412 -1.9156 0
M  V30 150 N 14.781 0.264519 -1.55364 0
M  V30 151 C 16.009 1.013 -1.80405 0
M  V30 152 C 16.424 1.79618 -0.581622 0
M  V30 153 O 15.781 1.76879 0.449468 0
M  V30 154 C 15.832 1.96487 -3.03439 0
M  V30 155 O 15.553 1.21341 -4.20961 0
M  V30 156 C 17.054 2.83079 -3.41147 0
M  V30 157 H 14.274 0.298875 -0.600762 0
M  V30 158 H 16.818 0.292736 -2.02394 0
M  V30 159 H 14.973 2.63965 -2.83551 0
M  V30 160 H 15.387 1.85573 -4.90574 0
M  V30 161 H 16.861 3.4565 -4.30384 0
M  V30 162 H 17.338 3.53286 -2.60932 0
M  V30 163 H 17.944 2.2108 -3.63323 0
M  V30 164 N 16.2591 1.48442 0.529413 0
M  V30 165 C 17.4871 1.60151 1.30994 0
M  V30 166 C 17.9021 0.261985 1.86973 0
M  V30 167 O 17.2591 -0.748805 1.66431 0
M  V30 168 C 17.3101 2.64854 2.46038 0
M  V30 169 O 17.0311 3.93608 1.92365 0
M  V30 170 C 18.5321 2.87007 3.37849 0
M  V30 171 H 15.7521 0.539971 0.398338 0
M  V30 172 H 18.2961 1.94273 0.638597 0
M  V30 173 H 16.4511 2.33589 3.09055 0
M  V30 174 H 16.8651 4.51055 2.67675 0
M  V30 175 H 18.3391 3.64068 4.14919 0
M  V30 176 H 18.8161 1.95852 3.93114 0
M  V30 177 H 19.4221 3.19579 2.80623 0
M  V30 178 N 17.7372 -0.778329 1.37039 0
M  V30 179 C 18.9842 -1.53665 1.31884 0
M  V30 180 C 19.3122 -1.9425 -0.0986303 0
M  V30 181 O 18.5672 -1.63832 -1.07041 0
M  V30 182 C 18.8662 -2.81845 2.19768 0
M  V30 183 C 18.5322 -2.60345 3.68146 0
M  V30 184 C 17.1942 -2.5419 4.08584 0
M  V30 185 C 19.5462 -2.40923 4.62175 0
M  V30 186 C 16.8742 -2.26594 5.41177 0
M  V30 187 C 19.2262 -2.14852 5.94997 0
M  V30 188 C 17.8902 -2.07137 6.34547 0
M  V30 189 H 17.1602 -0.562299 0.482598 0
M  V30 190 H 19.8072 -0.897069 1.69189 0
M  V30 191 H 18.1122 -3.50328 1.75436 0
M  V30 192 H 19.8092 -3.39692 2.13097 0
M  V30 193 H 16.3992 -2.65996 3.36072 0
M  V30 194 H 20.5832 -2.44673 4.31797 0
M  V30 195 H 15.8392 -2.19111 5.70789 0
M  V30 196 H 20.0132 -1.98822 6.67415 0
M  V30 197 H 17.6402 -1.85518 7.37216 0
M  V30 198 N 19.2153 -1.21501 -1.00376 0
M  V30 199 C 20.6313 -0.972629 -1.26539 0
M  V30 200 C 20.8313 0.340257 -1.98606 0
M  V30 201 O 19.8873 1.06561 -2.28913 0
M  V30 202 C 21.2003 -2.16404 -2.08781 0
M  V30 203 C 22.7483 -2.20643 -2.22004 0
M  V30 204 C 23.2233 -3.39306 -3.07629 0
M  V30 205 N 24.7143 -3.39401 -3.15217 0
M  V30 206 C 25.4493 -4.27867 -3.81729 0
M  V30 207 N 24.9453 -5.26533 -4.5026 0
M  V30 208 N 26.7383 -4.15672 -3.78382 0
M  V30 209 H 18.8893 -2.05929 -0.520281 0
M  V30 210 H 21.1523 -0.901803 -0.292328 0
M  V30 211 H 20.8583 -3.11554 -1.63178 0
M  V30 212 H 20.7323 -2.15567 -3.09533 0
M  V30 213 H 23.1193 -1.26048 -2.66825 0
M  V30 214 H 23.2003 -2.25523 -1.20718 0
M  V30 215 H 22.8443 -4.34195 -2.63509 0
M  V30 216 H 22.7743 -3.31665 -4.09031 0
M  V30 217 H 25.2653 -2.67997 -2.66432 0
M  V30 218 H 25.5783 -5.90337 -4.98721 0
M  V30 219 H 23.9233 -5.30457 -4.49044 0
M  V30 220 H 27.1143 -3.3785 -3.23998 0
M  V30 221 H 27.2873 -4.84825 -4.2994 0
M  V30 222 N 20.6934 1.19889 -1.02296 0
M  V30 223 C 21.9214 1.9339 -0.735399 0
M  V30 224 C 22.3364 1.75148 0.704887 0
M  V30 225 O 21.6934 1.06954 1.47875 0
M  V30 226 C 21.7444 3.45313 -1.06962 0
M  V30 227 O 21.4654 3.62964 -2.45334 0
M  V30 228 C 22.9664 4.35948 -0.804021 0
M  V30 229 H 20.1864 0.61448 -0.269546 0
M  V30 230 H 22.7304 1.522 -1.36585 0
M  V30 231 H 20.8854 3.84359 -0.484455 0
M  V30 232 H 21.2994 4.56886 -2.57595 0
M  V30 233 H 22.7734 5.41174 -1.0879 0
M  V30 234 H 23.2504 4.3842 0.261691 0
M  V30 235 H 23.8564 4.02574 -1.37164 0
M  V30 236 N 22.1715 0.800033 1.35784 0
M  V30 237 C 23.4205 0.37387 1.98205 0
M  V30 238 C 23.7335 -1.06302 1.64193 0
M  V30 239 O 24.9395 -1.59198 2.19928 0
M  V30 240 C 23.3955 0.617532 3.54562 0
M  V30 241 C 23.0035 2.06654 3.9749 0
M  V30 242 C 24.7475 0.256401 4.23725 0
M  V30 243 C 22.6545 2.2563 5.46667 0
M  V30 244 H 21.5845 0.136055 0.741623 0
M  V30 245 H 24.2355 0.983166 1.54939 0
M  V30 246 H 22.6175 -0.0616248 3.95952 0
M  V30 247 H 23.7915 2.78296 3.67271 0
M  V30 248 H 22.1065 2.38691 3.41197 0
M  V30 249 H 24.7035 0.376318 5.33374 0
M  V30 250 H 25.0465 -0.796692 4.08606 0
M  V30 251 H 25.5795 0.889214 3.87734 0
M  V30 252 H 22.3185 3.2936 5.66747 0
M  V30 253 H 21.8385 1.58504 5.78478 0
M  V30 254 H 23.5175 2.06861 6.1304 0
M  V30 255 N 23.6496 -1.47581 0.552962 0
M  V30 256 C 24.8776 -2.06875 0.0320556 0
M  V30 257 C 25.2926 -1.40625 -1.25976 0
M  V30 258 O 24.6496 -0.501349 -1.75479 0
M  V30 259 C 24.7006 -3.61092 -0.17167 0
M  V30 260 O 24.4216 -4.24858 1.06899 0
M  V30 261 C 25.9226 -4.37242 -0.730344 0
M  V30 262 H 23.1426 -0.669561 0.043915 0
M  V30 263 H 25.6866 -1.89646 0.765163 0
M  V30 264 H 23.8416 -3.7785 -0.854894 0
M  V30 265 H 24.2556 -5.17334 0.864059 0
M  V30 266 H 25.7296 -5.45842 -0.822203 0
M  V30 267 H 26.2066 -4.03235 -1.74064 0
M  V30 268 H 26.8126 -4.25219 -0.0829543 0
M  V30 269 N 25.1277 -0.289203 -1.54924 0
M  V30 270 C 26.3557 0.326463 -2.04308 0
M  V30 271 C 26.7707 1.48413 -1.16701 0
M  V30 272 O 26.1277 1.81507 -0.190087 0
M  V30 273 C 26.1787 0.794014 -3.52672 0
M  V30 274 O 25.8997 -0.317564 -4.36948 0
M  V30 275 C 27.4007 1.47605 -4.18004 0
M  V30 276 H 24.6207 0.0726272 -0.667058 0
M  V30 277 H 27.1647 -0.425401 -2.00026 0
M  V30 278 H 25.3197 1.49593 -3.57352 0
M  V30 279 H 25.7337 0.0443186 -5.24481 0
M  V30 280 H 27.2077 1.75447 -5.23376 0
M  V30 281 H 27.6847 2.41224 -3.67025 0
M  V30 282 H 28.2907 0.81762 -4.17367 0
M  V30 283 N 26.6058 1.57591 -0.0167156 0
M  V30 284 C 27.8828 1.82547 0.702564 0
M  V30 285 C 28.2628 0.898018 1.91047 0
M  V30 286 O 27.6108 -0.0493456 2.28447 0
M  V30 287 C 27.8208 3.31459 1.09251 0
M  V30 288 C 29.1688 3.97622 1.48937 0
M  V30 289 O 30.1928 3.35881 1.18584 0
M  V30 290 O 29.0518 5.06415 2.05442 0
M  V30 291 H 26.1458 0.752268 0.343544 0
M  V30 292 H 28.6918 1.69644 -0.0434495 0
M  V30 293 H 27.4638 3.9061 0.23227 0
M  V30 294 H 27.0868 3.49422 1.89709 0
M  V30 295 N 28.0839 -0.256276 1.55502 0
M  V30 296 C 29.0139 -1.32102 1.92539 0
M  V30 297 C 29.9949 -1.50684 0.789194 0
M  V30 298 O 31.1799 -1.63449 1.04872 0
M  V30 299 C 28.3099 -2.67752 2.21192 0
M  V30 300 C 27.2639 -2.63878 3.36975 0
M  V30 301 C 26.5899 -4.03236 3.51147 0
M  V30 302 C 27.8899 -2.21682 4.72921 0
M  V30 303 H 29.5839 -1.01351 2.81724 0
M  V30 304 H 27.1299 -0.486105 1.35547 0
M  V30 305 H 29.0829 -3.42365 2.45691 0
M  V30 306 H 27.8069 -3.0012 1.28824 0
M  V30 307 H 26.4659 -1.91722 3.12471 0
M  V30 308 H 26.1139 -4.32854 2.56216 0
M  V30 309 H 25.8139 -4.01535 4.29003 0
M  V30 310 H 27.3379 -4.79563 3.77957 0
M  V30 311 H 28.7519 -2.86023 4.96854 0
M  V30 312 H 27.1489 -2.3111 5.53812 0
M  V30 313 H 28.2189 -1.16833 4.70615 0
M  V30 314 N 29.562 -1.4872 -0.521534 0
M  V30 315 C 30.492 -1.66771 -1.63431 0
M  V30 316 C 31.473 -0.516499 -1.62069 0
M  V30 317 O 32.658 -0.750013 -1.79132 0
M  V30 318 C 29.788 -1.71515 -3.01993 0
M  V30 319 C 28.742 -2.86222 -3.18216 0
M  V30 320 C 28.068 -2.76061 -4.57924 0
M  V30 321 C 29.368 -4.27419 -3.00184 0
M  V30 322 H 31.062 -2.59932 -1.48579 0
M  V30 323 H 28.608 -1.25089 -0.713358 0
M  V30 324 H 30.561 -1.82731 -3.7972 0
M  V30 325 H 29.285 -0.749393 -3.17886 0
M  V30 326 H 27.944 -2.74575 -2.42908 0
M  V30 327 H 27.592 -1.77437 -4.70665 0
M  V30 328 H 27.292 -3.53037 -4.69722 0
M  V30 329 H 28.816 -2.89256 -5.37739 0
M  V30 330 H 30.23 -4.39855 -3.67697 0
M  V30 331 H 28.627 -5.05458 -3.2347 0
M  V30 332 H 29.697 -4.43293 -1.96518 0
M  V30 333 N 31.0401 0.771051 -1.3745 0
M  V30 334 C 32.2701 1.55789 -1.35696 0
M  V30 335 C 32.6781 1.89107 0.0594523 0
M  V30 336 O 32.0211 1.51984 1.03183 0
M  V30 337 C 32.0831 2.89515 -2.13123 0
M  V30 338 C 31.7471 2.78829 -3.62082 0
M  V30 339 C 32.7441 2.49812 -4.5595 0
M  V30 340 C 30.4291 2.9683 -4.05213 0
M  V30 341 C 32.4231 2.38923 -5.90927 0
M  V30 342 C 30.1101 2.85562 -5.40276 0
M  V30 343 C 31.1081 2.56649 -6.32946 0
M  V30 344 O 30.7961 2.45408 -7.65526 0
M  V30 345 H 30.5281 0.489257 -0.466481 0
M  V30 346 H 33.0821 0.963446 -1.81403 0
M  V30 347 H 31.3121 3.51081 -1.62107 0
M  V30 348 H 33.0011 3.50915 -2.03994 0
M  V30 349 H 33.7671 2.3559 -4.23937 0
M  V30 350 H 29.6461 3.18335 -3.33442 0
M  V30 351 H 33.1901 2.16277 -6.63227 0
M  V30 352 H 29.0871 2.99351 -5.71891 0
M  V30 353 H 29.8551 2.60753 -7.75855 0
M  V30 354 N 32.5182 1.22032 0.997298 0
M  V30 355 C 33.7642 1.04376 1.73878 0
M  V30 356 C 34.0972 -0.420716 1.89588 0
M  V30 357 O 33.3722 -1.31202 1.43583 0
M  V30 358 C 33.6552 1.75047 3.14691 0
M  V30 359 C 33.5082 3.29062 3.06656 0
M  V30 360 C 34.8272 1.49928 4.13775 0
M  V30 361 H 31.9462 0.380578 0.631133 0
M  V30 362 H 34.5882 1.50312 1.16217 0
M  V30 363 H 32.7382 1.35996 3.63919 0
M  V30 364 H 34.4102 3.7753 2.65083 0
M  V30 365 H 32.6532 3.58967 2.43568 0
M  V30 366 H 33.3242 3.73683 4.06282 0
M  V30 367 H 35.8002 1.83842 3.73285 0
M  V30 368 H 34.6762 2.01878 5.10428 0
M  V30 369 H 34.9372 0.430929 4.39995 0
M  V30 370 N 33.9963 -1.19345 1.0293 0
M  V30 371 C 35.2443 -1.88665 0.724574 0
M  V30 372 C 35.5653 -1.80036 -0.749144 0
M  V30 373 O 34.8353 -1.2111 -1.53978 0
M  V30 374 H 33.4153 -0.698406 0.265025 0
M  V30 375 H 36.0773 -1.44885 1.30362 0
M  V30 376 H 35.1733 -2.94987 1.01926 0
M  V30 377 N 35.4744 -0.807222 -1.35358 0
M  V30 378 C 36.6994 -0.399309 -2.0352 0
M  V30 379 C 37.1244 0.981986 -1.60433 0
M  V30 380 O 36.4824 1.63601 -0.781299 0
M  V30 381 C 36.5304 -0.491552 -3.57234 0
M  V30 382 O 35.6344 0.494754 -4.09421 0
M  V30 383 H 34.9754 -0.166682 -0.642739 0
M  V30 384 H 37.5054 -1.09328 -1.72941 0
M  V30 385 H 37.5154 -0.361588 -4.06395 0
M  V30 386 H 36.1904 -1.49907 -3.87944 0
M  V30 387 H 34.7674 0.324977 -3.71481 0
M  V30 388 N 36.9525 1.47285 -0.560781 0
M  V30 389 C 37.9005 2.31756 0.197942 0
M  V30 390 C 38.8945 1.43146 0.905854 0
M  V30 391 O 40.1005 1.59891 0.826733 0
M  V30 392 H 36.4755 0.747438 0.0827049 0
M  V30 393 H 38.4465 2.9359 -0.533629 0
M  V30 394 C 37.1955 3.25874 1.21249 0
M  V30 395 H 36.5185 3.94023 0.67719 0
M  V30 396 H 37.9585 3.87803 1.71419 0
M  V30 397 C 36.4175 2.49651 2.26221 0
M  V30 398 O 36.9475 2.24355 3.33208 0
M  V30 399 N 35.1535 2.10597 2.00243 0
M  V30 400 H 34.7005 2.31369 1.13252 0
M  V30 401 H 34.6585 1.59913 2.70694 0
M  V30 402 N 38.4306 0.297415 1.54768 0
M  V30 403 C 39.7076 -0.365847 1.92148 0
M  V30 404 C 40.0876 -1.71975 1.22424 0
M  V30 405 O 39.4356 -2.25666 0.358739 0
M  V30 406 C 39.6456 -0.484056 3.45627 0
M  V30 407 C 40.9936 -0.756594 4.17805 0
M  V30 408 O 42.0176 -0.568007 3.51642 0
M  V30 409 O 40.8766 -1.11863 5.34929 0
M  V30 410 H 37.9706 -0.203919 0.801465 0
M  V30 411 H 40.5166 0.34521 1.66152 0
M  V30 412 H 39.2886 0.467865 3.88493 0
M  V30 413 H 38.9116 -1.24372 3.77647 0
M  V30 414 N 39.9087 -1.5758 0.0250728 0
M  V30 415 C 41.1577 -1.90811 -0.653767 0
M  V30 416 C 41.4707 -0.90273 -1.73523 0
M  V30 417 O 42.6767 -1.12614 -2.47043 0
M  V30 418 C 41.1327 -3.38804 -1.21409 0
M  V30 419 C 40.7407 -4.47692 -0.166126 0
M  V30 420 C 42.4847 -3.81108 -1.86967 0
M  V30 421 C 40.3917 -5.86779 -0.737856 0
M  V30 422 H 39.3217 -0.712063 -0.247956 0
M  V30 423 H 41.9727 -1.83281 0.0897137 0
M  V30 424 H 40.3547 -3.41252 -2.00905 0
M  V30 425 H 41.5287 -4.56797 0.606079 0
M  V30 426 H 39.8437 -4.14565 0.390466 0
M  V30 427 H 42.4407 -4.82375 -2.30692 0
M  V30 428 H 42.7837 -3.15953 -2.71071 0
M  V30 429 H 43.3167 -3.81065 -1.14167 0
M  V30 430 H 40.0557 -6.55468 0.0649577 0
M  V30 431 H 39.5757 -5.81288 -1.47864 0
M  V30 432 H 41.2547 -6.35223 -1.22884 0
M  V30 433 N 41.3868 0.248026 -1.55636 0
M  V30 434 C 42.3188 1.32993 -1.8667 0
M  V30 435 C 43.3318 1.44345 -0.752877 0
M  V30 436 O 44.5208 1.45715 -1.03098 0
M  V30 437 C 41.6208 2.70863 -2.03682 0
M  V30 438 C 40.7938 2.81792 -3.34532 0
M  V30 439 C 39.8528 4.005 -3.41301 0
M  V30 440 O 38.8788 3.9008 -4.14519 0
M  V30 441 N 40.0808 5.13618 -2.70512 0
M  V30 442 H 42.8458 1.06707 -2.8006 0
M  V30 443 H 40.4068 0.438129 -1.55859 0
M  V30 444 H 42.3988 3.48612 -2.05553 0
M  V30 445 H 40.9688 2.89862 -1.17041 0
M  V30 446 H 40.1888 1.90729 -3.44987 0
M  V30 447 H 41.4768 2.86043 -4.20781 0
M  V30 448 H 40.8748 5.24975 -2.10755 0
M  V30 449 H 39.4318 5.89505 -2.78077 0
M  V30 450 N 42.8649 1.48995 0.513639 0
M  V30 451 C 44.0949 1.61297 1.291 0
M  V30 452 C 44.5029 0.278656 1.87137 0
M  V30 453 O 43.8459 -0.744325 1.67945 0
M  V30 454 C 43.9079 2.61326 2.46879 0
M  V30 455 C 43.5719 4.05993 2.09807 0
M  V30 456 C 44.5689 4.93183 1.64519 0
M  V30 457 C 42.2539 4.51642 2.19829 0
M  V30 458 C 44.2479 6.24056 1.2974 0
M  V30 459 C 41.9349 5.82532 1.84662 0
M  V30 460 C 42.9329 6.68562 1.3969 0
M  V30 461 O 42.6209 7.97014 1.04992 0
M  V30 462 H 42.3529 0.546236 0.39825 0
M  V30 463 H 44.9069 1.95673 0.62459 0
M  V30 464 H 43.1369 2.22104 3.16554 0
M  V30 465 H 44.8259 2.6329 3.08923 0
M  V30 466 H 45.5919 4.59147 1.56233 0
M  V30 467 H 41.4709 3.84855 2.53786 0
M  V30 468 H 45.0149 6.91161 0.945659 0
M  V30 469 H 40.9119 6.16099 1.92594 0
M  V30 470 H 41.6799 8.09913 1.18249 0
M  V30 471 N 44.343 -0.763751 1.37857 0
M  V30 472 C 45.253 -1.90817 1.36478 0
M  V30 473 C 46.269 -1.71997 0.263248 0
M  V30 474 O 47.445 -1.95095 0.499979 0
M  V30 475 C 44.51 -3.2605 1.17864 0
M  V30 476 C 43.571 -3.57467 2.3773 0
M  V30 477 C 42.804 -4.86249 2.19995 0
M  V30 478 O 43.027 -5.57884 1.18836 0
M  V30 479 O 41.961 -5.16911 3.08361 0
M  V30 480 H 45.787 -1.94933 2.32884 0
M  V30 481 H 43.372 -0.907619 1.1867 0
M  V30 482 H 45.254 -4.06924 1.09504 0
M  V30 483 H 43.929 -3.22769 0.245372 0
M  V30 484 H 42.836 -2.76796 2.51664 0
M  V30 485 H 44.169 -3.655 3.29652 0
M  V30 486 N 45.8211 -1.22559 -0.990812 0
M  V30 487 C 47.0981 -0.959875 -1.70428 0
M  V30 488 C 47.4781 0.524455 -2.04481 0
M  V30 489 O 46.8261 1.49302 -1.72977 0
M  V30 490 C 47.0361 -1.85955 -2.95333 0
M  V30 491 C 48.3841 -2.11687 -3.68068 0
M  V30 492 O 49.4081 -1.8342 -3.05345 0
M  V30 493 O 48.2671 -2.59572 -4.80921 0
M  V30 494 H 45.3611 -0.361154 -0.743974 0
M  V30 495 H 47.9071 -1.33554 -1.04697 0
M  V30 496 H 46.6791 -2.86346 -2.66687 0
M  V30 497 H 46.3021 -1.4856 -3.68803 0
M  V30 498 N 47.2992 1.18797 -1.03562 0
M  V30 499 C 48.5482 1.87978 -0.731235 0
M  V30 500 C 48.8612 1.80911 0.743671 0
M  V30 501 O 50.0672 2.45407 1.16137 0
M  V30 502 C 48.5232 3.3721 -1.25768 0
M  V30 503 C 48.1312 3.52818 -2.76085 0
M  V30 504 C 49.8752 4.11825 -1.0296 0
M  V30 505 C 47.7822 4.9598 -3.22114 0
M  V30 506 H 46.7122 0.704063 -0.269835 0
M  V30 507 H 49.3632 1.34266 -1.25079 0
M  V30 508 H 47.7452 3.90359 -0.666011 0
M  V30 509 H 48.9192 3.09965 -3.40966 0
M  V30 510 H 47.2342 2.91602 -2.97249 0
M  V30 511 H 49.8312 5.17411 -1.34869 0
M  V30 512 H 50.1742 4.16287 0.0333546 0
M  V30 513 H 50.7072 3.64833 -1.58562 0
M  V30 514 H 47.4462 4.96684 -4.27768 0
M  V30 515 H 46.9662 5.39569 -2.61965 0
M  V30 516 H 48.6452 5.6467 -3.15844 0
M  V30 517 N 48.7773 0.814389 1.34928 0
M  V30 518 C 49.7243 0.22822 2.29669 0
M  V30 519 C 50.6943 -0.642164 1.53184 0
M  V30 520 O 51.8793 -0.585605 1.81591 0
M  V30 521 C 49.0193 -0.61089 3.3965 0
M  V30 522 C 48.1323 0.280792 4.31086 0
M  V30 523 C 47.2673 -0.567067 5.28165 0
M  V30 524 C 46.3063 0.324531 6.11239 0
M  V30 525 N 45.4433 -0.483756 7.00431 0
M  V30 526 H 50.2833 1.04153 2.79206 0
M  V30 527 H 47.8203 0.525133 1.37407 0
M  V30 528 H 49.7783 -1.11263 4.0209 0
M  V30 529 H 48.4083 -1.38939 2.91369 0
M  V30 530 H 47.4603 0.900688 3.69583 0
M  V30 531 H 48.7723 0.966723 4.89342 0
M  V30 532 H 47.9263 -1.13363 5.96015 0
M  V30 533 H 46.6653 -1.28654 4.70425 0
M  V30 534 H 45.6703 0.903298 5.42329 0
M  V30 535 H 46.8953 1.04198 6.71059 0
M  V30 536 H 44.8413 -1.18706 6.45171 0
M  V30 537 H 44.7583 0.143965 7.55863 0
M  V30 538 H 46.0263 -1.03334 7.7262 0
M  V30 539 N 50.2554 -1.46986 0.568584 0
M  V30 540 C 51.5034 -2.02041 0.0487022 0
M  V30 541 C 51.8244 -1.44408 -1.31039 0
M  V30 542 O 51.0944 -0.623477 -1.85714 0
M  V30 543 H 49.6744 -0.746849 0.015014 0
M  V30 544 H 52.3364 -1.80257 0.741168 0
M  V30 545 H 51.4324 -3.12085 -0.0308961 0
M  V30 546 N 51.7335 -0.305618 -1.54608 0
M  V30 547 C 53.0105 0.355652 -1.92339 0
M  V30 548 C 53.3905 1.71324 -1.23335 0
M  V30 549 O 52.7385 2.25473 -0.370702 0
M  V30 550 C 52.9485 0.46572 -3.45879 0
M  V30 551 C 54.2965 0.734426 -4.182 0
M  V30 552 O 55.3205 0.54935 -3.51938 0
M  V30 553 O 54.1795 1.09024 -5.35515 0
M  V30 554 H 51.2735 0.199666 -0.802535 0
M  V30 555 H 53.8195 -0.354017 -1.65966 0
M  V30 556 H 52.5915 -0.488461 -3.88239 0
M  V30 557 H 52.2145 1.22367 -3.78301 0
M  V30 558 N 53.2116 1.57565 -0.0334293 0
M  V30 559 C 54.1446 2.05997 0.981866 0
M  V30 560 C 55.1226 0.956647 1.3148 0
M  V30 561 O 56.3066 1.22729 1.43073 0
M  V30 562 C 53.4336 2.48564 2.30074 0
M  V30 563 C 52.4796 3.69958 2.12211 0
M  V30 564 S 53.3126 5.16414 1.41692 0
M  V30 565 C 54.4686 5.6228 2.7494 0
M  V30 566 H 54.7016 2.91792 0.569612 0
M  V30 567 H 52.2346 1.53366 0.178376 0
M  V30 568 H 54.1926 2.73753 3.05892 0
M  V30 569 H 52.8536 1.63106 2.68431 0
M  V30 570 H 52.0466 3.97603 3.09722 0
M  V30 571 H 51.6486 3.44943 1.44535 0
M  V30 572 H 53.9406 5.66783 3.71165 0
M  V30 573 H 54.8836 6.61759 2.51953 0
M  V30 574 H 55.2916 4.89944 2.80384 0
M  V30 575 N 54.6897 -0.239769 1.55765 0
M  V30 576 C 55.6527 -1.28038 1.90103 0
M  V30 577 C 56.6527 -1.40723 0.778055 0
M  V30 578 O 57.8427 -1.39301 1.04599 0
M  V30 579 C 54.9747 -2.65702 2.13577 0
M  V30 580 H 56.1677 -0.988048 2.83157 0
M  V30 581 H 53.7207 -0.479382 1.48767 0
M  V30 582 H 54.4557 -3.00063 1.23015 0
M  V30 583 H 54.2407 -2.57875 2.95369 0
M  V30 584 H 55.7307 -3.40828 2.41301 0
M  V30 585 N 56.1678 -1.49265 -0.50573 0
M  V30 586 C 57.3928 -1.62478 -1.28902 0
M  V30 587 C 57.8178 -0.294332 -1.85783 0
M  V30 588 O 57.1758 0.737412 -1.65626 0
M  V30 589 C 57.2238 -2.69268 -2.39848 0
M  V30 590 O 56.3278 -2.28113 -3.43567 0
M  V30 591 H 55.6688 -0.54399 -0.380751 0
M  V30 592 H 58.1988 -1.95421 -0.605952 0
M  V30 593 H 58.2088 -2.91291 -2.85681 0
M  V30 594 H 56.8838 -3.65846 -1.97812 0
M  V30 595 H 55.4608 -2.16401 -3.03685 0
M  V30 596 N 57.6459 0.756429 -1.3826 0
M  V30 597 C 58.5929 1.87011 -1.35261 0
M  V30 598 C 59.5629 1.64695 -0.215616 0
M  V30 599 O 60.7479 1.864 -0.407399 0
M  V30 600 C 57.8879 3.24275 -1.18068 0
M  V30 601 C 57.0009 3.58442 -2.41129 0
M  V30 602 C 56.1359 4.84994 -2.16689 0
M  V30 603 C 55.1749 5.11939 -3.35537 0
M  V30 604 N 54.3119 6.29685 -3.10549 0
M  V30 605 H 59.1519 1.8891 -2.30472 0
M  V30 606 H 56.6889 0.923373 -1.14509 0
M  V30 607 H 58.6469 4.03479 -1.06116 0
M  V30 608 H 57.2769 3.21711 -0.264973 0
M  V30 609 H 56.3289 2.74103 -2.63764 0
M  V30 610 H 57.6409 3.74283 -3.29717 0
M  V30 611 H 56.7949 5.72135 -2.01857 0
M  V30 612 H 55.5339 4.71286 -1.25462 0
M  V30 613 H 54.5389 4.23268 -3.50891 0
M  V30 614 H 55.7639 5.27546 -4.27635 0
M  V30 615 H 53.7099 6.17306 -2.21967 0
M  V30 616 H 53.6269 6.46014 -3.92686 0
M  V30 617 H 54.8949 7.19722 -2.99367 0
M  V30 618 N 59.124 1.23083 0.984299 0
M  V30 619 C 60.054 1.03292 2.09411 0
M  V30 620 C 61.035 -0.048923 1.7003 0
M  V30 621 O 62.22 0.114967 1.93859 0
M  V30 622 C 59.35 0.619155 3.41736 0
M  V30 623 C 58.304 1.64791 3.95004 0
M  V30 624 C 57.63 1.0897 5.23478 0
M  V30 625 C 58.93 3.03999 4.24714 0
M  V30 626 H 60.624 1.96119 2.26225 0
M  V30 627 H 58.17 0.944344 1.08711 0
M  V30 628 H 60.123 0.467777 4.18796 0
M  V30 629 H 58.847 -0.344786 3.24775 0
M  V30 630 H 57.506 1.78721 3.20085 0
M  V30 631 H 57.154 0.11686 5.02864 0
M  V30 632 H 56.854 1.77704 5.60085 0
M  V30 633 H 58.378 0.950093 6.03163 0
M  V30 634 H 59.792 2.93393 4.92538 0
M  V30 635 H 58.189 3.69936 4.72512 0
M  V30 636 H 59.259 3.53285 3.32142 0
M  V30 637 N 60.6021 -1.18246 1.0419 0
M  V30 638 C 61.8501 -1.87886 0.744543 0
M  V30 639 C 62.1711 -1.8082 -0.730006 0
M  V30 640 O 61.4411 -1.22736 -1.52685 0
M  V30 641 H 60.0211 -0.695556 0.272417 0
M  V30 642 H 62.6831 -1.43494 1.31892 0
M  V30 643 H 61.7791 -2.9389 1.05049 0
M  V30 644 N 62.0802 -0.821533 -1.34494 0
M  V30 645 C 63.3102 -0.421272 -2.02259 0
M  V30 646 C 63.7182 0.977047 -1.6202 0
M  V30 647 O 63.0612 1.64348 -0.820703 0
M  V30 648 C 63.1232 -0.44231 -3.56769 0
M  V30 649 C 62.7872 -1.79372 -4.20327 0
M  V30 650 C 63.7842 -2.75435 -4.40944 0
M  V30 651 C 61.4692 -2.08182 -4.57127 0
M  V30 652 C 63.4632 -3.98482 -4.97484 0
M  V30 653 C 61.1502 -3.31489 -5.13379 0
M  V30 654 C 62.1482 -4.26457 -5.33501 0
M  V30 655 O 61.8362 -5.47585 -5.88562 0
M  V30 656 H 61.5682 -0.167473 -0.654927 0
M  V30 657 H 64.1222 -1.11073 -1.72777 0
M  V30 658 H 62.3522 0.303836 -3.85505 0
M  V30 659 H 64.0412 -0.0622925 -4.05852 0
M  V30 660 H 64.8072 -2.54473 -4.12878 0
M  V30 661 H 60.6862 -1.35066 -4.4077 0
M  V30 662 H 64.2302 -4.72618 -5.13106 0
M  V30 663 H 60.1272 -3.52316 -5.40873 0
M  V30 664 H 60.8952 -5.49086 -6.06998 0
M  V30 665 N 63.5583 1.46682 -0.576371 0
M  V30 666 C 64.8053 2.02412 -0.0595339 0
M  V30 667 C 65.1333 1.44859 1.29793 0
M  V30 668 O 64.3883 0.601099 1.8624 0
M  V30 669 C 64.6873 3.57345 0.062886 0
M  V30 670 C 64.3533 4.33908 -1.22616 0
M  V30 671 C 63.0153 4.54544 -1.57933 0
M  V30 672 C 65.3673 4.77919 -2.07948 0
M  V30 673 C 62.6953 5.16444 -2.78393 0
M  V30 674 C 65.0473 5.41149 -3.27629 0
M  V30 675 C 63.7113 5.60014 -3.63236 0
M  V30 676 H 62.9813 0.74068 -0.021785 0
M  V30 677 H 65.6283 1.76128 -0.751735 0
M  V30 678 H 63.9333 3.82729 0.838178 0
M  V30 679 H 65.6303 3.98136 0.478439 0
M  V30 680 H 62.2203 4.18138 -0.941202 0
M  V30 681 H 66.4043 4.61738 -1.81967 0
M  V30 682 H 61.6603 5.29242 -3.06126 0
M  V30 683 H 65.8343 5.74211 -3.94023 0
M  V30 684 H 63.4613 6.07748 -4.56669 0
M  V30 685 N 65.0364 0.313813 1.54444 0
M  V30 686 C 66.4474 -0.176243 1.85866 0
M  V30 687 C 66.7984 -1.52405 1.23561 0
M  V30 688 O 65.9234 -2.09605 0.538016 0
M  V30 689 C 66.5184 -0.32657 3.37222 0
M  V30 690 C 65.0774 -0.760846 3.6863 0
M  V30 691 C 64.2244 0.123247 2.77026 0
M  V30 692 H 67.1754 0.534418 1.49431 0
M  V30 693 H 67.1964 -1.15908 3.62416 0
M  V30 694 H 66.7084 0.654531 3.82541 0
M  V30 695 H 64.8094 -1.75204 3.28838 0
M  V30 696 H 64.9224 -0.571353 4.75681 0
M  V30 697 H 63.2864 -0.399597 2.51546 0
M  V30 698 H 64.0694 1.10094 3.25168 0
M  V30 699 N 66.5145 -1.57545 0.0417849 0
M  V30 700 C 67.4465 -2.07904 -0.964799 0
M  V30 701 C 68.4595 -1.00497 -1.28079 0
M  V30 702 O 69.6485 -1.28087 -1.24322 0
M  V30 703 C 66.7485 -2.49928 -2.28887 0
M  V30 704 C 65.9215 -3.80562 -2.15619 0
M  V30 705 C 64.9805 -4.08999 -3.31069 0
M  V30 706 O 64.0065 -4.79061 -3.0739 0
M  V30 707 N 65.2085 -3.6017 -4.55256 0
M  V30 708 H 67.9735 -2.94886 -0.535029 0
M  V30 709 H 65.5345 -1.61252 -0.144681 0
M  V30 710 H 67.5265 -2.66034 -3.04972 0
M  V30 711 H 66.0965 -1.68245 -2.63463 0
M  V30 712 H 65.3165 -3.74129 -1.24183 0
M  V30 713 H 66.6045 -4.66126 -2.03971 0
M  V30 714 H 66.0025 -3.03512 -4.77386 0
M  V30 715 H 64.5595 -3.81532 -5.28466 0
M  V30 716 N 67.9926 0.231505 -1.5589 0
M  V30 717 C 68.9396 1.28682 -1.91598 0
M  V30 718 C 69.9096 1.47071 -0.771974 0
M  V30 719 O 71.0946 1.60802 -1.027 0
M  V30 720 C 68.2346 2.6342 -2.22944 0
M  V30 721 C 67.3476 2.52912 -3.50228 0
M  V30 722 C 66.4826 3.80106 -3.7107 0
M  V30 723 C 65.5216 3.64279 -4.91902 0
M  V30 724 N 64.6586 4.834 -5.09184 0
M  V30 725 H 69.4986 0.975305 -2.81588 0
M  V30 726 H 67.0356 0.470299 -1.39379 0
M  V30 727 H 68.9936 3.41869 -2.39126 0
M  V30 728 H 67.6236 2.92687 -1.36139 0
M  V30 729 H 66.6756 1.6595 -3.42294 0
M  V30 730 H 67.9876 2.37133 -4.38827 0
M  V30 731 H 67.1416 4.66999 -3.87295 0
M  V30 732 H 65.8806 3.98799 -2.80733 0
M  V30 733 H 64.8856 2.7577 -4.75637 0
M  V30 734 H 66.1106 3.47067 -5.83714 0
M  V30 735 H 64.0566 5.02425 -4.21788 0
M  V30 736 H 63.9736 4.70311 -5.91898 0
M  V30 737 H 65.2416 5.71747 -5.29835 0
M  V30 738 N 69.4707 1.49531 0.497807 0
M  V30 739 C 70.7177 1.59179 1.25173 0
M  V30 740 C 71.0457 0.279932 1.92475 0
M  V30 741 O 70.3007 -0.732383 1.81479 0
M  V30 742 C 70.5997 2.70252 2.33878 0
M  V30 743 C 70.2657 4.11644 1.84012 0
M  V30 744 C 68.9277 4.50121 1.70132 0
M  V30 745 C 71.2797 5.00121 1.46725 0
M  V30 746 C 68.6077 5.74845 1.17348 0
M  V30 747 C 70.9597 6.25366 0.95392 0
M  V30 748 C 69.6237 6.6267 0.801538 0
M  V30 749 H 68.8937 0.582478 0.45804 0
M  V30 750 H 71.5407 1.83373 0.551948 0
M  V30 751 H 69.8457 2.40041 3.09657 0
M  V30 752 H 71.5427 2.74925 2.9192 0
M  V30 753 H 68.1327 3.81274 1.95775 0
M  V30 754 H 72.3167 4.71048 1.56294 0
M  V30 755 H 67.5727 6.02444 1.04264 0
M  V30 756 H 71.7467 6.93301 0.656225 0
M  V30 757 H 69.3737 7.59197 0.390351 0
M  V30 758 N 70.9488 -0.749086 1.3866 0
M  V30 759 C 72.3598 -1.32664 1.31366 0
M  V30 760 C 72.7108 -1.96179 -0.028484 0
M  V30 761 O 71.8358 -1.9537 -0.93057 0
M  V30 762 C 72.4308 -2.41219 2.37905 0
M  V30 763 C 70.9898 -2.94684 2.34176 0
M  V30 764 C 70.1368 -1.68108 2.20533 0
M  V30 765 H 73.0878 -0.547628 1.48952 0
M  V30 766 H 73.1088 -3.21268 2.0388 0
M  V30 767 H 72.6208 -1.94962 3.35576 0
M  V30 768 H 70.7218 -3.45258 1.401 0
M  V30 769 H 70.8348 -3.48757 3.2849 0
M  V30 770 H 69.1988 -1.91907 1.67463 0
M  V30 771 H 69.9818 -1.23923 3.20153 0
M  V30 772 N 72.4269 -1.23603 -0.977757 0
M  V30 773 C 73.3569 -1.04401 -2.0886 0
M  V30 774 C 74.3379 0.0399052 -1.70053 0
M  V30 775 O 75.5229 -0.125246 -1.93796 0
M  V30 776 C 72.6529 -0.637269 -3.41403 0
M  V30 777 C 71.6069 -1.66883 -3.94124 0
M  V30 778 C 70.9329 -1.11745 -5.22893 0
M  V30 779 C 72.2329 -3.06247 -4.23096 0
M  V30 780 H 73.9269 -1.97316 -2.25182 0
M  V30 781 H 71.4729 -0.950096 -1.08209 0
M  V30 782 H 73.4259 -0.48998 -4.18542 0
M  V30 783 H 72.1499 0.327557 -3.24953 0
M  V30 784 H 70.8089 -1.80416 -3.19133 0
M  V30 785 H 70.4569 -0.143527 -5.02795 0
M  V30 786 H 70.1569 -1.80672 -5.59134 0
M  V30 787 H 71.6809 -0.982067 -6.02651 0
M  V30 788 H 73.0949 -2.96001 -4.90975 0
M  V30 789 H 71.4919 -3.72436 -4.70544 0
M  V30 790 H 72.5619 -3.55041 -3.30263 0
M  V30 791 N 73.905 1.17692 -1.04816 0
M  V30 792 C 75.133 1.91786 -0.776254 0
M  V30 793 C 75.548 1.76604 0.667577 0
M  V30 794 O 74.905 1.10067 1.45573 0
M  V30 795 C 74.956 3.42967 -1.14263 0
M  V30 796 O 74.677 3.57678 -2.52978 0
M  V30 797 C 76.178 4.34144 -0.896311 0
M  V30 798 H 73.398 0.608624 -0.282519 0
M  V30 799 H 75.942 1.49268 -1.39783 0
M  V30 800 H 74.097 3.83245 -0.565874 0
M  V30 801 H 74.511 4.51319 -2.67229 0
M  V30 802 H 75.985 5.38744 -1.20244 0
M  V30 803 H 76.462 4.38876 0.168636 0
M  V30 804 H 77.068 3.99574 -1.45672 0
M  V30 805 N 75.3831 0.828654 1.34056 0
M  V30 806 C 76.6081 0.431637 2.02859 0
M  V30 807 C 77.0331 -0.956339 1.61975 0
M  V30 808 O 76.3911 -1.62338 0.807228 0
M  V30 809 C 76.4391 0.548323 3.56407 0
M  V30 810 O 75.5431 -0.429556 4.10157 0
M  V30 811 H 74.8841 0.176886 0.640006 0
M  V30 812 H 77.4141 1.12066 1.71179 0
M  V30 813 H 77.4241 0.426196 4.05768 0
M  V30 814 H 76.0991 1.5606 3.8551 0
M  V30 815 H 74.6761 -0.265836 3.71951 0
M  V30 816 N 76.8612 -1.46375 0.584142 0
M  V30 817 C 78.1082 -2.02378 0.0702675 0
M  V30 818 C 78.4362 -1.45545 -1.29023 0
M  V30 819 O 77.6912 -0.610967 -1.85918 0
M  V30 820 C 77.9902 -3.57373 -0.0439342 0
M  V30 821 C 77.6562 -4.33252 1.24915 0
M  V30 822 C 76.3182 -4.53701 1.60341 0
M  V30 823 C 78.6702 -4.7681 2.1048 0
M  V30 824 C 75.9982 -5.1496 2.81128 0
M  V30 825 C 78.3502 -5.39404 3.30494 0
M  V30 826 C 77.0142 -5.5808 3.66201 0
M  V30 827 H 76.2842 -0.740554 0.0257127 0
M  V30 828 H 78.9312 -1.75727 0.761065 0
M  V30 829 H 77.2362 -3.83169 -0.817869 0
M  V30 830 H 78.9332 -3.98384 -0.457318 0
M  V30 831 H 75.5232 -4.17633 0.963364 0
M  V30 832 H 79.7072 -4.60766 1.84414 0
M  V30 833 H 74.9632 -5.27611 3.08928 0
M  V30 834 H 79.1372 -5.72114 3.97063 0
M  V30 835 H 76.7642 -6.05318 4.59885 0
M  V30 836 N 78.3393 -0.321999 -1.54275 0
M  V30 837 C 79.7553 0.0306999 -1.5957 0
M  V30 838 C 79.9553 1.50614 -1.33857 0
M  V30 839 O 79.0113 2.2619 -1.12223 0
M  V30 840 C 80.3243 -0.386122 -2.98211 0
M  V30 841 C 81.8723 -0.336647 -3.11184 0
M  V30 842 C 82.3473 -0.728607 -4.52167 0
M  V30 843 N 83.8383 -0.681952 -4.58152 0
M  V30 844 C 84.5733 -0.957449 -5.6535 0
M  V30 845 N 84.0693 -1.3 -6.80494 0
M  V30 846 N 85.8623 -0.883113 -5.55119 0
M  V30 847 H 78.0133 -1.28332 -1.69247 0
M  V30 848 H 80.2763 -0.521716 -0.791528 0
M  V30 849 H 79.9823 -1.41404 -3.22022 0
M  V30 850 H 79.8563 0.249662 -3.76373 0
M  V30 851 H 82.2433 0.682058 -2.8711 0
M  V30 852 H 82.3243 -1.00734 -2.3513 0
M  V30 853 H 81.9683 -1.74522 -4.76974 0
M  V30 854 H 81.8983 -0.0356152 -5.26588 0
M  V30 855 H 84.3893 -0.428985 -3.75457 0
M  V30 856 H 84.7023 -1.49563 -7.58189 0
M  V30 857 H 83.0473 -1.33824 -6.81994 0
M  V30 858 H 86.2383 -0.615001 -4.64042 0
M  V30 859 H 86.4113 -1.10118 -6.38575 0
M  V30 860 N 79.8174 1.5752 -0.0501392 0
M  V30 861 C 81.0654 1.9227 0.622642 0
M  V30 862 C 81.3864 0.929083 1.71444 0
M  V30 863 O 80.6564 -0.0262186 1.95882 0
M  V30 864 H 79.2364 0.709739 0.232981 0
M  V30 865 H 81.8984 1.94628 -0.102898 0
M  V30 866 H 80.9944 2.93479 1.06191 0
M  V30 867 N 81.2955 -0.223234 1.56011 0
M  V30 868 C 82.5205 -0.968978 1.83373 0
M  V30 869 C 82.9455 -1.77227 0.630254 0
M  V30 870 O 82.3035 -1.76345 -0.420959 0
M  V30 871 C 82.3515 -1.86363 3.08709 0
M  V30 872 O 81.4555 -2.95873 2.87285 0
M  V30 873 H 80.7965 -0.274461 0.604622 0
M  V30 874 H 83.3265 -0.237056 2.03222 0
M  V30 875 H 83.3365 -2.27376 3.38768 0
M  V30 876 H 82.0115 -1.27319 3.95933 0
M  V30 877 H 80.5885 -2.58818 2.68454 0
M  V30 878 N 82.7736 -1.49793 -0.48987 0
M  V30 879 C 84.1846 -1.52914 -1.07118 0
M  V30 880 C 84.5356 -0.321738 -1.93544 0
M  V30 881 O 83.6606 0.567338 -2.08831 0
M  V30 882 C 84.2556 -2.771 -1.94938 0
M  V30 883 C 82.8146 -2.82963 -2.48212 0
M  V30 884 C 81.9616 -2.46972 -1.26096 0
M  V30 885 H 84.9126 -1.56329 -0.273289 0
M  V30 886 H 84.9336 -2.57892 -2.79771 0
M  V30 887 H 84.4456 -3.64959 -1.32009 0
M  V30 888 H 82.5466 -1.99411 -3.14748 0
M  V30 889 H 82.6596 -3.85406 -2.84603 0
M  V30 890 H 81.0236 -1.98994 -1.58976 0
M  V30 891 H 81.8066 -3.37118 -0.648581 0
M  V30 892 N 84.2517 0.741722 -1.39055 0
M  V30 893 C 85.4987 1.50114 -1.35912 0
M  V30 894 C 85.8267 1.94443 0.0470937 0
M  V30 895 O 85.0817 1.66612 1.02659 0
M  V30 896 C 85.3807 2.7592 -2.27163 0
M  V30 897 C 85.0467 2.50493 -3.74919 0
M  V30 898 C 83.7087 2.43267 -4.1518 0
M  V30 899 C 86.0607 2.28585 -4.684 0
M  V30 900 C 83.3887 2.12166 -5.46994 0
M  V30 901 C 85.7407 1.99002 -6.00484 0
M  V30 902 C 84.4047 1.90241 -6.39816 0
M  V30 903 H 83.6747 0.549306 -0.497336 0
M  V30 904 H 86.3217 0.851896 -1.71508 0
M  V30 905 H 84.6267 3.45553 -1.84663 0
M  V30 906 H 86.3237 3.33923 -2.22028 0
M  V30 907 H 82.9137 2.56992 -3.43006 0
M  V30 908 H 87.0977 2.33139 -4.38132 0
M  V30 909 H 82.3537 2.03901 -5.76398 0
M  V30 910 H 86.5277 1.81057 -6.72452 0
M  V30 911 H 84.1547 1.65907 -7.41875 0
M  V30 912 N 85.7298 1.2412 0.971189 0
M  V30 913 C 86.6618 0.988349 2.06795 0
M  V30 914 C 87.6748 -0.0409541 1.62748 0
M  V30 915 O 88.8638 0.195673 1.77424 0
M  V30 916 C 85.9638 0.469023 3.35639 0
M  V30 917 C 85.1368 1.56065 4.08611 0
M  V30 918 C 84.1958 1.04458 5.15728 0
M  V30 919 O 83.2218 1.73553 5.42096 0
M  V30 920 N 84.4238 -0.122817 5.8037 0
M  V30 921 H 87.1888 1.93265 2.29061 0
M  V30 922 H 84.7498 1.15102 1.13856 0
M  V30 923 H 86.7418 0.108613 4.04554 0
M  V30 924 H 85.3118 -0.380919 3.1027 0
M  V30 925 H 84.5318 2.09341 3.34021 0
M  V30 926 H 85.8198 2.29449 4.54126 0
M  V30 927 H 85.2178 -0.700563 5.61345 0
M  V30 928 H 83.7748 -0.424404 6.50417 0
M  V30 929 N 87.2079 -1.17134 1.05439 0
M  V30 930 C 88.1179 -2.24878 0.668365 0
M  V30 931 C 89.1339 -1.71186 -0.311687 0
M  V30 932 O 90.3099 -2.00738 -0.163161 0
M  V30 933 C 87.3749 -3.46662 0.051648 0
M  V30 934 C 86.4359 -4.15429 1.08246 0
M  V30 935 C 85.6689 -5.31399 0.495082 0
M  V30 936 O 85.8919 -5.66153 -0.694743 0
M  V30 937 O 84.8259 -5.89187 1.23056 0
M  V30 938 H 88.6519 -2.60189 1.56637 0
M  V30 939 H 86.2369 -1.24482 0.826104 0
M  V30 940 H 88.1189 -4.20394 -0.290966 0
M  V30 941 H 86.7939 -3.13142 -0.819971 0
M  V30 942 H 85.7009 -3.43704 1.47711 0
M  V30 943 H 87.0339 -4.52982 1.92532 0
M  V30 944 N 88.686 -0.835752 -1.33615 0
M  V30 945 C 89.633 -0.26473 -2.29277 0
M  V30 946 C 90.603 0.617712 -1.54187 0
M  V30 947 O 91.788 0.556641 -1.825 0
M  V30 948 C 88.928 0.556777 -3.40579 0
M  V30 949 C 88.041 -0.349339 -4.30585 0
M  V30 950 C 87.176 0.482969 -5.29 0
M  V30 951 C 86.215 -0.421732 -6.10645 0
M  V30 952 N 85.352 0.372262 -7.01112 0
M  V30 953 H 90.192 -1.08582 -2.77514 0
M  V30 954 H 87.729 -0.546927 -1.36554 0
M  V30 955 H 89.687 1.04852 -4.03809 0
M  V30 956 H 88.317 1.34286 -2.93542 0
M  V30 957 H 87.369 -0.959372 -3.68104 0
M  V30 958 H 88.681 -1.04445 -4.87742 0
M  V30 959 H 87.835 1.03866 -5.97743 0
M  V30 960 H 86.574 1.21153 -4.72412 0
M  V30 961 H 85.579 -0.989464 -5.40823 0
M  V30 962 H 86.804 -1.14861 -6.69316 0
M  V30 963 H 84.75 1.08426 -6.46977 0
M  V30 964 H 84.667 -0.264198 -7.55538 0
M  V30 965 H 85.935 0.910293 -7.74167 0
M  V30 966 N 90.1641 1.46063 -0.591896 0
M  V30 967 C 91.0971 2.27452 0.184617 0
M  V30 968 C 92.0751 1.36188 0.888351 0
M  V30 969 O 93.2591 1.65606 0.90039 0
M  V30 970 C 90.3861 3.14162 1.26571 0
M  V30 971 C 89.4321 4.21255 0.666814 0
M  V30 972 S 90.2651 5.33034 -0.513345 0
M  V30 973 C 91.4211 6.23311 0.56872 0
M  V30 974 H 91.6541 2.92963 -0.505939 0
M  V30 975 H 89.1871 1.49676 -0.379014 0
M  V30 976 H 91.1451 3.6468 1.88463 0
M  V30 977 H 89.8061 2.47946 1.92826 0
M  V30 978 H 88.9991 4.81788 1.47974 0
M  V30 979 H 88.6011 3.73797 0.123359 0
M  V30 980 H 90.8931 6.61758 1.45198 0
M  V30 981 H 91.8361 7.081 -7.23824e-05 0
M  V30 982 H 92.2441 5.57646 0.876996 0
M  V30 983 N 91.6422 0.330177 1.54103 0
M  V30 984 C 92.8702 -0.272179 2.05102 0
M  V30 985 C 93.2852 -1.45267 1.20595 0
M  V30 986 O 92.6422 -1.8094 0.238144 0
M  V30 987 C 92.6932 -0.70023 3.54653 0
M  V30 988 O 92.4142 0.433301 4.35952 0
M  V30 989 C 93.9152 -1.3647 4.21771 0
M  V30 990 H 91.1352 -0.0549159 0.668749 0
M  V30 991 H 93.6792 0.478285 1.98828 0
M  V30 992 H 91.8342 -1.40066 3.61193 0
M  V30 993 H 92.2482 0.0947539 5.24414 0
M  V30 994 H 93.7222 -1.61509 5.27843 0
M  V30 995 H 94.1992 -2.31409 3.73292 0
M  V30 996 H 94.8052 -0.706675 4.19388 0
M  V30 997 N 93.1203 -1.57491 0.0584922 0
M  V30 998 C 94.0833 -2.1085 -0.898617 0
M  V30 999 C 95.0833 -1.02964 -1.23511 0
M  V30 1000 O 96.2733 -1.29007 -1.17059 0
M  V30 1001 C 93.4053 -2.59881 -2.20623 0
M  V30 1002 H 94.5983 -2.96715 -0.435936 0
M  V30 1003 H 92.1513 -1.55141 -0.190023 0
M  V30 1004 H 92.8863 -1.77431 -2.71457 0
M  V30 1005 H 92.6713 -3.38727 -1.97501 0
M  V30 1006 H 94.1613 -3.01285 -2.89166 0
M  V30 1007 N 94.5984 0.214957 -1.56127 0
M  V30 1008 C 95.8464 0.936518 -1.79091 0
M  V30 1009 C 96.1674 1.84606 -0.628148 0
M  V30 1010 O 95.4374 1.92664 0.35462 0
M  V30 1011 H 94.0174 0.3488 -0.660566 0
M  V30 1012 H 96.6794 0.22523 -1.93594 0
M  V30 1013 H 95.7754 1.53943 -2.71492 0
M  V30 1014 N 96.0765 1.50051 0.48192 0
M  V30 1015 C 97.3535 1.51009 1.2432 0
M  V30 1016 C 97.7335 0.248587 2.09631 0
M  V30 1017 O 97.0815 -0.768409 2.15192 0
M  V30 1018 C 97.2915 2.79981 2.08355 0
M  V30 1019 C 98.6395 3.3022 2.66908 0
M  V30 1020 O 99.6635 2.81228 2.18607 0
M  V30 1021 O 98.5225 4.15595 3.54884 0
M  V30 1022 H 95.6165 0.605239 0.563573 0
M  V30 1023 H 98.1625 1.62332 0.494627 0
M  V30 1024 H 96.9345 3.63275 1.45419 0
M  V30 1025 H 96.5575 2.7161 2.90368 0
M  V30 1026 N 97.5546 -0.734337 1.39446 0
M  V30 1027 C 98.5026 -1.86971 1.38364 0
M  V30 1028 C 99.4966 -1.67288 0.266687 0
M  V30 1029 O 100.703 -1.74621 0.436755 0
M  V30 1030 H 97.0776 -0.615474 0.432082 0
M  V30 1031 H 99.0486 -1.85 2.34132 0
M  V30 1032 C 97.7976 -3.2466 1.24465 0
M  V30 1033 H 97.1206 -3.40402 2.09682 0
M  V30 1034 H 98.5606 -4.04292 1.27764 0
M  V30 1035 C 97.0196 -3.36867 -0.0468674 0
M  V30 1036 O 97.5496 -3.88618 -1.01681 0
M  V30 1037 N 95.7556 -2.90391 -0.110145 0
M  V30 1038 H 95.3026 -2.48466 0.679868 0
M  V30 1039 H 95.2606 -2.98939 -0.973799 0
M  V30 1040 N 99.0327 -1.24633 -0.964593 0
M  V30 1041 C 100.444 -1.08045 -1.5226 0
M  V30 1042 C 100.795 0.347116 -1.93105 0
M  V30 1043 O 99.9197 1.23588 -1.77637 0
M  V30 1044 C 100.515 -1.95514 -2.76695 0
M  V30 1045 C 99.0737 -1.8314 -3.28841 0
M  V30 1046 C 98.2207 -1.90262 -2.01732 0
M  V30 1047 H 101.172 -1.38064 -0.782553 0
M  V30 1048 H 101.193 -1.48925 -3.50145 0
M  V30 1049 H 100.705 -2.99407 -2.46936 0
M  V30 1050 H 98.8057 -0.82092 -3.63444 0
M  V30 1051 H 98.9187 -2.67406 -3.97531 0
M  V30 1052 H 97.2827 -1.34027 -2.16584 0
M  V30 1053 H 98.0657 -2.9574 -1.74334 0
M  V30 1054 N 100.511 1.16574 -1.06058 0
M  V30 1055 C 101.443 2.2045 -0.627239 0
M  V30 1056 C 102.456 1.59752 0.313534 0
M  V30 1057 O 103.645 1.78192 0.104896 0
M  V30 1058 C 100.745 3.3875 0.100974 0
M  V30 1059 C 99.9178 4.29008 -0.852687 0
M  V30 1060 C 98.9768 5.25944 -0.164152 0
M  V30 1061 O 98.0028 5.63535 -0.801047 0
M  V30 1062 N 99.2048 5.70075 1.09518 0
M  V30 1063 H 101.97 2.58249 -1.52077 0
M  V30 1064 H 99.5308 1.3156 -0.943594 0
M  V30 1065 H 101.523 4.00638 0.57194 0
M  V30 1066 H 100.093 2.99476 0.89628 0
M  V30 1067 H 99.3128 3.64419 -1.50308 0
M  V30 1068 H 100.601 4.86195 -1.49972 0
M  V30 1069 H 99.9988 5.41624 1.6328 0
M  V30 1070 H 98.5558 6.34067 1.51006 0
M  V30 1071 N 101.989 0.842826 1.3317 0
M  V30 1072 C 102.919 0.294028 2.31641 0
M  V30 1073 C 103.9 -0.600401 1.59151 0
M  V30 1074 O 105.085 -0.523124 1.87022 0
M  V30 1075 C 102.215 -0.528416 3.43257 0
M  V30 1076 C 101.169 0.27056 4.27144 0
M  V30 1077 C 100.495 -0.675881 5.30411 0
M  V30 1078 C 101.795 1.48981 5.00602 0
M  V30 1079 H 103.489 1.11681 2.77791 0
M  V30 1080 H 101.035 0.538478 1.33553 0
M  V30 1081 H 102.988 -0.922674 4.11175 0
M  V30 1082 H 101.712 -1.38445 2.95805 0
M  V30 1083 H 100.371 0.646427 3.60856 0
M  V30 1084 H 100.019 -1.52842 4.79216 0
M  V30 1085 H 99.7189 -0.145374 5.8742 0
M  V30 1086 H 101.243 -1.06757 6.01195 0
M  V30 1087 H 102.657 1.16849 5.61266 0
M  V30 1088 H 101.054 1.95739 5.6728 0
M  V30 1089 H 102.124 2.25746 4.29147 0
M  V30 1090 N 103.467 -1.45747 0.599634 0
M  V30 1091 C 104.713 -2.02592 0.0918643 0
M  V30 1092 C 105.046 -1.46806 -1.27128 0
M  V30 1093 O 104.321 -0.639658 -1.83681 0
M  V30 1094 C 104.604 -3.60073 0.0443398 0
M  V30 1095 C 104.457 -4.26208 1.43759 0
M  V30 1096 C 105.776 -4.35309 -0.647608 0
M  V30 1097 H 102.895 -0.736175 0.034857 0
M  V30 1098 H 105.537 -1.73694 0.770081 0
M  V30 1099 H 103.687 -3.84823 -0.533224 0
M  V30 1100 H 105.359 -4.12668 2.06162 0
M  V30 1101 H 103.602 -3.84916 2.00056 0
M  V30 1102 H 104.273 -5.35069 1.35665 0
M  V30 1103 H 106.749 -4.15805 -0.156776 0
M  V30 1104 H 105.625 -5.45038 -0.649942 0
M  V30 1105 H 105.886 -4.07598 -1.71219 0
M  V30 1106 N 104.945 -0.338344 -1.53925 0
M  V30 1107 C 106.356 0.146651 -1.86123 0
M  V30 1108 C 106.707 1.5042 -1.2597 0
M  V30 1109 O 105.832 2.08723 -0.571294 0
M  V30 1110 C 106.427 0.272879 -3.37699 0
M  V30 1111 C 104.986 0.702103 -3.69794 0
M  V30 1112 C 104.133 -0.167304 -2.76795 0
M  V30 1113 H 107.084 -0.558123 -1.48562 0
M  V30 1114 H 107.105 1.10128 -3.64214 0
M  V30 1115 H 106.617 -0.715307 -3.81451 0
M  V30 1116 H 104.718 1.6995 -3.31584 0
M  V30 1117 H 104.831 0.495604 -4.7653 0
M  V30 1118 H 103.195 0.359527 -2.5215 0
M  V30 1119 H 103.978 -1.15253 -3.23375 0
M  V30 1120 N 106.423 1.57458 -0.0668435 0
M  V30 1121 C 107.386 2.11323 0.887422 0
M  V30 1122 C 108.386 1.03618 1.22964 0
M  V30 1123 O 109.576 1.29626 1.16373 0
M  V30 1124 C 106.708 2.61048 2.19242 0
M  V30 1125 H 107.901 2.96942 0.420194 0
M  V30 1126 H 105.454 1.55239 0.181793 0
M  V30 1127 H 106.189 1.78868 2.70512 0
M  V30 1128 H 105.974 3.39769 1.95702 0
M  V30 1129 H 107.464 3.02814 2.87565 0
M  V30 1130 N 107.901 -0.206675 1.56239 0
M  V30 1131 C 109.178 -0.954051 1.70755 0
M  V30 1132 C 109.558 -2.01841 0.618353 0
M  V30 1133 O 108.906 -2.25444 -0.372434 0
M  V30 1134 C 109.116 -1.551 3.12642 0
M  V30 1135 C 110.464 -2.03757 3.72516 0
M  V30 1136 O 111.488 -1.64965 3.15698 0
M  V30 1137 O 110.347 -2.75103 4.72208 0
M  V30 1138 H 107.441 -0.446636 0.696021 0
M  V30 1139 H 109.987 -0.197283 1.68549 0
M  V30 1140 H 108.759 -0.783212 3.83382 0
M  V30 1141 H 108.382 -2.37291 3.19028 0
M  V30 1142 N 109.379 -1.50304 -0.473955 0
M  V30 1143 C 110.311 -1.65109 -1.58971 0
M  V30 1144 C 111.324 -0.532676 -1.53839 0
M  V30 1145 O 112.513 -0.805751 -1.59279 0
M  V30 1146 C 109.613 -1.61684 -2.97845 0
M  V30 1147 C 108.786 -2.8951 -3.27876 0
M  V30 1148 C 107.845 -2.78768 -4.4629 0
M  V30 1149 O 106.871 -3.52722 -4.46739 0
M  V30 1150 N 108.073 -1.9213 -5.47783 0
M  V30 1151 H 110.838 -2.61347 -1.46689 0
M  V30 1152 H 108.399 -1.47732 -0.662324 0
M  V30 1153 H 110.391 -1.52114 -3.75024 0
M  V30 1154 H 108.961 -0.731925 -3.03911 0
M  V30 1155 H 108.181 -3.13228 -2.39336 0
M  V30 1156 H 109.469 -3.74199 -3.4475 0
M  V30 1157 H 108.867 -1.31353 -5.50239 0
M  V30 1158 H 107.424 -1.88466 -6.23958 0
M  V30 1159 N 110.857 0.726932 -1.39834 0
M  V30 1160 C 112.103 1.48884 -1.377 0
M  V30 1161 C 112.436 1.94185 0.0244852 0
M  V30 1162 O 111.711 1.67361 0.990986 0
M  V30 1163 C 111.994 2.72288 -2.3565 0
M  V30 1164 C 111.847 2.32956 -3.84775 0
M  V30 1165 C 113.166 3.74414 -2.31306 0
M  V30 1166 H 110.285 0.540062 -0.5015 0
M  V30 1167 H 112.927 0.830547 -1.70886 0
M  V30 1168 H 111.077 3.28457 -2.07481 0
M  V30 1169 H 112.749 1.82356 -4.23726 0
M  V30 1170 H 110.992 1.65088 -4.01159 0
M  V30 1171 H 111.663 3.21362 -4.4881 0
M  V30 1172 H 114.139 3.27849 -2.56231 0
M  V30 1173 H 113.015 4.58414 -3.01907 0
M  V30 1174 H 113.276 4.21909 -1.32081 0
M  V30 1175 N 112.336 1.25143 0.95797 0
M  V30 1176 C 113.284 1.05019 2.07542 0
M  V30 1177 C 114.278 -0.0178751 1.69391 0
M  V30 1178 O 115.484 0.137472 1.79474 0
M  V30 1179 H 111.859 0.32265 0.679265 0
M  V30 1180 H 113.83 1.99759 2.21673 0
M  V30 1181 C 112.579 0.682074 3.40944 0
M  V30 1182 H 111.902 1.49573 3.70767 0
M  V30 1183 H 113.342 0.580945 4.20001 0
M  V30 1184 C 111.801 -0.611608 3.31302 0
M  V30 1185 O 112.331 -1.65465 3.66038 0
M  V30 1186 N 110.537 -0.595982 2.84423 0
M  V30 1187 H 110.084 0.253192 2.56353 0
M  V30 1188 H 110.042 -1.46173 2.78354 0
M  V30 1189 N 113.814 -1.1601 1.06675 0
M  V30 1190 C 115.063 -1.85973 0.780818 0
M  V30 1191 C 115.376 -1.82819 -0.695444 0
M  V30 1192 O 116.582 -2.484 -1.09589 0
M  V30 1193 C 115.038 -3.33757 1.34665 0
M  V30 1194 C 114.646 -3.45374 2.85343 0
M  V30 1195 C 116.39 -4.0895 1.13843 0
M  V30 1196 C 114.297 -4.87266 3.35151 0
M  V30 1197 H 113.227 -0.696661 0.288407 0
M  V30 1198 H 115.878 -1.30903 1.28595 0
M  V30 1199 H 114.26 -3.88456 0.769274 0
M  V30 1200 H 115.434 -3.00816 3.49065 0
M  V30 1201 H 113.749 -2.83619 3.04876 0
M  V30 1202 H 116.346 -5.13654 1.4854 0
M  V30 1203 H 116.689 -4.16229 0.0770282 0
M  V30 1204 H 117.222 -3.605 1.68179 0
M  V30 1205 H 113.961 -4.85168 4.40786 0
M  V30 1206 H 113.481 -5.32433 2.76179 0
M  V30 1207 H 115.16 -5.56097 3.30704 0
M  V30 1208 N 115.292 -0.849877 -1.32721 0
M  V30 1209 C 116.52 -0.464754 -2.01613 0
M  V30 1210 C 116.935 0.937191 -1.63897 0
M  V30 1211 O 116.292 1.61081 -0.857856 0
M  V30 1212 C 116.343 -0.588638 -3.56675 0
M  V30 1213 O 116.064 -1.93535 -3.93034 0
M  V30 1214 C 117.565 -0.2019 -4.4284 0
M  V30 1215 H 114.785 -0.183215 -0.645502 0
M  V30 1216 H 117.329 -1.1455 -1.69407 0
M  V30 1217 H 115.484 0.0443159 -3.87375 0
M  V30 1218 H 115.898 -1.92871 -4.87751 0
M  V30 1219 H 117.372 -0.339599 -5.50954 0
M  V30 1220 H 117.849 0.857224 -4.30753 0
M  V30 1221 H 118.455 -0.809733 -4.17521 0
M  V30 1222 N 116.77 1.45427 -0.607355 0
M  V30 1223 C 117.68 2.34325 0.113463 0
M  V30 1224 C 118.696 1.51226 0.860617 0
M  V30 1225 O 119.872 1.84029 0.818255 0
M  V30 1226 C 116.937 3.28839 1.09844 0
M  V30 1227 C 115.998 4.27844 0.353271 0
M  V30 1228 C 115.231 5.17842 1.29133 0
M  V30 1229 O 115.454 5.11264 2.52913 0
M  V30 1230 O 114.388 5.96713 0.788523 0
M  V30 1231 H 118.214 2.97364 -0.617094 0
M  V30 1232 H 115.799 1.44807 -0.367619 0
M  V30 1233 H 117.681 3.8708 1.66575 0
M  V30 1234 H 116.356 2.68365 1.81003 0
M  V30 1235 H 115.263 3.7322 -0.256494 0
M  V30 1236 H 116.596 4.91173 -0.317822 0
M  V30 1237 N 118.248 0.346503 1.53744 0
M  V30 1238 C 119.495 -0.249104 2.00962 0
M  V30 1239 C 119.823 -1.5032 1.23426 0
M  V30 1240 O 119.078 -1.93217 0.310761 0
M  V30 1241 C 119.377 -0.605809 3.52228 0
M  V30 1242 C 119.043 0.551747 4.47512 0
M  V30 1243 C 117.705 0.86941 4.73281 0
M  V30 1244 C 120.057 1.32818 5.03993 0
M  V30 1245 C 117.385 1.96582 5.52786 0
M  V30 1246 C 119.737 2.41486 5.84694 0
M  V30 1247 C 118.401 2.73808 6.08757 0
M  V30 1248 H 117.671 -0.0911538 0.735372 0
M  V30 1249 H 120.318 0.475027 1.85515 0
M  V30 1250 H 118.623 -1.4107 3.65522 0
M  V30 1251 H 120.32 -1.07858 3.86222 0
M  V30 1252 H 116.91 0.294102 4.2759 0
M  V30 1253 H 121.094 1.09602 4.84047 0
M  V30 1254 H 116.35 2.22045 5.69654 0
M  V30 1255 H 120.524 3.02078 6.27473 0
M  V30 1256 H 118.151 3.58892 6.7015 0
M  V30 1257 N 119.726 -1.57421 0.075193 0
M  V30 1258 C 120.956 -1.97659 -0.601203 0
M  V30 1259 C 121.364 -0.952427 -1.63479 0
M  V30 1260 O 120.707 0.0688241 -1.83571 0
M  V30 1261 C 120.769 -3.34218 -1.32434 0
M  V30 1262 C 120.433 -4.5484 -0.443826 0
M  V30 1263 C 121.43 -5.19034 0.299969 0
M  V30 1264 C 119.115 -5.00952 -0.367709 0
M  V30 1265 C 121.109 -6.27695 1.10807 0
M  V30 1266 C 118.796 -6.09484 0.444058 0
M  V30 1267 C 119.794 -6.72719 1.18061 0
M  V30 1268 O 119.482 -7.79161 1.97898 0
M  V30 1269 H 119.214 -0.65494 -0.167422 0
M  V30 1270 H 121.768 -2.04886 0.145157 0
M  V30 1271 H 119.998 -3.23615 -2.11685 0
M  V30 1272 H 121.687 -3.59038 -1.89331 0
M  V30 1273 H 122.453 -4.84351 0.250776 0
M  V30 1274 H 118.332 -4.51509 -0.930638 0
M  V30 1275 H 121.876 -6.76982 1.68347 0
M  V30 1276 H 117.773 -6.43601 0.494803 0
M  V30 1277 H 118.541 -7.96055 1.90367 0
M  V30 1278 N 121.204 0.198386 -1.56346 0
M  V30 1279 C 122.152 1.26538 -1.95169 0
M  V30 1280 C 123.146 1.47295 -0.836685 0
M  V30 1281 O 124.352 1.48195 -1.02167 0
M  V30 1282 H 120.727 0.424744 -0.620561 0
M  V30 1283 H 122.698 0.910904 -2.84157 0
M  V30 1284 C 121.447 2.6035 -2.30463 0
M  V30 1285 H 120.77 2.45192 -3.15786 0
M  V30 1286 H 122.21 3.33762 -2.61494 0
M  V30 1287 C 120.669 3.17096 -1.13806 0
M  V30 1288 O 121.199 3.99588 -0.41135 0
M  V30 1289 N 119.405 2.75795 -0.915736 0
M  V30 1290 H 118.952 2.08816 -1.50843 0
M  V30 1291 H 118.91 3.14101 -0.136979 0
M  V30 1292 N 122.682 1.50554 0.465978 0
M  V30 1293 C 123.629 1.6979 1.56333 0
M  V30 1294 C 124.599 0.539239 1.57103 0
M  V30 1295 O 125.784 0.770401 1.74555 0
M  V30 1296 C 122.924 1.80273 2.94271 0
M  V30 1297 C 122.037 3.07674 3.0325 0
M  V30 1298 C 121.172 3.08922 4.32135 0
M  V30 1299 C 120.211 4.30755 4.34875 0
M  V30 1300 N 119.348 4.29714 5.55239 0
M  V30 1301 H 124.188 2.63472 1.39235 0
M  V30 1302 H 121.725 1.30602 0.676873 0
M  V30 1303 H 123.683 1.84332 3.74269 0
M  V30 1304 H 122.313 0.900258 3.09992 0
M  V30 1305 H 121.365 3.13062 2.16094 0
M  V30 1306 H 122.677 3.97642 3.01135 0
M  V30 1307 H 121.831 3.11738 5.20485 0
M  V30 1308 H 120.57 2.16792 4.36866 0
M  V30 1309 H 119.575 4.28146 3.44922 0
M  V30 1310 H 120.8 5.24117 4.31831 0
M  V30 1311 H 118.746 3.4044 5.60746 0
M  V30 1312 H 118.663 5.13456 5.54886 0
M  V30 1313 H 119.931 4.36683 6.457 0
M  V30 1314 N 124.16 -0.719506 1.40217 0
M  V30 1315 C 125.385 -1.51371 1.4178 0
M  V30 1316 C 125.81 -1.88091 0.0182355 0
M  V30 1317 O 125.168 -1.52997 -0.972707 0
M  V30 1318 C 125.216 -2.768 2.31115 0
M  V30 1319 O 124.32 -3.73349 1.7517 0
M  V30 1320 H 123.661 -0.456529 0.482159 0
M  V30 1321 H 126.191 -0.88644 1.844 0
M  V30 1322 H 126.201 -3.25371 2.46167 0
M  V30 1323 H 124.876 -2.49407 3.3282 0
M  V30 1324 H 123.453 -3.32179 1.69444 0
M  V30 1325 N 125.638 -1.25649 -0.95132 0
M  V30 1326 C 126.568 -1.08808 -2.06599 0
M  V30 1327 C 127.549 0.00382547 -1.701 0
M  V30 1328 O 128.734 -0.166325 -1.93486 0
M  V30 1329 C 125.864 -0.709542 -3.39975 0
M  V30 1330 C 124.818 -1.75206 -3.90496 0
M  V30 1331 C 124.144 -1.22811 -5.20405 0
M  V30 1332 C 125.444 -3.15153 -4.16504 0
M  V30 1333 H 127.138 -2.02048 -2.20946 0
M  V30 1334 H 124.684 -0.972835 -1.06169 0
M  V30 1335 H 126.637 -0.578649 -4.17408 0
M  V30 1336 H 125.361 0.258556 -3.25575 0
M  V30 1337 H 124.02 -1.87145 -3.15234 0
M  V30 1338 H 123.668 -0.250145 -5.02378 0
M  V30 1339 H 123.368 -1.92492 -5.55176 0
M  V30 1340 H 124.892 -1.10968 -6.00432 0
M  V30 1341 H 126.306 -3.06349 -4.84586 0
M  V30 1342 H 124.703 -3.82333 -4.62538 0
M  V30 1343 H 125.773 -3.61966 -3.22658 0
M  V30 1344 N 127.117 1.15442 -1.07289 0
M  V30 1345 C 128.342 1.90638 -0.816828 0
M  V30 1346 C 128.767 1.77445 0.624083 0
M  V30 1347 O 128.125 1.10671 1.43602 0
M  V30 1348 C 128.173 3.39008 -1.22906 0
M  V30 1349 O 127.277 4.10701 -0.373975 0
M  V30 1350 H 126.618 0.593555 -0.297638 0
M  V30 1351 H 129.148 1.46198 -1.43134 0
M  V30 1352 H 129.158 3.89801 -1.20497 0
M  V30 1353 H 127.833 3.47929 -2.27856 0
M  V30 1354 H 126.41 3.70046 -0.460499 0
M  V30 1355 N 128.595 0.856903 1.32268 0
M  V30 1356 C 129.82 0.474569 2.01897 0
M  V30 1357 C 130.245 -0.921766 1.63967 0
M  V30 1358 O 129.603 -1.60589 0.84148 0
M  V30 1359 C 129.651 0.623799 3.55164 0
M  V30 1360 O 128.755 -0.342459 4.10976 0
M  V30 1361 H 128.096 0.190422 0.63611 0
M  V30 1362 H 130.626 1.15672 1.68764 0
M  V30 1363 H 130.636 0.512169 4.04773 0
M  V30 1364 H 129.311 1.64202 3.82113 0
M  V30 1365 H 127.888 -0.18688 3.72431 0
M  V30 1366 N 130.073 -1.45103 0.615059 0
M  V30 1367 C 131.32 -2.02183 0.113179 0
M  V30 1368 C 131.648 -1.48249 -1.25906 0
M  V30 1369 O 130.903 -0.650265 -1.84581 0
M  V30 1370 C 131.202 -3.57386 0.0318797 0
M  V30 1371 C 130.868 -4.30505 1.34077 0
M  V30 1372 C 129.53 -4.50197 1.69929 0
M  V30 1373 C 131.882 -4.72238 2.20546 0
M  V30 1374 C 129.21 -5.08881 2.91988 0
M  V30 1375 C 131.562 -5.32272 3.41861 0
M  V30 1376 C 130.226 -5.50187 3.77956 0
M  V30 1377 H 129.496 -0.739842 0.0414151 0
M  V30 1378 H 132.143 -1.74073 0.798168 0
M  V30 1379 H 130.448 -3.84817 -0.736409 0
M  V30 1380 H 132.145 -3.99264 -0.372712 0
M  V30 1381 H 128.735 -4.15496 1.05173 0
M  V30 1382 H 132.919 -4.56751 1.94146 0
M  V30 1383 H 128.175 -5.20939 3.2005 0
M  V30 1384 H 132.349 -5.63563 4.09109 0
M  V30 1385 H 129.976 -5.95427 4.72622 0
M  V30 1386 N 131.551 -0.354651 -1.53558 0
M  V30 1387 C 132.498 0.496968 -2.25386 0
M  V30 1388 C 133.468 1.0865 -1.25636 0
M  V30 1389 O 134.653 1.12104 -1.54394 0
M  V30 1390 C 131.793 1.63637 -3.03837 0
M  V30 1391 C 130.906 1.07307 -4.18461 0
M  V30 1392 C 130.041 2.18068 -4.84376 0
M  V30 1393 C 129.08 1.59147 -5.91049 0
M  V30 1394 N 128.217 2.63695 -6.50699 0
M  V30 1395 H 133.057 -0.122075 -2.9775 0
M  V30 1396 H 130.594 -0.0720154 -1.46924 0
M  V30 1397 H 132.552 2.30734 -3.47589 0
M  V30 1398 H 131.182 2.22623 -2.33749 0
M  V30 1399 H 130.234 0.292708 -3.79272 0
M  V30 1400 H 131.546 0.602193 -4.95152 0
M  V30 1401 H 130.7 2.93007 -5.31255 0
M  V30 1402 H 129.439 2.68504 -4.07133 0
M  V30 1403 H 128.444 0.827175 -5.43542 0
M  V30 1404 H 129.669 1.09549 -6.70206 0
M  V30 1405 H 127.615 3.13365 -5.76315 0
M  V30 1406 H 127.532 2.21263 -7.22896 0
M  V30 1407 H 128.8 3.3837 -7.02229 0
M  V30 1408 N 133.029 1.57378 -0.0835403 0
M  V30 1409 C 133.939 2.16897 0.894021 0
M  V30 1410 C 134.955 1.13528 1.31861 0
M  V30 1411 O 136.131 1.45848 1.3889 0
M  V30 1412 C 133.196 2.72831 2.13925 0
M  V30 1413 C 132.257 3.91115 1.76997 0
M  V30 1414 C 131.49 4.44371 2.95584 0
M  V30 1415 O 131.713 3.96596 4.09961 0
M  V30 1416 O 130.647 5.35549 2.74719 0
M  V30 1417 H 134.473 3.00814 0.417679 0
M  V30 1418 H 132.058 1.48741 0.140181 0
M  V30 1419 H 133.94 3.0863 2.86924 0
M  V30 1420 H 132.615 1.91967 2.60635 0
M  V30 1421 H 131.522 3.60148 1.01214 0
M  V30 1422 H 132.855 4.73307 1.3506 0
M  V30 1423 N 134.507 -0.190092 1.56449 0
M  V30 1424 C 135.455 -1.25501 1.95837 0
M  V30 1425 C 136.449 -1.4685 0.844485 0
M  V30 1426 O 137.655 -1.47651 1.02952 0
M  V30 1427 H 134.03 -0.421447 0.622805 0
M  V30 1428 H 136.001 -0.895821 2.84636 0
M  V30 1429 C 134.75 -2.59124 2.31841 0
M  V30 1430 H 134.073 -2.43514 3.17082 0
M  V30 1431 H 135.513 -3.32371 2.6326 0
M  V30 1432 C 133.972 -3.16488 1.15486 0
M  V30 1433 O 134.502 -3.99365 0.432535 0
M  V30 1434 N 132.708 -2.75305 0.930349 0
M  V30 1435 H 132.255 -2.08013 1.51948 0
M  V30 1436 H 132.213 -3.14024 0.153634 0
M  V30 1437 N 135.985 -1.50799 -0.457987 0
M  V30 1438 C 136.895 -1.73426 -1.57989 0
M  V30 1439 C 137.911 -0.617745 -1.62665 0
M  V30 1440 O 139.087 -0.897614 -1.80291 0
M  V30 1441 C 136.152 -1.83557 -2.94122 0
M  V30 1442 C 135.213 -3.07345 -2.99729 0
M  V30 1443 C 134.446 -3.16983 -4.29368 0
M  V30 1444 O 134.669 -2.33077 -5.20607 0
M  V30 1445 O 133.603 -4.09812 -4.40837 0
M  V30 1446 H 137.429 -2.68555 -1.41817 0
M  V30 1447 H 135.014 -1.35052 -0.638859 0
M  V30 1448 H 136.896 -1.92326 -3.74952 0
M  V30 1449 H 135.571 -0.916137 -3.10465 0
M  V30 1450 H 134.478 -3.04068 -2.1793 0
M  V30 1451 H 135.811 -3.9891 -2.88326 0
M  V30 1452 N 137.463 0.71206 -1.40597 0
M  V30 1453 C 138.373 1.8562 -1.43466 0
M  V30 1454 C 139.389 1.70902 -0.326902 0
M  V30 1455 O 140.565 1.93105 -0.572043 0
M  V30 1456 C 137.63 3.21451 -1.29884 0
M  V30 1457 C 136.691 3.48398 -2.50833 0
M  V30 1458 C 135.924 4.77749 -2.3789 0
M  V30 1459 O 136.147 5.53089 -1.39459 0
M  V30 1460 O 135.081 5.05111 -3.27333 0
M  V30 1461 H 138.907 1.86155 -2.39958 0
M  V30 1462 H 136.492 0.86295 -1.21957 0
M  V30 1463 H 138.374 4.02579 -1.24531 0
M  V30 1464 H 137.049 3.21636 -0.364997 0
M  V30 1465 H 135.956 2.67265 -2.61763 0
M  V30 1466 H 137.289 3.53014 -3.4299 0
M  V30 1467 N 138.941 1.26152 0.944643 0
M  V30 1468 C 139.889 1.07215 2.06417 0
M  V30 1469 C 140.883 9.2007e-05 1.694 0
M  V30 1470 O 142.089 0.1565 1.79318 0
M  V30 1471 H 138.464 0.329837 0.675805 0
M  V30 1472 H 140.435 2.02099 2.19541 0
M  V30 1473 C 139.184 0.718197 3.40202 0
M  V30 1474 H 138.507 1.53497 3.69159 0
M  V30 1475 H 139.947 0.625459 4.19361 0
M  V30 1476 C 138.406 -0.576435 3.31932 0
M  V30 1477 O 138.936 -1.61574 3.67773 0
M  V30 1478 N 137.142 -0.565781 2.85039 0
M  V30 1479 H 136.689 0.280367 2.5607 0
M  V30 1480 H 136.647 -1.43213 2.79888 0
M  V30 1481 N 140.419 -1.14872 1.07899 0
M  V30 1482 C 141.668 -1.85135 0.800499 0
M  V30 1483 C 141.981 -1.83547 -0.676014 0
M  V30 1484 O 143.187 -2.49548 -1.06948 0
M  V30 1485 C 141.643 -3.3231 1.38197 0
M  V30 1486 C 141.251 -3.42329 2.8899 0
M  V30 1487 C 142.995 -4.0772 1.18174 0
M  V30 1488 C 140.902 -4.83684 3.403 0
M  V30 1489 H 139.832 -0.693563 0.29578 0
M  V30 1490 H 142.483 -1.29532 1.29976 0
M  V30 1491 H 140.865 -3.87618 0.810431 0
M  V30 1492 H 142.039 -2.97097 3.52236 0
M  V30 1493 H 140.354 -2.80369 3.07867 0
M  V30 1494 H 142.951 -5.12049 1.5398 0
M  V30 1495 H 143.294 -4.16124 0.12117 0
M  V30 1496 H 143.827 -3.58696 1.71994 0
M  V30 1497 H 140.566 -4.80465 4.45907 0
M  V30 1498 H 140.086 -5.29474 2.81811 0
M  V30 1499 H 141.765 -5.52558 3.36584 0
M  V30 1500 N 141.898 -0.863906 -1.31812 0
M  V30 1501 C 142.83 -0.272485 -2.27575 0
M  V30 1502 C 143.843 0.56104 -1.52827 0
M  V30 1503 O 145.032 0.384021 -1.7432 0
M  V30 1504 C 142.132 0.63283 -3.32939 0
M  V30 1505 C 141.305 -0.166902 -4.37081 0
M  V30 1506 C 140.364 0.665608 -5.21973 0
M  V30 1507 O 139.39 0.0958091 -5.69119 0
M  V30 1508 N 140.592 1.9787 -5.45736 0
M  V30 1509 H 143.357 -1.0954 -2.78964 0
M  V30 1510 H 140.918 -0.724791 -1.4477 0
M  V30 1511 H 142.91 1.19532 -3.86645 0
M  V30 1512 H 141.48 1.35642 -2.81638 0
M  V30 1513 H 140.7 -0.910838 -3.83533 0
M  V30 1514 H 141.988 -0.715874 -5.03739 0
M  V30 1515 H 141.386 2.46484 -5.09178 0
M  V30 1516 H 139.943 2.48911 -6.024 0
M  V30 1517 N 143.376 1.44774 -0.622745 0
M  V30 1518 C 144.616 2.04004 -0.127102 0
M  V30 1519 C 144.98 1.47862 1.22478 0
M  V30 1520 O 146.181 1.98541 1.81204 0
M  V30 1521 C 144.452 3.57247 -0.104429 0
M  V30 1522 S 146.011 4.37574 0.327814 0
M  V30 1523 H 142.829 0.708713 -0.0569776 0
M  V30 1524 H 145.431 1.77275 -0.824253 0
M  V30 1525 H 144.135 3.95616 -1.09159 0
M  V30 1526 H 143.666 3.88575 0.614236 0
M  V30 1527 H 145.681 4.70575 1.57395 0
M  V30 1528 N 144.854 0.36279 1.53368 0
M  V30 1529 C 146.102 -0.227326 2.00817 0
M  V30 1530 C 146.423 -1.49511 1.25186 0
M  V30 1531 O 145.693 -1.92482 0.364348 0
M  V30 1532 H 144.273 -0.0869923 0.741917 0
M  V30 1533 H 146.935 0.488381 1.88682 0
M  V30 1534 H 146.031 -0.456273 3.08747 0
M  V30 1535 N 146.332 -1.57332 0.0918853 0
M  V30 1536 C 147.242 -2.17368 -0.882505 0
M  V30 1537 C 148.258 -1.14226 -1.31257 0
M  V30 1538 O 149.434 -1.46582 -1.38115 0
M  V30 1539 C 146.499 -2.73962 -2.12476 0
M  V30 1540 C 145.56 -3.92048 -1.7492 0
M  V30 1541 C 144.793 -4.45933 -2.93223 0
M  V30 1542 O 145.016 -3.98764 -4.07852 0
M  V30 1543 O 143.95 -5.36999 -2.71875 0
M  V30 1544 H 147.776 -3.01031 -0.40172 0
M  V30 1545 H 145.361 -1.48813 -0.132291 0
M  V30 1546 H 147.243 -3.10147 -2.85283 0
M  V30 1547 H 145.918 -1.93347 -2.59613 0
M  V30 1548 H 144.825 -3.6068 -0.993025 0
M  V30 1549 H 146.158 -4.74017 -1.32548 0
M  V30 1550 N 147.81 0.181792 -1.56548 0
M  V30 1551 C 148.758 1.24461 -1.965 0
M  V30 1552 C 149.752 1.464 -0.852261 0
M  V30 1553 O 150.958 1.47103 -1.03733 0
M  V30 1554 H 147.333 0.418138 -0.625031 0
M  V30 1555 H 149.304 0.880714 -2.85107 0
M  V30 1556 C 148.053 2.57891 -2.33212 0
M  V30 1557 H 147.376 2.41829 -3.18369 0
M  V30 1558 H 148.816 3.3097 -2.65019 0
M  V30 1559 C 147.275 3.15871 -1.17163 0
M  V30 1560 O 147.805 3.9913 -0.453708 0
M  V30 1561 N 146.011 2.74808 -0.944936 0
M  V30 1562 H 145.558 2.07205 -1.53049 0
M  V30 1563 H 145.516 3.13939 -0.170286 0
M  V30 1564 N 149.288 1.51039 0.449983 0
M  V30 1565 C 150.535 1.63081 1.20045 0
M  V30 1566 C 150.863 0.341024 1.91487 0
M  V30 1567 O 150.118 -0.674276 1.83717 0
M  V30 1568 C 150.417 2.77556 2.25161 0
M  V30 1569 C 150.083 4.17289 1.70823 0
M  V30 1570 C 148.745 4.55305 1.55725 0
M  V30 1571 C 151.097 5.04536 1.3074 0
M  V30 1572 C 148.425 5.78287 0.989999 0
M  V30 1573 C 150.777 6.28085 0.754482 0
M  V30 1574 C 149.441 6.64885 0.590308 0
M  V30 1575 H 148.711 0.596755 0.439277 0
M  V30 1576 H 151.358 1.85037 0.49333 0
M  V30 1577 H 149.663 2.49771 3.01863 0
M  V30 1578 H 151.36 2.84073 2.83026 0
M  V30 1579 H 147.95 3.8731 1.83546 0
M  V30 1580 H 152.134 4.75782 1.41229 0
M  V30 1581 H 147.39 6.05456 0.850451 0
M  V30 1582 H 151.564 6.95038 0.435324 0
M  V30 1583 H 149.191 7.60055 0.14862 0
M  V30 1584 N 150.766 -0.704594 1.40972 0
M  V30 1585 C 151.699 -1.82861 1.36518 0
M  V30 1586 C 152.677 -1.6091 0.23382 0
M  V30 1587 O 153.861 -1.83778 0.419271 0
M  V30 1588 C 150.988 -3.1939 1.12729 0
M  V30 1589 C 150.034 -3.60148 2.28463 0
M  V30 1590 S 150.867 -3.65994 3.90907 0
M  V30 1591 C 152.023 -5.05264 3.69403 0
M  V30 1592 H 152.256 -1.86361 2.3164 0
M  V30 1593 H 149.789 -0.872439 1.27389 0
M  V30 1594 H 151.747 -3.98211 0.996893 0
M  V30 1595 H 150.408 -3.1351 0.192427 0
M  V30 1596 H 149.601 -4.59309 2.07489 0
M  V30 1597 H 149.203 -2.88612 2.37863 0
M  V30 1598 H 151.495 -5.92504 3.28551 0
M  V30 1599 H 152.438 -5.31278 4.68134 0
M  V30 1600 H 152.846 -4.76377 3.02862 0
M  V30 1601 N 152.244 -1.26651 -0.937939 0
M  V30 1602 C 153.521 -1.0313 -1.66204 0
M  V30 1603 C 153.901 0.437256 -2.06522 0
M  V30 1604 O 153.249 1.41831 -1.79154 0
M  V30 1605 C 153.459 -1.98314 -2.87181 0
M  V30 1606 C 154.807 -2.27107 -3.58758 0
M  V30 1607 O 155.831 -1.96205 -2.97291 0
M  V30 1608 O 154.69 -2.79736 -4.69479 0
M  V30 1609 H 151.784 -0.392384 -0.727986 0
M  V30 1610 H 154.33 -1.37874 -0.989382 0
M  V30 1611 H 153.102 -2.97399 -2.54302 0
M  V30 1612 H 152.725 -1.64068 -3.6217 0
M  V30 1613 N 153.722 1.14298 -1.08507 0
M  V30 1614 C 154.971 1.84708 -0.810305 0
M  V30 1615 C 155.284 1.83903 0.666271 0
M  V30 1616 O 156.49 2.50112 1.05624 0
M  V30 1617 C 154.946 3.31572 -1.39957 0
M  V30 1618 C 154.554 3.40791 -2.90801 0
M  V30 1619 C 156.298 4.07087 -1.20334 0
M  V30 1620 C 154.205 4.81872 -3.4286 0
M  V30 1621 H 153.135 0.691985 -0.299454 0
M  V30 1622 H 155.786 1.28841 -1.30661 0
M  V30 1623 H 154.168 3.87183 -0.830976 0
M  V30 1624 H 155.342 2.95225 -3.53806 0
M  V30 1625 H 153.657 2.78732 -3.0935 0
M  V30 1626 H 156.254 5.11225 -1.56693 0
M  V30 1627 H 156.597 4.16054 -0.143237 0
M  V30 1628 H 157.13 3.57779 -1.73893 0
M  V30 1629 H 153.869 4.78094 -4.48449 0
M  V30 1630 H 153.389 5.27972 -2.84615 0
M  V30 1631 H 155.068 5.50765 -3.39509 0
M  V30 1632 N 155.201 0.870884 1.31352 0
M  V30 1633 C 156.111 0.330783 2.32256 0
M  V30 1634 C 157.127 -0.559767 1.6475 0
M  V30 1635 O 158.303 -0.456263 1.96164 0
M  V30 1636 C 155.368 -0.458137 3.4366 0
M  V30 1637 C 154.429 0.460482 4.26823 0
M  V30 1638 C 153.662 -0.290881 5.32907 0
M  V30 1639 O 153.885 -1.51885 5.49806 0
M  V30 1640 O 152.819 0.351732 6.00871 0
M  V30 1641 H 156.645 1.16718 2.80376 0
M  V30 1642 H 154.23 0.634285 1.35267 0
M  V30 1643 H 156.112 -0.905343 4.1156 0
M  V30 1644 H 154.787 -1.27106 2.97701 0
M  V30 1645 H 153.694 0.956207 3.61673 0
M  V30 1646 H 155.027 1.23903 4.7635 0
M  V30 1647 N 156.679 -1.44442 0.630414 0
M  V30 1648 C 157.919 -2.03934 0.137919 0
M  V30 1649 C 158.283 -1.48509 -1.21692 0
M  V30 1650 O 159.484 -1.99499 -1.80149 0
M  V30 1651 C 157.755 -3.57187 0.123373 0
M  V30 1652 S 159.314 -4.37741 -0.304604 0
M  V30 1653 H 156.132 -0.708401 0.0607353 0
M  V30 1654 H 158.734 -1.76835 0.833643 0
M  V30 1655 H 157.438 -3.95032 1.11256 0
M  V30 1656 H 156.969 -3.88895 -0.59362 0
M  V30 1657 H 158.984 -4.71403 -1.54897 0
M  V30 1658 N 158.157 -0.370918 -1.53173 0
M  V30 1659 C 159.404 0.217102 -2.01333 0
M  V30 1660 C 159.732 1.48338 -1.25802 0
M  V30 1661 O 158.987 1.92698 -0.34146 0
M  V30 1662 C 159.286 0.549696 -3.53147 0
M  V30 1663 C 158.952 -0.622872 -4.46577 0
M  V30 1664 C 157.614 -0.944595 -4.71838 0
M  V30 1665 C 159.966 -1.40819 -5.01816 0
M  V30 1666 C 157.294 -2.05351 -5.49589 0
M  V30 1667 C 159.646 -2.50757 -5.80778 0
M  V30 1668 C 158.31 -2.83458 -6.04324 0
M  V30 1669 H 157.58 0.0794431 -0.736729 0
M  V30 1670 H 160.227 -0.504481 -1.84736 0
M  V30 1671 H 158.532 1.35237 -3.6772 0
M  V30 1672 H 160.229 1.017 -3.87889 0
M  V30 1673 H 156.819 -0.36209 -4.27068 0
M  V30 1674 H 161.003 -1.17289 -4.82242 0
M  V30 1675 H 156.259 -2.3108 -5.6605 0
M  V30 1676 H 160.433 -3.12022 -6.22588 0
M  V30 1677 H 158.06 -3.69508 -6.64355 0
M  V30 1678 N 159.635 1.57281 -0.100228 0
M  V30 1679 C 160.568 2.09976 0.893612 0
M  V30 1680 C 161.546 1.01155 1.27304 0
M  V30 1681 O 162.73 1.28687 1.37739 0
M  V30 1682 C 159.857 2.58098 2.19324 0
M  V30 1683 C 158.903 3.78626 1.96328 0
M  V30 1684 S 159.736 5.21959 1.19662 0
M  V30 1685 C 160.892 5.73435 2.50844 0
M  V30 1686 H 161.125 2.93946 0.44534 0
M  V30 1687 H 158.658 1.53985 0.113167 0
M  V30 1688 H 160.616 2.8648 2.94005 0
M  V30 1689 H 159.277 1.74344 2.61272 0
M  V30 1690 H 158.47 4.10382 2.92579 0
M  V30 1691 H 158.072 3.50763 1.29775 0
M  V30 1692 H 160.364 5.82015 3.46792 0
M  V30 1693 H 161.307 6.7185 2.23659 0
M  V30 1694 H 161.715 5.01395 2.59352 0
M  V30 1695 N 161.113 -0.173488 1.56642 0
M  V30 1696 C 162.359 -0.891784 1.8214 0
M  V30 1697 C 162.692 -1.8199 0.677736 0
M  V30 1698 O 161.967 -1.91842 -0.320446 0
M  V30 1699 C 162.25 -1.68933 3.18015 0
M  V30 1700 C 162.103 -0.784487 4.42906 0
M  V30 1701 C 163.422 -2.65748 3.50808 0
M  V30 1702 H 160.541 -0.322761 0.662567 0
M  V30 1703 H 163.183 -0.158095 1.89341 0
M  V30 1704 H 161.333 -2.31482 3.12007 0
M  V30 1705 H 163.005 -0.172046 4.60979 0
M  V30 1706 H 161.248 -0.0924117 4.33702 0
M  V30 1707 H 161.919 -1.37799 5.34524 0
M  V30 1708 H 164.395 -2.13327 3.57255 0
M  V30 1709 H 163.271 -3.18619 4.4696 0
M  V30 1710 H 163.532 -3.45842 2.75401 0
M  V30 1711 N 162.591 -1.51276 -0.441967 0
M  V30 1712 C 163.521 -1.752 -1.54361 0
M  V30 1713 C 164.502 -0.601682 -1.59103 0
M  V30 1714 O 165.687 -0.843913 -1.74905 0
M  V30 1715 C 162.817 -1.87282 -2.92477 0
M  V30 1716 C 161.771 -3.02687 -3.02596 0
M  V30 1717 C 161.097 -2.99947 -4.42647 0
M  V30 1718 C 162.397 -4.4273 -2.77106 0
M  V30 1719 H 164.091 -2.67442 -1.34592 0
M  V30 1720 H 161.637 -1.28694 -0.646048 0
M  V30 1721 H 163.59 -2.02602 -3.695 0
M  V30 1722 H 162.314 -0.916844 -3.13467 0
M  V30 1723 H 160.973 -2.87065 -2.28012 0
M  V30 1724 H 160.621 -2.02136 -4.60597 0
M  V30 1725 H 160.321 -3.77439 -4.50348 0
M  V30 1726 H 161.845 -3.17354 -5.2165 0
M  V30 1727 H 163.259 -4.58727 -3.43864 0
M  V30 1728 H 161.656 -5.21893 -2.96222 0
M  V30 1729 H 162.726 -4.53087 -1.72744 0
M  V30 1730 N 164.069 0.697108 -1.41344 0
M  V30 1731 C 165.017 1.83237 -1.43272 0
M  V30 1732 C 166.011 1.66522 -0.310947 0
M  V30 1733 O 167.217 1.73402 -0.482899 0
M  V30 1734 H 163.592 0.603802 -0.448249 0
M  V30 1735 H 165.563 1.78727 -2.38954 0
M  V30 1736 C 164.312 3.21245 -1.33029 0
M  V30 1737 H 163.635 3.34723 -2.18633 0
M  V30 1738 H 165.075 4.00763 -1.38439 0
M  V30 1739 C 163.534 3.36873 -0.0424635 0
M  V30 1740 O 164.064 3.91177 0.913421 0
M  V30 1741 N 162.27 2.90581 0.0331145 0
M  V30 1742 H 161.817 2.46577 -0.745506 0
M  V30 1743 H 161.775 3.01416 0.894199 0
M  V30 1744 N 165.547 1.27147 0.931209 0
M  V30 1745 C 166.958 1.12044 1.49342 0
M  V30 1746 C 167.309 -0.295795 1.93957 0
M  V30 1747 O 166.434 -1.18835 1.80852 0
M  V30 1748 C 167.029 2.02781 2.71414 0
M  V30 1749 C 165.588 1.91794 3.2387 0
M  V30 1750 C 164.735 1.95543 1.96617 0
M  V30 1751 H 167.686 1.40091 0.745672 0
M  V30 1752 H 167.707 1.58156 3.46074 0
M  V30 1753 H 167.219 3.05848 2.38911 0
M  V30 1754 H 165.32 0.916992 3.6114 0
M  V30 1755 H 165.433 2.77852 3.90302 0
M  V30 1756 H 163.797 1.39722 2.12955 0
M  V30 1757 H 164.58 3.00259 1.66432 0
M  V30 1758 N 167.025 -1.13721 1.09112 0
M  V30 1759 C 168.25 -1.89314 0.847053 0
M  V30 1760 C 168.675 -1.78416 -0.595774 0
M  V30 1761 O 168.033 -1.12942 -1.41823 0
M  V30 1762 C 168.081 -3.3701 1.28284 0
M  V30 1763 O 167.185 -4.10054 0.439267 0
M  V30 1764 H 166.526 -0.588745 0.307044 0
M  V30 1765 H 169.056 -1.43902 1.45442 0
M  V30 1766 H 169.066 -3.87834 1.26683 0
M  V30 1767 H 167.741 -3.4426 2.33363 0
M  V30 1768 H 166.318 -3.69266 0.519312 0
M  V30 1769 N 168.503 -0.877838 -1.30888 0
M  V30 1770 C 169.435 -0.296607 -2.27273 0
M  V30 1771 C 170.448 0.544799 -1.53414 0
M  V30 1772 O 171.637 0.365511 -1.74718 0
M  V30 1773 C 168.737 0.597481 -3.33592 0
M  V30 1774 C 167.91 -0.213251 -4.3688 0
M  V30 1775 C 166.969 0.610208 -5.2265 0
M  V30 1776 O 165.995 0.035441 -5.69189 0
M  V30 1777 N 167.197 1.92071 -5.47804 0
M  V30 1778 H 169.962 -1.12492 -2.77787 0
M  V30 1779 H 167.523 -0.740105 -1.43993 0
M  V30 1780 H 169.515 1.15425 -3.87891 0
M  V30 1781 H 168.085 1.32647 -2.83061 0
M  V30 1782 H 167.305 -0.951466 -3.82545 0
M  V30 1783 H 168.593 -0.769262 -5.02951 0
M  V30 1784 H 167.991 2.4107 -5.11763 0
M  V30 1785 H 166.548 2.42508 -6.05007 0
M  V30 1786 N 169.982 1.44106 -0.638065 0
M  V30 1787 C 170.914 2.28976 0.101205 0
M  V30 1788 C 171.927 1.4167 0.802088 0
M  V30 1789 O 173.116 1.65755 0.662375 0
M  V30 1790 C 170.216 3.18217 1.16581 0
M  V30 1791 C 169.389 4.33978 0.546066 0
M  V30 1792 C 168.448 5.04202 1.50554 0
M  V30 1793 O 167.474 5.59986 1.01999 0
M  V30 1794 N 168.676 5.06296 2.8398 0
M  V30 1795 H 171.441 2.93064 -0.627186 0
M  V30 1796 H 169.002 1.54629 -0.479731 0
M  V30 1797 H 170.994 3.62061 1.80815 0
M  V30 1798 H 169.564 2.55833 1.79634 0
M  V30 1799 H 168.784 3.93239 -0.275046 0
M  V30 1800 H 170.072 5.08675 0.112793 0
M  V30 1801 H 169.47 4.62319 3.26002 0
M  V30 1802 H 168.027 5.53907 3.43556 0
M  V30 1803 N 171.46 0.379036 1.52974 0
M  V30 1804 C 172.39 -0.452706 2.29069 0
M  V30 1805 C 173.371 -1.07237 1.32039 0
M  V30 1806 O 174.556 -1.08708 1.60923 0
M  V30 1807 C 171.686 -1.5856 3.08992 0
M  V30 1808 C 170.64 -1.0925 4.13822 0
M  V30 1809 C 169.966 -2.31668 4.81907 0
M  V30 1810 C 171.266 -0.167702 5.22031 0
M  V30 1811 H 172.96 0.182181 2.98845 0
M  V30 1812 H 170.506 0.0890592 1.43724 0
M  V30 1813 H 172.459 -2.1742 3.6098 0
M  V30 1814 H 171.183 -2.24792 2.36931 0
M  V30 1815 H 169.842 -0.526494 3.628 0
M  V30 1816 H 169.49 -2.96386 4.06404 0
M  V30 1817 H 169.19 -1.9934 5.52754 0
M  V30 1818 H 170.714 -2.91189 5.36695 0
M  V30 1819 H 172.128 -0.664186 5.6944 0
M  V30 1820 H 170.525 0.0653265 6.00064 0
M  V30 1821 H 171.595 0.786347 4.78482 0
M  V30 1822 N 172.938 -1.57226 0.108567 0
M  V30 1823 C 173.901 -2.13602 -0.831082 0
M  V30 1824 C 174.901 -1.06841 -1.20173 0
M  V30 1825 O 176.091 -1.32666 -1.12895 0
M  V30 1826 C 173.223 -2.66769 -2.12243 0
M  V30 1827 H 174.416 -2.97951 -0.341317 0
M  V30 1828 H 171.969 -1.55667 -0.14057 0
M  V30 1829 H 172.704 -1.85977 -2.65675 0
M  V30 1830 H 172.489 -3.44839 -1.86625 0
M  V30 1831 H 173.979 -3.10332 -2.79435 0
M  V30 1832 N 174.416 0.165178 -1.56732 0
M  V30 1833 C 175.665 0.879143 -1.81532 0
M  V30 1834 C 175.978 1.83144 -0.686842 0
M  V30 1835 O 177.184 2.58823 -0.819944 0
M  V30 1836 C 175.64 1.61388 -3.21686 0
M  V30 1837 C 175.248 0.704904 -4.4242 0
M  V30 1838 C 176.992 2.3157 -3.55774 0
M  V30 1839 C 174.899 1.44022 -5.73595 0
M  V30 1840 H 173.829 0.332033 -0.676957 0
M  V30 1841 H 176.48 0.132008 -1.83025 0
M  V30 1842 H 174.862 2.40599 -3.14529 0
M  V30 1843 H 176.036 -0.0506815 -4.60772 0
M  V30 1844 H 174.351 0.112419 -4.16248 0
M  V30 1845 H 176.948 2.8719 -4.51028 0
M  V30 1846 H 177.291 3.07201 -2.8095 0
M  V30 1847 H 177.824 1.59297 -3.64513 0
M  V30 1848 H 174.563 0.72612 -6.51466 0
M  V30 1849 H 174.083 2.16898 -5.5921 0
M  V30 1850 H 175.762 1.98606 -6.15764 0
M  V30 1851 N 175.894 1.51508 0.433938 0
M  V30 1852 C 176.857 1.72473 1.50949 0
M  V30 1853 C 177.857 0.594725 1.49398 0
M  V30 1854 O 179.047 0.862315 1.5136 0
M  V30 1855 C 176.179 1.78431 2.90474 0
M  V30 1856 H 177.372 2.68467 1.33662 0
M  V30 1857 H 174.925 1.41549 0.662836 0
M  V30 1858 H 175.66 0.842645 3.13161 0
M  V30 1859 H 175.445 2.60558 2.93005 0
M  V30 1860 H 176.935 1.96479 3.68491 0
M  V30 1861 N 177.372 -0.689602 1.41712 0
M  V30 1862 C 178.618 -1.45181 1.41599 0
M  V30 1863 C 178.951 -1.94181 0.0270081 0
M  V30 1864 O 178.226 -1.6993 -0.946265 0
M  V30 1865 C 178.509 -2.65945 2.42787 0
M  V30 1866 C 178.362 -2.22672 3.90816 0
M  V30 1867 C 179.681 -3.68149 2.41151 0
M  V30 1868 H 176.8 -0.526576 0.515642 0
M  V30 1869 H 179.442 -0.784947 1.73028 0
M  V30 1870 H 177.592 -3.2284 2.16116 0
M  V30 1871 H 179.264 -1.71058 4.28412 0
M  V30 1872 H 177.507 -1.54394 4.05395 0
M  V30 1873 H 178.178 -3.0935 4.57172 0
M  V30 1874 H 180.654 -3.2094 2.64834 0
M  V30 1875 H 179.53 -4.50248 3.13955 0
M  V30 1876 H 179.791 -4.18259 1.43221 0
M  V30 1877 N 178.85 -1.27639 -0.924453 0
M  V30 1878 C 179.78 -1.13166 -2.04244 0
M  V30 1879 C 180.761 -0.032256 -1.70069 0
M  V30 1880 O 181.946 -0.207328 -1.9309 0
M  V30 1881 C 179.076 -0.781496 -3.38393 0
M  V30 1882 C 178.03 -1.83449 -3.86692 0
M  V30 1883 C 177.356 -1.33822 -5.17683 0
M  V30 1884 C 178.656 -3.23917 -4.09726 0
M  V30 1885 H 180.35 -2.06689 -2.1661 0
M  V30 1886 H 177.896 -0.995136 -1.04082 0
M  V30 1887 H 179.849 -0.667057 -4.16087 0
M  V30 1888 H 178.573 0.189439 -3.2605 0
M  V30 1889 H 177.232 -1.93789 -3.11193 0
M  V30 1890 H 176.88 -0.35665 -5.01734 0
M  V30 1891 H 176.58 -2.04224 -5.50968 0
M  V30 1892 H 178.104 -1.23679 -5.97943 0
M  V30 1893 H 179.518 -3.16559 -4.77978 0
M  V30 1894 H 177.915 -3.92059 -4.54324 0
M  V30 1895 H 178.985 -3.68729 -3.14908 0
M  V30 1896 N 180.328 1.1314 -1.09713 0
M  V30 1897 C 181.553 1.88862 -0.857081 0
M  V30 1898 C 181.978 1.78729 0.586304 0
M  V30 1899 O 181.336 1.13692 1.41222 0
M  V30 1900 C 181.384 3.36325 -1.30069 0
M  V30 1901 O 180.488 4.09815 -0.461007 0
M  V30 1902 H 179.829 0.587108 -0.310162 0
M  V30 1903 H 182.359 1.43129 -1.46203 0
M  V30 1904 H 182.369 3.87157 -1.28738 0
M  V30 1905 H 181.044 3.43017 -2.35185 0
M  V30 1906 H 179.621 3.68986 -0.538888 0
M  V30 1907 N 181.806 0.884767 1.30421 0
M  V30 1908 C 182.736 0.367574 2.30589 0
M  V30 1909 C 183.717 -0.549464 1.60981 0
M  V30 1910 O 184.902 -0.46336 1.88591 0
M  V30 1911 C 182.032 -0.418944 3.44764 0
M  V30 1912 C 180.986 0.406316 4.26067 0
M  V30 1913 C 180.312 -0.506793 5.32293 0
M  V30 1914 C 181.612 1.64832 4.95608 0
M  V30 1915 H 183.306 1.20462 2.74097 0
M  V30 1916 H 180.852 0.580695 1.31772 0
M  V30 1917 H 182.805 -0.791395 4.13902 0
M  V30 1918 H 181.529 -1.28964 3.0006 0
M  V30 1919 H 180.188 0.760903 3.58617 0
M  V30 1920 H 179.836 -1.37519 4.83836 0
M  V30 1921 H 179.536 0.0415828 5.87585 0
M  V30 1922 H 181.06 -0.875764 6.04287 0
M  V30 1923 H 182.474 1.34646 5.57264 0
M  V30 1924 H 180.871 2.13688 5.60765 0
M  V30 1925 H 181.941 2.39284 4.21748 0
M  V30 1926 N 183.284 -1.43765 0.645699 0
M  V30 1927 C 184.512 -2.06253 0.163556 0
M  V30 1928 C 184.927 -1.48352 -1.16778 0
M  V30 1929 O 184.284 -0.611932 -1.71935 0
M  V30 1930 C 184.335 -3.61453 0.0583186 0
M  V30 1931 O 184.056 -4.172 1.33702 0
M  V30 1932 C 185.557 -4.41002 -0.450795 0
M  V30 1933 H 182.777 -0.665413 0.0864077 0
M  V30 1934 H 185.321 -1.84396 0.884222 0
M  V30 1935 H 183.476 -3.82522 -0.612865 0
M  V30 1936 H 183.89 -5.10791 1.19131 0
M  V30 1937 H 185.364 -5.49966 -0.473403 0
M  V30 1938 H 185.841 -4.13488 -1.48068 0
M  V30 1939 H 186.447 -4.24886 0.187637 0
M  V30 1940 N 184.763 -0.387143 -1.52771 0
M  V30 1941 C 185.693 0.440551 -2.29306 0
M  V30 1942 C 186.674 1.06535 -1.32606 0
M  V30 1943 O 187.859 1.07853 -1.61497 0
M  V30 1944 C 184.989 1.56919 -3.09829 0
M  V30 1945 C 183.943 1.07054 -4.14395 0
M  V30 1946 C 183.269 2.29109 -4.83129 0
M  V30 1947 C 184.569 0.140015 -5.22112 0
M  V30 1948 H 186.263 -0.198026 -2.98744 0
M  V30 1949 H 183.809 -0.09668 -1.43675 0
M  V30 1950 H 185.762 2.15503 -3.62128 0
M  V30 1951 H 184.486 2.23532 -2.3812 0
M  V30 1952 H 183.145 0.507247 -3.63074 0
M  V30 1953 H 182.793 2.94227 -4.0797 0
M  V30 1954 H 182.493 1.96406 -5.53804 0
M  V30 1955 H 184.017 2.88339 -5.38231 0
M  V30 1956 H 185.431 0.633978 -5.69784 0
M  V30 1957 H 183.828 -0.0971485 -6.00021 0
M  V30 1958 H 184.898 -0.811711 -4.78058 0
M  V30 1959 N 186.241 1.57166 -0.116904 0
M  V30 1960 C 187.489 1.94737 0.540533 0
M  V30 1961 C 187.81 1.00096 1.67349 0
M  V30 1962 O 187.08 0.0568854 1.95817 0
M  V30 1963 H 185.66 0.718981 0.202669 0
M  V30 1964 H 188.322 1.94017 -0.185353 0
M  V30 1965 H 187.418 2.97719 0.936483 0
M  V30 1966 N 187.719 -0.156864 1.56817 0
M  V30 1967 C 188.947 -0.886316 1.86955 0
M  V30 1968 C 189.362 -1.75185 0.703975 0
M  V30 1969 O 188.719 -1.79555 -0.326552 0
M  V30 1970 C 188.77 -1.75117 3.16253 0
M  V30 1971 O 188.491 -0.920537 4.2832 0
M  V30 1972 C 189.992 -2.58905 3.59837 0
M  V30 1973 H 187.212 -0.25678 0.619923 0
M  V30 1974 H 189.756 -0.152615 2.0393 0
M  V30 1975 H 187.911 -2.43805 3.01062 0
M  V30 1976 H 188.325 -1.51337 5.02192 0
M  V30 1977 H 189.799 -3.1518 4.53172 0
M  V30 1978 H 190.276 -3.34472 2.84649 0
M  V30 1979 H 190.882 -1.95526 3.7769 0
M  V30 1980 N 189.197 -1.51736 -0.425897 0
M  V30 1981 C 190.444 -1.6497 -1.17436 0
M  V30 1982 C 190.772 -0.371445 -1.9092 0
M  V30 1983 O 190.027 0.644963 -1.84767 0
M  V30 1984 C 190.326 -2.81103 -2.20717 0
M  V30 1985 C 189.992 -4.19954 -1.64162 0
M  V30 1986 C 188.654 -4.57725 -1.48462 0
M  V30 1987 C 191.006 -5.06552 -1.22696 0
M  V30 1988 C 188.334 -5.79789 -0.897873 0
M  V30 1989 C 190.686 -6.29205 -0.654464 0
M  V30 1990 C 189.35 -6.6574 -0.484456 0
M  V30 1991 H 188.62 -0.603668 -0.429727 0
M  V30 1992 H 191.267 -1.85798 -0.463829 0
M  V30 1993 H 189.572 -2.54542 -2.97852 0
M  V30 1994 H 191.269 -2.8854 -2.78471 0
M  V30 1995 H 187.859 -3.90181 -1.77361 0
M  V30 1996 H 192.043 -4.77968 -1.33642 0
M  V30 1997 H 187.299 -6.06733 -0.75402 0
M  V30 1998 H 191.473 -6.95643 -0.324694 0
M  V30 1999 H 189.1 -7.60195 -0.0276833 0
M  V30 2000 N 190.675 0.682077 -1.42076 0
M  V30 2001 C 191.903 1.47057 -1.4554 0
M  V30 2002 C 192.318 1.8869 -0.0645779 0
M  V30 2003 O 191.675 1.57666 0.919115 0
M  V30 2004 C 191.726 2.72442 -2.37609 0
M  V30 2005 O 191.447 2.32559 -3.71279 0
M  V30 2006 C 192.948 3.66069 -2.50017 0
M  V30 2007 H 190.168 0.452737 -0.495248 0
M  V30 2008 H 192.712 0.838695 -1.8651 0
M  V30 2009 H 190.867 3.31835 -1.9991 0
M  V30 2010 H 191.281 3.13475 -4.20516 0
M  V30 2011 H 192.755 4.50792 -3.18576 0
M  V30 2012 H 193.232 4.11476 -1.53572 0
M  V30 2013 H 193.838 3.12572 -2.88407 0
M  V30 2014 N 192.153 1.28127 0.917671 0
M  V30 2015 C 193.399 1.15223 1.66888 0
M  V30 2016 C 193.732 -0.299293 1.9188 0
M  V30 2017 O 193.007 -1.21805 1.51637 0
M  V30 2018 C 193.29 1.94706 3.02922 0
M  V30 2019 C 193.143 3.47898 2.85109 0
M  V30 2020 C 194.462 1.75939 4.03402 0
M  V30 2021 H 191.581 0.419946 0.605652 0
M  V30 2022 H 194.223 1.57398 1.06423 0
M  V30 2023 H 192.373 1.58864 3.54534 0
M  V30 2024 H 194.045 3.93624 2.40537 0
M  V30 2025 H 192.288 3.7373 2.20246 0
M  V30 2026 H 192.959 3.98765 3.81694 0
M  V30 2027 H 195.435 2.07209 3.60837 0
M  V30 2028 H 194.311 2.33931 4.96556 0
M  V30 2029 H 194.572 0.709877 4.36364 0
M  V30 2030 N 193.631 -1.12557 1.10312 0
M  V30 2031 C 194.561 -2.20341 0.772798 0
M  V30 2032 C 195.542 -1.68198 -0.25365 0
M  V30 2033 O 196.727 -1.93831 -0.119699 0
M  V30 2034 C 193.857 -3.46709 0.202443 0
M  V30 2035 C 192.811 -4.11996 1.15943 0
M  V30 2036 C 192.137 -5.328 0.450345 0
M  V30 2037 C 193.437 -4.5828 2.50552 0
M  V30 2038 H 195.131 -2.48229 1.674 0
M  V30 2039 H 192.677 -1.19308 0.806326 0
M  V30 2040 H 194.63 -4.2138 -0.0407752 0
M  V30 2041 H 193.354 -3.18245 -0.734001 0
M  V30 2042 H 192.013 -3.39305 1.38808 0
M  V30 2043 H 191.661 -5.00602 -0.490531 0
M  V30 2044 H 191.361 -5.7743 1.08851 0
M  V30 2045 H 192.885 -6.10219 0.215642 0
M  V30 2046 H 194.299 -5.2433 2.31843 0
M  V30 2047 H 192.696 -5.13683 3.10242 0
M  V30 2048 H 193.766 -3.72329 3.10643 0
M  V30 2049 N 195.109 -0.891671 -1.2995 0
M  V30 2050 C 196.019 -0.367691 -2.31701 0
M  V30 2051 C 197.035 0.533486 -1.6562 0
M  V30 2052 O 198.211 0.424997 -1.96865 0
M  V30 2053 C 195.276 0.403406 -3.44345 0
M  V30 2054 C 194.337 -0.528328 -4.26037 0
M  V30 2055 C 193.57 0.206063 -5.33302 0
M  V30 2056 O 193.793 1.43119 -5.52153 0
M  V30 2057 O 192.727 -0.447281 -6.00236 0
M  V30 2058 H 196.553 -1.21163 -2.78484 0
M  V30 2059 H 194.138 -0.655725 -1.34241 0
M  V30 2060 H 196.02 0.839753 -4.12948 0
M  V30 2061 H 194.695 1.22354 -2.99685 0
M  V30 2062 H 193.602 -1.01362 -3.60106 0
M  V30 2063 H 194.935 -1.31465 -4.74318 0
M  V30 2064 N 196.587 1.43421 -0.653314 0
M  V30 2065 C 197.535 2.32546 0.0501531 0
M  V30 2066 C 198.529 1.48617 0.812985 0
M  V30 2067 O 199.735 1.64825 0.723375 0
M  V30 2068 H 196.11 0.751185 0.0350032 0
M  V30 2069 H 198.081 2.89602 -0.719261 0
M  V30 2070 C 196.83 3.32925 1.00279 0
M  V30 2071 H 196.153 3.97532 0.425236 0
M  V30 2072 H 197.593 3.9792 1.46409 0
M  V30 2073 C 196.052 2.63532 2.09886 0
M  V30 2074 O 196.582 2.45092 3.18265 0
M  V30 2075 N 194.788 2.22905 1.86445 0
M  V30 2076 H 194.335 2.38103 0.98309 0
M  V30 2077 H 194.293 1.76805 2.59976 0
M  V30 2078 N 198.065 0.39524 1.52563 0
M  V30 2079 C 198.995 -0.428384 2.29537 0
M  V30 2080 C 199.976 -1.05831 1.33169 0
M  V30 2081 O 201.161 -1.06995 1.62067 0
M  V30 2082 C 198.291 -1.55274 3.10656 0
M  V30 2083 C 197.245 -1.04855 4.14957 0
M  V30 2084 C 196.571 -2.26543 4.84337 0
M  V30 2085 C 197.871 -0.112324 5.22179 0
M  V30 2086 H 199.565 0.213867 2.98635 0
M  V30 2087 H 197.111 0.104298 1.43622 0
M  V30 2088 H 199.064 -2.1358 3.63265 0
M  V30 2089 H 197.788 -2.22266 2.39302 0
M  V30 2090 H 196.447 -0.487985 3.63338 0
M  V30 2091 H 196.095 -2.92059 4.09525 0
M  V30 2092 H 195.795 -1.93466 5.54837 0
M  V30 2093 H 197.319 -2.85481 5.39753 0
M  V30 2094 H 198.733 -0.603752 5.70112 0
M  V30 2095 H 197.13 0.128968 5.99961 0
M  V30 2096 H 198.2 0.837052 4.77621 0
M  V30 2097 N 199.544 -1.57102 0.125237 0
M  V30 2098 C 200.474 -2.18659 -0.819174 0
M  V30 2099 C 201.455 -1.12843 -1.27281 0
M  V30 2100 O 202.64 -1.41104 -1.33429 0
M  V30 2101 C 199.77 -2.79096 -2.06695 0
M  V30 2102 C 198.724 -3.90548 -1.75088 0
M  V30 2103 C 198.05 -4.37821 -3.06948 0
M  V30 2104 C 199.35 -5.12356 -1.01435 0
M  V30 2105 H 201.044 -2.9783 -0.306202 0
M  V30 2106 H 198.59 -1.4326 -0.145839 0
M  V30 2107 H 200.543 -3.2082 -2.73226 0
M  V30 2108 H 199.267 -1.97223 -2.60328 0
M  V30 2109 H 197.926 -3.49409 -1.10944 0
M  V30 2110 H 197.574 -3.52799 -3.58527 0
M  V30 2111 H 197.274 -5.12982 -2.86571 0
M  V30 2112 H 198.798 -4.822 -3.74587 0
M  V30 2113 H 200.212 -5.5106 -1.58132 0
M  V30 2114 H 198.609 -5.9314 -0.911319 0
M  V30 2115 H 199.679 -4.849 -0.00218681 0
M  V30 2116 N 201.022 0.148545 -1.56898 0
M  V30 2117 C 202.268 0.862694 -1.83536 0
M  V30 2118 C 202.601 1.80889 -0.706604 0
M  V30 2119 O 201.876 1.92328 0.289885 0
M  V30 2120 C 202.159 1.63853 -3.20662 0
M  V30 2121 C 202.012 0.713925 -4.44098 0
M  V30 2122 C 203.331 2.60133 -3.54991 0
M  V30 2123 H 200.45 0.312179 -0.667618 0
M  V30 2124 H 203.092 0.127953 -1.89569 0
M  V30 2125 H 201.242 2.26489 -3.1565 0
M  V30 2126 H 202.914 0.098686 -4.61194 0
M  V30 2127 H 201.157 0.0234019 -4.33794 0
M  V30 2128 H 201.828 1.29278 -5.36648 0
M  V30 2129 H 204.304 2.07616 -3.60603 0
M  V30 2130 H 203.18 3.11468 -4.51972 0
M  V30 2131 H 203.441 3.41417 -2.80868 0
M  V30 2132 N 202.5 1.5196 0.417844 0
M  V30 2133 C 203.43 1.77634 1.51554 0
M  V30 2134 C 204.411 0.626918 1.58126 0
M  V30 2135 O 205.596 0.871632 1.7354 0
M  V30 2136 C 202.726 1.91911 2.8946 0
M  V30 2137 C 201.68 3.07463 2.97743 0
M  V30 2138 C 201.006 3.06951 4.37819 0
M  V30 2139 C 202.306 4.47082 2.70027 0
M  V30 2140 H 204 2.6955 1.3032 0
M  V30 2141 H 201.546 1.29706 0.625492 0
M  V30 2142 H 203.499 2.08455 3.6623 0
M  V30 2143 H 202.223 0.966598 3.11969 0
M  V30 2144 H 200.882 2.90656 2.23416 0
M  V30 2145 H 200.53 2.09438 4.57323 0
M  V30 2146 H 200.23 3.84556 4.44286 0
M  V30 2147 H 201.754 3.25613 5.16535 0
M  V30 2148 H 203.168 4.6414 3.36522 0
M  V30 2149 H 201.565 5.2654 2.87881 0
M  V30 2150 H 202.635 4.55777 1.65514 0
M  V30 2151 N 203.978 -0.674533 1.42435 0
M  V30 2152 C 205.218 -1.4466 1.44405 0
M  V30 2153 C 205.582 -1.91911 0.0585784 0
M  V30 2154 O 206.783 -2.68759 -0.0469991 0
M  V30 2155 C 205.054 -2.61136 2.44013 0
M  V30 2156 S 206.613 -3.49981 2.64687 0
M  V30 2157 H 203.431 -0.494074 0.511284 0
M  V30 2158 H 206.033 -0.785162 1.7904 0
M  V30 2159 H 204.737 -2.24662 3.43446 0
M  V30 2160 H 204.268 -3.32153 2.10803 0
M  V30 2161 H 206.283 -4.57124 1.93007 0
M  V30 2162 N 205.456 -1.28612 -0.910864 0
M  V30 2163 C 206.702 -1.16106 -1.66274 0
M  V30 2164 C 207.035 0.289113 -1.92036 0
M  V30 2165 O 206.31 1.21 -1.52281 0
M  V30 2166 C 206.593 -1.96309 -3.01885 0
M  V30 2167 C 206.446 -3.49405 -2.8326 0
M  V30 2168 C 207.765 -1.78076 -4.02463 0
M  V30 2169 H 204.884 -0.423152 -0.603417 0
M  V30 2170 H 207.526 -1.57961 -1.05586 0
M  V30 2171 H 205.676 -1.60742 -3.53687 0
M  V30 2172 H 207.348 -3.94894 -2.38446 0
M  V30 2173 H 205.591 -3.74893 -2.18261 0
M  V30 2174 H 206.262 -4.00784 -3.79574 0
M  V30 2175 H 208.738 -2.0912 -3.59733 0
M  V30 2176 H 207.614 -2.36561 -4.95308 0
M  V30 2177 H 207.875 -0.733008 -4.35981 0
M  V30 2178 N 206.934 1.1197 -1.10907 0
M  V30 2179 C 208.183 1.82947 -0.849302 0
M  V30 2180 C 208.496 1.85275 0.627112 0
M  V30 2181 O 209.702 2.52296 1.00295 0
M  V30 2182 C 208.158 3.28529 -1.46959 0
M  V30 2183 C 207.766 3.34546 -2.97965 0
M  V30 2184 C 209.51 4.04443 -1.28942 0
M  V30 2185 C 207.417 4.74491 -3.53004 0
M  V30 2186 H 206.347 0.685477 -0.314065 0
M  V30 2187 H 208.998 1.2604 -1.33365 0
M  V30 2188 H 207.38 3.85333 -0.912917 0
M  V30 2189 H 208.554 2.87654 -3.59989 0
M  V30 2190 H 206.869 2.72108 -3.15192 0
M  V30 2191 H 209.466 5.07787 -1.67502 0
M  V30 2192 H 209.809 4.15656 -0.231456 0
M  V30 2193 H 210.342 3.5401 -1.81443 0
M  V30 2194 H 207.081 4.68474 -4.58489 0
M  V30 2195 H 206.601 5.21816 -2.9575 0
M  V30 2196 H 208.28 5.4344 -3.51115 0
M  V30 2197 N 208.412 0.89855 1.29475 0
M  V30 2198 C 209.342 0.39201 2.30186 0
M  V30 2199 C 210.323 -0.532359 1.61555 0
M  V30 2200 O 211.508 -0.443331 1.89072 0
M  V30 2201 C 208.638 -0.382353 3.45189 0
M  V30 2202 C 207.592 0.451483 4.25612 0
M  V30 2203 C 206.918 -0.450307 5.328 0
M  V30 2204 C 208.218 1.70079 4.93832 0
M  V30 2205 H 209.912 1.23362 2.72804 0
M  V30 2206 H 207.458 0.594638 1.31149 0
M  V30 2207 H 209.411 -0.747451 4.14718 0
M  V30 2208 H 208.135 -1.25774 3.01411 0
M  V30 2209 H 206.794 0.798897 3.57789 0
M  V30 2210 H 206.442 -1.32379 4.85268 0
M  V30 2211 H 206.142 0.103902 5.87508 0
M  V30 2212 H 207.666 -0.811623 6.05182 0
M  V30 2213 H 209.08 1.40549 5.55805 0
M  V30 2214 H 207.477 2.19623 5.58467 0
M  V30 2215 H 208.547 2.43744 4.19186 0
M  V30 2216 N 209.89 -1.43072 0.660911 0
M  V30 2217 C 210.84 -2.27948 -0.04847 0
M  V30 2218 C 211.824 -1.40325 -0.787246 0
M  V30 2219 O 213.016 -1.63893 -0.668446 0
M  V30 2220 C 210.145 -3.28143 -1.00881 0
M  V30 2221 C 209.231 -4.23252 -0.268108 0
M  V30 2222 N 209.622 -5.00656 0.719528 0
M  V30 2223 C 207.92 -4.43092 -0.508493 0
M  V30 2224 C 208.621 -5.70019 1.15988 0
M  V30 2225 N 207.597 -5.41364 0.492584 0
M  V30 2226 H 211.399 -2.85213 0.709279 0
M  V30 2227 H 208.913 -1.54869 0.488822 0
M  V30 2228 H 210.91 -3.87736 -1.53188 0
M  V30 2229 H 209.57 -2.7244 -1.76654 0
M  V30 2230 H 210.581 -5.06115 1.09855 0
M  V30 2231 H 207.258 -3.98449 -1.24679 0
M  V30 2232 H 208.648 -6.4214 1.97751 0
M  V30 2233 N 211.368 -0.403325 -1.52352 0
M  V30 2234 C 212.593 0.176499 -2.06648 0
M  V30 2235 C 213.018 1.38577 -1.27193 0
M  V30 2236 O 212.376 1.7879 -0.300637 0
M  V30 2237 C 212.424 0.511061 -3.5696 0
M  V30 2238 O 211.528 1.60294 -3.79973 0
M  V30 2239 H 210.869 0.0167337 -0.663789 0
M  V30 2240 H 213.399 -0.574848 -1.96359 0
M  V30 2241 H 213.409 0.771362 -4.00642 0
M  V30 2242 H 212.084 -0.37296 -4.14224 0
M  V30 2243 H 210.661 1.33526 -3.48174 0
M  V30 2244 N 212.846 1.57033 -0.133567 0
M  V30 2245 C 214.262 1.58035 0.222944 0
M  V30 2246 C 214.462 1.14713 1.6566 0
M  V30 2247 O 213.518 0.841218 2.38075 0
M  V30 2248 C 214.831 3.00691 -0.0236116 0
M  V30 2249 C 216.379 3.12973 0.0411512 0
M  V30 2250 C 216.854 4.57654 -0.177899 0
M  V30 2251 N 218.345 4.63033 -0.124365 0
M  V30 2252 C 219.08 5.72771 -0.268553 0
M  V30 2253 N 218.576 6.91206 -0.46972 0
M  V30 2254 N 220.369 5.61718 -0.2071 0
M  V30 2255 H 212.52 1.8349 -1.06981 0
M  V30 2256 H 214.783 0.848677 -0.422436 0
M  V30 2257 H 214.489 3.36726 -1.0153 0
M  V30 2258 H 214.363 3.70614 0.701808 0
M  V30 2259 H 216.75 2.76787 1.02338 0
M  V30 2260 H 216.831 2.45564 -0.716383 0
M  V30 2261 H 216.475 4.94542 -1.15717 0
M  V30 2262 H 216.405 5.23173 0.599797 0
M  V30 2263 H 218.896 3.7789 0.027011 0
M  V30 2264 H 219.209 7.70693 -0.570212 0
M  V30 2265 H 217.554 6.93156 -0.505876 0
M  V30 2266 H 220.745 4.68072 -0.0507986 0
M  V30 2267 H 220.918 6.47195 -0.322909 0
M  V30 2268 N 214.325 -0.140222 1.56975 0
M  V30 2269 C 215.55 -0.870414 1.88251 0
M  V30 2270 C 215.975 -1.73637 0.723312 0
M  V30 2271 O 215.333 -1.78329 -0.32689 0
M  V30 2272 C 215.381 -1.69737 3.18154 0
M  V30 2273 O 214.485 -2.80229 3.02565 0
M  V30 2274 H 213.826 -0.242025 0.61832 0
M  V30 2275 H 216.356 -0.128999 2.04193 0
M  V30 2276 H 216.366 -2.09099 3.50345 0
M  V30 2277 H 215.041 -1.06152 4.02125 0
M  V30 2278 H 213.618 -2.44224 2.81796 0
M  V30 2279 N 215.803 -1.52179 -0.40978 0
M  V30 2280 C 216.733 -1.78435 -1.5061 0
M  V30 2281 C 217.714 -0.635295 -1.57791 0
M  V30 2282 O 218.899 -0.880823 -1.73076 0
M  V30 2283 C 216.029 -1.93444 -2.88439 0
M  V30 2284 C 214.983 -3.09038 -2.96108 0
M  V30 2285 C 214.309 -3.09268 -4.36185 0
M  V30 2286 C 215.609 -4.48508 -2.67652 0
M  V30 2287 H 217.303 -2.70237 -1.28889 0
M  V30 2288 H 214.849 -1.30036 -0.618605 0
M  V30 2289 H 216.802 -2.10394 -3.65119 0
M  V30 2290 H 215.526 -0.983129 -3.11452 0
M  V30 2291 H 214.185 -2.91837 -2.21872 0
M  V30 2292 H 213.833 -2.11861 -4.56206 0
M  V30 2293 H 213.533 -3.86907 -4.42241 0
M  V30 2294 H 215.057 -3.28348 -5.14801 0
M  V30 2295 H 216.471 -4.65918 -3.34056 0
M  V30 2296 H 214.868 -5.28059 -2.85085 0
M  V30 2297 H 215.938 -4.56649 -1.63095 0
M  V30 2298 N 217.281 0.66697 -1.42791 0
M  V30 2299 C 218.697 0.981027 -1.25889 0
M  V30 2300 C 218.897 2.00793 -0.168695 0
M  V30 2301 O 217.953 2.48321 0.45747 0
M  V30 2302 C 219.266 1.47838 -2.61848 0
M  V30 2303 C 220.814 1.59575 -2.69267 0
M  V30 2304 C 221.289 2.12704 -4.05612 0
M  V30 2305 N 222.78 2.20026 -4.07606 0
M  V30 2306 C 223.515 2.62227 -5.09926 0
M  V30 2307 N 223.011 3.03824 -6.22626 0
M  V30 2308 N 224.804 2.62045 -4.97281 0
M  V30 2309 H 216.955 -0.0127891 -2.12396 0
M  V30 2310 H 219.218 0.0568258 -0.946295 0
M  V30 2311 H 218.924 0.798299 -3.4252 0
M  V30 2312 H 218.798 2.45579 -2.86305 0
M  V30 2313 H 221.185 2.26687 -1.88936 0
M  V30 2314 H 221.266 0.60302 -2.48591 0
M  V30 2315 H 220.91 1.46198 -4.86404 0
M  V30 2316 H 220.84 3.12782 -4.23645 0
M  V30 2317 H 223.331 1.90708 -3.2625 0
M  V30 2318 H 223.644 3.34734 -6.96544 0
M  V30 2319 H 221.989 3.01662 -6.26119 0
M  V30 2320 H 225.18 2.28916 -4.08308 0
M  V30 2321 H 225.353 2.94613 -5.77154 0
M  V30 2322 N 218.759 1.29093 0.90403 0
M  V30 2323 C 219.999 1.18076 1.66845 0
M  V30 2324 C 220.363 -0.26436 1.90171 0
M  V30 2325 O 221.564 -0.497423 2.64157 0
M  V30 2326 C 219.835 1.96722 2.98388 0
M  V30 2327 S 221.394 2.0219 3.89441 0
M  V30 2328 H 218.212 0.421104 0.572881 0
M  V30 2329 H 220.814 1.63322 1.07453 0
M  V30 2330 H 219.518 3.00866 2.7912 0
M  V30 2331 H 219.049 1.52064 3.62823 0
M  V30 2332 H 221.064 1.13545 4.83034 0
M  V30 2333 N 220.237 -1.11381 1.11499 0
M  V30 2334 C 221.653 -1.35143 0.849031 0
M  V30 2335 C 221.853 -1.94515 -0.525938 0
M  V30 2336 O 220.909 -2.1785 -1.27662 0
M  V30 2337 C 222.222 -2.28249 1.95762 0
M  V30 2338 C 223.77 -2.41812 1.98736 0
M  V30 2339 C 224.245 -3.3824 3.088 0
M  V30 2340 N 225.736 -3.45803 3.08179 0
M  V30 2341 C 226.471 -4.20358 3.89982 0
M  V30 2342 N 225.967 -4.97884 4.8175 0
M  V30 2343 N 227.76 -4.15877 3.78157 0
M  V30 2344 H 219.911 -0.712062 2.00109 0
M  V30 2345 H 222.174 -0.376025 0.870235 0
M  V30 2346 H 221.88 -1.91817 2.94787 0
M  V30 2347 H 221.754 -3.28473 1.85433 0
M  V30 2348 H 224.141 -2.77518 1.00338 0
M  V30 2349 H 224.222 -1.41437 2.13141 0
M  V30 2350 H 223.866 -3.03261 4.07425 0
M  V30 2351 H 223.796 -4.38471 2.91635 0
M  V30 2352 H 226.287 -2.90506 2.41691 0
M  V30 2353 H 226.6 -5.52142 5.40702 0
M  V30 2354 H 224.945 -4.97043 4.85771 0
M  V30 2355 H 228.136 -3.544 3.05808 0
M  V30 2356 H 228.309 -4.73723 4.42143 0
M  V30 2357 N 221.715 -0.905404 -1.28997 0
M  V30 2358 C 223.126 -0.581953 -1.77398 0
M  V30 2359 C 223.477 0.902552 -1.74208 0
M  V30 2360 O 222.602 1.70584 -1.33154 0
M  V30 2361 C 223.197 -1.04961 -3.22131 0
M  V30 2362 C 221.756 -0.777229 -3.68288 0
M  V30 2363 C 220.903 -1.22109 -2.48967 0
M  V30 2364 H 223.854 -1.08754 -1.15578 0
M  V30 2365 H 223.875 -0.387387 -3.78523 0
M  V30 2366 H 223.387 -2.13008 -3.24421 0
M  V30 2367 H 221.488 0.290383 -3.71467 0
M  V30 2368 H 221.601 -1.37911 -4.58822 0
M  V30 2369 H 219.965 -0.639971 -2.46529 0
M  V30 2370 H 220.748 -2.30972 -2.53982 0
M  V30 2371 N 223.193 1.4272 -0.668489 0
M  V30 2372 C 224.418 2.06484 -0.194758 0
M  V30 2373 C 224.843 1.49862 1.13679 0
M  V30 2374 O 224.201 0.614582 1.70565 0
M  V30 2375 C 224.249 3.60353 -0.133546 0
M  V30 2376 O 223.353 4.02464 0.899806 0
M  V30 2377 H 222.694 0.656137 -0.10188 0
M  V30 2378 H 225.224 1.82964 -0.915722 0
M  V30 2379 H 225.234 4.07976 0.0447041 0
M  V30 2380 H 223.909 4.00938 -1.1055 0
M  V30 2381 H 222.486 3.66402 0.693109 0
M  V30 2382 N 224.671 0.411399 1.52136 0
M  V30 2383 C 225.901 -0.16284 2.05957 0
M  V30 2384 C 226.309 -1.3922 1.28119 0
M  V30 2385 O 225.652 -1.80768 0.326881 0
M  V30 2386 C 225.714 -0.575946 3.54856 0
M  V30 2387 C 225.378 0.542998 4.53763 0
M  V30 2388 C 226.375 1.40726 5.00492 0
M  V30 2389 C 224.06 0.716337 4.97166 0
M  V30 2390 C 226.054 2.4298 5.8927 0
M  V30 2391 C 223.741 1.74218 5.8574 0
M  V30 2392 C 224.739 2.59731 6.31687 0
M  V30 2393 O 224.427 3.60558 7.18507 0
M  V30 2394 H 224.159 -0.0229125 0.675612 0
M  V30 2395 H 226.713 0.581634 1.96993 0
M  V30 2396 H 224.943 -1.37274 3.61515 0
M  V30 2397 H 226.632 -1.07836 3.91313 0
M  V30 2398 H 227.398 1.28476 4.67674 0
M  V30 2399 H 223.277 0.0603857 4.6096 0
M  V30 2400 H 226.821 3.0976 6.25055 0
M  V30 2401 H 222.718 1.86498 6.17971 0
M  V30 2402 H 223.486 3.56829 7.36624 0
M  V30 2403 N 226.149 -1.5696 0.141893 0
M  V30 2404 C 227.099 -2.13074 -0.811383 0
M  V30 2405 C 228.083 -1.05726 -1.21288 0
M  V30 2406 O 229.275 -1.31914 -1.18015 0
M  V30 2407 C 226.404 -2.75186 -2.0525 0
M  V30 2408 C 225.49 -3.8965 -1.67432 0
M  V30 2409 N 225.881 -4.95733 -1.0041 0
M  V30 2410 C 224.179 -4.00262 -1.96739 0
M  V30 2411 C 224.88 -5.75858 -0.822345 0
M  V30 2412 N 223.856 -5.26452 -1.3546 0
M  V30 2413 H 227.658 -2.92465 -0.290031 0
M  V30 2414 H 225.172 -1.6229 -0.0598218 0
M  V30 2415 H 227.169 -3.13745 -2.74535 0
M  V30 2416 H 225.829 -1.97266 -2.57907 0
M  V30 2417 H 226.84 -5.13607 -0.665441 0
M  V30 2418 H 223.517 -3.33412 -2.51282 0
M  V30 2419 H 224.907 -6.71254 -0.294496 0
M  V30 2420 N 227.627 0.131896 -1.57047 0
M  V30 2421 C 228.874 0.841932 -1.84168 0
M  V30 2422 C 229.202 1.8048 -0.725066 0
M  V30 2423 O 228.457 1.93618 0.284692 0
M  V30 2424 C 228.756 1.63703 -3.17704 0
M  V30 2425 C 228.422 0.81961 -4.43388 0
M  V30 2426 C 227.084 0.594148 -4.77518 0
M  V30 2427 C 229.436 0.248977 -5.20605 0
M  V30 2428 C 226.764 -0.212409 -5.86315 0
M  V30 2429 C 229.116 -0.544701 -6.30251 0
M  V30 2430 C 227.78 -0.780599 -6.6292 0
M  V30 2431 H 227.05 0.308085 -0.673917 0
M  V30 2432 H 229.697 0.104867 -1.91213 0
M  V30 2433 H 228.002 2.44464 -3.06177 0
M  V30 2434 H 229.699 2.19015 -3.35907 0
M  V30 2435 H 226.289 1.00542 -4.16641 0
M  V30 2436 H 230.473 0.410408 -4.946 0
M  V30 2437 H 225.729 -0.404524 -6.1006 0
M  V30 2438 H 229.903 -0.993922 -6.89271 0
M  V30 2439 H 227.53 -1.40742 -7.47058 0
M  V30 2440 N 229.106 1.52395 0.401703 0
M  V30 2441 C 230.355 1.66044 1.14509 0
M  V30 2442 C 230.668 0.400216 1.91462 0
M  V30 2443 O 231.874 0.416632 2.68284 0
M  V30 2444 C 230.33 2.93388 2.0845 0
M  V30 2445 C 229.938 4.26545 1.36978 0
M  V30 2446 C 231.682 3.16402 2.83001 0
M  V30 2447 C 229.589 5.45007 2.29611 0
M  V30 2448 H 228.519 0.618562 0.431158 0
M  V30 2449 H 231.17 1.78886 0.40892 0
M  V30 2450 H 229.552 2.74263 2.8565 0
M  V30 2451 H 230.726 4.56179 0.650916 0
M  V30 2452 H 229.041 4.09692 0.74438 0
M  V30 2453 H 231.638 4.02085 3.52465 0
M  V30 2454 H 231.981 2.30943 3.46368 0
M  V30 2455 H 232.514 3.36034 2.12898 0
M  V30 2456 H 229.253 6.32835 1.70879 0
M  V30 2457 H 228.773 5.19702 2.9945 0
M  V30 2458 H 230.452 5.7838 2.89974 0
M  V30 2459 N 230.584 -0.659388 1.43143 0
M  V30 2460 C 231.832 -1.41654 1.44147 0
M  V30 2461 C 232.153 -1.94893 0.0645739 0
M  V30 2462 O 231.423 -1.74044 -0.899198 0
M  V30 2463 H 230.003 -0.525708 0.530697 0
M  V30 2464 H 232.665 -0.778097 1.78694 0
M  V30 2465 H 231.761 -2.26195 2.1504 0
M  V30 2466 N 232.062 -1.29571 -0.897171 0
M  V30 2467 C 233.287 -1.20705 -1.68656 0
M  V30 2468 C 233.712 0.228582 -1.86706 0
M  V30 2469 O 233.07 1.16494 -1.3892 0
M  V30 2470 C 233.118 -1.9282 -3.04717 0
M  V30 2471 O 232.222 -1.24697 -3.93096 0
M  V30 2472 H 231.563 -0.418126 -0.515816 0
M  V30 2473 H 234.093 -1.71183 -1.12061 0
M  V30 2474 H 234.103 -2.01372 -3.54843 0
M  V30 2475 H 232.778 -2.97239 -2.90899 0
M  V30 2476 H 231.355 -1.2442 -3.51531 0
M  V30 2477 N 233.54 1.10788 -1.12088 0
M  V30 2478 C 234.47 2.19083 -0.807755 0
M  V30 2479 C 235.451 1.6858 0.226859 0
M  V30 2480 O 236.636 1.93997 0.0888475 0
M  V30 2481 C 233.766 3.46344 -0.257576 0
M  V30 2482 C 232.72 4.101 -1.22483 0
M  V30 2483 C 232.046 5.32016 -0.535052 0
M  V30 2484 C 233.346 4.54236 -2.57811 0
M  V30 2485 H 235.04 2.45534 -1.71328 0
M  V30 2486 H 232.586 1.1801 -0.825205 0
M  V30 2487 H 234.539 4.21392 -0.0262679 0
M  V30 2488 H 233.263 3.19373 0.683278 0
M  V30 2489 H 231.922 3.37054 -1.44189 0
M  V30 2490 H 231.57 5.01319 0.410827 0
M  V30 2491 H 231.27 5.75625 -1.18024 0
M  V30 2492 H 232.794 6.09799 -0.312695 0
M  V30 2493 H 234.208 5.20575 -2.40155 0
M  V30 2494 H 232.605 5.08682 -3.18375 0
M  V30 2495 H 233.675 3.6734 -3.16528 0
M  V30 2496 N 235.018 0.912232 1.28515 0
M  V30 2497 C 235.981 0.404223 2.25607 0
M  V30 2498 C 236.981 -0.468602 1.53821 0
M  V30 2499 O 238.171 -0.271873 1.72065 0
M  V30 2500 C 235.303 -0.420653 3.38295 0
M  V30 2501 H 236.496 1.26188 2.7206 0
M  V30 2502 H 234.049 0.691495 1.40171 0
M  V30 2503 H 234.784 -1.29777 2.97201 0
M  V30 2504 H 234.569 0.204935 3.91564 0
M  V30 2505 H 236.059 -0.766971 4.10496 0
M  V30 2506 N 236.496 -1.42363 0.676048 0
M  V30 2507 C 237.742 -2.0182 0.199125 0
M  V30 2508 C 238.075 -1.53339 -1.19168 0
M  V30 2509 O 237.35 -0.736124 -1.80032 0
M  V30 2510 C 237.633 -3.59331 0.235144 0
M  V30 2511 C 237.486 -4.17989 1.66149 0
M  V30 2512 C 238.805 -4.3813 -0.41595 0
M  V30 2513 H 235.924 -0.733293 0.0738311 0
M  V30 2514 H 238.566 -1.69368 0.86107 0
M  V30 2515 H 236.716 -3.87109 -0.328487 0
M  V30 2516 H 238.388 -4.0116 2.27747 0
M  V30 2517 H 236.631 -3.7377 2.20178 0
M  V30 2518 H 237.302 -5.27126 1.63837 0
M  V30 2519 H 239.778 -4.16051 0.0638529 0
M  V30 2520 H 238.654 -5.47717 -0.360115 0
M  V30 2521 H 238.915 -4.16101 -1.49373 0
M  V30 2522 N 237.974 -0.419461 -1.51915 0
M  V30 2523 C 238.937 0.389116 -2.25873 0
M  V30 2524 C 239.937 0.964924 -1.28631 0
M  V30 2525 O 241.127 0.842179 -1.52489 0
M  V30 2526 C 238.259 1.54874 -3.03689 0
M  V30 2527 H 239.452 -0.258799 -2.98781 0
M  V30 2528 H 237.005 -0.172209 -1.55348 0
M  V30 2529 H 237.74 2.23323 -2.35154 0
M  V30 2530 H 237.525 1.14223 -3.75094 0
M  V30 2531 H 239.015 2.12046 -3.59759 0
M  V30 2532 N 239.452 1.56882 -0.150215 0
M  V30 2533 C 240.729 1.87844 0.545327 0
M  V30 2534 C 241.109 1.0567 1.82749 0
M  V30 2535 O 240.457 0.144442 2.28043 0
M  V30 2536 C 240.667 3.39526 0.80767 0
M  V30 2537 C 242.015 4.08814 1.14703 0
M  V30 2538 O 243.039 3.44723 0.896917 0
M  V30 2539 O 241.898 5.22004 1.61784 0
M  V30 2540 H 238.992 0.778677 0.278553 0
M  V30 2541 H 241.538 1.68666 -0.187068 0
M  V30 2542 H 240.31 3.91173 -0.0996096 0
M  V30 2543 H 239.933 3.64243 1.59413 0
M  V30 2544 N 240.93 -0.123565 1.57115 0
M  V30 2545 C 241.86 -1.15309 2.03042 0
M  V30 2546 C 242.841 -1.43454 0.914061 0
M  V30 2547 O 244.026 -1.53973 1.18347 0
M  V30 2548 C 241.156 -2.48043 2.43089 0
M  V30 2549 C 240.11 -2.3437 3.58127 0
M  V30 2550 C 239.436 -3.72026 3.84059 0
M  V30 2551 C 240.736 -1.80804 4.90007 0
M  V30 2552 H 242.43 -0.771102 2.893 0
M  V30 2553 H 239.976 -0.369479 1.39179 0
M  V30 2554 H 241.929 -3.20311 2.73823 0
M  V30 2555 H 240.653 -2.88122 1.53796 0
M  V30 2556 H 239.312 -1.64551 3.27595 0
M  V30 2557 H 238.96 -4.09582 2.91979 0
M  V30 2558 H 238.66 -3.63732 4.6149 0
M  V30 2559 H 240.184 -4.45806 4.1724 0
M  V30 2560 H 241.598 -2.42886 5.19307 0
M  V30 2561 H 239.995 -1.83343 5.71407 0
M  V30 2562 H 241.065 -0.76528 4.78823 0
M  V30 2563 N 242.408 -1.52605 -0.393616 0
M  V30 2564 C 243.338 -1.80022 -1.48709 0
M  V30 2565 C 244.319 -0.651995 -1.57108 0
M  V30 2566 O 245.504 -0.89913 -1.72132 0
M  V30 2567 C 242.634 -1.96492 -2.86371 0
M  V30 2568 C 241.588 -3.12161 -2.92813 0
M  V30 2569 C 240.914 -3.13877 -4.3288 0
M  V30 2570 C 242.214 -4.51322 -2.6288 0
M  V30 2571 H 243.908 -2.71589 -1.26015 0
M  V30 2572 H 241.454 -1.30684 -0.604778 0
M  V30 2573 H 243.407 -2.14255 -3.62867 0
M  V30 2574 H 242.131 -1.01611 -3.10391 0
M  V30 2575 H 240.79 -2.94173 -2.18764 0
M  V30 2576 H 240.438 -2.16687 -4.53933 0
M  V30 2577 H 240.138 -3.91576 -4.38112 0
M  V30 2578 H 241.662 -3.33789 -5.1129 0
M  V30 2579 H 243.076 -4.69435 -3.29096 0
M  V30 2580 H 241.473 -5.31053 -2.79468 0
M  V30 2581 H 242.543 -4.58353 -1.58242 0
M  V30 2582 N 243.887 0.651787 -1.4349 0
M  V30 2583 C 245.135 1.40888 -1.44897 0
M  V30 2584 C 245.456 1.94856 -0.0749086 0
M  V30 2585 O 244.726 1.74518 0.889956 0
M  V30 2586 H 243.306 0.522887 -0.533478 0
M  V30 2587 H 245.968 0.768609 -1.79104 0
M  V30 2588 H 245.064 2.25052 -2.16236 0
M  V30 2589 N 245.365 1.30045 0.890287 0
M  V30 2590 C 246.59 1.21598 1.68014 0
M  V30 2591 C 247.015 -0.218678 1.86825 0
M  V30 2592 O 246.373 -1.15756 1.39536 0
M  V30 2593 C 246.421 1.94434 3.03691 0
M  V30 2594 O 245.525 1.2678 3.92429 0
M  V30 2595 H 244.866 0.420856 0.513592 0
M  V30 2596 H 247.396 1.71775 1.11151 0
M  V30 2597 H 247.406 2.03251 3.5377 0
M  V30 2598 H 246.081 2.98777 2.89318 0
M  V30 2599 H 244.658 1.26282 3.50866 0
M  V30 2600 N 246.843 -1.10192 1.12674 0
M  V30 2601 C 248.089 -1.82475 0.884915 0
M  V30 2602 C 248.422 -1.85093 -0.58773 0
M  V30 2603 O 247.697 -1.3134 -1.43457 0
M  V30 2604 C 247.98 -3.29018 1.46353 0
M  V30 2605 C 247.833 -3.34718 3.00473 0
M  V30 2606 C 249.152 -4.25473 1.12519 0
M  V30 2607 H 246.271 -0.662492 0.322915 0
M  V30 2608 H 248.913 -1.2913 1.39375 0
M  V30 2609 H 247.063 -3.74576 1.03077 0
M  V30 2610 H 248.735 -2.97622 3.52447 0
M  V30 2611 H 246.978 -2.74541 3.35872 0
M  V30 2612 H 247.649 -4.37918 3.36053 0
M  V30 2613 H 250.125 -3.88161 1.499 0
M  V30 2614 H 249.001 -5.26365 1.55663 0
M  V30 2615 H 249.262 -4.42084 0.0377407 0
M  V30 2616 N 248.321 -0.919034 -1.28029 0
M  V30 2617 C 249.57 -0.550802 -1.94034 0
M  V30 2618 C 249.883 0.910877 -1.73096 0
M  V30 2619 O 251.089 1.3875 -2.33368 0
M  V30 2620 C 249.545 -0.934249 -3.47563 0
M  V30 2621 C 249.153 -2.41602 -3.7727 0
M  V30 2622 C 250.897 -0.636854 -4.19696 0
M  V30 2623 C 248.804 -2.73932 -5.24133 0
M  V30 2624 H 247.734 -0.202273 -0.726362 0
M  V30 2625 H 250.385 -1.11867 -1.45458 0
M  V30 2626 H 248.767 -0.295115 -3.94899 0
M  V30 2627 H 249.941 -3.10233 -3.40723 0
M  V30 2628 H 248.256 -2.68441 -3.18321 0
M  V30 2629 H 250.853 -0.855005 -5.2782 0
M  V30 2630 H 251.196 0.425575 -4.14119 0
M  V30 2631 H 251.729 -1.23469 -3.78154 0
M  V30 2632 H 248.468 -3.79049 -5.34792 0
M  V30 2633 H 247.988 -2.09942 -5.61858 0
M  V30 2634 H 249.667 -2.61215 -5.91925 0
M  V30 2635 N 249.799 1.42003 -0.683588 0
M  V30 2636 C 251.046 2.01413 -0.209514 0
M  V30 2637 C 251.374 1.54088 1.1869 0
M  V30 2638 O 250.629 0.737591 1.81268 0
M  V30 2639 C 250.928 3.56827 -0.202357 0
M  V30 2640 C 250.594 4.23617 -1.54464 0
M  V30 2641 C 249.256 4.41577 -1.91215 0
M  V30 2642 C 251.608 4.61178 -2.42826 0
M  V30 2643 C 248.936 4.9437 -3.15935 0
M  V30 2644 C 251.288 5.15355 -3.66867 0
M  V30 2645 C 249.952 5.31528 -4.03776 0
M  V30 2646 H 249.222 0.737023 -0.0766668 0
M  V30 2647 H 251.869 1.70067 -0.880312 0
M  V30 2648 H 250.174 3.87892 0.551969 0
M  V30 2649 H 251.871 4.00588 0.181793 0
M  V30 2650 H 248.461 4.10004 -1.24877 0
M  V30 2651 H 252.645 4.46968 -2.15717 0
M  V30 2652 H 247.901 5.05076 -3.44541 0
M  V30 2653 H 252.075 5.43402 -4.35531 0
M  V30 2654 H 249.702 5.72199 -5.00492 0
M  V30 2655 N 251.277 0.427512 1.51691 0
M  V30 2656 C 252.523 -0.142439 2.02299 0
M  V30 2657 C 252.856 -1.43214 1.31162 0
M  V30 2658 O 252.131 -1.89833 0.423511 0
M  V30 2659 C 252.414 -0.371301 3.58181 0
M  V30 2660 C 252.267 0.936358 4.39946 0
M  V30 2661 C 253.586 -1.14542 4.24933 0
M  V30 2662 H 250.705 -0.0502937 0.735282 0
M  V30 2663 H 253.347 0.564584 1.81418 0
M  V30 2664 H 251.497 -0.973559 3.76104 0
M  V30 2665 H 253.169 1.57184 4.33694 0
M  V30 2666 H 251.412 1.5432 4.05423 0
M  V30 2667 H 252.083 0.730388 5.47147 0
M  V30 2668 H 254.559 -0.635362 4.11221 0
M  V30 2669 H 253.435 -1.27431 5.33903 0
M  V30 2670 H 253.696 -2.17093 3.85127 0
M  V30 2671 N 252.755 -1.56801 0.158532 0
M  V30 2672 C 253.985 -2.00568 -0.495583 0
M  V30 2673 C 254.393 -1.03774 -1.58201 0
M  V30 2674 O 253.736 -0.0285797 -1.83678 0
M  V30 2675 C 253.798 -3.40768 -1.14532 0
M  V30 2676 C 253.462 -4.56553 -0.202101 0
M  V30 2677 C 254.459 -5.16714 0.574675 0
M  V30 2678 C 252.144 -5.02197 -0.101648 0
M  V30 2679 C 254.138 -6.20939 1.43924 0
M  V30 2680 C 251.825 -6.06274 0.766508 0
M  V30 2681 C 252.823 -6.65515 1.53555 0
M  V30 2682 O 252.511 -7.67575 2.38922 0
M  V30 2683 H 252.243 -0.662893 -0.13247 0
M  V30 2684 H 254.797 -2.03829 0.253559 0
M  V30 2685 H 253.027 -3.34381 -1.94233 0
M  V30 2686 H 254.716 -3.6857 -1.70033 0
M  V30 2687 H 255.482 -4.82341 0.507167 0
M  V30 2688 H 251.361 -4.55807 -0.689994 0
M  V30 2689 H 254.905 -6.67107 2.03996 0
M  V30 2690 H 250.802 -6.40073 0.835266 0
M  V30 2691 H 251.57 -7.84844 2.32296 0
M  V30 2692 N 254.233 0.115231 -1.57178 0
M  V30 2693 C 255.458 0.840354 -1.89612 0
M  V30 2694 C 255.883 1.72464 -0.750845 0
M  V30 2695 O 255.241 1.78826 0.298478 0
M  V30 2696 C 255.289 1.64654 -3.20814 0
M  V30 2697 O 254.393 2.7538 -3.06985 0
M  V30 2698 H 253.734 0.232158 -0.622092 0
M  V30 2699 H 256.264 0.0964977 -2.04372 0
M  V30 2700 H 256.274 2.03499 -3.53627 0
M  V30 2701 H 254.949 0.997416 -4.03763 0
M  V30 2702 H 253.526 2.3971 -2.85646 0
M  V30 2703 N 255.711 1.52812 0.385517 0
M  V30 2704 C 256.958 1.68026 1.1302 0
M  V30 2705 C 257.286 0.421934 1.89868 0
M  V30 2706 O 256.541 -0.595749 1.86412 0
M  V30 2707 C 256.84 2.86856 2.13187 0
M  V30 2708 C 256.506 4.24159 1.5297 0
M  V30 2709 C 255.168 4.61501 1.36274 0
M  V30 2710 C 257.52 5.09627 1.09223 0
M  V30 2711 C 254.848 5.81966 0.743837 0
M  V30 2712 C 257.2 6.30719 0.487411 0
M  V30 2713 C 255.864 6.6679 0.307777 0
M  V30 2714 H 255.134 0.614849 0.413571 0
M  V30 2715 H 257.781 1.86962 0.414405 0
M  V30 2716 H 256.086 2.6235 2.90998 0
M  V30 2717 H 257.783 2.95821 2.70722 0
M  V30 2718 H 254.373 3.94746 1.66954 0
M  V30 2719 H 258.557 4.81343 1.20922 0
M  V30 2720 H 253.813 6.08519 0.592891 0
M  V30 2721 H 257.987 6.96259 0.140143 0
M  V30 2722 H 255.614 7.60001 -0.173879 0
M  V30 2723 N 257.189 -0.644168 1.43834 0
M  V30 2724 C 258.438 -1.39985 1.45214 0
M  V30 2725 C 258.751 -1.95421 0.0835494 0
M  V30 2726 O 259.957 -2.71488 -0.0251748 0
M  V30 2727 C 258.413 -2.53384 2.55587 0
M  V30 2728 C 258.021 -2.04517 3.98594 0
M  V30 2729 C 259.765 -3.30685 2.66172 0
M  V30 2730 C 257.672 -3.1518 5.00416 0
M  V30 2731 H 256.602 -0.526005 0.540218 0
M  V30 2732 H 259.253 -0.694367 1.69855 0
M  V30 2733 H 257.635 -3.26446 2.24163 0
M  V30 2734 H 258.809 -1.38405 4.39523 0
M  V30 2735 H 257.124 -1.40068 3.92135 0
M  V30 2736 H 259.721 -4.13158 3.39418 0
M  V30 2737 H 260.064 -3.79312 1.71546 0
M  V30 2738 H 260.597 -2.64708 2.96942 0
M  V30 2739 H 257.336 -2.71511 5.96625 0
M  V30 2740 H 256.856 -3.79974 4.64091 0
M  V30 2741 H 258.535 -3.80166 5.23529 0
M  V30 2742 N 258.668 -1.30515 -0.883378 0
M  V30 2743 C 259.945 -1.10086 -1.6168 0
M  V30 2744 C 260.325 0.349269 -2.08191 0
M  V30 2745 O 259.673 1.34105 -1.85008 0
M  V30 2746 C 259.883 -2.10315 -2.78511 0
M  V30 2747 C 261.231 -2.42119 -3.48803 0
M  V30 2748 O 262.255 -2.08638 -2.88702 0
M  V30 2749 O 261.114 -2.99396 -4.57192 0
M  V30 2750 H 258.208 -0.422907 -0.710689 0
M  V30 2751 H 260.754 -1.41947 -0.930015 0
M  V30 2752 H 259.526 -3.07917 -2.41459 0
M  V30 2753 H 259.149 -1.79282 -3.54886 0
M  V30 2754 N 260.146 1.09593 -1.13257 0
M  V30 2755 C 261.393 1.81734 -0.893257 0
M  V30 2756 C 261.721 1.8563 0.580656 0
M  V30 2757 O 260.976 1.31906 1.44566 0
M  V30 2758 C 261.275 3.27802 -1.42411 0
M  V30 2759 C 260.941 3.44041 -2.91456 0
M  V30 2760 C 259.603 3.48181 -3.3215 0
M  V30 2761 C 261.955 3.48719 -3.87356 0
M  V30 2762 C 259.283 3.54575 -4.67433 0
M  V30 2763 C 261.635 3.56648 -5.2248 0
M  V30 2764 C 260.299 3.59055 -5.62704 0
M  V30 2765 H 259.569 0.665011 -0.326866 0
M  V30 2766 H 262.216 1.2912 -1.41422 0
M  V30 2767 H 260.521 3.83042 -0.823795 0
M  V30 2768 H 262.218 3.82149 -1.21503 0
M  V30 2769 H 258.808 3.41502 -2.58987 0
M  V30 2770 H 262.992 3.44763 -3.57004 0
M  V30 2771 H 258.248 3.54725 -4.97976 0
M  V30 2772 H 262.422 3.59212 -5.96607 0
M  V30 2773 H 260.049 3.63763 -6.67518 0
M  V30 2774 N 261.624 0.925811 1.2754 0
M  V30 2775 C 262.574 0.394488 2.24561 0
M  V30 2776 C 263.558 -0.500183 1.52928 0
M  V30 2777 O 264.75 -0.337936 1.73744 0
M  V30 2778 C 261.879 -0.353328 3.41477 0
M  V30 2779 C 260.965 0.557752 4.20416 0
M  V30 2780 N 261.356 1.67674 4.77199 0
M  V30 2781 C 259.654 0.360404 4.44541 0
M  V30 2782 C 260.355 2.24324 5.36706 0
M  V30 2783 N 259.331 1.53305 5.21535 0
M  V30 2784 H 263.133 1.2489 2.66045 0
M  V30 2785 H 260.647 0.779864 1.4245 0
M  V30 2786 H 262.644 -0.7509 4.10082 0
M  V30 2787 H 261.304 -1.20469 3.01525 0
M  V30 2788 H 262.315 2.05915 4.75204 0
M  V30 2789 H 258.992 -0.450454 4.15063 0
M  V30 2790 H 260.382 3.18521 5.91603 0
M  V30 2791 N 263.102 -1.41638 0.69111 0
M  V30 2792 C 264.348 -2.01598 0.220519 0
M  V30 2793 C 264.681 -1.54594 -1.17535 0
M  V30 2794 O 263.956 -0.755177 -1.79241 0
M  V30 2795 C 264.239 -3.59062 0.273243 0
M  V30 2796 C 264.092 -4.16203 1.70573 0
M  V30 2797 C 265.411 -4.38546 -0.369457 0
M  V30 2798 H 262.53 -0.732468 0.0816045 0
M  V30 2799 H 265.172 -1.68445 0.878986 0
M  V30 2800 H 263.322 -3.87435 -0.287411 0
M  V30 2801 H 264.994 -3.98722 2.31989 0
M  V30 2802 H 263.237 -3.71414 2.2413 0
M  V30 2803 H 263.908 -5.25358 1.69419 0
M  V30 2804 H 266.384 -4.1596 0.107977 0
M  V30 2805 H 265.26 -5.48069 -0.302002 0
M  V30 2806 H 265.521 -4.17662 -1.44951 0
M  V30 2807 N 264.58 -0.43555 -1.51462 0
M  V30 2808 C 265.827 0.131514 -2.02072 0
M  V30 2809 C 266.155 1.42868 -1.31981 0
M  V30 2810 O 265.41 1.91076 -0.422883 0
M  V30 2811 C 265.709 0.39942 -3.55161 0
M  V30 2812 C 265.375 -0.81172 -4.43533 0
M  V30 2813 C 264.037 -1.14387 -4.67407 0
M  V30 2814 C 266.389 -1.61976 -4.95392 0
M  V30 2815 C 263.717 -2.28477 -5.40384 0
M  V30 2816 C 266.069 -2.75164 -5.6962 0
M  V30 2817 C 264.733 -3.08835 -5.91758 0
M  V30 2818 H 264.003 0.0481244 -0.739436 0
M  V30 2819 H 266.65 -0.58238 -1.8243 0
M  V30 2820 H 264.955 1.19519 -3.73125 0
M  V30 2821 H 266.652 0.85157 -3.91854 0
M  V30 2822 H 263.242 -0.542898 -4.25148 0
M  V30 2823 H 267.426 -1.37637 -4.76833 0
M  V30 2824 H 262.682 -2.5488 -5.55739 0
M  V30 2825 H 266.856 -3.38147 -6.08793 0
M  V30 2826 H 264.483 -3.97353 -6.48086 0
M  V30 2827 N 266.058 1.56714 -0.166846 0
M  V30 2828 C 267.008 2.14338 0.777382 0
M  V30 2829 C 267.992 1.07642 1.19591 0
M  V30 2830 O 269.184 1.33775 1.15902 0
M  V30 2831 C 266.313 2.78417 2.00846 0
M  V30 2832 C 265.399 3.92264 1.61212 0
M  V30 2833 N 265.79 4.97268 0.925104 0
M  V30 2834 C 264.088 4.03342 1.90346 0
M  V30 2835 C 264.789 5.77093 0.730627 0
M  V30 2836 N 263.765 5.2854 1.27067 0
M  V30 2837 H 267.567 2.9289 0.243466 0
M  V30 2838 H 265.081 1.62364 0.0339954 0
M  V30 2839 H 267.078 3.18073 2.69509 0
M  V30 2840 H 265.738 2.01344 2.54736 0
M  V30 2841 H 266.749 5.14601 0.583646 0
M  V30 2842 H 263.426 3.37368 2.45946 0
M  V30 2843 H 264.816 6.71638 0.187668 0
M  V30 2844 N 267.536 -0.106894 1.57237 0
M  V30 2845 C 268.952 -0.46078 1.52804 0
M  V30 2846 C 269.152 -1.81184 0.881746 0
M  V30 2847 O 268.208 -2.48102 0.469224 0
M  V30 2848 C 269.521 -0.434127 2.9755 0
M  V30 2849 C 271.069 -0.516821 3.08704 0
M  V30 2850 C 271.544 -0.520436 4.55033 0
M  V30 2851 N 273.035 -0.58153 4.59535 0
M  V30 2852 C 273.77 -0.605973 5.70189 0
M  V30 2853 N 273.266 -0.587331 6.90306 0
M  V30 2854 N 275.059 -0.649895 5.5833 0
M  V30 2855 H 267.21 0.778203 1.9763 0
M  V30 2856 H 269.473 0.288403 0.903066 0
M  V30 2857 H 269.179 0.491197 3.48253 0
M  V30 2858 H 269.053 -1.25748 3.55622 0
M  V30 2859 H 271.44 -1.43256 2.57995 0
M  V30 2860 H 271.521 0.334449 2.53604 0
M  V30 2861 H 271.165 0.391313 5.0639 0
M  V30 2862 H 271.095 -1.38876 5.07958 0
M  V30 2863 H 273.586 -0.60161 3.73081 0
M  V30 2864 H 273.899 -0.60894 7.70397 0
M  V30 2865 H 272.244 -0.554564 6.92784 0
M  V30 2866 H 275.435 -0.661907 4.63397 0
M  V30 2867 H 275.608 -0.665476 6.44574 0
M  V30 2868 N 269.014 -1.53014 -0.377408 0
M  V30 2869 C 269.961 -1.78616 -1.46168 0
M  V30 2870 C 270.931 -0.629917 -1.53692 0
M  V30 2871 O 272.116 -0.870861 -1.69766 0
M  V30 2872 C 269.256 -1.97123 -2.8326 0
M  V30 2873 C 268.369 -3.24831 -2.84796 0
M  V30 2874 C 267.504 -3.33591 -4.13389 0
M  V30 2875 C 266.543 -4.55377 -4.09021 0
M  V30 2876 N 265.68 -4.61355 -5.29241 0
M  V30 2877 H 270.52 -2.71142 -1.23637 0
M  V30 2878 H 268.057 -1.34326 -0.599577 0
M  V30 2879 H 270.015 -2.05839 -3.62886 0
M  V30 2880 H 268.645 -1.07946 -3.04216 0
M  V30 2881 H 267.697 -3.25128 -1.97474 0
M  V30 2882 H 269.009 -4.14523 -2.77439 0
M  V30 2883 H 268.163 -3.41554 -5.01424 0
M  V30 2884 H 266.902 -2.41894 -4.23484 0
M  V30 2885 H 265.907 -4.47527 -3.19373 0
M  V30 2886 H 267.132 -5.48402 -4.00539 0
M  V30 2887 H 265.078 -3.72554 -5.39944 0
M  V30 2888 H 264.995 -5.44935 -5.24006 0
M  V30 2889 H 266.263 -4.73586 -6.19141 0
M  V30 2890 N 270.492 0.636531 -1.44174 0
M  V30 2891 C 271.769 1.39463 -1.37148 0
M  V30 2892 C 272.149 2.11082 -0.027507 0
M  V30 2893 O 271.497 2.05954 0.989716 0
M  V30 2894 C 271.707 2.36552 -2.56601 0
M  V30 2895 C 273.055 3.00048 -3.00427 0
M  V30 2896 O 274.079 2.46878 -2.56767 0
M  V30 2897 O 272.938 3.96488 -3.76111 0
M  V30 2898 H 270.032 0.623903 -0.542839 0
M  V30 2899 H 272.578 0.662039 -1.56253 0
M  V30 2900 H 271.35 1.82692 -3.46034 0
M  V30 2901 H 270.973 3.17236 -2.39681 0
M  V30 2902 N 271.97 1.30982 0.876444 0
M  V30 2903 C 273.195 1.23373 1.66715 0
M  V30 2904 C 273.62 -0.19885 1.87046 0
M  V30 2905 O 272.978 -1.1427 1.40756 0
M  V30 2906 C 273.026 1.97644 3.01611 0
M  V30 2907 O 272.13 1.30935 3.91062 0
M  V30 2908 H 271.471 0.426279 0.509099 0
M  V30 2909 H 274.001 1.72944 1.09323 0
M  V30 2910 H 274.011 2.06992 3.51594 0
M  V30 2911 H 272.686 3.01829 2.86133 0
M  V30 2912 H 271.263 1.29996 3.49507 0
M  V30 2913 N 273.449 -1.08991 1.13837 0
M  V30 2914 C 274.865 -1.33312 0.877506 0
M  V30 2915 C 275.065 -1.95587 -0.48456 0
M  V30 2916 O 274.121 -2.20509 -1.23013 0
M  V30 2917 C 275.434 -2.24045 2.0056 0
M  V30 2918 C 276.982 -2.37542 2.03821 0
M  V30 2919 C 277.457 -3.31614 3.15905 0
M  V30 2920 N 278.948 -3.39189 3.15445 0
M  V30 2921 C 279.683 -4.11992 3.98811 0
M  V30 2922 N 279.179 -4.87553 4.92203 0
M  V30 2923 N 280.972 -4.07762 3.86894 0
M  V30 2924 H 273.123 -0.669456 2.01574 0
M  V30 2925 H 275.386 -0.357482 0.878015 0
M  V30 2926 H 275.092 -1.85521 2.98789 0
M  V30 2927 H 274.966 -3.24466 1.92359 0
M  V30 2928 H 277.353 -2.75327 1.06202 0
M  V30 2929 H 277.434 -1.36884 2.16093 0
M  V30 2930 H 277.078 -2.94551 4.13766 0
M  V30 2931 H 277.008 -4.32186 3.0087 0
M  V30 2932 H 279.499 -2.85314 2.47799 0
M  V30 2933 H 279.812 -5.40549 5.52292 0
M  V30 2934 H 278.157 -4.86627 4.96205 0
M  V30 2935 H 281.348 -3.47833 3.13257 0
M  V30 2936 H 281.521 -4.64238 4.52092 0
M  V30 2937 N 274.927 -0.932562 -1.27047 0
M  V30 2938 C 275.875 -0.42603 -2.28665 0
M  V30 2939 C 276.869 0.49219 -1.62092 0
M  V30 2940 O 278.075 0.371355 -1.76128 0
M  V30 2941 H 274.45 -0.119213 -0.742491 0
M  V30 2942 H 276.421 -1.29579 -2.68797 0
M  V30 2943 C 275.17 0.301426 -3.46391 0
M  V30 2944 H 274.493 -0.39595 -3.97834 0
M  V30 2945 H 275.933 0.6202 -4.1944 0
M  V30 2946 C 274.392 1.51616 -3.00856 0
M  V30 2947 O 274.922 2.61476 -3.04948 0
M  V30 2948 N 273.128 1.36969 -2.56296 0
M  V30 2949 H 272.675 0.475873 -2.53166 0
M  V30 2950 H 272.633 2.18368 -2.26192 0
M  V30 2951 N 276.405 1.4127 -0.698611 0
M  V30 2952 C 277.651 2.01478 -0.231207 0
M  V30 2953 C 277.984 1.55215 1.16713 0
M  V30 2954 O 277.259 0.764672 1.78838 0
M  V30 2955 C 277.542 3.58912 -0.292281 0
M  V30 2956 C 277.395 4.15293 -1.72778 0
M  V30 2957 C 278.714 4.38736 0.346194 0
M  V30 2958 H 275.833 0.732025 -0.0854878 0
M  V30 2959 H 278.475 1.67977 -0.887906 0
M  V30 2960 H 276.625 3.87582 0.26686 0
M  V30 2961 H 278.297 3.97486 -2.341 0
M  V30 2962 H 276.54 3.7022 -2.26096 0
M  V30 2963 H 277.211 5.24452 -1.72202 0
M  V30 2964 H 279.687 4.15897 -0.130035 0
M  V30 2965 H 278.563 5.48221 0.272932 0
M  V30 2966 H 278.824 4.18425 1.42734 0
M  V30 2967 N 277.883 0.443576 1.51229 0
M  V30 2968 C 279.13 -0.120796 2.02139 0
M  V30 2969 C 279.458 -1.42166 1.32736 0
M  V30 2970 O 278.713 -1.90849 0.43301 0
M  V30 2971 C 279.012 -0.380579 3.55368 0
M  V30 2972 C 278.678 0.83523 4.43097 0
M  V30 2973 C 277.34 1.16864 4.66794 0
M  V30 2974 C 279.692 1.64601 4.94526 0
M  V30 2975 C 277.02 2.31339 5.39165 0
M  V30 2976 C 279.372 2.78181 5.68153 0
M  V30 2977 C 278.036 3.11969 5.90112 0
M  V30 2978 H 277.306 -0.0442023 0.73968 0
M  V30 2979 H 279.953 0.592046 1.82118 0
M  V30 2980 H 278.258 -1.17538 3.73754 0
M  V30 2981 H 279.955 -0.830777 3.923 0
M  V30 2982 H 276.545 0.565437 4.24854 0
M  V30 2983 H 280.729 1.40163 4.76097 0
M  V30 2984 H 275.985 2.57823 5.5438 0
M  V30 2985 H 280.159 3.41371 6.06992 0
M  V30 2986 H 277.786 4.00784 6.45969 0
M  V30 2987 N 279.361 -1.56624 0.175154 0
M  V30 2988 C 280.291 -2.21155 -0.749195 0
M  V30 2989 C 281.272 -1.16836 -1.23626 0
M  V30 2990 O 282.457 -1.45277 -1.28873 0
M  V30 2991 C 279.587 -2.8553 -1.97711 0
M  V30 2992 C 278.541 -3.95921 -1.62575 0
M  V30 2993 C 277.867 -4.47365 -2.92864 0
M  V30 2994 C 279.167 -5.15323 -0.850838 0
M  V30 2995 H 280.861 -2.98653 -0.211295 0
M  V30 2996 H 278.407 -1.43651 -0.100188 0
M  V30 2997 H 280.36 -3.2935 -2.62881 0
M  V30 2998 H 279.084 -2.05406 -2.53921 0
M  V30 2999 H 277.743 -3.52762 -0.997719 0
M  V30 3000 H 277.391 -3.64027 -3.47122 0
M  V30 3001 H 277.091 -5.21839 -2.70106 0
M  V30 3002 H 278.615 -4.93873 -3.59056 0
M  V30 3003 H 280.029 -5.55812 -1.40521 0
M  V30 3004 H 278.426 -5.95739 -0.722154 0
M  V30 3005 H 279.496 -4.84661 0.152082 0
M  V30 3006 N 280.839 0.0985539 -1.57292 0
M  V30 3007 C 282.086 0.802678 -1.85912 0
M  V30 3008 C 282.414 1.78901 -0.763186 0
M  V30 3009 O 281.669 1.94178 0.243559 0
M  V30 3010 C 281.968 1.56927 -3.21105 0
M  V30 3011 C 281.634 0.725376 -4.45027 0
M  V30 3012 C 280.296 0.492726 -4.78671 0
M  V30 3013 C 282.648 0.138493 -5.21016 0
M  V30 3014 C 279.976 -0.336727 -5.85733 0
M  V30 3015 C 282.328 -0.678264 -6.28953 0
M  V30 3016 C 280.992 -0.921039 -6.61115 0
M  V30 3017 H 280.262 0.293721 -0.680301 0
M  V30 3018 H 282.909 0.0642841 -1.91392 0
M  V30 3019 H 281.214 2.37914 -3.11294 0
M  V30 3020 H 282.911 2.11841 -3.40477 0
M  V30 3021 H 279.501 0.916815 -4.18679 0
M  V30 3022 H 283.685 0.305404 -4.95359 0
M  V30 3023 H 278.941 -0.533836 -6.09065 0
M  V30 3024 H 283.115 -1.1399 -6.87007 0
M  V30 3025 H 280.742 -1.56556 -7.43905 0
M  V30 3026 N 282.317 1.53212 0.369288 0
M  V30 3027 C 283.264 1.79388 1.45219 0
M  V30 3028 C 284.234 0.638059 1.53356 0
M  V30 3029 O 285.419 0.879852 1.69302 0
M  V30 3030 C 282.559 1.98623 2.82211 0
M  V30 3031 C 281.672 3.26337 2.8307 0
M  V30 3032 C 280.807 3.35779 4.11614 0
M  V30 3033 C 279.846 4.5754 4.06601 0
M  V30 3034 N 278.983 4.64155 5.26787 0
M  V30 3035 H 283.823 2.71794 1.22198 0
M  V30 3036 H 281.36 1.34642 0.592444 0
M  V30 3037 H 283.318 2.07761 3.61789 0
M  V30 3038 H 281.948 1.09558 3.03639 0
M  V30 3039 H 281 3.26171 1.95747 0
M  V30 3040 H 282.312 4.15988 2.75237 0
M  V30 3041 H 281.466 3.44208 4.99606 0
M  V30 3042 H 280.205 2.44137 4.22195 0
M  V30 3043 H 279.21 4.49215 3.16996 0
M  V30 3044 H 280.435 5.50519 3.97625 0
M  V30 3045 H 278.381 3.75413 5.3796 0
M  V30 3046 H 278.298 5.47706 5.21109 0
M  V30 3047 H 279.566 4.76863 6.16621 0
M  V30 3048 N 283.795 -0.628877 1.44509 0
M  V30 3049 C 284.725 -1.75187 1.54376 0
M  V30 3050 C 285.706 -1.65411 0.396618 0
M  V30 3051 O 286.891 -1.84137 0.617031 0
M  V30 3052 C 284.021 -3.13725 1.48976 0
M  V30 3053 C 282.975 -3.38291 2.62189 0
M  V30 3054 C 282.301 -4.76883 2.41841 0
M  V30 3055 C 283.601 -3.30632 4.04326 0
M  V30 3056 H 285.295 -1.67187 2.48373 0
M  V30 3057 H 282.841 -0.802909 1.19538 0
M  V30 3058 H 284.794 -3.92064 1.54478 0
M  V30 3059 H 283.518 -3.22515 0.514961 0
M  V30 3060 H 282.177 -2.62334 2.56079 0
M  V30 3061 H 281.825 -4.82378 1.42548 0
M  V30 3062 H 281.525 -4.94278 3.17747 0
M  V30 3063 H 283.049 -5.57449 2.49165 0
M  V30 3064 H 284.463 -3.98873 4.11793 0
M  V30 3065 H 282.86 -3.59561 4.80454 0
M  V30 3066 H 283.93 -2.28404 4.27738 0
M  V30 3067 N 285.273 -1.31445 -0.869486 0
M  V30 3068 C 286.521 -1.20918 -1.61936 0
M  V30 3069 C 286.842 0.232683 -1.93607 0
M  V30 3070 O 286.112 1.15352 -1.58338 0
M  V30 3071 H 284.692 -0.44454 -0.600328 0
M  V30 3072 H 287.354 -1.64776 -1.0409 0
M  V30 3073 H 286.45 -1.78124 -2.56278 0
M  V30 3074 N 286.751 1.08385 -1.14413 0
M  V30 3075 C 287.999 1.80419 -0.910679 0
M  V30 3076 C 288.32 1.86658 0.564243 0
M  V30 3077 O 287.59 1.35985 1.41014 0
M  V30 3078 H 286.17 0.668204 -0.333934 0
M  V30 3079 H 288.832 1.31037 -1.44275 0
M  V30 3080 H 287.928 2.83238 -1.31082 0
M  V30 3081 N 288.23 0.939286 1.26551 0
M  V30 3082 C 289.476 0.586715 1.94128 0
M  V30 3083 C 289.809 -0.8717 1.73537 0
M  V30 3084 O 289.084 -1.62339 1.07127 0
M  V30 3085 C 289.367 0.927497 3.4795 0
M  V30 3086 C 289.22 2.44052 3.77834 0
M  V30 3087 C 290.539 0.441569 4.37879 0
M  V30 3088 H 287.658 0.21463 0.705055 0
M  V30 3089 H 290.3 1.17316 1.49455 0
M  V30 3090 H 288.45 0.428431 3.8613 0
M  V30 3091 H 290.122 3.01216 3.4938 0
M  V30 3092 H 288.365 2.8848 3.23978 0
M  V30 3093 H 289.036 2.62947 4.85348 0
M  V30 3094 H 291.512 0.869448 4.06915 0
M  V30 3095 H 290.388 0.708856 5.44304 0
M  V30 3096 H 290.649 -0.658467 4.37169 0
M  V30 3097 N 289.708 -1.40897 0.706093 0
M  V30 3098 C 290.936 -2.05373 0.250887 0
M  V30 3099 C 291.351 -1.53172 -1.10381 0
M  V30 3100 O 290.708 -0.684305 -1.69185 0
M  V30 3101 C 290.759 -3.6088 0.211571 0
M  V30 3102 O 290.48 -4.11153 1.51276 0
M  V30 3103 C 291.981 -4.42517 -0.263346 0
M  V30 3104 H 289.201 -0.66115 0.114552 0
M  V30 3105 H 291.745 -1.80479 0.961635 0
M  V30 3106 H 289.9 -3.84777 -0.450073 0
M  V30 3107 H 290.314 -5.05279 1.40689 0
M  V30 3108 H 291.788 -5.51479 -0.239718 0
M  V30 3109 H 292.265 -4.19396 -1.30397 0
M  V30 3110 H 292.871 -4.23708 0.367677 0
M  V30 3111 N 291.186 -0.45159 -1.50991 0
M  V30 3112 C 292.149 0.341117 -2.26647 0
M  V30 3113 C 293.149 0.937422 -1.30649 0
M  V30 3114 O 294.339 0.809644 -1.54241 0
M  V30 3115 C 291.471 1.48398 -3.06905 0
M  V30 3116 H 292.664 -0.322117 -2.98165 0
M  V30 3117 H 290.217 -0.205122 -1.54948 0
M  V30 3118 H 290.952 2.18284 -2.39838 0
M  V30 3119 H 290.737 1.06241 -3.77432 0
M  V30 3120 H 292.227 2.04367 -3.64176 0
M  V30 3121 N 292.664 1.56529 -0.183458 0
M  V30 3122 C 293.889 2.02064 0.467428 0
M  V30 3123 C 294.314 1.06282 1.55196 0
M  V30 3124 O 293.672 0.0443565 1.81246 0
M  V30 3125 C 293.72 3.46122 1.01153 0
M  V30 3126 O 292.824 3.53437 2.12499 0
M  V30 3127 H 292.165 0.654726 0.110588 0
M  V30 3128 H 294.695 2.02521 -0.290917 0
M  V30 3129 H 294.705 3.85676 1.33108 0
M  V30 3130 H 293.38 4.15331 0.217533 0
M  V30 3131 H 291.957 3.2575 1.81497 0
M  V30 3132 N 294.142 -0.090211 1.57342 0
M  V30 3133 C 295.389 -0.792807 1.86335 0
M  V30 3134 C 295.717 -1.78494 0.772662 0
M  V30 3135 O 294.972 -1.94305 -0.233258 0
M  V30 3136 C 295.271 -1.55222 3.21933 0
M  V30 3137 C 294.937 -0.701765 4.45406 0
M  V30 3138 C 293.599 -0.467334 4.78925 0
M  V30 3139 C 295.951 -0.11086 5.21082 0
M  V30 3140 C 293.279 0.367785 5.85546 0
M  V30 3141 C 295.631 0.711609 6.28585 0
M  V30 3142 C 294.295 0.956086 6.60617 0
M  V30 3143 H 293.565 -0.290109 0.681849 0
M  V30 3144 H 296.212 -0.0541332 1.91423 0
M  V30 3145 H 294.517 -2.3626 3.12551 0
M  V30 3146 H 296.214 -2.10032 3.41595 0
M  V30 3147 H 292.804 -0.894598 4.1916 0
M  V30 3148 H 296.988 -0.279129 4.95514 0
M  V30 3149 H 292.244 0.566128 6.08773 0
M  V30 3150 H 296.418 1.17632 6.86393 0
M  V30 3151 H 294.045 1.60499 7.43064 0
M  V30 3152 N 295.62 -1.53406 -0.361157 0
M  V30 3153 C 296.848 -1.73717 -1.12383 0
M  V30 3154 C 297.263 -0.468161 -1.82904 0
M  V30 3155 O 296.62 0.559198 -1.73722 0
M  V30 3156 C 296.671 -2.90558 -2.15078 0
M  V30 3157 O 296.392 -4.12549 -1.47428 0
M  V30 3158 C 297.893 -3.22777 -3.03858 0
M  V30 3159 H 295.113 -0.580896 -0.335858 0
M  V30 3160 H 297.657 -2.00167 -0.418728 0
M  V30 3161 H 295.812 -2.66489 -2.8118 0
M  V30 3162 H 296.226 -4.78009 -2.15887 0
M  V30 3163 H 297.7 -4.07927 -3.71887 0
M  V30 3164 H 298.177 -2.38329 -3.68912 0
M  V30 3165 H 298.783 -3.48787 -2.43367 0
M  V30 3166 N 297.098 0.621204 -1.44841 0
M  V30 3167 C 298.061 1.71459 -1.521 0
M  V30 3168 C 299.061 1.55696 -0.401933 0
M  V30 3169 O 300.251 1.61011 -0.664925 0
M  V30 3170 C 297.383 3.10624 -1.40447 0
M  V30 3171 H 298.576 1.66394 -2.49506 0
M  V30 3172 H 296.129 0.835745 -1.3208 0
M  V30 3173 H 296.864 3.21277 -0.441737 0
M  V30 3174 H 296.649 3.23473 -2.21602 0
M  V30 3175 H 298.139 3.90293 -1.4853 0
M  V30 3176 N 298.576 1.31904 0.862503 0
M  V30 3177 C 299.801 1.25135 1.65397 0
M  V30 3178 C 300.226 -0.179 1.87246 0
M  V30 3179 O 299.584 -1.1277 1.4196 0
M  V30 3180 C 299.632 2.00832 2.99498 0
M  V30 3181 O 298.736 1.35075 3.89652 0
M  V30 3182 H 298.077 0.431655 0.504549 0
M  V30 3183 H 300.607 1.74094 1.07483 0
M  V30 3184 H 300.617 2.10709 3.49379 0
M  V30 3185 H 299.292 3.04847 2.82916 0
M  V30 3186 H 297.869 1.33696 3.48109 0
M  V30 3187 N 300.054 -1.07777 1.14986 0
M  V30 3188 C 301.3 -1.80557 0.923422 0
M  V30 3189 C 301.633 -1.86298 -0.548337 0
M  V30 3190 O 300.908 -1.34354 -1.40639 0
M  V30 3191 C 301.191 -3.25839 1.53299 0
M  V30 3192 C 301.044 -3.28269 3.07505 0
M  V30 3193 C 302.363 -4.22991 1.21518 0
M  V30 3194 H 299.482 -0.655493 0.336894 0
M  V30 3195 H 302.124 -1.26144 1.42083 0
M  V30 3196 H 300.274 -3.72306 1.10999 0
M  V30 3197 H 301.946 -2.90079 3.58681 0
M  V30 3198 H 300.189 -2.67355 3.4162 0
M  V30 3199 H 300.86 -4.30691 3.45266 0
M  V30 3200 H 303.336 -3.84894 1.581 0
M  V30 3201 H 302.212 -5.22945 1.66793 0
M  V30 3202 H 302.473 -4.41904 0.131505 0
M  V30 3203 N 301.532 -0.945985 -1.26051 0
M  V30 3204 C 302.78 -0.594941 -1.93145 0
M  V30 3205 C 303.101 0.86953 -1.7454 0
M  V30 3206 O 302.371 1.61838 -1.10387 0
M  V30 3207 H 300.951 -0.217044 -0.714773 0
M  V30 3208 H 303.613 -1.20235 -1.53393 0
M  V30 3209 H 302.709 -0.816835 -3.01221 0
M  V30 3210 N 303.011 1.40521 -0.713556 0
M  V30 3211 C 304.236 2.05759 -0.26035 0
M  V30 3212 C 304.661 1.53403 1.08854 0
M  V30 3213 O 304.019 0.668535 1.68524 0
M  V30 3214 C 304.067 3.59745 -0.248122 0
M  V30 3215 O 303.171 4.05123 0.77131 0
M  V30 3216 H 302.512 0.652564 -0.122703 0
M  V30 3217 H 305.042 1.79958 -0.973467 0
M  V30 3218 H 305.052 4.07911 -0.0851129 0
M  V30 3219 H 303.727 3.97218 -1.2325 0
M  V30 3220 H 302.304 3.68422 0.57619 0
M  V30 3221 N 304.489 0.459591 1.5075 0
M  V30 3222 C 305.419 -0.330644 2.31147 0
M  V30 3223 C 306.4 -1.00087 1.37538 0
M  V30 3224 O 307.585 -1.00025 1.66459 0
M  V30 3225 C 304.715 -1.41958 3.16962 0
M  V30 3226 C 303.669 -0.871608 4.19031 0
M  V30 3227 C 302.995 -2.05797 4.9351 0
M  V30 3228 C 304.295 0.109251 5.22186 0
M  V30 3229 H 305.989 0.340336 2.97459 0
M  V30 3230 H 303.535 0.165119 1.4305 0
M  V30 3231 H 305.488 -1.9798 3.71997 0
M  V30 3232 H 304.212 -2.11917 2.48513 0
M  V30 3233 H 302.871 -0.333442 3.6508 0
M  V30 3234 H 302.519 -2.74427 4.21544 0
M  V30 3235 H 302.219 -1.6976 5.62544 0
M  V30 3236 H 303.743 -2.62331 5.51375 0
M  V30 3237 H 305.157 -0.361405 5.7216 0
M  V30 3238 H 303.554 0.383316 5.98875 0
M  V30 3239 H 304.624 1.03887 4.73641 0
M  V30 3240 N 305.967 -1.56429 0.191757 0
M  V30 3241 C 307.214 -1.97485 -0.447891 0
M  V30 3242 C 307.542 -1.07852 -1.61859 0
M  V30 3243 O 306.797 -0.116903 -1.95351 0
M  V30 3244 C 307.096 -3.44449 -0.953384 0
M  V30 3245 C 306.762 -4.50781 0.103586 0
M  V30 3246 C 305.424 -4.79584 0.394023 0
M  V30 3247 C 307.776 -5.1471 0.819946 0
M  V30 3248 C 305.104 -5.69607 1.40585 0
M  V30 3249 C 307.456 -6.05827 1.8209 0
M  V30 3250 C 306.12 -6.32987 2.11857 0
M  V30 3251 H 305.39 -0.722648 -0.163895 0
M  V30 3252 H 308.037 -1.89322 0.28802 0
M  V30 3253 H 306.342 -3.49666 -1.76751 0
M  V30 3254 H 308.039 -3.73569 -1.45765 0
M  V30 3255 H 304.629 -4.28394 -0.132951 0
M  V30 3256 H 308.813 -4.92552 0.608789 0
M  V30 3257 H 304.069 -5.88926 1.64243 0
M  V30 3258 H 308.243 -6.54424 2.38123 0
M  V30 3259 H 305.87 -7.02544 2.90407 0
M  V30 3260 N 307.445 0.0818655 -1.57387 0
M  V30 3261 C 308.375 1.09885 -2.06028 0
M  V30 3262 C 309.356 1.4098 -0.951774 0
M  V30 3263 O 310.541 1.50781 -1.22387 0
M  V30 3264 C 307.671 2.4151 -2.4958 0
M  V30 3265 C 306.625 2.24792 -3.64215 0
M  V30 3266 C 305.951 3.61712 -3.93787 0
M  V30 3267 C 307.251 1.67749 -4.94629 0
M  V30 3268 H 308.945 0.694128 -2.91243 0
M  V30 3269 H 306.491 0.332448 -1.4011 0
M  V30 3270 H 308.444 3.12939 -2.82219 0
M  V30 3271 H 307.168 2.83943 -1.61381 0
M  V30 3272 H 305.827 1.55807 -3.31843 0
M  V30 3273 H 305.475 4.01697 -3.02735 0
M  V30 3274 H 305.175 3.51368 -4.70971 0
M  V30 3275 H 306.699 4.34587 -4.28913 0
M  V30 3276 H 308.113 2.29032 -5.25564 0
M  V30 3277 H 306.51 1.68128 -5.76067 0
M  V30 3278 H 307.58 0.638059 -4.80684 0
M  V30 3279 N 308.923 1.53595 0.353017 0
M  V30 3280 C 310.151 1.74311 1.1146 0
M  V30 3281 C 310.566 0.477854 1.82653 0
M  V30 3282 O 309.923 -0.549977 1.74016 0
M  V30 3283 C 309.974 2.91694 2.13534 0
M  V30 3284 O 309.695 4.13325 1.45238 0
M  V30 3285 C 311.196 3.24384 3.02142 0
M  V30 3286 H 308.416 0.582669 0.332773 0
M  V30 3287 H 310.96 2.00386 0.408107 0
M  V30 3288 H 309.115 2.67977 2.79763 0
M  V30 3289 H 309.529 4.79148 2.13349 0
M  V30 3290 H 311.003 4.09893 3.69718 0
M  V30 3291 H 311.48 2.40282 3.67643 0
M  V30 3292 H 312.086 3.50073 2.41514 0
M  V30 3293 N 310.401 -0.613514 1.45168 0
M  V30 3294 C 311.364 -1.7065 1.53007 0
M  V30 3295 C 312.364 -1.5548 0.410184 0
M  V30 3296 O 313.554 -1.60656 0.673455 0
M  V30 3297 C 310.686 -3.09875 1.42093 0
M  V30 3298 H 311.879 -1.65068 2.50385 0
M  V30 3299 H 309.432 -0.828728 1.32521 0
M  V30 3300 H 310.167 -3.21039 0.458769 0
M  V30 3301 H 309.952 -3.22293 2.23315 0
M  V30 3302 H 311.442 -3.895 1.50598 0
M  V30 3303 N 311.879 -1.3236 -0.855495 0
M  V30 3304 C 313.128 -1.22226 -1.60448 0
M  V30 3305 C 313.441 0.214733 -1.94418 0
M  V30 3306 O 314.647 0.437917 -2.67945 0
M  V30 3307 C 313.103 -2.14063 -2.89318 0
M  V30 3308 C 312.711 -3.62839 -2.62777 0
M  V30 3309 C 314.455 -2.12764 -3.67331 0
M  V30 3310 C 312.362 -4.4664 -3.87643 0
M  V30 3311 H 311.292 -0.453904 -0.602069 0
M  V30 3312 H 313.943 -1.57314 -0.944698 0
M  V30 3313 H 312.325 -1.71889 -3.5675 0
M  V30 3314 H 313.499 -4.1335 -2.03662 0
M  V30 3315 H 311.814 -3.66261 -1.98096 0
M  V30 3316 H 314.411 -2.72611 -4.59987 0
M  V30 3317 H 314.754 -1.11841 -4.00995 0
M  V30 3318 H 315.287 -2.53214 -3.06802 0
M  V30 3319 H 312.026 -5.48373 -3.5912 0
M  V30 3320 H 311.546 -4.0088 -4.46156 0
M  V30 3321 H 313.225 -4.59597 -4.55389 0
M  V30 3322 N 313.357 1.07166 -1.15556 0
M  V30 3323 C 314.634 1.76546 -0.842069 0
M  V30 3324 C 315.014 2.00453 0.661939 0
M  V30 3325 O 314.362 1.62452 1.60691 0
M  V30 3326 C 314.572 3.07266 -1.65495 0
M  V30 3327 C 315.92 3.81578 -1.86234 0
M  V30 3328 O 316.944 3.17083 -1.62287 0
M  V30 3329 O 315.803 4.97419 -2.26355 0
M  V30 3330 H 312.897 0.766756 -0.309862 0
M  V30 3331 H 315.443 1.13514 -1.26145 0
M  V30 3332 H 314.215 2.85494 -2.67598 0
M  V30 3333 H 313.838 3.7803 -1.23203 0
M  V30 3334 N 314.835 0.952656 1.25548 0
M  V30 3335 C 316.251 0.656769 1.4546 0
M  V30 3336 C 316.451 -0.78633 1.85524 0
M  V30 3337 O 315.507 -1.56183 1.98402 0
M  V30 3338 C 316.82 1.62801 2.52817 0
M  V30 3339 C 318.368 1.63897 2.66659 0
M  V30 3340 C 318.843 2.5978 3.77198 0
M  V30 3341 N 320.334 2.58133 3.84606 0
M  V30 3342 C 321.069 3.29003 4.69621 0
M  V30 3343 N 320.565 4.09339 5.58939 0
M  V30 3344 N 322.358 3.179 4.63569 0
M  V30 3345 H 314.509 1.88526 0.978344 0
M  V30 3346 H 316.772 0.810815 0.491206 0
M  V30 3347 H 316.478 2.65869 2.30232 0
M  V30 3348 H 316.352 1.38898 3.50695 0
M  V30 3349 H 318.739 0.615481 2.8861 0
M  V30 3350 H 318.82 1.91858 1.69187 0
M  V30 3351 H 318.464 3.62254 3.55997 0
M  V30 3352 H 318.394 2.29105 4.7415 0
M  V30 3353 H 320.885 1.99809 3.20757 0
M  V30 3354 H 321.198 4.6034 6.20731 0
M  V30 3355 H 319.543 4.13438 5.58654 0
M  V30 3356 H 322.734 2.54612 3.92798 0
M  V30 3357 H 322.907 3.73398 5.29602 0
M  V30 3358 N 316.313 -1.40141 0.720998 0
M  V30 3359 C 317.543 -2.04798 0.27226 0
M  V30 3360 C 317.951 -1.54442 -1.09289 0
M  V30 3361 O 317.294 -0.698342 -1.69908 0
M  V30 3362 C 317.356 -3.59048 0.18027 0
M  V30 3363 C 317.02 -4.32317 1.48159 0
M  V30 3364 C 318.017 -4.59902 2.42458 0
M  V30 3365 C 315.702 -4.71125 1.74202 0
M  V30 3366 C 317.696 -5.25288 3.61042 0
M  V30 3367 C 315.383 -5.36242 2.93066 0
M  V30 3368 C 316.381 -5.63254 3.86308 0
M  V30 3369 O 316.069 -6.27024 5.03086 0
M  V30 3370 H 315.801 -0.665419 0.119139 0
M  V30 3371 H 318.355 -1.80436 0.981432 0
M  V30 3372 H 316.585 -3.82251 -0.58489 0
M  V30 3373 H 318.274 -4.05221 -0.234618 0
M  V30 3374 H 319.04 -4.30379 2.23604 0
M  V30 3375 H 314.919 -4.49466 1.02477 0
M  V30 3376 H 318.463 -5.46289 4.33837 0
M  V30 3377 H 314.36 -5.65185 3.11826 0
M  V30 3378 H 315.128 -6.4552 5.03235 0
M  V30 3379 N 317.792 -0.46758 -1.50504 0
M  V30 3380 C 319.041 0.0902868 -2.01498 0
M  V30 3381 C 319.354 1.411 -1.35463 0
M  V30 3382 O 320.56 2.0536 -1.77594 0
M  V30 3383 C 319.016 0.21142 -3.59278 0
M  V30 3384 C 318.624 -1.10065 -4.34269 0
M  V30 3385 C 320.368 0.721433 -4.18325 0
M  V30 3386 C 318.275 -0.943505 -5.83825 0
M  V30 3387 H 317.205 0.037517 -0.753066 0
M  V30 3388 H 319.856 -0.601943 -1.73346 0
M  V30 3389 H 318.238 0.967352 -3.84003 0
M  V30 3390 H 319.412 -1.86726 -4.21272 0
M  V30 3391 H 317.727 -1.5415 -3.86816 0
M  V30 3392 H 320.324 0.85598 -5.27804 0
M  V30 3393 H 320.667 1.71186 -3.79475 0
M  V30 3394 H 321.2 0.0229843 -3.97793 0
M  V30 3395 H 317.939 -1.90719 -6.27141 0
M  V30 3396 H 317.459 -0.217213 -5.99407 0
M  V30 3397 H 319.138 -0.608715 -6.4413 0
M  V30 3398 N 319.27 1.56325 -0.20005 0
M  V30 3399 C 320.495 2.02548 0.44597 0
M  V30 3400 C 320.92 1.07922 1.5406 0
M  V30 3401 O 320.278 0.0635775 1.81188 0
M  V30 3402 C 320.326 3.47175 0.974761 0
M  V30 3403 O 319.43 3.55671 2.08739 0
M  V30 3404 H 318.771 0.655862 0.103638 0
M  V30 3405 H 321.301 2.02201 -0.312381 0
M  V30 3406 H 321.311 3.87067 1.2901 0
M  V30 3407 H 319.986 4.15538 0.17347 0
M  V30 3408 H 318.563 3.27657 1.78032 0
M  V30 3409 N 320.748 -0.0735177 1.57428 0
M  V30 3410 C 321.997 -0.771809 1.86349 0
M  V30 3411 C 322.31 -1.78828 0.792452 0
M  V30 3412 O 323.516 -2.53602 0.96945 0
M  V30 3413 C 321.972 -1.42358 3.30548 0
M  V30 3414 C 321.58 -0.445761 4.45777 0
M  V30 3415 C 323.324 -2.10434 3.6867 0
M  V30 3416 C 321.231 -1.10335 5.81016 0
M  V30 3417 H 320.161 -0.291999 0.695164 0
M  V30 3418 H 322.812 -0.0250749 1.83483 0
M  V30 3419 H 321.194 -2.21852 3.28021 0
M  V30 3420 H 322.368 0.319239 4.59693 0
M  V30 3421 H 320.683 0.130457 4.16196 0
M  V30 3422 H 323.28 -2.60405 4.67004 0
M  V30 3423 H 323.623 -2.90298 2.98383 0
M  V30 3424 H 324.156 -1.37773 3.7318 0
M  V30 3425 H 320.895 -0.345061 6.54591 0
M  V30 3426 H 320.415 -1.83925 5.70904 0
M  V30 3427 H 322.094 -1.62367 6.26295 0
M  V30 3428 N 322.226 -1.5378 -0.344866 0
M  V30 3429 C 323.176 -1.78057 -1.42407 0
M  V30 3430 C 324.16 -0.635732 -1.47808 0
M  V30 3431 O 325.352 -0.89508 -1.527 0
M  V30 3432 C 322.481 -1.99242 -2.79566 0
M  V30 3433 C 321.567 -3.19787 -2.78562 0
M  V30 3434 N 321.958 -4.41284 -2.47189 0
M  V30 3435 C 320.256 -3.2093 -3.0971 0
M  V30 3436 C 320.957 -5.23128 -2.54385 0
M  V30 3437 N 319.933 -4.59813 -2.89953 0
M  V30 3438 H 323.735 -2.69588 -1.17046 0
M  V30 3439 H 321.249 -1.52687 -0.553217 0
M  V30 3440 H 323.246 -2.14768 -3.57324 0
M  V30 3441 H 321.906 -1.08953 -3.05875 0
M  V30 3442 H 322.917 -4.68657 -2.20411 0
M  V30 3443 H 319.594 -2.40603 -3.41199 0
M  V30 3444 H 320.984 -6.30096 -2.333 0
M  V30 3445 N 323.704 0.605807 -1.45491 0
M  V30 3446 C 325.12 0.926751 -1.29936 0
M  V30 3447 C 325.32 1.99896 -0.253706 0
M  V30 3448 O 324.376 2.50038 0.351737 0
M  V30 3449 C 325.689 1.36599 -2.67883 0
M  V30 3450 C 327.237 1.4801 -2.75793 0
M  V30 3451 C 327.712 1.95309 -4.14268 0
M  V30 3452 N 329.203 2.0254 -4.16571 0
M  V30 3453 C 329.938 2.40363 -5.20589 0
M  V30 3454 N 329.434 2.77143 -6.34952 0
M  V30 3455 N 331.227 2.40718 -5.07948 0
M  V30 3456 H 323.378 -0.102862 -2.12151 0
M  V30 3457 H 325.641 0.016639 -0.947854 0
M  V30 3458 H 325.347 0.652306 -3.45598 0
M  V30 3459 H 325.221 2.33215 -2.96463 0
M  V30 3460 H 327.608 2.1847 -1.98381 0
M  V30 3461 H 327.689 0.497041 -2.50925 0
M  V30 3462 H 327.333 1.25436 -4.92167 0
M  V30 3463 H 327.263 2.94532 -4.3653 0
M  V30 3464 H 329.754 1.76699 -3.34045 0
M  V30 3465 H 330.067 3.0489 -7.10114 0
M  V30 3466 H 328.412 2.74834 -6.3835 0
M  V30 3467 H 331.603 2.11392 -4.1765 0
M  V30 3468 H 331.776 2.69869 -5.89131 0
M  V30 3469 N 325.182 1.32811 0.848464 0
M  V30 3470 C 326.593 1.21315 1.41914 0
M  V30 3471 C 326.944 -0.171847 1.95446 0
M  V30 3472 O 326.069 -1.07093 1.88043 0
M  V30 3473 C 326.664 2.19631 2.57968 0
M  V30 3474 C 325.223 2.12003 3.11017 0
M  V30 3475 C 324.37 2.07651 1.83783 0
M  V30 3476 H 327.321 1.44549 0.655071 0
M  V30 3477 H 327.342 1.79845 3.35315 0
M  V30 3478 H 326.854 3.20423 2.18976 0
M  V30 3479 H 324.955 1.14481 3.54577 0
M  V30 3480 H 325.068 3.02111 3.71841 0
M  V30 3481 H 323.432 1.52983 2.03638 0
M  V30 3482 H 324.215 3.10235 1.47 0
M  V30 3483 N 326.66 -1.06551 1.16123 0
M  V30 3484 C 327.59 -2.15935 0.88851 0
M  V30 3485 C 328.571 -1.69306 -0.164135 0
M  V30 3486 O 329.756 -1.94193 -0.0167857 0
M  V30 3487 C 326.886 -3.45149 0.385942 0
M  V30 3488 C 325.84 -4.05271 1.3762 0
M  V30 3489 C 325.166 -5.29664 0.732137 0
M  V30 3490 C 326.466 -4.44355 2.74493 0
M  V30 3491 H 328.16 -2.39006 1.80323 0
M  V30 3492 H 325.706 -1.14866 0.868435 0
M  V30 3493 H 327.659 -4.21004 0.182647 0
M  V30 3494 H 326.383 -3.21689 -0.564274 0
M  V30 3495 H 325.042 -3.3147 1.56599 0
M  V30 3496 H 324.69 -5.02499 -0.224483 0
M  V30 3497 H 324.39 -5.70848 1.39307 0
M  V30 3498 H 325.914 -6.08218 0.538802 0
M  V30 3499 H 327.328 -5.11303 2.59311 0
M  V30 3500 H 325.725 -4.96515 3.37035 0
M  V30 3501 H 326.795 -3.55339 3.29943 0
M  V30 3502 N 328.138 -0.959301 -1.25041 0
M  V30 3503 C 329.101 -0.487677 -2.23952 0
M  V30 3504 C 330.101 0.41119 -1.55454 0
M  V30 3505 O 331.291 0.207825 -1.72956 0
M  V30 3506 C 328.423 0.294807 -3.39623 0
M  V30 3507 H 329.616 -1.36198 -2.67189 0
M  V30 3508 H 327.169 -0.743042 -1.37508 0
M  V30 3509 H 327.904 1.18658 -3.01813 0
M  V30 3510 H 327.689 -0.35012 -3.90534 0
M  V30 3511 H 329.179 0.614089 -4.1306 0
M  V30 3512 N 329.616 1.39756 -0.72842 0
M  V30 3513 C 330.846 2.04651 -0.283117 0
M  V30 3514 C 331.254 1.5502 1.08469 0
M  V30 3515 O 330.597 0.707343 1.69536 0
M  V30 3516 C 330.659 3.58947 -0.199309 0
M  V30 3517 C 330.323 4.31525 -1.5045 0
M  V30 3518 C 331.32 4.5861 -2.44894 0
M  V30 3519 C 329.005 4.70195 -1.76698 0
M  V30 3520 C 330.999 5.23366 -3.63822 0
M  V30 3521 C 328.686 5.3468 -2.95906 0
M  V30 3522 C 329.684 5.61198 -3.89289 0
M  V30 3523 O 329.372 6.24347 -5.06404 0
M  V30 3524 H 329.104 0.664777 -0.122666 0
M  V30 3525 H 331.658 1.79913 -0.990987 0
M  V30 3526 H 329.888 3.82556 0.56461 0
M  V30 3527 H 331.577 4.0534 0.213125 0
M  V30 3528 H 332.343 4.29187 -2.25883 0
M  V30 3529 H 328.222 4.48916 -1.04859 0
M  V30 3530 H 331.766 5.4398 -4.36728 0
M  V30 3531 H 327.663 5.63524 -3.14819 0
M  V30 3532 H 328.431 6.42842 -5.06652 0
M  V30 3533 N 331.094 0.475555 1.50254 0
M  V30 3534 C 332.041 -0.316293 2.28622 0
M  V30 3535 C 333.011 -0.983227 1.33873 0
M  V30 3536 O 334.196 -0.994805 1.62814 0
M  V30 3537 C 331.336 -1.38975 3.1588 0
M  V30 3538 C 330.449 -0.737146 4.25664 0
M  V30 3539 C 329.584 -1.78887 5.00173 0
M  V30 3540 C 328.623 -1.11676 6.01826 0
M  V30 3541 N 327.76 -2.11154 6.69596 0
M  V30 3542 H 332.6 0.358297 2.95838 0
M  V30 3543 H 330.137 0.188541 1.45887 0
M  V30 3544 H 332.095 -2.02383 3.64825 0
M  V30 3545 H 330.725 -2.03344 2.50701 0
M  V30 3546 H 329.777 0.0096065 3.80399 0
M  V30 3547 H 331.089 -0.206816 4.98371 0
M  V30 3548 H 330.243 -2.49865 5.52859 0
M  V30 3549 H 328.982 -2.35302 4.27182 0
M  V30 3550 H 327.987 -0.392633 5.48396 0
M  V30 3551 H 329.212 -0.55945 6.76792 0
M  V30 3552 H 327.158 -2.66577 5.99394 0
M  V30 3553 H 327.075 -1.63118 7.38193 0
M  V30 3554 H 328.343 -2.81497 7.26897 0
M  V30 3555 N 332.573 -1.56217 0.208337 0
M  V30 3556 C 333.989 -1.58919 -0.14729 0
M  V30 3557 C 334.189 -1.22486 -1.59998 0
M  V30 3558 O 333.245 -0.953849 -2.3379 0
M  V30 3559 C 334.558 -3.00236 0.167048 0
M  V30 3560 C 336.106 -3.12813 0.108219 0
M  V30 3561 C 336.581 -4.56284 0.396049 0
M  V30 3562 N 338.072 -4.61912 0.345142 0
M  V30 3563 C 338.807 -5.70837 0.541523 0
M  V30 3564 N 338.303 -6.88178 0.798968 0
M  V30 3565 N 340.096 -5.60091 0.474867 0
M  V30 3566 H 332.247 -1.78177 1.15614 0
M  V30 3567 H 334.51 -0.827555 0.462446 0
M  V30 3568 H 334.216 -3.31499 1.1748 0
M  V30 3569 H 334.09 -3.7354 -0.524184 0
M  V30 3570 H 336.477 -2.81354 -0.890157 0
M  V30 3571 H 336.558 -2.41866 0.832729 0
M  V30 3572 H 336.202 -4.88458 1.3918 0
M  V30 3573 H 336.132 -5.25439 -0.349502 0
M  V30 3574 H 338.623 -3.77589 0.153316 0
M  V30 3575 H 338.936 -7.67095 0.93727 0
M  V30 3576 H 337.281 -6.89953 0.836013 0
M  V30 3577 H 340.472 -4.67297 0.274064 0
M  V30 3578 H 340.645 -6.44917 0.631326 0
M  V30 3579 N 334.051 0.0651679 -1.57465 0
M  V30 3580 C 335.3 0.761916 -1.86756 0
M  V30 3581 C 335.613 1.78406 -0.801925 0
M  V30 3582 O 336.819 2.53084 -0.982885 0
M  V30 3583 C 335.275 1.40603 -3.31299 0
M  V30 3584 C 334.883 0.422115 -4.46007 0
M  V30 3585 C 336.627 2.08476 -3.69781 0
M  V30 3586 C 334.534 1.07252 -5.81593 0
M  V30 3587 H 333.464 0.288308 -0.696702 0
M  V30 3588 H 336.115 0.015344 -1.83494 0
M  V30 3589 H 334.497 2.20109 -3.29193 0
M  V30 3590 H 335.671 -0.343613 -4.59517 0
M  V30 3591 H 333.986 -0.152527 -4.16121 0
M  V30 3592 H 336.583 2.57925 -4.68379 0
M  V30 3593 H 336.926 2.88712 -2.99919 0
M  V30 3594 H 337.459 1.35792 -3.73905 0
M  V30 3595 H 334.198 0.310342 -6.54765 0
M  V30 3596 H 333.718 1.80895 -5.71872 0
M  V30 3597 H 335.397 1.59043 -6.27148 0
M  V30 3598 N 335.529 1.53961 0.336706 0
M  V30 3599 C 336.775 1.7179 1.07777 0
M  V30 3600 C 337.108 0.483263 1.88091 0
M  V30 3601 O 336.383 -0.519747 1.87427 0
M  V30 3602 C 336.666 2.98558 2.01334 0
M  V30 3603 C 336.519 4.32245 1.24437 0
M  V30 3604 C 337.838 3.21023 3.01052 0
M  V30 3605 H 334.957 0.625089 0.390426 0
M  V30 3606 H 337.599 1.86641 0.35567 0
M  V30 3607 H 335.749 2.86028 2.62908 0
M  V30 3608 H 337.421 4.56637 0.654243 0
M  V30 3609 H 335.664 4.30344 0.546458 0
M  V30 3610 H 336.335 5.17137 1.93063 0
M  V30 3611 H 338.811 3.32929 2.49595 0
M  V30 3612 H 337.687 4.11104 3.6371 0
M  V30 3613 H 337.948 2.37637 3.72802 0
M  V30 3614 N 337.007 -0.598083 1.45811 0
M  V30 3615 C 338.235 -1.38322 1.53866 0
M  V30 3616 C 338.65 -1.87992 0.174479 0
M  V30 3617 O 338.007 -1.62756 -0.825627 0
M  V30 3618 C 338.058 -2.58125 2.53089 0
M  V30 3619 O 337.779 -2.10516 3.84206 0
M  V30 3620 C 339.28 -3.50869 2.70935 0
M  V30 3621 H 336.5 -0.423093 0.520801 0
M  V30 3622 H 339.044 -0.728527 1.91083 0
M  V30 3623 H 337.199 -3.19615 2.18917 0
M  V30 3624 H 337.613 -2.88425 4.38077 0
M  V30 3625 H 339.087 -4.31451 3.44317 0
M  V30 3626 H 339.564 -4.01822 1.77301 0
M  V30 3627 H 340.17 -2.95225 3.06141 0
M  V30 3628 N 338.485 -1.33259 -0.841409 0
M  V30 3629 C 339.901 -1.12538 -1.13169 0
M  V30 3630 C 340.101 0.0854037 -2.01319 0
M  V30 3631 O 339.157 0.766417 -2.40587 0
M  V30 3632 C 340.47 -2.41156 -1.79623 0
M  V30 3633 C 342.018 -2.47038 -1.922 0
M  V30 3634 C 342.493 -3.7561 -2.6207 0
M  V30 3635 N 343.984 -3.76667 -2.69585 0
M  V30 3636 C 344.719 -4.72861 -3.2433 0
M  V30 3637 N 344.215 -5.79428 -3.79783 0
M  V30 3638 N 346.008 -4.6034 -3.22558 0
M  V30 3639 H 338.159 -2.10868 -0.254676 0
M  V30 3640 H 340.422 -0.931615 -0.175493 0
M  V30 3641 H 340.128 -3.29747 -1.22311 0
M  V30 3642 H 340.002 -2.53114 -2.79666 0
M  V30 3643 H 342.389 -1.58898 -2.48667 0
M  V30 3644 H 342.47 -2.39022 -0.911148 0
M  V30 3645 H 342.114 -4.64131 -2.06263 0
M  V30 3646 H 342.044 -3.80902 -3.63622 0
M  V30 3647 H 344.535 -2.99648 -2.30259 0
M  V30 3648 H 344.848 -6.48867 -4.19752 0
M  V30 3649 H 343.193 -5.83166 -3.78078 0
M  V30 3650 H 346.384 -3.76244 -2.78492 0
M  V30 3651 H 346.557 -5.35478 -3.64921 0
M  V30 3652 N 339.963 1.05934 -1.16686 0
M  V30 3653 C 341.374 1.60263 -0.957745 0
M  V30 3654 C 341.725 1.89789 0.49745 0
M  V30 3655 O 340.85 1.67401 1.37135 0
M  V30 3656 C 341.445 2.91172 -1.73218 0
M  V30 3657 C 340.004 3.42188 -1.56794 0
M  V30 3658 C 339.151 2.16028 -1.73859 0
M  V30 3659 H 342.102 0.888392 -1.31504 0
M  V30 3660 H 342.123 3.60744 -1.21014 0
M  V30 3661 H 341.635 2.6965 -2.79124 0
M  V30 3662 H 339.736 3.68762 -0.533437 0
M  V30 3663 H 339.849 4.17273 -2.35414 0
M  V30 3664 H 338.213 2.26426 -1.16633 0
M  V30 3665 H 338.996 1.96985 -2.81161 0
M  V30 3666 N 341.441 0.965919 1.2453 0
M  V30 3667 C 342.388 0.49402 2.25451 0
M  V30 3668 C 343.358 -0.45948 1.59618 0
M  V30 3669 O 344.543 -0.370238 1.87173 0
M  V30 3670 C 341.683 -0.211359 3.44452 0
M  V30 3671 C 340.796 0.7807 4.24887 0
M  V30 3672 C 339.931 0.0516105 5.31175 0
M  V30 3673 C 338.97 1.03385 6.03306 0
M  V30 3674 N 338.107 0.334887 7.01301 0
M  V30 3675 H 342.947 1.35946 2.65184 0
M  V30 3676 H 340.484 0.681515 1.3036 0
M  V30 3677 H 342.442 -0.637 4.12308 0
M  V30 3678 H 341.072 -1.04077 3.05562 0
M  V30 3679 H 340.124 1.32479 3.56586 0
M  V30 3680 H 341.436 1.52978 4.74762 0
M  V30 3681 H 340.59 -0.432114 6.05159 0
M  V30 3682 H 339.329 -0.730179 4.82203 0
M  V30 3683 H 338.334 1.52847 5.28127 0
M  V30 3684 H 339.559 1.81606 6.54367 0
M  V30 3685 H 337.505 -0.427959 6.54603 0
M  V30 3686 H 337.422 1.02287 7.49048 0
M  V30 3687 H 338.69 -0.126928 7.79397 0
M  V30 3688 N 342.919 -1.39368 0.735821 0
M  V30 3689 C 343.882 -2.2896 0.104874 0
M  V30 3690 C 344.882 -1.46347 -0.666274 0
M  V30 3691 O 346.072 -1.67014 -0.49517 0
M  V30 3692 C 343.204 -3.29857 -0.860656 0
M  V30 3693 H 344.397 -2.86259 0.894205 0
M  V30 3694 H 341.95 -1.48029 0.501704 0
M  V30 3695 H 342.685 -2.77615 -1.67631 0
M  V30 3696 H 342.47 -3.9087 -0.310327 0
M  V30 3697 H 343.96 -3.96893 -1.29867 0
M  V30 3698 N 344.397 -0.483516 -1.5 0
M  V30 3699 C 345.643 0.0672592 -2.02688 0
M  V30 3700 C 345.976 1.38247 -1.36387 0
M  V30 3701 O 345.251 1.88131 -0.493675 0
M  V30 3702 C 345.534 0.238109 -3.59312 0
M  V30 3703 C 345.387 -1.099 -4.36168 0
M  V30 3704 C 346.706 0.986916 -4.28892 0
M  V30 3705 H 343.825 0.0229696 -0.736642 0
M  V30 3706 H 346.467 -0.631527 -1.79197 0
M  V30 3707 H 344.617 0.8333 -3.79458 0
M  V30 3708 H 346.289 -1.73172 -4.27562 0
M  V30 3709 H 344.532 -1.69261 -3.99416 0
M  V30 3710 H 345.203 -0.932954 -5.44059 0
M  V30 3711 H 347.679 0.482302 -4.13295 0
M  V30 3712 H 346.555 1.07527 -5.38265 0
M  V30 3713 H 346.816 2.0265 -3.92919 0
M  V30 3714 N 345.875 1.56104 -0.216619 0
M  V30 3715 C 347.121 1.98466 0.417033 0
M  V30 3716 C 347.454 1.10403 1.59765 0
M  V30 3717 O 346.729 0.160632 1.93836 0
M  V30 3718 C 347.012 3.49769 0.85637 0
M  V30 3719 C 346.865 4.48606 -0.327546 0
M  V30 3720 C 348.184 4.05339 1.7143 0
M  V30 3721 H 345.303 0.721551 0.150112 0
M  V30 3722 H 347.945 1.87423 -0.311864 0
M  V30 3723 H 346.095 3.5931 1.47745 0
M  V30 3724 H 347.767 4.5108 -0.965618 0
M  V30 3725 H 346.01 4.22682 -0.975805 0
M  V30 3726 H 346.681 5.51995 0.0227149 0
M  V30 3727 H 349.157 3.98712 1.19031 0
M  V30 3728 H 348.033 5.11533 1.99061 0
M  V30 3729 H 348.294 3.51918 2.67593 0
M  V30 3730 N 347.353 -0.0568162 1.57498 0
M  V30 3731 C 348.316 -1.05038 2.03715 0
M  V30 3732 C 349.316 -1.30709 0.936577 0
M  V30 3733 O 350.506 -1.26178 1.20103 0
M  V30 3734 C 347.638 -2.39034 2.43055 0
M  V30 3735 H 348.831 -0.651715 2.92733 0
M  V30 3736 H 346.384 -0.302947 1.53336 0
M  V30 3737 H 347.119 -2.83703 1.57108 0
M  V30 3738 H 346.904 -2.21739 3.2338 0
M  V30 3739 H 348.394 -3.10421 2.79336 0
M  V30 3740 N 348.832 -1.54138 -0.328536 0
M  V30 3741 C 350.079 -1.72105 -1.06706 0
M  V30 3742 C 350.407 -0.492111 -1.88171 0
M  V30 3743 O 349.662 0.526153 -1.88494 0
M  V30 3744 C 349.961 -2.9457 -2.02393 0
M  V30 3745 C 349.627 -4.29544 -1.37122 0
M  V30 3746 C 348.289 -4.6624 -1.19052 0
M  V30 3747 C 350.641 -5.1333 -0.902331 0
M  V30 3748 C 347.969 -5.84325 -0.527331 0
M  V30 3749 C 350.321 -6.32094 -0.252988 0
M  V30 3750 C 348.985 -6.67473 -0.0600901 0
M  V30 3751 H 348.255 -0.629775 -0.390466 0
M  V30 3752 H 350.902 -1.88372 -0.34473 0
M  V30 3753 H 349.207 -2.72969 -2.81061 0
M  V30 3754 H 350.904 -3.05665 -2.59557 0
M  V30 3755 H 347.494 -4.0067 -1.52188 0
M  V30 3756 H 351.678 -4.855 -1.02974 0
M  V30 3757 H 346.934 -6.103 -0.366634 0
M  V30 3758 H 351.108 -6.96299 0.118366 0
M  V30 3759 H 348.735 -7.58832 0.455828 0
M  V30 3760 N 350.31 0.590341 -1.46126 0
M  V30 3761 C 351.55 1.35995 -1.52593 0
M  V30 3762 C 351.914 1.91243 -0.170368 0
M  V30 3763 O 353.115 2.68576 -0.109775 0
M  V30 3764 C 351.386 2.46465 -2.58823 0
M  V30 3765 S 352.945 3.33953 -2.84641 0
M  V30 3766 H 349.763 0.463425 -0.53922 0
M  V30 3767 H 352.365 0.67944 -1.83314 0
M  V30 3768 H 351.069 2.04256 -3.5596 0
M  V30 3769 H 350.6 3.19297 -2.2981 0
M  V30 3770 H 352.615 4.45094 -2.19331 0
M  V30 3771 N 351.788 1.33704 0.83433 0
M  V30 3772 C 352.718 1.26967 1.95963 0
M  V30 3773 C 353.699 0.149337 1.69443 0
M  V30 3774 O 354.884 0.339852 1.91203 0
M  V30 3775 C 352.014 1.01275 3.32206 0
M  V30 3776 C 350.968 2.09652 3.73136 0
M  V30 3777 C 350.294 1.69166 5.07235 0
M  V30 3778 C 351.594 3.51372 3.86439 0
M  V30 3779 H 353.288 2.2112 2.01857 0
M  V30 3780 H 350.834 1.06447 0.969793 0
M  V30 3781 H 352.787 0.952106 4.10503 0
M  V30 3782 H 351.511 0.0356203 3.26581 0
M  V30 3783 H 350.17 2.14766 2.97104 0
M  V30 3784 H 349.818 0.701437 4.98085 0
M  V30 3785 H 349.518 2.41694 5.35591 0
M  V30 3786 H 351.042 1.64576 5.88003 0
M  V30 3787 H 352.456 3.48734 4.55036 0
M  V30 3788 H 350.853 4.22425 4.26236 0
M  V30 3789 H 351.923 3.89546 2.88759 0
M  V30 3790 N 353.266 -1.05314 1.17247 0
M  V30 3791 C 354.199 -2.12512 0.831507 0
M  V30 3792 C 355.177 -1.61351 -0.201168 0
M  V30 3793 O 356.361 -1.88317 -0.0829831 0
M  V30 3794 C 353.488 -3.37848 0.24015 0
M  V30 3795 C 352.534 -4.07832 1.24801 0
M  V30 3796 S 353.367 -4.56537 2.79882 0
M  V30 3797 C 354.523 -5.85122 2.22223 0
M  V30 3798 H 354.756 -2.41106 1.7394 0
M  V30 3799 H 352.289 -1.17896 0.996988 0
M  V30 3800 H 354.247 -4.10391 -0.0945588 0
M  V30 3801 H 352.908 -3.07392 -0.645668 0
M  V30 3802 H 352.101 -4.97883 0.78287 0
M  V30 3803 H 351.703 -3.41348 1.52831 0
M  V30 3804 H 353.995 -6.58408 1.59703 0
M  V30 3805 H 354.938 -6.36381 3.10523 0
M  V30 3806 H 355.346 -5.39626 1.65722 0
M  V30 3807 N 354.744 -0.972509 -1.24016 0
M  V30 3808 C 355.99 -0.647583 -1.92816 0
M  V30 3809 C 356.345 0.809015 -1.74564 0
M  V30 3810 O 355.638 1.57502 -1.09103 0
M  V30 3811 C 355.832 -0.963694 -3.44162 0
M  V30 3812 C 355.661 -2.44947 -3.77135 0
M  V30 3813 C 354.431 -3.11012 -3.98246 0
M  V30 3814 C 356.629 -3.42978 -3.83237 0
M  V30 3815 N 354.611 -4.49277 -4.18358 0
M  V30 3816 C 355.982 -4.66619 -4.08248 0
M  V30 3817 C 358.037 -3.37569 -3.65994 0
M  V30 3818 C 356.74 -5.85516 -4.17808 0
M  V30 3819 C 358.766 -4.55822 -3.76802 0
M  V30 3820 C 358.128 -5.78256 -4.02243 0
M  V30 3821 H 354.227 -0.287894 -0.727077 0
M  V30 3822 H 356.811 -1.24835 -1.49413 0
M  V30 3823 H 354.982 -0.391692 -3.8642 0
M  V30 3824 H 356.714 -0.596849 -4.00275 0
M  V30 3825 H 353.469 -2.61529 -3.94841 0
M  V30 3826 H 353.893 -5.20935 -4.32384 0
M  V30 3827 H 358.535 -2.43945 -3.45327 0
M  V30 3828 H 356.253 -6.79564 -4.37285 0
M  V30 3829 H 359.839 -4.53204 -3.64825 0
M  V30 3830 H 358.719 -6.68231 -4.10411 0
M  V30 3831 N 356.222 1.38976 -0.743202 0
M  V30 3832 C 357.45 2.04636 -0.30525 0
M  V30 3833 C 357.865 1.56044 1.06281 0
M  V30 3834 O 357.222 0.728921 1.67311 0
M  V30 3835 C 357.273 3.60193 -0.307177 0
M  V30 3836 O 356.994 4.06998 -1.62124 0
M  V30 3837 C 358.495 4.4306 0.145928 0
M  V30 3838 H 355.715 0.65788 -0.132041 0
M  V30 3839 H 358.259 1.77866 -1.00915 0
M  V30 3840 H 356.414 3.85835 0.347898 0
M  V30 3841 H 356.828 5.01371 -1.54036 0
M  V30 3842 H 358.302 5.51921 0.0934183 0
M  V30 3843 H 358.779 4.22706 1.19231 0
M  V30 3844 H 359.385 4.22584 -0.479886 0
M  V30 3845 N 357.7 0.491464 1.49741 0
M  V30 3846 C 358.949 -0.0582189 2.01616 0
M  V30 3847 C 359.262 -1.38927 1.3769 0
M  V30 3848 O 360.468 -2.02509 1.80838 0
M  V30 3849 C 358.924 -0.154235 3.59569 0
M  V30 3850 C 358.532 1.1696 4.32463 0
M  V30 3851 C 360.276 -0.65479 4.1942 0
M  V30 3852 C 358.183 1.03627 5.8225 0
M  V30 3853 H 357.113 -0.0255317 0.753568 0
M  V30 3854 H 359.764 0.629445 1.72367 0
M  V30 3855 H 358.146 -0.906138 3.85493 0
M  V30 3856 H 359.32 1.93405 4.18248 0
M  V30 3857 H 357.635 1.60285 3.84315 0
M  V30 3858 H 360.232 -0.771903 5.29099 0
M  V30 3859 H 360.575 -1.65127 3.8215 0
M  V30 3860 H 361.108 0.040304 3.9778 0
M  V30 3861 H 357.847 2.00672 6.24028 0
M  V30 3862 H 357.367 0.312546 5.98985 0
M  V30 3863 H 359.046 0.711114 6.4308 0
M  V30 3864 N 359.178 -1.55987 0.224894 0
M  V30 3865 C 360.141 -2.19178 -0.670348 0
M  V30 3866 C 361.141 -1.15461 -1.11917 0
M  V30 3867 O 362.331 -1.40675 -1.02743 0
M  V30 3868 C 359.463 -2.81777 -1.9187 0
M  V30 3869 H 360.656 -2.99662 -0.119364 0
M  V30 3870 H 358.209 -1.5628 -0.0247128 0
M  V30 3871 H 358.944 -2.05172 -2.51147 0
M  V30 3872 H 358.729 -3.57732 -1.60531 0
M  V30 3873 H 360.219 -3.30205 -2.55645 0
M  V30 3874 N 360.656 0.0484629 -1.57525 0
M  V30 3875 C 361.905 0.742065 -1.87553 0
M  V30 3876 C 362.218 1.77545 -0.820802 0
M  V30 3877 O 363.424 2.52027 -1.00967 0
M  V30 3878 C 361.88 1.37081 -3.32771 0
M  V30 3879 C 361.488 0.374786 -4.4643 0
M  V30 3880 C 363.232 2.04542 -3.71972 0
M  V30 3881 C 361.139 1.01077 -5.82698 0
M  V30 3882 H 360.069 0.280903 -0.699721 0
M  V30 3883 H 362.72 -0.00411877 -1.835 0
M  V30 3884 H 361.102 2.16605 -3.31509 0
M  V30 3885 H 362.276 -0.392331 -4.59127 0
M  V30 3886 H 360.591 -0.196653 -4.15935 0
M  V30 3887 H 363.188 2.52943 -4.71088 0
M  V30 3888 H 363.531 2.85515 -3.02964 0
M  V30 3889 H 364.064 1.31819 -3.75325 0
M  V30 3890 H 360.803 0.240878 -6.55057 0
M  V30 3891 H 360.323 1.74819 -5.73758 0
M  V30 3892 H 362.002 1.52383 -6.28799 0
M  V30 3893 N 362.134 1.5431 0.320358 0
M  V30 3894 C 363.38 1.72924 1.05949 0
M  V30 3895 C 363.713 0.503185 1.87568 0
M  V30 3896 O 362.988 -0.499839 1.87968 0
M  V30 3897 C 363.271 3.00676 1.98156 0
M  V30 3898 C 363.124 4.3354 1.19845 0
M  V30 3899 C 364.443 3.24198 2.9763 0
M  V30 3900 H 361.562 0.629195 0.383774 0
M  V30 3901 H 364.204 1.87008 0.335854 0
M  V30 3902 H 362.354 2.888 2.59859 0
M  V30 3903 H 364.026 4.57305 0.605773 0
M  V30 3904 H 362.269 4.309 0.500784 0
M  V30 3905 H 362.94 5.19156 1.87567 0
M  V30 3906 H 365.416 3.35557 2.4605 0
M  V30 3907 H 364.292 4.14938 3.59329 0
M  V30 3908 H 364.553 2.41577 3.7026 0
M  V30 3909 N 363.613 -0.582584 1.46437 0
M  V30 3910 C 364.862 -1.337 1.5102 0
M  V30 3911 C 365.175 -1.94891 0.166359 0
M  V30 3912 O 366.381 -2.71351 0.0899954 0
M  V30 3913 C 364.837 -2.42315 2.66104 0
M  V30 3914 C 364.445 -1.87427 4.06909 0
M  V30 3915 C 366.189 -3.19099 2.79958 0
M  V30 3916 C 364.096 -2.93672 5.13333 0
M  V30 3917 H 363.026 -0.502619 0.562041 0
M  V30 3918 H 365.677 -0.621701 1.72647 0
M  V30 3919 H 364.059 -3.16645 2.37807 0
M  V30 3920 H 365.233 -1.19639 4.44998 0
M  V30 3921 H 363.548 -1.2331 3.97723 0
M  V30 3922 H 366.145 -3.9839 3.56636 0
M  V30 3923 H 366.488 -3.71695 1.87479 0
M  V30 3924 H 367.021 -2.51875 3.07902 0
M  V30 3925 H 363.76 -2.45962 6.07604 0
M  V30 3926 H 363.28 -3.59948 4.79789 0
M  V30 3927 H 364.959 -3.5762 5.39182 0
M  V30 3928 N 365.091 -1.34144 -0.827227 0
M  V30 3929 C 366.054 -1.25264 -1.91942 0
M  V30 3930 C 367.054 -0.168866 -1.59911 0
M  V30 3931 O 368.244 -0.421198 -1.69031 0
M  V30 3932 C 365.376 -0.932952 -3.27885 0
M  V30 3933 H 366.569 -2.22357 -2.0124 0
M  V30 3934 H 364.122 -1.1837 -1.0207 0
M  V30 3935 H 364.857 0.0349917 -3.24281 0
M  V30 3936 H 364.642 -1.71682 -3.52516 0
M  V30 3937 H 366.132 -0.895874 -4.07877 0
M  V30 3938 N 366.569 1.04691 -1.17803 0
M  V30 3939 C 367.815 1.78045 -0.970969 0
M  V30 3940 C 368.148 1.87686 0.498751 0
M  V30 3941 O 367.423 1.38035 1.37027 0
M  V30 3942 C 367.706 3.2166 -1.61884 0
M  V30 3943 C 367.559 3.20001 -3.161 0
M  V30 3944 C 368.878 4.1962 -1.3269 0
M  V30 3945 H 365.997 0.64633 -0.354155 0
M  V30 3946 H 368.639 1.22333 -1.45378 0
M  V30 3947 H 366.789 3.69232 -1.20831 0
M  V30 3948 H 368.461 2.80467 -3.66246 0
M  V30 3949 H 366.704 2.58203 -3.48588 0
M  V30 3950 H 367.375 4.21386 -3.56564 0
M  V30 3951 H 369.851 3.80567 -1.68249 0
M  V30 3952 H 368.727 5.18339 -1.80599 0
M  V30 3953 H 368.988 4.414 -0.248622 0
M  V30 3954 N 368.047 0.979072 1.23499 0
M  V30 3955 C 368.977 0.537606 2.27227 0
M  V30 3956 C 369.958 -0.428539 1.64613 0
M  V30 3957 O 371.143 -0.322191 1.91509 0
M  V30 3958 C 368.273 -0.162052 3.46922 0
M  V30 3959 C 367.227 0.721242 4.21879 0
M  V30 3960 C 366.553 -0.110555 5.34586 0
M  V30 3961 C 367.853 2.01141 4.82016 0
M  V30 3962 H 369.547 1.40462 2.64406 0
M  V30 3963 H 367.093 0.67684 1.27102 0
M  V30 3964 H 369.046 -0.482192 4.18632 0
M  V30 3965 H 367.77 -1.06351 3.08799 0
M  V30 3966 H 366.429 1.02482 3.51984 0
M  V30 3967 H 366.077 -1.0125 4.92704 0
M  V30 3968 H 365.777 0.477325 5.85658 0
M  V30 3969 H 367.301 -0.425107 6.09118 0
M  V30 3970 H 368.715 1.75612 5.45741 0
M  V30 3971 H 367.112 2.54695 5.43369 0
M  V30 3972 H 368.182 2.69909 4.02836 0
M  V30 3973 N 369.525 -1.3858 0.750561 0
M  V30 3974 C 370.936 -1.82927 0.373438 0
M  V30 3975 C 371.287 -1.62634 -1.09748 0
M  V30 3976 O 370.412 -1.12588 -1.84805 0
M  V30 3977 C 371.007 -3.32088 0.671029 0
M  V30 3978 C 369.566 -3.74795 0.34722 0
M  V30 3979 C 368.713 -2.61391 0.92575 0
M  V30 3980 H 371.664 -1.27351 0.946958 0
M  V30 3981 H 371.685 -3.80465 -0.0518269 0
M  V30 3982 H 371.197 -3.46826 1.74164 0
M  V30 3983 H 369.298 -3.65638 -0.716933 0
M  V30 3984 H 369.411 -4.71667 0.840656 0
M  V30 3985 H 367.775 -2.52265 0.351327 0
M  V30 3986 H 368.558 -2.78929 2.00133 0
M  V30 3987 N 371.003 -0.499398 -1.49478 0
M  V30 3988 C 371.933 0.269244 -2.31943 0
M  V30 3989 C 372.914 0.964054 -1.40143 0
M  V30 3990 O 374.099 0.955767 -1.69052 0
M  V30 3991 C 371.229 1.33504 -3.20615 0
M  V30 3992 C 370.183 0.760202 -4.21195 0
M  V30 3993 C 369.509 1.9264 -4.98792 0
M  V30 3994 C 370.809 -0.247661 -5.21712 0
M  V30 3995 H 372.503 -0.419082 -2.96452 0
M  V30 3996 H 370.049 -0.202988 -1.42562 0
M  V30 3997 H 372.002 1.88048 -3.77115 0
M  V30 3998 H 370.726 2.05253 -2.54045 0
M  V30 3999 H 369.385 0.23653 -3.65836 0
M  V30 4000 H 369.033 2.63154 -4.28671 0
M  V30 4001 H 368.733 1.54785 -5.66847 0
M  V30 4002 H 370.257 2.4762 -5.58137 0
M  V30 4003 H 371.671 0.209579 -5.72917 0
M  V30 4004 H 370.068 -0.541962 -5.97648 0
M  V30 4005 H 371.138 -1.16409 -4.7072 0
M  V30 4006 N 372.481 1.55866 -0.233164 0
M  V30 4007 C 373.411 2.23783 0.666599 0
M  V30 4008 C 374.392 1.21343 1.19205 0
M  V30 4009 O 375.577 1.4996 1.23392 0
M  V30 4010 C 372.707 2.92671 1.86978 0
M  V30 4011 C 371.661 4.01682 1.47768 0
M  V30 4012 C 370.987 4.57926 2.76058 0
M  V30 4013 C 372.287 5.18126 0.658993 0
M  V30 4014 H 373.981 2.99232 0.100306 0
M  V30 4015 H 371.527 1.43924 0.046804 0
M  V30 4016 H 373.48 3.3888 2.50476 0
M  V30 4017 H 372.204 2.14688 2.46123 0
M  V30 4018 H 370.863 3.56222 0.866106 0
M  V30 4019 H 370.511 3.76659 3.33372 0
M  V30 4020 H 370.211 5.31505 2.50552 0
M  V30 4021 H 371.735 5.06859 3.40479 0
M  V30 4022 H 373.149 5.60644 1.19795 0
M  V30 4023 H 371.546 5.98009 0.500552 0
M  V30 4024 H 372.616 4.83763 -0.331856 0
M  V30 4025 N 373.959 -0.0401083 1.57549 0
M  V30 4026 C 375.207 -0.731677 1.8839 0
M  V30 4027 C 375.528 -1.76481 0.829425 0
M  V30 4028 O 374.798 -1.95411 -0.1383 0
M  V30 4029 H 373.378 -0.273225 0.695239 0
M  V30 4030 H 376.04 -0.00867725 1.94898 0
M  V30 4031 H 375.136 -1.22816 2.86919 0
M  V30 4032 N 375.437 -1.54477 -0.31217 0
M  V30 4033 C 376.683 -1.74417 -1.04644 0
M  V30 4034 C 377.038 -0.517641 -1.85306 0
M  V30 4035 O 376.331 0.489973 -1.85229 0
M  V30 4036 C 376.525 -2.967 -1.99258 0
M  V30 4037 C 376.354 -4.31128 -1.27901 0
M  V30 4038 C 375.124 -4.95087 -1.01079 0
M  V30 4039 C 377.322 -5.09662 -0.689119 0
M  V30 4040 N 375.304 -6.13322 -0.266323 0
M  V30 4041 C 376.675 -6.19952 -0.0768523 0
M  V30 4042 C 378.73 -4.94355 -0.593061 0
M  V30 4043 C 377.433 -7.16604 0.622165 0
M  V30 4044 C 379.459 -5.91328 0.0922792 0
M  V30 4045 C 378.821 -7.00978 0.693443 0
M  V30 4046 H 374.92 -0.69094 -0.366231 0
M  V30 4047 H 377.504 -1.91946 -0.326319 0
M  V30 4048 H 375.675 -2.80616 -2.68532 0
M  V30 4049 H 377.407 -3.05216 -2.65755 0
M  V30 4050 H 374.162 -4.55235 -1.30607 0
M  V30 4051 H 374.586 -6.76937 0.0920973 0
M  V30 4052 H 379.228 -4.09719 -1.04355 0
M  V30 4053 H 376.946 -8.0079 1.08445 0
M  V30 4054 H 380.532 -5.81562 0.166396 0
M  V30 4055 H 379.412 -7.74725 1.21533 0
M  V30 4056 N 376.915 0.57481 -1.46744 0
M  V30 4057 C 377.863 1.70435 -1.58286 0
M  V30 4058 C 378.857 1.63287 -0.450956 0
M  V30 4059 O 380.063 1.68685 -0.628121 0
M  V30 4060 H 376.438 0.56364 -0.497809 0
M  V30 4061 H 378.409 1.57833 -2.53242 0
M  V30 4062 C 377.158 3.08815 -1.59776 0
M  V30 4063 H 376.481 3.1499 -2.46214 0
M  V30 4064 H 377.921 3.87588 -1.71905 0
M  V30 4065 C 376.38 3.35301 -0.327812 0
M  V30 4066 O 376.91 3.97511 0.57861 0
M  V30 4067 N 375.116 2.89816 -0.213274 0
M  V30 4068 H 374.663 2.39371 -0.951798 0
M  V30 4069 H 374.621 3.0791 0.63553 0
M  V30 4070 N 378.394 1.34581 0.820102 0
M  V30 4071 C 379.634 1.28448 1.58998 0
M  V30 4072 C 379.998 -0.142883 1.91468 0
M  V30 4073 O 381.199 -0.328422 2.66786 0
M  V30 4074 C 379.47 2.153 2.85273 0
M  V30 4075 S 381.029 2.26548 3.75794 0
M  V30 4076 H 377.847 0.456685 0.54494 0
M  V30 4077 H 380.449 1.69825 0.968487 0
M  V30 4078 H 379.153 3.18008 2.59421 0
M  V30 4079 H 378.684 1.7483 3.52417 0
M  V30 4080 H 380.699 1.44034 4.74835 0
M  V30 4081 N 379.872 -1.04064 1.18357 0
M  V30 4082 C 380.782 -2.15569 0.925596 0
M  V30 4083 C 381.798 -1.7365 -0.110295 0
M  V30 4084 O 382.974 -2.01273 0.0716218 0
M  V30 4085 C 380.039 -3.43704 0.454836 0
M  V30 4086 C 379.1 -4.00004 1.55869 0
M  V30 4087 C 378.333 -5.22023 1.1103 0
M  V30 4088 O 378.556 -5.70392 -0.0309756 0
M  V30 4089 O 377.49 -5.70856 1.90805 0
M  V30 4090 H 381.316 -2.40187 1.8586 0
M  V30 4091 H 378.901 -1.1402 0.965394 0
M  V30 4092 H 380.783 -4.20923 0.200382 0
M  V30 4093 H 379.458 -3.20559 -0.449876 0
M  V30 4094 H 378.365 -3.24172 1.86716 0
M  V30 4095 H 379.698 -4.2749 2.43953 0
M  V30 4096 N 381.35 -0.985608 -1.22978 0
M  V30 4097 C 382.297 -0.529825 -2.24636 0
M  V30 4098 C 383.267 0.434028 -1.60329 0
M  V30 4099 O 384.452 0.340414 -1.87739 0
M  V30 4100 C 381.592 0.156533 -3.44745 0
M  V30 4101 C 380.705 -0.848197 -4.23591 0
M  V30 4102 C 379.84 -0.136109 -5.31026 0
M  V30 4103 C 378.879 -1.1297 -6.01585 0
M  V30 4104 N 378.016 -0.446415 -7.00679 0
M  V30 4105 H 382.856 -1.40148 -2.62988 0
M  V30 4106 H 380.393 -0.702168 -1.29259 0
M  V30 4107 H 382.351 0.571324 -4.1327 0
M  V30 4108 H 380.981 0.992025 -3.07179 0
M  V30 4109 H 380.033 -1.38135 -3.54433 0
M  V30 4110 H 381.345 -1.60512 -4.72268 0
M  V30 4111 H 380.499 0.335784 -6.0577 0
M  V30 4112 H 379.238 0.653373 -4.83304 0
M  V30 4113 H 378.243 -1.6123 -5.25628 0
M  V30 4114 H 379.468 -1.91993 -6.51395 0
M  V30 4115 H 377.414 0.323763 -6.55201 0
M  V30 4116 H 377.331 -1.1419 -7.47326 0
M  V30 4117 H 378.599 0.00291697 -7.795 0
M  V30 4118 N 382.828 1.3818 -0.7579 0
M  V30 4119 C 383.758 2.33027 -0.148597 0
M  V30 4120 C 384.739 1.55085 0.69875 0
M  V30 4121 O 385.924 1.83384 0.639053 0
M  V30 4122 C 383.054 3.3928 0.742034 0
M  V30 4123 C 382.008 4.28 -0.00291946 0
M  V30 4124 C 381.334 5.25146 1.00625 0
M  V30 4125 C 382.634 5.08938 -1.17385 0
M  V30 4126 H 384.328 2.84231 -0.940909 0
M  V30 4127 H 381.874 1.36659 -0.453908 0
M  V30 4128 H 383.827 4.046 1.17799 0
M  V30 4129 H 382.551 2.86569 1.56671 0
M  V30 4130 H 381.21 3.64192 -0.419504 0
M  V30 4131 H 380.858 4.68721 1.8251 0
M  V30 4132 H 380.558 5.85361 0.512428 0
M  V30 4133 H 382.082 5.93342 1.44143 0
M  V30 4134 H 383.496 5.67474 -0.815224 0
M  V30 4135 H 381.893 5.7841 -1.59882 0
M  V30 4136 H 382.963 4.42424 -1.98468 0
M  V30 4137 N 384.306 0.507319 1.49211 0
M  V30 4138 C 385.238 -0.304532 2.27168 0
M  V30 4139 C 386.251 -0.924956 1.33972 0
M  V30 4140 O 387.44 -0.807227 1.59205 0
M  V30 4141 C 384.54 -1.44431 3.06583 0
M  V30 4142 C 383.713 -0.930026 4.27398 0
M  V30 4143 C 382.772 -1.94817 4.88807 0
M  V30 4144 O 381.798 -1.51418 5.4869 0
M  V30 4145 N 383 -3.279 4.79022 0
M  V30 4146 H 385.765 0.36395 2.97482 0
M  V30 4147 H 383.326 0.340249 1.58284 0
M  V30 4148 H 385.318 -2.12311 3.44537 0
M  V30 4149 H 383.888 -2.01684 2.38835 0
M  V30 4150 H 383.108 -0.0759244 3.94127 0
M  V30 4151 H 384.396 -0.564932 5.05654 0
M  V30 4152 H 383.794 -3.65843 4.3148 0
M  V30 4153 H 382.351 -3.91476 5.21142 0
M  V30 4154 N 385.784 -1.5574 0.241426 0
M  V30 4155 C 387.009 -2.0366 -0.392111 0
M  V30 4156 C 387.434 -1.11969 -1.51144 0
M  V30 4157 O 386.792 -0.111594 -1.80956 0
M  V30 4158 C 386.84 -3.49638 -0.882371 0
M  V30 4159 O 385.944 -3.6108 -1.99235 0
M  V30 4160 H 385.285 -0.658379 -0.0862122 0
M  V30 4161 H 387.815 -2.01302 0.365881 0
M  V30 4162 H 387.825 -3.90351 -1.18702 0
M  V30 4163 H 386.5 -4.15852 -0.0632361 0
M  V30 4164 H 385.077 -3.32262 -1.69282 0
M  V30 4165 N 387.262 0.0317525 -1.57568 0
M  V30 4166 C 388.508 0.724175 -1.8943 0
M  V30 4167 C 388.841 1.75149 -0.838836 0
M  V30 4168 O 388.116 1.93948 0.146422 0
M  V30 4169 C 388.399 1.39615 -3.31933 0
M  V30 4170 C 388.252 0.382537 -4.4817 0
M  V30 4171 C 389.571 2.33084 -3.73309 0
M  V30 4172 H 386.69 0.261797 -0.688935 0
M  V30 4173 H 389.332 -0.013017 -1.89996 0
M  V30 4174 H 387.482 2.02451 -3.31581 0
M  V30 4175 H 389.154 -0.243689 -4.60656 0
M  V30 4176 H 387.397 -0.29844 -4.32772 0
M  V30 4177 H 388.068 0.891145 -5.44759 0
M  V30 4178 H 390.544 1.80295 -3.7501 0
M  V30 4179 H 389.42 2.77084 -4.73831 0
M  V30 4180 H 389.681 3.19643 -3.05419 0
M  V30 4181 N 388.74 1.54641 0.303973 0
M  V30 4182 C 389.98 1.75516 1.04755 0
M  V30 4183 C 390.344 0.528211 1.84591 0
M  V30 4184 O 391.545 0.614645 2.61678 0
M  V30 4185 C 389.816 3.00685 1.93193 0
M  V30 4186 S 391.375 3.42549 2.74237 0
M  V30 4187 H 388.193 0.616987 0.353339 0
M  V30 4188 H 390.795 1.92842 0.321292 0
M  V30 4189 H 389.499 3.8811 1.33411 0
M  V30 4190 H 389.03 2.85937 2.70191 0
M  V30 4191 H 391.045 2.99386 3.95705 0
M  V30 4192 N 390.218 -0.567019 1.47046 0
M  V30 4193 C 391.443 -1.3551 1.57009 0
M  V30 4194 C 391.868 -1.86841 0.217259 0
M  V30 4195 O 391.226 -1.62435 -0.805268 0
M  V30 4196 C 391.274 -2.50777 2.5912 0
M  V30 4197 O 390.378 -3.52706 2.13711 0
M  V30 4198 H 389.719 -0.402919 0.52778 0
M  V30 4199 H 392.249 -0.686241 1.92748 0
M  V30 4200 H 392.259 -2.97481 2.79229 0
M  V30 4201 H 390.934 -2.12771 3.57353 0
M  V30 4202 H 389.511 -3.12374 2.03659 0
M  V30 4203 N 391.696 -1.35014 -0.812953 0
M  V30 4204 C 392.973 -1.18502 -1.55617 0
M  V30 4205 C 393.353 0.238421 -2.09749 0
M  V30 4206 O 392.701 1.2411 -1.91857 0
M  V30 4207 C 392.911 -2.24783 -2.66971 0
M  V30 4208 C 394.259 -2.60268 -3.35478 0
M  V30 4209 O 395.283 -2.23648 -2.77236 0
M  V30 4210 O 394.142 -3.2321 -4.40678 0
M  V30 4211 H 391.236 -0.459984 -0.687272 0
M  V30 4212 H 393.782 -1.46677 -0.853464 0
M  V30 4213 H 392.554 -3.20284 -2.24798 0
M  V30 4214 H 392.177 -1.97841 -3.44884 0
M  V30 4215 N 393.175 1.03435 -1.18907 0
M  V30 4216 C 394.424 1.76143 -0.982669 0
M  V30 4217 C 394.737 1.89416 0.487953 0
M  V30 4218 O 395.943 2.59041 0.813036 0
M  V30 4219 C 394.399 3.16722 -1.70924 0
M  V30 4220 C 394.007 3.11522 -3.21959 0
M  V30 4221 C 395.751 3.93764 -1.58588 0
M  V30 4222 C 393.658 4.46999 -3.87228 0
M  V30 4223 H 392.588 0.660292 -0.364047 0
M  V30 4224 H 395.239 1.158 -1.42347 0
M  V30 4225 H 393.621 3.775 -1.19623 0
M  V30 4226 H 394.795 2.60158 -3.80335 0
M  V30 4227 H 393.11 2.47978 -3.34508 0
M  V30 4228 H 395.707 4.93963 -2.04707 0
M  V30 4229 H 396.05 4.12794 -0.539142 0
M  V30 4230 H 396.583 3.39576 -2.07203 0
M  V30 4231 H 393.322 4.33174 -4.91976 0
M  V30 4232 H 392.842 4.98441 -3.33642 0
M  V30 4233 H 394.521 5.15898 -3.90459 0
M  V30 4234 N 394.653 0.992116 1.22453 0
M  V30 4235 C 395.9 0.667534 1.91181 0
M  V30 4236 C 396.228 -0.800317 1.77271 0
M  V30 4237 O 395.483 -1.59421 1.13505 0
M  V30 4238 C 395.782 1.01832 3.42586 0
M  V30 4239 C 395.448 2.47831 3.76684 0
M  V30 4240 C 394.11 2.87729 3.85701 0
M  V30 4241 C 396.462 3.42466 3.92895 0
M  V30 4242 C 393.79 4.21252 4.08367 0
M  V30 4243 C 396.142 4.75648 4.17064 0
M  V30 4244 C 394.806 5.15288 4.24305 0
M  V30 4245 H 394.076 0.244268 0.699581 0
M  V30 4246 H 396.723 1.24816 1.45235 0
M  V30 4247 H 395.028 0.355769 3.90181 0
M  V30 4248 H 396.725 0.745228 3.94014 0
M  V30 4249 H 393.315 2.15905 3.70247 0
M  V30 4250 H 397.499 3.12814 3.85307 0
M  V30 4251 H 392.755 4.51554 4.122 0
M  V30 4252 H 396.929 5.48924 4.2855 0
M  V30 4253 H 394.556 6.18769 4.41621 0
M  V30 4254 N 396.131 -1.37776 0.765217 0
M  V30 4255 C 397.542 -1.82521 0.392819 0
M  V30 4256 C 397.893 -1.63789 -1.08017 0
M  V30 4257 O 397.018 -1.14542 -1.83601 0
M  V30 4258 C 397.613 -3.31358 0.706214 0
M  V30 4259 C 396.172 -3.74406 0.386952 0
M  V30 4260 C 395.319 -2.60394 0.953422 0
M  V30 4261 H 398.27 -1.2634 0.960412 0
M  V30 4262 H 398.291 -3.80498 -0.0114706 0
M  V30 4263 H 397.803 -3.44959 1.77833 0
M  V30 4264 H 395.904 -3.66377 -0.678112 0
M  V30 4265 H 396.017 -4.70749 0.890636 0
M  V30 4266 H 394.381 -2.51878 0.378064 0
M  V30 4267 H 395.164 -2.76791 2.03081 0
M  V30 4268 N 397.609 -0.515225 -1.4894 0
M  V30 4269 C 398.559 0.275113 -2.26334 0
M  V30 4270 C 399.543 0.923007 -1.31793 0
M  V30 4271 O 400.735 0.828254 -1.56426 0
M  V30 4272 C 397.864 1.33041 -3.16473 0
M  V30 4273 C 396.95 0.688051 -4.18481 0
M  V30 4274 N 397.341 -0.217638 -5.05332 0
M  V30 4275 C 395.639 0.94699 -4.3583 0
M  V30 4276 C 396.34 -0.58676 -5.78733 0
M  V30 4277 N 395.316 0.0486966 -5.43578 0
M  V30 4278 H 399.118 -0.421876 -2.90856 0
M  V30 4279 H 396.632 -0.332249 -1.58965 0
M  V30 4280 H 398.629 1.9102 -3.70563 0
M  V30 4281 H 397.289 2.02894 -2.53504 0
M  V30 4282 H 398.3 -0.589343 -5.14536 0
M  V30 4283 H 394.977 1.63719 -3.8406 0
M  V30 4284 H 396.367 -1.32855 -6.58634 0
M  V30 4285 N 399.087 1.5561 -0.249682 0
M  V30 4286 C 400.336 1.98187 0.37479 0
M  V30 4287 C 400.649 1.14111 1.58865 0
M  V30 4288 O 401.855 1.46714 2.28445 0
M  V30 4289 C 400.311 3.52661 0.718192 0
M  V30 4290 C 399.919 4.45481 -0.474428 0
M  V30 4291 C 401.663 4.03888 1.3067 0
M  V30 4292 C 399.57 5.91303 -0.107026 0
M  V30 4293 H 398.5 0.740159 0.143808 0
M  V30 4294 H 401.151 1.80125 -0.350336 0
M  V30 4295 H 399.533 3.66429 1.50152 0
M  V30 4296 H 400.707 4.43473 -1.25172 0
M  V30 4297 H 399.022 4.04751 -0.978052 0
M  V30 4298 H 401.619 5.10358 1.59496 0
M  V30 4299 H 401.962 3.51401 2.23211 0
M  V30 4300 H 402.495 3.93457 0.586211 0
M  V30 4301 H 399.234 6.47833 -0.999642 0
M  V30 4302 H 398.754 5.9644 0.634013 0
M  V30 4303 H 400.433 6.46258 0.309807 0
M  V30 4304 N 400.565 -0.0233959 1.57583 0
M  V30 4305 C 401.842 -0.748794 1.807 0
M  V30 4306 C 402.222 -1.9327 0.849106 0
M  V30 4307 O 401.57 -2.28247 -0.107468 0
M  V30 4308 C 401.78 -1.17651 3.28571 0
M  V30 4309 C 403.128 -1.59008 3.93702 0
M  V30 4310 O 404.152 -1.27094 3.32755 0
M  V30 4311 O 403.011 -2.18264 5.01022 0
M  V30 4312 H 400.105 -0.362578 0.743281 0
M  V30 4313 H 402.651 0.000261958 1.697 0
M  V30 4314 H 401.423 -0.331603 3.89892 0
M  V30 4315 H 401.046 -1.98541 3.44481 0
M  V30 4316 N 402.043 -1.548 -0.295768 0
M  V30 4317 C 402.953 -1.89177 -1.38742 0
M  V30 4318 C 403.969 -0.786481 -1.55211 0
M  V30 4319 O 405.145 -1.08344 -1.69775 0
M  V30 4320 C 402.21 -2.13663 -2.73036 0
M  V30 4321 C 401.271 -3.37349 -2.65508 0
M  V30 4322 C 400.504 -3.60658 -3.93398 0
M  V30 4323 O 400.727 -2.86882 -4.93006 0
M  V30 4324 O 399.661 -4.54179 -3.94975 0
M  V30 4325 H 403.487 -2.82059 -1.12589 0
M  V30 4326 H 401.072 -1.41056 -0.492295 0
M  V30 4327 H 402.954 -2.3094 -3.52484 0
M  V30 4328 H 401.629 -1.23967 -2.99022 0
M  V30 4329 H 400.536 -3.25431 -1.84514 0
M  V30 4330 H 401.869 -4.27192 -2.44474 0
M  V30 4331 N 403.521 0.559213 -1.47345 0
M  V30 4332 C 404.749 1.34194 -1.57479 0
M  V30 4333 C 405.164 1.87463 -0.224261 0
M  V30 4334 O 404.521 1.64888 0.782185 0
M  V30 4335 C 404.572 2.51324 -2.59843 0
M  V30 4336 O 404.293 2.00256 -3.89653 0
M  V30 4337 C 405.794 3.43563 -2.80142 0
M  V30 4338 H 403.014 0.409136 -0.531835 0
M  V30 4339 H 405.558 0.677609 -1.92947 0
M  V30 4340 H 403.713 3.13699 -2.27314 0
M  V30 4341 H 404.127 2.76708 -4.4557 0
M  V30 4342 H 405.601 4.2217 -3.55635 0
M  V30 4343 H 406.078 3.9698 -1.87892 0
M  V30 4344 H 406.684 2.87005 -3.1386 0
M  V30 4345 N 404.999 1.35443 0.805782 0
M  V30 4346 C 406.229 1.31687 1.59192 0
M  V30 4347 C 406.637 -0.10756 1.88894 0
M  V30 4348 O 405.98 -1.07017 1.49309 0
M  V30 4349 C 406.042 2.05686 2.94845 0
M  V30 4350 C 405.706 3.54868 2.87954 0
M  V30 4351 C 406.703 4.49444 2.61335 0
M  V30 4352 C 404.388 3.97528 3.07046 0
M  V30 4353 C 406.382 5.84655 2.53885 0
M  V30 4354 C 404.069 5.32833 2.99219 0
M  V30 4355 C 405.067 6.26209 2.72674 0
M  V30 4356 O 404.755 7.59032 2.64811 0
M  V30 4357 H 404.487 0.453878 0.50097 0
M  V30 4358 H 407.041 1.78892 1.0093 0
M  V30 4359 H 405.271 1.5312 3.55093 0
M  V30 4360 H 406.96 1.94998 3.55993 0
M  V30 4361 H 407.726 4.17804 2.46303 0
M  V30 4362 H 403.605 3.25233 3.26718 0
M  V30 4363 H 407.149 6.57508 2.33086 0
M  V30 4364 H 403.046 5.64087 3.13809 0
M  V30 4365 H 403.814 7.68967 2.80413 0
M  V30 4366 N 406.477 -1.02803 1.19454 0
M  V30 4367 C 407.407 -2.12999 0.956758 0
M  V30 4368 C 408.388 -1.69743 -0.110188 0
M  V30 4369 O 409.573 -1.94148 0.0450038 0
M  V30 4370 C 406.703 -3.43746 0.495553 0
M  V30 4371 C 405.657 -4.00688 1.50443 0
M  V30 4372 C 404.983 -5.27067 0.900275 0
M  V30 4373 C 406.283 -4.35397 2.8849 0
M  V30 4374 H 407.977 -2.33148 1.87836 0
M  V30 4375 H 405.523 -1.12045 0.904539 0
M  V30 4376 H 407.476 -4.2021 0.316493 0
M  V30 4377 H 406.2 -3.23321 -0.461646 0
M  V30 4378 H 404.859 -3.2632 1.67065 0
M  V30 4379 H 404.507 -5.02959 -0.064503 0
M  V30 4380 H 404.207 -5.66127 1.57397 0
M  V30 4381 H 405.731 -6.06196 0.73203 0
M  V30 4382 H 407.145 -5.02795 2.75446 0
M  V30 4383 H 405.542 -4.85541 3.52661 0
M  V30 4384 H 406.612 -3.44662 3.41081 0
M  V30 4385 N 407.956 -0.998596 -1.21925 0
M  V30 4386 C 408.889 -0.498517 -2.22688 0
M  V30 4387 C 409.867 0.444301 -1.56412 0
M  V30 4388 O 411.051 0.368518 -1.84863 0
M  V30 4389 C 408.178 0.276639 -3.37568 0
M  V30 4390 C 407.224 -0.61302 -4.22071 0
M  V30 4391 S 408.057 -2.07168 -4.93803 0
M  V30 4392 C 409.213 -1.30617 -6.12119 0
M  V30 4393 H 409.446 -1.35234 -2.64762 0
M  V30 4394 H 406.979 -0.806018 -1.31692 0
M  V30 4395 H 408.937 0.717817 -4.04175 0
M  V30 4396 H 407.598 1.10581 -2.93991 0
M  V30 4397 H 406.791 -0.0162909 -5.03997 0
M  V30 4398 H 406.393 -0.991202 -3.60626 0
M  V30 4399 H 408.685 -0.57675 -6.75041 0
M  V30 4400 H 409.628 -2.10091 -6.76215 0
M  V30 4401 H 410.036 -0.816957 -5.58557 0
M  V30 4402 N 409.434 1.37368 -0.772513 0
M  V30 4403 C 410.681 1.99673 -0.337182 0
M  V30 4404 C 411.009 1.61324 1.0865 0
M  V30 4405 O 410.264 0.851377 1.7621 0
M  V30 4406 C 410.563 3.54817 -0.428876 0
M  V30 4407 C 410.229 4.12936 -1.81092 0
M  V30 4408 C 408.891 4.28523 -2.1891 0
M  V30 4409 C 411.243 4.44801 -2.71664 0
M  V30 4410 C 408.571 4.73277 -3.46735 0
M  V30 4411 C 410.923 4.90981 -3.98899 0
M  V30 4412 C 409.587 5.04773 -4.36761 0
M  V30 4413 H 408.857 0.730656 -0.123384 0
M  V30 4414 H 411.504 1.64124 -0.986686 0
M  V30 4415 H 409.809 3.90618 0.304167 0
M  V30 4416 H 411.506 4.00933 -0.0733334 0
M  V30 4417 H 408.096 4.01233 -1.50699 0
M  V30 4418 H 412.28 4.32344 -2.43706 0
M  V30 4419 H 407.536 4.82142 -3.75964 0
M  V30 4420 H 411.71 5.14603 -4.69208 0
M  V30 4421 H 409.337 5.39211 -5.35868 0
M  V30 4422 N 410.912 0.523116 1.48665 0
M  V30 4423 C 412.158 -0.00540031 2.03399 0
M  V30 4424 C 412.513 -1.3264 1.39372 0
M  V30 4425 O 411.806 -1.84184 0.527916 0
M  V30 4426 C 412 -0.191671 3.56886 0
M  V30 4427 C 411.829 1.10972 4.35793 0
M  V30 4428 C 410.599 1.66769 4.76987 0
M  V30 4429 C 412.797 2.01861 4.73029 0
M  V30 4430 N 410.779 2.91268 5.40404 0
M  V30 4431 C 412.15 3.10937 5.36394 0
M  V30 4432 C 414.205 2.02271 4.54962 0
M  V30 4433 C 412.908 4.20478 5.83601 0
M  V30 4434 C 414.934 3.10802 5.03146 0
M  V30 4435 C 414.296 4.18597 5.6653 0
M  V30 4436 H 410.395 0.0393531 0.781009 0
M  V30 4437 H 412.979 0.702876 1.8157 0
M  V30 4438 H 411.15 -0.869025 3.78553 0
M  V30 4439 H 412.882 -0.719177 3.98259 0
M  V30 4440 H 409.637 1.20996 4.57883 0
M  V30 4441 H 410.061 3.54635 5.76683 0
M  V30 4442 H 414.703 1.2023 4.05345 0
M  V30 4443 H 412.421 5.03303 6.32228 0
M  V30 4444 H 416.007 3.12166 4.90962 0
M  V30 4445 H 414.887 5.01193 6.03138 0
M  V30 4446 N 412.39 -1.55475 0.257931 0
M  V30 4447 C 413.639 -1.98383 -0.364275 0
M  V30 4448 C 413.952 -1.14952 -1.58258 0
M  V30 4449 O 415.158 -1.47924 -2.27664 0
M  V30 4450 C 413.614 -3.53037 -0.699479 0
M  V30 4451 C 413.222 -4.45223 0.498046 0
M  V30 4452 C 414.966 -4.04575 -1.28526 0
M  V30 4453 C 412.873 -5.91238 0.138383 0
M  V30 4454 H 411.803 -0.740911 -0.13988 0
M  V30 4455 H 414.454 -1.79936 0.359883 0
M  V30 4456 H 412.836 -3.6722 -1.48207 0
M  V30 4457 H 414.01 -4.42803 1.27522 0
M  V30 4458 H 412.325 -4.04226 0.999503 0
M  V30 4459 H 414.922 -5.11196 -1.56788 0
M  V30 4460 H 415.265 -3.5258 -2.21344 0
M  V30 4461 H 415.798 -3.93762 -0.565337 0
M  V30 4462 H 412.537 -6.47294 1.03398 0
M  V30 4463 H 412.057 -5.96768 -0.602374 0
M  V30 4464 H 413.736 -6.46413 -0.27553 0
M  V30 4465 N 413.868 0.0150385 -1.57593 0
M  V30 4466 C 415.116 0.701613 -1.8953 0
M  V30 4467 C 415.437 1.75139 -0.857396 0
M  V30 4468 O 414.707 1.95607 0.107194 0
M  V30 4469 H 413.287 0.26213 -0.699498 0
M  V30 4470 H 415.949 -0.0223304 -1.94887 0
M  V30 4471 H 415.045 1.18236 -2.88837 0
M  V30 4472 N 415.346 1.54954 0.287554 0
M  V30 4473 C 416.592 1.75132 1.02257 0
M  V30 4474 C 416.925 0.542858 1.86458 0
M  V30 4475 O 416.2 -0.459856 1.88986 0
M  V30 4476 C 416.483 3.04812 1.91733 0
M  V30 4477 C 416.336 4.35985 1.10622 0
M  V30 4478 C 417.655 3.30438 2.90687 0
M  V30 4479 H 414.774 0.637194 0.370341 0
M  V30 4480 H 417.416 1.87678 0.296111 0
M  V30 4481 H 415.566 2.94247 2.53675 0
M  V30 4482 H 417.238 4.58487 0.508636 0
M  V30 4483 H 415.481 4.31865 0.409271 0
M  V30 4484 H 416.152 5.23017 1.76513 0
M  V30 4485 H 418.628 3.40701 2.38877 0
M  V30 4486 H 417.504 4.22467 3.50447 0
M  V30 4487 H 417.765 2.49377 3.65053 0
M  V30 4488 N 416.824 -0.551391 1.4764 0
M  V30 4489 C 418.052 -1.33357 1.58189 0
M  V30 4490 C 418.467 -1.87342 0.234199 0
M  V30 4491 O 417.824 -1.65301 -0.77343 0
M  V30 4492 C 417.875 -2.49942 2.61173 0
M  V30 4493 O 417.596 -1.98187 3.90709 0
M  V30 4494 C 419.097 -3.42072 2.8196 0
M  V30 4495 H 416.317 -0.40631 0.533998 0
M  V30 4496 H 418.861 -0.667367 1.93304 0
M  V30 4497 H 417.016 -3.12489 2.28975 0
M  V30 4498 H 417.43 -2.74342 4.47031 0
M  V30 4499 H 418.904 -4.20278 3.57869 0
M  V30 4500 H 419.381 -3.95978 1.89995 0
M  V30 4501 H 419.987 -2.85336 3.15378 0
M  V30 4502 N 418.302 -1.35869 -0.798587 0
M  V30 4503 C 419.527 -1.32883 -1.59238 0
M  V30 4504 C 419.952 0.0894587 -1.87887 0
M  V30 4505 O 419.31 1.05869 -1.47178 0
M  V30 4506 C 419.358 -2.14892 -2.89575 0
M  V30 4507 O 418.462 -1.53512 -3.82763 0
M  V30 4508 H 417.803 -0.455236 -0.48338 0
M  V30 4509 H 420.333 -1.79024 -0.990539 0
M  V30 4510 H 420.343 -2.27139 -3.38928 0
M  V30 4511 H 419.018 -3.17998 -2.68049 0
M  V30 4512 H 417.595 -1.50153 -3.41334 0
M  V30 4513 N 419.78 1.02168 -1.19998 0
M  V30 4514 C 421.026 1.75945 -1.00852 0
M  V30 4515 C 421.359 1.88702 0.458828 0
M  V30 4516 O 420.634 1.40911 1.34069 0
M  V30 4517 C 420.917 3.18154 -1.68671 0
M  V30 4518 C 420.77 3.13224 -3.22817 0
M  V30 4519 C 422.089 4.16711 -1.41561 0
M  V30 4520 H 419.208 0.638673 -0.367785 0
M  V30 4521 H 421.85 1.19222 -1.4794 0
M  V30 4522 H 420 3.66586 -1.28636 0
M  V30 4523 H 421.672 2.72635 -3.72112 0
M  V30 4524 H 419.915 2.50751 -3.53986 0
M  V30 4525 H 420.586 4.13728 -3.65422 0
M  V30 4526 H 423.062 3.76913 -1.76284 0
M  V30 4527 H 421.938 5.14391 -1.91553 0
M  V30 4528 H 422.199 4.40774 -0.342193 0
M  V30 4529 N 421.258 1.00505 1.21394 0
M  V30 4530 C 422.188 0.585684 2.26035 0
M  V30 4531 C 423.169 -0.393525 1.65485 0
M  V30 4532 O 424.354 -0.281497 1.92149 0
M  V30 4533 C 421.484 -0.0884283 3.47187 0
M  V30 4534 C 420.438 0.810567 4.20254 0
M  V30 4535 C 419.764 0.00286382 5.347 0
M  V30 4536 C 421.064 2.1132 4.77641 0
M  V30 4537 H 422.758 1.46039 2.61368 0
M  V30 4538 H 420.304 0.703648 1.25638 0
M  V30 4539 H 422.257 -0.393286 4.19561 0
M  V30 4540 H 420.981 -0.997766 3.10986 0
M  V30 4541 H 419.64 1.09925 3.49731 0
M  V30 4542 H 419.288 -0.907765 4.94741 0
M  V30 4543 H 418.988 0.601444 5.84514 0
M  V30 4544 H 420.512 -0.295808 6.09883 0
M  V30 4545 H 421.926 1.87148 5.41893 0
M  V30 4546 H 420.323 2.66164 5.37845 0
M  V30 4547 H 421.393 2.78393 3.9702 0
M  V30 4548 N 422.737 -1.36956 0.779787 0
M  V30 4549 C 423.667 -2.32761 0.185651 0
M  V30 4550 C 424.648 -1.56177 -0.673989 0
M  V30 4551 O 425.833 -1.84378 -0.609797 0
M  V30 4552 C 422.963 -3.40418 -0.687964 0
M  V30 4553 C 421.917 -4.27941 0.0710102 0
M  V30 4554 C 421.243 -5.26681 -0.922573 0
M  V30 4555 C 422.543 -5.07006 1.25467 0
M  V30 4556 H 424.237 -2.82698 0.986008 0
M  V30 4557 H 421.783 -1.3592 0.475592 0
M  V30 4558 H 423.736 -4.06423 -1.11348 0
M  V30 4559 H 422.46 -2.89025 -1.52093 0
M  V30 4560 H 421.119 -3.63478 0.47739 0
M  V30 4561 H 420.767 -4.71565 -1.7503 0
M  V30 4562 H 420.467 -5.86103 -0.419237 0
M  V30 4563 H 421.991 -5.9556 -1.34686 0
M  V30 4564 H 423.405 -5.66105 0.905401 0
M  V30 4565 H 421.802 -5.75793 1.69063 0
M  V30 4566 H 422.872 -4.3921 2.05481 0
M  V30 4567 N 424.215 -0.530993 -1.48385 0
M  V30 4568 C 425.145 0.219985 -2.32461 0
M  V30 4569 C 426.126 0.934111 -1.42156 0
M  V30 4570 O 427.311 0.919694 -1.71042 0
M  V30 4571 C 424.441 1.26674 -3.23375 0
M  V30 4572 C 423.395 0.67069 -4.22712 0
M  V30 4573 C 422.721 1.82017 -5.02766 0
M  V30 4574 C 424.021 -0.358268 -5.2107 0
M  V30 4575 H 425.715 -0.48187 -2.95497 0
M  V30 4576 H 423.261 -0.233182 -1.42099 0
M  V30 4577 H 425.214 1.80006 -3.81019 0
M  V30 4578 H 423.938 1.99818 -2.58341 0
M  V30 4579 H 422.597 0.158878 -3.66256 0
M  V30 4580 H 422.245 2.54002 -4.34157 0
M  V30 4581 H 421.945 1.42727 -5.70003 0
M  V30 4582 H 423.469 2.35725 -5.63264 0
M  V30 4583 H 424.883 0.0880081 -5.73232 0
M  V30 4584 H 423.28 -0.66861 -5.96364 0
M  V30 4585 H 424.35 -1.26367 -4.68145 0
M  V30 4586 N 425.693 1.55336 -0.266172 0
M  V30 4587 C 426.94 1.99397 0.353158 0
M  V30 4588 C 427.268 1.15451 1.56529 0
M  V30 4589 O 426.523 0.209974 1.9457 0
M  V30 4590 C 426.822 3.48606 0.787957 0
M  V30 4591 C 426.488 4.49773 -0.318541 0
M  V30 4592 C 425.15 4.77158 -0.62239 0
M  V30 4593 C 427.502 5.10212 -1.06459 0
M  V30 4594 C 424.83 5.62251 -1.67602 0
M  V30 4595 C 427.182 5.96449 -2.10788 0
M  V30 4596 C 425.846 6.22158 -2.41817 0
M  V30 4597 H 425.116 0.729644 0.12923 0
M  V30 4598 H 427.763 1.87732 -0.37802 0
M  V30 4599 H 426.068 3.57701 1.59866 0
M  V30 4600 H 427.765 3.80098 1.27775 0
M  V30 4601 H 424.355 4.2854 -0.0715925 0
M  V30 4602 H 428.539 4.89086 -0.843098 0
M  V30 4603 H 423.795 5.80419 -1.92155 0
M  V30 4604 H 427.969 6.42317 -2.69076 0
M  V30 4605 H 425.596 6.87888 -3.23596 0
M  V30 4606 N 427.171 -0.0066808 1.57599 0
M  V30 4607 C 428.42 -0.692078 1.89455 0
M  V30 4608 C 428.733 -1.75306 0.867586 0
M  V30 4609 O 429.939 -2.49262 1.07614 0
M  V30 4610 C 428.395 -1.2821 3.36289 0
M  V30 4611 C 428.003 -0.256291 4.47266 0
M  V30 4612 C 429.747 -1.94608 3.77264 0
M  V30 4613 C 427.654 -0.855927 5.85173 0
M  V30 4614 H 426.584 -0.262252 0.706923 0
M  V30 4615 H 429.235 0.052769 1.83424 0
M  V30 4616 H 427.617 -2.0774 3.37135 0
M  V30 4617 H 428.791 0.513923 4.57925 0
M  V30 4618 H 427.106 0.306862 4.15268 0
M  V30 4619 H 429.703 -2.40364 4.77629 0
M  V30 4620 H 430.046 -2.77382 3.10427 0
M  V30 4621 H 430.579 -1.21822 3.78688 0
M  V30 4622 H 427.318 -0.0671161 6.55466 0
M  V30 4623 H 426.838 -1.59546 5.78191 0
M  V30 4624 H 428.517 -1.35658 6.32618 0
M  V30 4625 N 428.649 -1.55105 -0.279332 0
M  V30 4626 C 429.895 -1.75672 -1.01327 0
M  V30 4627 C 430.228 -0.552739 -1.86168 0
M  V30 4628 O 429.503 0.449827 -1.89227 0
M  V30 4629 C 429.786 -3.05825 -1.90114 0
M  V30 4630 C 429.639 -4.36565 -1.08309 0
M  V30 4631 C 430.958 -3.31975 -2.8893 0
M  V30 4632 H 428.077 -0.639149 -0.366957 0
M  V30 4633 H 430.719 -1.87833 -0.286154 0
M  V30 4634 H 428.869 -2.95588 -2.52111 0
M  V30 4635 H 430.541 -4.58751 -0.484314 0
M  V30 4636 H 428.784 -4.32076 -0.386362 0
M  V30 4637 H 429.455 -5.23946 -1.73737 0
M  V30 4638 H 431.931 -3.41963 -2.37067 0
M  V30 4639 H 430.807 -4.2432 -3.48201 0
M  V30 4640 H 431.068 -2.51309 -3.63725 0
M  V30 4641 N 430.127 0.543554 -1.4793 0
M  V30 4642 C 431.357 1.32324 -1.58663 0
M  V30 4643 C 431.765 1.8766 -0.240896 0
M  V30 4644 O 431.108 1.66411 0.778011 0
M  V30 4645 C 431.17 2.52094 -2.56299 0
M  V30 4646 C 430.834 2.17944 -4.01683 0
M  V30 4647 C 431.831 1.74422 -4.89768 0
M  V30 4648 C 429.516 2.28884 -4.47121 0
M  V30 4649 C 431.51 1.42287 -6.21316 0
M  V30 4650 C 429.197 1.96361 -5.78693 0
M  V30 4651 C 430.195 1.53132 -6.65612 0
M  V30 4652 O 429.883 1.21029 -7.94737 0
M  V30 4653 H 429.615 0.409174 -0.538101 0
M  V30 4654 H 432.169 0.663887 -1.94375 0
M  V30 4655 H 430.399 3.20965 -2.15681 0
M  V30 4656 H 432.088 3.14165 -2.57012 0
M  V30 4657 H 432.854 1.65452 -4.55907 0
M  V30 4658 H 428.733 2.61488 -3.79664 0
M  V30 4659 H 432.277 1.08472 -6.89115 0
M  V30 4660 H 428.174 2.04967 -6.12094 0
M  V30 4661 H 428.942 1.34543 -8.07366 0
M  V30 4662 N 431.605 1.3629 0.791371 0
M  V30 4663 C 432.568 1.30309 1.88553 0
M  V30 4664 C 433.568 0.211204 1.59407 0
M  V30 4665 O 434.758 0.465865 1.67855 0
M  V30 4666 C 431.89 1.01956 3.25297 0
M  V30 4667 H 433.083 2.27614 1.95273 0
M  V30 4668 H 430.636 1.21035 0.988953 0
M  V30 4669 H 431.371 0.050998 3.2426 0
M  V30 4670 H 431.156 1.80968 3.4784 0
M  V30 4671 H 432.646 1.0037 4.05359 0
M  V30 4672 N 433.083 -1.0153 1.20538 0
M  V30 4673 C 434.313 -1.78487 1.04048 0
M  V30 4674 C 434.721 -1.84631 -0.413292 0
M  V30 4675 O 434.064 -1.29919 -1.29872 0
M  V30 4676 C 434.126 -3.24367 1.55003 0
M  V30 4677 C 433.79 -3.41827 3.0332 0
M  V30 4678 C 434.787 -3.30941 4.00966 0
M  V30 4679 C 432.472 -3.67602 3.42307 0
M  V30 4680 C 434.466 -3.45577 5.35589 0
M  V30 4681 C 432.153 -3.81881 4.77085 0
M  V30 4682 C 433.151 -3.70874 5.73534 0
M  V30 4683 O 432.839 -3.84714 7.05868 0
M  V30 4684 H 432.571 -0.568108 0.366373 0
M  V30 4685 H 435.125 -1.28677 1.60098 0
M  V30 4686 H 433.355 -3.75266 0.933397 0
M  V30 4687 H 435.044 -3.82963 1.34514 0
M  V30 4688 H 435.81 -3.10964 3.72191 0
M  V30 4689 H 431.689 -3.75256 2.67776 0
M  V30 4690 H 435.233 -3.36902 6.10854 0
M  V30 4691 H 431.13 -4.01359 5.0555 0
M  V30 4692 H 431.898 -4.01724 7.13134 0
M  V30 4693 N 434.561 -1.01147 -1.20859 0
M  V30 4694 C 435.494 -0.522108 -2.22147 0
M  V30 4695 C 436.472 0.427686 -1.56874 0
M  V30 4696 O 437.656 0.34889 -1.85243 0
M  V30 4697 C 434.783 0.240819 -3.37843 0
M  V30 4698 C 433.829 -0.657752 -4.21398 0
M  V30 4699 S 434.662 -2.12393 -4.91578 0
M  V30 4700 C 435.818 -1.37102 -6.10699 0
M  V30 4701 H 436.051 -1.38035 -2.63313 0
M  V30 4702 H 433.584 -0.819941 -1.30829 0
M  V30 4703 H 435.542 0.674908 -4.04914 0
M  V30 4704 H 434.203 1.07457 -2.95147 0
M  V30 4705 H 433.396 -0.0697456 -5.03952 0
M  V30 4706 H 432.998 -1.0294 -3.59555 0
M  V30 4707 H 435.29 -0.648315 -6.74391 0
M  V30 4708 H 436.233 -2.17252 -6.73949 0
M  V30 4709 H 436.641 -0.876154 -5.57659 0
M  V30 4710 N 436.039 1.36541 -0.78704 0
M  V30 4711 C 437.269 2.03266 -0.369662 0
M  V30 4712 C 437.677 1.59481 1.01796 0
M  V30 4713 O 437.02 0.778612 1.66383 0
M  V30 4714 C 437.082 3.57779 -0.351371 0
M  V30 4715 C 436.746 4.24756 -1.68617 0
M  V30 4716 C 437.743 4.47811 -2.64124 0
M  V30 4717 C 435.428 4.62277 -1.96481 0
M  V30 4718 C 437.422 5.07464 -3.85693 0
M  V30 4719 C 435.109 5.21649 -3.18317 0
M  V30 4720 C 436.107 5.44182 -4.12741 0
M  V30 4721 O 435.795 6.02307 -5.32429 0
M  V30 4722 H 435.527 0.658977 -0.150751 0
M  V30 4723 H 438.081 1.75548 -1.0664 0
M  V30 4724 H 436.311 3.84606 0.401847 0
M  V30 4725 H 438 4.05879 0.0410147 0
M  V30 4726 H 438.766 4.19221 -2.43883 0
M  V30 4727 H 434.645 4.44065 -1.23805 0
M  V30 4728 H 438.189 5.24968 -4.59407 0
M  V30 4729 H 434.086 5.49664 -3.38437 0
M  V30 4730 H 434.854 6.20775 -5.33461 0
M  V30 4731 N 437.518 0.538854 1.48102 0
M  V30 4732 C 438.767 0.0059532 2.01699 0
M  V30 4733 C 439.08 -1.34476 1.42041 0
M  V30 4734 O 440.286 -1.96653 1.87189 0
M  V30 4735 C 438.742 -0.0397627 3.59878 0
M  V30 4736 C 438.35 1.30659 4.28523 0
M  V30 4737 C 440.094 -0.521024 4.2129 0
M  V30 4738 C 438.001 1.22098 5.78659 0
M  V30 4739 H 436.931 -0.00154456 0.753998 0
M  V30 4740 H 439.582 0.683963 1.70277 0
M  V30 4741 H 437.964 -0.783037 3.88181 0
M  V30 4742 H 439.138 2.06613 4.11883 0
M  V30 4743 H 437.453 1.7243 3.79021 0
M  V30 4744 H 440.05 -0.603184 5.31287 0
M  V30 4745 H 440.393 -1.52885 3.8721 0
M  V30 4746 H 440.926 0.166834 3.9745 0
M  V30 4747 H 437.665 2.20424 6.17328 0
M  V30 4748 H 437.185 0.50295 5.97688 0
M  V30 4749 H 438.864 0.915345 6.40492 0
M  V30 4750 N 438.996 -1.55193 0.274407 0
M  V30 4751 C 439.926 -2.25471 -0.607032 0
M  V30 4752 C 440.907 -1.24461 -1.15946 0
M  V30 4753 O 442.092 -1.53179 -1.19373 0
M  V30 4754 C 439.222 -2.97526 -1.79153 0
M  V30 4755 C 438.176 -4.05459 -1.37067 0
M  V30 4756 C 437.502 -4.65084 -2.6382 0
M  V30 4757 C 438.802 -5.19691 -0.521389 0
M  V30 4758 H 440.496 -2.99393 -0.0209343 0
M  V30 4759 H 438.042 -1.43997 -0.00862866 0
M  V30 4760 H 439.995 -3.45402 -2.41404 0
M  V30 4761 H 438.719 -2.21138 -2.40344 0
M  V30 4762 H 437.378 -3.58393 -0.771355 0
M  V30 4763 H 437.026 -3.85365 -3.23268 0
M  V30 4764 H 436.726 -5.37961 -2.36372 0
M  V30 4765 H 438.25 -5.15708 -3.26921 0
M  V30 4766 H 439.664 -5.63623 -1.04889 0
M  V30 4767 H 438.061 -5.99126 -0.341825 0
M  V30 4768 H 439.131 -4.82713 0.46 0
M  V30 4769 N 440.474 -0.00167713 -1.576 0
M  V30 4770 C 441.72 0.67819 -1.91761 0
M  V30 4771 C 442.075 1.71288 -0.876256 0
M  V30 4772 O 441.368 1.91276 0.111333 0
M  V30 4773 C 441.562 1.36189 -3.30435 0
M  V30 4774 C 441.391 0.394938 -4.47962 0
M  V30 4775 C 440.161 0.00472875 -5.053 0
M  V30 4776 C 442.359 -0.339521 -5.13178 0
M  V30 4777 N 440.341 -0.960257 -6.06343 0
M  V30 4778 C 441.712 -1.15914 -6.09068 0
M  V30 4779 C 443.767 -0.403177 -4.96265 0
M  V30 4780 C 442.47 -2.03661 -6.89866 0
M  V30 4781 C 444.496 -1.26788 -5.77649 0
M  V30 4782 C 443.858 -2.07535 -6.73134 0
M  V30 4783 H 439.957 0.221317 -0.750028 0
M  V30 4784 H 442.541 -0.0624182 -1.946 0
M  V30 4785 H 440.712 2.07278 -3.28467 0
M  V30 4786 H 442.444 1.99658 -3.52021 0
M  V30 4787 H 439.199 0.373452 -4.72125 0
M  V30 4788 H 439.623 -1.43817 -6.61548 0
M  V30 4789 H 444.265 0.206818 -4.22294 0
M  V30 4790 H 441.983 -2.65727 -7.63161 0
M  V30 4791 H 445.569 -1.32107 -5.66603 0
M  V30 4792 H 444.449 -2.73363 -7.35012 0
M  V30 4793 N 441.952 1.55251 0.271103 0
M  V30 4794 C 442.899 1.88261 1.33516 0
M  V30 4795 C 443.869 0.734296 1.48988 0
M  V30 4796 O 445.054 0.985741 1.63364 0
M  V30 4797 C 442.194 2.16168 2.69008 0
M  V30 4798 C 441.307 3.43678 2.61743 0
M  V30 4799 C 440.442 3.61276 3.89427 0
M  V30 4800 C 439.481 4.82472 3.7668 0
M  V30 4801 N 438.618 4.96717 4.96202 0
M  V30 4802 H 443.458 2.79015 1.04665 0
M  V30 4803 H 440.995 1.38137 0.505618 0
M  V30 4804 H 442.953 2.30349 3.47844 0
M  V30 4805 H 441.583 1.28646 2.96057 0
M  V30 4806 H 440.635 3.37959 1.74607 0
M  V30 4807 H 441.947 4.3265 2.48224 0
M  V30 4808 H 441.101 3.75284 4.76704 0
M  V30 4809 H 439.84 2.70492 4.05814 0
M  V30 4810 H 438.845 4.68465 2.87786 0
M  V30 4811 H 440.07 5.74692 3.61809 0
M  V30 4812 H 438.016 4.08865 5.12997 0
M  V30 4813 H 437.933 5.79738 4.85222 0
M  V30 4814 H 439.201 5.15113 5.85046 0
M  V30 4815 N 443.43 -0.535701 1.48216 0
M  V30 4816 C 444.393 -1.623 1.61838 0
M  V30 4817 C 445.393 -1.53087 0.492024 0
M  V30 4818 O 446.583 -1.5686 0.757668 0
M  V30 4819 C 443.715 -3.01907 1.58319 0
M  V30 4820 H 444.908 -1.51564 2.58783 0
M  V30 4821 H 442.461 -0.757317 1.36727 0
M  V30 4822 H 443.196 -3.18155 0.628299 0
M  V30 4823 H 442.981 -3.10003 2.40085 0
M  V30 4824 H 444.471 -3.80969 1.71033 0
M  V30 4825 N 444.908 -1.36708 -0.784132 0
M  V30 4826 C 445.858 -1.2799 -1.88686 0
M  V30 4827 C 446.842 -0.170282 -1.59996 0
M  V30 4828 O 448.034 -0.403571 -1.72338 0
M  V30 4829 C 445.163 -1.07674 -3.25977 0
M  V30 4830 C 444.249 -2.23127 -3.60659 0
M  V30 4831 N 444.64 -3.48467 -3.66612 0
M  V30 4832 C 442.938 -2.15009 -3.90752 0
M  V30 4833 C 443.639 -4.24525 -3.97685 0
M  V30 4834 N 442.615 -3.53524 -4.12943 0
M  V30 4835 H 446.417 -2.22927 -1.91522 0
M  V30 4836 H 443.931 -1.29503 -0.979933 0
M  V30 4837 H 445.928 -0.995151 -4.04849 0
M  V30 4838 H 444.588 -0.13643 -3.24413 0
M  V30 4839 H 445.599 -3.82534 -3.49125 0
M  V30 4840 H 442.276 -1.28963 -3.97083 0
M  V30 4841 H 443.666 -5.32944 -4.0917 0
M  V30 4842 N 446.386 1.0089 -1.21074 0
M  V30 4843 C 447.611 1.78727 -1.05221 0
M  V30 4844 C 448.036 1.83932 0.393795 0
M  V30 4845 O 447.394 1.28004 1.28393 0
M  V30 4846 C 447.442 3.20665 -1.64944 0
M  V30 4847 O 446.546 4.02632 -0.892273 0
M  V30 4848 H 445.887 0.550973 -0.370574 0
M  V30 4849 H 448.417 1.26847 -1.60534 0
M  V30 4850 H 448.427 3.71352 -1.69002 0
M  V30 4851 H 447.102 3.16191 -2.70177 0
M  V30 4852 H 445.679 3.61207 -0.926492 0
M  V30 4853 N 447.864 1.01787 1.20321 0
M  V30 4854 C 448.814 0.559976 2.21016 0
M  V30 4855 C 449.798 -0.385366 1.56217 0
M  V30 4856 O 450.99 -0.208126 1.75772 0
M  V30 4857 C 448.119 -0.0990553 3.43157 0
M  V30 4858 C 447.205 0.86807 4.15121 0
M  V30 4859 N 447.596 2.0261 4.63447 0
M  V30 4860 C 445.894 0.689162 4.40643 0
M  V30 4861 C 446.595 2.63518 5.18588 0
M  V30 4862 N 445.571 1.91569 5.08726 0
M  V30 4863 H 449.373 1.44281 2.56048 0
M  V30 4864 H 446.887 0.883381 1.36272 0
M  V30 4865 H 448.884 -0.444643 4.14522 0
M  V30 4866 H 447.544 -0.977709 3.0963 0
M  V30 4867 H 448.555 2.40598 4.58621 0
M  V30 4868 H 445.232 -0.14133 4.17261 0
M  V30 4869 H 446.622 3.61527 5.66346 0
M  V30 4870 N 449.342 -1.36122 0.79427 0
M  V30 4871 C 450.305 -2.28309 0.201889 0
M  V30 4872 C 451.305 -1.49041 -0.603603 0
M  V30 4873 O 452.495 -1.68964 -0.423888 0
M  V30 4874 C 449.627 -3.3321 -0.719978 0
M  V30 4875 H 450.82 -2.82208 1.01481 0
M  V30 4876 H 448.373 -1.45768 0.564037 0
M  V30 4877 H 449.108 -2.84475 -1.55706 0
M  V30 4878 H 448.893 -3.91835 -0.144266 0
M  V30 4879 H 450.383 -4.02044 -1.12916 0
M  V30 4880 N 450.82 -0.546701 -1.47814 0
M  V30 4881 C 452.066 -0.0187684 -2.02791 0
M  V30 4882 C 452.399 1.32338 -1.42128 0
M  V30 4883 O 451.674 1.85867 -0.573023 0
M  V30 4884 C 451.957 0.0854985 -3.59998 0
M  V30 4885 C 451.81 -1.283 -4.31114 0
M  V30 4886 C 453.129 0.80412 -4.32691 0
M  V30 4887 H 450.248 -0.0082946 -0.736953 0
M  V30 4888 H 452.89 -0.706962 -1.76358 0
M  V30 4889 H 451.04 0.671609 -3.82651 0
M  V30 4890 H 452.712 -1.91151 -4.19832 0
M  V30 4891 H 450.955 -1.86049 -3.91878 0
M  V30 4892 H 451.626 -1.16287 -5.39612 0
M  V30 4893 H 454.102 0.306576 -4.14969 0
M  V30 4894 H 452.978 0.846011 -5.42341 0
M  V30 4895 H 453.239 1.85802 -4.01161 0
M  V30 4896 N 452.299 1.55045 -0.282633 0
M  V30 4897 C 453.715 1.59441 0.0712997 0
M  V30 4898 C 453.915 1.2998 1.53972 0
M  V30 4899 O 452.971 1.06431 2.28973 0
M  V30 4900 C 454.284 2.99097 -0.310104 0
M  V30 4901 C 455.832 3.1194 -0.257343 0
M  V30 4902 C 456.307 4.53875 -0.613297 0
M  V30 4903 N 457.798 4.5974 -0.565134 0
M  V30 4904 C 458.533 5.67603 -0.81326 0
M  V30 4905 N 458.029 6.83582 -1.1264 0
M  V30 4906 N 459.822 5.57187 -0.741553 0
M  V30 4907 H 451.973 1.72458 -1.23984 0
M  V30 4908 H 454.236 0.804549 -0.501403 0
M  V30 4909 H 453.942 3.25516 -1.33163 0
M  V30 4910 H 453.816 3.75616 0.345366 0
M  V30 4911 H 456.203 2.85281 0.754905 0
M  V30 4912 H 456.284 2.37618 -0.947178 0
M  V30 4913 H 455.928 4.81261 -1.62327 0
M  V30 4914 H 455.858 5.26508 0.09841 0
M  V30 4915 H 458.349 3.76427 -0.333294 0
M  V30 4916 H 458.662 7.6175 -1.30219 0
M  V30 4917 H 457.007 6.85179 -1.16425 0
M  V30 4918 H 460.198 4.65457 -0.496705 0
M  V30 4919 H 460.371 6.41171 -0.938306 0
M  V30 4920 N 453.777 0.010035 1.57597 0
M  V30 4921 C 454.71 -1.01234 2.04516 0
M  V30 4922 C 455.688 -1.32886 0.937024 0
M  V30 4923 O 456.872 -1.44879 1.20592 0
M  V30 4924 C 453.999 -2.33738 2.45121 0
M  V30 4925 C 453.045 -2.17679 3.66767 0
M  V30 4926 S 453.878 -1.49343 5.14254 0
M  V30 4927 C 455.034 -2.83256 5.58137 0
M  V30 4928 H 455.267 -0.612866 2.90914 0
M  V30 4929 H 452.8 -0.201124 1.53084 0
M  V30 4930 H 454.758 -3.09922 2.69182 0
M  V30 4931 H 453.419 -2.70823 1.59103 0
M  V30 4932 H 452.612 -3.1559 3.92962 0
M  V30 4933 H 452.214 -1.4964 3.42759 0
M  V30 4934 H 454.506 -3.79538 5.6121 0
M  V30 4935 H 455.449 -2.61749 6.57946 0
M  V30 4936 H 455.857 -2.87627 4.85727 0
M  V30 4937 N 455.255 -1.55392 -0.262866 0
M  V30 4938 C 456.504 -1.75679 -0.990943 0
M  V30 4939 C 456.817 -0.57097 -1.87081 0
M  V30 4940 O 458.023 -0.656486 -2.63444 0
M  V30 4941 C 456.479 -3.10964 -1.81188 0
M  V30 4942 C 456.087 -4.37146 -0.980188 0
M  V30 4943 C 457.831 -3.40597 -2.53365 0
M  V30 4944 C 455.738 -5.63466 -1.7961 0
M  V30 4945 H 454.668 -0.654868 -0.373716 0
M  V30 4946 H 457.319 -1.81841 -0.246203 0
M  V30 4947 H 455.701 -2.98867 -2.59797 0
M  V30 4948 H 456.875 -4.60187 -0.237558 0
M  V30 4949 H 455.19 -4.14731 -0.372497 0
M  V30 4950 H 457.787 -4.32186 -3.14833 0
M  V30 4951 H 458.13 -2.6119 -3.24169 0
M  V30 4952 H 458.663 -3.53838 -1.81779 0
M  V30 4953 H 455.402 -6.4565 -1.13209 0
M  V30 4954 H 454.922 -5.44552 -2.51443 0
M  V30 4955 H 456.601 -6.02139 -2.36723 0
M  V30 4956 N 456.733 0.527833 -1.48498 0
M  V30 4957 C 457.665 1.6482 -1.5927 0
M  V30 4958 C 458.678 1.55659 -0.476869 0
M  V30 4959 O 459.867 1.62081 -0.747806 0
M  V30 4960 C 456.967 3.0348 -1.50842 0
M  V30 4961 C 456.14 3.381 -2.77502 0
M  V30 4962 C 455.199 4.5605 -2.62497 0
M  V30 4963 O 454.225 4.59165 -3.36387 0
M  V30 4964 N 455.427 5.54353 -1.72257 0
M  V30 4965 H 458.192 1.56015 -2.55889 0
M  V30 4966 H 455.753 0.715152 -1.45249 0
M  V30 4967 H 457.745 3.80264 -1.38496 0
M  V30 4968 H 456.315 3.06352 -0.621887 0
M  V30 4969 H 455.535 2.50473 -3.04396 0
M  V30 4970 H 456.823 3.58017 -3.61527 0
M  V30 4971 H 456.221 5.54617 -1.11431 0
M  V30 4972 H 454.778 6.30347 -1.65849 0
M  V30 4973 N 458.211 1.37122 0.776871 0
M  V30 4974 C 459.627 1.1781 1.07671 0
M  V30 4975 C 459.827 0.0107454 2.01497 0
M  V30 4976 O 458.883 -0.650756 2.4397 0
M  V30 4977 C 460.196 2.49451 1.67913 0
M  V30 4978 C 461.744 2.55927 1.80195 0
M  V30 4979 C 462.219 3.87686 2.43851 0
M  V30 4980 N 463.71 3.891 2.51307 0
M  V30 4981 C 464.445 4.87797 3.014 0
M  V30 4982 N 463.941 5.96888 3.51705 0
M  V30 4983 N 465.734 4.75205 3.00227 0
M  V30 4984 H 457.885 2.11843 0.153778 0
M  V30 4985 H 460.148 0.938927 0.130844 0
M  V30 4986 H 459.854 3.35207 1.06439 0
M  V30 4987 H 459.728 2.66169 2.67271 0
M  V30 4988 H 462.115 1.70582 2.40803 0
M  V30 4989 H 462.196 2.43097 0.796069 0
M  V30 4990 H 461.84 4.73444 1.83884 0
M  V30 4991 H 461.77 3.97817 3.45035 0
M  V30 4992 H 464.261 3.10293 2.157 0
M  V30 4993 H 464.574 6.68155 3.88316 0
M  V30 4994 H 462.919 6.0054 3.49824 0
M  V30 4995 H 466.11 3.89103 2.60224 0
M  V30 4996 H 466.283 5.52279 3.38957 0
M  V30 4997 N 459.689 -1.00246 1.21608 0
M  V30 4998 C 460.937 -1.73717 1.0328 0
M  V30 4999 C 461.258 -1.90102 -0.434318 0
M  V30 5000 O 460.528 -1.45376 -1.31311 0
M  V30 5001 H 459.108 -0.643613 0.379172 0
M  V30 5002 H 461.77 -1.20787 1.52959 0
M  V30 5003 H 460.866 -2.73535 1.50283 0
M  V30 5004 N 461.167 -1.02423 -1.1978 0
M  V30 5005 C 462.395 -0.737456 -1.93311 0
M  V30 5006 C 462.81 0.703023 -1.75223 0
M  V30 5007 O 462.167 1.47761 -1.07112 0
M  V30 5008 C 462.218 -1.0733 -3.45199 0
M  V30 5009 O 461.939 -2.4572 -3.62702 0
M  V30 5010 C 463.44 -0.80866 -4.35862 0
M  V30 5011 H 460.66 -0.2702 -0.614193 0
M  V30 5012 H 463.204 -1.36747 -1.52054 0
M  V30 5013 H 461.359 -0.488545 -3.84307 0
M  V30 5014 H 461.773 -2.58081 -4.56612 0
M  V30 5015 H 463.247 -1.09365 -5.41057 0
M  V30 5016 H 463.724 0.257025 -4.38447 0
M  V30 5017 H 464.33 -1.37592 -4.02428 0
M  V30 5018 N 462.645 1.35699 -0.801477 0
M  V30 5019 C 463.577 2.28598 -0.166028 0
M  V30 5020 C 464.59 1.50044 0.631721 0
M  V30 5021 O 465.779 1.72339 0.464921 0
M  V30 5022 C 462.879 3.29625 0.787451 0
M  V30 5023 C 462.052 4.37384 0.037171 0
M  V30 5024 C 461.111 5.183 0.908375 0
M  V30 5025 O 460.137 5.68053 0.361189 0
M  V30 5026 N 461.339 5.35912 2.23112 0
M  V30 5027 H 464.104 2.83771 -0.964071 0
M  V30 5028 H 461.665 1.47994 -0.656469 0
M  V30 5029 H 463.657 3.80648 1.37439 0
M  V30 5030 H 462.227 2.75004 1.48632 0
M  V30 5031 H 461.447 3.87364 -0.730935 0
M  V30 5032 H 462.735 5.0653 -0.480109 0
M  V30 5033 H 462.133 4.97125 2.69968 0
M  V30 5034 H 460.69 5.90133 2.76741 0
M  V30 5035 N 464.123 0.554532 1.47522 0
M  V30 5036 C 465.07 -0.19466 2.29978 0
M  V30 5037 C 466.04 -0.910882 1.38896 0
M  V30 5038 O 467.225 -0.907102 1.67858 0
M  V30 5039 C 464.365 -1.22035 3.22802 0
M  V30 5040 C 463.478 -0.510474 4.28973 0
M  V30 5041 C 462.613 -1.52123 5.08952 0
M  V30 5042 C 461.652 -0.796173 6.069 0
M  V30 5043 N 460.789 -1.75363 6.79847 0
M  V30 5044 H 465.629 0.51461 2.93523 0
M  V30 5045 H 463.166 0.265607 1.44682 0
M  V30 5046 H 465.124 -1.8276 3.7504 0
M  V30 5047 H 463.754 -1.89769 2.61127 0
M  V30 5048 H 462.806 0.211234 3.79813 0
M  V30 5049 H 464.118 0.0576503 4.98767 0
M  V30 5050 H 463.272 -2.20207 5.65326 0
M  V30 5051 H 462.011 -2.12327 4.39054 0
M  V30 5052 H 461.016 -0.101388 5.49707 0
M  V30 5053 H 462.241 -0.199911 6.78806 0
M  V30 5054 H 460.187 -2.3443 6.12682 0
M  V30 5055 H 460.104 -1.23759 7.45801 0
M  V30 5056 H 461.372 -2.4257 7.40797 0
M  V30 5057 N 465.601 -1.54893 0.290851 0
M  V30 5058 C 466.826 -2.04804 -0.32712 0
M  V30 5059 C 467.251 -1.16721 -1.47506 0
M  V30 5060 O 466.609 -0.169107 -1.8051 0
M  V30 5061 C 466.657 -3.52268 -0.770689 0
M  V30 5062 O 465.761 -3.67236 -1.87647 0
M  V30 5063 H 465.102 -0.660789 -0.0652227 0
M  V30 5064 H 467.632 -2.00036 0.429739 0
M  V30 5065 H 467.642 -3.9393 -1.06223 0
M  V30 5066 H 466.317 -4.15843 0.069096 0
M  V30 5067 H 464.894 -3.37479 -1.58626 0
M  V30 5068 N 467.08 -0.0183926 -1.57589 0
M  V30 5069 C 468.329 0.66185 -1.90532 0
M  V30 5070 C 468.642 1.73904 -0.895366 0
M  V30 5071 O 469.848 2.47518 -1.11566 0
M  V30 5072 C 468.304 1.22844 -3.38286 0
M  V30 5073 C 467.912 0.185103 -4.47617 0
M  V30 5074 C 469.656 1.88581 -3.80312 0
M  V30 5075 C 467.563 0.762723 -5.86461 0
M  V30 5076 H 466.493 0.250972 -0.711006 0
M  V30 5077 H 469.144 -0.0819435 -1.83317 0
M  V30 5078 H 467.526 2.0235 -3.40398 0
M  V30 5079 H 468.7 -0.58671 -4.5705 0
M  V30 5080 H 467.015 -0.372889 -4.14727 0
M  V30 5081 H 469.612 2.32735 -4.81392 0
M  V30 5082 H 469.955 2.72408 -3.14801 0
M  V30 5083 H 470.488 1.15782 -3.80578 0
M  V30 5084 H 467.227 -0.0371713 -6.55489 0
M  V30 5085 H 466.747 1.50327 -5.80656 0
M  V30 5086 H 468.426 1.25576 -6.34697 0
M  V30 5087 N 468.558 1.5553 0.254621 0
M  V30 5088 C 469.807 1.76202 0.981612 0
M  V30 5089 C 470.12 0.580883 1.86776 0
M  V30 5090 O 471.326 0.670448 2.63092 0
M  V30 5091 C 469.782 3.11921 1.79537 0
M  V30 5092 C 469.39 4.37659 0.956991 0
M  V30 5093 C 471.134 3.41936 2.51555 0
M  V30 5094 C 469.041 5.64411 1.76619 0
M  V30 5095 H 467.971 0.656841 0.370237 0
M  V30 5096 H 470.622 1.81969 0.236556 0
M  V30 5097 H 469.004 3.00241 2.58208 0
M  V30 5098 H 470.178 4.60307 0.21315 0
M  V30 5099 H 468.493 4.14922 0.350497 0
M  V30 5100 H 471.09 4.33849 3.12536 0
M  V30 5101 H 471.433 2.62905 3.22779 0
M  V30 5102 H 471.966 3.54797 1.799 0
M  V30 5103 H 468.705 6.46241 1.09783 0
M  V30 5104 H 468.225 5.45877 2.48551 0
M  V30 5105 H 469.904 6.03386 2.33527 0
M  V30 5106 N 470.036 -0.519951 1.48776 0
M  V30 5107 C 471.285 -1.27175 1.56555 0
M  V30 5108 C 471.598 -1.9401 0.248869 0
M  V30 5109 O 472.804 -2.70725 0.205004 0
M  V30 5110 C 471.26 -2.30811 2.76142 0
M  V30 5111 C 470.868 -1.7 4.14493 0
M  V30 5112 C 472.612 -3.06937 2.9324 0
M  V30 5113 C 470.519 -2.71635 5.25327 0
M  V30 5114 H 469.449 -0.478329 0.582853 0
M  V30 5115 H 472.1 -0.547916 1.75129 0
M  V30 5116 H 470.482 -3.06274 2.51023 0
M  V30 5117 H 471.656 -1.00658 4.49672 0
M  V30 5118 H 469.971 -1.06331 4.02595 0
M  V30 5119 H 472.568 -3.82905 3.73213 0
M  V30 5120 H 472.911 -3.63409 2.03075 0
M  V30 5121 H 473.444 -2.38589 3.18308 0
M  V30 5122 H 470.183 -2.1997 6.1749 0
M  V30 5123 H 469.703 -3.39275 4.94624 0
M  V30 5124 H 471.382 -3.34429 5.53865 0
M  V30 5125 N 471.514 -1.37532 -0.769588 0
M  V30 5126 C 472.464 -1.29984 -1.87318 0
M  V30 5127 C 473.448 -0.187242 -1.59807 0
M  V30 5128 O 474.64 -0.421827 -1.719 0
M  V30 5129 C 471.769 -1.11126 -3.24817 0
M  V30 5130 C 470.855 -2.26939 -3.58273 0
M  V30 5131 N 471.246 -3.52336 -3.62895 0
M  V30 5132 C 469.544 -2.19141 -3.8845 0
M  V30 5133 C 470.245 -4.28719 -3.9316 0
M  V30 5134 N 469.221 -3.57884 -4.0917 0
M  V30 5135 H 473.023 -2.24946 -1.89147 0
M  V30 5136 H 470.537 -1.30535 -0.966143 0
M  V30 5137 H 472.534 -1.03803 -4.0377 0
M  V30 5138 H 471.194 -0.17083 -3.2425 0
M  V30 5139 H 472.205 -3.86216 -3.45048 0
M  V30 5140 H 468.882 -1.33167 -3.95693 0
M  V30 5141 H 470.272 -5.37254 -4.03494 0
M  V30 5142 N 472.992 0.995999 -1.22138 0
M  V30 5143 C 474.22 1.77066 -1.07029 0
M  V30 5144 C 474.635 1.8495 0.379357 0
M  V30 5145 O 473.992 1.3174 1.26297 0
M  V30 5146 C 474.043 3.20533 -1.67155 0
M  V30 5147 O 473.764 3.13082 -3.06449 0
M  V30 5148 C 475.265 4.14461 -1.5728 0
M  V30 5149 H 472.485 0.556179 -0.375374 0
M  V30 5150 H 475.029 1.25238 -1.61666 0
M  V30 5151 H 473.184 3.6944 -1.16589 0
M  V30 5152 H 473.598 4.03283 -3.35355 0
M  V30 5153 H 475.072 5.1289 -2.04078 0
M  V30 5154 H 475.549 4.36005 -0.528795 0
M  V30 5155 H 476.155 3.71449 -2.07136 0
M  V30 5156 N 474.47 1.03057 1.19235 0
M  V30 5157 C 475.695 0.74757 1.93458 0
M  V30 5158 C 476.12 -0.687648 1.7508 0
M  V30 5159 O 475.478 -1.47499 1.05422 0
M  V30 5160 C 475.526 1.10604 3.43219 0
M  V30 5161 O 474.63 0.225671 4.11782 0
M  V30 5162 H 473.971 0.276047 0.603899 0
M  V30 5163 H 476.501 1.3777 1.51263 0
M  V30 5164 H 476.511 1.06366 3.93891 0
M  V30 5165 H 475.186 2.15165 3.55917 0
M  V30 5166 H 473.763 0.326795 3.71465 0
M  V30 5167 N 475.948 -1.35272 0.808662 0
M  V30 5168 C 476.858 -2.33546 0.222079 0
M  V30 5169 C 477.874 -1.6196 -0.636011 0
M  V30 5170 O 479.05 -1.93822 -0.547274 0
M  V30 5171 C 476.115 -3.41148 -0.61795 0
M  V30 5172 C 475.176 -4.28507 0.260875 0
M  V30 5173 C 474.409 -5.3097 -0.539156 0
M  V30 5174 O 474.632 -5.42123 -1.77367 0
M  V30 5175 O 473.566 -6.01858 0.0710526 0
M  V30 5176 H 477.392 -2.85515 1.03512 0
M  V30 5177 H 474.977 -1.38079 0.570495 0
M  V30 5178 H 476.859 -4.06889 -1.09634 0
M  V30 5179 H 475.534 -2.91447 -1.40855 0
M  V30 5180 H 474.441 -3.6574 0.786451 0
M  V30 5181 H 475.774 -4.81611 1.01547 0
M  V30 5182 N 477.426 -0.562348 -1.47226 0
M  V30 5183 C 478.703 0.0256985 -1.95583 0
M  V30 5184 C 479.083 1.48032 -1.50498 0
M  V30 5185 O 478.431 2.15973 -0.746181 0
M  V30 5186 C 478.641 -0.125129 -3.48776 0
M  V30 5187 C 479.989 0.0175728 -4.24596 0
M  V30 5188 O 481.013 -0.0529341 -3.56161 0
M  V30 5189 O 479.872 0.170145 -5.46235 0
M  V30 5190 H 476.966 0.0612565 -0.824728 0
M  V30 5191 H 479.512 -0.629233 -1.57603 0
M  V30 5192 H 478.284 -1.13715 -3.74412 0
M  V30 5193 H 477.907 0.567178 -3.93534 0
M  V30 5194 N 478.904 1.54736 -0.299062 0
M  V30 5195 C 480.152 1.99706 0.31017 0
M  V30 5196 C 480.473 1.18896 1.54559 0
M  V30 5197 O 479.743 0.284445 1.93824 0
M  V30 5198 H 478.323 0.737686 0.117596 0
M  V30 5199 H 480.985 1.9054 -0.409943 0
M  V30 5200 H 480.081 3.06596 0.58355 0
M  V30 5201 N 480.382 0.0267497 1.57577 0
M  V30 5202 C 481.329 -0.955894 2.10075 0
M  V30 5203 C 482.299 -1.32453 1.00226 0
M  V30 5204 O 483.484 -1.41826 1.27632 0
M  V30 5205 C 480.624 -2.2338 2.6305 0
M  V30 5206 C 479.737 -1.92183 3.86898 0
M  V30 5207 C 478.872 -3.14251 4.28275 0
M  V30 5208 C 477.911 -2.78862 5.44888 0
M  V30 5209 N 477.048 -3.93548 5.81433 0
M  V30 5210 H 481.888 -0.501303 2.93753 0
M  V30 5211 H 479.425 -0.235847 1.45197 0
M  V30 5212 H 481.383 -2.98124 2.91853 0
M  V30 5213 H 480.013 -2.6646 1.82205 0
M  V30 5214 H 479.065 -1.07692 3.64838 0
M  V30 5215 H 480.377 -1.62117 4.7172 0
M  V30 5216 H 479.531 -3.97317 4.58502 0
M  V30 5217 H 478.27 -3.47476 3.42215 0
M  V30 5218 H 477.275 -1.94208 5.14357 0
M  V30 5219 H 478.5 -2.46855 6.32645 0
M  V30 5220 H 476.446 -4.2662 4.98328 0
M  V30 5221 H 476.363 -3.67098 6.6089 0
M  V30 5222 H 477.631 -4.77325 6.16264 0
M  V30 5223 N 481.861 -1.55662 -0.24637 0
M  V30 5224 C 483.107 -1.77782 -0.975779 0
M  V30 5225 C 483.44 -0.592103 -1.84953 0
M  V30 5226 O 482.715 0.409588 -1.90138 0
M  V30 5227 C 482.998 -3.09788 -1.83584 0
M  V30 5228 C 482.851 -4.38764 -0.990241 0
M  V30 5229 C 484.17 -3.38029 -2.81823 0
M  V30 5230 H 481.289 -0.646789 -0.353317 0
M  V30 5231 H 483.931 -1.88398 -0.246248 0
M  V30 5232 H 482.081 -3.00869 -2.45784 0
M  V30 5233 H 483.753 -4.59675 -0.386897 0
M  V30 5234 H 481.996 -4.32798 -0.294626 0
M  V30 5235 H 482.667 -5.27514 -1.62584 0
M  V30 5236 H 485.143 -3.46915 -2.2976 0
M  V30 5237 H 484.019 -4.3161 -3.39122 0
M  V30 5238 H 484.28 -2.58968 -3.58313 0
M  V30 5239 N 483.339 0.512053 -1.4905 0
M  V30 5240 C 484.271 1.63121 -1.6101 0
M  V30 5241 C 485.284 1.55145 -0.493352 0
M  V30 5242 O 486.473 1.61278 -0.764955 0
M  V30 5243 C 483.573 3.01863 -1.54052 0
M  V30 5244 C 482.746 3.35138 -2.81072 0
M  V30 5245 C 481.805 4.5324 -2.67319 0
M  V30 5246 O 480.831 4.55571 -3.41238 0
M  V30 5247 N 482.033 5.52495 -1.78127 0
M  V30 5248 H 484.798 1.53292 -2.5753 0
M  V30 5249 H 482.359 0.699706 -1.45999 0
M  V30 5250 H 484.351 3.78774 -1.42521 0
M  V30 5251 H 482.921 3.05675 -0.654345 0
M  V30 5252 H 482.141 2.4723 -3.07036 0
M  V30 5253 H 483.429 3.54162 -3.65304 0
M  V30 5254 H 482.827 5.53403 -1.17308 0
M  V30 5255 H 481.384 6.28553 -1.72525 0
M  V30 5256 N 484.817 1.37938 0.762283 0
M  V30 5257 C 486.063 1.33866 1.52341 0
M  V30 5258 C 486.396 -0.0738961 1.94059 0
M  V30 5259 O 485.671 -1.03326 1.64785 0
M  V30 5260 C 485.954 2.28644 2.78197 0
M  V30 5261 C 485.807 3.78722 2.42672 0
M  V30 5262 C 487.126 2.21702 3.80179 0
M  V30 5263 H 484.245 0.487593 0.55265 0
M  V30 5264 H 486.887 1.68717 0.873767 0
M  V30 5265 H 485.037 1.99055 3.33631 0
M  V30 5266 H 486.709 4.18948 1.93081 0
M  V30 5267 H 484.952 3.96827 1.75244 0
M  V30 5268 H 485.623 4.40486 3.3268 0
M  V30 5269 H 488.099 2.47805 3.34263 0
M  V30 5270 H 486.975 2.90143 4.65949 0
M  V30 5271 H 487.236 1.21301 4.25133 0
M  V30 5272 N 486.295 -0.989507 1.22664 0
M  V30 5273 C 487.523 -1.76496 1.07967 0
M  V30 5274 C 487.938 -1.85148 -0.369543 0
M  V30 5275 O 487.295 -1.32408 -1.25596 0
M  V30 5276 C 487.346 -3.19642 1.68853 0
M  V30 5277 O 487.067 -3.11453 3.08105 0
M  V30 5278 C 488.568 -4.13621 1.59475 0
M  V30 5279 H 485.788 -0.55418 0.378319 0
M  V30 5280 H 488.332 -1.24378 1.62328 0
M  V30 5281 H 486.487 -3.68816 1.18547 0
M  V30 5282 H 486.901 -4.01499 3.37489 0
M  V30 5283 H 488.375 -5.11801 2.06795 0
M  V30 5284 H 488.852 -4.35718 0.55191 0
M  V30 5285 H 489.458 -3.70346 2.09103 0
M  V30 5286 N 487.773 -1.03688 -1.18687 0
M  V30 5287 C 489.189 -0.755413 -1.4059 0
M  V30 5288 C 489.389 0.656659 -1.905 0
M  V30 5289 O 488.445 1.42144 -2.08689 0
M  V30 5290 C 489.758 -1.7983 -2.41001 0
M  V30 5291 C 491.306 -1.81877 -2.54735 0
M  V30 5292 C 491.781 -2.85148 -3.58406 0
M  V30 5293 N 493.272 -2.84015 -3.6591 0
M  V30 5294 C 494.007 -3.60573 -4.45841 0
M  V30 5295 N 493.503 -4.46871 -5.29413 0
M  V30 5296 N 495.296 -3.49079 -4.40568 0
M  V30 5297 H 487.447 -1.94818 -0.846148 0
M  V30 5298 H 489.71 -0.842727 -0.434184 0
M  V30 5299 H 489.416 -2.81097 -2.1137 0
M  V30 5300 H 489.29 -1.62727 -3.40294 0
M  V30 5301 H 491.677 -0.812836 -2.83685 0
M  V30 5302 H 491.758 -2.03057 -1.55568 0
M  V30 5303 H 491.402 -3.85918 -3.30197 0
M  V30 5304 H 491.332 -2.61224 -4.57241 0
M  V30 5305 H 493.823 -2.21431 -3.0623 0
M  V30 5306 H 494.136 -5.02007 -5.87545 0
M  V30 5307 H 492.481 -4.5094 -5.28846 0
M  V30 5308 H 495.672 -2.81066 -3.74325 0
M  V30 5309 H 495.845 -4.08994 -5.02621 0
M  V30 5310 N 489.251 1.34841 -0.815825 0
M  V30 5311 C 490.662 1.80937 -0.46029 0
M  V30 5312 C 491.013 1.67685 1.01863 0
M  V30 5313 O 490.138 1.21277 1.79223 0
M  V30 5314 C 490.733 3.28509 -0.828708 0
M  V30 5315 C 489.292 3.72712 -0.525644 0
M  V30 5316 C 488.439 2.56676 -1.04941 0
M  V30 5317 H 491.39 1.22688 -1.00664 0
M  V30 5318 H 491.411 3.80279 -0.129757 0
M  V30 5319 H 490.923 3.38122 -1.90513 0
M  V30 5320 H 489.024 3.68642 0.541666 0
M  V30 5321 H 489.137 4.67119 -1.06474 0
M  V30 5322 H 487.501 2.50302 -0.471286 0
M  V30 5323 H 488.284 2.69063 -2.13214 0
M  V30 5324 N 490.729 0.570148 1.46925 0
M  V30 5325 C 492.006 -0.0153259 1.95594 0
M  V30 5326 C 492.386 -1.47232 1.51281 0
M  V30 5327 O 491.734 -2.15574 0.757624 0
M  V30 5328 C 491.944 0.143624 3.48704 0
M  V30 5329 C 493.292 0.00494484 4.246 0
M  V30 5330 O 494.316 0.0718214 3.56128 0
M  V30 5331 O 493.175 -0.141175 5.46318 0
M  V30 5332 H 490.269 -0.0568819 0.825041 0
M  V30 5333 H 492.815 0.637583 1.57267 0
M  V30 5334 H 491.587 1.15699 3.73804 0
M  V30 5335 H 491.21 -0.5463 3.93829 0
M  V30 5336 N 492.207 -1.54576 0.307264 0
M  V30 5337 C 493.139 -2.21212 -0.599807 0
M  V30 5338 C 494.152 -1.20685 -1.09266 0
M  V30 5339 O 495.341 -1.47244 -1.00903 0
M  V30 5340 C 492.441 -2.84994 -1.83389 0
M  V30 5341 C 491.614 -4.11511 -1.48248 0
M  V30 5342 C 490.673 -4.59038 -2.57237 0
M  V30 5343 O 489.699 -5.24095 -2.22065 0
M  V30 5344 N 490.901 -4.31884 -3.87887 0
M  V30 5345 H 493.666 -2.99686 -0.0293075 0
M  V30 5346 H 491.227 -1.61379 0.129738 0
M  V30 5347 H 493.219 -3.1372 -2.5566 0
M  V30 5348 H 491.789 -2.10324 -2.31263 0
M  V30 5349 H 491.009 -3.89728 -0.592122 0
M  V30 5350 H 492.297 -4.93879 -1.22316 0
M  V30 5351 H 491.695 -3.79778 -4.19268 0
M  V30 5352 H 490.252 -4.65304 -4.56438 0
M  V30 5353 N 493.685 -0.035106 -1.57561 0
M  V30 5354 C 494.648 0.929819 -2.09492 0
M  V30 5355 C 495.648 1.25026 -1.01119 0
M  V30 5356 O 496.838 1.18961 -1.27255 0
M  V30 5357 C 493.97 2.24457 -2.56577 0
M  V30 5358 H 495.163 0.479935 -2.96035 0
M  V30 5359 H 492.716 0.213033 -1.54841 0
M  V30 5360 H 493.451 2.74061 -1.73382 0
M  V30 5361 H 493.236 2.02508 -3.35757 0
M  V30 5362 H 494.726 2.93607 -2.96959 0
M  V30 5363 N 495.163 1.55791 0.238111 0
M  V30 5364 C 496.579 1.48411 0.587045 0
M  V30 5365 C 496.779 0.72702 1.87927 0
M  V30 5366 O 495.835 0.259942 2.51158 0
M  V30 5367 C 497.148 2.92873 0.681623 0
M  V30 5368 C 498.696 3.03295 0.773363 0
M  V30 5369 C 499.171 4.49082 0.899428 0
M  V30 5370 N 500.662 4.53056 0.964075 0
M  V30 5371 C 501.397 5.63117 1.08104 0
M  V30 5372 N 500.893 6.82969 1.16299 0
M  V30 5373 N 502.686 5.50933 1.11488 0
M  V30 5374 H 494.837 2.0345 -0.610076 0
M  V30 5375 H 497.1 0.924034 -0.211813 0
M  V30 5376 H 496.806 3.51142 -0.19802 0
M  V30 5377 H 496.68 3.43851 1.55069 0
M  V30 5378 H 499.067 2.45101 1.64346 0
M  V30 5379 H 499.148 2.55513 -0.121034 0
M  V30 5380 H 498.792 5.07889 0.0338586 0
M  V30 5381 H 498.722 4.94553 1.809 0
M  V30 5382 H 501.213 3.66737 0.91173 0
M  V30 5383 H 501.526 7.62598 1.25155 0
M  V30 5384 H 499.871 6.85712 1.13241 0
M  V30 5385 H 503.062 4.56231 1.0474 0
M  V30 5386 H 503.235 6.36743 1.20259 0
M  V30 5387 N 496.642 -0.504142 1.49319 0
M  V30 5388 C 497.575 -1.62361 1.60356 0
M  V30 5389 C 498.553 -1.56169 0.45277 0
M  V30 5390 O 499.737 -1.76271 0.667892 0
M  V30 5391 C 496.864 -3.00864 1.55559 0
M  V30 5392 C 495.91 -3.25328 2.75797 0
M  V30 5393 S 496.743 -3.08791 4.37503 0
M  V30 5394 C 497.899 -4.49695 4.35345 0
M  V30 5395 H 498.132 -1.52753 2.55056 0
M  V30 5396 H 495.665 -0.689065 1.38171 0
M  V30 5397 H 497.623 -3.8073 1.53477 0
M  V30 5398 H 496.284 -3.0789 0.621515 0
M  V30 5399 H 495.477 -4.2643 2.68651 0
M  V30 5400 H 495.079 -2.53179 2.75275 0
M  V30 5401 H 497.371 -5.41721 4.06871 0
M  V30 5402 H 498.314 -4.61891 5.36714 0
M  V30 5403 H 498.722 -4.30227 3.65465 0
M  V30 5404 N 498.12 -1.38341 -0.754957 0
M  V30 5405 C 499.397 -1.24995 -1.50451 0
M  V30 5406 C 499.777 0.149244 -2.10572 0
M  V30 5407 O 499.125 1.15861 -1.96948 0
M  V30 5408 C 499.335 -2.35904 -2.57197 0
M  V30 5409 C 500.683 -2.74262 -3.24138 0
M  V30 5410 O 501.707 -2.35205 -2.67501 0
M  V30 5411 O 500.566 -3.4161 -4.26574 0
M  V30 5412 H 497.66 -0.48872 -0.667144 0
M  V30 5413 H 500.206 -1.50165 -0.790486 0
M  V30 5414 H 498.978 -3.2953 -2.11011 0
M  V30 5415 H 498.601 -2.12291 -3.36182 0
M  V30 5416 N 499.598 0.982988 -1.23187 0
M  V30 5417 C 500.847 1.71817 -1.05649 0
M  V30 5418 C 501.16 1.91315 0.407176 0
M  V30 5419 O 502.366 2.62256 0.702436 0
M  V30 5420 C 500.822 3.09188 -1.84203 0
M  V30 5421 C 500.43 2.97586 -3.34882 0
M  V30 5422 C 502.174 3.86684 -1.75146 0
M  V30 5423 C 500.081 4.30173 -4.05839 0
M  V30 5424 H 499.011 0.644258 -0.391724 0
M  V30 5425 H 501.662 1.09659 -1.4713 0
M  V30 5426 H 500.044 3.72087 -1.35527 0
M  V30 5427 H 501.218 2.43793 -3.91026 0
M  V30 5428 H 499.533 2.33567 -3.44725 0
M  V30 5429 H 502.13 4.84836 -2.25473 0
M  V30 5430 H 502.473 4.10136 -0.713737 0
M  V30 5431 H 503.006 3.30482 -2.21419 0
M  V30 5432 H 499.745 4.11918 -5.09906 0
M  V30 5433 H 499.265 4.83841 -3.54482 0
M  V30 5434 H 500.944 4.98873 -4.11989 0
M  V30 5435 N 501.076 1.04316 1.18135 0
M  V30 5436 C 502.492 0.762858 1.40188 0
M  V30 5437 C 502.692 -0.646547 1.90846 0
M  V30 5438 O 501.748 -1.41036 2.0944 0
M  V30 5439 C 503.061 1.81106 2.40044 0
M  V30 5440 C 504.609 1.83226 2.53766 0
M  V30 5441 C 505.084 2.87044 3.56889 0
M  V30 5442 N 506.575 2.85951 3.64398 0
M  V30 5443 C 507.31 3.62932 4.43923 0
M  V30 5444 N 506.806 4.49672 5.27036 0
M  V30 5445 N 508.599 3.51411 4.38711 0
M  V30 5446 H 500.75 1.95264 0.835805 0
M  V30 5447 H 503.013 0.845017 0.429709 0
M  V30 5448 H 502.719 2.82214 2.09876 0
M  V30 5449 H 502.593 1.64529 3.39426 0
M  V30 5450 H 504.98 0.827869 2.8325 0
M  V30 5451 H 505.061 2.03879 1.54489 0
M  V30 5452 H 504.705 3.87663 3.28145 0
M  V30 5453 H 504.635 2.63645 4.5585 0
M  V30 5454 H 507.126 2.23051 3.05052 0
M  V30 5455 H 507.439 5.05116 5.84874 0
M  V30 5456 H 505.784 4.53738 5.26447 0
M  V30 5457 H 508.975 2.83047 3.72829 0
M  V30 5458 H 509.148 4.11654 5.00445 0
M  V30 5459 N 502.554 -1.34406 0.822964 0
M  V30 5460 C 503.484 -2.32052 0.259608 0
M  V30 5461 C 504.465 -1.58243 -0.623961 0
M  V30 5462 O 505.65 -1.86224 -0.55083 0
M  V30 5463 C 502.78 -3.42434 -0.579314 0
M  V30 5464 C 501.734 -4.27499 0.20712 0
M  V30 5465 C 501.06 -5.29349 -0.754547 0
M  V30 5466 C 502.36 -5.02758 1.41533 0
M  V30 5467 H 504.054 -2.79418 1.07545 0
M  V30 5468 H 501.6 -1.34338 0.518593 0
M  V30 5469 H 503.553 -4.0976 -0.983612 0
M  V30 5470 H 502.277 -2.93717 -1.4282 0
M  V30 5471 H 500.936 -3.61776 0.592787 0
M  V30 5472 H 500.584 -4.76895 -1.59939 0
M  V30 5473 H 500.284 -5.8714 -0.232561 0
M  V30 5474 H 501.808 -5.99544 -1.1567 0
M  V30 5475 H 503.222 -5.62938 1.08504 0
M  V30 5476 H 501.619 -5.70123 1.87296 0
M  V30 5477 H 502.689 -4.32451 2.1935 0
M  V30 5478 N 504.032 -0.577932 -1.46621 0
M  V30 5479 C 504.995 0.147805 -2.28723 0
M  V30 5480 C 505.995 0.823325 -1.38123 0
M  V30 5481 O 507.185 0.676011 -1.60548 0
M  V30 5482 C 504.317 1.21853 -3.18378 0
M  V30 5483 H 505.51 -0.573654 -2.94362 0
M  V30 5484 H 503.063 -0.335703 -1.52652 0
M  V30 5485 H 503.798 1.97173 -2.57475 0
M  V30 5486 H 503.583 0.738714 -3.85078 0
M  V30 5487 H 505.073 1.72768 -3.80186 0
M  V30 5488 N 505.51 1.54411 -0.315457 0
M  V30 5489 C 506.457 2.24048 0.554166 0
M  V30 5490 C 507.427 1.2283 1.11812 0
M  V30 5491 O 508.612 1.51491 1.15997 0
M  V30 5492 C 505.752 2.99574 1.71316 0
M  V30 5493 C 504.865 4.15594 1.17922 0
M  V30 5494 C 504 4.78669 2.30324 0
M  V30 5495 C 503.039 5.86807 1.74137 0
M  V30 5496 N 502.176 6.43777 2.8017 0
M  V30 5497 H 507.016 2.97964 -0.0462602 0
M  V30 5498 H 504.553 1.47059 -0.0346009 0
M  V30 5499 H 506.511 3.41604 2.39505 0
M  V30 5500 H 505.141 2.28008 2.285 0
M  V30 5501 H 504.193 3.78404 0.389136 0
M  V30 5502 H 505.505 4.93459 0.728012 0
M  V30 5503 H 504.659 5.23626 3.06433 0
M  V30 5504 H 503.398 4.00168 2.78778 0
M  V30 5505 H 502.403 5.41261 0.965236 0
M  V30 5506 H 503.628 6.67201 1.2657 0
M  V30 5507 H 501.574 5.68153 3.2793 0
M  V30 5508 H 501.491 7.17031 2.39588 0
M  V30 5509 H 502.759 6.9339 3.56132 0
M  V30 5510 N 506.988 0.0434614 1.5754 0
M  V30 5511 C 508.216 -0.641835 1.96693 0
M  V30 5512 C 508.631 -1.64832 0.920652 0
M  V30 5513 O 507.988 -1.82247 -0.095993 0
M  V30 5514 C 508.039 -1.33557 3.35924 0
M  V30 5515 O 507.76 -0.369403 4.3654 0
M  V30 5516 C 509.261 -2.11135 3.89791 0
M  V30 5517 H 506.481 -0.176013 0.647503 0
M  V30 5518 H 509.025 0.107478 2.04217 0
M  V30 5519 H 507.18 -2.03617 3.29574 0
M  V30 5520 H 507.594 -0.863674 5.1734 0
M  V30 5521 H 509.068 -2.55107 4.89514 0
M  V30 5522 H 509.545 -2.95634 3.24803 0
M  V30 5523 H 510.151 -1.46002 3.99454 0
M  V30 5524 N 508.466 -1.55915 -0.229846 0
M  V30 5525 C 509.396 -1.94754 -1.28815 0
M  V30 5526 C 510.377 -0.814657 -1.49323 0
M  V30 5527 O 511.562 -1.07631 -1.61645 0
M  V30 5528 C 508.692 -2.25705 -2.63959 0
M  V30 5529 C 507.646 -3.41406 -2.5812 0
M  V30 5530 C 506.972 -3.57941 -3.97218 0
M  V30 5531 C 508.272 -4.76616 -2.13623 0
M  V30 5532 H 509.966 -2.83404 -0.965547 0
M  V30 5533 H 507.512 -1.36353 -0.463028 0
M  V30 5534 H 509.465 -2.51467 -3.38146 0
M  V30 5535 H 508.189 -1.339 -2.9789 0
M  V30 5536 H 506.848 -3.1568 -1.86391 0
M  V30 5537 H 506.496 -2.63526 -4.28443 0
M  V30 5538 H 506.196 -4.35757 -3.94195 0
M  V30 5539 H 507.72 -3.86042 -4.73079 0
M  V30 5540 H 509.134 -5.01637 -2.77549 0
M  V30 5541 H 507.531 -5.57655 -2.21677 0
M  V30 5542 H 508.601 -4.7253 -1.08829 0
M  V30 5543 N 509.944 0.496216 -1.49584 0
M  V30 5544 C 511.19 1.25189 -1.59548 0
M  V30 5545 C 511.523 1.9212 -0.283466 0
M  V30 5546 O 510.798 1.80947 0.713324 0
M  V30 5547 C 511.081 2.31516 -2.75812 0
M  V30 5548 C 510.934 1.69054 -4.16822 0
M  V30 5549 C 512.253 3.3304 -2.87702 0
M  V30 5550 H 509.372 0.45379 -0.580727 0
M  V30 5551 H 512.014 0.549327 -1.81886 0
M  V30 5552 H 510.164 2.91438 -2.56897 0
M  V30 5553 H 511.836 1.12923 -4.47265 0
M  V30 5554 H 510.079 0.994485 -4.22247 0
M  V30 5555 H 510.75 2.462 -4.94054 0
M  V30 5556 H 513.226 2.83114 -3.04936 0
M  V30 5557 H 512.102 4.04794 -3.7072 0
M  V30 5558 H 512.363 3.95655 -1.97255 0
M  V30 5559 N 511.423 1.38739 0.74761 0
M  V30 5560 C 512.353 1.39173 1.87492 0
M  V30 5561 C 513.334 0.256794 1.6815 0
M  V30 5562 O 514.519 0.460762 1.88655 0
M  V30 5563 C 511.649 1.22197 3.25093 0
M  V30 5564 C 510.603 2.32957 3.59047 0
M  V30 5565 C 509.929 2.01082 4.95449 0
M  V30 5566 C 511.229 3.75237 3.6331 0
M  V30 5567 H 512.923 2.3351 1.87386 0
M  V30 5568 H 510.469 1.12399 0.900134 0
M  V30 5569 H 512.422 1.21124 4.03617 0
M  V30 5570 H 511.146 0.243241 3.25693 0
M  V30 5571 H 509.805 2.33226 2.82845 0
M  V30 5572 H 509.453 1.01678 4.92616 0
M  V30 5573 H 509.153 2.75267 5.19136 0
M  V30 5574 H 510.677 2.01638 5.76346 0
M  V30 5575 H 512.091 3.76966 4.31937 0
M  V30 5576 H 510.488 4.48677 3.98509 0
M  V30 5577 H 511.558 4.07122 2.634 0
M  V30 5578 N 512.901 -0.976442 1.23707 0
M  V30 5579 C 514.15 -1.71254 1.06559 0
M  V30 5580 C 514.463 -1.91528 -0.397024 0
M  V30 5581 O 515.669 -2.62625 -0.688518 0
M  V30 5582 C 514.125 -3.08207 1.8584 0
M  V30 5583 C 513.733 -2.95806 3.36456 0
M  V30 5584 C 515.477 -3.85749 1.77194 0
M  V30 5585 C 513.384 -4.28015 4.08114 0
M  V30 5586 H 512.314 -0.642171 0.395136 0
M  V30 5587 H 514.965 -1.08877 1.4771 0
M  V30 5588 H 513.347 -3.71363 1.37498 0
M  V30 5589 H 514.521 -2.41716 3.92314 0
M  V30 5590 H 512.836 -2.31736 3.45959 0
M  V30 5591 H 515.433 -4.83633 2.28041 0
M  V30 5592 H 515.776 -4.09752 0.735477 0
M  V30 5593 H 516.309 -3.29303 2.23169 0
M  V30 5594 H 513.048 -4.09208 5.12083 0
M  V30 5595 H 512.568 -4.81955 3.57043 0
M  V30 5596 H 514.247 -4.96681 4.14629 0
M  V30 5597 N 514.379 -1.04941 -1.1758 0
M  V30 5598 C 515.309 -0.669172 -2.23706 0
M  V30 5599 C 516.29 0.331835 -1.66832 0
M  V30 5600 O 517.475 0.209988 -1.93061 0
M  V30 5601 C 514.605 -0.0404889 -3.47276 0
M  V30 5602 C 513.559 -0.965983 -4.16957 0
M  V30 5603 C 512.885 -0.201312 -5.34321 0
M  V30 5604 C 514.185 -2.28902 -4.69469 0
M  V30 5605 H 515.879 -1.55639 -2.55767 0
M  V30 5606 H 513.425 -0.749793 -1.22939 0
M  V30 5607 H 515.378 0.237298 -4.20731 0
M  V30 5608 H 514.102 0.881658 -3.14475 0
M  V30 5609 H 512.761 -1.22829 -3.45411 0
M  V30 5610 H 512.409 0.723519 -4.97769 0
M  V30 5611 H 512.109 -0.817968 -5.81879 0
M  V30 5612 H 513.633 0.0692499 -6.10561 0
M  V30 5613 H 515.047 -2.07132 -5.34574 0
M  V30 5614 H 513.444 -2.85942 -5.27596 0
M  V30 5615 H 514.514 -2.92937 -3.86414 0
M  V30 5616 N 515.857 1.33968 -0.830081 0
M  V30 5617 C 517.103 1.98357 -0.422191 0
M  V30 5618 C 517.436 1.65633 1.01387 0
M  V30 5619 O 516.711 0.931648 1.70735 0
M  V30 5620 C 516.994 3.54492 -0.633043 0
M  V30 5621 C 516.847 3.96934 -2.11574 0
M  V30 5622 C 518.166 4.40039 -0.0735584 0
M  V30 5623 H 515.285 0.720544 -0.154871 0
M  V30 5624 H 517.927 1.58749 -1.04397 0
M  V30 5625 H 516.077 3.88361 -0.103775 0
M  V30 5626 H 517.749 3.73363 -2.7092 0
M  V30 5627 H 515.992 3.46984 -2.60354 0
M  V30 5628 H 516.663 5.05651 -2.21406 0
M  V30 5629 H 519.139 4.12764 -0.52585 0
M  V30 5630 H 518.015 5.48327 -0.250841 0
M  V30 5631 H 518.276 4.30124 1.02202 0
M  V30 5632 N 517.335 0.585699 1.46312 0
M  V30 5633 C 518.581 0.0725284 2.0267 0
M  V30 5634 C 518.914 -1.28523 1.45586 0
M  V30 5635 O 518.189 -1.84283 0.622101 0
M  V30 5636 C 518.472 0.0099788 3.60099 0
M  V30 5637 C 518.325 1.39685 4.27561 0
M  V30 5638 C 519.644 -0.689117 4.34671 0
M  V30 5639 H 516.763 0.0278307 0.736474 0
M  V30 5640 H 519.405 0.753472 1.74421 0
M  V30 5641 H 517.555 -0.56992 3.84297 0
M  V30 5642 H 519.227 2.02215 4.14617 0
M  V30 5643 H 517.47 1.96374 3.86807 0
M  V30 5644 H 518.141 1.30553 5.36339 0
M  V30 5645 H 520.617 -0.196446 4.15636 0
M  V30 5646 H 519.493 -0.701921 5.44393 0
M  V30 5647 H 519.754 -1.75101 4.05946 0
M  V30 5648 N 518.813 -1.54241 0.323641 0
M  V30 5649 C 519.743 -2.27289 -0.534993 0
M  V30 5650 C 520.724 -1.28087 -1.11927 0
M  V30 5651 O 521.909 -1.56899 -1.14439 0
M  V30 5652 C 519.039 -3.03075 -1.69596 0
M  V30 5653 C 517.993 -4.09614 -1.24098 0
M  V30 5654 C 517.319 -4.73242 -2.4889 0
M  V30 5655 C 518.619 -5.21087 -0.355789 0
M  V30 5656 H 520.313 -2.99308 0.0743257 0
M  V30 5657 H 517.859 -1.43952 0.0371874 0
M  V30 5658 H 519.812 -3.52907 -2.30293 0
M  V30 5659 H 518.536 -2.28673 -2.33187 0
M  V30 5660 H 517.195 -3.60666 -0.656945 0
M  V30 5661 H 516.843 -3.95455 -3.10845 0
M  V30 5662 H 516.543 -5.45209 -2.19138 0
M  V30 5663 H 518.067 -5.25848 -3.10348 0
M  V30 5664 H 519.481 -5.66675 -0.869042 0
M  V30 5665 H 517.878 -5.9991 -0.151045 0
M  V30 5666 H 518.948 -4.81005 0.613339 0
M  V30 5667 N 520.291 -0.0518155 -1.57515 0
M  V30 5668 C 521.54 0.621286 -1.91893 0
M  V30 5669 C 521.853 1.71966 -0.932052 0
M  V30 5670 O 523.059 2.45096 -1.16791 0
M  V30 5671 C 521.515 1.15641 -3.40816 0
M  V30 5672 C 521.123 0.0901146 -4.47909 0
M  V30 5673 C 522.867 1.80472 -3.84227 0
M  V30 5674 C 520.774 0.638154 -5.87947 0
M  V30 5675 H 519.704 0.235835 -0.716169 0
M  V30 5676 H 522.355 -0.120809 -1.83102 0
M  V30 5677 H 520.737 1.95084 -3.44613 0
M  V30 5678 H 521.911 -0.683525 -4.55702 0
M  V30 5679 H 520.226 -0.460774 -4.13843 0
M  V30 5680 H 522.823 2.22471 -4.86221 0
M  V30 5681 H 523.166 2.65669 -3.20508 0
M  V30 5682 H 523.699 1.07683 -3.82948 0
M  V30 5683 H 520.438 -0.176202 -6.55263 0
M  V30 5684 H 519.958 1.37976 -5.83714 0
M  V30 5685 H 521.637 1.12085 -6.37217 0
M  V30 5686 N 521.769 1.56035 0.221574 0
M  V30 5687 C 523.018 1.78245 0.944016 0
M  V30 5688 C 523.331 0.620371 1.85501 0
M  V30 5689 O 524.537 0.726103 2.6161 0
M  V30 5690 C 522.993 3.15659 1.7288 0
M  V30 5691 C 522.601 4.39591 0.863942 0
M  V30 5692 C 524.345 3.47195 2.44246 0
M  V30 5693 C 522.252 5.6803 1.64607 0
M  V30 5694 H 521.182 0.664547 0.356222 0
M  V30 5695 H 523.833 1.8243 0.197904 0
M  V30 5696 H 522.215 3.0565 2.51781 0
M  V30 5697 H 523.389 4.60655 0.115464 0
M  V30 5698 H 521.704 4.15572 0.262407 0
M  V30 5699 H 524.301 4.40381 3.03263 0
M  V30 5700 H 524.644 2.69693 3.1713 0
M  V30 5701 H 525.177 3.58533 1.72334 0
M  V30 5702 H 521.916 6.48425 0.960507 0
M  V30 5703 H 521.436 5.51027 2.36917 0
M  V30 5704 H 523.115 6.08203 2.20675 0
M  V30 5705 N 523.247 -0.488276 1.49845 0
M  V30 5706 C 524.487 -1.2516 1.61599 0
M  V30 5707 C 524.851 -1.89615 0.301706 0
M  V30 5708 O 526.052 -2.67182 0.29453 0
M  V30 5709 C 524.323 -2.2805 2.75187 0
M  V30 5710 S 525.882 -3.13552 3.0697 0
M  V30 5711 H 522.7 -0.425178 0.569864 0
M  V30 5712 H 525.302 -0.551545 1.87559 0
M  V30 5713 H 524.006 -1.7925 3.69185 0
M  V30 5714 H 523.537 -3.02708 2.5126 0
M  V30 5715 H 525.552 -4.28927 2.49471 0
M  V30 5716 N 524.725 -1.39134 -0.740242 0
M  V30 5717 C 525.971 -1.37278 -1.50088 0
M  V30 5718 C 526.326 0.0329967 -1.92372 0
M  V30 5719 O 525.619 0.998447 -1.63529 0
M  V30 5720 C 525.813 -2.27457 -2.75678 0
M  V30 5721 C 525.642 -3.76662 -2.45674 0
M  V30 5722 C 524.412 -4.45617 -2.38229 0
M  V30 5723 C 526.61 -4.6877 -2.11563 0
M  V30 5724 N 524.592 -5.80187 -2.00641 0
M  V30 5725 C 525.963 -5.91951 -1.84376 0
M  V30 5726 C 528.018 -4.56843 -1.97987 0
M  V30 5727 C 526.721 -7.04538 -1.4498 0
M  V30 5728 C 528.747 -5.69347 -1.59994 0
M  V30 5729 C 528.109 -6.91597 -1.33687 0
M  V30 5730 H 524.208 -0.557611 -0.548265 0
M  V30 5731 H 526.792 -1.74638 -0.860784 0
M  V30 5732 H 524.963 -1.92263 -3.37475 0
M  V30 5733 H 526.695 -2.16631 -3.41838 0
M  V30 5734 H 523.45 -3.98993 -2.5515 0
M  V30 5735 H 523.874 -6.51387 -1.84454 0
M  V30 5736 H 528.516 -3.62868 -2.16995 0
M  V30 5737 H 526.234 -7.98419 -1.24712 0
M  V30 5738 H 529.82 -5.62104 -1.50102 0
M  V30 5739 H 528.7 -7.77176 -1.04728 0
M  V30 5740 N 526.204 0.969867 -1.24223 0
M  V30 5741 C 527.452 1.70918 -1.0785 0
M  V30 5742 C 527.773 1.91186 0.383763 0
M  V30 5743 O 527.043 1.48806 1.27411 0
M  V30 5744 H 525.623 0.633334 -0.396103 0
M  V30 5745 H 528.285 1.16689 -1.56108 0
M  V30 5746 H 527.381 2.69455 -1.57482 0
M  V30 5747 N 527.682 1.05563 1.17022 0
M  V30 5748 C 529.093 0.793475 1.69 0
M  V30 5749 C 529.444 -0.683882 1.83895 0
M  V30 5750 O 528.569 -1.53116 1.5292 0
M  V30 5751 C 529.164 1.43376 3.06967 0
M  V30 5752 C 527.723 1.21956 3.56095 0
M  V30 5753 C 526.87 1.51494 2.3226 0
M  V30 5754 H 529.821 1.22008 1.01487 0
M  V30 5755 H 529.842 0.845068 3.70997 0
M  V30 5756 H 529.354 2.50899 2.96093 0
M  V30 5757 H 527.455 0.163749 3.7224 0
M  V30 5758 H 527.568 1.92713 4.38633 0
M  V30 5759 H 525.932 0.935175 2.3691 0
M  V30 5760 H 526.715 2.60159 2.23992 0
M  V30 5761 N 529.16 -1.33526 0.837174 0
M  V30 5762 C 530.09 -2.31764 0.284206 0
M  V30 5763 C 531.071 -1.58896 -0.607142 0
M  V30 5764 O 532.256 -1.86798 -0.531047 0
M  V30 5765 C 529.386 -3.43029 -0.542962 0
M  V30 5766 C 528.34 -4.27255 0.252451 0
M  V30 5767 C 527.666 -5.3012 -0.69836 0
M  V30 5768 C 528.966 -5.01229 1.46858 0
M  V30 5769 H 530.66 -2.78262 1.10502 0
M  V30 5770 H 528.206 -1.3378 0.532812 0
M  V30 5771 H 530.159 -4.1078 -0.940096 0
M  V30 5772 H 528.883 -2.95216 -1.39697 0
M  V30 5773 H 527.542 -3.61127 0.631124 0
M  V30 5774 H 527.19 -4.78564 -1.54872 0
M  V30 5775 H 526.89 -5.87353 -0.170274 0
M  V30 5776 H 528.414 -6.00737 -1.09305 0
M  V30 5777 H 529.828 -5.61756 1.14469 0
M  V30 5778 H 528.225 -5.68104 1.93333 0
M  V30 5779 H 529.295 -4.301 2.23924 0
M  V30 5780 N 530.638 -0.59345 -1.46 0
M  V30 5781 C 531.568 0.121192 -2.33185 0
M  V30 5782 C 532.549 0.872977 -1.4599 0
M  V30 5783 O 533.734 0.846321 -1.74789 0
M  V30 5784 C 530.864 1.12844 -3.28456 0
M  V30 5785 C 529.818 0.4908 -4.25177 0
M  V30 5786 C 529.144 1.60529 -5.10034 0
M  V30 5787 C 530.444 -0.578949 -5.19081 0
M  V30 5788 H 532.138 -0.606767 -2.93187 0
M  V30 5789 H 529.684 -0.293242 -1.40983 0
M  V30 5790 H 531.637 1.63684 -3.88311 0
M  V30 5791 H 530.361 1.88681 -2.66584 0
M  V30 5792 H 529.02 0.00339328 -3.666 0
M  V30 5793 H 528.668 2.35359 -4.44539 0
M  V30 5794 H 528.368 1.18422 -5.75543 0
M  V30 5795 H 529.892 2.11623 -5.72755 0
M  V30 5796 H 531.306 -0.155199 -5.7309 0
M  V30 5797 H 529.703 -0.920947 -5.92991 0
M  V30 5798 H 530.773 -1.46109 -4.62364 0
M  V30 5799 N 532.116 1.54067 -0.331816 0
M  V30 5800 C 533.079 2.23275 0.517768 0
M  V30 5801 C 534.079 1.22897 1.03697 0
M  V30 5802 O 535.269 1.47419 0.928084 0
M  V30 5803 C 532.401 2.94326 1.72004 0
M  V30 5804 H 533.594 2.99773 -0.0873507 0
M  V30 5805 H 531.147 1.56079 -0.0830042 0
M  V30 5806 H 531.882 2.21986 2.36417 0
M  V30 5807 H 531.667 3.67941 1.35507 0
M  V30 5808 H 533.157 3.47031 2.32291 0
M  V30 5809 N 533.594 0.0601682 1.57485 0
M  V30 5810 C 534.843 -0.611101 1.9222 0
M  V30 5811 C 535.156 -1.71469 0.941159 0
M  V30 5812 O 536.362 -2.44473 1.18089 0
M  V30 5813 C 534.818 -1.13832 3.41424 0
M  V30 5814 C 534.426 -0.0663596 4.47951 0
M  V30 5815 C 536.17 -1.78432 3.85178 0
M  V30 5816 C 534.077 -0.606965 5.88277 0
M  V30 5817 H 533.007 -0.232033 0.71741 0
M  V30 5818 H 535.658 0.130518 1.83035 0
M  V30 5819 H 534.04 -1.93254 3.45643 0
M  V30 5820 H 535.214 0.707682 4.55333 0
M  V30 5821 H 533.529 0.482715 4.13593 0
M  V30 5822 H 536.126 -2.1989 4.87394 0
M  V30 5823 H 536.469 -2.63966 3.21913 0
M  V30 5824 H 537.002 -1.05651 3.83514 0
M  V30 5825 H 533.741 0.21095 6.5516 0
M  V30 5826 H 533.261 -1.34879 5.84438 0
M  V30 5827 H 534.94 -1.08704 6.37803 0
M  V30 5828 N 535.072 -1.5615 -0.213296 0
M  V30 5829 C 536.005 -1.88115 -1.29182 0
M  V30 5830 C 536.983 -0.739348 -1.44819 0
M  V30 5831 O 538.167 -0.988541 -1.605 0
M  V30 5832 C 535.294 -2.09541 -2.66102 0
M  V30 5833 C 534.34 -3.32236 -2.67436 0
M  V30 5834 S 535.173 -4.87915 -2.20679 0
M  V30 5835 C 536.329 -5.12387 -3.59458 0
M  V30 5836 H 536.562 -2.793 -1.01876 0
M  V30 5837 H 534.095 -1.48692 -0.415934 0
M  V30 5838 H 536.053 -2.22568 -3.44925 0
M  V30 5839 H 534.714 -1.19138 -2.90628 0
M  V30 5840 H 533.907 -3.44297 -3.6807 0
M  V30 5841 H 533.509 -3.18108 -1.96681 0
M  V30 5842 H 535.801 -5.01791 -4.55205 0
M  V30 5843 H 536.744 -6.14236 -3.52306 0
M  V30 5844 H 537.152 -4.40089 -3.53528 0
M  V30 5845 N 536.55 0.480323 -1.50102 0
M  V30 5846 C 537.796 1.23489 -1.60867 0
M  V30 5847 C 538.129 1.91809 -0.303827 0
M  V30 5848 O 537.404 1.81694 0.694092 0
M  V30 5849 C 537.687 2.28578 -2.78252 0
M  V30 5850 C 537.54 1.64624 -4.18592 0
M  V30 5851 C 538.859 3.2997 -2.91218 0
M  V30 5852 H 535.978 0.447605 -0.585507 0
M  V30 5853 H 538.62 0.530005 -1.82458 0
M  V30 5854 H 536.77 2.88697 -2.59974 0
M  V30 5855 H 538.442 1.08173 -4.48438 0
M  V30 5856 H 536.685 0.949645 -4.23278 0
M  V30 5857 H 537.356 2.40946 -4.96638 0
M  V30 5858 H 539.832 2.79864 -3.07921 0
M  V30 5859 H 538.708 4.00839 -3.74993 0
M  V30 5860 H 538.969 3.93541 -2.0144 0
M  V30 5861 N 538.028 1.39524 0.732853 0
M  V30 5862 C 539.258 1.3994 1.51988 0
M  V30 5863 C 539.666 -0.00727973 1.89199 0
M  V30 5864 O 539.009 -0.989521 1.54771 0
M  V30 5865 C 539.071 2.21026 2.83527 0
M  V30 5866 C 538.735 3.69633 2.68738 0
M  V30 5867 C 539.732 4.62665 2.37143 0
M  V30 5868 C 537.417 4.13244 2.85542 0
M  V30 5869 C 539.411 5.97291 2.22536 0
M  V30 5870 C 537.098 5.47945 2.70554 0
M  V30 5871 C 538.096 6.39783 2.39097 0
M  V30 5872 O 537.784 7.72002 2.24204 0
M  V30 5873 H 537.516 0.479795 0.476206 0
M  V30 5874 H 540.07 1.8399 0.913054 0
M  V30 5875 H 538.3 1.71728 3.46477 0
M  V30 5876 H 539.989 2.13594 3.45156 0
M  V30 5877 H 540.755 4.30272 2.2381 0
M  V30 5878 H 536.634 3.42094 3.09019 0
M  V30 5879 H 540.178 6.68939 1.97905 0
M  V30 5880 H 536.075 5.79928 2.83466 0
M  V30 5881 H 536.843 7.8275 2.39258 0
M  V30 5882 N 539.506 -0.963266 1.24736 0
M  V30 5883 C 540.783 -1.68248 0.9976 0
M  V30 5884 C 541.163 -2.05599 -0.478776 0
M  V30 5885 O 540.511 -1.7626 -1.45412 0
M  V30 5886 C 540.721 -2.91118 1.92487 0
M  V30 5887 C 542.069 -3.63261 2.19833 0
M  V30 5888 O 543.093 -3.01184 1.90176 0
M  V30 5889 O 541.952 -4.75019 2.7022 0
M  V30 5890 H 539.046 -0.735744 0.377637 0
M  V30 5891 H 541.592 -1.01696 1.35853 0
M  V30 5892 H 540.364 -2.60242 2.92215 0
M  V30 5893 H 539.987 -3.65402 1.56738 0
M  V30 5894 N 540.985 -1.06182 -1.16461 0
M  V30 5895 C 542.231 -0.779015 -1.87241 0
M  V30 5896 C 542.564 0.692715 -1.81425 0
M  V30 5897 O 541.839 1.5074 -1.22913 0
M  V30 5898 C 542.122 -1.2728 -3.36856 0
M  V30 5899 C 541.975 -2.80821 -3.51368 0
M  V30 5900 C 543.294 -0.879799 -4.31216 0
M  V30 5901 H 540.413 -0.284464 -0.679889 0
M  V30 5902 H 543.055 -1.31755 -1.36896 0
M  V30 5903 H 541.205 -0.814673 -3.79862 0
M  V30 5904 H 542.877 -3.34833 -3.17308 0
M  V30 5905 H 541.12 -3.19606 -2.93316 0
M  V30 5906 H 541.791 -3.10435 -4.56436 0
M  V30 5907 H 544.267 -1.27436 -3.96105 0
M  V30 5908 H 543.143 -1.25278 -5.34412 0
M  V30 5909 H 543.404 0.215372 -4.41575 0
M  V30 5910 N 542.463 1.3308 -0.844243 0
M  V30 5911 C 543.71 1.97605 -0.44255 0
M  V30 5912 C 544.038 1.66856 0.999458 0
M  V30 5913 O 543.293 0.943586 1.7145 0
M  V30 5914 C 543.592 3.52045 -0.616354 0
M  V30 5915 C 543.258 4.02757 -2.02726 0
M  V30 5916 C 541.92 4.16316 -2.41317 0
M  V30 5917 C 544.272 4.29776 -2.9486 0
M  V30 5918 C 541.6 4.54232 -3.71335 0
M  V30 5919 C 543.952 4.69146 -4.24364 0
M  V30 5920 C 542.616 4.80911 -4.62904 0
M  V30 5921 H 541.886 0.723088 -0.161941 0
M  V30 5922 H 544.533 1.58663 -1.0723 0
M  V30 5923 H 542.838 3.91681 0.0966812 0
M  V30 5924 H 544.535 3.99981 -0.285756 0
M  V30 5925 H 541.125 3.9268 -1.71756 0
M  V30 5926 H 545.309 4.18818 -2.6628 0
M  V30 5927 H 540.565 4.61535 -4.00993 0
M  V30 5928 H 544.739 4.89008 -4.95827 0
M  V30 5929 H 542.366 5.10048 -5.63698 0
M  V30 5930 N 543.941 0.601185 1.45683 0
M  V30 5931 C 545.189 0.0936957 2.01883 0
M  V30 5932 C 545.51 -1.2779 1.47291 0
M  V30 5933 O 544.78 -1.84279 0.664691 0
M  V30 5934 H 543.36 0.0316466 0.746329 0
M  V30 5935 H 546.022 0.781137 1.78562 0
M  V30 5936 H 545.118 0.0386297 3.12076 0
M  V30 5937 N 545.419 -1.53889 0.339982 0
M  V30 5938 C 546.366 -2.24902 -0.518452 0
M  V30 5939 C 547.336 -1.24593 -1.09844 0
M  V30 5940 O 548.521 -1.53317 -1.13572 0
M  V30 5941 C 545.661 -3.02262 -1.66529 0
M  V30 5942 C 544.774 -4.17418 -1.11295 0
M  V30 5943 C 543.909 -4.82273 -2.2268 0
M  V30 5944 C 542.948 -5.89503 -1.6478 0
M  V30 5945 N 542.085 -6.48153 -2.69893 0
M  V30 5946 H 546.925 -2.97853 0.0936579 0
M  V30 5947 H 544.462 -1.46986 0.0579924 0
M  V30 5948 H 546.42 -3.45371 -2.3404 0
M  V30 5949 H 545.05 -2.31614 -2.24844 0
M  V30 5950 H 544.102 -3.78976 -0.328886 0
M  V30 5951 H 545.414 -4.94554 -0.649414 0
M  V30 5952 H 544.568 -5.28435 -2.98063 0
M  V30 5953 H 543.307 -4.04552 -2.72376 0
M  V30 5954 H 542.312 -5.42728 -0.879004 0
M  V30 5955 H 543.537 -6.6913 -1.1594 0
M  V30 5956 H 541.483 -5.73298 -3.1885 0
M  V30 5957 H 541.4 -7.20752 -2.28151 0
M  V30 5958 H 542.668 -6.98968 -3.45056 0
M  V30 5959 N 546.897 -0.0685191 -1.57451 0
M  V30 5960 C 547.83 0.935736 -2.08133 0
M  V30 5961 C 548.808 1.29317 -0.985698 0
M  V30 5962 O 549.992 1.40304 -1.25886 0
M  V30 5963 C 547.119 2.2448 -2.53627 0
M  V30 5964 C 546.165 2.03917 -3.74593 0
M  V30 5965 S 546.998 1.30154 -5.19442 0
M  V30 5966 C 548.154 2.62346 -5.68265 0
M  V30 5967 H 548.387 0.504473 -2.92989 0
M  V30 5968 H 545.92 0.144169 -1.53725 0
M  V30 5969 H 547.878 2.99718 -2.80499 0
M  V30 5970 H 546.539 2.64731 -1.69045 0
M  V30 5971 H 545.732 3.00788 -4.04404 0
M  V30 5972 H 545.334 1.36815 -3.48077 0
M  V30 5973 H 547.626 3.58448 -5.7491 0
M  V30 5974 H 548.569 2.3715 -6.67207 0
M  V30 5975 H 548.977 2.69401 -4.96068 0
M  V30 5976 N 548.375 1.56261 0.205012 0
M  V30 5977 C 549.323 1.94631 1.27364 0
M  V30 5978 C 550.317 0.830434 1.47649 0
M  V30 5979 O 551.523 1.01538 1.48627 0
M  V30 5980 H 547.898 0.618755 0.427371 0
M  V30 5981 H 549.869 2.83768 0.922941 0
M  V30 5982 C 548.618 2.29358 2.61324 0
M  V30 5983 H 547.941 3.14744 2.46528 0
M  V30 5984 H 549.381 2.60076 3.34868 0
M  V30 5985 C 547.84 1.12461 3.17575 0
M  V30 5986 O 548.37 0.394407 3.99759 0
M  V30 5987 N 546.576 0.904036 2.7618 0
M  V30 5988 H 546.123 1.49956 2.09454 0
M  V30 5989 H 546.081 0.123662 3.14157 0
M  V30 5990 N 549.853 -0.472356 1.50355 0
M  V30 5991 C 550.8 -1.57051 1.69126 0
M  V30 5992 C 551.77 -1.5733 0.532574 0
M  V30 5993 O 552.955 -1.7488 0.762994 0
M  V30 5994 C 550.095 -2.95033 1.79024 0
M  V30 5995 C 549.208 -3.04552 3.06386 0
M  V30 5996 C 548.343 -4.33441 3.07087 0
M  V30 5997 C 547.382 -4.36697 4.28908 0
M  V30 5998 N 546.519 -5.57056 4.27356 0
M  V30 5999 H 551.359 -1.40351 2.62879 0
M  V30 6000 H 548.896 -0.682403 1.30314 0
M  V30 6001 H 550.854 -3.75048 1.82744 0
M  V30 6002 H 549.484 -3.10371 0.887109 0
M  V30 6003 H 548.536 -2.17419 3.12143 0
M  V30 6004 H 549.848 -3.02818 3.96362 0
M  V30 6005 H 549.002 -5.21801 3.09529 0
M  V30 6006 H 547.741 -4.37782 2.14939 0
M  V30 6007 H 546.746 -3.46734 4.2668 0
M  V30 6008 H 547.971 -4.34049 5.22282 0
M  V30 6009 H 545.917 -5.62184 3.3806 0
M  V30 6010 H 545.834 -5.57058 5.111 0
M  V30 6011 H 547.102 -6.47545 4.33942 0
M  V30 6012 N 551.331 -1.39911 -0.725443 0
M  V30 6013 C 552.261 -1.42138 -1.85254 0
M  V30 6014 C 553.242 -0.283513 -1.67721 0
M  V30 6015 O 554.427 -0.490717 -1.87898 0
M  V30 6016 C 551.557 -1.27354 -3.23107 0
M  V30 6017 C 550.511 -2.3864 -3.55296 0
M  V30 6018 C 549.837 -2.08939 -4.92188 0
M  V30 6019 C 551.137 -3.8097 -3.57295 0
M  V30 6020 H 552.831 -2.36461 -1.83648 0
M  V30 6021 H 550.377 -1.13817 -0.882138 0
M  V30 6022 H 552.33 -1.2753 -4.01639 0
M  V30 6023 H 551.054 -0.295025 -3.25265 0
M  V30 6024 H 549.713 -2.37696 -2.79099 0
M  V30 6025 H 549.361 -1.09502 -4.90936 0
M  V30 6026 H 549.061 -2.83491 -5.14691 0
M  V30 6027 H 550.585 -2.10781 -5.73065 0
M  V30 6028 H 551.999 -3.8379 -4.25885 0
M  V30 6029 H 550.396 -4.5496 -3.9132 0
M  V30 6030 H 551.466 -4.11261 -2.5689 0
M  V30 6031 N 552.809 0.956637 -1.25245 0
M  V30 6032 C 554.058 1.69537 -1.0927 0
M  V30 6033 C 554.371 1.92136 0.366503 0
M  V30 6034 O 555.577 2.63687 0.64665 0
M  V30 6035 C 554.033 3.05211 -1.9072 0
M  V30 6036 C 553.641 2.90416 -3.41119 0
M  V30 6037 C 555.385 3.82882 -1.83308 0
M  V30 6038 C 553.292 4.21468 -4.14872 0
M  V30 6039 H 552.222 0.635804 -0.405302 0
M  V30 6040 H 554.873 1.06513 -1.49423 0
M  V30 6041 H 553.255 3.69128 -1.43389 0
M  V30 6042 H 554.429 2.35444 -3.9611 0
M  V30 6043 H 552.744 2.26203 -3.49602 0
M  V30 6044 H 555.341 4.79944 -2.35706 0
M  V30 6045 H 555.684 4.0853 -0.800572 0
M  V30 6046 H 556.217 3.25711 -2.28379 0
M  V30 6047 H 552.956 4.01009 -5.18529 0
M  V30 6048 H 552.476 4.76213 -3.64665 0
M  V30 6049 H 554.155 4.90022 -4.22478 0
M  V30 6050 N 554.287 1.06798 1.15896 0
M  V30 6051 C 555.234 0.683314 2.20453 0
M  V30 6052 C 556.204 -0.32255 1.62938 0
M  V30 6053 O 557.389 -0.210276 1.89638 0
M  V30 6054 C 554.529 0.0813266 3.45004 0
M  V30 6055 C 553.642 1.13799 4.16742 0
M  V30 6056 C 552.777 0.501598 5.28826 0
M  V30 6057 C 551.816 1.54144 5.92373 0
M  V30 6058 N 550.953 0.928038 6.9594 0
M  V30 6059 H 555.793 1.57932 2.52708 0
M  V30 6060 H 553.33 0.789544 1.24115 0
M  V30 6061 H 555.288 -0.285274 4.16224 0
M  V30 6062 H 553.918 -0.77806 3.13283 0
M  V30 6063 H 552.97 1.62223 3.44075 0
M  V30 6064 H 554.282 1.92664 4.60089 0
M  V30 6065 H 553.436 0.0823162 6.06644 0
M  V30 6066 H 552.175 -0.318883 4.86656 0
M  V30 6067 H 551.18 1.97056 5.13273 0
M  V30 6068 H 552.405 2.3641 6.36621 0
M  V30 6069 H 550.351 0.12836 6.55874 0
M  V30 6070 H 550.268 1.65401 7.37685 0
M  V30 6071 H 551.536 0.534071 7.77668 0
M  V30 6072 N 555.766 -1.3263 0.851289 0
M  V30 6073 C 556.994 -2.01563 0.466899 0
M  V30 6074 C 557.409 -1.63996 -0.935447 0
M  V30 6075 O 556.766 -0.85957 -1.6099 0
M  V30 6076 C 556.817 -3.56613 0.592433 0
M  V30 6077 O 556.538 -3.92828 1.93954 0
M  V30 6078 C 558.039 -4.42818 0.206612 0
M  V30 6079 H 555.259 -0.645307 0.183902 0
M  V30 6080 H 557.803 -1.69285 1.1473 0
M  V30 6081 H 555.958 -3.87379 -0.0401936 0
M  V30 6082 H 556.372 -4.87545 1.9339 0
M  V30 6083 H 557.846 -5.50918 0.345462 0
M  V30 6084 H 558.323 -4.30844 -0.85264 0
M  V30 6085 H 558.929 -4.17434 0.814176 0
M  V30 6086 N 557.244 -0.608902 -1.45362 0
M  V30 6087 C 558.49 -0.104762 -2.02529 0
M  V30 6088 C 558.823 1.26191 -1.47613 0
M  V30 6089 O 558.098 1.8327 -0.65134 0
M  V30 6090 C 558.381 -0.0672661 -3.60037 0
M  V30 6091 C 558.234 -1.4647 -4.25284 0
M  V30 6092 C 559.553 0.619877 -4.35713 0
M  V30 6093 H 556.672 -0.0395438 -0.735938 0
M  V30 6094 H 559.314 -0.781126 -1.73201 0
M  V30 6095 H 557.464 0.50871 -3.85155 0
M  V30 6096 H 559.136 -2.08785 -4.11347 0
M  V30 6097 H 557.379 -2.02502 -3.83634 0
M  V30 6098 H 558.05 -1.39069 -5.34195 0
M  V30 6099 H 560.526 0.130297 -4.15896 0
M  V30 6100 H 559.402 0.615224 -5.45441 0
M  V30 6101 H 559.663 1.68621 -4.0868 0
M  V30 6102 N 558.722 1.53707 -0.348139 0
M  V30 6103 C 559.969 2.00988 0.246966 0
M  V30 6104 C 560.297 1.23586 1.50189 0
M  V30 6105 O 559.552 0.312817 1.93184 0
M  V30 6106 C 559.851 3.52292 0.602061 0
M  V30 6107 C 559.517 4.47453 -0.556509 0
M  V30 6108 C 558.179 4.73188 -0.874446 0
M  V30 6109 C 560.531 5.03851 -1.33354 0
M  V30 6110 C 557.859 5.52577 -1.9717 0
M  V30 6111 C 560.211 5.84437 -2.42108 0
M  V30 6112 C 558.875 6.08465 -2.74456 0
M  V30 6113 H 558.145 0.735469 0.0903712 0
M  V30 6114 H 560.792 1.85464 -0.477001 0
M  V30 6115 H 559.097 3.65672 1.40681 0
M  V30 6116 H 560.794 3.86337 1.07447 0
M  V30 6117 H 557.384 4.27558 -0.298652 0
M  V30 6118 H 561.568 4.8393 -1.10117 0
M  V30 6119 H 556.824 5.69418 -2.22651 0
M  V30 6120 H 560.998 6.27151 -3.02745 0
M  V30 6121 H 558.625 6.69768 -3.59604 0
M  V30 6122 N 560.2 0.0768682 1.57412 0
M  V30 6123 C 561.163 -0.873949 2.11884 0
M  V30 6124 C 562.163 -1.22301 1.04398 0
M  V30 6125 O 563.353 -1.15545 1.30365 0
M  V30 6126 C 560.485 -2.17575 2.62438 0
M  V30 6127 H 561.678 -0.401278 2.97203 0
M  V30 6128 H 559.231 -0.171904 1.55352 0
M  V30 6129 H 559.966 -2.69368 1.80587 0
M  V30 6130 H 559.751 -1.93534 3.41009 0
M  V30 6131 H 561.241 -2.85631 3.04639 0
M  V30 6132 N 561.678 -1.56367 -0.196722 0
M  V30 6133 C 562.925 -1.80529 -0.917366 0
M  V30 6134 C 563.253 -0.649817 -1.83324 0
M  V30 6135 O 562.508 0.36451 -1.92275 0
M  V30 6136 C 562.807 -3.10663 -1.767 0
M  V30 6137 C 562.473 -4.3962 -1.00225 0
M  V30 6138 C 561.135 -4.74653 -0.791095 0
M  V30 6139 C 563.487 -5.1913 -0.464035 0
M  V30 6140 C 560.815 -5.86692 -0.0302155 0
M  V30 6141 C 563.167 -6.31964 0.283625 0
M  V30 6142 C 561.831 -6.65581 0.505813 0
M  V30 6143 H 561.101 -0.660602 -0.335688 0
M  V30 6144 H 563.748 -1.90615 -0.183844 0
M  V30 6145 H 562.053 -2.95807 -2.56915 0
M  V30 6146 H 563.75 -3.26563 -2.32718 0
M  V30 6147 H 560.34 -4.12127 -1.17684 0
M  V30 6148 H 564.524 -4.9248 -0.614575 0
M  V30 6149 H 559.78 -6.11211 0.151917 0
M  V30 6150 H 563.954 -6.92791 0.708057 0
M  V30 6151 H 561.581 -7.52239 1.0973 0
M  V30 6152 N 563.156 0.464375 -1.50603 0
M  V30 6153 C 564.396 1.22573 -1.6357 0
M  V30 6154 C 564.76 1.89111 -0.331834 0
M  V30 6155 O 565.961 2.66679 -0.336999 0
M  V30 6156 C 564.232 2.23643 -2.7878 0
M  V30 6157 S 565.791 3.08628 -3.1192 0
M  V30 6158 H 562.609 0.416058 -0.576556 0
M  V30 6159 H 565.211 0.521637 -1.88412 0
M  V30 6160 H 563.915 1.73354 -3.7199 0
M  V30 6161 H 563.446 2.98672 -2.56044 0
M  V30 6162 H 565.461 4.24904 -2.56264 0
M  V30 6163 N 564.634 1.40294 0.718013 0
M  V30 6164 C 565.859 1.41941 1.5122 0
M  V30 6165 C 566.284 0.0202371 1.88089 0
M  V30 6166 O 565.642 -0.971078 1.53101 0
M  V30 6167 C 565.69 2.3141 2.76554 0
M  V30 6168 O 564.794 1.75567 3.73162 0
M  V30 6169 H 564.135 0.482644 0.456016 0
M  V30 6170 H 566.665 1.84494 0.884478 0
M  V30 6171 H 566.675 2.46513 3.25108 0
M  V30 6172 H 565.35 3.33085 2.49053 0
M  V30 6173 H 563.927 1.69798 3.31999 0
M  V30 6174 N 566.112 -0.949982 1.2575 0
M  V30 6175 C 567.045 -2.047 1.00862 0
M  V30 6176 C 568.023 -1.62475 -0.0636982 0
M  V30 6177 O 569.207 -1.88343 0.0769153 0
M  V30 6178 C 566.334 -3.34597 0.525613 0
M  V30 6179 C 565.38 -3.95788 1.58916 0
M  V30 6180 S 566.213 -4.31175 3.17567 0
M  V30 6181 C 567.369 -5.64183 2.71013 0
M  V30 6182 H 567.602 -2.25497 1.93749 0
M  V30 6183 H 565.135 -1.09022 1.09332 0
M  V30 6184 H 567.093 -4.09716 0.25359 0
M  V30 6185 H 565.754 -3.11758 -0.382828 0
M  V30 6186 H 564.947 -4.89457 1.20201 0
M  V30 6187 H 564.549 -3.27168 1.81211 0
M  V30 6188 H 566.841 -6.42504 2.14928 0
M  V30 6189 H 567.784 -6.07774 3.6334 0
M  V30 6190 H 568.192 -5.2364 2.1086 0
M  V30 6191 N 567.59 -1.07411 -1.15328 0
M  V30 6192 C 568.52 -0.716472 -2.22236 0
M  V30 6193 C 569.501 0.296373 -1.67498 0
M  V30 6194 O 570.686 0.168989 -1.93463 0
M  V30 6195 C 567.816 -0.114142 -3.47112 0
M  V30 6196 C 566.77 -1.05421 -4.14814 0
M  V30 6197 C 566.096 -0.314604 -5.33774 0
M  V30 6198 C 567.396 -2.38808 -4.64508 0
M  V30 6199 H 569.09 -1.61029 -2.52408 0
M  V30 6200 H 566.636 -0.775702 -1.21321 0
M  V30 6201 H 568.589 0.148001 -4.2114 0
M  V30 6202 H 567.313 0.814755 -3.16274 0
M  V30 6203 H 565.972 -1.30128 -3.42728 0
M  V30 6204 H 565.62 0.617772 -4.99192 0
M  V30 6205 H 565.32 -0.941209 -5.80013 0
M  V30 6206 H 566.844 -0.0602747 -6.1057 0
M  V30 6207 H 568.258 -2.18424 -5.3006 0
M  V30 6208 H 566.655 -2.97069 -5.21412 0
M  V30 6209 H 567.725 -3.01067 -3.80114 0
M  V30 6210 N 569.068 1.32177 -0.85831 0
M  V30 6211 C 570.308 1.98927 -0.469822 0
M  V30 6212 C 570.672 1.66423 0.95746 0
M  V30 6213 O 571.873 2.26293 1.45069 0
M  V30 6214 C 570.144 3.50352 -0.706288 0
M  V30 6215 S 571.703 4.36824 -0.415918 0
M  V30 6216 H 568.521 0.688909 -0.175855 0
M  V30 6217 H 571.123 1.60807 -1.11181 0
M  V30 6218 H 569.827 3.71497 -1.74407 0
M  V30 6219 H 569.358 3.93367 -0.0508568 0
M  V30 6220 H 571.373 4.90398 0.756581 0
M  V30 6221 N 570.547 0.616602 1.45037 0
M  V30 6222 C 571.477 -0.0840787 2.33349 0
M  V30 6223 C 572.458 -0.849641 1.4736 0
M  V30 6224 O 573.643 -0.818407 1.76113 0
M  V30 6225 C 570.773 -1.07604 3.3021 0
M  V30 6226 C 569.727 -0.423096 4.25904 0
M  V30 6227 C 569.053 -1.52394 5.12523 0
M  V30 6228 C 570.353 0.661457 5.18095 0
M  V30 6229 H 572.047 0.653333 2.92185 0
M  V30 6230 H 569.593 0.315634 1.40498 0
M  V30 6231 H 571.546 -1.57485 3.90866 0
M  V30 6232 H 570.27 -1.84416 2.69552 0
M  V30 6233 H 568.929 0.05493 3.66559 0
M  V30 6234 H 568.577 -2.28257 4.48227 0
M  V30 6235 H 568.277 -1.09251 5.77354 0
M  V30 6236 H 569.801 -2.02485 5.76049 0
M  V30 6237 H 571.215 0.246353 5.7277 0
M  V30 6238 H 569.612 1.01517 5.91451 0
M  V30 6239 H 570.682 1.53446 4.59981 0
M  V30 6240 N 572.025 -1.5352 0.356285 0
M  V30 6241 C 572.955 -2.28372 -0.486661 0
M  V30 6242 C 573.936 -1.30432 -1.09185 0
M  V30 6243 O 575.121 -1.59291 -1.11085 0
M  V30 6244 C 572.251 -3.06604 -1.63129 0
M  V30 6245 C 571.205 -4.12154 -1.15381 0
M  V30 6246 C 570.531 -4.78415 -2.38796 0
M  V30 6247 C 571.831 -5.21724 -0.245179 0
M  V30 6248 H 573.525 -2.99083 0.137797 0
M  V30 6249 H 571.071 -1.43841 0.0677134 0
M  V30 6250 H 573.024 -3.57712 -2.22755 0
M  V30 6251 H 571.748 -2.33568 -2.28284 0
M  V30 6252 H 570.407 -3.61978 -0.580294 0
M  V30 6253 H 570.055 -4.01959 -3.02387 0
M  V30 6254 H 569.755 -5.49734 -2.07524 0
M  V30 6255 H 571.279 -5.32313 -2.99125 0
M  V30 6256 H 572.693 -5.68391 -0.748646 0
M  V30 6257 H 571.09 -6.00095 -0.0237608 0
M  V30 6258 H 572.16 -4.79596 0.715229 0
M  V30 6259 N 573.503 -0.0852151 -1.57369 0
M  V30 6260 C 574.451 0.894856 -2.14698 0
M  V30 6261 C 575.445 1.29903 -1.08727 0
M  V30 6262 O 576.651 1.27471 -1.27088 0
M  V30 6263 H 573.026 0.306569 -0.686673 0
M  V30 6264 H 574.997 0.386542 -2.95886 0
M  V30 6265 C 573.746 2.14798 -2.73417 0
M  V30 6266 H 573.069 1.84585 -3.54638 0
M  V30 6267 H 574.509 2.81456 -3.1711 0
M  V30 6268 C 572.968 2.91546 -1.68828 0
M  V30 6269 O 573.498 3.85733 -1.12129 0
M  V30 6270 N 571.704 2.54901 -1.39549 0
M  V30 6271 H 571.251 1.7838 -1.85845 0
M  V30 6272 H 571.209 3.06553 -0.698054 0
M  V30 6273 N 574.981 1.5647 0.188427 0
M  V30 6274 C 576.206 1.85486 0.927891 0
M  V30 6275 C 576.631 0.669575 1.75779 0
M  V30 6276 O 575.989 -0.381573 1.77239 0
M  V30 6277 C 576.037 3.12784 1.7944 0
M  V30 6278 O 575.141 2.93805 2.894 0
M  V30 6279 H 574.482 0.610585 0.260925 0
M  V30 6280 H 577.012 2.037 0.191729 0
M  V30 6281 H 577.022 3.43749 2.19774 0
M  V30 6282 H 575.697 3.98671 1.18468 0
M  V30 6283 H 574.274 2.74153 2.52774 0
M  V30 6284 N 576.459 -0.456382 1.50847 0
M  V30 6285 C 577.687 -1.23026 1.66349 0
M  V30 6286 C 578.102 -1.85473 0.352868 0
M  V30 6287 O 577.459 -1.69885 -0.666739 0
M  V30 6288 C 577.51 -2.32827 2.76539 0
M  V30 6289 O 577.231 -1.72938 4.02522 0
M  V30 6290 C 578.732 -3.23448 3.03144 0
M  V30 6291 H 575.952 -0.371527 0.558756 0
M  V30 6292 H 578.496 -0.543082 1.97157 0
M  V30 6293 H 576.651 -2.97294 2.48384 0
M  V30 6294 H 577.065 -2.45357 4.63573 0
M  V30 6295 H 578.539 -3.96669 3.83872 0
M  V30 6296 H 579.016 -3.83094 2.14793 0
M  V30 6297 H 579.622 -2.64702 3.32886 0
M  V30 6298 N 577.937 -1.40673 -0.710563 0
M  V30 6299 C 579.183 -1.39428 -1.47267 0
M  V30 6300 C 579.516 0.00182129 -1.942 0
M  V30 6301 O 578.791 0.971387 -1.68506 0
M  V30 6302 C 579.074 -2.38812 -2.6952 0
M  V30 6303 C 578.927 -3.87467 -2.28449 0
M  V30 6304 C 580.246 -2.3566 -3.71689 0
M  V30 6305 H 577.365 -0.507768 -0.534173 0
M  V30 6306 H 580.007 -1.71843 -0.810547 0
M  V30 6307 H 578.157 -2.113 -3.26013 0
M  V30 6308 H 579.829 -4.25825 -1.77399 0
M  V30 6309 H 578.072 -4.03058 -1.60395 0
M  V30 6310 H 578.743 -4.5253 -3.16103 0
M  V30 6311 H 581.219 -2.6004 -3.24836 0
M  V30 6312 H 580.095 -3.07237 -4.54859 0
M  V30 6313 H 580.356 -1.36996 -4.20339 0
M  V30 6314 N 579.415 0.9433 -1.26252 0
M  V30 6315 C 580.363 2.06302 -1.07434 0
M  V30 6316 C 581.357 1.694 -0.00189471 0
M  V30 6317 O 582.563 1.79302 -0.158408 0
M  V30 6318 H 578.938 0.675453 -0.330556 0
M  V30 6319 H 580.909 2.19326 -2.02333 0
M  V30 6320 C 579.658 3.40125 -0.721817 0
M  V30 6321 H 578.981 3.68996 -1.5389 0
M  V30 6322 H 580.421 4.19295 -0.629922 0
M  V30 6323 C 578.88 3.31993 0.572902 0
M  V30 6324 O 579.41 3.67945 1.61182 0
M  V30 6325 N 577.616 2.85099 0.562748 0
M  V30 6326 H 577.163 2.5604 -0.283092 0
M  V30 6327 H 577.121 2.80041 1.42915 0
M  V30 6328 N 580.893 1.08022 1.14757 0
M  V30 6329 C 582.304 0.829144 1.67279 0
M  V30 6330 C 582.655 -0.644721 1.85305 0
M  V30 6331 O 581.78 -1.49838 1.56133 0
M  V30 6332 C 582.375 1.49855 3.03857 0
M  V30 6333 C 580.934 1.29482 3.53428 0
M  V30 6334 C 580.081 1.56386 2.28995 0
M  V30 6335 H 583.032 1.24134 0.988762 0
M  V30 6336 H 583.053 0.923572 3.69121 0
M  V30 6337 H 582.565 2.57123 2.90705 0
M  V30 6338 H 580.666 0.242669 3.71809 0
M  V30 6339 H 580.779 2.01974 4.34446 0
M  V30 6340 H 579.143 0.985217 2.34874 0
M  V30 6341 H 579.926 2.64851 2.18423 0
M  V30 6342 N 582.371 -1.3172 0.865308 0
M  V30 6343 C 583.62 -1.96145 0.470098 0
M  V30 6344 C 583.933 -1.69182 -0.981674 0
M  V30 6345 O 585.139 -2.27431 -1.48281 0
M  V30 6346 C 583.595 -3.51129 0.789732 0
M  V30 6347 C 583.203 -3.86938 2.25795 0
M  V30 6348 C 584.947 -4.2197 0.462765 0
M  V30 6349 C 582.854 -5.35012 2.52024 0
M  V30 6350 H 581.784 -0.734105 0.172065 0
M  V30 6351 H 584.435 -1.49959 1.05757 0
M  V30 6352 H 582.817 -3.95781 0.131571 0
M  V30 6353 H 583.991 -3.5326 2.95879 0
M  V30 6354 H 582.306 -3.29149 2.55049 0
M  V30 6355 H 584.903 -5.30904 0.636019 0
M  V30 6356 H 585.246 -4.12005 -0.59645 0
M  V30 6357 H 585.779 -3.82936 1.07727 0
M  V30 6358 H 582.518 -5.50008 3.56611 0
M  V30 6359 H 582.038 -5.70058 1.8653 0
M  V30 6360 H 583.717 -6.0222 2.36515 0
M  V30 6361 N 583.85 -0.624285 -1.44708 0
M  V30 6362 C 585.099 -0.123539 -2.01321 0
M  V30 6363 C 585.412 1.25966 -1.49639 0
M  V30 6364 O 586.618 1.85405 -1.98336 0
M  V30 6365 C 585.074 -0.170124 -3.59498 0
M  V30 6366 C 584.682 -1.55421 -4.20176 0
M  V30 6367 C 586.426 0.274513 -4.23611 0
M  V30 6368 C 584.332 -1.55628 -5.70556 0
M  V30 6369 H 583.263 -0.0424183 -0.752806 0
M  V30 6370 H 585.913 -0.782076 -1.65999 0
M  V30 6371 H 584.296 0.555385 -3.92086 0
M  V30 6372 H 585.47 -2.30276 -3.99136 0
M  V30 6373 H 583.784 -1.94235 -3.68323 0
M  V30 6374 H 586.382 0.292402 -5.339 0
M  V30 6375 H 586.725 1.3005 -3.95465 0
M  V30 6376 H 587.258 -0.398275 -3.95801 0
M  V30 6377 H 583.997 -2.56041 -6.03426 0
M  V30 6378 H 583.517 -0.850563 -5.93739 0
M  V30 6379 H 585.196 -1.28721 -6.34066 0
M  V30 6380 N 585.328 1.53329 -0.364422 0
M  V30 6381 C 586.558 2.05359 0.226096 0
M  V30 6382 C 586.966 1.23777 1.43094 0
M  V30 6383 O 586.309 0.271139 1.81688 0
M  V30 6384 C 586.371 3.52918 0.684794 0
M  V30 6385 C 586.035 4.55218 -0.403206 0
M  V30 6386 C 587.032 5.04583 -1.2527 0
M  V30 6387 C 584.717 4.99134 -0.563117 0
M  V30 6388 C 586.711 5.96463 -2.24745 0
M  V30 6389 C 584.398 5.9082 -1.56124 0
M  V30 6390 C 585.396 6.39375 -2.40184 0
M  V30 6391 O 585.084 7.29255 -3.38293 0
M  V30 6392 H 584.816 0.674588 0.0436772 0
M  V30 6393 H 587.37 1.98688 -0.520782 0
M  V30 6394 H 585.6 3.57122 1.48326 0
M  V30 6395 H 587.289 3.87812 1.19818 0
M  V30 6396 H 588.055 4.71403 -1.14034 0
M  V30 6397 H 583.934 4.60928 0.0813909 0
M  V30 6398 H 587.478 6.34285 -2.90393 0
M  V30 6399 H 583.375 6.23414 -1.67407 0
M  V30 6400 H 584.143 7.47249 -3.34009 0
M  V30 6401 N 586.806 0.0935595 1.57322 0
M  V30 6402 C 587.769 -0.851426 2.12799 0
M  V30 6403 C 588.769 -1.21187 1.0569 0
M  V30 6404 O 589.959 -1.14156 1.31583 0
M  V30 6405 C 587.091 -2.14779 2.64731 0
M  V30 6406 H 588.284 -0.369733 2.97612 0
M  V30 6407 H 585.837 -0.155417 1.55525 0
M  V30 6408 H 586.572 -2.67437 1.83434 0
M  V30 6409 H 586.357 -1.89907 3.43042 0
M  V30 6410 H 587.847 -2.82383 3.07651 0
M  V30 6411 N 588.284 -1.56567 -0.180126 0
M  V30 6412 C 589.214 -1.98753 -1.22553 0
M  V30 6413 C 590.195 -0.86175 -1.46656 0
M  V30 6414 O 591.38 -1.12719 -1.58139 0
M  V30 6415 C 588.51 -2.33988 -2.56645 0
M  V30 6416 C 587.464 -3.49445 -2.47128 0
M  V30 6417 C 586.79 -3.70397 -3.8563 0
M  V30 6418 C 588.09 -4.83171 -1.98352 0
M  V30 6419 H 589.784 -2.86332 -0.874896 0
M  V30 6420 H 587.33 -1.37757 -0.419414 0
M  V30 6421 H 589.283 -2.62097 -3.29974 0
M  V30 6422 H 588.007 -1.43309 -2.93479 0
M  V30 6423 H 586.666 -3.2145 -1.76254 0
M  V30 6424 H 586.314 -2.77023 -4.19842 0
M  V30 6425 H 586.014 -4.48077 -3.80132 0
M  V30 6426 H 587.538 -4.00897 -4.60558 0
M  V30 6427 H 588.952 -5.10213 -2.61449 0
M  V30 6428 H 587.349 -5.64425 -2.03823 0
M  V30 6429 H 588.419 -4.75753 -0.937402 0
M  V30 6430 N 589.762 0.448376 -1.51087 0
M  V30 6431 C 591.178 0.783984 -1.39017 0
M  V30 6432 C 591.378 1.96087 -0.463904 0
M  V30 6433 O 590.434 2.52357 0.0850534 0
M  V30 6434 C 591.747 1.07471 -2.80839 0
M  V30 6435 C 593.295 1.17981 -2.89913 0
M  V30 6436 C 593.77 1.50354 -4.32617 0
M  V30 6437 N 595.261 1.57301 -4.35673 0
M  V30 6438 C 595.996 1.839 -5.4311 0
M  V30 6439 N 595.492 2.08365 -6.60724 0
M  V30 6440 N 597.285 1.8559 -5.30578 0
M  V30 6441 H 589.436 -0.326881 -2.0987 0
M  V30 6442 H 591.699 -0.0838006 -0.944289 0
M  V30 6443 H 591.405 0.282768 -3.50561 0
M  V30 6444 H 591.279 2.00519 -3.19487 0
M  V30 6445 H 593.666 1.9624 -2.20395 0
M  V30 6446 H 593.747 0.228603 -2.54776 0
M  V30 6447 H 593.391 0.726273 -5.0268 0
M  V30 6448 H 593.321 2.46663 -4.65258 0
M  V30 6449 H 595.812 1.40342 -3.50874 0
M  V30 6450 H 596.125 2.27999 -7.38401 0
M  V30 6451 H 594.47 2.0571 -6.63859 0
M  V30 6452 H 597.661 1.65989 -4.37682 0
M  V30 6453 H 597.834 2.05983 -6.1439 0
M  V30 6454 N 591.24 1.41047 0.703093 0
M  V30 6455 C 592.465 1.43537 1.49706 0
M  V30 6456 C 592.89 0.0401853 1.88057 0
M  V30 6457 O 592.248 -0.954785 1.54122 0
M  V30 6458 C 592.296 2.3433 2.74084 0
M  V30 6459 O 591.4 1.79515 3.71279 0
M  V30 6460 H 590.741 0.487454 0.450871 0
M  V30 6461 H 593.271 1.85422 0.86486 0
M  V30 6462 H 593.281 2.49947 3.22476 0
M  V30 6463 H 591.956 3.35708 2.45506 0
M  V30 6464 H 590.533 1.7331 3.30179 0
M  V30 6465 N 592.718 -0.936591 1.26751 0
M  V30 6466 C 593.665 -2.03597 1.08706 0
M  V30 6467 C 594.635 -1.66097 -0.00926542 0
M  V30 6468 O 595.82 -1.90199 0.151377 0
M  V30 6469 C 592.96 -3.3727 0.73094 0
M  V30 6470 C 592.073 -3.87778 1.90399 0
M  V30 6471 C 591.208 -5.09859 1.49056 0
M  V30 6472 C 590.247 -5.5264 2.63164 0
M  V30 6473 N 589.384 -6.65921 2.22471 0
M  V30 6474 H 594.224 -2.18364 2.02784 0
M  V30 6475 H 591.761 -1.06985 1.00958 0
M  V30 6476 H 593.719 -4.14128 0.505328 0
M  V30 6477 H 592.349 -3.22337 -0.172868 0
M  V30 6478 H 591.401 -3.07279 2.2424 0
M  V30 6479 H 592.713 -4.15464 2.76028 0
M  V30 6480 H 591.867 -5.9419 1.22567 0
M  V30 6481 H 590.606 -4.8393 0.60524 0
M  V30 6482 H 589.611 -4.66863 2.90377 0
M  V30 6483 H 590.836 -5.80568 3.52303 0
M  V30 6484 H 588.782 -6.41667 1.36379 0
M  V30 6485 H 588.699 -6.93216 3.01641 0
M  V30 6486 H 589.967 -7.53616 1.99205 0
M  V30 6487 N 594.196 -1.08629 -1.14182 0
M  V30 6488 C 595.473 -0.73002 -1.81466 0
M  V30 6489 C 595.853 0.785996 -1.95922 0
M  V30 6490 O 595.201 1.70535 -1.52086 0
M  V30 6491 C 595.411 -1.45957 -3.17014 0
M  V30 6492 C 596.759 -1.62008 -3.92477 0
M  V30 6493 O 597.783 -1.42141 -3.26611 0
M  V30 6494 O 596.642 -1.94806 -5.106 0
M  V30 6495 H 593.736 -0.261307 -0.784632 0
M  V30 6496 H 596.282 -1.188 -1.2118 0
M  V30 6497 H 595.054 -2.49221 -3.01669 0
M  V30 6498 H 594.677 -0.993222 -3.84995 0
M  V30 6499 N 595.674 1.31259 -0.872281 0
M  V30 6500 C 596.604 2.30929 -0.345554 0
M  V30 6501 C 597.585 1.60449 0.5648 0
M  V30 6502 O 598.77 1.8814 0.481335 0
M  V30 6503 C 595.9 3.44348 0.451823 0
M  V30 6504 C 594.854 4.26435 -0.365641 0
M  V30 6505 C 594.18 5.31785 0.557562 0
M  V30 6506 C 595.48 4.97159 -1.60095 0
M  V30 6507 H 597.174 2.75234 -1.17841 0
M  V30 6508 H 594.72 1.3232 -0.568094 0
M  V30 6509 H 596.673 4.13128 0.830854 0
M  V30 6510 H 595.397 2.98816 1.31821 0
M  V30 6511 H 594.056 3.59326 -0.726649 0
M  V30 6512 H 593.704 4.82502 1.4213 0
M  V30 6513 H 593.404 5.87598 0.0144878 0
M  V30 6514 H 594.928 6.03424 0.933387 0
M  V30 6515 H 596.342 5.58523 -1.29323 0
M  V30 6516 H 594.739 5.62779 -2.08327 0
M  V30 6517 H 595.809 4.24012 -2.35249 0
M  V30 6518 N 597.152 0.631951 1.44375 0
M  V30 6519 C 598.568 0.297642 1.568 0
M  V30 6520 C 598.768 -1.19916 1.61934 0
M  V30 6521 O 597.824 -1.98324 1.56281 0
M  V30 6522 C 599.137 0.990286 2.83926 0
M  V30 6523 C 600.685 0.968507 2.97639 0
M  V30 6524 C 601.16 1.64163 4.27568 0
M  V30 6525 N 602.651 1.60826 4.34384 0
M  V30 6526 C 603.386 2.09802 5.33639 0
M  V30 6527 N 602.882 2.66973 6.39294 0
M  V30 6528 N 604.675 2.00426 5.25153 0
M  V30 6529 H 596.826 1.60353 1.39286 0
M  V30 6530 H 599.089 0.673142 0.667521 0
M  V30 6531 H 598.795 2.04519 2.8612 0
M  V30 6532 H 598.669 0.528563 3.73478 0
M  V30 6533 H 601.056 -0.0779247 2.94997 0
M  V30 6534 H 601.137 1.46873 2.09433 0
M  V30 6535 H 600.781 2.68752 4.3097 0
M  V30 6536 H 600.711 1.11624 5.14634 0
M  V30 6537 H 603.202 1.19087 3.58646 0
M  V30 6538 H 603.515 3.02074 7.11316 0
M  V30 6539 H 601.86 2.71024 6.39977 0
M  V30 6540 H 605.051 1.55483 4.41523 0
M  V30 6541 H 605.224 2.38906 6.02352 0
M  V30 6542 N 598.631 -1.53133 0.372548 0
M  V30 6543 C 599.581 -2.22733 -0.487218 0
M  V30 6544 C 600.565 -1.22506 -1.04312 0
M  V30 6545 O 601.757 -1.47923 -0.972005 0
M  V30 6546 C 598.886 -3.02524 -1.62278 0
M  V30 6547 C 597.972 -4.10133 -1.07943 0
M  V30 6548 N 598.363 -5.05133 -0.259629 0
M  V30 6549 C 596.661 -4.24964 -1.35356 0
M  V30 6550 C 597.362 -5.81687 0.0386656 0
M  V30 6551 N 596.338 -5.40699 -0.560827 0
M  V30 6552 H 600.14 -2.93538 0.145853 0
M  V30 6553 H 597.654 -1.61389 0.180938 0
M  V30 6554 H 599.651 -3.50909 -2.25096 0
M  V30 6555 H 598.311 -2.33252 -2.25884 0
M  V30 6556 H 599.322 -5.178 0.101746 0
M  V30 6557 H 595.999 -3.66919 -1.9919 0
M  V30 6558 H 597.389 -6.68224 0.701841 0
M  V30 6559 N 600.109 -0.101901 -1.5727 0
M  V30 6560 C 601.072 0.840129 -2.13247 0
M  V30 6561 C 602.072 1.20625 -1.06331 0
M  V30 6562 O 603.262 1.13456 -1.32186 0
M  V30 6563 C 600.394 2.13372 -2.65867 0
M  V30 6564 H 601.587 0.353945 -2.97804 0
M  V30 6565 H 599.14 0.147167 -1.55606 0
M  V30 6566 H 599.875 2.66461 -1.84849 0
M  V30 6567 H 599.66 1.88085 -3.44044 0
M  V30 6568 H 601.15 2.80748 -3.09145 0
M  V30 6569 N 601.587 1.56661 0.17182 0
M  V30 6570 C 602.834 1.81965 0.888529 0
M  V30 6571 C 603.162 0.6789 1.82267 0
M  V30 6572 O 602.417 -0.333875 1.92831 0
M  V30 6573 C 602.716 3.13435 1.71736 0
M  V30 6574 C 602.382 4.41159 0.932184 0
M  V30 6575 C 601.044 4.75851 0.715481 0
M  V30 6576 C 603.396 5.19803 0.381387 0
M  V30 6577 C 600.724 5.86666 -0.063126 0
M  V30 6578 C 603.076 6.31433 -0.384129 0
M  V30 6579 C 601.74 6.64692 -0.611637 0
M  V30 6580 H 601.01 0.665859 0.325136 0
M  V30 6581 H 603.657 1.90884 0.153495 0
M  V30 6582 H 601.962 2.99857 2.52177 0
M  V30 6583 H 603.659 3.30224 2.27493 0
M  V30 6584 H 600.249 4.13947 1.11112 0
M  V30 6585 H 604.433 4.93396 0.536148 0
M  V30 6586 H 599.689 6.10892 -0.249136 0
M  V30 6587 H 603.863 6.91577 -0.818185 0
M  V30 6588 H 601.49 7.50398 -1.21684 0
M  V30 6589 N 603.065 -0.440357 1.51323 0
M  V30 6590 C 604.481 -0.7766 1.39431 0
M  V30 6591 C 604.681 -1.95838 0.474296 0
M  V30 6592 O 603.737 -2.52398 -0.0716692 0
M  V30 6593 C 605.05 -1.05981 2.81405 0
M  V30 6594 C 606.598 -1.16442 2.90534 0
M  V30 6595 C 607.073 -1.48058 4.33408 0
M  V30 6596 N 608.564 -1.54988 4.36501 0
M  V30 6597 C 609.299 -1.81017 5.44078 0
M  V30 6598 N 608.795 -2.04858 6.61819 0
M  V30 6599 N 610.588 -1.82774 5.31554 0
M  V30 6600 H 602.739 0.338006 2.09693 0
M  V30 6601 H 605.002 0.0888072 0.943831 0
M  V30 6602 H 604.708 -0.264173 3.50706 0
M  V30 6603 H 604.582 -1.98822 3.20546 0
M  V30 6604 H 606.969 -1.95068 2.21432 0
M  V30 6605 H 607.05 -0.215088 2.54894 0
M  V30 6606 H 606.694 -0.699605 5.03059 0
M  V30 6607 H 606.624 -2.44192 4.66559 0
M  V30 6608 H 609.115 -1.38479 3.51613 0
M  V30 6609 H 609.428 -2.2408 7.396 0
M  V30 6610 H 607.773 -2.02187 6.6494 0
M  V30 6611 H 610.964 -1.63665 4.38556 0
M  V30 6612 H 611.137 -2.02722 6.15474 0
M  V30 6613 N 604.543 -1.41418 -0.695603 0
M  V30 6614 C 605.768 -1.44329 -1.48942 0
M  V30 6615 C 606.193 -0.0501579 -1.88033 0
M  V30 6616 O 605.551 0.946598 -1.54626 0
M  V30 6617 C 605.599 -2.3578 -2.72837 0
M  V30 6618 O 604.703 -1.81482 -3.70322 0
M  V30 6619 H 604.044 -0.489838 -0.44828 0
M  V30 6620 H 606.574 -1.85878 -0.855014 0
M  V30 6621 H 606.584 -2.51654 -3.21145 0
M  V30 6622 H 605.259 -3.37005 -2.43722 0
M  V30 6623 H 603.836 -1.75058 -3.29255 0
M  V30 6624 N 606.021 0.929856 -1.27246 0
M  V30 6625 C 606.954 2.03069 -1.04106 0
M  V30 6626 C 607.932 1.62556 0.0378417 0
M  V30 6627 O 609.116 1.88197 -0.106869 0
M  V30 6628 C 606.243 3.33718 -0.578778 0
M  V30 6629 C 605.289 3.93209 -1.65193 0
M  V30 6630 S 606.122 4.26068 -3.24386 0
M  V30 6631 C 607.278 5.598 -2.79954 0
M  V30 6632 H 607.511 2.22386 -1.97311 0
M  V30 6633 H 605.044 1.07269 -1.11053 0
M  V30 6634 H 607.002 4.09261 -0.31874 0
M  V30 6635 H 605.663 3.12328 0.333182 0
M  V30 6636 H 604.856 4.87482 -1.27973 0
M  V30 6637 H 604.458 3.24243 -1.86393 0
M  V30 6638 H 606.75 6.39004 -2.25123 0
M  V30 6639 H 607.693 6.01917 -3.72963 0
M  V30 6640 H 608.101 5.20219 -2.19164 0
M  V30 6641 N 607.499 1.09233 1.13605 0
M  V30 6642 C 608.746 0.827159 1.84836 0
M  V30 6643 C 609.074 -0.647199 1.83416 0
M  V30 6644 O 608.329 -1.49228 1.26608 0
M  V30 6645 C 608.628 1.305 3.32723 0
M  V30 6646 C 608.294 2.78864 3.54325 0
M  V30 6647 C 606.956 3.19382 3.59928 0
M  V30 6648 C 609.308 3.74532 3.62457 0
M  V30 6649 C 606.636 4.54346 3.71196 0
M  V30 6650 C 608.988 5.09283 3.75252 0
M  V30 6651 C 607.652 5.49394 3.79108 0
M  V30 6652 H 606.922 0.302679 0.676363 0
M  V30 6653 H 609.569 1.36676 1.34134 0
M  V30 6654 H 607.874 0.68517 3.85762 0
M  V30 6655 H 609.571 1.07648 3.86281 0
M  V30 6656 H 606.161 2.46507 3.50617 0
M  V30 6657 H 610.345 3.44343 3.57409 0
M  V30 6658 H 605.601 4.84864 3.72447 0
M  V30 6659 H 609.775 5.83269 3.80487 0
M  V30 6660 H 607.402 6.5397 3.87591 0
M  V30 6661 N 608.977 -1.30795 0.87923 0
M  V30 6662 C 610.388 -1.78535 0.546093 0
M  V30 6663 C 610.739 -1.72354 -0.937467 0
M  V30 6664 O 609.864 -1.2969 -1.73233 0
M  V30 6665 C 610.459 -3.24181 0.9845 0
M  V30 6666 C 609.018 -3.69779 0.702871 0
M  V30 6667 C 608.165 -2.51377 1.17068 0
M  V30 6668 H 611.116 -1.17746 1.06403 0
M  V30 6669 H 611.137 -3.79227 0.311045 0
M  V30 6670 H 610.649 -3.28647 2.06429 0
M  V30 6671 H 608.75 -3.70806 -0.365166 0
M  V30 6672 H 608.863 -4.61507 1.28639 0
M  V30 6673 H 607.227 -2.47768 0.590172 0
M  V30 6674 H 608.01 -2.58584 2.25808 0
M  V30 6675 N 610.455 -0.639598 -1.44038 0
M  V30 6676 C 611.68 -0.153117 -2.06834 0
M  V30 6677 C 612.105 1.16676 -1.47541 0
M  V30 6678 O 611.463 1.71769 -0.580093 0
M  V30 6679 C 611.511 -0.0609169 -3.60549 0
M  V30 6680 O 610.615 0.98071 -4.00569 0
M  V30 6681 H 609.956 -0.0886402 -0.658057 0
M  V30 6682 H 612.486 -0.878674 -1.84771 0
M  V30 6683 H 612.496 0.126892 -4.07803 0
M  V30 6684 H 611.171 -1.0245 -4.03084 0
M  V30 6685 H 609.748 0.766789 -3.64931 0
M  V30 6686 N 611.933 1.52934 -0.380664 0
M  V30 6687 C 613.173 2.03378 0.204161 0
M  V30 6688 C 613.537 1.26132 1.44758 0
M  V30 6689 O 614.738 1.66657 2.109 0
M  V30 6690 C 613.009 3.54241 0.474118 0
M  V30 6691 S 614.568 4.26529 1.03046 0
M  V30 6692 H 611.386 0.708608 0.0582719 0
M  V30 6693 H 613.988 1.88263 -0.527017 0
M  V30 6694 H 612.692 4.08055 -0.438088 0
M  V30 6695 H 612.223 3.73547 1.23396 0
M  V30 6696 H 614.238 4.38964 2.31354 0
M  V30 6697 N 613.412 0.11024 1.57214 0
M  V30 6698 C 614.322 -0.857077 2.18383 0
M  V30 6699 C 615.338 -1.29915 1.1575 0
M  V30 6700 O 616.514 -1.36394 1.48184 0
M  V30 6701 C 613.579 -2.09264 2.76423 0
M  V30 6702 C 612.64 -1.70333 3.94063 0
M  V30 6703 C 611.873 -2.87999 4.49324 0
M  V30 6704 O 612.096 -4.0317 4.03497 0
M  V30 6705 O 611.03 -2.6559 5.40135 0
M  V30 6706 H 614.856 -0.366561 3.0148 0
M  V30 6707 H 612.441 -0.114914 1.48957 0
M  V30 6708 H 614.323 -2.81644 3.13456 0
M  V30 6709 H 612.998 -2.57339 1.96363 0
M  V30 6710 H 611.905 -0.950864 3.61814 0
M  V30 6711 H 613.238 -1.27007 4.75531 0
M  V30 6712 N 614.89 -1.56749 -0.16351 0
M  V30 6713 C 616.138 -1.82074 -0.87713 0
M  V30 6714 C 616.459 -0.688503 -1.82441 0
M  V30 6715 O 615.729 0.291085 -1.93725 0
M  V30 6716 H 614.309 -0.671677 -0.326893 0
M  V30 6717 H 616.971 -1.9423 -0.161459 0
M  V30 6718 H 616.067 -2.76407 -1.44934 0
M  V30 6719 N 616.368 0.432326 -1.51554 0
M  V30 6720 C 617.596 1.20364 -1.68286 0
M  V30 6721 C 618.011 1.84888 -0.38233 0
M  V30 6722 O 617.368 1.70924 0.639627 0
M  V30 6723 C 617.419 2.28398 -2.80208 0
M  V30 6724 O 617.14 1.66512 -4.05223 0
M  V30 6725 C 618.641 3.18584 -3.08251 0
M  V30 6726 H 615.861 0.36259 -0.564596 0
M  V30 6727 H 618.405 0.511647 -1.97996 0
M  V30 6728 H 616.56 2.93305 -2.53083 0
M  V30 6729 H 616.974 2.37951 -4.67418 0
M  V30 6730 H 618.448 3.90511 -3.90135 0
M  V30 6731 H 618.925 3.79628 -2.2086 0
M  V30 6732 H 619.531 2.59372 -3.37055 0
M  V30 6733 N 617.846 1.41785 0.688094 0
M  V30 6734 C 618.809 1.43936 1.78368 0
M  V30 6735 C 619.809 0.328866 1.57401 0
M  V30 6736 O 620.999 0.589093 1.63937 0
M  V30 6737 C 618.131 1.25804 3.16838 0
M  V30 6738 H 619.324 2.41472 1.77852 0
M  V30 6739 H 616.877 1.28037 0.896448 0
M  V30 6740 H 617.612 0.291386 3.22988 0
M  V30 6741 H 617.397 2.06272 3.33458 0
M  V30 6742 H 618.887 1.30162 3.96797 0
M  V30 6743 N 619.324 -0.923095 1.27737 0
M  V30 6744 C 620.256 -2.02871 1.06658 0
M  V30 6745 C 621.269 -1.62786 0.0212095 0
M  V30 6746 O 622.458 -1.76548 0.263267 0
M  V30 6747 C 619.558 -3.33603 0.59682 0
M  V30 6748 C 618.731 -4.02354 1.71551 0
M  V30 6749 C 617.79 -5.11364 1.24071 0
M  V30 6750 O 616.816 -5.35075 1.94123 0
M  V30 6751 N 618.018 -5.80416 0.0988444 0
M  V30 6752 H 620.783 -2.21515 2.01869 0
M  V30 6753 H 618.344 -1.09378 1.19365 0
M  V30 6754 H 620.336 -4.03845 0.262984 0
M  V30 6755 H 618.906 -3.11499 -0.262187 0
M  V30 6756 H 618.126 -3.25786 2.2194 0
M  V30 6757 H 619.414 -4.45035 2.46619 0
M  V30 6758 H 618.812 -5.63611 -0.485743 0
M  V30 6759 H 617.369 -6.51563 -0.17578 0
M  V30 6760 N 620.802 -1.09834 -1.13024 0
M  V30 6761 C 622.213 -0.855651 -1.65938 0
M  V30 6762 C 622.564 0.615159 -1.86307 0
M  V30 6763 O 621.689 1.47335 -1.58497 0
M  V30 6764 C 622.284 -1.5467 -3.01434 0
M  V30 6765 C 620.843 -1.35088 -3.51323 0
M  V30 6766 C 619.99 -1.6001 -2.26478 0
M  V30 6767 H 622.941 -1.25691 -0.968889 0
M  V30 6768 H 622.962 -0.982179 -3.67605 0
M  V30 6769 H 622.474 -2.61715 -2.86578 0
M  V30 6770 H 620.575 -0.30179 -3.71376 0
M  V30 6771 H 620.688 -2.0886 -4.31178 0
M  V30 6772 H 619.052 -1.02246 -2.33276 0
M  V30 6773 H 619.835 -2.68293 -2.14182 0
M  V30 6774 N 622.28 1.30327 -0.886154 0
M  V30 6775 C 623.21 2.30549 -0.370028 0
M  V30 6776 C 624.191 1.61039 0.547751 0
M  V30 6777 O 625.376 1.8864 0.461353 0
M  V30 6778 C 622.506 3.44808 0.415275 0
M  V30 6779 C 621.46 4.26024 -0.41085 0
M  V30 6780 C 620.786 5.32347 0.501128 0
M  V30 6781 C 622.086 4.95433 -1.65359 0
M  V30 6782 H 623.78 2.73969 -1.20754 0
M  V30 6783 H 621.326 1.3171 -0.582097 0
M  V30 6784 H 623.279 4.13986 0.78699 0
M  V30 6785 H 622.003 3.00197 1.28644 0
M  V30 6786 H 620.662 3.58535 -0.764719 0
M  V30 6787 H 620.31 4.83982 1.37004 0
M  V30 6788 H 620.01 5.87581 -0.0478356 0
M  V30 6789 H 621.534 6.0438 0.869333 0
M  V30 6790 H 622.948 5.5712 -1.35239 0
M  V30 6791 H 621.345 5.60537 -2.14284 0
M  V30 6792 H 622.415 4.21493 -2.39733 0
M  V30 6793 N 623.758 0.647228 1.43697 0
M  V30 6794 C 625.035 0.0883758 1.954 0
M  V30 6795 C 625.415 -1.39006 1.58873 0
M  V30 6796 O 624.763 -2.11255 0.87083 0
M  V30 6797 C 624.973 0.328263 3.47453 0
M  V30 6798 C 626.321 0.230009 4.23977 0
M  V30 6799 O 627.345 0.260496 3.55246 0
M  V30 6800 O 626.204 0.148615 5.46298 0
M  V30 6801 H 623.298 -0.0130683 0.826897 0
M  V30 6802 H 625.844 0.72005 1.53666 0
M  V30 6803 H 624.616 1.3535 3.67146 0
M  V30 6804 H 624.239 -0.336772 3.96171 0
M  V30 6805 N 625.236 -1.5273 0.388769 0
M  V30 6806 C 626.184 -2.27975 -0.461527 0
M  V30 6807 C 627.178 -1.31854 -1.06352 0
M  V30 6808 O 628.384 -1.49394 -1.00406 0
M  V30 6809 H 624.759 -0.733088 -0.16759 0
M  V30 6810 H 626.73 -2.97765 0.194579 0
M  V30 6811 C 625.479 -3.09881 -1.577 0
M  V30 6812 H 624.802 -3.83701 -1.12309 0
M  V30 6813 H 626.242 -3.6567 -2.14619 0
M  V30 6814 C 624.701 -2.22159 -2.53272 0
M  V30 6815 O 625.231 -1.84802 -3.56667 0
M  V30 6816 N 623.437 -1.8633 -2.23001 0
M  V30 6817 H 622.984 -2.16909 -1.38954 0
M  V30 6818 H 622.942 -1.27927 -2.87197 0
M  V30 6819 N 626.714 -0.118576 -1.57153 0
M  V30 6820 C 627.939 0.550582 -1.99958 0
M  V30 6821 C 628.364 1.59458 -0.997736 0
M  V30 6822 O 627.722 1.81274 0.0306269 0
M  V30 6823 C 627.77 1.15379 -3.41643 0
M  V30 6824 O 626.874 2.26932 -3.44348 0
M  V30 6825 H 626.215 0.137567 -0.649593 0
M  V30 6826 H 628.745 -0.206926 -2.03551 0
M  V30 6827 H 628.755 1.48942 -3.79843 0
M  V30 6828 H 627.43 0.389087 -4.14076 0
M  V30 6829 H 626.007 1.94812 -3.17967 0
M  V30 6830 N 628.193 1.56834 0.155195 0
M  V30 6831 C 629.126 1.9278 1.22111 0
M  V30 6832 C 630.104 0.792588 1.41975 0
M  V30 6833 O 631.288 1.04743 1.5672 0
M  V30 6834 C 628.415 2.19273 2.58142 0
M  V30 6835 C 627.461 3.41932 2.54921 0
M  V30 6836 S 628.294 4.95769 2.02418 0
M  V30 6837 C 629.45 5.25375 3.40194 0
M  V30 6838 H 629.683 2.82889 0.914393 0
M  V30 6839 H 627.216 1.50133 0.360461 0
M  V30 6840 H 629.174 2.35217 3.36427 0
M  V30 6841 H 627.835 1.29843 2.86007 0
M  V30 6842 H 627.028 3.57721 3.55038 0
M  V30 6843 H 626.63 3.25188 1.8474 0
M  V30 6844 H 628.922 5.1834 4.36268 0
M  V30 6845 H 629.865 6.26889 3.29266 0
M  V30 6846 H 630.273 4.52906 3.36951 0
M  V30 6847 N 629.671 -0.424282 1.51781 0
M  V30 6848 C 630.919 -1.17028 1.64769 0
M  V30 6849 C 631.24 -1.91409 0.372523 0
M  V30 6850 O 630.51 -1.86091 -0.612108 0
M  V30 6851 H 629.09 -0.434992 0.607282 0
M  V30 6852 H 631.752 -0.485169 1.88765 0
M  V30 6853 H 630.848 -1.8927 2.4816 0
M  V30 6854 N 631.149 -1.42148 -0.680565 0
M  V30 6855 C 632.426 -1.32795 -1.43614 0
M  V30 6856 C 632.806 0.037415 -2.11067 0
M  V30 6857 O 632.154 1.05258 -2.02813 0
M  V30 6858 C 632.364 -2.49206 -2.44331 0
M  V30 6859 C 633.712 -2.91059 -3.09144 0
M  V30 6860 O 634.736 -2.49054 -2.54657 0
M  V30 6861 O 633.595 -3.63741 -4.07866 0
M  V30 6862 H 630.689 -0.523397 -0.640301 0
M  V30 6863 H 633.235 -1.54144 -0.709775 0
M  V30 6864 H 632.007 -3.40252 -1.93247 0
M  V30 6865 H 631.63 -2.29813 -3.24456 0
M  V30 6866 N 632.627 0.916307 -1.28225 0
M  V30 6867 C 633.852 1.7043 -1.18188 0
M  V30 6868 C 634.277 1.86346 0.256274 0
M  V30 6869 O 633.635 1.37175 1.18544 0
M  V30 6870 C 633.683 3.07546 -1.88275 0
M  V30 6871 O 632.787 3.94904 -1.18848 0
M  V30 6872 H 632.128 0.521967 -0.410423 0
M  V30 6873 H 634.658 1.14589 -1.69501 0
M  V30 6874 H 634.668 3.57793 -1.96082 0
M  V30 6875 H 633.343 2.95279 -2.92887 0
M  V30 6876 H 631.92 3.53339 -1.19187 0
M  V30 6877 N 634.105 1.10431 1.1244 0
M  V30 6878 C 635.382 0.758797 1.80282 0
M  V30 6879 C 635.762 -0.754727 1.97147 0
M  V30 6880 O 635.11 -1.68094 1.54779 0
M  V30 6881 C 635.32 1.50982 3.14651 0
M  V30 6882 C 636.668 1.68232 3.8985 0
M  V30 6883 O 637.692 1.47319 3.24308 0
M  V30 6884 O 636.551 2.02905 5.07437 0
M  V30 6885 H 633.645 0.273756 0.780376 0
M  V30 6886 H 636.191 1.20713 1.19275 0
M  V30 6887 H 634.963 2.53989 2.97666 0
M  V30 6888 H 634.586 1.05435 3.83366 0
M  V30 6889 N 635.583 -1.29855 0.893053 0
M  V30 6890 C 636.823 -1.97612 0.522399 0
M  V30 6891 C 637.187 -1.68903 -0.913 0
M  V30 6892 O 638.388 -2.30059 -1.39019 0
M  V30 6893 C 636.659 -3.48356 0.79893 0
M  V30 6894 S 638.218 -4.35568 0.531588 0
M  V30 6895 H 635.036 -0.684005 0.194058 0
M  V30 6896 H 637.638 -1.57803 1.15406 0
M  V30 6897 H 636.342 -3.66743 1.84196 0
M  V30 6898 H 635.873 -3.93094 0.155133 0
M  V30 6899 H 637.888 -4.92232 -0.626295 0
M  V30 6900 N 637.061 -0.65484 -1.43351 0
M  V30 6901 C 637.991 0.0221809 -2.33489 0
M  V30 6902 C 638.972 0.810272 -1.49561 0
M  V30 6903 O 640.157 0.771426 -1.78221 0
M  V30 6904 C 637.287 0.988117 -3.32947 0
M  V30 6905 C 636.241 0.310026 -4.26876 0
M  V30 6906 C 635.567 1.38752 -5.16384 0
M  V30 6907 C 636.867 -0.798589 -5.16159 0
M  V30 6908 H 638.561 -0.730571 -2.9035 0
M  V30 6909 H 636.107 -0.352773 -1.39612 0
M  V30 6910 H 638.06 1.47067 -3.94904 0
M  V30 6911 H 636.784 1.77205 -2.74346 0
M  V30 6912 H 635.443 -0.152097 -3.66284 0
M  V30 6913 H 635.091 2.16293 -4.54121 0
M  V30 6914 H 634.791 0.939051 -5.80048 0
M  V30 6915 H 636.315 1.87141 -5.81215 0
M  V30 6916 H 637.729 -0.398126 -5.71916 0
M  V30 6917 H 636.126 -1.17163 -5.88552 0
M  V30 6918 H 637.196 -1.65588 -4.55751 0
M  V30 6919 N 638.539 1.52521 -0.396863 0
M  V30 6920 C 639.489 2.2348 0.451722 0
M  V30 6921 C 640.473 1.2415 1.0235 0
M  V30 6922 O 641.665 1.4945 0.948348 0
M  V30 6923 C 638.794 3.05067 1.57445 0
M  V30 6924 C 637.88 4.11799 1.01404 0
M  V30 6925 N 638.271 5.05482 0.179234 0
M  V30 6926 C 636.569 4.27064 1.28578 0
M  V30 6927 C 637.27 5.81552 -0.131202 0
M  V30 6928 N 636.246 5.41523 0.474735 0
M  V30 6929 H 640.048 2.93269 -0.192534 0
M  V30 6930 H 637.562 1.61081 -0.206591 0
M  V30 6931 H 639.559 3.54446 2.19485 0
M  V30 6932 H 638.219 2.36816 2.22145 0
M  V30 6933 H 639.23 5.17573 -0.18411 0
M  V30 6934 H 635.907 3.70042 1.93327 0
M  V30 6935 H 637.297 6.67023 -0.808061 0
M  V30 6936 N 640.017 0.126909 1.57088 0
M  V30 6937 C 640.964 -0.82036 2.15728 0
M  V30 6938 C 641.934 -1.25811 1.08447 0
M  V30 6939 O 643.119 -1.33422 1.36393 0
M  V30 6940 C 640.259 -2.06199 2.76724 0
M  V30 6941 C 639.372 -1.67188 3.98337 0
M  V30 6942 C 638.507 -2.86378 4.47393 0
M  V30 6943 C 637.546 -2.43644 5.61519 0
M  V30 6944 N 636.683 -3.55775 6.05284 0
M  V30 6945 H 641.523 -0.313472 2.96347 0
M  V30 6946 H 639.06 -0.14303 1.46403 0
M  V30 6947 H 641.018 -2.78959 3.10222 0
M  V30 6948 H 639.648 -2.54333 1.98782 0
M  V30 6949 H 638.7 -0.842714 3.70948 0
M  V30 6950 H 640.012 -1.31789 4.81075 0
M  V30 6951 H 639.166 -3.67353 4.82842 0
M  V30 6952 H 637.905 -3.25009 3.63621 0
M  V30 6953 H 636.91 -1.61104 5.25667 0
M  V30 6954 H 638.135 -2.06122 6.47063 0
M  V30 6955 H 636.081 -3.94065 5.24451 0
M  V30 6956 H 635.998 -3.24325 6.82898 0
M  V30 6957 H 637.266 -4.37166 6.45373 0
M  V30 6958 N 641.495 -1.56914 -0.146875 0
M  V30 6959 C 642.445 -1.94693 -1.18653 0
M  V30 6960 C 643.429 -0.81821 -1.38543 0
M  V30 6961 O 644.621 -1.08167 -1.40103 0
M  V30 6962 C 641.75 -2.33117 -2.52014 0
M  V30 6963 C 640.836 -3.5256 -2.35717 0
M  V30 6964 N 641.227 -4.69091 -1.89175 0
M  V30 6965 C 639.525 -3.57647 -2.66467 0
M  V30 6966 C 640.226 -5.51187 -1.85924 0
M  V30 6967 N 639.202 -4.92899 -2.29242 0
M  V30 6968 H 643.004 -2.82264 -0.81879 0
M  V30 6969 H 640.518 -1.58474 -0.354929 0
M  V30 6970 H 642.515 -2.58387 -3.27172 0
M  V30 6971 H 641.175 -1.46898 -2.89571 0
M  V30 6972 H 642.186 -4.92844 -1.59139 0
M  V30 6973 H 638.863 -2.81967 -3.07898 0
M  V30 6974 H 640.253 -6.54613 -1.51431 0
M  V30 6975 N 642.974 0.416227 -1.52004 0
M  V30 6976 C 643.937 1.48926 -1.74223 0
M  V30 6977 C 644.937 1.48693 -0.612119 0
M  V30 6978 O 646.127 1.50343 -0.879921 0
M  V30 6979 C 643.259 2.88372 -1.81809 0
M  V30 6980 H 644.452 1.3052 -2.70008 0
M  V30 6981 H 642.005 0.646271 -1.42313 0
M  V30 6982 H 642.74 3.12157 -0.879135 0
M  V30 6983 H 642.525 2.89944 -2.6396 0
M  V30 6984 H 644.015 3.66173 -2.00766 0
M  V30 6985 N 644.452 1.42507 0.673017 0
M  V30 6986 C 645.4 1.46362 1.80779 0
M  V30 6987 C 646.394 0.339166 1.6597 0
M  V30 6988 O 647.6 0.512262 1.72557 0
M  V30 6989 H 643.975 0.458433 0.596107 0
M  V30 6990 H 645.946 2.41953 1.74646 0
M  V30 6991 C 644.695 1.38462 3.18941 0
M  V30 6992 H 644.018 2.24283 3.30964 0
M  V30 6993 H 645.458 1.45221 3.98355 0
M  V30 6994 C 643.917 0.0996354 3.36753 0
M  V30 6995 O 644.447 -0.846894 3.92671 0
M  V30 6996 N 642.653 0.016211 2.90595 0
M  V30 6997 H 642.2 0.78725 2.45276 0
M  V30 6998 H 642.158 -0.84291 3.0289 0
M  V30 6999 N 645.93 -0.909495 1.28709 0
M  V30 7000 C 646.878 -2.03381 1.12866 0
M  V30 7001 C 647.872 -1.69335 0.0468074 0
M  V30 7002 O 649.078 -1.78819 0.205891 0
M  V30 7003 H 645.453 -0.666452 0.348348 0
M  V30 7004 H 647.424 -2.13885 2.08077 0
M  V30 7005 C 646.173 -3.38092 0.811742 0
M  V30 7006 H 645.496 -3.64786 1.63619 0
M  V30 7007 H 646.936 -4.17477 0.740869 0
M  V30 7008 C 645.395 -3.33395 -0.484679 0
M  V30 7009 O 645.925 -3.72089 -1.5137 0
M  V30 7010 N 644.131 -2.86491 -0.486961 0
M  V30 7011 H 643.678 -2.55199 0.350877 0
M  V30 7012 H 643.636 -2.83731 -1.3544 0
M  V30 7013 N 647.408 -1.11026 -1.11852 0
M  V30 7014 C 648.371 -0.768006 -2.1595 0
M  V30 7015 C 649.371 0.210538 -1.59416 0
M  V30 7016 O 650.561 -0.0133978 -1.74195 0
M  V30 7017 C 647.693 -0.138678 -3.40618 0
M  V30 7018 H 648.886 -1.69012 -2.4774 0
M  V30 7019 H 646.439 -0.911578 -1.26964 0
M  V30 7020 H 647.174 0.793872 -3.14433 0
M  V30 7021 H 646.959 -0.843012 -3.8293 0
M  V30 7022 H 648.449 0.0848039 -4.17514 0
M  V30 7023 N 648.886 1.2938 -0.899927 0
M  V30 7024 C 649.849 2.25983 -0.382677 0
M  V30 7025 C 650.849 1.53366 0.483259 0
M  V30 7026 O 652.039 1.71798 0.28828 0
M  V30 7027 C 649.171 3.37878 0.452915 0
M  V30 7028 H 650.364 2.73252 -1.23586 0
M  V30 7029 H 647.917 1.40825 -0.678088 0
M  V30 7030 H 648.652 2.95949 1.32608 0
M  V30 7031 H 648.437 3.91742 -0.167562 0
M  V30 7032 H 649.927 4.09746 0.806107 0
M  V30 7033 N 650.364 0.662433 1.43002 0
M  V30 7034 C 651.589 0.186003 2.06564 0
M  V30 7035 C 652.014 -1.14314 1.49379 0
M  V30 7036 O 651.372 -1.70824 0.607346 0
M  V30 7037 C 651.42 0.118269 3.60406 0
M  V30 7038 O 650.524 -0.916859 4.02079 0
M  V30 7039 H 649.865 0.0990981 0.656563 0
M  V30 7040 H 652.395 0.907958 1.8335 0
M  V30 7041 H 652.405 -0.0619981 4.07953 0
M  V30 7042 H 651.08 1.08849 4.01403 0
M  V30 7043 H 649.657 -0.708635 3.66105 0
M  V30 7044 N 651.842 -1.52309 0.404946 0
M  V30 7045 C 653.088 -2.02065 -0.172455 0
M  V30 7046 C 653.421 -1.29022 -1.45145 0
M  V30 7047 O 652.696 -0.395284 -1.90441 0
M  V30 7048 C 652.979 -3.5759 -0.424433 0
M  V30 7049 C 652.832 -4.41287 0.870945 0
M  V30 7050 C 654.151 -4.23186 -1.20837 0
M  V30 7051 H 651.27 -0.734454 -0.0612035 0
M  V30 7052 H 653.912 -1.82236 0.53759 0
M  V30 7053 H 652.062 -3.74617 -1.02929 0
M  V30 7054 H 653.734 -4.3598 1.50729 0
M  V30 7055 H 651.977 -4.07669 1.48284 0
M  V30 7056 H 652.648 -5.48171 0.649083 0
M  V30 7057 H 655.124 -4.10232 -0.696338 0
M  V30 7058 H 654 -5.31953 -1.35343 0
M  V30 7059 H 654.261 -3.81862 -2.22786 0
M  V30 7060 N 653.32 -0.135238 -1.57019 0
M  V30 7061 C 654.27 0.820408 -2.12728 0
M  V30 7062 C 655.254 1.21735 -1.05211 0
M  V30 7063 O 656.446 1.18574 -1.31413 0
M  V30 7064 C 653.575 2.06414 -2.74314 0
M  V30 7065 C 652.661 1.69083 -3.88937 0
M  V30 7066 N 653.052 1.0251 -4.95303 0
M  V30 7067 C 651.35 1.98434 -3.99425 0
M  V30 7068 C 652.051 0.846749 -5.75504 0
M  V30 7069 N 651.027 1.3769 -5.25873 0
M  V30 7070 H 654.829 0.302426 -2.9234 0
M  V30 7071 H 652.343 0.0667009 -1.62263 0
M  V30 7072 H 654.34 2.75863 -3.12579 0
M  V30 7073 H 653 2.58741 -1.96171 0
M  V30 7074 H 654.011 0.687207 -5.1332 0
M  V30 7075 H 650.688 2.52693 -3.32344 0
M  V30 7076 H 652.078 0.322949 -6.71123 0
M  V30 7077 N 654.798 1.5699 0.138552 0
M  V30 7078 C 656.214 1.51844 0.491472 0
M  V30 7079 C 656.414 0.845063 1.82923 0
M  V30 7080 O 655.47 0.419143 2.48997 0
M  V30 7081 C 656.783 2.96615 0.493987 0
M  V30 7082 C 658.331 3.076 0.578913 0
M  V30 7083 C 658.806 4.53893 0.612009 0
M  V30 7084 N 660.297 4.5827 0.673997 0
M  V30 7085 C 661.032 5.68852 0.720729 0
M  V30 7086 N 660.528 6.88982 0.726292 0
M  V30 7087 N 662.321 5.56908 0.762253 0
M  V30 7088 H 654.472 1.99158 -0.738228 0
M  V30 7089 H 656.735 0.908693 -0.270149 0
M  V30 7090 H 656.441 3.49172 -0.420933 0
M  V30 7091 H 656.315 3.53017 1.32887 0
M  V30 7092 H 658.702 2.55057 1.48425 0
M  V30 7093 H 658.783 2.54227 -0.283286 0
M  V30 7094 H 658.427 5.07076 -0.289208 0
M  V30 7095 H 658.357 5.05057 1.49082 0
M  V30 7096 H 660.848 3.71793 0.676654 0
M  V30 7097 H 661.161 7.69014 0.764032 0
M  V30 7098 H 659.506 6.91526 0.69403 0
M  V30 7099 H 662.697 4.61969 0.755135 0
M  V30 7100 H 662.87 6.43102 0.795207 0
M  V30 7101 N 656.276 -0.40816 1.52223 0
M  V30 7102 C 657.239 -1.48 1.7501 0
M  V30 7103 C 658.239 -1.48367 0.619996 0
M  V30 7104 O 659.429 -1.49874 0.887881 0
M  V30 7105 C 656.561 -2.87403 1.83336 0
M  V30 7106 H 657.754 -1.29086 2.70697 0
M  V30 7107 H 655.307 -0.638715 1.42654 0
M  V30 7108 H 656.042 -3.11686 0.895677 0
M  V30 7109 H 655.827 -2.8854 2.65494 0
M  V30 7110 H 657.317 -3.65103 2.02705 0
M  V30 7111 N 657.755 -1.42862 -0.66545 0
M  V30 7112 C 658.718 -1.46756 -1.76055 0
M  V30 7113 C 659.718 -0.353866 -1.56858 0
M  V30 7114 O 660.908 -0.615099 -1.62979 0
M  V30 7115 C 658.04 -1.30829 -3.14796 0
M  V30 7116 H 659.233 -2.44271 -1.73987 0
M  V30 7117 H 656.786 -1.29447 -0.875965 0
M  V30 7118 H 657.521 -0.342733 -3.22484 0
M  V30 7119 H 657.306 -2.11551 -3.30134 0
M  V30 7120 H 658.796 -1.36458 -3.94676 0
M  V30 7121 N 659.233 0.902656 -1.29189 0
M  V30 7122 C 660.143 2.03946 -1.15944 0
M  V30 7123 C 661.159 1.738 -0.0833803 0
M  V30 7124 O 662.335 1.9923 -0.29487 0
M  V30 7125 C 659.4 3.36519 -0.834006 0
M  V30 7126 C 658.461 3.80203 -1.9936 0
M  V30 7127 C 657.694 5.06449 -1.68359 0
M  V30 7128 O 657.917 5.67202 -0.603141 0
M  V30 7129 O 656.851 5.46114 -2.53067 0
M  V30 7130 H 660.677 2.18043 -2.11403 0
M  V30 7131 H 658.262 1.02584 -1.08613 0
M  V30 7132 H 660.144 4.16089 -0.666949 0
M  V30 7133 H 658.819 3.23573 0.0908245 0
M  V30 7134 H 657.726 3.01413 -2.21588 0
M  V30 7135 H 659.059 3.97729 -2.89952 0
M  V30 7136 N 660.711 1.11618 1.11262 0
M  V30 7137 C 661.936 0.889013 1.8738 0
M  V30 7138 C 662.361 -0.555884 1.79698 0
M  V30 7139 O 661.719 -1.39272 1.16073 0
M  V30 7140 C 661.767 1.35759 3.34069 0
M  V30 7141 O 660.871 0.530499 4.08974 0
M  V30 7142 H 660.212 0.320082 0.581759 0
M  V30 7143 H 662.742 1.48611 1.40627 0
M  V30 7144 H 662.752 1.35291 3.84916 0
M  V30 7145 H 661.427 2.40973 3.38976 0
M  V30 7146 H 660.004 0.601439 3.68018 0
M  V30 7147 N 662.189 -1.289 0.906776 0
M  V30 7148 C 663.429 -1.97046 0.543329 0
M  V30 7149 C 663.793 -1.69862 -0.895034 0
M  V30 7150 O 664.994 -2.31521 -1.36571 0
M  V30 7151 C 663.265 -3.47489 0.835833 0
M  V30 7152 S 664.824 -4.3498 0.577756 0
M  V30 7153 H 661.642 -0.681908 0.201302 0
M  V30 7154 H 664.244 -1.5657 1.17073 0
M  V30 7155 H 662.948 -3.64768 1.88075 0
M  V30 7156 H 662.479 -3.92907 0.196817 0
M  V30 7157 H 664.494 -4.92868 -0.574052 0
M  V30 7158 N 663.667 -0.670007 -1.42649 0
M  V30 7159 C 664.916 -0.187526 -2.00826 0
M  V30 7160 C 665.229 1.21142 -1.53571 0
M  V30 7161 O 666.435 1.79001 -2.04134 0
M  V30 7162 C 664.891 -0.284409 -3.58774 0
M  V30 7163 C 664.499 -1.6871 -4.15019 0
M  V30 7164 C 666.243 0.139605 -4.2427 0
M  V30 7165 C 664.15 -1.73701 -5.65316 0
M  V30 7166 H 663.08 -0.0663468 -0.751075 0
M  V30 7167 H 665.731 -0.834492 -1.63427 0
M  V30 7168 H 664.113 0.430364 -3.93655 0
M  V30 7169 H 665.287 -2.42857 -3.91608 0
M  V30 7170 H 663.602 -2.05855 -3.61957 0
M  V30 7171 H 666.199 0.122398 -5.3456 0
M  V30 7172 H 666.542 1.17403 -3.99402 0
M  V30 7173 H 667.075 -0.523995 -3.94334 0
M  V30 7174 H 663.814 -2.75109 -5.94975 0
M  V30 7175 H 663.334 -1.03903 -5.90732 0
M  V30 7176 H 665.013 -1.48829 -6.2965 0
M  V30 7177 N 665.145 1.52092 -0.413018 0
M  V30 7178 C 666.092 2.27119 0.410558 0
M  V30 7179 C 667.062 1.29692 1.03774 0
M  V30 7180 O 668.247 1.58561 1.06128 0
M  V30 7181 C 665.387 3.09863 1.51918 0
M  V30 7182 C 664.5 4.22252 0.912528 0
M  V30 7183 C 663.635 4.92348 1.99417 0
M  V30 7184 C 662.674 5.96694 1.36466 0
M  V30 7185 N 661.811 6.60292 2.38661 0
M  V30 7186 H 666.651 2.97067 -0.235661 0
M  V30 7187 H 664.188 1.46542 -0.128055 0
M  V30 7188 H 666.146 3.56144 2.17295 0
M  V30 7189 H 664.776 2.42078 2.13537 0
M  V30 7190 H 663.828 3.80113 0.147697 0
M  V30 7191 H 665.14 4.9709 0.412717 0
M  V30 7192 H 664.294 5.42054 2.72512 0
M  V30 7193 H 663.033 4.17087 2.52764 0
M  V30 7194 H 662.038 5.46304 0.61906 0
M  V30 7195 H 663.263 6.73899 0.838827 0
M  V30 7196 H 661.209 5.87858 2.91134 0
M  V30 7197 H 661.126 7.30816 1.93503 0
M  V30 7198 H 662.394 7.14635 3.11314 0
M  V30 7199 N 666.623 0.143563 1.56945 0
M  V30 7200 C 667.848 -0.518701 2.00809 0
M  V30 7201 C 668.273 -1.5785 1.02298 0
M  V30 7202 O 667.631 -1.813 -0.0017839 0
M  V30 7203 C 667.679 -1.09929 3.43436 0
M  V30 7204 O 666.783 -2.21425 3.47915 0
M  V30 7205 H 666.124 -0.127215 0.6517 0
M  V30 7206 H 668.654 0.239283 2.03196 0
M  V30 7207 H 668.664 -1.4288 3.82164 0
M  V30 7208 H 667.339 -0.323162 4.14643 0
M  V30 7209 H 665.916 -1.89728 3.21026 0
M  V30 7210 N 668.101 -1.57061 -0.130224 0
M  V30 7211 C 669.329 -1.88432 -0.854456 0
M  V30 7212 C 669.744 -0.733608 -1.73964 0
M  V30 7213 O 669.101 0.296029 -1.80083 0
M  V30 7214 C 669.152 -3.1918 -1.69724 0
M  V30 7215 O 668.873 -4.2982 -0.847705 0
M  V30 7216 C 670.374 -3.6418 -2.5276 0
M  V30 7217 H 667.594 -0.624193 -0.246221 0
M  V30 7218 H 670.138 -2.04159 -0.11798 0
M  V30 7219 H 668.293 -3.05156 -2.3866 0
M  V30 7220 H 668.707 -5.04689 -1.42792 0
M  V30 7221 H 670.181 -4.58457 -3.07443 0
M  V30 7222 H 670.658 -2.90285 -3.29592 0
M  V30 7223 H 671.264 -3.80954 -1.89087 0
M  V30 7224 N 669.579 0.400081 -1.52437 0
M  V30 7225 C 670.825 1.14788 -1.67187 0
M  V30 7226 C 671.158 1.89928 -0.405074 0
M  V30 7227 O 670.433 1.85118 0.596804 0
M  V30 7228 C 670.716 2.13507 -2.89977 0
M  V30 7229 C 670.569 1.42204 -4.2673 0
M  V30 7230 C 671.888 3.14069 -3.083 0
M  V30 7231 H 669.007 0.415939 -0.608411 0
M  V30 7232 H 671.649 0.432542 -1.85011 0
M  V30 7233 H 669.799 2.7451 -2.74912 0
M  V30 7234 H 671.471 0.842503 -4.53541 0
M  V30 7235 H 669.714 0.723939 -4.27717 0
M  V30 7236 H 670.385 2.14281 -5.08712 0
M  V30 7237 H 672.861 2.63148 -3.22323 0
M  V30 7238 H 671.737 3.80398 -3.95713 0
M  V30 7239 H 671.998 3.82309 -2.22018 0
M  V30 7240 N 671.057 1.43213 0.657864 0
M  V30 7241 C 672.004 1.48011 1.77092 0
M  V30 7242 C 672.974 0.330291 1.62783 0
M  V30 7243 O 674.159 0.536787 1.83094 0
M  V30 7244 C 671.299 1.40461 3.15222 0
M  V30 7245 C 670.412 2.65612 3.40697 0
M  V30 7246 C 669.547 2.50083 4.68649 0
M  V30 7247 C 668.586 3.70525 4.87214 0
M  V30 7248 N 667.723 3.53835 6.0642 0
M  V30 7249 H 672.563 2.43121 1.72326 0
M  V30 7250 H 670.1 1.20687 0.841013 0
M  V30 7251 H 672.058 1.34079 3.95068 0
M  V30 7252 H 670.688 0.489359 3.19069 0
M  V30 7253 H 669.74 2.82292 2.54982 0
M  V30 7254 H 671.052 3.5509 3.50303 0
M  V30 7255 H 670.206 2.41383 5.56614 0
M  V30 7256 H 668.945 1.58121 4.61356 0
M  V30 7257 H 667.95 3.79639 3.97686 0
M  V30 7258 H 669.175 4.63489 4.96341 0
M  V30 7259 H 667.121 2.64604 6.00267 0
M  V30 7260 H 667.038 4.36912 6.16963 0
M  V30 7261 H 668.306 3.48978 6.97019 0
M  V30 7262 N 672.536 -0.895792 1.29666 0
M  V30 7263 C 673.785 -1.64131 1.17234 0
M  V30 7264 C 674.098 -1.93665 -0.274416 0
M  V30 7265 O 675.304 -2.66472 -0.520105 0
M  V30 7266 C 673.76 -2.95764 2.05065 0
M  V30 7267 C 673.368 -2.7381 3.54587 0
M  V30 7268 C 675.112 -3.737 2.01367 0
M  V30 7269 C 673.019 -4.01194 4.34508 0
M  V30 7270 H 671.949 -0.615742 0.435175 0
M  V30 7271 H 674.6 -0.992626 1.54335 0
M  V30 7272 H 672.982 -3.61867 1.60837 0
M  V30 7273 H 674.156 -2.16277 4.06892 0
M  V30 7274 H 672.471 -2.09265 3.59996 0
M  V30 7275 H 675.068 -4.68152 2.58337 0
M  V30 7276 H 675.411 -4.04245 0.994575 0
M  V30 7277 H 675.944 -3.14444 2.43659 0
M  V30 7278 H 672.683 -3.75813 5.37071 0
M  V30 7279 H 672.203 -4.58272 3.86971 0
M  V30 7280 H 673.882 -4.69307 4.45376 0
M  V30 7281 N 674.014 -1.12206 -1.10668 0
M  V30 7282 C 674.977 -0.790867 -2.15123 0
M  V30 7283 C 675.977 0.193618 -1.5963 0
M  V30 7284 O 677.167 -0.0318728 -1.74171 0
M  V30 7285 C 674.299 -0.174797 -3.40452 0
M  V30 7286 H 675.492 -1.7163 -2.45933 0
M  V30 7287 H 673.045 -0.924993 -1.2599 0
M  V30 7288 H 673.78 0.760478 -3.15257 0
M  V30 7289 H 673.565 -0.88358 -3.82015 0
M  V30 7290 H 675.055 0.0405162 -4.1758 0
M  V30 7291 N 675.492 1.28418 -0.913599 0
M  V30 7292 C 676.439 2.27301 -0.400373 0
M  V30 7293 C 677.409 1.57582 0.52509 0
M  V30 7294 O 678.594 1.85482 0.447318 0
M  V30 7295 C 675.734 3.43284 0.35361 0
M  V30 7296 C 674.847 4.27752 -0.604341 0
M  V30 7297 C 673.982 5.30934 0.168075 0
M  V30 7298 C 673.021 6.07065 -0.783499 0
M  V30 7299 N 672.158 7.02086 -0.0446112 0
M  V30 7300 H 676.998 2.70579 -1.24865 0
M  V30 7301 H 674.535 1.33067 -0.627028 0
M  V30 7302 H 676.493 4.09322 0.806945 0
M  V30 7303 H 675.123 3.00997 1.16623 0
M  V30 7304 H 674.175 3.61759 -1.17621 0
M  V30 7305 H 675.487 4.80682 -1.33216 0
M  V30 7306 H 674.641 6.02855 0.681979 0
M  V30 7307 H 673.38 4.78771 0.928947 0
M  V30 7308 H 672.385 5.33995 -1.30878 0
M  V30 7309 H 673.61 6.61317 -1.54392 0
M  V30 7310 H 671.556 6.52273 0.698272 0
M  V30 7311 H 671.473 7.52637 -0.712258 0
M  V30 7312 H 672.741 7.78205 0.449102 0
M  V30 7313 N 676.97 0.677563 1.42291 0
M  V30 7314 C 678.216 0.201272 2.01799 0
M  V30 7315 C 678.549 -1.19004 1.53465 0
M  V30 7316 O 677.824 -1.79953 0.738039 0
M  V30 7317 C 678.107 0.238968 3.59306 0
M  V30 7318 C 677.96 1.66594 4.17812 0
M  V30 7319 C 679.279 -0.411287 4.38174 0
M  V30 7320 H 676.398 0.0746114 0.733214 0
M  V30 7321 H 679.04 0.862872 1.69276 0
M  V30 7322 H 677.19 -0.324368 3.87144 0
M  V30 7323 H 678.862 2.28173 4.00917 0
M  V30 7324 H 677.105 2.20576 3.73536 0
M  V30 7325 H 677.776 1.64398 5.26951 0
M  V30 7326 H 680.252 0.0682804 4.16044 0
M  V30 7327 H 679.128 -0.354286 5.47755 0
M  V30 7328 H 679.389 -1.4893 4.1626 0
M  V30 7329 N 678.448 -1.51871 0.421078 0
M  V30 7330 C 679.676 -2.06356 -0.14994 0
M  V30 7331 C 680.091 -1.29006 -1.37851 0
M  V30 7332 O 679.448 -0.345139 -1.79207 0
M  V30 7333 C 679.499 -3.58185 -0.488454 0
M  V30 7334 O 679.22 -4.32611 0.691341 0
M  V30 7335 C 680.721 -4.29129 -1.11191 0
M  V30 7336 H 677.941 -0.67083 -0.0151186 0
M  V30 7337 H 680.485 -1.95638 0.595476 0
M  V30 7338 H 678.64 -3.68871 -1.18376 0
M  V30 7339 H 679.054 -5.22927 0.405906 0
M  V30 7340 H 680.528 -5.36501 -1.29889 0
M  V30 7341 H 681.005 -3.86371 -2.0884 0
M  V30 7342 H 681.611 -4.22843 -0.456458 0
M  V30 7343 N 679.926 -0.151884 -1.56866 0
M  V30 7344 C 680.859 0.824094 -2.128 0
M  V30 7345 C 681.837 1.2391 -1.05286 0
M  V30 7346 O 683.021 1.33433 -1.33146 0
M  V30 7347 C 680.148 2.1072 -2.65169 0
M  V30 7348 C 679.194 1.83774 -3.84876 0
M  V30 7349 S 680.027 1.02436 -5.25611 0
M  V30 7350 C 681.183 2.31855 -5.81373 0
M  V30 7351 H 681.416 0.348456 -2.95251 0
M  V30 7352 H 678.949 0.0624794 -1.54274 0
M  V30 7353 H 680.907 2.84428 -2.95992 0
M  V30 7354 H 679.568 2.55398 -1.8284 0
M  V30 7355 H 678.761 2.78929 -4.19779 0
M  V30 7356 H 678.363 1.18172 -3.5484 0
M  V30 7357 H 680.655 3.27469 -5.93102 0
M  V30 7358 H 681.598 2.01449 -6.7884 0
M  V30 7359 H 682.006 2.42727 -5.09651 0
M  V30 7360 N 681.404 1.57128 0.121893 0
M  V30 7361 C 682.629 1.89254 0.848385 0
M  V30 7362 C 683.054 0.743527 1.72781 0
M  V30 7363 O 682.412 -0.306056 1.78698 0
M  V30 7364 C 682.46 3.20113 1.66012 0
M  V30 7365 O 681.564 3.05815 2.76679 0
M  V30 7366 H 680.905 0.621103 0.234793 0
M  V30 7367 H 683.435 2.0433 0.10516 0
M  V30 7368 H 683.445 3.52761 2.04996 0
M  V30 7369 H 682.12 4.03336 1.01452 0
M  V30 7370 H 680.697 2.84627 2.40918 0
M  V30 7371 N 682.882 -0.391992 1.52647 0
M  V30 7372 C 684.128 -1.139 1.67793 0
M  V30 7373 C 684.461 -1.89711 0.41514 0
M  V30 7374 O 683.736 -1.85431 -0.586979 0
M  V30 7375 C 684.019 -2.11966 2.91105 0
M  V30 7376 C 683.872 -1.39939 4.27478 0
M  V30 7377 C 685.191 -3.1243 3.09961 0
M  V30 7378 H 682.31 -0.412707 0.610608 0
M  V30 7379 H 684.952 -0.422725 1.85238 0
M  V30 7380 H 683.102 -2.73048 2.76364 0
M  V30 7381 H 684.774 -0.818439 4.53982 0
M  V30 7382 H 683.017 -0.701246 4.28095 0
M  V30 7383 H 683.688 -2.1158 5.09841 0
M  V30 7384 H 686.164 -2.61435 3.23714 0
M  V30 7385 H 685.04 -3.78294 3.97725 0
M  V30 7386 H 685.301 -3.81127 2.24042 0
M  V30 7387 N 684.36 -1.4356 -0.65026 0
M  V30 7388 C 685.585 -1.48995 -1.44275 0
M  V30 7389 C 686.01 -0.109954 -1.87778 0
M  V30 7390 O 685.368 0.896926 -1.57559 0
M  V30 7391 C 685.416 -2.44341 -2.65198 0
M  V30 7392 O 684.52 -1.93172 -3.6436 0
M  V30 7393 H 683.861 -0.503852 -0.432469 0
M  V30 7394 H 686.391 -1.88504 -0.795446 0
M  V30 7395 H 686.401 -2.61743 -3.12977 0
M  V30 7396 H 685.076 -3.44588 -2.32877 0
M  V30 7397 H 683.653 -1.85445 -3.23519 0
M  V30 7398 N 685.838 0.888903 -1.30139 0
M  V30 7399 C 687.066 1.67358 -1.21651 0
M  V30 7400 C 687.481 1.87499 0.221246 0
M  V30 7401 O 686.838 1.41969 1.14677 0
M  V30 7402 C 686.889 3.05213 -1.93719 0
M  V30 7403 O 686.61 2.85984 -3.31881 0
M  V30 7404 C 688.111 3.9964 -1.9184 0
M  V30 7405 H 685.331 0.522365 -0.42116 0
M  V30 7406 H 687.875 1.11086 -1.71698 0
M  V30 7407 H 686.03 3.5823 -1.4748 0
M  V30 7408 H 686.444 3.73411 -3.68327 0
M  V30 7409 H 687.918 4.93749 -2.46811 0
M  V30 7410 H 688.395 4.29955 -0.896409 0
M  V30 7411 H 689.001 3.52558 -2.37872 0
M  V30 7412 N 687.317 1.12792 1.10072 0
M  V30 7413 C 688.594 0.796867 1.78632 0
M  V30 7414 C 688.974 -0.712739 1.98704 0
M  V30 7415 O 688.322 -1.64773 1.5831 0
M  V30 7416 C 688.532 1.57622 3.11378 0
M  V30 7417 C 689.88 1.76463 3.86194 0
M  V30 7418 O 690.904 1.54165 3.2111 0
M  V30 7419 O 689.763 2.13623 5.03018 0
M  V30 7420 H 686.857 0.290248 0.774394 0
M  V30 7421 H 689.403 1.23215 1.16688 0
M  V30 7422 H 688.175 2.60246 2.92212 0
M  V30 7423 H 687.798 1.13543 3.81043 0
M  V30 7424 N 688.795 -1.27931 0.920396 0
M  V30 7425 C 690.023 -1.98805 0.573087 0
M  V30 7426 C 690.438 -1.68724 -0.847201 0
M  V30 7427 O 689.795 -0.943699 -1.56207 0
M  V30 7428 C 689.846 -3.52971 0.780633 0
M  V30 7429 O 689.567 -3.81994 2.14504 0
M  V30 7430 C 691.068 -4.411 0.44105 0
M  V30 7431 H 688.288 -0.634651 0.21785 0
M  V30 7432 H 690.832 -1.62965 1.23542 0
M  V30 7433 H 688.987 -3.87048 0.165204 0
M  V30 7434 H 689.401 -4.76609 2.18962 0
M  V30 7435 H 690.875 -5.48312 0.637006 0
M  V30 7436 H 691.352 -4.34758 -0.62306 0
M  V30 7437 H 691.958 -4.12532 1.0343 0
M  V30 7438 N 690.273 -0.685099 -1.4193 0
M  V30 7439 C 691.498 -0.218842 -2.06242 0
M  V30 7440 C 691.923 1.11923 -1.51178 0
M  V30 7441 O 691.281 1.69837 -0.634446 0
M  V30 7442 C 691.329 -0.175592 -3.60172 0
M  V30 7443 O 690.433 0.852776 -4.03487 0
M  V30 7444 H 689.774 -0.109531 -0.654904 0
M  V30 7445 H 692.304 -0.937013 -1.81882 0
M  V30 7446 H 692.314 -0.00291151 -4.08 0
M  V30 7447 H 690.989 -1.15222 -3.99621 0
M  V30 7448 H 689.566 0.650301 -3.67186 0
M  V30 7449 N 691.751 1.51645 -0.429126 0
M  V30 7450 C 692.714 2.26116 0.374726 0
M  V30 7451 C 693.714 1.29242 0.956714 0
M  V30 7452 O 694.904 1.53022 0.832452 0
M  V30 7453 C 692.036 3.04669 1.52937 0
M  V30 7454 H 693.229 2.9861 -0.277818 0
M  V30 7455 H 690.782 1.55236 -0.182097 0
M  V30 7456 H 691.517 2.36571 2.21821 0
M  V30 7457 H 691.302 3.75814 1.11833 0
M  V30 7458 H 692.792 3.61102 2.09751 0
M  V30 7459 N 693.229 0.160201 1.56784 0
M  V30 7460 C 694.139 -0.787167 2.21 0
M  V30 7461 C 695.155 -1.26167 1.19825 0
M  V30 7462 O 696.331 -1.31611 1.52448 0
M  V30 7463 C 693.396 -2.00364 2.8294 0
M  V30 7464 C 692.457 -1.5771 3.99282 0
M  V30 7465 C 691.69 -2.73558 4.58259 0
M  V30 7466 O 691.913 -3.90129 4.16119 0
M  V30 7467 O 690.847 -2.48271 5.48311 0
M  V30 7468 H 694.673 -0.270462 3.02493 0
M  V30 7469 H 692.258 -0.0674666 1.49248 0
M  V30 7470 H 694.14 -2.71529 3.22257 0
M  V30 7471 H 692.815 -2.50961 2.04451 0
M  V30 7472 H 691.722 -0.835274 3.64656 0
M  V30 7473 H 693.055 -1.11815 4.79331 0
M  V30 7474 N 694.707 -1.5719 -0.113559 0
M  V30 7475 C 695.67 -1.99796 -1.12314 0
M  V30 7476 C 696.67 -0.888847 -1.34001 0
M  V30 7477 O 697.86 -1.15476 -1.30426 0
M  V30 7478 C 694.992 -2.34279 -2.47641 0
M  V30 7479 H 696.185 -2.90193 -0.756825 0
M  V30 7480 H 693.738 -1.52144 -0.358029 0
M  V30 7481 H 694.473 -1.46778 -2.89183 0
M  V30 7482 H 694.258 -3.15175 -2.33253 0
M  V30 7483 H 695.748 -2.67963 -3.2029 0
M  V30 7484 N 696.185 0.383891 -1.52853 0
M  V30 7485 C 697.115 1.47559 -1.80965 0
M  V30 7486 C 698.096 1.5669 -0.661986 0
M  V30 7487 O 699.281 1.71556 -0.910072 0
M  V30 7488 C 696.411 2.85114 -1.98312 0
M  V30 7489 C 695.365 2.9082 -3.14019 0
M  V30 7490 C 694.691 4.30873 -3.16627 0
M  V30 7491 C 695.991 2.60001 -4.52986 0
M  V30 7492 H 697.685 1.24283 -2.72386 0
M  V30 7493 H 695.231 0.596445 -1.31067 0
M  V30 7494 H 697.184 3.61496 -2.16561 0
M  V30 7495 H 695.908 3.09738 -1.03585 0
M  V30 7496 H 694.567 2.16886 -2.9556 0
M  V30 7497 H 694.215 4.52545 -2.19573 0
M  V30 7498 H 693.915 4.3561 -3.94357 0
M  V30 7499 H 695.439 5.09154 -3.37038 0
M  V30 7500 H 696.853 3.261 -4.71521 0
M  V30 7501 H 695.25 2.76081 -5.32822 0
M  V30 7502 H 696.32 1.5532 -4.59351 0
M  V30 7503 O 697.702 1.52561 0.529841 0
M  V30 7504 H 698.393 1.53227 1.18495 0
M  V30 END ATOM
M  V30 BEGIN BOND
M  V30 END BOND
M  V30 END CTAB
M  END
$$$$
