drugbank_target|P01178 Oxytocin-neurophysin 1 (DB00107)
 OpenBabel12092119393D

  0  0  0     0  0            999 V3000
M  V30 BEGIN CTAB
M  V30 COUNTS 1726 1741 0 0 0
M  V30 BEGIN ATOM
M  V30 1 H -0.908 1.98254 -0.117106 0
M  V30 2 N 0 1.576 0 0
M  V30 3 C 0.933 2.03868 1.02534 0
M  V30 4 C 1.911 0.928543 1.3348 0
M  V30 5 O 3.095 1.19667 1.45644 0
M  V30 6 C 0.222 2.43627 2.35294 0
M  V30 7 C -0.732 3.65373 2.2001 0
M  V30 8 S 0.101 5.13292 1.52614 0
M  V30 9 C 1.257 5.56322 2.86805 0
M  V30 10 H 1.49 2.90518 0.631377 0
M  V30 11 H -0.977 1.52953 0.210867 0
M  V30 12 H 0.981 2.67203 3.11629 0
M  V30 13 H -0.358 1.57376 2.7183 0
M  V30 14 H -1.165 3.90944 3.18086 0
M  V30 15 H -1.563 3.418 1.51819 0
M  V30 16 H 0.729 5.58782 3.83104 0
M  V30 17 H 1.672 6.56266 2.65933 0
M  V30 18 H 2.08 4.83886 2.90714 0
M  V30 19 N 1.4781 -0.272755 1.55222 0
M  V30 20 C 2.4411 -1.32041 1.87344 0
M  V30 21 C 3.4411 -1.42342 0.74803 0
M  V30 22 O 4.6311 -1.41488 1.0162 0
M  V30 23 C 1.7631 -2.70173 2.07893 0
M  V30 24 H 2.9561 -1.04789 2.80997 0
M  V30 25 H 0.5091 -0.51083 1.47717 0
M  V30 26 H 1.2441 -3.02605 1.16622 0
M  V30 27 H 1.0291 -2.64082 2.89833 0
M  V30 28 H 2.5191 -3.45869 2.34017 0
M  V30 29 N 2.9562 -1.48159 -0.537278 0
M  V30 30 C 4.2042 -1.55497 -1.29094 0
M  V30 31 C 4.5252 -0.227454 -1.93669 0
M  V30 32 O 3.7952 0.750386 -1.80959 0
M  V30 33 H 2.3752 -0.572832 -0.47945 0
M  V30 34 H 5.0372 -1.84579 -0.625818 0
M  V30 35 H 4.1332 -2.33216 -2.07405 0
M  V30 36 N 4.4343 0.785586 -1.36625 0
M  V30 37 C 5.8453 1.36101 -1.27803 0
M  V30 38 C 6.1963 1.96035 0.0804875 0
M  V30 39 O 5.3213 1.92834 0.982042 0
M  V30 40 C 5.9163 2.47442 -2.31426 0
M  V30 41 C 4.4753 3.00789 -2.26281 0
M  V30 42 C 3.6223 1.73896 -2.15999 0
M  V30 43 H 6.5733 0.586928 -1.47448 0
M  V30 44 H 6.5943 3.2656 -1.95291 0
M  V30 45 H 6.1063 2.03791 -3.30289 0
M  V30 46 H 4.2073 3.48851 -1.30896 0
M  V30 47 H 4.3203 3.57343 -3.19128 0
M  V30 48 H 2.6843 1.9628 -1.62316 0
M  V30 49 H 3.4673 1.32368 -3.16755 0
M  V30 50 N 5.9124 1.20967 1.01018 0
M  V30 51 C 7.1374 1.0503 1.78839 0
M  V30 52 C 7.5624 -0.395752 1.8389 0
M  V30 53 O 6.9204 -1.28529 1.27867 0
M  V30 54 C 6.9684 1.64602 3.2084 0
M  V30 55 O 6.0724 0.887988 4.02726 0
M  V30 56 H 5.4134 0.369987 0.551367 0
M  V30 57 H 7.9434 1.60399 1.27018 0
M  V30 58 H 7.9534 1.68607 3.71532 0
M  V30 59 H 6.6284 2.69841 3.16479 0
M  V30 60 H 5.2054 0.922648 3.61305 0
M  V30 61 N 7.3905 -1.2043 1.01659 0
M  V30 62 C 8.3205 -2.25466 0.607226 0
M  V30 63 C 9.3015 -1.65853 -0.377716 0
M  V30 64 O 10.4865 -1.92409 -0.263149 0
M  V30 65 C 7.6165 -3.47256 -0.0552949 0
M  V30 66 C 6.5705 -4.19462 0.850632 0
M  V30 67 C 5.8965 -5.34673 0.0538859 0
M  V30 68 C 7.1965 -4.75603 2.15868 0
M  V30 69 H 8.8905 -2.59962 1.48526 0
M  V30 70 H 6.4365 -1.2496 0.715605 0
M  V30 71 H 8.3895 -4.19917 -0.353233 0
M  V30 72 H 7.1135 -3.11924 -0.968045 0
M  V30 73 H 5.7725 -3.48667 1.13257 0
M  V30 74 H 5.4205 -4.95585 -0.860514 0
M  V30 75 H 5.1205 -5.83913 0.657192 0
M  V30 76 H 6.6445 -6.10138 -0.237598 0
M  V30 77 H 8.0585 -5.40083 1.92311 0
M  V30 78 H 6.4555 -5.3528 2.71284 0
M  V30 79 H 7.5255 -3.94346 2.82169 0
M  V30 80 N 8.8686 -0.792821 -1.36206 0
M  V30 81 C 9.8316 -0.199459 -2.2833 0
M  V30 82 C 10.8316 0.605189 -1.48977 0
M  V30 83 O 12.0216 0.425685 -1.68919 0
M  V30 84 C 9.1536 0.723523 -3.33134 0
M  V30 85 H 10.3466 -1.01181 -2.82316 0
M  V30 86 H 7.8996 -0.562485 -1.45828 0
M  V30 87 H 8.6346 1.56008 -2.84309 0
M  V30 88 H 8.4196 0.148436 -3.91819 0
M  V30 89 H 9.9096 1.13344 -4.01924 0
M  V30 90 N 10.3467 1.47872 -0.545128 0
M  V30 91 C 11.5867 2.04391 -0.0187854 0
M  V30 92 C 11.9507 1.41162 1.30144 0
M  V30 93 O 13.1517 1.88656 1.91474 0
M  V30 94 C 11.4227 3.57299 0.0850867 0
M  V30 95 S 12.9817 4.35221 0.559302 0
M  V30 96 H 9.7997 0.710737 -0.0193301 0
M  V30 97 H 12.4017 1.81395 -0.729125 0
M  V30 98 H 11.1057 4.00847 -0.880351 0
M  V30 99 H 10.6367 3.84773 0.819348 0
M  V30 100 H 12.6517 4.61571 1.82118 0
M  V30 101 N 11.8248 0.280983 1.55075 0
M  V30 102 C 13.0648 -0.335234 2.01632 0
M  V30 103 C 13.4288 -1.5261 1.16508 0
M  V30 104 O 14.6298 -2.21235 1.52672 0
M  V30 105 C 12.9008 -0.702172 3.50434 0
M  V30 106 S 14.4598 -1.30409 4.18974 0
M  V30 107 H 11.2778 -0.103967 0.703358 0
M  V30 108 H 13.8798 0.404187 1.91276 0
M  V30 109 H 12.5838 0.17333 4.10034 0
M  V30 110 H 12.1148 -1.4729 3.64786 0
M  V30 111 H 14.1298 -2.59253 4.23087 0
M  V30 112 N 13.3029 -1.57598 0.00835791 0
M  V30 113 C 14.2329 -2.1198 -0.979113 0
M  V30 114 C 15.2139 -1.03091 -1.35301 0
M  V30 115 O 16.3989 -1.30818 -1.43528 0
M  V30 116 C 13.5289 -2.62995 -2.26828 0
M  V30 117 C 12.4829 -3.76485 -2.03576 0
M  V30 118 C 11.8089 -4.13846 -3.38579 0
M  V30 119 C 13.1089 -5.0342 -1.39161 0
M  V30 120 H 14.8029 -2.94738 -0.526281 0
M  V30 121 H 12.3489 -1.41783 -0.251704 0
M  V30 122 H 14.3019 -2.99669 -2.96271 0
M  V30 123 H 13.0259 -1.7737 -2.7424 0
M  V30 124 H 11.6849 -3.40217 -1.36557 0
M  V30 125 H 11.3329 -3.25232 -3.83709 0
M  V30 126 H 11.0329 -4.90312 -3.23834 0
M  V30 127 H 12.5569 -4.53086 -4.09323 0
M  V30 128 H 13.9709 -5.37812 -1.98573 0
M  V30 129 H 12.3679 -5.84746 -1.34878 0
M  V30 130 H 13.4379 -4.83548 -0.361868 0
M  V30 131 N 14.781 0.264519 -1.55364 0
M  V30 132 C 15.711 1.33121 -1.91836 0
M  V30 133 C 16.692 1.51101 -0.781192 0
M  V30 134 O 17.877 1.64003 -1.04003 0
M  V30 135 C 15.007 2.68921 -2.19769 0
M  V30 136 C 13.961 2.65661 -3.35571 0
M  V30 137 C 13.287 4.05093 -3.49004 0
M  V30 138 C 14.587 2.24187 -4.71739 0
M  V30 139 H 16.281 1.02844 -2.81182 0
M  V30 140 H 13.827 0.493286 -1.35287 0
M  V30 141 H 15.78 3.43663 -2.43872 0
M  V30 142 H 14.504 3.00799 -1.27231 0
M  V30 143 H 13.163 1.93377 -3.1145 0
M  V30 144 H 12.811 4.34206 -2.53917 0
M  V30 145 H 12.511 4.03804 -4.26868 0
M  V30 146 H 14.035 4.81561 -3.75408 0
M  V30 147 H 15.449 2.88654 -4.9533 0
M  V30 148 H 13.846 2.34044 -5.52579 0
M  V30 149 H 14.916 1.19327 -4.69988 0
M  V30 150 N 16.2591 1.48442 0.529413 0
M  V30 151 C 17.5071 1.56179 1.28267 0
M  V30 152 C 17.8281 0.237721 1.93546 0
M  V30 153 O 17.0981 -0.740779 1.81354 0
M  V30 154 H 15.6781 0.575367 0.476405 0
M  V30 155 H 18.3401 1.84909 0.61602 0
M  V30 156 H 17.4361 2.34312 2.06165 0
M  V30 157 N 17.7372 -0.778329 1.37039 0
M  V30 158 C 18.6672 -1.90546 1.34962 0
M  V30 159 C 19.6482 -1.68681 0.219274 0
M  V30 160 O 20.8332 -1.89634 0.418624 0
M  V30 161 C 17.9632 -3.27734 1.14925 0
M  V30 162 C 16.9172 -3.64147 2.24902 0
M  V30 163 C 16.2432 -4.99806 1.89996 0
M  V30 164 C 17.5432 -3.71579 3.67051 0
M  V30 165 H 19.2372 -1.92541 2.29277 0
M  V30 166 H 16.7832 -0.924948 1.10366 0
M  V30 167 H 18.7362 -4.06215 1.12104 0
M  V30 168 H 17.4602 -3.26154 0.170631 0
M  V30 169 H 16.1192 -2.8797 2.26868 0
M  V30 170 H 15.7672 -4.94759 0.906796 0
M  V30 171 H 15.4672 -5.25139 2.63634 0
M  V30 172 H 16.9912 -5.80694 1.88749 0
M  V30 173 H 18.4052 -4.40227 3.67251 0
M  V30 174 H 16.8022 -4.08405 4.39688 0
M  V30 175 H 17.8722 -2.72404 4.01154 0
M  V30 176 N 19.2153 -1.21501 -1.00376 0
M  V30 177 C 20.1453 -0.999478 -2.11028 0
M  V30 178 C 21.1263 0.0759671 -1.6993 0
M  V30 179 O 22.3113 -0.0841106 -1.94018 0
M  V30 180 C 19.4413 -0.564709 -3.42678 0
M  V30 181 C 18.3953 -1.58486 -3.97576 0
M  V30 182 C 17.7213 -1.00628 -5.25146 0
M  V30 183 C 19.0213 -2.97204 -4.29496 0
M  V30 184 H 20.7153 -1.92495 -2.29317 0
M  V30 185 H 18.2613 -0.92693 -1.102 0
M  V30 186 H 20.2143 -0.401091 -4.19487 0
M  V30 187 H 18.9383 0.396411 -3.24185 0
M  V30 188 H 17.5973 -1.73606 -3.22888 0
M  V30 189 H 17.2453 -0.0368439 -5.02987 0
M  V30 190 H 16.9453 -1.68771 -5.62841 0
M  V30 191 H 18.4693 -0.854015 -6.04598 0
M  V30 192 H 19.8833 -2.8552 -4.97143 0
M  V30 193 H 18.2803 -3.62372 -4.78338 0
M  V30 194 H 19.3503 -3.47956 -3.3772 0
M  V30 195 N 20.6934 1.19889 -1.02296 0
M  V30 196 C 21.6564 2.21116 -0.603351 0
M  V30 197 C 22.6564 1.5738 0.329884 0
M  V30 198 O 23.8464 1.73802 0.117702 0
M  V30 199 C 20.9784 3.40696 0.117992 0
M  V30 200 H 22.1714 2.59754 -1.49893 0
M  V30 201 H 19.7244 1.33463 -0.813468 0
M  V30 202 H 20.4594 3.07569 1.0282 0
M  V30 203 H 20.2444 3.88188 -0.552511 0
M  V30 204 H 21.7344 4.15692 0.398696 0
M  V30 205 N 22.1715 0.800033 1.35784 0
M  V30 206 C 23.1015 0.220184 2.3246 0
M  V30 207 C 24.0825 -0.65073 1.57161 0
M  V30 208 O 25.2675 -0.582359 1.85263 0
M  V30 209 C 22.3975 -0.637353 3.41402 0
M  V30 210 C 21.3515 0.134531 4.27789 0
M  V30 211 C 20.6775 -0.844285 5.27992 0
M  V30 212 C 21.9775 1.32979 5.05088 0
M  V30 213 H 23.6715 1.02787 2.81203 0
M  V30 214 H 21.2175 0.495717 1.35199 0
M  V30 215 H 23.1705 -1.05302 4.08031 0
M  V30 216 H 21.8945 -1.47785 2.91251 0
M  V30 217 H 20.5535 0.531296 3.6273 0
M  V30 218 H 20.2015 -1.68011 4.74111 0
M  V30 219 H 19.9015 -0.332184 5.8666 0
M  V30 220 H 21.4255 -1.2583 5.97494 0
M  V30 221 H 22.8395 0.98934 5.64699 0
M  V30 222 H 21.2365 1.77593 5.7322 0
M  V30 223 H 22.3065 2.11978 4.36111 0
M  V30 224 N 23.6496 -1.47581 0.552962 0
M  V30 225 C 24.8776 -2.06875 0.0320556 0
M  V30 226 C 25.2926 -1.40625 -1.25976 0
M  V30 227 O 24.6496 -0.501349 -1.75479 0
M  V30 228 C 24.7006 -3.61092 -0.17167 0
M  V30 229 O 24.4216 -4.24858 1.06899 0
M  V30 230 C 25.9226 -4.37242 -0.730344 0
M  V30 231 H 23.1426 -0.669561 0.043915 0
M  V30 232 H 25.6866 -1.89646 0.765163 0
M  V30 233 H 23.8416 -3.7785 -0.854894 0
M  V30 234 H 24.2556 -5.17334 0.864059 0
M  V30 235 H 25.7296 -5.45842 -0.822203 0
M  V30 236 H 26.2066 -4.03235 -1.74064 0
M  V30 237 H 26.8126 -4.25219 -0.0829543 0
M  V30 238 N 25.1277 -0.289203 -1.54924 0
M  V30 239 C 26.3527 0.329299 -2.04769 0
M  V30 240 C 26.7777 1.4763 -1.16564 0
M  V30 241 O 26.1357 1.80527 -0.167186 0
M  V30 242 C 26.1837 0.774438 -3.52186 0
M  V30 243 O 25.2877 1.88038 -3.67036 0
M  V30 244 H 24.6287 0.0659259 -0.660719 0
M  V30 245 H 27.1587 -0.42761 -2.00082 0
M  V30 246 H 27.1687 1.06642 -3.93816 0
M  V30 247 H 25.8437 -0.0646707 -4.1585 0
M  V30 248 H 24.4207 1.58985 -3.3731 0
M  V30 249 N 26.6058 1.57591 -0.0167156 0
M  V30 250 C 27.5688 2.08393 0.954204 0
M  V30 251 C 28.5688 0.996531 1.26198 0
M  V30 252 O 29.7588 1.25858 1.20438 0
M  V30 253 C 26.8908 2.5394 2.27436 0
M  V30 254 H 28.0838 2.95455 0.514451 0
M  V30 255 H 25.6368 1.54582 0.231089 0
M  V30 256 H 26.3718 1.70171 2.76066 0
M  V30 257 H 26.1568 3.33371 2.06412 0
M  V30 258 H 27.6468 2.93512 2.97053 0
M  V30 259 N 28.0839 -0.256276 1.55502 0
M  V30 260 C 29.3239 -0.993081 1.78654 0
M  V30 261 C 29.6879 -1.8288 0.584724 0
M  V30 262 O 30.8889 -2.59665 0.694822 0
M  V30 263 C 29.1599 -1.83856 3.06483 0
M  V30 264 S 30.7189 -2.63573 3.5082 0
M  V30 265 H 27.5369 -0.334199 0.62756 0
M  V30 266 H 30.1389 -0.26184 1.93739 0
M  V30 267 H 28.8429 -1.21414 3.92029 0
M  V30 268 H 28.3739 -2.61271 2.94111 0
M  V30 269 H 30.3889 -3.86312 3.11412 0
M  V30 270 N 29.562 -1.4872 -0.521534 0
M  V30 271 C 30.792 -1.6061 -1.29954 0
M  V30 272 C 31.2 -0.268728 -1.87282 0
M  V30 273 O 30.543 0.753221 -1.67548 0
M  V30 274 C 30.605 -2.60013 -2.48261 0
M  V30 275 C 30.269 -4.04874 -2.11957 0
M  V30 276 C 31.266 -4.92304 -1.67132 0
M  V30 277 C 28.951 -4.5047 -2.22221 0
M  V30 278 C 30.945 -6.2336 -1.33047 0
M  V30 279 C 28.632 -5.81544 -1.87748 0
M  V30 280 C 29.63 -6.67812 -1.43234 0
M  V30 281 O 29.318 -7.96446 -1.09217 0
M  V30 282 H 29.05 -0.544116 -0.401141 0
M  V30 283 H 31.604 -1.95339 -0.634958 0
M  V30 284 H 29.834 -2.20422 -3.17728 0
M  V30 285 H 31.523 -2.61648 -3.10315 0
M  V30 286 H 32.289 -4.58312 -1.58665 0
M  V30 287 H 28.168 -3.83504 -2.55823 0
M  V30 288 H 31.712 -6.90649 -0.982299 0
M  V30 289 H 27.609 -6.15069 -1.95858 0
M  V30 290 H 28.377 -8.09275 -1.22542 0
M  V30 291 N 31.0401 0.771051 -1.3745 0
M  V30 292 C 32.2891 1.52491 -1.3202 0
M  V30 293 C 32.6021 1.9538 0.0927347 0
M  V30 294 O 33.8081 2.70159 0.269503 0
M  V30 295 C 32.2641 2.75366 -2.31736 0
M  V30 296 C 31.8721 2.39573 -3.78562 0
M  V30 297 C 33.6161 3.53307 -2.35318 0
M  V30 298 C 31.5231 3.58954 -4.70007 0
M  V30 299 H 30.4531 0.572506 -0.490666 0
M  V30 300 H 33.1041 0.844474 -1.62914 0
M  V30 301 H 31.4861 3.45303 -1.93861 0
M  V30 302 H 32.6601 1.77415 -4.25277 0
M  V30 303 H 30.9751 1.74805 -3.77932 0
M  V30 304 H 33.5721 4.42039 -3.00842 0
M  V30 305 H 33.9151 3.93217 -1.36698 0
M  V30 306 H 34.4481 2.90367 -2.71904 0
M  V30 307 H 31.1871 3.24125 -5.69757 0
M  V30 308 H 30.7071 4.20214 -4.27996 0
M  V30 309 H 32.3861 4.25758 -4.87175 0
M  V30 310 N 32.5182 1.22032 0.997298 0
M  V30 311 C 33.4502 0.944263 2.08845 0
M  V30 312 C 34.4632 -0.0754663 1.62625 0
M  V30 313 O 35.6522 0.157994 1.77799 0
M  V30 314 C 32.7522 0.397723 3.36558 0
M  V30 315 C 31.9252 1.47362 4.11829 0
M  V30 316 C 30.9842 0.934951 5.17827 0
M  V30 317 O 30.0102 1.62016 5.45655 0
M  V30 318 N 31.2122 -0.245895 5.79979 0
M  V30 319 H 33.9772 1.88363 2.33109 0
M  V30 320 H 31.5382 1.12661 1.16272 0
M  V30 321 H 33.5302 0.0227771 4.04694 0
M  V30 322 H 32.1002 -0.446646 3.09393 0
M  V30 323 H 31.3202 2.02208 3.38386 0
M  V30 324 H 32.6082 2.19764 4.58891 0
M  V30 325 H 32.0062 -0.819475 5.59733 0
M  V30 326 H 30.5632 -0.562272 6.4937 0
M  V30 327 N 33.9963 -1.19345 1.0293 0
M  V30 328 C 34.9443 -2.24621 0.604001 0
M  V30 329 C 35.9383 -1.65452 -0.363587 0
M  V30 330 O 37.1443 -1.78497 -0.23212 0
M  V30 331 H 33.5193 -0.730858 0.177061 0
M  V30 332 H 35.4903 -2.5781 1.50255 0
M  V30 333 C 34.2393 -3.47688 -0.0289127 0
M  V30 334 H 33.5623 -3.93505 0.706651 0
M  V30 335 H 35.0023 -4.23011 -0.289432 0
M  V30 336 C 33.4613 -3.11817 -1.2756 0
M  V30 337 O 33.9913 -3.2451 -2.36762 0
M  V30 338 N 32.1973 -2.66246 -1.16453 0
M  V30 339 H 31.7443 -2.56118 -0.275914 0
M  V30 340 H 31.7023 -2.42617 -1.99961 0
M  V30 341 N 35.4744 -0.807222 -1.35358 0
M  V30 342 C 36.7144 -0.393534 -2.00576 0
M  V30 343 C 37.0784 1.0203 -1.62647 0
M  V30 344 O 38.2794 1.53603 -2.20589 0
M  V30 345 C 36.5504 -0.572017 -3.52793 0
M  V30 346 S 38.1094 -0.248845 -4.38094 0
M  V30 347 H 34.9274 -0.149425 -0.695121 0
M  V30 348 H 37.5294 -1.04961 -1.64935 0
M  V30 349 H 36.2334 -1.60097 -3.77885 0
M  V30 350 H 35.7644 0.099359 -3.93275 0
M  V30 351 H 37.7794 0.943253 -4.87152 0
M  V30 352 N 36.9525 1.47285 -0.560781 0
M  V30 353 C 38.3635 1.86258 -0.128343 0
M  V30 354 C 38.7145 1.46699 1.30284 0
M  V30 355 O 37.8395 0.871698 1.98067 0
M  V30 356 C 38.4345 3.38044 -0.22614 0
M  V30 357 C 36.9935 3.76096 0.151283 0
M  V30 358 C 36.1405 2.71335 -0.572084 0
M  V30 359 H 39.0915 1.38752 -0.770297 0
M  V30 360 H 39.1125 3.76441 0.554322 0
M  V30 361 H 38.6245 3.66806 -1.26788 0
M  V30 362 H 36.7255 3.52951 1.19399 0
M  V30 363 H 36.8385 4.78641 -0.209765 0
M  V30 364 H 35.2025 2.54696 -0.0147653 0
M  V30 365 H 35.9855 3.02938 -1.61504 0
M  V30 366 N 38.4306 0.297415 1.54768 0
M  V30 367 C 39.3606 -0.573494 2.26348 0
M  V30 368 C 40.3416 -1.14085 1.26169 0
M  V30 369 O 41.5266 -1.17086 1.54934 0
M  V30 370 C 38.6566 -1.74716 3.00153 0
M  V30 371 C 37.6106 -1.31032 4.07449 0
M  V30 372 C 36.9366 -2.56887 4.68949 0
M  V30 373 C 38.2366 -0.444183 5.20408 0
M  V30 374 H 39.9306 0.0235131 2.99391 0
M  V30 375 H 37.4766 0.0127488 1.43994 0
M  V30 376 H 39.4296 -2.3625 3.48947 0
M  V30 377 H 38.1536 -2.37035 2.24682 0
M  V30 378 H 36.8126 -0.718066 3.59499 0
M  V30 379 H 36.4606 -3.17512 3.90122 0
M  V30 380 H 36.1606 -2.2836 5.41411 0
M  V30 381 H 37.6846 -3.19229 5.20505 0
M  V30 382 H 39.0986 -0.9651 5.65118 0
M  V30 383 H 37.4956 -0.252846 5.99567 0
M  V30 384 H 38.5656 0.531609 4.81977 0
M  V30 385 N 39.9087 -1.5758 0.0250728 0
M  V30 386 C 41.1567 -1.91255 -0.653151 0
M  V30 387 C 41.4777 -0.901691 -1.729 0
M  V30 388 O 40.7477 0.0573785 -1.95816 0
M  V30 389 H 39.3277 -0.705942 -0.244243 0
M  V30 390 H 41.9897 -1.94767 0.0719209 0
M  V30 391 H 41.0857 -2.91752 -1.10847 0
M  V30 392 N 41.3868 0.248026 -1.55636 0
M  V30 393 C 42.6348 0.974295 -1.77065 0
M  V30 394 C 42.9558 1.85897 -0.588849 0
M  V30 395 O 42.2258 1.91868 0.395407 0
M  V30 396 H 40.8058 0.362733 -0.653019 0
M  V30 397 H 43.4678 0.266244 -1.93073 0
M  V30 398 H 42.5638 1.59667 -2.68166 0
M  V30 399 N 42.8649 1.48995 0.513639 0
M  V30 400 C 43.8119 1.6473 1.61656 0
M  V30 401 C 44.7819 0.488984 1.58739 0
M  V30 402 O 45.9669 0.714478 1.76918 0
M  V30 403 C 43.1069 1.7082 2.99858 0
M  V30 404 C 42.2199 2.9787 3.12885 0
M  V30 405 C 41.3549 2.95017 4.41744 0
M  V30 406 C 40.3939 4.16702 4.48359 0
M  V30 407 N 39.5309 4.11832 5.68629 0
M  V30 408 H 44.3709 2.58909 1.47547 0
M  V30 409 H 41.9079 1.28382 0.71808 0
M  V30 410 H 43.8659 1.72331 3.79944 0
M  V30 411 H 42.4959 0.801181 3.12699 0
M  V30 412 H 41.5479 3.06029 2.25944 0
M  V30 413 H 42.8599 3.8786 3.13633 0
M  V30 414 H 42.0139 2.95021 5.30139 0
M  V30 415 H 40.7529 2.02784 4.43542 0
M  V30 416 H 39.7579 4.16955 3.58369 0
M  V30 417 H 40.9829 5.10113 4.48287 0
M  V30 418 H 38.9289 3.22428 5.71293 0
M  V30 419 H 38.8459 4.95543 5.7094 0
M  V30 420 H 40.1139 4.1592 6.59266 0
M  V30 421 N 44.343 -0.763751 1.37857 0
M  V30 422 C 45.759 -1.06542 1.18832 0
M  V30 423 C 45.959 -2.01478 0.0299722 0
M  V30 424 O 45.015 -2.4458 -0.627447 0
M  V30 425 C 46.328 -1.65525 2.51042 0
M  V30 426 C 47.876 -1.77745 2.57635 0
M  V30 427 C 48.351 -2.4014 3.89996 0
M  V30 428 N 49.842 -2.47582 3.91481 0
M  V30 429 C 50.577 -2.96732 4.9065 0
M  V30 430 N 50.073 -3.45993 6.00217 0
M  V30 431 N 51.866 -2.95679 4.78048 0
M  V30 432 H 44.017 -0.133556 2.1198 0
M  V30 433 H 46.28 -0.121879 0.940133 0
M  V30 434 H 45.986 -1.03236 3.36207 0
M  V30 435 H 45.86 -2.64719 2.68707 0
M  V30 436 H 48.247 -2.39164 1.72872 0
M  V30 437 H 48.328 -0.772836 2.43846 0
M  V30 438 H 47.972 -1.79358 4.75177 0
M  V30 439 H 47.902 -3.41223 4.01092 0
M  V30 440 H 50.393 -2.1273 3.12337 0
M  V30 441 H 50.706 -3.81922 6.7183 0
M  V30 442 H 49.051 -3.44077 6.03851 0
M  V30 443 H 52.242 -2.56499 3.91568 0
M  V30 444 H 52.415 -3.33672 5.55488 0
M  V30 445 N 45.8211 -1.22559 -0.990812 0
M  V30 446 C 46.7841 -0.998863 -2.0629 0
M  V30 447 C 47.7841 0.0354834 -1.60761 0
M  V30 448 O 48.9741 -0.203231 -1.7301 0
M  V30 449 C 46.1061 -0.509203 -3.37076 0
M  V30 450 H 47.2991 -1.95014 -2.27837 0
M  V30 451 H 44.8521 -1.04456 -1.16269 0
M  V30 452 H 45.5871 0.446335 -3.21214 0
M  V30 453 H 45.3721 -1.25547 -3.71457 0
M  V30 454 H 46.8621 -0.370888 -4.1595 0
M  V30 455 N 47.2992 1.18797 -1.03562 0
M  V30 456 C 48.2622 2.20464 -0.626769 0
M  V30 457 C 49.2622 1.57721 0.313173 0
M  V30 458 O 50.4522 1.73917 0.0992615 0
M  V30 459 C 47.5842 3.40802 0.0818498 0
M  V30 460 H 48.7772 2.58149 -1.5264 0
M  V30 461 H 46.3302 1.32593 -0.827578 0
M  V30 462 H 47.0652 3.08642 0.995518 0
M  V30 463 H 46.8502 3.8758 -0.593652 0
M  V30 464 H 48.3402 4.16092 0.354584 0
M  V30 465 N 48.7773 0.814389 1.34928 0
M  V30 466 C 50.1883 0.458364 1.80986 0
M  V30 467 C 50.5393 -1.02042 1.67577 0
M  V30 468 O 49.6643 -1.79352 1.21086 0
M  V30 469 C 50.2593 0.825212 3.28597 0
M  V30 470 C 48.8183 0.521677 3.72767 0
M  V30 471 C 47.9653 1.04668 2.56788 0
M  V30 472 H 50.9163 1.00533 1.22795 0
M  V30 473 H 50.9373 0.12571 3.80292 0
M  V30 474 H 50.4493 1.90154 3.38324 0
M  V30 475 H 48.5503 -0.545589 3.68584 0
M  V30 476 H 48.6633 1.05977 4.67232 0
M  V30 477 H 47.0273 0.468622 2.50352 0
M  V30 478 H 47.8103 2.12927 2.6929 0
M  V30 479 N 50.2554 -1.46986 0.568584 0
M  V30 480 C 51.5324 -1.95592 -0.0174074 0
M  V30 481 C 51.9124 -1.51124 -1.47393 0
M  V30 482 O 51.2604 -0.755329 -2.15655 0
M  V30 483 C 51.4704 -3.48719 0.139913 0
M  V30 484 C 52.8184 -4.246 0.000426376 0
M  V30 485 O 53.8424 -3.56135 0.0680316 0
M  V30 486 O 52.7014 -5.46302 -0.146988 0
M  V30 487 H 49.7954 -0.82498 -0.0577599 0
M  V30 488 H 52.3414 -1.57335 0.635909 0
M  V30 489 H 51.1134 -3.73927 1.15301 0
M  V30 490 H 50.7364 -3.93771 -0.550491 0
M  V30 491 N 51.7335 -0.305618 -1.54608 0
M  V30 492 C 52.6635 0.561482 -2.26649 0
M  V30 493 C 53.6445 1.13415 -1.26772 0
M  V30 494 O 54.8295 1.16262 -1.55553 0
M  V30 495 C 51.9595 1.73122 -3.01075 0
M  V30 496 C 50.9135 1.2887 -4.08138 0
M  V30 497 C 50.2395 2.54396 -4.70305 0
M  V30 498 C 51.5395 0.416578 -5.20636 0
M  V30 499 H 53.2335 -0.0393902 -2.99374 0
M  V30 500 H 50.7795 -0.020385 -1.43986 0
M  V30 501 H 52.7325 2.34396 -3.50195 0
M  V30 502 H 51.4565 2.3584 -2.25936 0
M  V30 503 H 50.1155 0.698991 -3.59875 0
M  V30 504 H 49.7635 3.15439 -3.918 0
M  V30 505 H 49.4635 2.25486 -5.42614 0
M  V30 506 H 50.9875 3.16464 -5.2219 0
M  V30 507 H 52.4015 0.935116 -5.65622 0
M  V30 508 H 50.7985 0.221046 -5.99693 0
M  V30 509 H 51.8685 -0.557162 -4.81688 0
M  V30 510 N 53.2116 1.57565 -0.0334293 0
M  V30 511 C 54.4886 1.83282 0.683163 0
M  V30 512 C 54.8686 0.91823 1.90084 0
M  V30 513 O 54.2166 -0.025113 2.28486 0
M  V30 514 C 54.4266 3.32599 1.0573 0
M  V30 515 C 55.7746 3.99179 1.44711 0
M  V30 516 O 56.7986 3.3712 1.15015 0
M  V30 517 O 55.6576 5.08565 2.0006 0
M  V30 518 H 52.7516 0.755869 0.335546 0
M  V30 519 H 55.2976 1.69589 -0.0614402 0
M  V30 520 H 54.0696 3.90834 0.190828 0
M  V30 521 H 53.6926 3.51415 1.85993 0
M  V30 522 N 54.6897 -0.239769 1.55765 0
M  V30 523 C 55.9357 -0.968234 1.78194 0
M  V30 524 C 56.2687 -1.84701 0.599938 0
M  V30 525 O 55.5437 -1.9031 -0.401524 0
M  V30 526 C 55.8267 -1.8227 3.10564 0
M  V30 527 C 55.6797 -0.971633 4.3918 0
M  V30 528 C 56.9987 -2.80388 3.39221 0
M  V30 529 H 54.1177 -0.350572 0.648281 0
M  V30 530 H 56.7597 -0.238259 1.885 0
M  V30 531 H 54.9097 -2.44507 3.01908 0
M  V30 532 H 56.5817 -0.367408 4.59835 0
M  V30 533 H 54.8247 -0.276276 4.32919 0
M  V30 534 H 55.4957 -1.60346 5.28198 0
M  V30 535 H 57.9717 -2.28287 3.47885 0
M  V30 536 H 56.8477 -3.3729 4.33044 0
M  V30 537 H 57.1087 -3.57212 2.60484 0
M  V30 538 N 56.1678 -1.49265 -0.50573 0
M  V30 539 C 57.5838 -1.35923 -0.836486 0
M  V30 540 C 57.7838 -0.388704 -1.97715 0
M  V30 541 O 56.8398 0.181336 -2.51848 0
M  V30 542 C 58.1528 -2.76531 -1.18115 0
M  V30 543 C 59.7008 -2.85197 -1.28964 0
M  V30 544 C 60.1758 -4.26561 -1.66761 0
M  V30 545 N 61.6668 -4.2935 -1.73819 0
M  V30 546 C 62.4018 -5.35693 -2.045 0
M  V30 547 N 61.8978 -6.52287 -2.33438 0
M  V30 548 N 63.6908 -5.23105 -2.05711 0
M  V30 549 H 55.8418 -2.10965 0.246519 0
M  V30 550 H 58.1048 -0.9468 0.0476887 0
M  V30 551 H 57.8108 -3.49226 -0.416398 0
M  V30 552 H 57.6848 -3.11599 -2.1257 0
M  V30 553 H 60.0718 -2.12742 -2.04511 0
M  V30 554 H 60.1528 -2.53718 -0.325704 0
M  V30 555 H 59.7968 -4.99541 -0.917656 0
M  V30 556 H 59.7268 -4.55502 -2.64246 0
M  V30 557 H 62.2178 -3.4526 -1.53635 0
M  V30 558 H 62.5308 -7.29158 -2.56024 0
M  V30 559 H 60.8758 -6.55521 -2.30905 0
M  V30 560 H 64.0668 -4.31026 -1.82577 0
M  V30 561 H 64.2398 -6.06078 -2.29289 0
M  V30 562 N 57.6459 0.756429 -1.3826 0
M  V30 563 C 58.5929 1.87011 -1.35261 0
M  V30 564 C 59.5629 1.64695 -0.215616 0
M  V30 565 O 60.7479 1.864 -0.407399 0
M  V30 566 C 57.8879 3.24275 -1.18068 0
M  V30 567 C 57.0009 3.58442 -2.41129 0
M  V30 568 C 56.1359 4.84994 -2.16689 0
M  V30 569 C 55.1749 5.11939 -3.35537 0
M  V30 570 N 54.3119 6.29685 -3.10549 0
M  V30 571 H 59.1519 1.8891 -2.30472 0
M  V30 572 H 56.6889 0.923373 -1.14509 0
M  V30 573 H 58.6469 4.03479 -1.06116 0
M  V30 574 H 57.2769 3.21711 -0.264973 0
M  V30 575 H 56.3289 2.74103 -2.63764 0
M  V30 576 H 57.6409 3.74283 -3.29717 0
M  V30 577 H 56.7949 5.72135 -2.01857 0
M  V30 578 H 55.5339 4.71286 -1.25462 0
M  V30 579 H 54.5389 4.23268 -3.50891 0
M  V30 580 H 55.7639 5.27546 -4.27635 0
M  V30 581 H 53.7099 6.17306 -2.21967 0
M  V30 582 H 53.6269 6.46014 -3.92686 0
M  V30 583 H 54.8949 7.19722 -2.99367 0
M  V30 584 N 59.124 1.23083 0.984299 0
M  V30 585 C 60.364 1.07226 1.74017 0
M  V30 586 C 60.728 -0.384766 1.88105 0
M  V30 587 O 61.929 -0.664411 2.60459 0
M  V30 588 C 60.2 1.77348 3.10294 0
M  V30 589 S 61.759 1.77014 4.01512 0
M  V30 590 H 58.577 0.383819 0.598502 0
M  V30 591 H 61.179 1.56158 1.17622 0
M  V30 592 H 59.883 2.82506 2.97689 0
M  V30 593 H 59.414 1.28682 3.71759 0
M  V30 594 H 61.429 0.825956 4.89277 0
M  V30 595 N 60.6021 -1.18246 1.0419 0
M  V30 596 C 61.5321 -2.24127 0.654914 0
M  V30 597 C 62.5131 -1.66617 -0.342451 0
M  V30 598 O 63.6981 -1.92924 -0.222277 0
M  V30 599 C 60.8281 -3.47295 0.0183757 0
M  V30 600 C 59.7821 -4.17563 0.939414 0
M  V30 601 C 59.1081 -5.34438 0.167286 0
M  V30 602 C 60.4081 -4.70917 2.25908 0
M  V30 603 H 62.1021 -2.56753 1.54007 0
M  V30 604 H 59.6481 -1.23414 0.74195 0
M  V30 605 H 61.6011 -4.20572 -0.264082 0
M  V30 606 H 60.3251 -3.13907 -0.901664 0
M  V30 607 H 58.9841 -3.46186 1.20628 0
M  V30 608 H 58.6321 -4.97298 -0.7552 0
M  V30 609 H 58.3321 -5.82388 0.780901 0
M  V30 610 H 59.8561 -6.10504 -0.108125 0
M  V30 611 H 61.2701 -5.35882 2.03724 0
M  V30 612 H 59.6671 -5.29406 2.82577 0
M  V30 613 H 60.7371 -3.88272 2.9047 0
M  V30 614 N 62.0802 -0.821533 -1.34494 0
M  V30 615 C 63.4912 -0.467956 -1.8074 0
M  V30 616 C 63.8422 1.01151 -1.68116 0
M  V30 617 O 62.9672 1.78707 -1.22036 0
M  V30 618 C 63.5622 -0.842627 -3.28154 0
M  V30 619 C 62.1212 -0.541439 -3.72485 0
M  V30 620 C 61.2682 -1.06028 -2.56229 0
M  V30 621 H 64.2192 -1.01183 -1.22261 0
M  V30 622 H 64.2402 -0.145876 -3.8022 0
M  V30 623 H 63.7522 -1.91945 -3.37311 0
M  V30 624 H 61.8532 0.526034 -3.68868 0
M  V30 625 H 61.9662 -1.08453 -4.66663 0
M  V30 626 H 60.3302 -0.481892 -2.501 0
M  V30 627 H 61.1132 -2.14352 -2.68157 0
M  V30 628 N 63.5583 1.46682 -0.576371 0
M  V30 629 C 64.7983 2.04306 -0.0621356 0
M  V30 630 C 65.1623 1.4389 1.2712 0
M  V30 631 O 66.3633 1.92675 1.87429 0
M  V30 632 C 64.6343 3.57399 0.00927922 0
M  V30 633 S 66.1933 4.36309 0.466859 0
M  V30 634 H 63.0113 0.710167 -0.0344016 0
M  V30 635 H 65.6133 1.79807 -0.767437 0
M  V30 636 H 64.3173 3.98889 -0.965178 0
M  V30 637 H 63.8483 3.86424 0.737547 0
M  V30 638 H 65.8633 4.6533 1.72287 0
M  V30 639 N 65.0364 0.313813 1.54444 0
M  V30 640 C 66.2844 -0.291099 1.99993 0
M  V30 641 C 66.6054 -1.53418 1.20366 0
M  V30 642 O 65.8754 -1.93544 0.302927 0
M  V30 643 H 64.4554 -0.110552 0.738774 0
M  V30 644 H 67.1174 0.428106 1.9014 0
M  V30 645 H 66.2134 -0.554268 3.07139 0
M  V30 646 N 66.5145 -1.57545 0.0417849 0
M  V30 647 C 67.9255 -1.80011 -0.495259 0
M  V30 648 C 68.2765 -0.953199 -1.71489 0
M  V30 649 O 67.4015 -0.167138 -2.15754 0
M  V30 650 C 67.9965 -3.26482 -0.905265 0
M  V30 651 C 66.5555 -3.499 -1.38734 0
M  V30 652 C 65.7025 -2.74979 -0.358056 0
M  V30 653 H 68.6535 -1.56425 0.267736 0
M  V30 654 H 68.6745 -3.36887 -1.76882 0
M  V30 655 H 68.1865 -3.88096 -0.017401 0
M  V30 656 H 66.2875 -2.93553 -2.29471 0
M  V30 657 H 66.4005 -4.58615 -1.38598 0
M  V30 658 H 64.7645 -2.40834 -0.828912 0
M  V30 659 H 65.5475 -3.39315 0.521561 0
M  V30 660 N 67.9926 0.231505 -1.5589 0
M  V30 661 C 69.2406 0.955461 -1.78088 0
M  V30 662 C 69.5616 1.85262 -0.608533 0
M  V30 663 O 68.8316 1.92277 0.375035 0
M  V30 664 H 67.4116 0.355787 -0.656829 0
M  V30 665 H 70.0736 0.245751 -1.93344 0
M  V30 666 H 69.1696 1.56814 -2.69844 0
M  V30 667 N 69.4707 1.49531 0.497807 0
M  V30 668 C 70.7187 1.58865 1.24926 0
M  V30 669 C 71.0397 0.278721 1.92998 0
M  V30 670 O 70.3097 -0.702144 1.82885 0
M  V30 671 H 68.8897 0.585343 0.464094 0
M  V30 672 H 71.5517 1.86174 0.57666 0
M  V30 673 H 70.6477 2.38633 2.01149 0
M  V30 674 N 70.9488 -0.749086 1.3866 0
M  V30 675 C 71.8958 -1.86291 1.36251 0
M  V30 676 C 72.8658 -1.64578 0.224347 0
M  V30 677 O 74.0508 -1.86181 0.417279 0
M  V30 678 C 71.1908 -3.23644 1.19786 0
M  V30 679 C 70.3038 -3.57158 2.43027 0
M  V30 680 C 69.4388 -4.83838 2.19258 0
M  V30 681 C 68.4778 -5.10152 3.38247 0
M  V30 682 N 67.6148 -6.28029 3.13884 0
M  V30 683 H 72.4548 -1.87685 2.3147 0
M  V30 684 H 69.9918 -0.917287 1.14997 0
M  V30 685 H 71.9498 -4.0291 1.08254 0
M  V30 686 H 70.5798 -3.21566 0.282031 0
M  V30 687 H 69.6318 -2.72701 2.65214 0
M  V30 688 H 70.9438 -3.7253 3.31697 0
M  V30 689 H 70.0978 -5.71057 2.04888 0
M  V30 690 H 68.8368 -4.70614 1.2796 0
M  V30 691 H 67.8418 -4.21401 3.53131 0
M  V30 692 H 69.0668 -5.25271 4.30427 0
M  V30 693 H 67.0128 -6.1612 2.25238 0
M  V30 694 H 66.9298 -6.43922 3.96106 0
M  V30 695 H 68.1978 -7.18124 3.03179 0
M  V30 696 N 72.4269 -1.23603 -0.977757 0
M  V30 697 C 73.6749 -1.06759 -1.71601 0
M  V30 698 C 73.9959 0.395929 -1.90938 0
M  V30 699 O 73.2659 1.28356 -1.47992 0
M  V30 700 H 71.8459 -0.392062 -0.635843 0
M  V30 701 H 74.5079 -1.55362 -1.1768 0
M  V30 702 H 73.6039 -1.55763 -2.70452 0
M  V30 703 N 73.905 1.17692 -1.04816 0
M  V30 704 C 75.321 1.39863 -0.768794 0
M  V30 705 C 75.521 1.91118 0.638451 0
M  V30 706 O 74.577 2.10036 1.40146 0
M  V30 707 C 75.89 2.39274 -1.82122 0
M  V30 708 C 77.438 2.52987 -1.843 0
M  V30 709 C 77.913 3.55669 -2.88555 0
M  V30 710 N 79.404 3.63183 -2.87493 0
M  V30 711 C 80.139 4.42381 -3.64811 0
M  V30 712 N 79.635 5.25125 -4.51903 0
M  V30 713 N 81.428 4.37217 -3.53267 0
M  V30 714 H 73.579 0.82752 -1.95617 0
M  V30 715 H 75.842 0.426123 -0.846831 0
M  V30 716 H 75.548 2.08678 -2.83102 0
M  V30 717 H 75.422 3.38725 -1.65967 0
M  V30 718 H 77.809 2.82896 -0.839869 0
M  V30 719 H 77.89 1.53623 -2.04532 0
M  V30 720 H 77.534 3.26499 -3.89051 0
M  V30 721 H 77.464 4.54728 -2.65575 0
M  V30 722 H 79.955 3.04103 -2.24343 0
M  V30 723 H 80.268 5.82728 -5.07591 0
M  V30 724 H 78.613 5.24519 -4.55966 0
M  V30 725 H 81.804 3.71626 -2.84625 0
M  V30 726 H 81.977 4.98696 -4.13771 0
M  V30 727 N 75.3831 0.828654 1.34056 0
M  V30 728 C 76.6231 0.425394 1.99924 0
M  V30 729 C 76.9871 -0.994294 1.64249 0
M  V30 730 O 78.1881 -1.50074 2.23005 0
M  V30 731 C 76.4591 0.628071 3.51838 0
M  V30 732 S 78.0181 0.318511 4.37642 0
M  V30 733 H 74.8361 0.160465 0.692656 0
M  V30 734 H 77.4381 1.07572 1.63244 0
M  V30 735 H 76.1421 1.66089 3.7529 0
M  V30 736 H 75.6731 -0.0367799 3.93383 0
M  V30 737 H 77.6881 -0.865632 4.88591 0
M  V30 738 N 76.8612 -1.46375 0.584142 0
M  V30 739 C 78.1082 -2.02378 0.0702675 0
M  V30 740 C 78.4362 -1.45545 -1.29023 0
M  V30 741 O 77.6912 -0.610967 -1.85918 0
M  V30 742 C 77.9902 -3.57373 -0.0439342 0
M  V30 743 C 77.6562 -4.33252 1.24915 0
M  V30 744 C 76.3182 -4.53701 1.60341 0
M  V30 745 C 78.6702 -4.7681 2.1048 0
M  V30 746 C 75.9982 -5.1496 2.81128 0
M  V30 747 C 78.3502 -5.39404 3.30494 0
M  V30 748 C 77.0142 -5.5808 3.66201 0
M  V30 749 H 76.2842 -0.740554 0.0257127 0
M  V30 750 H 78.9312 -1.75727 0.761065 0
M  V30 751 H 77.2362 -3.83169 -0.817869 0
M  V30 752 H 78.9332 -3.98384 -0.457318 0
M  V30 753 H 75.5232 -4.17633 0.963364 0
M  V30 754 H 79.7072 -4.60766 1.84414 0
M  V30 755 H 74.9632 -5.27611 3.08928 0
M  V30 756 H 79.1372 -5.72114 3.97063 0
M  V30 757 H 76.7642 -6.05318 4.59885 0
M  V30 758 N 78.3393 -0.321999 -1.54275 0
M  V30 759 C 79.5873 0.280489 -2.00144 0
M  V30 760 C 79.9083 1.52777 -1.21178 0
M  V30 761 O 79.1783 1.9338 -0.313187 0
M  V30 762 H 77.7583 0.106632 -0.73935 0
M  V30 763 H 80.4203 -0.438184 -1.8991 0
M  V30 764 H 79.5163 0.537972 -3.07428 0
M  V30 765 N 79.8174 1.5752 -0.0501392 0
M  V30 766 C 81.2284 1.80271 0.485705 0
M  V30 767 C 81.5794 0.96228 1.70981 0
M  V30 768 O 80.7044 0.178578 2.15662 0
M  V30 769 C 81.2994 3.26957 0.887938 0
M  V30 770 C 79.8584 3.5063 1.36877 0
M  V30 771 C 79.0054 2.75165 0.343468 0
M  V30 772 H 81.9564 1.56281 -0.276028 0
M  V30 773 H 81.9774 3.37821 1.75093 0
M  V30 774 H 81.4894 3.881 -0.0031809 0
M  V30 775 H 79.5904 2.94766 2.27911 0
M  V30 776 H 79.7034 4.59343 1.36164 0
M  V30 777 H 78.0674 2.4127 0.816128 0
M  V30 778 H 78.8504 3.39034 -0.539548 0
M  V30 779 N 81.2955 -0.223234 1.56011 0
M  V30 780 C 82.2435 -1.29627 1.93131 0
M  V30 781 C 83.2375 -1.48608 0.813146 0
M  V30 782 O 84.4435 -1.49802 0.997966 0
M  V30 783 H 80.8185 -0.434563 0.613726 0
M  V30 784 H 82.7895 -0.955995 2.82672 0
M  V30 785 C 81.5385 -2.63983 2.26292 0
M  V30 786 H 80.8615 -2.50185 3.11846 0
M  V30 787 H 82.3015 -3.3788 2.56151 0
M  V30 788 C 80.7605 -3.18866 1.08747 0
M  V30 789 O 81.2905 -4.00192 0.347727 0
M  V30 790 N 79.4965 -2.77217 0.871743 0
M  V30 791 H 79.0435 -2.1119 1.47501 0
M  V30 792 H 79.0015 -3.1428 0.0869905 0
M  V30 793 N 82.7736 -1.49793 -0.48987 0
M  V30 794 C 84.0226 -1.59085 -1.23995 0
M  V30 795 C 84.3356 -0.287907 -1.9347 0
M  V30 796 O 85.5416 -0.259506 -2.70257 0
M  V30 797 C 83.9976 -2.80736 -2.252 0
M  V30 798 C 83.6056 -4.17833 -1.61614 0
M  V30 799 C 85.3496 -2.99364 -3.00967 0
M  V30 800 C 83.2566 -5.30693 -2.60996 0
M  V30 801 H 82.1866 -0.592372 -0.466488 0
M  V30 802 H 84.8376 -1.76197 -0.51252 0
M  V30 803 H 83.2196 -2.57142 -3.01154 0
M  V30 804 H 84.3936 -4.51608 -0.915774 0
M  V30 805 H 82.7086 -4.04656 -0.981977 0
M  V30 806 H 85.3056 -3.80851 -3.75308 0
M  V30 807 H 85.6486 -2.10356 -3.59244 0
M  V30 808 H 86.1816 -3.2305 -2.32128 0
M  V30 809 H 82.9206 -6.21796 -2.07485 0
M  V30 810 H 82.4406 -5.01359 -3.2924 0
M  V30 811 H 84.1196 -5.6049 -3.23202 0
M  V30 812 N 84.2517 0.741722 -1.39055 0
M  V30 813 C 85.4917 1.51385 -1.37338 0
M  V30 814 C 85.8557 1.91972 0.0330513 0
M  V30 815 O 87.0567 2.68229 0.175174 0
M  V30 816 C 85.3277 2.72481 -2.31276 0
M  V30 817 S 86.8867 3.62211 -2.47687 0
M  V30 818 H 83.7047 0.517906 -0.487129 0
M  V30 819 H 86.3067 0.86969 -1.7509 0
M  V30 820 H 85.0107 2.40793 -3.32336 0
M  V30 821 H 84.5417 3.41832 -1.94716 0
M  V30 822 H 86.5567 4.65812 -1.70978 0
M  V30 823 N 85.7298 1.2412 0.971189 0
M  V30 824 C 86.9698 1.09066 1.7287 0
M  V30 825 C 87.3338 -0.364794 1.88503 0
M  V30 826 O 88.5348 -0.636748 2.61149 0
M  V30 827 C 86.8058 1.80629 3.08396 0
M  V30 828 S 88.3648 1.81263 3.99611 0
M  V30 829 H 85.1828 0.390145 0.594397 0
M  V30 830 H 87.7848 1.57397 1.15959 0
M  V30 831 H 86.4888 2.85647 2.94676 0
M  V30 832 H 86.0198 1.32617 3.70373 0
M  V30 833 H 88.0348 0.877804 4.88374 0
M  V30 834 N 87.2079 -1.17134 1.05439 0
M  V30 835 C 88.1709 -2.19439 0.661764 0
M  V30 836 C 89.1709 -1.58199 -0.288042 0
M  V30 837 O 90.3609 -1.74053 -0.0715803 0
M  V30 838 C 87.4929 -3.40889 -0.0276209 0
M  V30 839 H 88.6859 -2.55688 1.56728 0
M  V30 840 H 86.2389 -1.31259 0.848567 0
M  V30 841 H 86.9739 -3.10187 -0.94629 0
M  V30 842 H 86.7589 -3.86586 0.655238 0
M  V30 843 H 88.2489 -4.16603 -0.288342 0
M  V30 844 N 88.686 -0.835752 -1.33615 0
M  V30 845 C 89.596 -0.269088 -2.33052 0
M  V30 846 C 90.612 0.603251 -1.63208 0
M  V30 847 O 91.788 0.508112 -1.94885 0
M  V30 848 C 88.853 0.549091 -3.42324 0
M  V30 849 C 87.914 -0.347156 -4.27894 0
M  V30 850 C 87.147 0.43207 -5.31948 0
M  V30 851 O 87.37 1.66409 -5.45586 0
M  V30 852 O 86.304 -0.192298 -6.01593 0
M  V30 853 H 90.13 -1.09243 -2.83372 0
M  V30 854 H 87.715 -0.598198 -1.36901 0
M  V30 855 H 89.597 1.01414 -4.09015 0
M  V30 856 H 88.272 1.34955 -2.94226 0
M  V30 857 H 87.179 -0.859979 -3.64081 0
M  V30 858 H 88.512 -1.1123 -4.79467 0
M  V30 859 N 90.1641 1.46063 -0.591896 0
M  V30 860 C 91.0741 2.34192 0.13831 0
M  V30 861 C 92.0901 1.50305 0.876608 0
M  V30 862 O 93.2661 1.8315 0.837728 0
M  V30 863 C 90.3311 3.27656 1.13326 0
M  V30 864 C 89.3921 4.27445 0.39863 0
M  V30 865 C 88.6251 5.16443 1.34618 0
M  V30 866 O 88.8481 5.08553 2.58321 0
M  V30 867 O 87.7821 5.95843 0.851768 0
M  V30 868 H 91.6081 2.98002 -0.58552 0
M  V30 869 H 89.1931 1.45188 -0.352239 0
M  V30 870 H 91.0751 3.85291 1.70671 0
M  V30 871 H 89.7501 2.6643 1.83839 0
M  V30 872 H 88.6571 3.73471 -0.216895 0
M  V30 873 H 89.9901 4.91482 -0.265709 0
M  V30 874 N 91.6422 0.330177 1.54103 0
M  V30 875 C 92.5722 -0.525353 2.27513 0
M  V30 876 C 93.5532 -1.11383 1.2856 0
M  V30 877 O 94.7382 -1.13773 1.57383 0
M  V30 878 C 91.8682 -1.6831 3.03791 0
M  V30 879 C 90.8222 -1.2236 4.10137 0
M  V30 880 C 90.1482 -2.46882 4.74293 0
M  V30 881 C 91.4482 -0.333697 5.21233 0
M  V30 882 H 93.1422 0.087013 2.99274 0
M  V30 883 H 90.6882 0.0432893 1.43935 0
M  V30 884 H 92.6412 -2.28795 3.5388 0
M  V30 885 H 91.3652 -2.32216 2.29659 0
M  V30 886 H 90.0242 -0.64165 3.60941 0
M  V30 887 H 89.6722 -3.09165 3.96769 0
M  V30 888 H 89.3722 -2.16825 5.46133 0
M  V30 889 H 90.8962 -3.08117 5.27159 0
M  V30 890 H 92.3102 -0.845013 5.67038 0
M  V30 891 H 90.7072 -0.125612 5.99969 0
M  V30 892 H 91.7772 0.633724 4.80741 0
M  V30 893 N 93.1203 -1.57491 0.0584922 0
M  V30 894 C 94.3683 -1.92597 -0.612436 0
M  V30 895 C 94.6893 -0.938162 -1.70949 0
M  V30 896 O 93.9593 0.0158301 -1.95894 0
M  V30 897 H 92.5393 -0.710964 -0.229214 0
M  V30 898 H 95.2013 -1.94571 0.113218 0
M  V30 899 H 94.2973 -2.94038 -1.04633 0
M  V30 900 N 94.5984 0.214957 -1.56127 0
M  V30 901 C 95.8384 0.945364 -1.81224 0
M  V30 902 C 96.2024 1.81265 -0.633005 0
M  V30 903 O 97.4034 2.57731 -0.763423 0
M  V30 904 C 95.6744 1.75665 -3.1125 0
M  V30 905 S 97.2334 2.54179 -3.57685 0
M  V30 906 H 94.0514 0.317443 -0.6362 0
M  V30 907 H 96.6534 0.210381 -1.94365 0
M  V30 908 H 95.3574 1.10977 -3.9511 0
M  V30 909 H 94.8884 2.53381 -3.00934 0
M  V30 910 H 96.9034 3.7792 -3.21545 0
M  V30 911 N 96.0765 1.50051 0.48192 0
M  V30 912 C 97.3235 1.60498 1.23477 0
M  V30 913 C 97.6515 0.300331 1.92167 0
M  V30 914 O 96.9065 -0.713094 1.82246 0
M  V30 915 C 97.2055 2.72717 2.30998 0
M  V30 916 C 96.8715 4.13572 1.79636 0
M  V30 917 C 95.5335 4.519 1.65348 0
M  V30 918 C 97.8855 5.01649 1.41412 0
M  V30 919 C 95.2135 5.76057 1.11244 0
M  V30 920 C 97.5655 6.26343 0.887538 0
M  V30 921 C 96.2295 6.63483 0.731207 0
M  V30 922 H 95.4995 0.587303 0.451836 0
M  V30 923 H 98.1465 1.83948 0.532468 0
M  V30 924 H 96.4515 2.43312 3.07094 0
M  V30 925 H 98.1485 2.78006 2.88988 0
M  V30 926 H 94.7385 3.83329 1.91721 0
M  V30 927 H 98.9225 4.72679 1.51289 0
M  V30 928 H 94.1785 6.03516 0.978686 0
M  V30 929 H 98.3525 6.93958 0.582654 0
M  V30 930 H 95.9795 7.59568 0.309806 0
M  V30 931 N 97.5546 -0.734337 1.39446 0
M  V30 932 C 98.8006 -1.49613 1.36908 0
M  V30 933 C 99.1336 -1.94169 -0.0347829 0
M  V30 934 O 98.4086 -1.66833 -0.999847 0
M  V30 935 C 98.6916 -2.73534 2.34203 0
M  V30 936 C 98.5446 -2.34993 3.83534 0
M  V30 937 C 99.8636 -3.75635 2.29317 0
M  V30 938 H 96.9826 -0.542714 0.498629 0
M  V30 939 H 99.6246 -0.839597 1.70443 0
M  V30 940 H 97.7746 -3.29553 2.05736 0
M  V30 941 H 99.4466 -1.84601 4.22753 0
M  V30 942 H 97.6896 -1.67213 4.00278 0
M  V30 943 H 98.3606 -3.23738 4.47099 0
M  V30 944 H 100.837 -3.29203 2.54489 0
M  V30 945 H 99.7126 -4.60008 2.99472 0
M  V30 946 H 99.9736 -4.22603 1.29842 0
M  V30 947 N 99.0327 -1.24633 -0.964593 0
M  V30 948 C 100.281 -1.08573 -1.70459 0
M  V30 949 C 100.602 0.375655 -1.91347 0
M  V30 950 O 99.8717 1.26779 -1.49345 0
M  V30 951 H 98.4517 -0.398784 -0.631649 0
M  V30 952 H 101.114 -1.56601 -1.16026 0
M  V30 953 H 100.21 -1.58623 -2.68785 0
M  V30 954 N 100.511 1.16574 -1.06058 0
M  V30 955 C 101.739 1.90952 -0.796552 0
M  V30 956 C 102.154 1.77302 0.648808 0
M  V30 957 O 101.511 1.11605 1.44397 0
M  V30 958 C 101.562 3.41736 -1.17894 0
M  V30 959 O 101.283 3.54975 -2.56758 0
M  V30 960 C 102.784 4.33169 -0.942308 0
M  V30 961 H 100.004 0.605594 -0.288959 0
M  V30 962 H 102.548 1.47777 -1.41358 0
M  V30 963 H 100.703 3.82623 -0.606491 0
M  V30 964 H 101.117 4.4846 -2.72 0
M  V30 965 H 102.591 5.37439 -1.25952 0
M  V30 966 H 103.068 4.3903 0.122078 0
M  V30 967 H 103.674 3.98007 -1.49902 0
M  V30 968 N 101.989 0.842826 1.3317 0
M  V30 969 C 102.952 0.284065 2.27433 0
M  V30 970 C 103.952 -0.54948 1.5112 0
M  V30 971 O 105.142 -0.362699 1.70382 0
M  V30 972 C 102.274 -0.599384 3.35589 0
M  V30 973 H 103.467 1.11589 2.78366 0
M  V30 974 H 101.02 0.616221 1.4364 0
M  V30 975 H 101.755 -1.45349 2.89904 0
M  V30 976 H 101.54 -0.00291266 3.921 0
M  V30 977 H 103.03 -0.983488 4.05854 0
M  V30 978 N 103.467 -1.45747 0.599634 0
M  V30 979 C 104.377 -2.34262 -0.125888 0
M  V30 980 C 105.393 -1.50768 -0.868625 0
M  V30 981 O 106.569 -1.83592 -0.828003 0
M  V30 982 C 103.634 -3.28252 -1.11587 0
M  V30 983 C 102.695 -4.27651 -0.375956 0
M  V30 984 C 101.928 -5.1715 -1.31877 0
M  V30 985 O 102.151 -5.09916 -2.55621 0
M  V30 986 O 101.085 -5.96286 -0.820157 0
M  V30 987 H 104.911 -2.97688 0.601315 0
M  V30 988 H 102.496 -1.44999 0.359934 0
M  V30 989 H 104.378 -3.86191 -1.68626 0
M  V30 990 H 103.053 -2.67401 -1.82424 0
M  V30 991 H 101.96 -3.7335 0.236698 0
M  V30 992 H 103.293 -4.91334 0.29177 0
M  V30 993 N 104.945 -0.338344 -1.53925 0
M  V30 994 C 105.908 0.508299 -2.23493 0
M  V30 995 C 106.908 1.03175 -1.23335 0
M  V30 996 O 108.098 0.921826 -1.47811 0
M  V30 997 C 105.23 1.70754 -2.95052 0
M  V30 998 H 106.423 -0.100058 -2.99733 0
M  V30 999 H 103.976 -0.0896198 -1.56043 0
M  V30 1000 H 104.711 2.35474 -2.22986 0
M  V30 1001 H 104.496 1.33946 -3.68512 0
M  V30 1002 H 105.986 2.30818 -3.48013 0
M  V30 1003 N 106.423 1.57458 -0.0668435 0
M  V30 1004 C 107.353 2.15468 0.899764 0
M  V30 1005 C 108.334 1.08042 1.31381 0
M  V30 1006 O 109.519 1.36054 1.38574 0
M  V30 1007 C 106.649 2.71232 2.16911 0
M  V30 1008 C 105.603 3.83781 1.89463 0
M  V30 1009 C 104.929 4.26127 3.22986 0
M  V30 1010 C 106.229 5.08238 1.20381 0
M  V30 1011 H 107.923 2.96488 0.416529 0
M  V30 1012 H 105.469 1.4262 0.198908 0
M  V30 1013 H 107.422 3.10458 2.84945 0
M  V30 1014 H 106.146 1.87426 2.67468 0
M  V30 1015 H 104.805 3.45051 1.23836 0
M  V30 1016 H 104.453 3.39249 3.71374 0
M  V30 1017 H 104.153 5.01993 3.05413 0
M  V30 1018 H 105.677 4.67966 3.92225 0
M  V30 1019 H 107.091 5.44811 1.78475 0
M  V30 1020 H 105.488 5.89349 1.13083 0
M  V30 1021 H 106.558 4.84558 0.182153 0
M  V30 1022 N 107.901 -0.206675 1.56239 0
M  V30 1023 C 109.317 -0.557025 1.49564 0
M  V30 1024 C 109.517 -1.86424 0.764735 0
M  V30 1025 O 108.573 -2.50584 0.310491 0
M  V30 1026 C 109.886 -0.622478 2.94186 0
M  V30 1027 C 111.434 -0.712099 3.04792 0
M  V30 1028 C 111.909 -0.808767 4.50803 0
M  V30 1029 N 113.4 -0.8726 4.54907 0
M  V30 1030 C 114.135 -0.967365 5.65181 0
M  V30 1031 N 113.631 -1.02515 6.85173 0
M  V30 1032 N 115.424 -1.00366 5.53067 0
M  V30 1033 H 107.575 0.650943 2.02179 0
M  V30 1034 H 109.838 0.230387 0.919579 0
M  V30 1035 H 109.544 0.268727 3.50672 0
M  V30 1036 H 109.418 -1.4811 3.46905 0
M  V30 1037 H 111.805 -1.59374 2.48363 0
M  V30 1038 H 111.886 0.172489 2.55218 0
M  V30 1039 H 111.53 0.0684754 5.07854 0
M  V30 1040 H 111.46 -1.70899 4.98098 0
M  V30 1041 H 113.951 -0.837657 3.68499 0
M  V30 1042 H 114.264 -1.09765 7.64965 0
M  V30 1043 H 112.609 -0.994026 6.87855 0
M  V30 1044 H 115.8 -0.95527 4.58249 0
M  V30 1045 H 115.973 -1.07405 6.39037 0
M  V30 1046 N 109.379 -1.50304 -0.473955 0
M  V30 1047 C 110.619 -1.62786 -1.23612 0
M  V30 1048 C 110.983 -0.319786 -1.89318 0
M  V30 1049 O 112.184 -0.320012 -2.66888 0
M  V30 1050 C 110.455 -2.77351 -2.25414 0
M  V30 1051 S 112.014 -3.09948 -3.10608 0
M  V30 1052 H 108.832 -0.573895 -0.419721 0
M  V30 1053 H 111.434 -1.88076 -0.533623 0
M  V30 1054 H 110.138 -3.70879 -1.75719 0
M  V30 1055 H 109.669 -2.54137 -3.00296 0
M  V30 1056 H 111.684 -2.53553 -4.26527 0
M  V30 1057 N 110.857 0.726932 -1.39834 0
M  V30 1058 C 111.789 1.85147 -1.35104 0
M  V30 1059 C 112.802 1.60736 -0.258392 0
M  V30 1060 O 113.991 1.70821 -0.517931 0
M  V30 1061 C 111.091 3.21332 -1.07697 0
M  V30 1062 C 110.264 3.73033 -2.28396 0
M  V30 1063 C 109.323 4.87802 -1.97322 0
M  V30 1064 O 108.349 5.01043 -2.70083 0
M  V30 1065 N 109.551 5.72768 -0.944273 0
M  V30 1066 H 112.316 1.89706 -2.32017 0
M  V30 1067 H 109.877 0.908006 -1.3404 0
M  V30 1068 H 111.869 3.95691 -0.849144 0
M  V30 1069 H 110.439 3.11992 -0.194909 0
M  V30 1070 H 109.659 2.89934 -2.6708 0
M  V30 1071 H 110.947 4.0431 -3.08887 0
M  V30 1072 H 110.345 5.64669 -0.341427 0
M  V30 1073 H 108.902 6.4716 -0.776346 0
M  V30 1074 N 112.336 1.25143 0.95797 0
M  V30 1075 C 113.246 1.06968 2.08794 0
M  V30 1076 C 114.262 0.00773911 1.73998 0
M  V30 1077 O 115.438 0.207972 2.00323 0
M  V30 1078 C 112.503 0.68691 3.39827 0
M  V30 1079 C 111.564 1.82641 3.88511 0
M  V30 1080 C 110.797 1.46181 5.1329 0
M  V30 1081 O 111.02 0.355971 5.69288 0
M  V30 1082 O 109.954 2.29085 5.566 0
M  V30 1083 H 113.78 2.01723 2.27027 0
M  V30 1084 H 111.365 1.04051 1.07209 0
M  V30 1085 H 113.247 0.485417 4.18595 0
M  V30 1086 H 111.922 -0.231417 3.22872 0
M  V30 1087 H 110.829 2.08274 3.10762 0
M  V30 1088 H 112.162 2.72386 4.09959 0
M  V30 1089 N 113.814 -1.1601 1.06675 0
M  V30 1090 C 114.724 -2.24156 0.692179 0
M  V30 1091 C 115.74 -1.71507 -0.293513 0
M  V30 1092 O 116.916 -2.009 -0.141861 0
M  V30 1093 C 113.981 -3.46587 0.0884131 0
M  V30 1094 C 113.042 -4.14257 1.12646 0
M  V30 1095 C 112.275 -5.30844 0.551416 0
M  V30 1096 O 112.498 -5.66858 -0.634656 0
M  V30 1097 O 111.432 -5.87848 1.29298 0
M  V30 1098 H 115.258 -2.58513 1.59388 0
M  V30 1099 H 112.843 -1.23599 0.83926 0
M  V30 1100 H 114.725 -4.20679 -0.246361 0
M  V30 1101 H 113.4 -3.13994 -0.786712 0
M  V30 1102 H 112.307 -3.42118 1.51348 0
M  V30 1103 H 113.64 -4.50914 1.97325 0
M  V30 1104 N 115.292 -0.849877 -1.32721 0
M  V30 1105 C 116.24 -0.279745 -2.30912 0
M  V30 1106 C 117.234 0.594278 -1.58634 0
M  V30 1107 O 118.44 0.482613 -1.73409 0
M  V30 1108 H 114.815 -0.0717521 -0.748569 0
M  V30 1109 H 116.786 -1.12222 -2.76494 0
M  V30 1110 C 115.535 0.521108 -3.43773 0
M  V30 1111 H 114.858 -0.142141 -3.99547 0
M  V30 1112 H 116.298 0.885693 -4.14646 0
M  V30 1113 C 114.757 1.70442 -2.90605 0
M  V30 1114 O 115.287 2.8034 -2.87702 0
M  V30 1115 N 113.493 1.52991 -2.47067 0
M  V30 1116 H 113.04 0.635914 -2.49628 0
M  V30 1117 H 112.998 2.32311 -2.11847 0
M  V30 1118 N 116.77 1.45427 -0.607355 0
M  V30 1119 C 118 2.06314 -0.108656 0
M  V30 1120 C 118.408 1.45269 1.21217 0
M  V30 1121 O 117.751 0.561115 1.74921 0
M  V30 1122 C 117.813 3.59345 0.105618 0
M  V30 1123 C 117.477 4.42723 -1.13337 0
M  V30 1124 C 118.474 4.77715 -2.05145 0
M  V30 1125 C 116.159 4.83478 -1.36213 0
M  V30 1126 C 118.153 5.52317 -3.18158 0
M  V30 1127 C 115.84 5.57835 -2.49527 0
M  V30 1128 C 116.838 5.92171 -3.40327 0
M  V30 1129 O 116.526 6.65019 -4.51669 0
M  V30 1130 H 116.258 0.672782 -0.0658842 0
M  V30 1131 H 118.812 1.87664 -0.834945 0
M  V30 1132 H 117.042 3.76394 0.886796 0
M  V30 1133 H 118.731 4.02076 0.555886 0
M  V30 1134 H 119.497 4.46787 -1.88697 0
M  V30 1135 H 115.376 4.56188 -0.664362 0
M  V30 1136 H 118.92 5.79036 -3.89054 0
M  V30 1137 H 114.817 5.88177 -2.65928 0
M  V30 1138 H 115.585 6.83469 -4.50348 0
M  V30 1139 N 118.248 0.346503 1.53744 0
M  V30 1140 C 119.178 -0.501193 2.28058 0
M  V30 1141 C 120.159 -1.10014 1.29734 0
M  V30 1142 O 121.344 -1.12097 1.58581 0
M  V30 1143 C 118.474 -1.65078 3.05559 0
M  V30 1144 C 117.428 -1.18003 4.11411 0
M  V30 1145 C 116.754 -2.41837 4.76884 0
M  V30 1146 C 118.054 -0.278394 5.21558 0
M  V30 1147 H 119.748 0.11875 2.99164 0
M  V30 1148 H 117.294 0.0585531 1.43881 0
M  V30 1149 H 119.247 -2.25028 3.56287 0
M  V30 1150 H 117.971 -2.29767 2.32109 0
M  V30 1151 H 116.63 -0.603331 3.61601 0
M  V30 1152 H 116.278 -3.0494 4.00026 0
M  V30 1153 H 115.978 -2.1102 5.48402 0
M  V30 1154 H 117.502 -3.02508 5.30397 0
M  V30 1155 H 118.916 -0.784823 5.67903 0
M  V30 1156 H 117.313 -0.0619707 6.00068 0
M  V30 1157 H 118.383 0.684677 4.80042 0
M  V30 1158 N 119.726 -1.57421 0.075193 0
M  V30 1159 C 121.137 -1.81021 -0.456964 0
M  V30 1160 C 121.488 -0.98936 -1.69429 0
M  V30 1161 O 120.613 -0.212865 -2.15351 0
M  V30 1162 C 121.208 -3.28329 -0.83581 0
M  V30 1163 C 119.767 -3.52764 -1.31281 0
M  V30 1164 C 118.914 -2.75676 -0.299648 0
M  V30 1165 H 121.865 -1.55822 0.300856 0
M  V30 1166 H 121.886 -3.40564 -1.69696 0
M  V30 1167 H 121.398 -3.88046 0.0649238 0
M  V30 1168 H 119.499 -2.98355 -2.23193 0
M  V30 1169 H 119.612 -4.61451 -1.28839 0
M  V30 1170 H 117.976 -2.42538 -0.777641 0
M  V30 1171 H 118.759 -3.38132 0.593417 0
M  V30 1172 N 121.204 0.198386 -1.56346 0
M  V30 1173 C 122.429 0.939682 -1.84891 0
M  V30 1174 C 122.854 1.76202 -0.658369 0
M  V30 1175 O 122.212 1.76993 0.392851 0
M  V30 1176 C 122.26 1.81428 -3.11635 0
M  V30 1177 O 121.364 2.91265 -2.91956 0
M  V30 1178 H 120.705 0.264807 -0.608912 0
M  V30 1179 H 123.235 0.204695 -2.03573 0
M  V30 1180 H 123.245 2.21958 -3.42343 0
M  V30 1181 H 121.92 1.21004 -3.97908 0
M  V30 1182 H 120.497 2.54514 -2.72538 0
M  V30 1183 N 122.682 1.50554 0.465978 0
M  V30 1184 C 124.093 1.54599 1.04671 0
M  V30 1185 C 124.444 0.352488 1.93008 0
M  V30 1186 O 123.569 -0.534044 2.09707 0
M  V30 1187 C 124.164 2.80166 1.90505 0
M  V30 1188 C 122.723 2.86876 2.43678 0
M  V30 1189 C 121.87 2.48947 1.22151 0
M  V30 1190 H 124.821 1.56744 0.248384 0
M  V30 1191 H 124.842 2.62311 2.75633 0
M  V30 1192 H 124.354 3.67013 1.26186 0
M  V30 1193 H 122.455 2.04393 3.11536 0
M  V30 1194 H 122.568 3.89885 2.78436 0
M  V30 1195 H 120.932 2.01498 1.5579 0
M  V30 1196 H 121.715 3.38107 0.594866 0
M  V30 1197 N 124.16 -0.719506 1.40217 0
M  V30 1198 C 125.4 -1.49181 1.39729 0
M  V30 1199 C 125.764 -1.92 -0.00250614 0
M  V30 1200 O 126.965 -2.68473 -0.132479 0
M  V30 1201 C 125.236 -2.68767 2.35582 0
M  V30 1202 S 126.795 -3.58224 2.53418 0
M  V30 1203 H 123.613 -0.510091 0.495307 0
M  V30 1204 H 126.215 -0.841724 1.76452 0
M  V30 1205 H 124.919 -2.35475 3.36124 0
M  V30 1206 H 124.45 -3.38691 2.0013 0
M  V30 1207 H 126.465 -4.63033 1.78367 0
M  V30 1208 N 125.638 -1.25649 -0.95132 0
M  V30 1209 C 126.57 -1.02112 -2.05197 0
M  V30 1210 C 127.583 0.0150571 -1.62793 0
M  V30 1211 O 128.772 -0.223874 -1.77091 0
M  V30 1212 C 125.872 -0.522361 -3.3485 0
M  V30 1213 C 125.045 -1.62546 -4.06076 0
M  V30 1214 C 124.104 -1.12649 -5.14001 0
M  V30 1215 O 123.13 -1.82156 -5.39266 0
M  V30 1216 N 124.332 0.03047 -5.80492 0
M  V30 1217 H 127.097 -1.96885 -2.25957 0
M  V30 1218 H 124.658 -1.16899 -1.1201 0
M  V30 1219 H 126.65 -0.172961 -4.0433 0
M  V30 1220 H 125.22 0.33151 -3.10837 0
M  V30 1221 H 124.44 -2.14628 -3.30649 0
M  V30 1222 H 125.728 -2.36644 -4.50419 0
M  V30 1223 H 125.126 0.611169 -5.62389 0
M  V30 1224 H 123.683 0.320875 -6.5101 0
M  V30 1225 N 127.117 1.15442 -1.07289 0
M  V30 1226 C 128.342 1.90638 -0.816828 0
M  V30 1227 C 128.767 1.77445 0.624083 0
M  V30 1228 O 128.125 1.10671 1.43602 0
M  V30 1229 C 128.173 3.39008 -1.22906 0
M  V30 1230 O 127.277 4.10701 -0.373975 0
M  V30 1231 H 126.618 0.593555 -0.297638 0
M  V30 1232 H 129.148 1.46198 -1.43134 0
M  V30 1233 H 129.158 3.89801 -1.20497 0
M  V30 1234 H 127.833 3.47929 -2.27856 0
M  V30 1235 H 126.41 3.70046 -0.460499 0
M  V30 1236 N 128.595 0.856903 1.32268 0
M  V30 1237 C 129.843 0.460474 1.96784 0
M  V30 1238 C 130.164 -0.987701 1.68135 0
M  V30 1239 O 129.434 -1.69058 0.989765 0
M  V30 1240 H 128.014 0.167289 0.728027 0
M  V30 1241 H 130.676 1.09383 1.61312 0
M  V30 1242 H 129.772 0.60739 3.06133 0
M  V30 1243 N 130.073 -1.45103 0.615059 0
M  V30 1244 C 131.005 -2.28786 -0.13762 0
M  V30 1245 C 132.018 -1.40376 -0.824525 0
M  V30 1246 O 133.207 -1.64681 -0.688662 0
M  V30 1247 C 130.307 -3.16322 -1.21628 0
M  V30 1248 C 129.48 -4.33054 -0.615039 0
M  V30 1249 C 128.539 -5.01743 -1.58556 0
M  V30 1250 O 127.565 -5.58293 -1.10895 0
M  V30 1251 N 128.767 -5.01714 -2.91998 0
M  V30 1252 H 131.532 -2.94025 0.580483 0
M  V30 1253 H 129.093 -1.55373 0.45507 0
M  V30 1254 H 131.085 -3.59139 -1.86552 0
M  V30 1255 H 129.655 -2.52943 -1.83681 0
M  V30 1256 H 128.875 -3.93627 0.21245 0
M  V30 1257 H 130.163 -5.08431 -0.193704 0
M  V30 1258 H 129.561 -4.57075 -3.33316 0
M  V30 1259 H 128.118 -5.48371 -3.52325 0
M  V30 1260 N 131.551 -0.354651 -1.53558 0
M  V30 1261 C 132.498 0.496968 -2.25386 0
M  V30 1262 C 133.468 1.0865 -1.25636 0
M  V30 1263 O 134.653 1.12104 -1.54394 0
M  V30 1264 C 131.793 1.63637 -3.03837 0
M  V30 1265 C 130.906 1.07307 -4.18461 0
M  V30 1266 C 130.041 2.18068 -4.84376 0
M  V30 1267 C 129.08 1.59147 -5.91049 0
M  V30 1268 N 128.217 2.63695 -6.50699 0
M  V30 1269 H 133.057 -0.122075 -2.9775 0
M  V30 1270 H 130.594 -0.0720154 -1.46924 0
M  V30 1271 H 132.552 2.30734 -3.47589 0
M  V30 1272 H 131.182 2.22623 -2.33749 0
M  V30 1273 H 130.234 0.292708 -3.79272 0
M  V30 1274 H 131.546 0.602193 -4.95152 0
M  V30 1275 H 130.7 2.93007 -5.31255 0
M  V30 1276 H 129.439 2.68504 -4.07133 0
M  V30 1277 H 128.444 0.827175 -5.43542 0
M  V30 1278 H 129.669 1.09549 -6.70206 0
M  V30 1279 H 127.615 3.13365 -5.76315 0
M  V30 1280 H 127.532 2.21263 -7.22896 0
M  V30 1281 H 128.8 3.3837 -7.02229 0
M  V30 1282 N 133.029 1.57378 -0.0835403 0
M  V30 1283 C 133.992 2.12252 0.864959 0
M  V30 1284 C 134.992 1.04916 1.21858 0
M  V30 1285 O 136.182 1.30853 1.14991 0
M  V30 1286 C 133.314 2.63358 2.16461 0
M  V30 1287 H 134.507 2.97371 0.388676 0
M  V30 1288 H 132.06 1.55423 0.165317 0
M  V30 1289 H 132.795 1.81727 2.686 0
M  V30 1290 H 132.58 3.41826 1.92087 0
M  V30 1291 H 134.07 3.05847 2.84337 0
M  V30 1292 N 134.507 -0.190092 1.56449 0
M  V30 1293 C 135.747 -0.916414 1.82705 0
M  V30 1294 C 136.111 -1.80235 0.661763 0
M  V30 1295 O 137.312 -2.56484 0.80433 0
M  V30 1296 C 135.583 -1.70691 3.14005 0
M  V30 1297 S 137.142 -2.48457 3.61683 0
M  V30 1298 H 133.96 -0.307281 0.64117 0
M  V30 1299 H 136.562 -0.179433 1.94675 0
M  V30 1300 H 135.266 -1.04677 3.96826 0
M  V30 1301 H 134.797 -2.48562 3.04927 0
M  V30 1302 H 136.812 -3.72756 3.27517 0
M  V30 1303 N 135.985 -1.50799 -0.457987 0
M  V30 1304 C 137.233 -1.62121 -1.2067 0
M  V30 1305 C 137.554 -0.329793 -1.92191 0
M  V30 1306 O 136.824 0.653409 -1.84682 0
M  V30 1307 H 135.404 -0.597441 -0.448411 0
M  V30 1308 H 138.066 -1.87637 -0.527096 0
M  V30 1309 H 137.162 -2.43882 -1.94751 0
M  V30 1310 N 137.463 0.71206 -1.40597 0
M  V30 1311 C 138.688 1.50617 -1.42581 0
M  V30 1312 C 139.113 1.88079 -0.0282102 0
M  V30 1313 O 138.471 1.53511 0.964579 0
M  V30 1314 C 138.519 2.7557 -2.3258 0
M  V30 1315 O 137.623 3.72414 -1.77148 0
M  V30 1316 H 136.964 0.453966 -0.484573 0
M  V30 1317 H 139.494 0.876649 -1.84868 0
M  V30 1318 H 139.504 3.2406 -2.47889 0
M  V30 1319 H 138.179 2.47639 -3.34138 0
M  V30 1320 H 136.756 3.31276 -1.71204 0
M  V30 1321 N 138.941 1.26152 0.944643 0
M  V30 1322 C 140.189 1.11271 1.6871 0
M  V30 1323 C 140.51 -0.345166 1.91921 0
M  V30 1324 O 139.78 -1.24387 1.51343 0
M  V30 1325 H 138.36 0.408783 0.625224 0
M  V30 1326 H 141.022 1.58427 1.1352 0
M  V30 1327 H 140.118 1.62879 2.66227 0
M  V30 1328 N 140.419 -1.14872 1.07899 0
M  V30 1329 C 141.667 -1.85422 0.803941 0
M  V30 1330 C 141.988 -1.83051 -0.67211 0
M  V30 1331 O 141.258 -1.27532 -1.48703 0
M  V30 1332 H 139.838 -0.686537 0.294408 0
M  V30 1333 H 142.5 -1.39226 1.3639 0
M  V30 1334 H 141.596 -2.90399 1.14346 0
M  V30 1335 N 141.898 -0.863906 -1.31812 0
M  V30 1336 C 143.314 -0.555004 -1.49639 0
M  V30 1337 C 143.514 0.912266 -1.79666 0
M  V30 1338 O 142.57 1.69479 -1.87171 0
M  V30 1339 C 143.883 -1.44998 -2.63431 0
M  V30 1340 C 145.431 -1.45138 -2.77316 0
M  V30 1341 C 145.906 -2.33179 -3.94197 0
M  V30 1342 N 147.397 -2.31025 -4.01474 0
M  V30 1343 C 148.132 -2.95871 -4.9117 0
M  V30 1344 N 147.628 -3.69863 -5.8581 0
M  V30 1345 N 149.421 -2.85211 -4.84367 0
M  V30 1346 H 141.572 -1.81339 -1.10589 0
M  V30 1347 H 143.835 -0.77505 -0.545895 0
M  V30 1348 H 143.541 -2.49377 -2.48 0
M  V30 1349 H 143.415 -1.14409 -3.59431 0
M  V30 1350 H 145.802 -0.415201 -2.92164 0
M  V30 1351 H 145.883 -1.79747 -1.82001 0
M  V30 1352 H 145.527 -3.3687 -3.80107 0
M  V30 1353 H 145.457 -1.95897 -4.88807 0
M  V30 1354 H 147.948 -1.77238 -3.33759 0
M  V30 1355 H 148.261 -4.16486 -6.50968 0
M  V30 1356 H 146.606 -3.73971 -5.85808 0
M  V30 1357 H 149.797 -2.26948 -4.09405 0
M  V30 1358 H 149.97 -3.36027 -5.54066 0
M  V30 1359 N 143.376 1.44774 -0.622745 0
M  V30 1360 C 144.616 2.04004 -0.127102 0
M  V30 1361 C 144.98 1.47862 1.22478 0
M  V30 1362 O 146.181 1.98541 1.81204 0
M  V30 1363 C 144.452 3.57247 -0.104429 0
M  V30 1364 S 146.011 4.37574 0.327814 0
M  V30 1365 H 142.829 0.708713 -0.0569776 0
M  V30 1366 H 145.431 1.77275 -0.824253 0
M  V30 1367 H 144.135 3.95616 -1.09159 0
M  V30 1368 H 143.666 3.88575 0.614236 0
M  V30 1369 H 145.681 4.70575 1.57395 0
M  V30 1370 N 144.854 0.36279 1.53368 0
M  V30 1371 C 145.817 -0.472679 2.24273 0
M  V30 1372 C 146.817 -1.012 1.24961 0
M  V30 1373 O 148.007 -0.898194 1.49259 0
M  V30 1374 C 145.139 -1.66039 2.97731 0
M  V30 1375 H 146.332 0.14773 2.99536 0
M  V30 1376 H 143.885 0.114434 1.55881 0
M  V30 1377 H 144.62 -2.31896 2.26704 0
M  V30 1378 H 144.405 -1.28066 3.70596 0
M  V30 1379 H 145.895 -2.25252 3.51641 0
M  V30 1380 N 146.332 -1.57332 0.0918853 0
M  V30 1381 C 147.578 -1.94524 -0.573425 0
M  V30 1382 C 147.911 -0.973578 -1.68033 0
M  V30 1383 O 147.186 -0.00609226 -1.94499 0
M  V30 1384 C 147.469 -3.41858 -1.13161 0
M  V30 1385 C 147.322 -4.4979 -0.0299747 0
M  V30 1386 C 148.641 -3.90435 -2.03098 0
M  V30 1387 H 145.76 -0.70734 -0.206975 0
M  V30 1388 H 148.402 -1.89309 0.161942 0
M  V30 1389 H 146.552 -3.46433 -1.7583 0
M  V30 1390 H 148.224 -4.57327 0.604112 0
M  V30 1391 H 146.467 -4.291 0.636833 0
M  V30 1392 H 147.138 -5.50069 -0.461287 0
M  V30 1393 H 149.614 -3.87992 -1.50338 0
M  V30 1394 H 148.49 -4.94097 -2.39081 0
M  V30 1395 H 148.751 -3.29541 -2.94712 0
M  V30 1396 N 147.81 0.181792 -1.56548 0
M  V30 1397 C 148.74 1.22765 -1.98623 0
M  V30 1398 C 149.721 1.46747 -0.860189 0
M  V30 1399 O 150.906 1.58259 -1.12551 0
M  V30 1400 C 148.036 2.56894 -2.33715 0
M  V30 1401 C 146.99 2.475 -3.49182 0
M  V30 1402 C 146.316 3.86023 -3.69986 0
M  V30 1403 C 147.616 1.98866 -4.82959 0
M  V30 1404 H 149.31 0.877942 -2.86239 0
M  V30 1405 H 146.856 0.42088 -1.37712 0
M  V30 1406 H 148.809 3.30253 -2.61746 0
M  V30 1407 H 147.533 2.93632 -1.42997 0
M  V30 1408 H 146.192 1.76596 -3.21262 0
M  V30 1409 H 145.84 4.20136 -2.76576 0
M  V30 1410 H 145.54 3.80609 -4.47672 0
M  V30 1411 H 147.064 4.60984 -4.00407 0
M  V30 1412 H 148.478 2.61992 -5.09934 0
M  V30 1413 H 146.875 2.04424 -5.64208 0
M  V30 1414 H 147.945 0.942465 -4.75653 0
M  V30 1415 N 149.288 1.51039 0.449983 0
M  V30 1416 C 150.536 1.62759 1.19808 0
M  V30 1417 C 150.857 0.339981 1.92013 0
M  V30 1418 O 150.127 -0.643606 1.85026 0
M  V30 1419 H 148.707 0.599811 0.445237 0
M  V30 1420 H 151.369 1.87914 0.517138 0
M  V30 1421 H 150.465 2.44911 1.93455 0
M  V30 1422 N 150.766 -0.704594 1.40972 0
M  V30 1423 C 151.696 -1.83124 1.44872 0
M  V30 1424 C 152.677 -1.67281 0.30838 0
M  V30 1425 O 153.862 -1.87149 0.518556 0
M  V30 1426 C 150.992 -3.21181 1.32136 0
M  V30 1427 C 149.946 -3.51714 2.43888 0
M  V30 1428 C 149.272 -4.89032 2.16222 0
M  V30 1429 C 150.572 -3.516 3.86232 0
M  V30 1430 H 152.266 -1.80117 2.39161 0
M  V30 1431 H 149.812 -0.865145 1.15114 0
M  V30 1432 H 151.765 -3.99702 1.33479 0
M  V30 1433 H 150.489 -3.24791 0.343279 0
M  V30 1434 H 149.148 -2.75539 2.41813 0
M  V30 1435 H 148.796 -4.89256 1.16778 0
M  V30 1436 H 148.496 -5.10426 2.911 0
M  V30 1437 H 150.02 -5.69873 2.19265 0
M  V30 1438 H 151.434 -4.2014 3.9007 0
M  V30 1439 H 149.831 -3.84523 4.60719 0
M  V30 1440 H 150.901 -2.50757 4.15029 0
M  V30 1441 N 152.244 -1.26651 -0.937939 0
M  V30 1442 C 153.484 -1.13611 -1.69917 0
M  V30 1443 C 153.848 0.314687 -1.89404 0
M  V30 1444 O 155.049 0.567285 -2.62746 0
M  V30 1445 C 153.32 -1.88742 -3.03498 0
M  V30 1446 S 154.879 -1.91794 -3.94665 0
M  V30 1447 H 151.697 -0.405767 -0.583844 0
M  V30 1448 H 154.299 -1.60416 -1.11745 0
M  V30 1449 H 153.003 -2.9336 -2.86999 0
M  V30 1450 H 152.534 -1.42391 -3.66727 0
M  V30 1451 H 154.549 -1.00698 -4.85875 0
M  V30 1452 N 153.722 1.14298 -1.08507 0
M  V30 1453 C 154.962 1.87016 -0.824894 0
M  V30 1454 C 155.326 1.81099 0.637735 0
M  V30 1455 O 156.527 2.48963 1.01345 0
M  V30 1456 C 154.798 3.31584 -1.33368 0
M  V30 1457 S 156.357 4.21903 -1.20596 0
M  V30 1458 H 153.175 0.645259 -0.2986 0
M  V30 1459 H 155.777 1.37822 -1.38656 0
M  V30 1460 H 154.481 3.33439 -2.39262 0
M  V30 1461 H 154.012 3.85836 -0.767734 0
M  V30 1462 H 156.027 4.95971 -0.150891 0
M  V30 1463 N 155.201 0.870884 1.31352 0
M  V30 1464 C 156.426 0.495957 2.01383 0
M  V30 1465 C 156.851 -0.904324 1.64935 0
M  V30 1466 O 156.209 -1.59687 0.858466 0
M  V30 1467 C 156.257 0.661433 3.54482 0
M  V30 1468 O 155.361 -0.298851 4.11316 0
M  V30 1469 H 154.702 0.197158 0.634054 0
M  V30 1470 H 157.232 1.17455 1.67527 0
M  V30 1471 H 157.242 0.555072 4.04207 0
M  V30 1472 H 155.917 1.68246 3.8035 0
M  V30 1473 H 154.494 -0.147368 3.72609 0
M  V30 1474 N 156.679 -1.44442 0.630414 0
M  V30 1475 C 158.09 -1.85434 0.217063 0
M  V30 1476 C 158.441 -1.52748 -1.23136 0
M  V30 1477 O 157.566 -0.965205 -1.93682 0
M  V30 1478 C 158.161 -3.36581 0.387168 0
M  V30 1479 C 156.72 -3.76389 0.0283297 0
M  V30 1480 C 155.867 -2.68296 0.700889 0
M  V30 1481 H 158.818 -1.34919 0.83562 0
M  V30 1482 H 158.839 -3.78657 -0.374086 0
M  V30 1483 H 158.351 -3.60339 1.44144 0
M  V30 1484 H 156.452 -3.58246 -1.02423 0
M  V30 1485 H 156.565 -4.77095 0.437892 0
M  V30 1486 H 154.929 -2.54335 0.136267 0
M  V30 1487 H 155.712 -2.94887 1.75774 0
M  V30 1488 N 158.157 -0.370918 -1.53173 0
M  V30 1489 C 159.434 0.273754 -1.93675 0
M  V30 1490 C 159.814 1.65938 -1.3049 0
M  V30 1491 O 159.162 2.23698 -0.465999 0
M  V30 1492 C 159.372 0.318602 -3.47543 0
M  V30 1493 C 160.72 0.556392 -4.20939 0
M  V30 1494 O 161.744 0.399587 -3.53952 0
M  V30 1495 O 160.603 0.862133 -5.39657 0
M  V30 1496 H 157.697 0.165448 -0.810281 0
M  V30 1497 H 160.243 -0.42409 -1.64315 0
M  V30 1498 H 159.015 -0.652687 -3.85818 0
M  V30 1499 H 158.638 1.06212 -3.83151 0
M  V30 1500 N 159.635 1.57281 -0.100228 0
M  V30 1501 C 160.883 1.94153 0.561157 0
M  V30 1502 C 161.204 0.983157 1.68401 0
M  V30 1503 O 160.474 0.0361132 1.95867 0
M  V30 1504 H 159.054 0.716791 0.210283 0
M  V30 1505 H 161.716 1.94202 -0.164765 0
M  V30 1506 H 160.812 2.96709 0.968008 0
M  V30 1507 N 161.113 -0.173488 1.56642 0
M  V30 1508 C 162.353 -0.896984 1.83667 0
M  V30 1509 C 162.717 -1.79523 0.680842 0
M  V30 1510 O 163.918 -2.55616 0.831488 0
M  V30 1511 C 162.189 -1.67351 3.15798 0
M  V30 1512 S 163.748 -2.44607 3.64298 0
M  V30 1513 H 160.566 -0.300464 0.644393 0
M  V30 1514 H 163.168 -0.158775 1.94854 0
M  V30 1515 H 161.872 -1.00462 3.97914 0
M  V30 1516 H 161.403 -2.45313 3.07546 0
M  V30 1517 H 163.418 -3.69261 3.31452 0
M  V30 1518 N 162.591 -1.51276 -0.441967 0
M  V30 1519 C 163.541 -1.6864 -1.53442 0
M  V30 1520 C 164.525 -0.540444 -1.51552 0
M  V30 1521 O 165.717 -0.796157 -1.58083 0
M  V30 1522 C 162.846 -1.8106 -2.91672 0
M  V30 1523 C 161.932 -3.01424 -2.98336 0
M  V30 1524 N 162.323 -4.2467 -2.74752 0
M  V30 1525 C 160.621 -3.00584 -3.29493 0
M  V30 1526 C 161.322 -5.05891 -2.87139 0
M  V30 1527 N 160.298 -4.40442 -3.18609 0
M  V30 1528 H 164.1 -2.61598 -1.33954 0
M  V30 1529 H 161.614 -1.4886 -0.6492 0
M  V30 1530 H 163.611 -1.91609 -3.70259 0
M  V30 1531 H 162.271 -0.892795 -3.12185 0
M  V30 1532 H 163.282 -4.53691 -2.49769 0
M  V30 1533 H 159.959 -2.18417 -3.55809 0
M  V30 1534 H 161.349 -6.13983 -2.72899 0
M  V30 1535 N 164.069 0.697108 -1.41344 0
M  V30 1536 C 165.032 1.79281 -1.42797 0
M  V30 1537 C 166.032 1.57607 -0.318837 0
M  V30 1538 O 167.222 1.64309 -0.578642 0
M  V30 1539 C 164.354 3.17632 -1.23785 0
M  V30 1540 H 165.547 1.79385 -2.40335 0
M  V30 1541 H 163.1 0.904582 -1.27464 0
M  V30 1542 H 163.835 3.23167 -0.270814 0
M  V30 1543 H 163.62 3.34765 -2.04144 0
M  V30 1544 H 165.11 3.97617 -1.27633 0
M  V30 1545 N 165.547 1.27147 0.931209 0
M  V30 1546 C 166.824 1.0401 1.65654 0
M  V30 1547 C 167.204 -0.426297 2.06751 0
M  V30 1548 O 166.552 -1.40879 1.79904 0
M  V30 1549 C 166.762 1.99834 2.86125 0
M  V30 1550 C 168.11 2.29007 3.57549 0
M  V30 1551 O 169.134 1.97779 2.96246 0
M  V30 1552 O 167.993 2.82222 4.67989 0
M  V30 1553 H 165.087 0.396239 0.725895 0
M  V30 1554 H 167.633 1.38397 0.982056 0
M  V30 1555 H 166.405 2.98744 2.52721 0
M  V30 1556 H 166.028 1.65987 3.61295 0
M  V30 1557 N 167.025 -1.13721 1.09112 0
M  V30 1558 C 168.436 -1.6648 0.845068 0
M  V30 1559 C 168.787 -1.85911 -0.62701 0
M  V30 1560 O 167.912 -1.57556 -1.48341 0
M  V30 1561 C 168.507 -3.02413 1.52748 0
M  V30 1562 C 167.066 -3.52176 1.32849 0
M  V30 1563 C 166.213 -2.27492 1.58564 0
M  V30 1564 H 169.164 -0.976872 1.25072 0
M  V30 1565 H 169.185 -3.68223 0.958752 0
M  V30 1566 H 168.697 -2.88238 2.59885 0
M  V30 1567 H 166.798 -3.7156 0.278137 0
M  V30 1568 H 166.911 -4.32499 2.0611 0
M  V30 1569 H 165.275 -2.33923 1.00758 0
M  V30 1570 H 166.058 -2.15886 2.66924 0
M  V30 1571 N 168.503 -0.877838 -1.30888 0
M  V30 1572 C 169.466 -0.344265 -2.266 0
M  V30 1573 C 170.466 0.50922 -1.52524 0
M  V30 1574 O 171.656 0.317398 -1.71284 0
M  V30 1575 C 168.788 0.510198 -3.37061 0
M  V30 1576 H 169.981 -1.1893 -2.7531 0
M  V30 1577 H 167.534 -0.654088 -1.41956 0
M  V30 1578 H 168.269 1.37612 -2.93655 0
M  V30 1579 H 168.054 -0.101047 -3.9197 0
M  V30 1580 H 169.544 0.875537 -4.08319 0
M  V30 1581 N 169.982 1.44106 -0.638065 0
M  V30 1582 C 171.222 2.03858 -0.148733 0
M  V30 1583 C 171.586 1.49153 1.20903 0
M  V30 1584 O 172.787 2.00452 1.79088 0
M  V30 1585 C 171.058 3.57117 -0.142314 0
M  V30 1586 S 172.617 4.37897 0.281385 0
M  V30 1587 H 169.435 0.708069 -0.0644912 0
M  V30 1588 H 172.037 1.7639 -0.843009 0
M  V30 1589 H 170.741 3.94436 -1.13349 0
M  V30 1590 H 170.272 3.89205 0.572988 0
M  V30 1591 H 172.287 4.72218 1.52395 0
M  V30 1592 N 171.46 0.379036 1.52974 0
M  V30 1593 C 172.737 -0.263479 1.93817 0
M  V30 1594 C 173.117 -1.65244 1.31368 0
M  V30 1595 O 172.465 -2.23448 0.477856 0
M  V30 1596 C 172.675 -0.300166 3.47707 0
M  V30 1597 C 174.023 -0.534061 4.21228 0
M  V30 1598 O 175.047 -0.38081 3.54159 0
M  V30 1599 O 173.906 -0.833501 5.40106 0
M  V30 1600 H 171 -0.161149 0.811147 0
M  V30 1601 H 173.546 0.432798 1.64088 0
M  V30 1602 H 172.318 0.673138 3.85467 0
M  V30 1603 H 171.941 -1.04179 3.83709 0
M  V30 1604 N 172.938 -1.57226 0.108567 0
M  V30 1605 C 173.901 -2.13602 -0.831082 0
M  V30 1606 C 174.901 -1.06841 -1.20173 0
M  V30 1607 O 176.091 -1.32666 -1.12895 0
M  V30 1608 C 173.223 -2.66769 -2.12243 0
M  V30 1609 H 174.416 -2.97951 -0.341317 0
M  V30 1610 H 171.969 -1.55667 -0.14057 0
M  V30 1611 H 172.704 -1.85977 -2.65675 0
M  V30 1612 H 172.489 -3.44839 -1.86625 0
M  V30 1613 H 173.979 -3.10332 -2.79435 0
M  V30 1614 N 174.416 0.165178 -1.56732 0
M  V30 1615 C 175.326 1.22423 -2.00125 0
M  V30 1616 C 176.342 1.48084 -0.913619 0
M  V30 1617 O 177.518 1.60112 -1.22172 0
M  V30 1618 C 174.583 2.54197 -2.35764 0
M  V30 1619 C 173.644 2.36343 -3.58386 0
M  V30 1620 C 172.877 3.61834 -3.92316 0
M  V30 1621 O 173.1 4.67267 -3.27135 0
M  V30 1622 O 172.034 3.55579 -4.85641 0
M  V30 1623 H 175.86 0.885886 -2.90492 0
M  V30 1624 H 173.445 0.372518 -1.44681 0
M  V30 1625 H 175.327 3.3192 -2.59629 0
M  V30 1626 H 174.002 2.87598 -1.48557 0
M  V30 1627 H 172.909 1.56632 -3.39731 0
M  V30 1628 H 174.242 2.07865 -4.46154 0
M  V30 1629 N 175.894 1.51508 0.433938 0
M  V30 1630 C 176.857 1.72473 1.50949 0
M  V30 1631 C 177.857 0.594725 1.49398 0
M  V30 1632 O 179.047 0.862315 1.5136 0
M  V30 1633 C 176.179 1.78431 2.90474 0
M  V30 1634 H 177.372 2.68467 1.33662 0
M  V30 1635 H 174.925 1.41549 0.662836 0
M  V30 1636 H 175.66 0.842645 3.13161 0
M  V30 1637 H 175.445 2.60558 2.93005 0
M  V30 1638 H 176.935 1.96479 3.68491 0
M  V30 1639 N 177.372 -0.689602 1.41712 0
M  V30 1640 C 178.6 -1.47827 1.44758 0
M  V30 1641 C 179.015 -1.88721 0.0545703 0
M  V30 1642 O 178.372 -1.57176 -0.927463 0
M  V30 1643 C 178.423 -2.73698 2.3616 0
M  V30 1644 O 178.144 -2.34524 3.7004 0
M  V30 1645 C 179.645 -3.67389 2.48072 0
M  V30 1646 H 176.865 -0.455357 0.49284 0
M  V30 1647 H 179.409 -0.848574 1.86063 0
M  V30 1648 H 177.564 -3.32891 1.98148 0
M  V30 1649 H 177.978 -3.15701 4.18847 0
M  V30 1650 H 179.452 -4.52475 3.16181 0
M  V30 1651 H 179.929 -4.12284 1.51388 0
M  V30 1652 H 180.535 -3.14097 2.86746 0
M  V30 1653 N 178.85 -1.27639 -0.924453 0
M  V30 1654 C 180.097 -1.14167 -1.67249 0
M  V30 1655 C 180.425 0.311863 -1.91984 0
M  V30 1656 O 179.68 1.24425 -1.51053 0
M  V30 1657 C 179.979 -1.87407 -3.04325 0
M  V30 1658 C 179.645 -3.37249 -2.99289 0
M  V30 1659 C 178.307 -3.7812 -2.97622 0
M  V30 1660 C 180.659 -4.32845 -2.90336 0
M  V30 1661 C 177.987 -5.12944 -2.8479 0
M  V30 1662 C 180.339 -5.6773 -2.79045 0
M  V30 1663 C 179.003 -6.07889 -2.7573 0
M  V30 1664 H 178.273 -0.417766 -0.612007 0
M  V30 1665 H 180.92 -1.58286 -1.07786 0
M  V30 1666 H 179.225 -1.35805 -3.67511 0
M  V30 1667 H 180.922 -1.74408 -3.61086 0
M  V30 1668 H 177.512 -3.04748 -3.01374 0
M  V30 1669 H 181.696 -4.02239 -2.90719 0
M  V30 1670 H 176.952 -5.432 -2.80612 0
M  V30 1671 H 181.126 -6.41472 -2.71083 0
M  V30 1672 H 178.753 -7.12314 -2.65544 0
M  V30 1673 N 180.328 1.1314 -1.09713 0
M  V30 1674 C 181.553 1.88862 -0.857081 0
M  V30 1675 C 181.978 1.78729 0.586304 0
M  V30 1676 O 181.336 1.13692 1.41222 0
M  V30 1677 C 181.384 3.36325 -1.30069 0
M  V30 1678 O 180.488 4.09815 -0.461007 0
M  V30 1679 H 179.829 0.587108 -0.310162 0
M  V30 1680 H 182.359 1.43129 -1.46203 0
M  V30 1681 H 182.369 3.87157 -1.28738 0
M  V30 1682 H 181.044 3.43017 -2.35185 0
M  V30 1683 H 179.621 3.68986 -0.538888 0
M  V30 1684 N 181.806 0.884767 1.30421 0
M  V30 1685 C 182.738 0.308655 2.27112 0
M  V30 1686 C 183.751 -0.536655 1.53701 0
M  V30 1687 O 184.94 -0.35624 1.74909 0
M  V30 1688 C 182.04 -0.579782 3.33904 0
M  V30 1689 C 181.213 0.236417 4.36761 0
M  V30 1690 C 180.272 -0.582482 5.22966 0
M  V30 1691 O 179.298 -0.00525502 5.692 0
M  V30 1692 N 180.5 -1.89163 5.48815 0
M  V30 1693 H 183.265 1.13964 2.77186 0
M  V30 1694 H 180.826 0.747731 1.43599 0
M  V30 1695 H 182.818 -1.13366 3.88497 0
M  V30 1696 H 181.388 -1.31144 2.83761 0
M  V30 1697 H 180.608 0.97174 3.82035 0
M  V30 1698 H 181.896 0.795924 5.02536 0
M  V30 1699 H 181.294 -2.38352 5.13035 0
M  V30 1700 H 179.851 -2.39296 6.06284 0
M  V30 1701 N 183.284 -1.43765 0.645699 0
M  V30 1702 C 184.7 -1.56509 0.312591 0
M  V30 1703 C 184.9 -1.6307 -1.18365 0
M  V30 1704 O 183.956 -1.58167 -1.96824 0
M  V30 1705 C 185.269 -2.82968 1.01733 0
M  V30 1706 C 186.817 -2.96701 0.996865 0
M  V30 1707 C 187.292 -4.25982 1.68236 0
M  V30 1708 N 188.783 -4.32829 1.64964 0
M  V30 1709 C 189.518 -5.31613 2.14885 0
M  V30 1710 N 189.014 -6.36718 2.73061 0
M  V30 1711 N 190.807 -5.23217 2.05428 0
M  V30 1712 H 182.958 -1.3775 1.61675 0
M  V30 1713 H 185.221 -0.661067 0.679481 0
M  V30 1714 H 184.927 -2.84156 2.0724 0
M  V30 1715 H 184.801 -3.72957 0.564177 0
M  V30 1716 H 187.188 -2.95058 -0.0497719 0
M  V30 1717 H 187.269 -2.08022 1.48865 0
M  V30 1718 H 186.913 -4.28386 2.72852 0
M  V30 1719 H 186.843 -5.13545 1.16529 0
M  V30 1720 H 189.334 -3.57493 1.22503 0
M  V30 1721 H 189.647 -7.08401 3.08848 0
M  V30 1722 H 187.992 -6.37362 2.77118 0
M  V30 1723 H 191.183 -4.40019 1.59689 0
M  V30 1724 H 191.356 -6.00045 2.44643 0
M  V30 1725 O 184.801 -0.529329 -1.52579 0
M  V30 1726 H 185.492 -0.019233 -1.9369 0
M  V30 END ATOM
M  V30 BEGIN BOND
M  V30 END BOND
M  V30 END CTAB
M  END
$$$$
