drugbank_target|P50613 Cyclin-dependent kinase 7 (DB02482; DB03496; DB05969; DB06195)
 OpenBabel12092120023D

  0  0  0     0  0            999 V3000
M  V30 BEGIN CTAB
M  V30 COUNTS 5558 5622 0 0 0
M  V30 BEGIN ATOM
M  V30 1 H -0.908 1.98254 -0.117106 0
M  V30 2 N 0 1.576 0 0
M  V30 3 C 0.933 2.03868 1.02534 0
M  V30 4 C 1.911 0.928543 1.3348 0
M  V30 5 O 3.095 1.19667 1.45644 0
M  V30 6 C 0.222 2.43627 2.35294 0
M  V30 7 C -0.732 3.65373 2.2001 0
M  V30 8 S 0.101 5.13292 1.52614 0
M  V30 9 C 1.257 5.56322 2.86805 0
M  V30 10 H 1.49 2.90518 0.631377 0
M  V30 11 H -0.977 1.52953 0.210867 0
M  V30 12 H 0.981 2.67203 3.11629 0
M  V30 13 H -0.358 1.57376 2.7183 0
M  V30 14 H -1.165 3.90944 3.18086 0
M  V30 15 H -1.563 3.418 1.51819 0
M  V30 16 H 0.729 5.58782 3.83104 0
M  V30 17 H 1.672 6.56266 2.65933 0
M  V30 18 H 2.08 4.83886 2.90714 0
M  V30 19 N 1.4781 -0.272755 1.55222 0
M  V30 20 C 2.4411 -1.32041 1.87344 0
M  V30 21 C 3.4411 -1.42342 0.74803 0
M  V30 22 O 4.6311 -1.41488 1.0162 0
M  V30 23 C 1.7631 -2.70173 2.07893 0
M  V30 24 H 2.9561 -1.04789 2.80997 0
M  V30 25 H 0.5091 -0.51083 1.47717 0
M  V30 26 H 1.2441 -3.02605 1.16622 0
M  V30 27 H 1.0291 -2.64082 2.89833 0
M  V30 28 H 2.5191 -3.45869 2.34017 0
M  V30 29 N 2.9562 -1.48159 -0.537278 0
M  V30 30 C 3.8862 -1.65029 -1.6519 0
M  V30 31 C 4.8672 -0.499281 -1.62607 0
M  V30 32 O 6.0522 -0.730972 -1.79918 0
M  V30 33 C 3.1822 -1.68303 -3.03795 0
M  V30 34 C 2.1362 -2.8283 -3.21234 0
M  V30 35 C 1.4622 -2.71189 -4.60826 0
M  V30 36 C 2.7622 -4.24211 -3.04701 0
M  V30 37 H 4.4562 -2.58341 -1.51328 0
M  V30 38 H 2.0022 -1.24325 -0.726585 0
M  V30 39 H 3.9552 -1.78693 -3.81637 0
M  V30 40 H 2.6792 -0.715635 -3.18663 0
M  V30 41 H 1.3382 -2.71983 -2.45807 0
M  V30 42 H 0.9862 -1.72435 -4.7252 0
M  V30 43 H 0.6862 -3.48035 -4.7344 0
M  V30 44 H 2.2102 -2.83537 -5.40777 0
M  V30 45 H 3.6242 -4.3593 -3.72341 0
M  V30 46 H 2.0212 -5.01998 -3.28813 0
M  V30 47 H 3.0912 -4.41184 -2.01209 0
M  V30 48 N 4.4343 0.785586 -1.36625 0
M  V30 49 C 5.7113 1.53198 -1.21613 0
M  V30 50 C 6.0913 2.10187 0.196113 0
M  V30 51 O 5.4393 1.94318 1.20219 0
M  V30 52 C 5.6493 2.62388 -2.30116 0
M  V30 53 C 6.9973 3.30167 -2.66974 0
M  V30 54 O 8.0213 2.72674 -2.29188 0
M  V30 55 O 6.8803 4.34077 -3.32023 0
M  V30 56 H 3.9743 0.677865 -0.473738 0
M  V30 57 H 6.5203 0.823739 -1.48367 0
M  V30 58 H 5.2923 2.18299 -3.24748 0
M  V30 59 H 4.9153 3.40827 -2.0475 0
M  V30 60 N 5.9124 1.20967 1.01018 0
M  V30 61 C 7.1584 1.02526 1.74975 0
M  V30 62 C 7.4914 -0.4408 1.89131 0
M  V30 63 O 6.7664 -1.32718 1.42184 0
M  V30 64 C 7.0494 1.71699 3.1653 0
M  V30 65 C 6.9024 3.25791 3.10129 0
M  V30 66 C 8.2214 1.45531 4.15342 0
M  V30 67 H 5.3404 0.373863 0.635134 0
M  V30 68 H 7.9824 1.49071 1.17805 0
M  V30 69 H 6.1324 1.32128 3.65341 0
M  V30 70 H 7.8044 3.74697 2.69072 0
M  V30 71 H 6.0474 3.56363 2.47362 0
M  V30 72 H 6.7184 3.69353 4.10222 0
M  V30 73 H 9.1944 1.79872 3.75213 0
M  V30 74 H 8.0704 1.96453 5.1254 0
M  V30 75 H 8.3314 0.384237 4.40427 0
M  V30 76 N 7.3905 -1.2043 1.01659 0
M  V30 77 C 8.3375 -2.23215 0.586822 0
M  V30 78 C 9.3075 -1.61382 -0.393085 0
M  V30 79 O 10.4925 -1.88544 -0.292525 0
M  V30 80 C 7.6325 -3.45032 -0.0687464 0
M  V30 81 C 6.7455 -4.21296 0.955724 0
M  V30 82 C 5.8805 -5.30507 0.271208 0
M  V30 83 C 4.9195 -5.98515 1.28244 0
M  V30 84 N 4.0565 -6.99316 0.62459 0
M  V30 85 H 8.8965 -2.59336 1.46796 0
M  V30 86 H 6.4335 -1.27431 0.734836 0
M  V30 87 H 8.3915 -4.1459 -0.465965 0
M  V30 88 H 7.0215 -3.09604 -0.913529 0
M  V30 89 H 6.0735 -3.50803 1.4711 0
M  V30 90 H 7.3855 -4.6803 1.72479 0
M  V30 91 H 6.5395 -6.06428 -0.18151 0
M  V30 92 H 5.2785 -4.8481 -0.530163 0
M  V30 93 H 4.2835 -5.21355 1.74554 0
M  V30 94 H 5.5085 -6.46298 2.08509 0
M  V30 95 H 3.4545 -6.55812 -0.156914 0
M  V30 96 H 3.3715 -7.44178 1.33172 0
M  V30 97 H 4.6395 -7.79255 0.195462 0
M  V30 98 N 8.8686 -0.792821 -1.36206 0
M  V30 99 C 10.0936 -0.377701 -2.03932 0
M  V30 100 C 10.5186 0.998947 -1.59382 0
M  V30 101 O 9.8766 1.64421 -0.763903 0
M  V30 102 C 9.9246 -0.453635 -3.57735 0
M  V30 103 O 9.0286 0.538151 -4.08874 0
M  V30 104 H 8.3696 -0.159855 -0.644471 0
M  V30 105 H 10.8996 -1.07488 -1.7409 0
M  V30 106 H 10.9096 -0.318464 -4.06755 0
M  V30 107 H 9.5846 -1.45784 -3.89512 0
M  V30 108 H 8.1616 0.364359 -3.71116 0
M  V30 109 N 10.3467 1.47872 -0.545128 0
M  V30 110 C 11.7627 1.5829 -0.204032 0
M  V30 111 C 11.9627 1.54529 1.29317 0
M  V30 112 O 11.0187 1.44232 2.07252 0
M  V30 113 C 12.3317 2.89304 -0.819987 0
M  V30 114 C 13.8797 3.02864 -0.790105 0
M  V30 115 C 14.3547 4.3656 -1.38491 0
M  V30 116 N 15.8457 4.43165 -1.34755 0
M  V30 117 C 16.5807 5.45153 -1.77753 0
M  V30 118 N 16.0767 6.54016 -2.2855 0
M  V30 119 N 17.8697 5.36125 -1.68897 0
M  V30 120 H 10.0207 1.4856 -1.51802 0
M  V30 121 H 12.2837 0.706305 -0.632327 0
M  V30 122 H 11.9897 2.97757 -1.87173 0
M  V30 123 H 11.8637 3.75957 -0.305915 0
M  V30 124 H 14.2507 2.94014 0.252913 0
M  V30 125 H 14.3317 2.17782 -1.34181 0
M  V30 126 H 13.9757 4.46164 -2.42693 0
M  V30 127 H 13.9057 5.20353 -0.808754 0
M  V30 128 H 16.3967 3.65083 -0.975855 0
M  V30 129 H 16.7097 7.27994 -2.59314 0
M  V30 130 H 15.0547 6.54938 -2.32553 0
M  V30 131 H 18.2457 4.49975 -1.28998 0
M  V30 132 H 18.4187 6.15472 -2.02726 0
M  V30 133 N 11.8248 0.280983 1.55075 0
M  V30 134 C 12.7878 -0.590896 2.21452 0
M  V30 135 C 13.7878 -1.07682 1.19421 0
M  V30 136 O 14.9778 -0.97605 1.44288 0
M  V30 137 C 12.1098 -1.81587 2.88511 0
M  V30 138 H 13.3028 -0.0112554 2.99898 0
M  V30 139 H 10.8558 0.0316438 1.56268 0
M  V30 140 H 11.5908 -2.43587 2.14093 0
M  V30 141 H 11.3758 -1.4753 3.63287 0
M  V30 142 H 12.8658 -2.43575 3.39206 0
M  V30 143 N 13.3029 -1.57598 0.00835791 0
M  V30 144 C 14.2499 -2.08945 -0.980346 0
M  V30 145 C 15.2199 -0.986738 -1.33614 0
M  V30 146 O 16.4049 -1.25968 -1.43306 0
M  V30 147 C 13.5449 -2.60425 -2.26435 0
M  V30 148 C 12.6579 -3.84628 -1.96685 0
M  V30 149 C 11.7929 -4.24579 -3.19228 0
M  V30 150 C 10.8319 -5.41596 -2.85202 0
M  V30 151 N 9.9689 -5.768 -4.00307 0
M  V30 152 H 14.8089 -2.93148 -0.535551 0
M  V30 153 H 12.3459 -1.44912 -0.252776 0
M  V30 154 H 14.3039 -2.88354 -3.01509 0
M  V30 155 H 12.9339 -1.79083 -2.68568 0
M  V30 156 H 11.9859 -3.63556 -1.11942 0
M  V30 157 H 13.2979 -4.69796 -1.67611 0
M  V30 158 H 12.4519 -4.53834 -4.02641 0
M  V30 159 H 11.1909 -3.38137 -3.51447 0
M  V30 160 H 10.1959 -5.12056 -2.00198 0
M  V30 161 H 11.4209 -6.29721 -2.54222 0
M  V30 162 H 9.3669 -4.93316 -4.32407 0
M  V30 163 H 9.2839 -6.5656 -3.74786 0
M  V30 164 H 10.5519 -6.10652 -4.84484 0
M  V30 165 N 14.781 0.264519 -1.55364 0
M  V30 166 C 16.197 0.61215 -1.47394 0
M  V30 167 C 16.397 1.89134 -0.695018 0
M  V30 168 O 15.453 2.51563 -0.217275 0
M  V30 169 C 16.766 0.731235 -2.91674 0
M  V30 170 C 18.314 0.82473 -3.01939 0
M  V30 171 C 18.789 0.975522 -4.4749 0
M  V30 172 N 20.28 1.04083 -4.51354 0
M  V30 173 C 21.015 1.17646 -5.61201 0
M  V30 174 N 20.511 1.27874 -6.80896 0
M  V30 175 N 22.304 1.20823 -5.48961 0
M  V30 176 H 14.455 -0.575456 -2.04456 0
M  V30 177 H 16.718 -0.196099 -0.927496 0
M  V30 178 H 16.424 -0.138392 -3.51428 0
M  V30 179 H 16.298 1.60883 -3.41169 0
M  V30 180 H 18.685 1.68482 -2.42276 0
M  V30 181 H 18.766 -0.0776479 -2.55682 0
M  V30 182 H 18.41 0.120058 -5.07758 0
M  V30 183 H 18.34 1.89268 -4.91412 0
M  V30 184 H 20.831 0.973846 -3.65136 0
M  V30 185 H 21.144 1.38081 -7.60364 0
M  V30 186 H 19.489 1.24863 -6.83692 0
M  V30 187 H 22.68 1.12469 -4.54388 0
M  V30 188 H 22.853 1.31049 -6.3461 0
M  V30 189 N 16.2591 1.48442 0.529413 0
M  V30 190 C 17.4891 1.59919 1.30804 0
M  V30 191 C 17.8971 0.258792 1.87422 0
M  V30 192 O 17.2401 -0.762096 1.67146 0
M  V30 193 C 17.3021 2.58693 2.49636 0
M  V30 194 C 16.9661 4.03745 2.14101 0
M  V30 195 C 17.9631 4.9141 1.6974 0
M  V30 196 C 15.6481 4.49285 2.24607 0
M  V30 197 C 17.6421 6.22645 1.36351 0
M  V30 198 C 15.3291 5.8054 1.9083 0
M  V30 199 C 16.3271 6.67043 1.46773 0
M  V30 200 O 16.0151 7.95856 1.1344 0
M  V30 201 H 15.7471 0.541981 0.404021 0
M  V30 202 H 18.3011 1.95 0.645309 0
M  V30 203 H 16.5311 2.18734 3.18892 0
M  V30 204 H 18.2201 2.59999 3.11698 0
M  V30 205 H 18.9861 4.57465 1.61094 0
M  V30 206 H 14.8651 3.82142 2.57854 0
M  V30 207 H 18.4091 6.90119 1.01891 0
M  V30 208 H 14.3061 6.14022 1.99117 0
M  V30 209 H 15.0741 8.08613 1.26832 0
M  V30 210 N 17.7372 -0.778329 1.37039 0
M  V30 211 C 18.6472 -1.92253 1.34446 0
M  V30 212 C 19.6632 -1.72267 0.244991 0
M  V30 213 O 20.8392 -1.95615 0.479258 0
M  V30 214 C 17.9042 -3.27282 1.144 0
M  V30 215 C 16.9652 -3.59969 2.33925 0
M  V30 216 C 16.1982 -4.88555 2.14825 0
M  V30 217 O 16.4212 -5.59113 1.12912 0
M  V30 218 O 15.3552 -5.20153 3.02861 0
M  V30 219 H 19.1812 -1.97392 2.30803 0
M  V30 220 H 16.7662 -0.920154 1.17701 0
M  V30 221 H 18.6482 -4.08062 1.05182 0
M  V30 222 H 17.3232 -3.23011 0.211124 0
M  V30 223 H 16.2302 -2.7945 2.48714 0
M  V30 224 H 17.5632 -3.68976 3.25757 0
M  V30 225 N 19.2153 -1.21501 -1.00376 0
M  V30 226 C 20.1623 -0.975387 -2.09177 0
M  V30 227 C 21.1323 0.0990615 -1.65804 0
M  V30 228 O 22.3173 -0.0483147 -1.90739 0
M  V30 229 C 19.4573 -0.547507 -3.40729 0
M  V30 230 C 18.5703 -1.69153 -3.97506 0
M  V30 231 C 17.7053 -1.2127 -5.17172 0
M  V30 232 C 16.7443 -2.32897 -5.66061 0
M  V30 233 N 15.8813 -1.86138 -6.76976 0
M  V30 234 H 20.7213 -1.9068 -2.29009 0
M  V30 235 H 18.2583 -0.950257 -1.12288 0
M  V30 236 H 20.2163 -0.280667 -4.16255 0
M  V30 237 H 18.8463 0.346904 -3.20931 0
M  V30 238 H 17.8983 -2.07298 -3.18954 0
M  V30 239 H 19.2103 -2.5316 -4.29781 0
M  V30 240 H 18.3643 -0.902591 -5.99948 0
M  V30 241 H 17.1033 -0.342692 -4.86495 0
M  V30 242 H 16.1083 -2.64709 -4.81881 0
M  V30 243 H 17.3333 -3.20396 -5.98768 0
M  V30 244 H 15.2793 -1.01484 -6.48103 0
M  V30 245 H 15.1963 -2.63717 -7.08512 0
M  V30 246 H 16.4643 -1.58165 -7.63285 0
M  V30 247 N 20.6934 1.19889 -1.02296 0
M  V30 248 C 21.6234 2.25141 -0.619174 0
M  V30 249 C 22.6044 1.66051 0.368915 0
M  V30 250 O 23.7894 1.92546 0.252941 0
M  V30 251 C 20.9194 3.4728 0.0368783 0
M  V30 252 C 19.8734 4.19005 -0.872865 0
M  V30 253 C 19.1994 5.34637 -0.0822402 0
M  V30 254 C 20.4994 4.74452 -2.18387 0
M  V30 255 H 22.1934 2.59171 -1.49903 0
M  V30 256 H 19.7394 1.24579 -0.722222 0
M  V30 257 H 21.6924 4.20098 0.330958 0
M  V30 258 H 20.4164 3.12433 0.95149 0
M  V30 259 H 19.0754 3.48061 -1.15105 0
M  V30 260 H 18.7234 4.96034 0.83422 0
M  V30 261 H 18.4234 5.83557 -0.688149 0
M  V30 262 H 19.9474 6.10255 0.205238 0
M  V30 263 H 21.3614 5.39055 -1.95172 0
M  V30 264 H 19.7584 5.33834 -2.74119 0
M  V30 265 H 20.8284 3.92844 -2.84257 0
M  V30 266 N 22.1715 0.800033 1.35784 0
M  V30 267 C 23.4485 0.30088 1.93272 0
M  V30 268 C 23.8285 -1.20857 1.73081 0
M  V30 269 O 23.1765 -2.00502 1.09596 0
M  V30 270 C 23.3865 0.70511 3.41803 0
M  V30 271 C 24.7345 0.690871 4.18942 0
M  V30 272 O 25.7585 0.646244 3.50289 0
M  V30 273 O 24.6175 0.74332 5.41421 0
M  V30 274 H 21.7115 0.0771605 0.823393 0
M  V30 275 H 24.2575 0.88329 1.449 0
M  V30 276 H 23.0295 1.74571 3.50201 0
M  V30 277 H 22.6525 0.0971541 3.97481 0
M  V30 278 N 23.6496 -1.47581 0.552962 0
M  V30 279 C 24.8966 -2.02482 0.0273243 0
M  V30 280 C 25.2246 -1.42776 -1.32081 0
M  V30 281 O 24.4796 -0.571393 -1.87173 0
M  V30 282 C 24.7786 -3.57199 -0.119728 0
M  V30 283 C 24.4446 -4.35804 1.15697 0
M  V30 284 C 23.1066 -4.57 1.50681 0
M  V30 285 C 25.4586 -4.81167 2.00319 0
M  V30 286 C 22.7866 -5.20807 2.70142 0
M  V30 287 C 25.1386 -5.46293 3.18978 0
M  V30 288 C 23.8026 -5.65722 3.54281 0
M  V30 289 H 23.0726 -0.740933 0.00999866 0
M  V30 290 H 25.7196 -1.77302 0.72362 0
M  V30 291 H 24.0246 -3.81348 -0.89896 0
M  V30 292 H 25.7216 -3.97324 -0.541718 0
M  V30 293 H 22.3116 -4.19582 0.874561 0
M  V30 294 H 26.4956 -4.64574 1.74599 0
M  V30 295 H 21.7516 -5.34045 2.97668 0
M  V30 296 H 25.9256 -5.80407 3.84838 0
M  V30 297 H 23.5526 -6.14936 4.46942 0
M  V30 298 N 25.1277 -0.289203 -1.54924 0
M  V30 299 C 26.0577 0.58549 -2.2604 0
M  V30 300 C 27.0387 1.14753 -1.25562 0
M  V30 301 O 28.2237 1.17906 -1.54311 0
M  V30 302 C 25.3537 1.76305 -2.99222 0
M  V30 303 C 24.3077 1.33191 -4.06748 0
M  V30 304 C 23.6337 2.5937 -4.6758 0
M  V30 305 C 24.9337 0.471775 -5.20165 0
M  V30 306 H 26.6277 -0.00763532 -2.99399 0
M  V30 307 H 24.1737 -0.00511229 -1.43999 0
M  V30 308 H 26.1267 2.38097 -3.47689 0
M  V30 309 H 24.8507 2.38223 -2.23422 0
M  V30 310 H 23.5097 0.737121 -3.59113 0
M  V30 311 H 23.1577 3.19576 -3.88433 0
M  V30 312 H 22.8577 2.31228 -5.40192 0
M  V30 313 H 24.3817 3.21985 -5.18804 0
M  V30 314 H 25.7957 0.995056 -5.64599 0
M  V30 315 H 24.1927 0.284639 -5.99425 0
M  V30 316 H 25.2627 -0.506041 -4.82252 0
M  V30 317 N 26.6058 1.57591 -0.0167156 0
M  V30 318 C 27.8538 1.90906 0.663285 0
M  V30 319 C 28.1748 0.892509 1.73376 0
M  V30 320 O 27.4448 -0.0677623 1.95783 0
M  V30 321 H 26.0248 0.704637 0.247983 0
M  V30 322 H 28.6868 1.94803 -0.0615909 0
M  V30 323 H 27.7828 2.9116 1.12393 0
M  V30 324 N 28.0839 -0.256276 1.55502 0
M  V30 325 C 28.9939 -1.33882 1.92647 0
M  V30 326 C 30.0099 -1.53159 0.825727 0
M  V30 327 O 31.1859 -1.66963 1.12629 0
M  V30 328 C 28.2509 -2.6751 2.20543 0
M  V30 329 C 27.3119 -2.56836 3.43997 0
M  V30 330 C 26.5449 -3.84092 3.70553 0
M  V30 331 O 26.7679 -4.85545 2.99336 0
M  V30 332 O 25.7019 -3.83288 4.64084 0
M  V30 333 H 29.5279 -1.05374 2.84833 0
M  V30 334 H 27.1129 -0.456237 1.42263 0
M  V30 335 H 28.9949 -3.46492 2.39835 0
M  V30 336 H 27.6699 -2.9577 1.31536 0
M  V30 337 H 26.5769 -1.76172 3.30021 0
M  V30 338 H 27.9099 -2.33523 4.33275 0
M  V30 339 N 29.562 -1.4872 -0.521534 0
M  V30 340 C 30.81 -1.56857 -1.27437 0
M  V30 341 C 31.131 -0.247982 -1.93417 0
M  V30 342 O 30.401 0.731151 -1.81744 0
M  V30 343 H 28.981 -0.577885 -0.473347 0
M  V30 344 H 31.643 -1.85233 -0.606205 0
M  V30 345 H 30.739 -2.35402 -2.0492 0
M  V30 346 N 31.0401 0.771051 -1.3745 0
M  V30 347 C 31.9721 1.89352 -1.29146 0
M  V30 348 C 32.9851 1.61477 -0.207124 0
M  V30 349 O 34.1741 1.72382 -0.463324 0
M  V30 350 C 31.2741 3.24596 -0.974195 0
M  V30 351 C 30.4471 3.80111 -2.16413 0
M  V30 352 C 29.5061 4.93832 -1.81703 0
M  V30 353 O 28.5321 5.09382 -2.54006 0
M  V30 354 N 29.7341 5.75483 -0.761573 0
M  V30 355 H 32.4991 1.96991 -2.25864 0
M  V30 356 H 30.0601 0.950191 -1.31084 0
M  V30 357 H 32.0521 3.98193 -0.722828 0
M  V30 358 H 30.6221 3.12454 -0.0955527 0
M  V30 359 H 29.8421 2.98284 -2.57721 0
M  V30 360 H 31.1301 4.13932 -2.95867 0
M  V30 361 H 30.5281 5.65469 -0.161609 0
M  V30 362 H 29.0851 6.49302 -0.570064 0
M  V30 363 N 32.5182 1.22032 0.997298 0
M  V30 364 C 33.7652 1.04222 1.73621 0
M  V30 365 C 34.0932 -0.423264 1.89839 0
M  V30 366 O 33.3482 -1.3302 1.43542 0
M  V30 367 C 33.6472 1.69345 3.14733 0
M  V30 368 C 33.3132 3.19226 3.18442 0
M  V30 369 C 31.9752 3.60124 3.19161 0
M  V30 370 C 34.3272 4.15181 3.15078 0
M  V30 371 C 31.6552 4.95467 3.14212 0
M  V30 372 C 34.0072 5.50495 3.1167 0
M  V30 373 C 32.6712 5.90779 3.10703 0
M  V30 374 H 31.9412 0.381374 0.635323 0
M  V30 375 H 34.5882 1.51732 1.16831 0
M  V30 376 H 32.8932 1.14147 3.74803 0
M  V30 377 H 34.5902 1.53059 3.7064 0
M  V30 378 H 31.1802 2.86659 3.18629 0
M  V30 379 H 35.3642 3.84605 3.13676 0
M  V30 380 H 30.6202 5.25916 3.11805 0
M  V30 381 H 34.7942 6.24576 3.08022 0
M  V30 382 H 32.4212 6.9562 3.06622 0
M  V30 383 N 33.9963 -1.19345 1.0293 0
M  V30 384 C 34.9593 -2.20793 0.615069 0
M  V30 385 C 35.9593 -1.57553 -0.321533 0
M  V30 386 O 37.1493 -1.73862 -0.108483 0
M  V30 387 C 34.2813 -3.40754 -0.0999222 0
M  V30 388 H 35.4743 -2.58955 1.51269 0
M  V30 389 H 33.0273 -1.3303 0.820534 0
M  V30 390 H 33.7623 -3.0811 -1.01187 0
M  V30 391 H 33.5473 -3.87889 0.57309 0
M  V30 392 H 35.0373 -4.15898 -0.376645 0
M  V30 393 N 35.4744 -0.807222 -1.35358 0
M  V30 394 C 36.7024 -0.400377 -2.02989 0
M  V30 395 C 37.1174 0.988859 -1.60832 0
M  V30 396 O 36.4744 1.63729 -0.806175 0
M  V30 397 C 36.5254 -0.474867 -3.58368 0
M  V30 398 O 36.2464 -1.80933 -3.98992 0
M  V30 399 C 37.7474 -0.0609112 -4.43258 0
M  V30 400 H 34.9674 -0.162587 -0.651004 0
M  V30 401 H 37.5114 -1.09102 -1.72965 0
M  V30 402 H 35.6664 0.167534 -3.87038 0
M  V30 403 H 36.0804 -1.77256 -4.9364 0
M  V30 404 H 37.5544 -0.164145 -5.51756 0
M  V30 405 H 38.0314 0.993831 -4.27808 0
M  V30 406 H 38.6374 -0.676492 -4.19885 0
M  V30 407 N 36.9525 1.47285 -0.560781 0
M  V30 408 C 38.1985 2.02764 -0.0381184 0
M  V30 409 C 38.5315 1.43384 1.30976 0
M  V30 410 O 37.8065 0.590733 1.85312 0
M  V30 411 C 38.0895 3.60064 0.0511427 0
M  V30 412 C 37.9425 4.2987 -1.32408 0
M  V30 413 C 39.2615 4.33439 0.762795 0
M  V30 414 H 36.3805 0.736841 -0.0153264 0
M  V30 415 H 39.0225 1.75675 -0.723759 0
M  V30 416 H 37.1725 3.83274 0.635065 0
M  V30 417 H 38.8445 4.17989 -1.95148 0
M  V30 418 H 37.0875 3.90085 -1.8978 0
M  V30 419 H 37.7585 5.38478 -1.21431 0
M  V30 420 H 40.2345 4.15243 0.266965 0
M  V30 421 H 39.1105 5.43124 0.794221 0
M  V30 422 H 39.3715 4.02915 1.81966 0
M  V30 423 N 38.4306 0.297415 1.54768 0
M  V30 424 C 39.6606 -0.315165 2.04182 0
M  V30 425 C 40.0686 -1.4834 1.17439 0
M  V30 426 O 39.4116 -1.82695 0.191891 0
M  V30 427 C 39.4736 -0.837583 3.49607 0
M  V30 428 C 39.1376 0.204912 4.5654 0
M  V30 429 C 40.1346 1.03214 5.09552 0
M  V30 430 C 37.8196 0.345578 5.0111 0
M  V30 431 C 39.8136 1.986 6.05671 0
M  V30 432 C 37.5006 1.30289 5.97049 0
M  V30 433 C 38.4986 2.12159 6.49213 0
M  V30 434 O 38.1866 3.06268 7.43273 0
M  V30 435 H 37.9186 -0.0729646 0.672051 0
M  V30 436 H 40.4726 0.433907 2.00765 0
M  V30 437 H 38.7026 -1.63712 3.50336 0
M  V30 438 H 40.3916 -1.36566 3.82236 0
M  V30 439 H 41.1576 0.934312 4.75916 0
M  V30 440 H 37.0366 -0.28171 4.60138 0
M  V30 441 H 40.5806 2.62542 6.46311 0
M  V30 442 H 36.4776 1.40145 6.30103 0
M  V30 443 H 37.2456 3.01205 7.61064 0
M  V30 444 N 39.9087 -1.5758 0.0250728 0
M  V30 445 C 40.8557 -2.09973 -0.958129 0
M  V30 446 C 41.8257 -1.00085 -1.3256 0
M  V30 447 O 43.0107 -1.27481 -1.41962 0
M  V30 448 C 40.1507 -2.62812 -2.2366 0
M  V30 449 C 39.2637 -3.86693 -1.92594 0
M  V30 450 C 38.3987 -4.27941 -3.14707 0
M  V30 451 C 37.4377 -5.44591 -2.79442 0
M  V30 452 N 36.5747 -5.81014 -3.94167 0
M  V30 453 H 41.4147 -2.937 -0.504428 0
M  V30 454 H 38.9517 -1.45172 -0.237392 0
M  V30 455 H 40.9097 -2.91536 -2.98434 0
M  V30 456 H 39.5397 -1.81922 -2.66654 0
M  V30 457 H 38.5917 -3.64723 -1.0808 0
M  V30 458 H 39.9037 -4.71547 -1.62619 0
M  V30 459 H 39.0577 -4.58079 -3.97804 0
M  V30 460 H 37.7967 -3.41845 -3.4784 0
M  V30 461 H 36.8017 -5.1415 -1.94755 0
M  V30 462 H 38.0267 -6.32382 -2.47528 0
M  V30 463 H 35.9727 -4.97874 -4.2715 0
M  V30 464 H 35.8897 -6.60498 -3.67801 0
M  V30 465 H 37.1577 -6.15756 -4.7798 0
M  V30 466 N 41.3868 0.248026 -1.55636 0
M  V30 467 C 42.3498 1.29044 -1.89421 0
M  V30 468 C 43.3498 1.41134 -0.770581 0
M  V30 469 O 44.5398 1.39854 -1.03858 0
M  V30 470 C 41.6718 2.66831 -2.12165 0
M  V30 471 H 42.8648 1.00305 -2.82629 0
M  V30 472 H 40.4178 0.487265 -1.48511 0
M  V30 473 H 41.1528 3.00711 -1.21422 0
M  V30 474 H 40.9378 2.59438 -2.93997 0
M  V30 475 H 42.4278 3.42103 -2.3949 0
M  V30 476 N 42.8649 1.48995 0.513639 0
M  V30 477 C 44.2809 1.35478 0.843682 0
M  V30 478 C 44.4809 0.378213 1.97919 0
M  V30 479 O 43.5369 -0.194689 2.51748 0
M  V30 480 C 44.8499 2.75901 1.1958 0
M  V30 481 C 46.3979 2.84509 1.30474 0
M  V30 482 C 46.8729 4.25671 1.69021 0
M  V30 483 N 48.3639 4.28422 1.76094 0
M  V30 484 C 49.0989 5.34601 2.07338 0
M  V30 485 N 48.5949 6.5104 2.36894 0
M  V30 486 N 50.3879 5.22007 2.08483 0
M  V30 487 H 42.5389 2.11092 -0.235328 0
M  V30 488 H 44.8019 0.947039 -0.0426669 0
M  V30 489 H 44.5079 3.49001 0.434913 0
M  V30 490 H 44.3819 3.10467 2.1422 0
M  V30 491 H 46.7689 2.11655 2.05637 0
M  V30 492 H 46.8499 2.53542 0.339155 0
M  V30 493 H 46.4939 4.99048 0.944135 0
M  V30 494 H 46.4239 4.54094 2.66658 0
M  V30 495 H 48.9149 3.44441 1.55464 0
M  V30 496 H 49.2279 7.2779 2.59887 0
M  V30 497 H 47.5729 6.54287 2.34378 0
M  V30 498 H 50.7639 4.30051 1.84861 0
M  V30 499 H 50.9369 6.04854 2.325 0
M  V30 500 N 44.343 -0.763751 1.37857 0
M  V30 501 C 45.62 -1.51244 1.24035 0
M  V30 502 C 46 -2.10472 -0.162649 0
M  V30 503 O 45.348 -1.96206 -1.17112 0
M  V30 504 C 45.558 -2.58694 2.34261 0
M  V30 505 C 46.906 -3.25878 2.72193 0
M  V30 506 O 47.93 -2.68993 2.33497 0
M  V30 507 O 46.789 -4.2874 3.38887 0
M  V30 508 H 43.883 -0.670243 0.484462 0
M  V30 509 H 46.429 -0.800031 1.49658 0
M  V30 510 H 45.201 -2.13105 3.2818 0
M  V30 511 H 44.824 -3.37527 2.10146 0
M  V30 512 N 45.8211 -1.22559 -0.990812 0
M  V30 513 C 46.7681 -0.997519 -2.0813 0
M  V30 514 C 47.7381 0.0814702 -1.659 0
M  V30 515 O 48.9231 -0.0685424 -1.90677 0
M  V30 516 C 46.0631 -0.583615 -3.40129 0
M  V30 517 C 45.1761 -1.7336 -3.9569 0
M  V30 518 C 44.3111 -1.26748 -5.15857 0
M  V30 519 C 43.3501 -2.38888 -5.63559 0
M  V30 520 N 42.4871 -1.93308 -6.74964 0
M  V30 521 H 47.3271 -1.93099 -2.26973 0
M  V30 522 H 44.8641 -0.962114 -1.11273 0
M  V30 523 H 46.8221 -0.324801 -4.15934 0
M  V30 524 H 45.4521 0.312845 -3.2128 0
M  V30 525 H 44.5041 -2.10669 -3.16738 0
M  V30 526 H 45.8161 -2.57704 -4.27071 0
M  V30 527 H 44.9701 -0.966173 -5.98957 0
M  V30 528 H 43.7091 -0.394272 -4.86104 0
M  V30 529 H 42.7141 -2.69805 -4.79046 0
M  V30 530 H 43.9391 -3.26728 -5.95336 0
M  V30 531 H 41.8851 -1.08352 -6.4699 0
M  V30 532 H 41.8021 -2.71217 -7.05675 0
M  V30 533 H 43.0701 -1.66252 -7.61564 0
M  V30 534 N 47.2992 1.18797 -1.03562 0
M  V30 535 C 48.2472 2.24297 -0.615905 0
M  V30 536 C 49.2412 1.65643 0.354808 0
M  V30 537 O 50.4472 1.78618 0.22265 0
M  V30 538 H 46.8222 0.729909 -0.180934 0
M  V30 539 H 48.7932 2.5701 -1.5162 0
M  V30 540 C 47.5422 3.47698 0.0104735 0
M  V30 541 H 46.8652 3.93125 -0.727509 0
M  V30 542 H 48.3052 4.23159 0.266995 0
M  V30 543 C 46.7642 3.12489 1.25905 0
M  V30 544 O 47.2942 3.25761 2.35038 0
M  V30 545 N 45.5002 2.6686 1.15039 0
M  V30 546 H 45.0472 2.56261 0.262328 0
M  V30 547 H 45.0052 2.43674 1.98672 0
M  V30 548 N 48.7773 0.814389 1.34928 0
M  V30 549 C 50.0053 0.411136 2.02774 0
M  V30 550 C 50.4203 -0.980316 1.61354 0
M  V30 551 O 49.7773 -1.63299 0.814847 0
M  V30 552 C 49.8283 0.493865 3.58111 0
M  V30 553 O 49.5493 1.83047 3.98027 0
M  V30 554 C 51.0503 0.0844174 4.4322 0
M  V30 555 H 48.2703 0.166037 0.650133 0
M  V30 556 H 50.8143 1.10018 1.72384 0
M  V30 557 H 48.9693 -0.147006 3.87121 0
M  V30 558 H 49.3833 1.79872 4.92693 0
M  V30 559 H 50.8573 0.193404 5.51661 0
M  V30 560 H 51.3343 -0.97113 4.28329 0
M  V30 561 H 51.9403 0.69875 4.19521 0
M  V30 562 N 50.2554 -1.46986 0.568584 0
M  V30 563 C 51.2034 -2.31858 -0.185649 0
M  V30 564 C 52.1974 -1.43624 -0.898249 0
M  V30 565 O 53.4034 -1.60327 -0.818242 0
M  V30 566 H 49.7784 -0.747866 -0.0787399 0
M  V30 567 H 51.7494 -2.93303 0.549191 0
M  V30 568 C 50.4984 -3.26513 -1.19519 0
M  V30 569 H 49.8214 -3.94377 -0.656285 0
M  V30 570 H 51.2614 -3.88707 -1.6936 0
M  V30 571 C 49.7204 -2.50847 -2.24894 0
M  V30 572 O 50.2504 -2.26119 -3.32014 0
M  V30 573 N 48.4564 -2.11656 -1.99124 0
M  V30 574 H 48.0034 -2.31966 -1.12024 0
M  V30 575 H 47.9614 -1.61347 -2.69842 0
M  V30 576 N 51.7335 -0.305618 -1.54608 0
M  V30 577 C 52.6655 0.602161 -2.21149 0
M  V30 578 C 53.6785 1.09394 -1.20569 0
M  V30 579 O 54.8675 1.0106 -1.47136 0
M  V30 580 C 51.9675 1.83692 -2.84799 0
M  V30 581 C 51.1405 1.48686 -4.11353 0
M  V30 582 C 50.1995 2.57725 -4.58764 0
M  V30 583 O 49.2255 2.22623 -5.23858 0
M  V30 584 N 50.4275 3.88346 -4.31471 0
M  V30 585 H 53.1925 0.0324966 -2.99682 0
M  V30 586 H 50.7535 -0.128021 -1.61393 0
M  V30 587 H 52.7455 2.55994 -3.13448 0
M  V30 588 H 51.3155 2.31486 -2.10078 0
M  V30 589 H 50.5355 0.596269 -3.89664 0
M  V30 590 H 51.8235 1.22842 -4.93748 0
M  V30 591 H 51.2215 4.19671 -3.79331 0
M  V30 592 H 49.7785 4.56932 -4.64818 0
M  V30 593 N 53.2116 1.57565 -0.0334293 0
M  V30 594 C 54.4606 1.91155 0.643639 0
M  V30 595 C 54.7736 0.91192 1.73042 0
M  V30 596 O 55.9796 1.13923 2.46442 0
M  V30 597 C 54.4356 3.39443 1.1961 0
M  V30 598 C 54.0436 4.47774 0.142381 0
M  V30 599 C 55.7876 3.82094 1.84944 0
M  V30 600 C 53.6946 5.87162 0.706727 0
M  V30 601 H 52.6246 0.713368 0.244176 0
M  V30 602 H 55.2756 1.8323 -0.0994323 0
M  V30 603 H 53.6576 3.42313 1.99092 0
M  V30 604 H 54.8316 4.56469 -0.630296 0
M  V30 605 H 53.1466 4.14352 -0.412446 0
M  V30 606 H 55.7436 4.83591 2.2813 0
M  V30 607 H 56.0866 3.17386 2.69392 0
M  V30 608 H 56.6196 3.81665 1.12145 0
M  V30 609 H 53.3586 6.55424 -0.0997178 0
M  V30 610 H 52.8786 5.82064 1.44779 0
M  V30 611 H 54.5576 6.35866 1.19514 0
M  V30 612 N 54.6897 -0.239769 1.55765 0
M  V30 613 C 55.9357 -0.968234 1.78194 0
M  V30 614 C 56.2687 -1.84701 0.599938 0
M  V30 615 O 55.5437 -1.9031 -0.401524 0
M  V30 616 C 55.8267 -1.8227 3.10564 0
M  V30 617 C 55.6797 -0.971633 4.3918 0
M  V30 618 C 56.9987 -2.80388 3.39221 0
M  V30 619 H 54.1177 -0.350572 0.648281 0
M  V30 620 H 56.7597 -0.238259 1.885 0
M  V30 621 H 54.9097 -2.44507 3.01908 0
M  V30 622 H 56.5817 -0.367408 4.59835 0
M  V30 623 H 54.8247 -0.276276 4.32919 0
M  V30 624 H 55.4957 -1.60346 5.28198 0
M  V30 625 H 57.9717 -2.28287 3.47885 0
M  V30 626 H 56.8477 -3.3729 4.33044 0
M  V30 627 H 57.1087 -3.57212 2.60484 0
M  V30 628 N 56.1678 -1.49265 -0.50573 0
M  V30 629 C 57.1308 -1.65075 -1.59006 0
M  V30 630 C 58.1308 -0.522768 -1.52065 0
M  V30 631 O 59.3208 -0.789117 -1.55302 0
M  V30 632 C 56.4528 -1.64369 -2.98656 0
M  V30 633 H 57.6458 -2.61784 -1.46319 0
M  V30 634 H 55.1988 -1.38226 -0.729616 0
M  V30 635 H 55.9338 -0.692272 -3.16825 0
M  V30 636 H 55.7188 -2.46282 -3.05103 0
M  V30 637 H 57.2088 -1.78674 -3.77446 0
M  V30 638 N 57.6459 0.756429 -1.3826 0
M  V30 639 C 58.8949 1.51082 -1.3363 0
M  V30 640 C 59.2079 1.95467 0.0720068 0
M  V30 641 O 60.4139 2.7043 0.240834 0
M  V30 642 C 58.8699 2.72893 -2.34644 0
M  V30 643 C 58.4779 2.35544 -3.81081 0
M  V30 644 C 60.2219 3.50791 -2.39052 0
M  V30 645 C 58.1289 3.53948 -4.73787 0
M  V30 646 H 57.0589 0.56727 -0.49671 0
M  V30 647 H 59.7099 0.827147 -1.638 0
M  V30 648 H 58.0919 3.43227 -1.97513 0
M  V30 649 H 59.2659 1.72894 -4.27135 0
M  V30 650 H 57.5809 1.70786 -3.79764 0
M  V30 651 H 60.1779 4.38823 -3.05513 0
M  V30 652 H 60.5209 3.91745 -1.40861 0
M  V30 653 H 61.0539 2.87467 -2.74968 0
M  V30 654 H 57.7929 3.18064 -5.73163 0
M  V30 655 H 57.3129 4.15651 -4.32428 0
M  V30 656 H 58.9919 4.20566 -4.91663 0
M  V30 657 N 59.124 1.23083 0.984299 0
M  V30 658 C 60.071 1.00854 2.07598 0
M  V30 659 C 61.041 -0.0726709 1.65941 0
M  V30 660 O 62.226 0.0786535 1.90638 0
M  V30 661 C 59.366 0.601645 3.39815 0
M  V30 662 C 58.479 1.75456 3.94765 0
M  V30 663 C 57.614 1.29482 5.15177 0
M  V30 664 C 56.653 2.41873 5.62284 0
M  V30 665 N 55.79 1.96885 6.73929 0
M  V30 666 H 60.63 1.943 2.25946 0
M  V30 667 H 58.167 0.968001 1.10762 0
M  V30 668 H 60.125 0.346854 4.15756 0
M  V30 669 H 58.755 -0.295803 3.21442 0
M  V30 670 H 57.807 2.12346 3.15616 0
M  V30 671 H 59.119 2.59965 4.25699 0
M  V30 672 H 58.273 0.997923 5.98437 0
M  V30 673 H 57.012 0.420046 4.85888 0
M  V30 674 H 56.017 2.72342 4.77608 0
M  V30 675 H 57.242 3.29881 5.93595 0
M  V30 676 H 55.188 1.11782 6.46406 0
M  V30 677 H 55.105 2.74956 7.04227 0
M  V30 678 H 56.373 1.70289 7.60672 0
M  V30 679 N 60.6021 -1.18246 1.0419 0
M  V30 680 C 61.5491 -2.2192 0.634037 0
M  V30 681 C 62.5191 -1.62179 -0.358765 0
M  V30 682 O 63.7041 -1.89122 -0.252466 0
M  V30 683 C 60.8441 -3.451 0.00445535 0
M  V30 684 C 59.9571 -4.19174 1.04487 0
M  V30 685 C 59.0921 -5.29813 0.383676 0
M  V30 686 C 58.1311 -5.9566 1.4091 0
M  V30 687 N 57.2681 -6.97834 0.772784 0
M  V30 688 H 62.1081 -2.56164 1.52263 0
M  V30 689 H 59.6451 -1.25843 0.761701 0
M  V30 690 H 61.6031 -4.15485 -0.377919 0
M  V30 691 H 60.2331 -3.11472 -0.847652 0
M  V30 692 H 59.2851 -3.47604 1.54518 0
M  V30 693 H 60.5971 -4.64267 1.82368 0
M  V30 694 H 59.7511 -6.06677 -0.0528366 0
M  V30 695 H 58.4901 -4.85825 -0.427208 0
M  V30 696 H 57.4951 -5.17535 1.85574 0
M  V30 697 H 58.7201 -6.4173 2.22171 0
M  V30 698 H 56.6661 -6.55998 -0.0177708 0
M  V30 699 H 56.5831 -7.41186 1.48928 0
M  V30 700 H 57.8511 -7.78665 0.36071 0
M  V30 701 N 62.0802 -0.821533 -1.34494 0
M  V30 702 C 63.3292 -0.405355 -1.97585 0
M  V30 703 C 63.6422 1.03677 -1.65863 0
M  V30 704 O 64.8482 1.55679 -2.22433 0
M  V30 705 C 63.3042 -0.673861 -3.53535 0
M  V30 706 C 62.9122 -2.12951 -3.94152 0
M  V30 707 C 64.6562 -0.32378 -4.23263 0
M  V30 708 C 62.5632 -2.34298 -5.43009 0
M  V30 709 H 61.4932 -0.147836 -0.739365 0
M  V30 710 H 64.1442 -1.00769 -1.53355 0
M  V30 711 H 62.5262 -0.00137554 -3.96 0
M  V30 712 H 63.7002 -2.84104 -3.62797 0
M  V30 713 H 62.0152 -2.44089 -3.37356 0
M  V30 714 H 64.6122 -0.461126 -5.32708 0
M  V30 715 H 64.9552 0.731586 -4.09821 0
M  V30 716 H 65.4882 -0.950786 -3.8627 0
M  V30 717 H 62.2272 -3.38335 -5.61435 0
M  V30 718 H 61.7472 -1.67687 -5.75883 0
M  V30 719 H 63.4262 -2.16588 -6.09671 0
M  V30 720 N 63.5583 1.46682 -0.576371 0
M  V30 721 C 64.5053 2.30241 0.160499 0
M  V30 722 C 65.4753 1.40233 0.890162 0
M  V30 723 O 66.6603 1.69186 0.882084 0
M  V30 724 C 63.8003 3.24578 1.1723 0
M  V30 725 C 62.9133 4.29684 0.446736 0
M  V30 726 C 62.0483 5.11154 1.44551 0
M  V30 727 C 61.0873 6.08015 0.70599 0
M  V30 728 N 60.2243 6.82376 1.65251 0
M  V30 729 H 65.0643 2.92727 -0.558127 0
M  V30 730 H 62.6013 1.44272 -0.287056 0
M  V30 731 H 64.5593 3.77711 1.77172 0
M  V30 732 H 63.1893 2.63916 1.85872 0
M  V30 733 H 62.2413 3.79458 -0.267594 0
M  V30 734 H 63.5533 4.98626 -0.131686 0
M  V30 735 H 62.7073 5.68533 2.11791 0
M  V30 736 H 61.4463 4.42158 2.05786 0
M  V30 737 H 60.4513 5.49796 0.0197725 0
M  V30 738 H 61.6763 6.79028 0.09912 0
M  V30 739 H 59.6223 6.16094 2.25308 0
M  V30 740 H 59.5393 7.47556 1.12673 0
M  V30 741 H 60.8073 7.44316 2.31546 0
M  V30 742 N 65.0364 0.313813 1.54444 0
M  V30 743 C 65.9664 -0.549454 2.26943 0
M  V30 744 C 66.9474 -1.12741 1.27372 0
M  V30 745 O 68.1324 -1.15436 1.56167 0
M  V30 746 C 65.2624 -1.71523 3.01989 0
M  V30 747 C 64.2164 -1.26703 4.08816 0
M  V30 748 C 63.5424 -2.51898 4.71647 0
M  V30 749 C 64.8424 -0.388962 5.2085 0
M  V30 750 H 66.5364 0.0552661 2.99349 0
M  V30 751 H 64.0824 0.0280207 1.43973 0
M  V30 752 H 66.0354 -2.32535 3.51433 0
M  V30 753 H 64.7594 -2.34639 2.27183 0
M  V30 754 H 63.4184 -0.679896 3.6024 0
M  V30 755 H 63.0664 -3.13356 3.93468 0
M  V30 756 H 62.7664 -2.22605 5.43802 0
M  V30 757 H 64.2904 -3.1369 5.23861 0
M  V30 758 H 65.7044 -0.905107 5.6611 0
M  V30 759 H 64.1014 -0.18924 5.99802 0
M  V30 760 H 65.1714 0.582699 4.81386 0
M  V30 761 N 66.5145 -1.57545 0.0417849 0
M  V30 762 C 67.7625 -1.91937 -0.632829 0
M  V30 763 C 68.0835 -0.919978 -1.71934 0
M  V30 764 O 67.3535 0.0366064 -1.95866 0
M  V30 765 H 65.9335 -0.708493 -0.236742 0
M  V30 766 H 68.5955 -1.9468 0.0925745 0
M  V30 767 H 67.6915 -2.92912 -1.07746 0
M  V30 768 N 67.9926 0.231505 -1.5589 0
M  V30 769 C 68.9426 1.29007 -1.87993 0
M  V30 770 C 69.9266 1.42764 -0.742102 0
M  V30 771 O 71.1186 1.45747 -1.00433 0
M  V30 772 C 68.2476 2.6425 -2.1915 0
M  V30 773 C 67.3336 2.54435 -3.39299 0
M  V30 774 N 67.7246 2.14262 -4.58176 0
M  V30 775 C 66.0226 2.85416 -3.42715 0
M  V30 776 C 66.7236 2.15455 -5.40328 0
M  V30 777 N 65.6996 2.55558 -4.79783 0
M  V30 778 H 69.5016 0.970213 -2.77424 0
M  V30 779 H 67.0156 0.440097 -1.56323 0
M  V30 780 H 69.0126 3.40665 -2.40319 0
M  V30 781 H 67.6726 2.9709 -1.31025 0
M  V30 782 H 68.6836 1.85554 -4.83518 0
M  V30 783 H 65.3606 3.22693 -2.64906 0
M  V30 784 H 66.7506 1.86605 -6.45467 0
M  V30 785 N 69.4707 1.49531 0.497807 0
M  V30 786 C 70.8867 1.36365 0.829266 0
M  V30 787 C 71.0867 0.399184 1.97506 0
M  V30 788 O 70.1427 -0.167977 2.51941 0
M  V30 789 C 71.4557 2.77153 1.16647 0
M  V30 790 C 73.0037 2.85877 1.27449 0
M  V30 791 C 73.4787 4.2744 1.64497 0
M  V30 792 N 74.9697 4.30265 1.7154 0
M  V30 793 C 75.7047 5.3677 2.01656 0
M  V30 794 N 75.2007 6.53516 2.29976 0
M  V30 795 N 76.9937 5.24189 2.02934 0
M  V30 796 H 69.1447 2.10831 -0.257703 0
M  V30 797 H 71.4077 0.946534 -0.0527091 0
M  V30 798 H 71.1137 3.49442 0.397872 0
M  V30 799 H 70.9877 3.12722 2.10915 0
M  V30 800 H 73.3747 2.13824 2.0338 0
M  V30 801 H 73.4557 2.53887 0.312244 0
M  V30 802 H 73.0997 5.00021 0.891151 0
M  V30 803 H 73.0297 4.56896 2.61827 0
M  V30 804 H 75.5207 3.4607 1.51802 0
M  V30 805 H 75.8337 7.30506 2.52153 0
M  V30 806 H 74.1787 6.56737 2.27425 0
M  V30 807 H 77.3697 4.31988 1.80289 0
M  V30 808 H 77.5427 6.07286 2.26071 0
M  V30 809 N 70.9488 -0.749086 1.3866 0
M  V30 810 C 72.1738 -1.54344 1.38538 0
M  V30 811 C 72.5988 -1.88088 -0.0216655 0
M  V30 812 O 71.9568 -1.50899 -1.00494 0
M  V30 813 C 72.0048 -2.8164 2.25192 0
M  V30 814 O 71.1088 -3.7698 1.67212 0
M  V30 815 H 70.4498 -0.466654 0.472367 0
M  V30 816 H 72.9798 -0.925355 1.82478 0
M  V30 817 H 72.9898 -3.30519 2.3921 0
M  V30 818 H 71.6648 -2.56411 3.27454 0
M  V30 819 H 70.2418 -3.35699 1.6236 0
M  V30 820 N 72.4269 -1.23603 -0.977757 0
M  V30 821 C 73.3369 -1.03632 -2.1047 0
M  V30 822 C 74.3529 0.0199435 -1.73989 0
M  V30 823 O 75.5289 -0.176076 -2.00629 0
M  V30 824 C 72.5939 -0.63276 -3.40877 0
M  V30 825 C 71.6549 -1.76437 -3.91367 0
M  V30 826 C 70.8879 -1.37997 -5.15551 0
M  V30 827 O 71.1109 -0.265357 -5.69782 0
M  V30 828 O 70.0449 -2.20201 -5.60174 0
M  V30 829 H 73.8709 -1.98086 -2.30208 0
M  V30 830 H 71.4559 -1.02332 -1.08851 0
M  V30 831 H 73.3379 -0.418761 -4.19314 0
M  V30 832 H 72.0129 0.282754 -3.22463 0
M  V30 833 H 70.9199 -2.03304 -3.14036 0
M  V30 834 H 72.2529 -2.6583 -4.14241 0
M  V30 835 N 73.905 1.17692 -1.04816 0
M  V30 836 C 74.868 2.19787 -0.650117 0
M  V30 837 C 75.868 1.58044 0.296427 0
M  V30 838 O 77.058 1.74012 0.0808097 0
M  V30 839 C 74.19 3.40869 0.0456987 0
M  V30 840 H 75.383 2.56516 -1.5537 0
M  V30 841 H 72.936 1.31708 -0.841594 0
M  V30 842 H 73.671 3.09681 0.962726 0
M  V30 843 H 73.456 3.86928 -0.634727 0
M  V30 844 H 74.946 4.16445 0.310432 0
M  V30 845 N 75.3831 0.828654 1.34056 0
M  V30 846 C 76.3301 0.252567 2.29414 0
M  V30 847 C 77.3001 -0.62588 1.53857 0
M  V30 848 O 78.4851 -0.566312 1.82202 0
M  V30 849 C 75.6251 -0.574831 3.40279 0
M  V30 850 C 74.7381 0.326499 4.30764 0
M  V30 851 C 73.8731 -0.511016 5.28736 0
M  V30 852 C 72.9121 0.389342 6.1086 0
M  V30 853 N 72.0491 -0.409439 7.00905 0
M  V30 854 H 76.8891 1.07108 2.78086 0
M  V30 855 H 74.4261 0.539677 1.36843 0
M  V30 856 H 76.3841 -1.06992 4.03248 0
M  V30 857 H 75.0141 -1.35841 2.92826 0
M  V30 858 H 74.0661 0.939837 3.68607 0
M  V30 859 H 75.3781 1.01857 4.88289 0
M  V30 860 H 74.5321 -1.07035 5.97184 0
M  V30 861 H 73.2711 -1.23657 4.71763 0
M  V30 862 H 72.2761 0.960769 5.4134 0
M  V30 863 H 73.5011 1.1131 6.69916 0
M  V30 864 H 71.4471 -1.11856 6.46393 0
M  V30 865 H 71.3641 0.224126 7.55668 0
M  V30 866 H 72.6321 -0.951336 7.73673 0
M  V30 867 N 76.8612 -1.46375 0.584142 0
M  V30 868 C 78.1382 -1.956 0.0033388 0
M  V30 869 C 78.5182 -1.52679 -1.45782 0
M  V30 870 O 77.8662 -0.77816 -2.14842 0
M  V30 871 C 78.0762 -3.48551 0.176891 0
M  V30 872 C 79.4242 -4.24576 0.0454609 0
M  V30 873 O 80.4482 -3.56043 0.105801 0
M  V30 874 O 79.3072 -5.46427 -0.0890376 0
M  V30 875 H 76.4012 -0.825547 -0.0490066 0
M  V30 876 H 78.9472 -1.56652 0.65256 0
M  V30 877 H 77.7192 -3.72683 1.1926 0
M  V30 878 H 77.3422 -3.94332 -0.508695 0
M  V30 879 N 78.3393 -0.321999 -1.54275 0
M  V30 880 C 79.5873 0.280489 -2.00144 0
M  V30 881 C 79.9083 1.52777 -1.21178 0
M  V30 882 O 79.1783 1.9338 -0.313187 0
M  V30 883 H 77.7583 0.106632 -0.73935 0
M  V30 884 H 80.4203 -0.438184 -1.8991 0
M  V30 885 H 79.5163 0.537972 -3.07428 0
M  V30 886 N 79.8174 1.5752 -0.0501392 0
M  V30 887 C 81.0664 1.91827 0.623328 0
M  V30 888 C 81.3794 0.930222 1.72065 0
M  V30 889 O 82.5854 1.1653 2.4522 0
M  V30 890 C 81.0414 3.40692 1.16003 0
M  V30 891 C 80.6494 4.479 0.0948811 0
M  V30 892 C 82.3934 3.84034 1.80881 0
M  V30 893 C 80.3004 5.87879 0.644411 0
M  V30 894 H 79.2304 0.715918 0.236596 0
M  V30 895 H 81.8814 1.83115 -0.118861 0
M  V30 896 H 80.2634 3.44405 1.9545 0
M  V30 897 H 81.4374 4.55775 -0.678675 0
M  V30 898 H 79.7524 4.13892 -0.45637 0
M  V30 899 H 82.3494 4.85984 2.22988 0
M  V30 900 H 82.6924 3.20225 2.6601 0
M  V30 901 H 83.2254 3.82833 1.0809 0
M  V30 902 H 79.9644 6.55282 -0.169229 0
M  V30 903 H 79.4844 5.83567 1.38598 0
M  V30 904 H 81.1634 6.37098 1.12763 0
M  V30 905 N 81.2955 -0.223234 1.56011 0
M  V30 906 C 82.2435 -1.29627 1.93131 0
M  V30 907 C 83.2375 -1.48608 0.813146 0
M  V30 908 O 84.4435 -1.49802 0.997966 0
M  V30 909 H 80.8185 -0.434563 0.613726 0
M  V30 910 H 82.7895 -0.955995 2.82672 0
M  V30 911 C 81.5385 -2.63983 2.26292 0
M  V30 912 H 80.8615 -2.50185 3.11846 0
M  V30 913 H 82.3015 -3.3788 2.56151 0
M  V30 914 C 80.7605 -3.18866 1.08747 0
M  V30 915 O 81.2905 -4.00192 0.347727 0
M  V30 916 N 79.4965 -2.77217 0.871743 0
M  V30 917 H 79.0435 -2.1119 1.47501 0
M  V30 918 H 79.0015 -3.1428 0.0869905 0
M  V30 919 N 82.7736 -1.49793 -0.48987 0
M  V30 920 C 84.1896 -1.36803 -0.822022 0
M  V30 921 C 84.3896 -0.409652 -1.97292 0
M  V30 922 O 83.4456 0.154614 -2.52026 0
M  V30 923 C 84.7586 -2.77768 -1.15175 0
M  V30 924 C 86.3066 -2.86549 -1.25931 0
M  V30 925 C 86.7816 -4.28306 -1.62228 0
M  V30 926 N 88.2726 -4.31169 -1.69256 0
M  V30 927 C 89.0076 -5.37832 -1.98807 0
M  V30 928 N 88.5036 -6.54726 -2.26507 0
M  V30 929 N 90.2966 -5.25258 -2.00152 0
M  V30 930 H 82.4476 -2.10691 0.268881 0
M  V30 931 H 84.7106 -0.946241 0.057728 0
M  V30 932 H 84.4166 -3.49648 -0.379335 0
M  V30 933 H 84.2906 -3.13836 -2.09253 0
M  V30 934 H 86.6776 -2.14899 -2.02243 0
M  V30 935 H 86.7586 -2.54049 -0.298776 0
M  V30 936 H 86.4026 -5.00486 -0.864622 0
M  V30 937 H 86.3326 -4.58279 -2.594 0
M  V30 938 H 88.8236 -3.4687 -1.49965 0
M  V30 939 H 89.1366 -7.31833 -2.48276 0
M  V30 940 H 87.4816 -6.57933 -2.23939 0
M  V30 941 H 90.6726 -4.32938 -1.77996 0
M  V30 942 H 90.8456 -6.08476 -2.22848 0
M  V30 943 N 84.2517 0.741722 -1.39055 0
M  V30 944 C 85.4797 1.53098 -1.39171 0
M  V30 945 C 85.8947 1.88794 0.0155099 0
M  V30 946 O 85.2517 1.53626 0.985159 0
M  V30 947 C 85.3027 2.82274 -2.2584 0
M  V30 948 O 85.0237 2.48097 -3.61081 0
M  V30 949 C 86.5247 3.76343 -2.34266 0
M  V30 950 H 83.7447 0.473335 -0.4756 0
M  V30 951 H 86.2887 0.917045 -1.82785 0
M  V30 952 H 84.4437 3.40015 -1.85656 0
M  V30 953 H 84.8577 3.31029 -4.06842 0
M  V30 954 H 86.3317 4.63898 -2.9917 0
M  V30 955 H 86.8087 4.17619 -1.35982 0
M  V30 956 H 87.4147 3.24523 -2.74891 0
M  V30 957 N 85.7298 1.2412 0.971189 0
M  V30 958 C 86.6928 1.03156 2.04674 0
M  V30 959 C 87.6928 -0.00990322 1.60797 0
M  V30 960 O 88.8828 0.230729 1.72665 0
M  V30 961 C 86.0148 0.562765 3.36223 0
M  V30 962 H 87.2078 1.98614 2.24705 0
M  V30 963 H 84.7608 1.06293 1.14593 0
M  V30 964 H 85.4958 -0.395176 3.21883 0
M  V30 965 H 85.2808 1.31441 3.69413 0
M  V30 966 H 86.7708 0.437015 4.15307 0
M  V30 967 N 87.2079 -1.17134 1.05439 0
M  V30 968 C 88.1379 -2.2342 0.678649 0
M  V30 969 C 89.1189 -1.66971 -0.32476 0
M  V30 970 O 90.3039 -1.93149 -0.201802 0
M  V30 971 C 87.4339 -3.47256 0.0552099 0
M  V30 972 C 86.3879 -4.16543 0.98365 0
M  V30 973 C 85.7139 -5.34231 0.223961 0
M  V30 974 C 87.0139 -4.68495 2.3089 0
M  V30 975 H 88.7079 -2.55105 1.56722 0
M  V30 976 H 86.2539 -1.2262 0.754998 0
M  V30 977 H 88.2069 -4.20828 -0.21946 0
M  V30 978 H 86.9309 -3.14846 -0.868319 0
M  V30 979 H 85.5899 -3.44887 1.24293 0
M  V30 980 H 85.2379 -4.98071 -0.702412 0
M  V30 981 H 84.9379 -5.81527 0.842627 0
M  V30 982 H 86.4619 -6.10585 -0.0433671 0
M  V30 983 H 87.8759 -5.33691 2.09396 0
M  V30 984 H 86.2729 -5.26379 2.88176 0
M  V30 985 H 87.3429 -3.85169 2.94572 0
M  V30 986 N 88.686 -0.835752 -1.33615 0
M  V30 987 C 90.102 -0.523139 -1.50783 0
M  V30 988 C 90.302 0.950171 -1.77691 0
M  V30 989 O 89.358 1.73411 -1.83534 0
M  V30 990 C 90.671 -1.39378 -2.66448 0
M  V30 991 C 92.219 -1.39223 -2.80332 0
M  V30 992 C 92.694 -2.24765 -3.99055 0
M  V30 993 N 94.185 -2.22458 -4.06284 0
M  V30 994 C 94.92 -2.85386 -4.97336 0
M  V30 995 N 94.416 -3.57354 -5.93523 0
M  V30 996 N 96.209 -2.74872 -4.90308 0
M  V30 997 H 88.36 -1.78952 -1.14411 0
M  V30 998 H 90.623 -0.763297 -0.562212 0
M  V30 999 H 90.329 -2.44061 -2.53234 0
M  V30 1000 H 90.203 -1.0676 -3.61776 0
M  V30 1001 H 92.59 -0.353136 -2.92979 0
M  V30 1002 H 92.671 -1.75846 -1.85773 0
M  V30 1003 H 92.315 -3.28732 -3.87167 0
M  V30 1004 H 92.245 -1.85485 -4.92852 0
M  V30 1005 H 94.736 -1.70119 -3.37443 0
M  V30 1006 H 95.049 -4.02584 -6.59656 0
M  V30 1007 H 93.394 -3.61461 -5.93608 0
M  V30 1008 H 96.585 -2.18213 -4.14126 0
M  V30 1009 H 96.758 -3.24199 -5.61069 0
M  V30 1010 N 90.1641 1.46063 -0.591896 0
M  V30 1011 C 91.0741 2.34192 0.13831 0
M  V30 1012 C 92.0901 1.50305 0.876608 0
M  V30 1013 O 93.2661 1.8315 0.837728 0
M  V30 1014 C 90.3311 3.27656 1.13326 0
M  V30 1015 C 89.3921 4.27445 0.39863 0
M  V30 1016 C 88.6251 5.16443 1.34618 0
M  V30 1017 O 88.8481 5.08553 2.58321 0
M  V30 1018 O 87.7821 5.95843 0.851768 0
M  V30 1019 H 91.6081 2.98002 -0.58552 0
M  V30 1020 H 89.1931 1.45188 -0.352239 0
M  V30 1021 H 91.0751 3.85291 1.70671 0
M  V30 1022 H 89.7501 2.6643 1.83839 0
M  V30 1023 H 88.6571 3.73471 -0.216895 0
M  V30 1024 H 89.9901 4.91482 -0.265709 0
M  V30 1025 N 91.6422 0.330177 1.54103 0
M  V30 1026 C 92.8912 -0.271336 1.99867 0
M  V30 1027 C 93.2042 -1.52723 1.22209 0
M  V30 1028 O 94.4102 -2.20515 1.58383 0
M  V30 1029 C 92.8662 -0.534032 3.55916 0
M  V30 1030 C 92.4742 0.705193 4.42415 0
M  V30 1031 C 94.2182 -1.09514 4.1013 0
M  V30 1032 C 92.1252 0.414035 5.89949 0
M  V30 1033 H 91.0552 -0.105166 0.74663 0
M  V30 1034 H 93.7062 0.443429 1.78062 0
M  V30 1035 H 92.0882 -1.30915 3.73734 0
M  V30 1036 H 93.2622 1.4804 4.36372 0
M  V30 1037 H 91.5772 1.18698 3.99124 0
M  V30 1038 H 94.1742 -1.3277 5.17954 0
M  V30 1039 H 94.5172 -2.04656 3.62521 0
M  V30 1040 H 95.0502 -0.381038 3.95971 0
M  V30 1041 H 91.7892 1.33481 6.41766 0
M  V30 1042 H 91.3092 -0.323336 5.98928 0
M  V30 1043 H 92.9882 0.0263105 6.46995 0
M  V30 1044 N 93.1203 -1.57491 0.0584922 0
M  V30 1045 C 94.0673 -2.11958 -0.913376 0
M  V30 1046 C 95.0373 -1.02875 -1.30407 0
M  V30 1047 O 96.2223 -1.30464 -1.39226 0
M  V30 1048 C 93.3623 -2.67497 -2.18035 0
M  V30 1049 C 92.4753 -3.90691 -1.84349 0
M  V30 1050 C 91.6103 -4.3452 -3.05559 0
M  V30 1051 C 90.6493 -5.50395 -2.67827 0
M  V30 1052 N 89.7863 -5.89244 -3.81754 0
M  V30 1053 H 94.6263 -2.94704 -0.442017 0
M  V30 1054 H 92.1633 -1.45643 -0.206545 0
M  V30 1055 H 94.1213 -2.978 -2.92183 0
M  V30 1056 H 92.7513 -1.87537 -2.62735 0
M  V30 1057 H 91.8033 -3.66934 -1.00319 0
M  V30 1058 H 93.1153 -4.7489 -1.5258 0
M  V30 1059 H 92.2693 -4.66414 -3.87998 0
M  V30 1060 H 91.0083 -3.49147 -3.40511 0
M  V30 1061 H 90.0133 -5.18165 -1.83806 0
M  V30 1062 H 91.2383 -6.3749 -2.34059 0
M  V30 1063 H 89.1843 -5.06823 -4.16493 0
M  V30 1064 H 89.1013 -6.68151 -3.53708 0
M  V30 1065 H 90.3693 -6.25756 -4.64811 0
M  V30 1066 N 94.5984 0.214957 -1.56127 0
M  V30 1067 C 95.5284 1.2695 -1.95974 0
M  V30 1068 C 96.5094 1.48539 -0.828868 0
M  V30 1069 O 97.6944 1.60611 -1.09168 0
M  V30 1070 C 94.8244 2.61794 -2.28214 0
M  V30 1071 C 93.7784 2.54851 -3.43853 0
M  V30 1072 C 93.1044 3.93785 -3.61715 0
M  V30 1073 C 94.4044 2.09065 -4.78632 0
M  V30 1074 H 96.0984 0.93846 -2.84312 0
M  V30 1075 H 93.6444 0.449996 -1.36788 0
M  V30 1076 H 95.5974 3.35731 -2.54682 0
M  V30 1077 H 94.3214 2.96599 -1.36736 0
M  V30 1078 H 92.9804 1.8337 -3.17444 0
M  V30 1079 H 92.6284 4.25908 -2.67602 0
M  V30 1080 H 92.3284 3.90019 -4.39498 0
M  V30 1081 H 93.8524 4.69374 -3.90539 0
M  V30 1082 H 95.2664 2.7275 -5.04262 0
M  V30 1083 H 93.6634 2.16346 -5.59745 0
M  V30 1084 H 94.7334 1.04315 -4.73547 0
M  V30 1085 N 96.0765 1.50051 0.48192 0
M  V30 1086 C 97.0065 1.71046 1.58951 0
M  V30 1087 C 97.9875 0.559288 1.60642 0
M  V30 1088 O 99.1725 0.797243 1.77081 0
M  V30 1089 C 96.3025 1.79462 2.97339 0
M  V30 1090 C 95.2565 2.94558 3.10515 0
M  V30 1091 C 94.5825 2.88105 4.50444 0
M  V30 1092 C 95.8825 4.35227 2.88747 0
M  V30 1093 H 97.5765 2.6378 1.41635 0
M  V30 1094 H 95.1225 1.26936 0.679942 0
M  V30 1095 H 97.0755 1.92734 3.74742 0
M  V30 1096 H 95.7995 0.833412 3.15788 0
M  V30 1097 H 94.4585 2.80918 2.35543 0
M  V30 1098 H 94.1065 1.89853 4.65795 0
M  V30 1099 H 93.8065 3.65366 4.60197 0
M  V30 1100 H 95.3305 3.03412 5.29881 0
M  V30 1101 H 96.7445 4.49449 3.55905 0
M  V30 1102 H 95.1415 5.13856 3.09955 0
M  V30 1103 H 96.2115 4.48347 1.84696 0
M  V30 1104 N 97.5546 -0.734337 1.39446 0
M  V30 1105 C 98.4866 -1.85861 1.34121 0
M  V30 1106 C 99.4996 -1.60871 0.249864 0
M  V30 1107 O 100.689 -1.71093 0.508865 0
M  V30 1108 C 97.7886 -3.21899 1.05991 0
M  V30 1109 C 96.9616 -3.74239 2.26415 0
M  V30 1110 C 96.0206 -4.88841 1.94733 0
M  V30 1111 O 95.0466 -5.02468 2.67422 0
M  V30 1112 N 96.2486 -5.73261 0.913884 0
M  V30 1113 H 99.0136 -1.90934 2.31007 0
M  V30 1114 H 96.5746 -0.915102 1.33557 0
M  V30 1115 H 98.5666 -3.96136 0.828147 0
M  V30 1116 H 97.1366 -3.12091 0.178361 0
M  V30 1117 H 96.3566 -2.91347 2.65539 0
M  V30 1118 H 97.6446 -4.05942 3.06738 0
M  V30 1119 H 97.0426 -5.64842 0.311476 0
M  V30 1120 H 95.5996 -6.47563 0.742015 0
M  V30 1121 N 99.0327 -1.24633 -0.964593 0
M  V30 1122 C 99.9427 -1.05859 -2.09359 0
M  V30 1123 C 100.959 0.00148855 -1.74 0
M  V30 1124 O 102.135 -0.197346 -2.00431 0
M  V30 1125 C 99.1997 -0.668879 -3.40187 0
M  V30 1126 C 98.2607 -1.80578 -3.89474 0
M  V30 1127 C 97.4937 -1.43457 -5.14058 0
M  V30 1128 O 97.7167 -0.325775 -5.69469 0
M  V30 1129 O 96.6507 -2.2613 -5.57807 0
M  V30 1130 H 100.477 -2.00516 -2.28094 0
M  V30 1131 H 98.0617 -1.03481 -1.0776 0
M  V30 1132 H 99.9437 -0.463211 -4.18846 0
M  V30 1133 H 98.6187 0.248536 -3.22744 0
M  V30 1134 H 97.5257 -2.06623 -3.11862 0
M  V30 1135 H 98.8587 -2.70208 -4.11398 0
M  V30 1136 N 100.511 1.16574 -1.06058 0
M  V30 1137 C 101.441 2.23057 -0.690488 0
M  V30 1138 C 102.422 1.67141 0.315901 0
M  V30 1139 O 103.607 1.93253 0.191556 0
M  V30 1140 C 100.737 3.47222 -0.073625 0
M  V30 1141 C 99.6908 4.16016 -1.00573 0
M  V30 1142 C 99.0168 5.34104 -0.252289 0
M  V30 1143 C 100.317 4.67264 -2.33371 0
M  V30 1144 H 102.011 2.54271 -1.58072 0
M  V30 1145 H 99.5568 1.22218 -0.76149 0
M  V30 1146 H 101.51 4.20939 0.19714 0
M  V30 1147 H 100.234 3.15302 0.85161 0
M  V30 1148 H 98.8928 3.44223 -1.2612 0
M  V30 1149 H 98.5408 4.98437 0.675988 0
M  V30 1150 H 98.2408 5.81072 -0.873455 0
M  V30 1151 H 99.7648 6.10599 0.0109857 0
M  V30 1152 H 101.179 5.32573 -2.12223 0
M  V30 1153 H 99.5758 5.24843 -2.90963 0
M  V30 1154 H 100.646 3.83602 -2.96611 0
M  V30 1155 N 101.989 0.842826 1.3317 0
M  V30 1156 C 103.214 0.453129 2.02389 0
M  V30 1157 C 103.639 -0.939105 1.6298 0
M  V30 1158 O 102.997 -1.61472 0.8244 0
M  V30 1159 C 103.045 0.586094 3.55805 0
M  V30 1160 O 102.149 -0.386029 4.10589 0
M  V30 1161 H 101.49 0.183664 0.638094 0
M  V30 1162 H 104.02 1.13875 1.69981 0
M  V30 1163 H 104.03 0.469209 4.05293 0
M  V30 1164 H 102.705 1.6014 3.83833 0
M  V30 1165 H 101.282 -0.226371 3.72212 0
M  V30 1166 N 103.467 -1.45747 0.599634 0
M  V30 1167 C 104.417 -2.27538 -0.145107 0
M  V30 1168 C 105.401 -1.3686 -0.846055 0
M  V30 1169 O 106.593 -1.6091 -0.737357 0
M  V30 1170 C 103.722 -3.23569 -1.14708 0
M  V30 1171 C 102.808 -4.21734 -0.447383 0
M  V30 1172 N 103.199 -5.03257 0.506535 0
M  V30 1173 C 101.497 -4.40536 -0.695966 0
M  V30 1174 C 102.198 -5.74426 0.917068 0
M  V30 1175 N 101.174 -5.42966 0.26253 0
M  V30 1176 H 104.976 -2.87965 0.587672 0
M  V30 1177 H 102.49 -1.56803 0.422697 0
M  V30 1178 H 104.487 -3.8089 -1.69495 0
M  V30 1179 H 103.147 -2.64702 -1.8805 0
M  V30 1180 H 104.158 -5.10319 0.882899 0
M  V30 1181 H 100.835 -3.92802 -1.41467 0
M  V30 1182 H 102.225 -6.4995 1.70338 0
M  V30 1183 N 104.945 -0.338344 -1.53925 0
M  V30 1184 C 106.356 0.146651 -1.86123 0
M  V30 1185 C 106.707 1.5042 -1.2597 0
M  V30 1186 O 105.832 2.08723 -0.571294 0
M  V30 1187 C 106.427 0.272879 -3.37699 0
M  V30 1188 C 104.986 0.702103 -3.69794 0
M  V30 1189 C 104.133 -0.167304 -2.76795 0
M  V30 1190 H 107.084 -0.558123 -1.48562 0
M  V30 1191 H 107.105 1.10128 -3.64214 0
M  V30 1192 H 106.617 -0.715307 -3.81451 0
M  V30 1193 H 104.718 1.6995 -3.31584 0
M  V30 1194 H 104.831 0.495604 -4.7653 0
M  V30 1195 H 103.195 0.359527 -2.5215 0
M  V30 1196 H 103.978 -1.15253 -3.23375 0
M  V30 1197 N 106.423 1.57458 -0.0668435 0
M  V30 1198 C 107.371 2.13639 0.919851 0
M  V30 1199 C 108.365 1.07204 1.31163 0
M  V30 1200 O 109.571 1.25591 1.28945 0
M  V30 1201 H 105.946 0.683048 0.314562 0
M  V30 1202 H 107.917 2.95415 0.421047 0
M  V30 1203 C 106.666 2.70892 2.17975 0
M  V30 1204 H 105.989 3.5246 1.88711 0
M  V30 1205 H 107.429 3.13803 2.85138 0
M  V30 1206 C 105.888 1.65414 2.93496 0
M  V30 1207 O 106.418 1.07619 3.87015 0
M  V30 1208 N 104.624 1.36564 2.56512 0
M  V30 1209 H 104.171 1.83751 1.80536 0
M  V30 1210 H 104.129 0.66223 3.07347 0
M  V30 1211 N 107.901 -0.206675 1.56239 0
M  V30 1212 C 109.15 -0.926964 1.79138 0
M  V30 1213 C 109.463 -1.84901 0.638043 0
M  V30 1214 O 110.669 -2.60906 0.751033 0
M  V30 1215 C 109.125 -1.6986 3.17294 0
M  V30 1216 C 108.733 -0.821956 4.40395 0
M  V30 1217 C 110.477 -2.40922 3.4951 0
M  V30 1218 C 108.384 -1.59179 5.69575 0
M  V30 1219 H 107.314 -0.349864 0.667915 0
M  V30 1220 H 109.965 -0.180487 1.8261 0
M  V30 1221 H 108.347 -2.48853 3.08039 0
M  V30 1222 H 109.521 -0.0715019 4.60745 0
M  V30 1223 H 107.836 -0.222741 4.15804 0
M  V30 1224 H 110.433 -2.99047 4.43255 0
M  V30 1225 H 110.776 -3.14542 2.72707 0
M  V30 1226 H 111.309 -1.68905 3.60161 0
M  V30 1227 H 108.048 -0.898589 6.49312 0
M  V30 1228 H 107.568 -2.31648 5.53262 0
M  V30 1229 H 109.247 -2.14862 6.10281 0
M  V30 1230 N 109.379 -1.50304 -0.473955 0
M  V30 1231 C 110.628 -1.60392 -1.22301 0
M  V30 1232 C 110.941 -0.308411 -1.93153 0
M  V30 1233 O 112.147 -0.288156 -2.69966 0
M  V30 1234 C 110.603 -2.83109 -2.2221 0
M  V30 1235 C 110.211 -4.19524 -1.57173 0
M  V30 1236 C 111.955 -3.0254 -2.97775 0
M  V30 1237 C 109.862 -5.33431 -2.55353 0
M  V30 1238 H 108.792 -0.597286 -0.460179 0
M  V30 1239 H 111.443 -1.76731 -0.493803 0
M  V30 1240 H 109.825 -2.60322 -2.9841 0
M  V30 1241 H 110.999 -4.52554 -0.867824 0
M  V30 1242 H 109.314 -4.05674 -0.939002 0
M  V30 1243 H 111.911 -3.84811 -3.71248 0
M  V30 1244 H 112.254 -2.14154 -3.56992 0
M  V30 1245 H 112.787 -3.25494 -2.28688 0
M  V30 1246 H 109.526 -6.23962 -2.00878 0
M  V30 1247 H 109.046 -5.04823 -3.23904 0
M  V30 1248 H 110.725 -5.63887 -3.17239 0
M  V30 1249 N 110.857 0.726932 -1.39834 0
M  V30 1250 C 112.105 1.4837 -1.37225 0
M  V30 1251 C 112.426 1.94979 0.0284857 0
M  V30 1252 O 111.696 1.69555 0.981213 0
M  V30 1253 H 110.276 0.55043 -0.505011 0
M  V30 1254 H 112.938 0.862468 -1.74778 0
M  V30 1255 H 112.034 2.36198 -2.04003 0
M  V30 1256 N 112.336 1.25143 0.95797 0
M  V30 1257 C 113.266 1.07711 2.07173 0
M  V30 1258 C 114.247 -0.0128462 1.70095 0
M  V30 1259 O 115.432 0.156061 1.93572 0
M  V30 1260 C 112.562 0.691503 3.40346 0
M  V30 1261 C 111.516 1.73132 3.9142 0
M  V30 1262 C 110.842 1.20049 5.21049 0
M  V30 1263 C 112.142 3.1294 4.1817 0
M  V30 1264 H 113.836 2.00873 2.22014 0
M  V30 1265 H 111.382 0.967191 1.06684 0
M  V30 1266 H 113.335 0.556505 4.17709 0
M  V30 1267 H 112.059 -0.275819 3.25433 0
M  V30 1268 H 110.718 1.8547 3.16222 0
M  V30 1269 H 110.366 0.223499 5.02503 0
M  V30 1270 H 110.066 1.89545 5.56189 0
M  V30 1271 H 111.59 1.07782 6.01012 0
M  V30 1272 H 113.004 3.03775 4.86203 0
M  V30 1273 H 111.401 3.79875 4.64559 0
M  V30 1274 H 112.471 3.6025 3.24573 0
M  V30 1275 N 113.814 -1.1601 1.06675 0
M  V30 1276 C 114.744 -2.22688 0.702307 0
M  V30 1277 C 115.725 -1.67306 -0.307032 0
M  V30 1278 O 116.91 -1.93352 -0.181305 0
M  V30 1279 C 114.04 -3.47178 0.092038 0
M  V30 1280 C 112.994 -4.15477 1.02777 0
M  V30 1281 C 112.32 -5.33963 0.28061 0
M  V30 1282 C 113.62 -4.66019 2.35846 0
M  V30 1283 H 115.314 -2.53429 1.59419 0
M  V30 1284 H 112.86 -1.21813 0.767961 0
M  V30 1285 H 114.813 -4.21037 -0.174814 0
M  V30 1286 H 113.537 -3.15749 -0.834877 0
M  V30 1287 H 112.196 -3.43549 1.27944 0
M  V30 1288 H 111.844 -4.98788 -0.649545 0
M  V30 1289 H 111.544 -5.806 0.904258 0
M  V30 1290 H 113.068 -6.10596 0.021396 0
M  V30 1291 H 114.482 -5.3144 2.15045 0
M  V30 1292 H 112.879 -5.23293 2.93743 0
M  V30 1293 H 113.949 -3.82023 2.98641 0
M  V30 1294 N 115.292 -0.849877 -1.32721 0
M  V30 1295 C 116.569 -0.372405 -1.92022 0
M  V30 1296 C 116.949 1.1435 -1.77447 0
M  V30 1297 O 116.297 1.96296 -1.16962 0
M  V30 1298 C 116.507 -0.831482 -3.3895 0
M  V30 1299 C 117.855 -0.845882 -4.16089 0
M  V30 1300 O 118.879 -0.775806 -3.47649 0
M  V30 1301 O 117.738 -0.943753 -5.38289 0
M  V30 1302 H 114.832 -0.107667 -0.819961 0
M  V30 1303 H 117.378 -0.93646 -1.41522 0
M  V30 1304 H 116.15 -1.87448 -3.4348 0
M  V30 1305 H 115.773 -0.24461 -3.96847 0
M  V30 1306 N 116.77 1.45427 -0.607355 0
M  V30 1307 C 117.733 2.28974 0.101693 0
M  V30 1308 C 118.733 1.39754 0.795329 0
M  V30 1309 O 119.923 1.61878 0.643527 0
M  V30 1310 C 117.055 3.20768 1.15414 0
M  V30 1311 H 118.248 2.93147 -0.632844 0
M  V30 1312 H 115.801 1.51945 -0.366391 0
M  V30 1313 H 116.536 2.61395 1.91945 0
M  V30 1314 H 116.321 3.86489 0.66098 0
M  V30 1315 H 117.811 3.83589 1.65073 0
M  V30 1316 N 118.248 0.346503 1.53744 0
M  V30 1317 C 119.495 -0.249104 2.00962 0
M  V30 1318 C 119.823 -1.5032 1.23426 0
M  V30 1319 O 119.078 -1.93217 0.310761 0
M  V30 1320 C 119.377 -0.605809 3.52228 0
M  V30 1321 C 119.043 0.551747 4.47512 0
M  V30 1322 C 117.705 0.86941 4.73281 0
M  V30 1323 C 120.057 1.32818 5.03993 0
M  V30 1324 C 117.385 1.96582 5.52786 0
M  V30 1325 C 119.737 2.41486 5.84694 0
M  V30 1326 C 118.401 2.73808 6.08757 0
M  V30 1327 H 117.671 -0.0911538 0.735372 0
M  V30 1328 H 120.318 0.475027 1.85515 0
M  V30 1329 H 118.623 -1.4107 3.65522 0
M  V30 1330 H 120.32 -1.07858 3.86222 0
M  V30 1331 H 116.91 0.294102 4.2759 0
M  V30 1332 H 121.094 1.09602 4.84047 0
M  V30 1333 H 116.35 2.22045 5.69654 0
M  V30 1334 H 120.524 3.02078 6.27473 0
M  V30 1335 H 118.151 3.58892 6.7015 0
M  V30 1336 N 119.726 -1.57421 0.075193 0
M  V30 1337 C 120.974 -1.93236 -0.591974 0
M  V30 1338 C 121.295 -0.956241 -1.69944 0
M  V30 1339 O 120.565 -0.00494792 -1.95899 0
M  V30 1340 H 119.145 -0.713355 -0.22166 0
M  V30 1341 H 121.807 -1.9444 0.133848 0
M  V30 1342 H 120.903 -2.95131 -1.01509 0
M  V30 1343 N 121.204 0.198386 -1.56346 0
M  V30 1344 C 122.154 1.2499 -1.90687 0
M  V30 1345 C 123.138 1.41158 -0.772217 0
M  V30 1346 O 124.33 1.43584 -1.03502 0
M  V30 1347 C 121.459 2.59542 -2.24706 0
M  V30 1348 C 120.545 2.47181 -3.44619 0
M  V30 1349 N 120.936 2.04495 -4.62618 0
M  V30 1350 C 119.234 2.78082 -3.48692 0
M  V30 1351 C 119.935 2.03945 -5.44776 0
M  V30 1352 N 118.911 2.45323 -4.85095 0
M  V30 1353 H 122.713 0.911149 -2.7942 0
M  V30 1354 H 120.227 0.40684 -1.57221 0
M  V30 1355 H 122.224 3.3549 -2.47491 0
M  V30 1356 H 120.884 2.94244 -1.37298 0
M  V30 1357 H 121.895 1.75256 -4.87345 0
M  V30 1358 H 118.572 3.17002 -2.71691 0
M  V30 1359 H 119.962 1.72872 -6.4928 0
M  V30 1360 N 122.682 1.50554 0.465978 0
M  V30 1361 C 123.629 1.6979 1.56333 0
M  V30 1362 C 124.599 0.539239 1.57103 0
M  V30 1363 O 125.784 0.770401 1.74555 0
M  V30 1364 C 122.924 1.80273 2.94271 0
M  V30 1365 C 122.037 3.07674 3.0325 0
M  V30 1366 C 121.172 3.08922 4.32135 0
M  V30 1367 C 120.211 4.30755 4.34875 0
M  V30 1368 N 119.348 4.29714 5.55239 0
M  V30 1369 H 124.188 2.63472 1.39235 0
M  V30 1370 H 121.725 1.30602 0.676873 0
M  V30 1371 H 123.683 1.84332 3.74269 0
M  V30 1372 H 122.313 0.900258 3.09992 0
M  V30 1373 H 121.365 3.13062 2.16094 0
M  V30 1374 H 122.677 3.97642 3.01135 0
M  V30 1375 H 121.831 3.11738 5.20485 0
M  V30 1376 H 120.57 2.16792 4.36866 0
M  V30 1377 H 119.575 4.28146 3.44922 0
M  V30 1378 H 120.8 5.24117 4.31831 0
M  V30 1379 H 118.746 3.4044 5.60746 0
M  V30 1380 H 118.663 5.13456 5.54886 0
M  V30 1381 H 119.931 4.36683 6.457 0
M  V30 1382 N 124.16 -0.719506 1.40217 0
M  V30 1383 C 125.385 -1.51371 1.4178 0
M  V30 1384 C 125.81 -1.88091 0.0182355 0
M  V30 1385 O 125.168 -1.52997 -0.972707 0
M  V30 1386 C 125.216 -2.768 2.31115 0
M  V30 1387 O 124.32 -3.73349 1.7517 0
M  V30 1388 H 123.661 -0.456529 0.482159 0
M  V30 1389 H 126.191 -0.88644 1.844 0
M  V30 1390 H 126.201 -3.25371 2.46167 0
M  V30 1391 H 124.876 -2.49407 3.3282 0
M  V30 1392 H 123.453 -3.32179 1.69444 0
M  V30 1393 N 125.638 -1.25649 -0.95132 0
M  V30 1394 C 126.586 -1.06118 -2.06982 0
M  V30 1395 C 127.58 0.00889169 -1.69398 0
M  V30 1396 O 128.786 -0.146988 -1.79399 0
M  V30 1397 H 125.161 -0.326248 -0.677544 0
M  V30 1398 H 127.132 -2.00932 -2.2061 0
M  V30 1399 C 125.881 -0.700145 -3.40578 0
M  V30 1400 H 125.204 -1.51537 -3.69968 0
M  V30 1401 H 126.644 -0.603211 -4.19687 0
M  V30 1402 C 125.103 0.59403 -3.31622 0
M  V30 1403 O 125.633 1.63522 -3.66911 0
M  V30 1404 N 123.839 0.58089 -2.84735 0
M  V30 1405 H 123.386 -0.266783 -2.56215 0
M  V30 1406 H 123.344 1.44695 -2.79125 0
M  V30 1407 N 127.117 1.15442 -1.07289 0
M  V30 1408 C 128.366 1.85557 -0.790669 0
M  V30 1409 C 128.679 1.83186 0.685739 0
M  V30 1410 O 129.885 2.48977 1.0827 0
M  V30 1411 C 128.341 3.33038 -1.36433 0
M  V30 1412 C 127.949 3.43856 -2.8717 0
M  V30 1413 C 129.693 4.0834 -1.1601 0
M  V30 1414 C 127.6 4.85482 -3.3773 0
M  V30 1415 H 126.53 0.695122 -0.292098 0
M  V30 1416 H 129.181 1.30219 -1.29287 0
M  V30 1417 H 127.563 3.88043 -0.789864 0
M  V30 1418 H 128.737 2.98961 -3.50655 0
M  V30 1419 H 127.052 2.81998 -3.06376 0
M  V30 1420 H 129.649 5.12859 -1.51262 0
M  V30 1421 H 129.992 4.16182 -0.0991007 0
M  V30 1422 H 130.525 3.59603 -1.70089 0
M  V30 1423 H 127.264 4.82823 -4.43353 0
M  V30 1424 H 126.784 5.30961 -2.78999 0
M  V30 1425 H 128.463 5.54335 -3.33648 0
M  V30 1426 N 128.595 0.856903 1.32268 0
M  V30 1427 C 129.82 0.474569 2.01897 0
M  V30 1428 C 130.245 -0.921766 1.63967 0
M  V30 1429 O 129.603 -1.60589 0.84148 0
M  V30 1430 C 129.651 0.623799 3.55164 0
M  V30 1431 O 128.755 -0.342459 4.10976 0
M  V30 1432 H 128.096 0.190422 0.63611 0
M  V30 1433 H 130.626 1.15672 1.68764 0
M  V30 1434 H 130.636 0.512169 4.04773 0
M  V30 1435 H 129.311 1.64202 3.82113 0
M  V30 1436 H 127.888 -0.18688 3.72431 0
M  V30 1437 N 130.073 -1.45103 0.615059 0
M  V30 1438 C 131.003 -2.33339 -0.0865619 0
M  V30 1439 C 131.984 -1.4727 -0.851209 0
M  V30 1440 O 133.169 -1.76026 -0.820281 0
M  V30 1441 C 130.299 -3.30095 -1.07956 0
M  V30 1442 C 129.253 -4.25858 -0.427628 0
M  V30 1443 C 128.579 -5.12361 -1.5294 0
M  V30 1444 C 129.879 -5.18165 0.655944 0
M  V30 1445 H 131.573 -2.92254 0.650224 0
M  V30 1446 H 129.119 -1.40532 0.314138 0
M  V30 1447 H 131.072 -3.90698 -1.57901 0
M  V30 1448 H 129.796 -2.69355 -1.84703 0
M  V30 1449 H 128.455 -3.66564 0.0510292 0
M  V30 1450 H 128.103 -4.47984 -2.28734 0
M  V30 1451 H 127.803 -5.77238 -1.09865 0
M  V30 1452 H 129.327 -5.75833 -2.03098 0
M  V30 1453 H 130.741 -5.72796 0.240257 0
M  V30 1454 H 129.138 -5.91559 1.00888 0
M  V30 1455 H 130.208 -4.60144 1.52957 0
M  V30 1456 N 131.551 -0.354651 -1.53558 0
M  V30 1457 C 132.797 0.238797 -2.01389 0
M  V30 1458 C 133.13 1.49309 -1.2418 0
M  V30 1459 O 132.405 1.91638 -0.332457 0
M  V30 1460 C 132.688 0.541771 -3.56001 0
M  V30 1461 C 132.541 -0.725388 -4.43912 0
M  V30 1462 C 133.86 1.34685 -4.18984 0
M  V30 1463 H 130.979 0.0853177 -0.732045 0
M  V30 1464 H 133.621 -0.477384 -1.83905 0
M  V30 1465 H 131.771 1.15189 -3.71031 0
M  V30 1466 H 133.443 -1.36313 -4.407 0
M  V30 1467 H 131.686 -1.34801 -4.12324 0
M  V30 1468 H 132.357 -0.468505 -5.50008 0
M  V30 1469 H 134.833 0.830837 -4.07721 0
M  V30 1470 H 133.709 1.52759 -5.27215 0
M  V30 1471 H 133.97 2.35221 -3.74331 0
M  V30 1472 N 133.029 1.57378 -0.0835403 0
M  V30 1473 C 134.276 1.9393 0.58287 0
M  V30 1474 C 134.604 0.964455 1.68904 0
M  V30 1475 O 133.859 -0.0179474 1.95692 0
M  V30 1476 C 134.158 3.37063 1.1884 0
M  V30 1477 C 133.824 4.50424 0.207194 0
M  V30 1478 C 132.486 4.81159 -0.0627115 0
M  V30 1479 C 134.838 5.19136 -0.463426 0
M  V30 1480 C 132.166 5.77939 -1.01012 0
M  V30 1481 C 134.518 6.16931 -1.39924 0
M  V30 1482 C 133.182 6.46078 -1.67749 0
M  V30 1483 H 132.452 0.70964 0.213287 0
M  V30 1484 H 135.099 1.90856 -0.156916 0
M  V30 1485 H 133.404 3.3666 2.00418 0
M  V30 1486 H 135.101 3.6264 1.71153 0
M  V30 1487 H 131.691 4.2646 0.427747 0
M  V30 1488 H 135.875 4.95576 -0.268034 0
M  V30 1489 H 131.131 5.98842 -1.23283 0
M  V30 1490 H 135.305 6.69273 -1.92476 0
M  V30 1491 H 132.932 7.2088 -2.41321 0
M  V30 1492 N 134.507 -0.190092 1.56449 0
M  V30 1493 C 135.784 -0.935886 1.71757 0
M  V30 1494 C 136.164 -2.01173 0.639726 0
M  V30 1495 O 135.512 -2.25827 -0.348502 0
M  V30 1496 C 135.722 -1.51775 3.1427 0
M  V30 1497 C 137.07 -1.99794 3.74656 0
M  V30 1498 O 138.094 -1.61607 3.1743 0
M  V30 1499 O 136.953 -2.70079 4.751 0
M  V30 1500 H 134.047 -0.439229 0.700719 0
M  V30 1501 H 136.593 -0.179395 1.68749 0
M  V30 1502 H 135.365 -0.742505 3.84191 0
M  V30 1503 H 134.988 -2.33894 3.21527 0
M  V30 1504 N 135.985 -1.50799 -0.457987 0
M  V30 1505 C 137.232 -1.62442 -1.20908 0
M  V30 1506 C 137.56 -0.330865 -1.91665 0
M  V30 1507 O 136.815 0.68401 -1.83357 0
M  V30 1508 C 137.114 -2.76358 -2.2663 0
M  V30 1509 C 136.78 -4.16378 -1.73033 0
M  V30 1510 C 135.442 -4.54473 -1.58138 0
M  V30 1511 C 137.794 -5.03836 -1.33413 0
M  V30 1512 C 135.122 -5.77754 -1.02065 0
M  V30 1513 C 137.474 -6.27676 -0.78778 0
M  V30 1514 C 136.138 -6.64562 -0.625561 0
M  V30 1515 H 135.408 -0.594417 -0.442435 0
M  V30 1516 H 138.055 -1.84772 -0.503136 0
M  V30 1517 H 136.36 -2.48167 -3.03184 0
M  V30 1518 H 138.057 -2.82568 -2.84528 0
M  V30 1519 H 134.647 -3.86331 -1.85598 0
M  V30 1520 H 138.831 -4.75026 -1.4375 0
M  V30 1521 H 134.087 -6.04997 -0.882547 0
M  V30 1522 H 138.261 -6.94797 -0.472177 0
M  V30 1523 H 135.888 -7.59965 -0.188926 0
M  V30 1524 N 137.463 0.71206 -1.40597 0
M  V30 1525 C 138.396 1.83582 -1.35546 0
M  V30 1526 C 139.374 1.61032 -0.225284 0
M  V30 1527 O 140.558 1.83998 -0.409519 0
M  V30 1528 C 137.685 3.19983 -1.11034 0
M  V30 1529 C 136.731 3.61355 -2.2655 0
M  V30 1530 S 137.564 3.68062 -3.88961 0
M  V30 1531 C 138.72 5.07216 -3.66719 0
M  V30 1532 H 138.953 1.87586 -2.30648 0
M  V30 1533 H 136.486 0.879182 -1.26924 0
M  V30 1534 H 138.444 3.98734 -0.975761 0
M  V30 1535 H 137.105 3.13608 -0.175798 0
M  V30 1536 H 136.298 4.60403 -2.0505 0
M  V30 1537 H 135.9 2.8987 -2.36329 0
M  V30 1538 H 138.192 5.94238 -3.25404 0
M  V30 1539 H 139.135 5.33753 -4.6531 0
M  V30 1540 H 139.543 4.77976 -3.00332 0
M  V30 1541 N 138.941 1.26152 0.944643 0
M  V30 1542 C 139.851 1.09176 2.07648 0
M  V30 1543 C 140.867 0.0261935 1.7398 0
M  V30 1544 O 142.043 0.229208 2.00091 0
M  V30 1545 C 139.108 0.722915 3.39079 0
M  V30 1546 C 138.169 1.86752 3.86552 0
M  V30 1547 C 137.402 1.51617 5.11711 0
M  V30 1548 O 137.625 0.416331 5.68879 0
M  V30 1549 O 136.559 2.34975 5.54139 0
M  V30 1550 H 140.385 2.0412 2.24875 0
M  V30 1551 H 137.97 1.05182 1.061 0
M  V30 1552 H 139.852 0.529787 4.18056 0
M  V30 1553 H 138.527 -0.197159 3.23099 0
M  V30 1554 H 137.434 2.11558 3.08535 0
M  V30 1555 H 138.767 2.76719 4.07047 0
M  V30 1556 N 140.419 -1.14872 1.07899 0
M  V30 1557 C 141.647 -1.89661 0.82683 0
M  V30 1558 C 142.062 -1.78312 -0.620519 0
M  V30 1559 O 141.419 -1.13888 -1.42604 0
M  V30 1560 C 141.47 -3.39817 1.23316 0
M  V30 1561 O 141.191 -3.50845 2.62372 0
M  V30 1562 C 142.692 -4.31615 1.0111 0
M  V30 1563 H 139.912 -0.60092 0.298557 0
M  V30 1564 H 142.456 -1.4551 1.43691 0
M  V30 1565 H 140.611 -3.8161 0.667286 0
M  V30 1566 H 141.025 -4.44076 2.79101 0
M  V30 1567 H 142.499 -5.35367 1.34486 0
M  V30 1568 H 142.976 -4.39169 -0.0522168 0
M  V30 1569 H 143.582 -3.95572 1.56215 0
M  V30 1570 N 141.898 -0.863906 -1.31812 0
M  V30 1571 C 143.175 -0.39275 -1.91616 0
M  V30 1572 C 143.555 1.12461 -1.7865 0
M  V30 1573 O 142.903 1.95045 -1.19037 0
M  V30 1574 C 143.113 -0.867385 -3.38049 0
M  V30 1575 C 144.461 -0.889966 -4.15168 0
M  V30 1576 O 145.485 -0.812635 -3.46806 0
M  V30 1577 O 144.344 -1.00079 -5.37258 0
M  V30 1578 H 141.438 -0.116358 -0.818773 0
M  V30 1579 H 143.984 -0.951418 -1.40521 0
M  V30 1580 H 142.756 -1.91081 -3.41473 0
M  V30 1581 H 142.379 -0.286687 -3.96565 0
M  V30 1582 N 143.376 1.44774 -0.622745 0
M  V30 1583 C 144.306 2.33382 0.0741861 0
M  V30 1584 C 145.287 1.47719 0.843387 0
M  V30 1585 O 146.472 1.76458 0.810934 0
M  V30 1586 C 143.602 3.30663 1.06204 0
M  V30 1587 C 142.556 4.26079 0.405037 0
M  V30 1588 C 141.882 5.13165 1.5022 0
M  V30 1589 C 143.182 5.1781 -0.683414 0
M  V30 1590 H 144.876 2.91905 -0.665713 0
M  V30 1591 H 142.422 1.40363 -0.321587 0
M  V30 1592 H 144.375 3.9153 1.55827 0
M  V30 1593 H 143.099 2.70331 1.83272 0
M  V30 1594 H 141.758 3.66532 -0.0704683 0
M  V30 1595 H 141.406 4.49191 2.26355 0
M  V30 1596 H 141.106 5.77812 1.06803 0
M  V30 1597 H 142.63 5.76902 2.00041 0
M  V30 1598 H 144.044 5.72661 -0.270631 0
M  V30 1599 H 142.441 5.91015 -1.04023 0
M  V30 1600 H 143.511 4.59326 -1.55395 0
M  V30 1601 N 144.854 0.36279 1.53368 0
M  V30 1602 C 145.764 -0.492994 2.29362 0
M  V30 1603 C 146.78 -1.09507 1.35219 0
M  V30 1604 O 147.956 -1.10662 1.68273 0
M  V30 1605 C 145.021 -1.61855 3.066 0
M  V30 1606 C 144.082 -1.04429 4.16405 0
M  V30 1607 C 143.315 -2.11621 4.89951 0
M  V30 1608 O 143.538 -3.32684 4.63333 0
M  V30 1609 O 142.472 -1.74835 5.75948 0
M  V30 1610 H 146.298 0.125331 3.03441 0
M  V30 1611 H 143.883 0.127253 1.48857 0
M  V30 1612 H 145.765 -2.27302 3.54841 0
M  V30 1613 H 144.44 -2.22233 2.3536 0
M  V30 1614 H 143.347 -0.353819 3.72423 0
M  V30 1615 H 144.68 -0.485113 4.89804 0
M  V30 1616 N 146.332 -1.57332 0.0918853 0
M  V30 1617 C 147.578 -1.94524 -0.573425 0
M  V30 1618 C 147.911 -0.973578 -1.68033 0
M  V30 1619 O 147.186 -0.00609226 -1.94499 0
M  V30 1620 C 147.469 -3.41858 -1.13161 0
M  V30 1621 C 147.322 -4.4979 -0.0299747 0
M  V30 1622 C 148.641 -3.90435 -2.03098 0
M  V30 1623 H 145.76 -0.70734 -0.206975 0
M  V30 1624 H 148.402 -1.89309 0.161942 0
M  V30 1625 H 146.552 -3.46433 -1.7583 0
M  V30 1626 H 148.224 -4.57327 0.604112 0
M  V30 1627 H 146.467 -4.291 0.636833 0
M  V30 1628 H 147.138 -5.50069 -0.461287 0
M  V30 1629 H 149.614 -3.87992 -1.50338 0
M  V30 1630 H 148.49 -4.94097 -2.39081 0
M  V30 1631 H 148.751 -3.29541 -2.94712 0
M  V30 1632 N 147.81 0.181792 -1.56548 0
M  V30 1633 C 149.059 0.898348 -1.8059 0
M  V30 1634 C 149.372 1.83862 -0.667379 0
M  V30 1635 O 150.578 2.59678 -0.792446 0
M  V30 1636 C 149.034 1.64791 -3.19956 0
M  V30 1637 C 148.642 0.751789 -4.41647 0
M  V30 1638 C 150.386 2.35331 -3.53298 0
M  V30 1639 C 148.293 1.50098 -5.72035 0
M  V30 1640 H 147.223 0.339194 -0.673397 0
M  V30 1641 H 149.874 0.151413 -1.82874 0
M  V30 1642 H 148.256 2.43921 -3.11959 0
M  V30 1643 H 149.43 -0.0018076 -4.608 0
M  V30 1644 H 147.745 0.156562 -4.16106 0
M  V30 1645 H 150.342 2.91958 -4.47956 0
M  V30 1646 H 150.685 3.10164 -2.77676 0
M  V30 1647 H 151.218 1.63154 -3.62803 0
M  V30 1648 H 147.957 0.795175 -6.50659 0
M  V30 1649 H 147.477 2.22817 -5.56878 0
M  V30 1650 H 149.156 2.05125 -6.13622 0
M  V30 1651 N 149.288 1.51039 0.449983 0
M  V30 1652 C 150.537 1.62317 1.19733 0
M  V30 1653 C 150.85 0.339101 1.92638 0
M  V30 1654 O 152.056 0.331069 2.69474 0
M  V30 1655 C 150.512 2.86608 2.17678 0
M  V30 1656 C 150.12 4.21972 1.50479 0
M  V30 1657 C 151.864 3.07239 2.92924 0
M  V30 1658 C 149.771 5.37426 2.46834 0
M  V30 1659 H 148.701 0.604532 0.450619 0
M  V30 1660 H 151.352 1.77494 0.465625 0
M  V30 1661 H 149.734 2.65037 2.94231 0
M  V30 1662 H 150.908 4.53878 0.795716 0
M  V30 1663 H 149.223 4.07117 0.874344 0
M  V30 1664 H 151.82 3.90668 3.65079 0
M  V30 1665 H 152.163 2.19807 3.5354 0
M  V30 1666 H 152.696 3.29091 2.23481 0
M  V30 1667 H 149.435 6.27079 1.90926 0
M  V30 1668 H 148.955 5.09912 3.15832 0
M  V30 1669 H 150.634 5.68862 3.08228 0
M  V30 1670 N 150.766 -0.704594 1.40972 0
M  V30 1671 C 151.713 -1.81862 1.42109 0
M  V30 1672 C 152.683 -1.63781 0.276593 0
M  V30 1673 O 153.868 -1.84759 0.4763 0
M  V30 1674 C 151.008 -3.19669 1.30022 0
M  V30 1675 C 150.121 -3.49246 2.54267 0
M  V30 1676 C 149.256 -4.76618 2.3454 0
M  V30 1677 C 148.295 -4.99133 3.54306 0
M  V30 1678 N 147.432 -6.17726 3.33706 0
M  V30 1679 H 152.272 -1.80226 2.37324 0
M  V30 1680 H 149.809 -0.880238 1.17857 0
M  V30 1681 H 151.767 -3.99263 1.21018 0
M  V30 1682 H 150.397 -3.20506 0.384192 0
M  V30 1683 H 149.449 -2.64125 2.73756 0
M  V30 1684 H 150.761 -3.61788 3.43381 0
M  V30 1685 H 149.915 -5.64249 2.22952 0
M  V30 1686 H 148.654 -4.66305 1.42867 0
M  V30 1687 H 147.659 -4.09953 3.66359 0
M  V30 1688 H 148.884 -5.11311 4.4692 0
M  V30 1689 H 146.83 -6.08642 2.44725 0
M  V30 1690 H 146.747 -6.30995 4.16391 0
M  V30 1691 H 148.015 -7.08115 3.25873 0
M  V30 1692 N 152.244 -1.26651 -0.937939 0
M  V30 1693 C 153.521 -1.0313 -1.66204 0
M  V30 1694 C 153.901 0.437256 -2.06522 0
M  V30 1695 O 153.249 1.41831 -1.79154 0
M  V30 1696 C 153.459 -1.98314 -2.87181 0
M  V30 1697 C 154.807 -2.27107 -3.58758 0
M  V30 1698 O 155.831 -1.96205 -2.97291 0
M  V30 1699 O 154.69 -2.79736 -4.69479 0
M  V30 1700 H 151.784 -0.392384 -0.727986 0
M  V30 1701 H 154.33 -1.37874 -0.989382 0
M  V30 1702 H 153.102 -2.97399 -2.54302 0
M  V30 1703 H 152.725 -1.64068 -3.6217 0
M  V30 1704 N 153.722 1.14298 -1.08507 0
M  V30 1705 C 154.67 2.21483 -0.710483 0
M  V30 1706 C 155.664 1.66998 0.284234 0
M  V30 1707 O 156.87 1.79401 0.146692 0
M  V30 1708 H 153.245 0.721578 -0.211729 0
M  V30 1709 H 155.216 2.50348 -1.62384 0
M  V30 1710 C 153.965 3.4743 -0.137007 0
M  V30 1711 H 153.288 3.89686 -0.893592 0
M  V30 1712 H 154.728 4.2391 0.0872789 0
M  V30 1713 C 153.187 3.17548 1.12538 0
M  V30 1714 O 153.717 3.35437 2.21009 0
M  V30 1715 N 151.923 2.71499 1.03617 0
M  V30 1716 H 151.47 2.57143 0.153403 0
M  V30 1717 H 151.428 2.51881 1.88158 0
M  V30 1718 N 155.201 0.870884 1.31352 0
M  V30 1719 C 156.426 0.495957 2.01383 0
M  V30 1720 C 156.851 -0.904324 1.64935 0
M  V30 1721 O 156.209 -1.59687 0.858466 0
M  V30 1722 C 156.257 0.661433 3.54482 0
M  V30 1723 O 155.361 -0.298851 4.11316 0
M  V30 1724 H 154.702 0.197158 0.634054 0
M  V30 1725 H 157.232 1.17455 1.67527 0
M  V30 1726 H 157.242 0.555072 4.04207 0
M  V30 1727 H 155.917 1.68246 3.8035 0
M  V30 1728 H 154.494 -0.147368 3.72609 0
M  V30 1729 N 156.679 -1.44442 0.630414 0
M  V30 1730 C 157.609 -2.33418 -0.0618083 0
M  V30 1731 C 158.59 -1.48165 -0.835541 0
M  V30 1732 O 159.775 -1.76886 -0.801564 0
M  V30 1733 C 156.905 -3.31222 -1.04449 0
M  V30 1734 C 155.859 -4.26288 -0.382436 0
M  V30 1735 C 155.185 -5.13954 -1.47497 0
M  V30 1736 C 156.485 -5.1744 0.710865 0
M  V30 1737 H 158.179 -2.91548 0.681184 0
M  V30 1738 H 155.725 -1.40191 0.329026 0
M  V30 1739 H 157.678 -3.92351 -1.53748 0
M  V30 1740 H 156.402 -2.71299 -1.81836 0
M  V30 1741 H 155.061 -3.6649 0.0899054 0
M  V30 1742 H 154.709 -4.50385 -2.2397 0
M  V30 1743 H 154.409 -5.7837 -1.03737 0
M  V30 1744 H 155.933 -5.77955 -1.96979 0
M  V30 1745 H 157.347 -5.72509 0.300996 0
M  V30 1746 H 155.744 -5.90455 1.07156 0
M  V30 1747 H 156.814 -4.58496 1.57829 0
M  V30 1748 N 158.157 -0.370918 -1.53173 0
M  V30 1749 C 159.403 0.217423 -2.01631 0
M  V30 1750 C 159.736 1.47983 -1.25756 0
M  V30 1751 O 159.011 1.91274 -0.352764 0
M  V30 1752 C 159.294 0.503982 -3.56556 0
M  V30 1753 C 159.147 -0.77243 -4.43118 0
M  V30 1754 C 160.466 1.30234 -4.20389 0
M  V30 1755 H 157.585 0.0775486 -0.732909 0
M  V30 1756 H 160.227 -0.496863 -1.83388 0
M  V30 1757 H 158.377 1.11248 -3.72231 0
M  V30 1758 H 160.049 -1.4098 -4.39229 0
M  V30 1759 H 158.292 -1.39167 -4.10871 0
M  V30 1760 H 158.963 -0.526815 -5.4948 0
M  V30 1761 H 161.439 0.787546 -4.08579 0
M  V30 1762 H 160.315 1.47158 -5.28806 0
M  V30 1763 H 160.576 2.31237 -3.76805 0
M  V30 1764 N 159.635 1.57281 -0.100228 0
M  V30 1765 C 160.565 2.17328 0.853857 0
M  V30 1766 C 161.546 1.10804 1.2906 0
M  V30 1767 O 162.731 1.38963 1.35657 0
M  V30 1768 C 159.861 2.75772 2.11109 0
M  V30 1769 C 158.815 3.87713 1.81279 0
M  V30 1770 C 158.141 4.32882 3.13874 0
M  V30 1771 C 159.441 5.10677 1.09574 0
M  V30 1772 H 161.135 2.97305 0.353545 0
M  V30 1773 H 158.681 1.43009 0.168612 0
M  V30 1774 H 160.634 3.16433 2.78296 0
M  V30 1775 H 159.358 1.93057 2.63432 0
M  V30 1776 H 158.017 3.476 1.16489 0
M  V30 1777 H 157.665 3.47051 3.64095 0
M  V30 1778 H 157.365 5.08358 2.94696 0
M  V30 1779 H 158.889 4.7618 3.82211 0
M  V30 1780 H 160.303 5.48474 1.66879 0
M  V30 1781 H 158.7 5.91615 1.00557 0
M  V30 1782 H 159.77 4.84835 0.0793299 0
M  V30 1783 N 161.113 -0.173488 1.56642 0
M  V30 1784 C 162.341 -0.906095 1.86004 0
M  V30 1785 C 162.756 -1.75921 0.685355 0
M  V30 1786 O 162.113 -1.79198 -0.345578 0
M  V30 1787 C 162.164 -1.78462 3.14378 0
M  V30 1788 O 161.885 -0.965914 4.27319 0
M  V30 1789 C 163.386 -2.62707 3.57071 0
M  V30 1790 H 160.606 -0.263341 0.617165 0
M  V30 1791 H 163.15 -0.174236 2.03756 0
M  V30 1792 H 161.305 -2.46984 2.98459 0
M  V30 1793 H 161.719 -1.56655 5.00559 0
M  V30 1794 H 163.193 -3.19969 4.49804 0
M  V30 1795 H 163.67 -3.37472 2.81086 0
M  V30 1796 H 164.276 -1.99521 3.75595 0
M  V30 1797 N 162.591 -1.51276 -0.441967 0
M  V30 1798 C 164.002 -1.56244 -1.02199 0
M  V30 1799 C 164.353 -0.383149 -1.92422 0
M  V30 1800 O 163.478 0.500613 -2.1053 0
M  V30 1801 C 164.073 -2.83162 -1.86024 0
M  V30 1802 C 162.632 -2.90716 -2.39084 0
M  V30 1803 C 161.779 -2.50858 -1.18175 0
M  V30 1804 H 164.73 -1.5712 -0.223416 0
M  V30 1805 H 164.751 -2.66663 -2.71425 0
M  V30 1806 H 164.263 -3.68974 -1.20331 0
M  V30 1807 H 162.364 -2.09323 -3.08244 0
M  V30 1808 H 162.477 -3.94266 -2.72198 0
M  V30 1809 H 160.841 -2.03951 -1.52565 0
M  V30 1810 H 161.624 -3.3901 -0.541001 0
M  V30 1811 N 164.069 0.697108 -1.41344 0
M  V30 1812 C 165.294 1.49096 -1.44171 0
M  V30 1813 C 165.719 1.88038 -0.0481568 0
M  V30 1814 O 165.077 1.54525 0.948243 0
M  V30 1815 C 165.125 2.73088 -2.3549 0
M  V30 1816 O 164.229 3.70514 -1.81088 0
M  V30 1817 H 163.57 0.448801 -0.489361 0
M  V30 1818 H 166.1 0.856992 -1.85787 0
M  V30 1819 H 166.11 3.21413 -2.51312 0
M  V30 1820 H 164.785 2.44081 -3.36745 0
M  V30 1821 H 163.362 3.29441 -1.74708 0
M  V30 1822 N 165.547 1.27147 0.931209 0
M  V30 1823 C 166.497 1.06227 2.01742 0
M  V30 1824 C 167.481 -0.00859065 1.60898 0
M  V30 1825 O 168.673 0.209537 1.75755 0
M  V30 1826 C 165.802 0.707787 3.35924 0
M  V30 1827 C 164.888 1.81661 3.83223 0
M  V30 1828 N 165.279 3.05564 4.03069 0
M  V30 1829 C 163.577 1.70249 4.12227 0
M  V30 1830 C 164.278 3.77697 4.42403 0
M  V30 1831 N 163.254 3.0544 4.49675 0
M  V30 1832 H 167.056 2.00261 2.15111 0
M  V30 1833 H 164.57 1.1781 1.11779 0
M  V30 1834 H 166.567 0.539043 4.134 0
M  V30 1835 H 165.227 -0.224964 3.2392 0
M  V30 1836 H 166.238 3.41363 3.89476 0
M  V30 1837 H 162.915 0.840329 4.08956 0
M  V30 1838 H 164.305 4.84168 4.65866 0
M  V30 1839 N 167.025 -1.13721 1.09112 0
M  V30 1840 C 168.274 -1.84275 0.82009 0
M  V30 1841 C 168.587 -1.84253 -0.656509 0
M  V30 1842 O 169.793 -2.50668 -1.04296 0
M  V30 1843 C 168.249 -3.30825 1.41714 0
M  V30 1844 C 167.857 -3.39244 2.92605 0
M  V30 1845 C 169.601 -4.06443 1.22492 0
M  V30 1846 C 167.508 -4.80047 3.45411 0
M  V30 1847 H 166.438 -0.690387 0.30312 0
M  V30 1848 H 169.089 -1.28146 1.31343 0
M  V30 1849 H 167.471 -3.86737 0.851498 0
M  V30 1850 H 168.645 -2.93344 3.55367 0
M  V30 1851 H 166.96 -2.77088 3.10823 0
M  V30 1852 H 169.557 -5.10387 1.59402 0
M  V30 1853 H 169.9 -4.15972 0.165299 0
M  V30 1854 H 170.433 -3.56852 1.75788 0
M  V30 1855 H 167.172 -4.75709 4.50978 0
M  V30 1856 H 166.692 -5.26455 2.87411 0
M  V30 1857 H 168.371 -5.48957 3.42425 0
M  V30 1858 N 168.503 -0.877838 -1.30888 0
M  V30 1859 C 169.45 -0.337538 -2.28318 0
M  V30 1860 C 170.42 0.568346 -1.56074 0
M  V30 1861 O 171.605 0.498298 -1.84178 0
M  V30 1862 C 168.745 0.448142 -3.42178 0
M  V30 1863 C 167.858 -0.48615 -4.29256 0
M  V30 1864 C 166.993 0.314427 -5.30269 0
M  V30 1865 C 166.032 -0.615791 -6.08995 0
M  V30 1866 N 165.169 0.14902 -7.01942 0
M  V30 1867 H 170.009 -1.17356 -2.73919 0
M  V30 1868 H 167.546 -0.590094 -1.34745 0
M  V30 1869 H 169.504 0.919517 -4.06941 0
M  V30 1870 H 168.134 1.24879 -2.97666 0
M  V30 1871 H 167.186 -1.076 -3.64865 0
M  V30 1872 H 168.498 -1.19909 -4.84173 0
M  V30 1873 H 167.652 0.847969 -6.00745 0
M  V30 1874 H 166.391 1.06062 -4.76027 0
M  V30 1875 H 165.396 -1.16102 -5.37401 0
M  V30 1876 H 166.621 -1.36097 -6.65323 0
M  V30 1877 H 164.567 0.877884 -6.50099 0
M  V30 1878 H 164.484 -0.504433 -7.54315 0
M  V30 1879 H 165.752 0.663537 -7.76671 0
M  V30 1880 N 169.982 1.44106 -0.638065 0
M  V30 1881 C 170.945 2.29138 0.0531013 0
M  V30 1882 C 171.945 1.41409 0.765506 0
M  V30 1883 O 173.135 1.63206 0.609046 0
M  V30 1884 C 170.267 3.23144 1.08584 0
M  V30 1885 H 171.46 2.91739 -0.694883 0
M  V30 1886 H 169.013 1.51134 -0.398538 0
M  V30 1887 H 169.748 2.65408 1.86357 0
M  V30 1888 H 169.533 3.87804 0.578852 0
M  V30 1889 H 171.023 3.87004 1.56899 0
M  V30 1890 N 171.46 0.379036 1.52974 0
M  V30 1891 C 172.69 -0.20649 2.05566 0
M  V30 1892 C 173.098 -1.41906 1.25137 0
M  V30 1893 O 172.441 -1.81421 0.288464 0
M  V30 1894 C 172.503 -0.651086 3.53555 0
M  V30 1895 C 172.167 0.446626 4.54812 0
M  V30 1896 C 173.164 1.30079 5.03364 0
M  V30 1897 C 170.849 0.610719 4.98573 0
M  V30 1898 C 172.843 2.30426 5.94292 0
M  V30 1899 C 170.53 1.61754 5.89304 0
M  V30 1900 C 171.528 2.46274 6.37054 0
M  V30 1901 O 171.216 3.45237 7.25994 0
M  V30 1902 H 170.948 -0.0372381 0.674974 0
M  V30 1903 H 173.502 0.539718 1.98182 0
M  V30 1904 H 171.732 -1.44911 3.58522 0
M  V30 1905 H 173.421 -1.16112 3.88938 0
M  V30 1906 H 174.187 1.18527 4.70294 0
M  V30 1907 H 170.066 -0.0374044 4.60985 0
M  V30 1908 H 173.61 2.96432 6.31485 0
M  V30 1909 H 169.507 1.73348 6.21788 0
M  V30 1910 H 170.275 3.41124 7.44027 0
M  V30 1911 N 172.938 -1.57226 0.108567 0
M  V30 1912 C 173.871 -2.10447 -0.882464 0
M  V30 1913 C 174.849 -1.01829 -1.26766 0
M  V30 1914 O 176.033 -1.29415 -1.37054 0
M  V30 1915 C 173.16 -2.59258 -2.17952 0
M  V30 1916 C 172.206 -3.79662 -1.94318 0
M  V30 1917 S 173.039 -5.22586 -1.16892 0
M  V30 1918 C 174.195 -5.74758 -2.47799 0
M  V30 1919 H 174.428 -2.94178 -0.429745 0
M  V30 1920 H 171.961 -1.54043 -0.105 0
M  V30 1921 H 173.919 -2.88036 -2.92482 0
M  V30 1922 H 172.58 -1.75728 -2.60343 0
M  V30 1923 H 171.773 -4.11928 -2.90399 0
M  V30 1924 H 171.375 -3.51446 -1.27913 0
M  V30 1925 H 173.667 -5.83846 -3.43701 0
M  V30 1926 H 174.61 -6.73027 -2.20093 0
M  V30 1927 H 175.018 -5.02763 -2.56689 0
M  V30 1928 N 174.416 0.165178 -1.56732 0
M  V30 1929 C 175.346 1.20651 -1.99914 0
M  V30 1930 C 176.327 1.45827 -0.875705 0
M  V30 1931 O 177.512 1.57057 -1.14223 0
M  V30 1932 C 174.642 2.54401 -2.36427 0
M  V30 1933 C 173.596 2.43782 -3.51787 0
M  V30 1934 C 172.922 3.82078 -3.7406 0
M  V30 1935 C 174.222 1.93732 -4.85041 0
M  V30 1936 H 175.916 0.847534 -2.87154 0
M  V30 1937 H 173.462 0.40625 -1.38151 0
M  V30 1938 H 175.415 3.27458 -2.65234 0
M  V30 1939 H 174.139 2.92098 -1.46103 0
M  V30 1940 H 172.798 1.73178 -3.23117 0
M  V30 1941 H 172.446 4.17179 -2.81017 0
M  V30 1942 H 172.146 3.7584 -4.51684 0
M  V30 1943 H 173.67 4.56712 -4.05274 0
M  V30 1944 H 175.084 2.56569 -5.12684 0
M  V30 1945 H 173.481 1.98428 -5.66345 0
M  V30 1946 H 174.551 0.891962 -4.76626 0
M  V30 1947 N 175.894 1.51508 0.433938 0
M  V30 1948 C 176.827 1.67756 1.54704 0
M  V30 1949 C 177.805 0.525127 1.53887 0
M  V30 1950 O 178.989 0.749393 1.72963 0
M  V30 1951 C 176.116 1.69424 2.9328 0
M  V30 1952 C 175.162 2.90673 3.12108 0
M  V30 1953 S 175.995 4.51431 2.88046 0
M  V30 1954 C 177.151 4.55849 4.28897 0
M  V30 1955 H 177.384 2.61904 1.40689 0
M  V30 1956 H 174.917 1.41235 0.62386 0
M  V30 1957 H 176.875 1.7107 3.73156 0
M  V30 1958 H 175.536 0.764464 3.04655 0
M  V30 1959 H 174.729 2.88251 4.13434 0
M  V30 1960 H 174.331 2.86786 2.40062 0
M  V30 1961 H 176.623 4.31699 5.22152 0
M  V30 1962 H 177.566 5.57676 4.36351 0
M  V30 1963 H 177.974 3.85137 4.12711 0
M  V30 1964 N 177.372 -0.689602 1.41712 0
M  V30 1965 C 178.6 -1.47827 1.44758 0
M  V30 1966 C 179.015 -1.88721 0.0545703 0
M  V30 1967 O 178.372 -1.57176 -0.927463 0
M  V30 1968 C 178.423 -2.73698 2.3616 0
M  V30 1969 O 178.144 -2.34524 3.7004 0
M  V30 1970 C 179.645 -3.67389 2.48072 0
M  V30 1971 H 176.865 -0.455357 0.49284 0
M  V30 1972 H 179.409 -0.848574 1.86063 0
M  V30 1973 H 177.564 -3.32891 1.98148 0
M  V30 1974 H 177.978 -3.15701 4.18847 0
M  V30 1975 H 179.452 -4.52475 3.16181 0
M  V30 1976 H 179.929 -4.12284 1.51388 0
M  V30 1977 H 180.535 -3.14097 2.86746 0
M  V30 1978 N 178.85 -1.27639 -0.924453 0
M  V30 1979 C 179.78 -1.13166 -2.04244 0
M  V30 1980 C 180.761 -0.032256 -1.70069 0
M  V30 1981 O 181.946 -0.207328 -1.9309 0
M  V30 1982 C 179.076 -0.781496 -3.38393 0
M  V30 1983 C 178.03 -1.83449 -3.86692 0
M  V30 1984 C 177.356 -1.33822 -5.17683 0
M  V30 1985 C 178.656 -3.23917 -4.09726 0
M  V30 1986 H 180.35 -2.06689 -2.1661 0
M  V30 1987 H 177.896 -0.995136 -1.04082 0
M  V30 1988 H 179.849 -0.667057 -4.16087 0
M  V30 1989 H 178.573 0.189439 -3.2605 0
M  V30 1990 H 177.232 -1.93789 -3.11193 0
M  V30 1991 H 176.88 -0.35665 -5.01734 0
M  V30 1992 H 176.58 -2.04224 -5.50968 0
M  V30 1993 H 178.104 -1.23679 -5.97943 0
M  V30 1994 H 179.518 -3.16559 -4.77978 0
M  V30 1995 H 177.915 -3.92059 -4.54324 0
M  V30 1996 H 178.985 -3.68729 -3.14908 0
M  V30 1997 N 180.328 1.1314 -1.09713 0
M  V30 1998 C 181.26 2.18343 -0.697056 0
M  V30 1999 C 182.273 1.60669 0.262551 0
M  V30 2000 O 183.462 1.78435 0.0481527 0
M  V30 2001 C 180.562 3.38899 -0.00684728 0
M  V30 2002 C 179.735 4.26078 -0.988741 0
M  V30 2003 C 178.794 5.25155 -0.331394 0
M  V30 2004 O 177.82 5.60701 -0.979926 0
M  V30 2005 N 179.022 5.73271 0.913261 0
M  V30 2006 H 181.787 2.5328 -1.60216 0
M  V30 2007 H 179.348 1.28491 -0.984971 0
M  V30 2008 H 181.34 4.02255 0.444191 0
M  V30 2009 H 179.91 3.02175 0.800551 0
M  V30 2010 H 179.13 3.59453 -1.61826 0
M  V30 2011 H 180.418 4.81178 -1.65364 0
M  V30 2012 H 179.816 5.46544 1.45966 0
M  V30 2013 H 178.373 6.3855 1.30757 0
M  V30 2014 N 181.806 0.884767 1.30421 0
M  V30 2015 C 183.054 0.502112 1.95763 0
M  V30 2016 C 183.375 -0.951815 1.70192 0
M  V30 2017 O 182.645 -1.6692 1.0254 0
M  V30 2018 H 181.225 0.182694 0.724315 0
M  V30 2019 H 183.887 1.1278 1.58955 0
M  V30 2020 H 182.983 0.672188 3.04775 0
M  V30 2021 N 183.284 -1.43765 0.645699 0
M  V30 2022 C 184.214 -2.33471 -0.0370477 0
M  V30 2023 C 185.195 -1.49042 -0.819779 0
M  V30 2024 O 186.38 -1.77726 -0.782758 0
M  V30 2025 C 183.51 -3.32311 -1.0093 0
M  V30 2026 C 182.464 -4.2667 -0.337201 0
M  V30 2027 C 181.79 -5.1549 -1.42037 0
M  V30 2028 C 183.09 -5.16657 0.765706 0
M  V30 2029 H 184.784 -2.90809 0.712069 0
M  V30 2030 H 182.33 -1.39834 0.343876 0
M  V30 2031 H 184.283 -3.9396 -1.49578 0
M  V30 2032 H 183.007 -2.73213 -1.78948 0
M  V30 2033 H 181.666 -3.66374 0.128771 0
M  V30 2034 H 181.314 -4.52735 -2.1918 0
M  V30 2035 H 181.014 -5.79438 -0.975966 0
M  V30 2036 H 182.538 -5.80012 -1.90838 0
M  V30 2037 H 183.952 -5.72158 0.361702 0
M  V30 2038 H 182.349 -5.89286 1.13413 0
M  V30 2039 H 183.419 -4.56796 1.62683 0
M  V30 2040 N 184.763 -0.387143 -1.52771 0
M  V30 2041 C 185.673 0.456442 -2.30117 0
M  V30 2042 C 186.689 1.07342 -1.36944 0
M  V30 2043 O 187.865 1.07971 -1.70013 0
M  V30 2044 C 184.93 1.56957 -3.09136 0
M  V30 2045 C 183.991 0.977916 -4.18014 0
M  V30 2046 C 183.224 2.038 -4.93256 0
M  V30 2047 O 183.447 3.25271 -4.68567 0
M  V30 2048 O 182.381 1.6565 -5.78657 0
M  V30 2049 H 186.207 -0.17359 -3.03203 0
M  V30 2050 H 183.792 -0.150919 -1.48636 0
M  V30 2051 H 185.674 2.21628 -3.58412 0
M  V30 2052 H 184.349 2.18461 -2.38865 0
M  V30 2053 H 183.256 0.294525 -3.72939 0
M  V30 2054 H 184.589 0.407128 -4.90513 0
M  V30 2055 N 186.241 1.57166 -0.116904 0
M  V30 2056 C 187.471 1.99184 0.548586 0
M  V30 2057 C 187.879 0.995436 1.60897 0
M  V30 2058 O 187.222 -0.0201293 1.83689 0
M  V30 2059 C 187.284 3.37611 1.23526 0
M  V30 2060 C 186.948 4.55857 0.323077 0
M  V30 2061 C 187.945 5.18056 -0.437476 0
M  V30 2062 C 185.63 5.01751 0.234761 0
M  V30 2063 C 187.624 6.24536 -1.2741 0
M  V30 2064 C 185.311 6.08093 -0.605496 0
M  V30 2065 C 186.309 6.69352 -1.35856 0
M  V30 2066 O 185.997 7.7364 -2.18487 0
M  V30 2067 H 185.729 0.659148 0.149999 0
M  V30 2068 H 188.283 2.0443 -0.199428 0
M  V30 2069 H 186.513 3.29113 2.0303 0
M  V30 2070 H 188.202 3.63932 1.79745 0
M  V30 2071 H 188.968 4.83516 -0.379105 0
M  V30 2072 H 184.847 4.53817 0.810601 0
M  V30 2073 H 188.391 6.72281 -1.86237 0
M  V30 2074 H 184.288 6.42063 -0.665268 0
M  V30 2075 H 185.056 7.90727 -2.11406 0
M  V30 2076 N 187.719 -0.156864 1.56817 0
M  V30 2077 C 188.649 -1.19589 2.00551 0
M  V30 2078 C 189.63 -1.4536 0.883426 0
M  V30 2079 O 190.815 -1.56449 1.15054 0
M  V30 2080 C 187.945 -2.53143 2.37773 0
M  V30 2081 C 186.899 -2.41913 3.53075 0
M  V30 2082 C 186.225 -3.80088 3.76081 0
M  V30 2083 C 187.525 -1.91157 4.86062 0
M  V30 2084 H 189.219 -0.832293 2.87599 0
M  V30 2085 H 186.765 -0.398918 1.38364 0
M  V30 2086 H 188.718 -3.26047 2.66967 0
M  V30 2087 H 187.442 -2.91319 1.4765 0
M  V30 2088 H 186.101 -1.71462 3.24031 0
M  V30 2089 H 185.749 -4.15683 2.83225 0
M  V30 2090 H 185.449 -3.73439 4.53671 0
M  V30 2091 H 186.973 -4.54556 4.0769 0
M  V30 2092 H 188.387 -2.53846 5.14038 0
M  V30 2093 H 186.784 -1.95422 5.67389 0
M  V30 2094 H 187.854 -0.866673 4.77092 0
M  V30 2095 N 189.197 -1.51736 -0.425897 0
M  V30 2096 C 190.147 -1.70258 -1.51645 0
M  V30 2097 C 191.131 -0.556488 -1.5097 0
M  V30 2098 O 192.323 -0.812879 -1.5723 0
M  V30 2099 C 189.452 -1.84143 -2.89735 0
M  V30 2100 C 188.538 -3.04572 -2.95122 0
M  V30 2101 N 188.929 -4.2756 -2.70233 0
M  V30 2102 C 187.227 -3.04061 -3.26286 0
M  V30 2103 C 187.928 -5.08908 -2.81757 0
M  V30 2104 N 186.904 -4.43797 -3.13919 0
M  V30 2105 H 190.706 -2.63004 -1.31172 0
M  V30 2106 H 188.22 -1.4954 -0.633375 0
M  V30 2107 H 190.217 -1.95525 -3.68206 0
M  V30 2108 H 188.877 -0.925857 -3.1122 0
M  V30 2109 H 189.888 -4.56315 -2.44943 0
M  V30 2110 H 186.565 -2.22179 -3.53473 0
M  V30 2111 H 187.955 -6.16843 -2.66372 0
M  V30 2112 N 190.675 0.682077 -1.42076 0
M  V30 2113 C 191.607 1.80755 -1.40926 0
M  V30 2114 C 192.62 1.59833 -0.309398 0
M  V30 2115 O 193.809 1.69087 -0.572014 0
M  V30 2116 C 190.909 3.17744 -1.17865 0
M  V30 2117 C 190.082 3.65578 -2.40149 0
M  V30 2118 C 189.141 4.81277 -2.12742 0
M  V30 2119 O 188.167 4.92197 -2.85887 0
M  V30 2120 N 189.369 5.69474 -1.12602 0
M  V30 2121 H 192.134 1.82229 -2.37935 0
M  V30 2122 H 189.695 0.864903 -1.36861 0
M  V30 2123 H 191.687 3.9279 -0.9746 0
M  V30 2124 H 190.257 3.11214 -0.294068 0
M  V30 2125 H 189.477 2.81291 -2.76169 0
M  V30 2126 H 190.765 3.94278 -3.21593 0
M  V30 2127 H 190.163 5.63297 -0.520899 0
M  V30 2128 H 188.72 6.44363 -0.981842 0
M  V30 2129 N 192.153 1.28127 0.917671 0
M  V30 2130 C 193.103 1.08361 2.00604 0
M  V30 2131 C 194.087 0.00847518 1.60898 0
M  V30 2132 O 195.279 0.228167 1.75523 0
M  V30 2133 C 192.408 0.743376 3.35155 0
M  V30 2134 C 191.494 1.85716 3.81275 0
M  V30 2135 N 191.885 3.09822 3.99805 0
M  V30 2136 C 190.183 1.74612 4.10398 0
M  V30 2137 C 190.884 3.82368 4.38372 0
M  V30 2138 N 189.86 3.10192 4.4641 0
M  V30 2139 H 193.662 2.02531 2.12975 0
M  V30 2140 H 191.176 1.18989 1.10523 0
M  V30 2141 H 193.173 0.582859 4.12805 0
M  V30 2142 H 191.833 -0.190595 3.2414 0
M  V30 2143 H 192.844 3.45475 3.85833 0
M  V30 2144 H 189.521 0.883657 4.08041 0
M  V30 2145 H 190.911 4.89082 4.60704 0
M  V30 2146 N 193.631 -1.12557 1.10312 0
M  V30 2147 C 194.877 -1.84515 0.855901 0
M  V30 2148 C 195.232 -1.82409 -0.611936 0
M  V30 2149 O 194.525 -1.25778 -1.44535 0
M  V30 2150 C 194.719 -3.31462 1.33669 0
M  V30 2151 C 194.548 -3.47879 2.84974 0
M  V30 2152 C 193.318 -3.61589 3.52961 0
M  V30 2153 C 195.516 -3.43152 3.83081 0
M  V30 2154 N 193.498 -3.66359 4.926 0
M  V30 2155 C 194.869 -3.54401 5.08724 0
M  V30 2156 C 196.924 -3.2661 3.75807 0
M  V30 2157 C 195.627 -3.50815 6.2795 0
M  V30 2158 C 197.653 -3.24335 4.94531 0
M  V30 2159 C 197.015 -3.36144 6.19021 0
M  V30 2160 H 193.114 -0.690967 0.366182 0
M  V30 2161 H 195.698 -1.34763 1.40524 0
M  V30 2162 H 193.869 -3.7976 0.814686 0
M  V30 2163 H 195.601 -3.91272 1.03385 0
M  V30 2164 H 192.356 -3.63652 3.03404 0
M  V30 2165 H 192.78 -3.72411 5.65366 0
M  V30 2166 H 197.422 -3.16375 2.80476 0
M  V30 2167 H 195.14 -3.5982 7.23571 0
M  V30 2168 H 198.726 -3.12719 4.9061 0
M  V30 2169 H 197.606 -3.34357 7.09348 0
M  V30 2170 N 195.109 -0.891671 -1.2995 0
M  V30 2171 C 196.358 -0.509521 -1.95158 0
M  V30 2172 C 196.671 0.947388 -1.71125 0
M  V30 2173 O 197.877 1.43669 -2.30372 0
M  V30 2174 C 196.333 -0.860315 -3.49466 0
M  V30 2175 C 195.941 -2.33545 -3.8231 0
M  V30 2176 C 197.685 -0.547687 -4.20952 0
M  V30 2177 C 195.592 -2.62752 -5.29826 0
M  V30 2178 H 194.522 -0.18682 -0.730489 0
M  V30 2179 H 197.173 -1.08756 -1.47798 0
M  V30 2180 H 195.555 -0.211285 -3.95436 0
M  V30 2181 H 196.729 -3.02936 -3.47227 0
M  V30 2182 H 195.044 -2.61629 -3.23944 0
M  V30 2183 H 197.641 -0.742854 -5.29515 0
M  V30 2184 H 197.984 0.51332 -4.13123 0
M  V30 2185 H 198.517 -1.1542 -3.80688 0
M  V30 2186 H 195.256 -3.6762 -5.42712 0
M  V30 2187 H 194.776 -1.97977 -5.66185 0
M  V30 2188 H 196.455 -2.48601 -5.97333 0
M  V30 2189 N 196.587 1.43421 -0.653314 0
M  V30 2190 C 197.517 2.33487 0.0246656 0
M  V30 2191 C 198.498 1.49475 0.811863 0
M  V30 2192 O 199.683 1.78139 0.773322 0
M  V30 2193 C 196.813 3.32841 0.99166 0
M  V30 2194 C 195.767 4.26842 0.314568 0
M  V30 2195 C 195.093 5.16236 1.39302 0
M  V30 2196 C 196.393 5.16243 -0.793095 0
M  V30 2197 H 198.087 2.90427 -0.727481 0
M  V30 2198 H 195.633 1.39649 -0.351287 0
M  V30 2199 H 197.586 3.94747 1.47487 0
M  V30 2200 H 196.31 2.74158 1.77497 0
M  V30 2201 H 194.969 3.663 -0.148199 0
M  V30 2202 H 194.617 4.53891 2.16776 0
M  V30 2203 H 194.317 5.79948 0.945223 0
M  V30 2204 H 195.841 5.81015 1.87759 0
M  V30 2205 H 197.255 5.71958 -0.392039 0
M  V30 2206 H 195.652 5.88676 -1.16536 0
M  V30 2207 H 196.722 4.55927 -1.65103 0
M  V30 2208 N 198.065 0.39524 1.52563 0
M  V30 2209 C 199.015 -0.4541 2.23432 0
M  V30 2210 C 199.999 -1.02482 1.24042 0
M  V30 2211 O 201.191 -0.949938 1.49349 0
M  V30 2212 C 198.32 -1.57769 3.049 0
M  V30 2213 C 197.406 -1.01842 4.1169 0
M  V30 2214 N 197.797 -0.184613 5.05463 0
M  V30 2215 C 196.095 -1.29033 4.26927 0
M  V30 2216 C 196.796 0.125013 5.81566 0
M  V30 2217 N 195.772 -0.480498 5.41472 0
M  V30 2218 H 199.574 0.189413 2.93289 0
M  V30 2219 H 197.088 0.204877 1.61102 0
M  V30 2220 H 199.085 -2.19862 3.54212 0
M  V30 2221 H 197.745 -2.22397 2.36579 0
M  V30 2222 H 198.756 0.178602 5.17592 0
M  V30 2223 H 195.433 -1.93721 3.69836 0
M  V30 2224 H 196.823 0.800962 6.67109 0
M  V30 2225 N 199.544 -1.57102 0.125237 0
M  V30 2226 C 200.96 -1.57915 -0.231322 0
M  V30 2227 C 201.16 -1.13833 -1.66266 0
M  V30 2228 O 200.216 -0.828581 -2.38518 0
M  V30 2229 C 201.529 -3.00699 0.00766489 0
M  V30 2230 C 203.077 -3.12947 -0.0577483 0
M  V30 2231 C 203.552 -4.57742 0.153626 0
M  V30 2232 N 205.043 -4.63092 0.0998073 0
M  V30 2233 C 205.778 -5.72905 0.238174 0
M  V30 2234 N 205.274 -6.91445 0.433057 0
M  V30 2235 N 207.067 -5.6182 0.177308 0
M  V30 2236 H 199.218 -1.84055 1.06007 0
M  V30 2237 H 201.481 -0.850905 0.417929 0
M  V30 2238 H 201.187 -3.3726 0.997431 0
M  V30 2239 H 201.061 -3.70236 -0.721452 0
M  V30 2240 H 203.448 -2.7624 -1.03804 0
M  V30 2241 H 203.529 -2.4594 0.70335 0
M  V30 2242 H 203.173 -4.95149 1.13092 0
M  V30 2243 H 203.103 -5.22848 -0.627534 0
M  V30 2244 H 205.594 -3.77871 -0.047051 0
M  V30 2245 H 205.907 -7.70985 0.529332 0
M  V30 2246 H 204.252 -6.93415 0.469109 0
M  V30 2247 H 207.443 -4.68093 0.0259748 0
M  V30 2248 H 207.616 -6.47357 0.288582 0
M  V30 2249 N 201.022 0.148545 -1.56898 0
M  V30 2250 C 202.299 0.890019 -1.74178 0
M  V30 2251 C 202.679 1.99407 -0.692839 0
M  V30 2252 O 202.027 2.26671 0.288505 0
M  V30 2253 C 202.237 1.43389 -3.18183 0
M  V30 2254 C 203.585 1.89791 -3.79822 0
M  V30 2255 O 204.609 1.53134 -3.21603 0
M  V30 2256 O 203.468 2.57387 -4.82093 0
M  V30 2257 H 200.562 0.420496 -0.712118 0
M  V30 2258 H 203.108 0.134591 -1.69165 0
M  V30 2259 H 201.88 0.640383 -3.86024 0
M  V30 2260 H 201.503 2.25287 -3.27615 0
M  V30 2261 N 202.5 1.5196 0.417844 0
M  V30 2262 C 203.43 1.77634 1.51554 0
M  V30 2263 C 204.411 0.626918 1.58126 0
M  V30 2264 O 205.596 0.871632 1.7354 0
M  V30 2265 C 202.726 1.91911 2.8946 0
M  V30 2266 C 201.68 3.07463 2.97743 0
M  V30 2267 C 201.006 3.06951 4.37819 0
M  V30 2268 C 202.306 4.47082 2.70027 0
M  V30 2269 H 204 2.6955 1.3032 0
M  V30 2270 H 201.546 1.29706 0.625492 0
M  V30 2271 H 203.499 2.08455 3.6623 0
M  V30 2272 H 202.223 0.966598 3.11969 0
M  V30 2273 H 200.882 2.90656 2.23416 0
M  V30 2274 H 200.53 2.09438 4.57323 0
M  V30 2275 H 200.23 3.84556 4.44286 0
M  V30 2276 H 201.754 3.25613 5.16535 0
M  V30 2277 H 203.168 4.6414 3.36522 0
M  V30 2278 H 201.565 5.2654 2.87881 0
M  V30 2279 H 202.635 4.55777 1.65514 0
M  V30 2280 N 203.978 -0.674533 1.42435 0
M  V30 2281 C 204.925 -1.78807 1.45934 0
M  V30 2282 C 205.895 -1.63157 0.311271 0
M  V30 2283 O 207.08 -1.83707 0.515383 0
M  V30 2284 C 204.22 -3.16839 1.36773 0
M  V30 2285 C 203.333 -3.43774 2.61617 0
M  V30 2286 C 202.468 -4.71536 2.44597 0
M  V30 2287 C 201.507 -4.91505 3.64814 0
M  V30 2288 N 200.644 -6.10508 3.46734 0
M  V30 2289 H 205.484 -1.75151 2.41093 0
M  V30 2290 H 203.021 -0.85504 1.19697 0
M  V30 2291 H 204.979 -3.96606 1.29459 0
M  V30 2292 H 203.609 -3.19619 0.452089 0
M  V30 2293 H 202.661 -2.58259 2.79297 0
M  V30 2294 H 203.973 -3.54423 3.50978 0
M  V30 2295 H 203.127 -5.59393 2.3487 0
M  V30 2296 H 201.866 -4.6317 1.52726 0
M  V30 2297 H 200.871 -4.0209 3.74972 0
M  V30 2298 H 202.096 -5.01716 4.57665 0
M  V30 2299 H 200.042 -6.03315 2.5758 0
M  V30 2300 H 199.959 -6.2202 4.29682 0
M  V30 2301 H 201.227 -7.01044 3.40819 0
M  V30 2302 N 205.456 -1.28612 -0.910864 0
M  V30 2303 C 206.867 -1.14406 -1.47541 0
M  V30 2304 C 207.218 0.264901 -1.94403 0
M  V30 2305 O 206.343 1.15942 -1.82719 0
M  V30 2306 C 206.938 -2.07073 -2.68153 0
M  V30 2307 C 205.497 -1.96923 -3.20778 0
M  V30 2308 C 204.644 -1.98646 -1.93481 0
M  V30 2309 H 207.595 -1.41259 -0.723291 0
M  V30 2310 H 207.616 -1.63642 -3.43514 0
M  V30 2311 H 207.128 -3.09611 -2.34015 0
M  V30 2312 H 205.229 -0.97433 -3.59635 0
M  V30 2313 H 205.342 -2.84026 -3.85832 0
M  V30 2314 H 203.706 -1.43093 -2.10705 0
M  V30 2315 H 204.489 -3.02868 -1.61634 0
M  V30 2316 N 206.934 1.1197 -1.10907 0
M  V30 2317 C 207.882 2.19927 -0.757303 0
M  V30 2318 C 208.876 1.67564 0.248747 0
M  V30 2319 O 210.082 1.79672 0.108605 0
M  V30 2320 H 206.457 0.716925 -0.226987 0
M  V30 2321 H 208.428 2.46847 -1.67658 0
M  V30 2322 C 207.177 3.47061 -0.210671 0
M  V30 2323 H 206.5 3.87703 -0.976049 0
M  V30 2324 H 207.94 4.24 -0.0026584 0
M  V30 2325 C 206.399 3.19864 1.05777 0
M  V30 2326 O 206.929 3.40049 2.13845 0
M  V30 2327 N 205.135 2.73636 0.978349 0
M  V30 2328 H 204.682 2.5741 0.0988246 0
M  V30 2329 H 204.64 2.55815 1.82773 0
M  V30 2330 N 208.412 0.89855 1.29475 0
M  V30 2331 C 209.36 0.365253 2.29714 0
M  V30 2332 C 210.354 -0.534993 1.6073 0
M  V30 2333 O 211.56 -0.417921 1.75081 0
M  V30 2334 H 207.935 0.0994853 0.74539 0
M  V30 2335 H 209.906 1.22406 2.72138 0
M  V30 2336 C 208.655 -0.393159 3.4547 0
M  V30 2337 H 207.978 0.290332 3.98744 0
M  V30 2338 H 209.418 -0.731189 4.17648 0
M  V30 2339 C 207.877 -1.59539 2.9673 0
M  V30 2340 O 208.407 -2.69469 2.97908 0
M  V30 2341 N 206.613 -1.43716 2.52575 0
M  V30 2342 H 206.16 -0.542828 2.51816 0
M  V30 2343 H 206.118 -2.24288 2.20323 0
M  V30 2344 N 209.89 -1.43072 0.660911 0
M  V30 2345 C 210.82 -2.33497 -0.0122829 0
M  V30 2346 C 211.801 -1.49903 -0.803925 0
M  V30 2347 O 212.986 -1.78546 -0.763864 0
M  V30 2348 C 210.116 -3.33363 -0.973994 0
M  V30 2349 C 209.07 -4.27003 -0.291928 0
M  V30 2350 C 208.396 -5.16967 -1.36562 0
M  V30 2351 C 209.696 -5.15816 0.820462 0
M  V30 2352 H 211.39 -2.90038 0.742873 0
M  V30 2353 H 208.936 -1.39461 0.358688 0
M  V30 2354 H 210.889 -3.95524 -1.45392 0
M  V30 2355 H 209.613 -2.75095 -1.7604 0
M  V30 2356 H 208.272 -3.66217 0.167623 0
M  V30 2357 H 207.92 -4.55034 -2.14366 0
M  V30 2358 H 207.62 -5.80441 -0.914454 0
M  V30 2359 H 209.144 -5.82003 -1.84675 0
M  V30 2360 H 210.558 -5.71742 0.422366 0
M  V30 2361 H 208.955 -5.8805 1.19656 0
M  V30 2362 H 210.025 -4.55045 1.67518 0
M  V30 2363 N 211.368 -0.403325 -1.52352 0
M  V30 2364 C 212.298 0.416205 -2.29761 0
M  V30 2365 C 213.279 1.05123 -1.33728 0
M  V30 2366 O 214.464 1.06134 -1.62632 0
M  V30 2367 C 211.594 1.53624 -3.11475 0
M  V30 2368 C 210.548 1.02653 -4.15507 0
M  V30 2369 C 209.874 2.23971 -4.85532 0
M  V30 2370 C 211.174 0.08463 -5.22231 0
M  V30 2371 H 212.868 -0.229701 -2.98518 0
M  V30 2372 H 210.414 -0.111913 -1.43564 0
M  V30 2373 H 212.367 2.1165 -3.64393 0
M  V30 2374 H 211.091 2.20994 -2.40477 0
M  V30 2375 H 209.75 0.46871 -3.63591 0
M  V30 2376 H 209.398 2.89883 -4.11068 0
M  V30 2377 H 209.098 1.90521 -5.55856 0
M  V30 2378 H 210.622 2.82614 -5.41259 0
M  V30 2379 H 212.036 0.573509 -5.70424 0
M  V30 2380 H 210.433 -0.160783 -5.99885 0
M  V30 2381 H 211.503 -0.86237 -4.7717 0
M  V30 2382 N 212.846 1.57033 -0.133567 0
M  V30 2383 C 213.776 2.1909 0.807567 0
M  V30 2384 C 214.757 1.13517 1.26681 0
M  V30 2385 O 215.942 1.41809 1.32679 0
M  V30 2386 C 213.072 2.80188 2.05212 0
M  V30 2387 C 212.026 3.91471 1.73015 0
M  V30 2388 C 211.352 4.39443 3.04622 0
M  V30 2389 C 212.652 5.12886 0.987168 0
M  V30 2390 H 214.346 2.97988 0.290403 0
M  V30 2391 H 211.892 1.43335 0.138239 0
M  V30 2392 H 213.845 3.22264 2.71521 0
M  V30 2393 H 212.569 1.98601 2.59278 0
M  V30 2394 H 211.228 3.49993 1.0909 0
M  V30 2395 H 210.876 3.54695 3.56651 0
M  V30 2396 H 210.576 5.14495 2.83847 0
M  V30 2397 H 212.1 4.8418 3.72024 0
M  V30 2398 H 213.514 5.51891 1.55208 0
M  V30 2399 H 211.911 5.93615 0.87985 0
M  V30 2400 H 212.981 4.84894 -0.0235286 0
M  V30 2401 N 214.325 -0.140222 1.56975 0
M  V30 2402 C 215.602 -0.880769 1.74648 0
M  V30 2403 C 215.982 -1.99036 0.703404 0
M  V30 2404 O 215.33 -2.26821 -0.27648 0
M  V30 2405 C 215.54 -1.417 3.18939 0
M  V30 2406 C 216.888 -1.87774 3.80823 0
M  V30 2407 O 217.912 -1.51427 3.2241 0
M  V30 2408 O 216.771 -2.54827 4.83452 0
M  V30 2409 H 213.865 -0.416713 0.714338 0
M  V30 2410 H 216.411 -0.125618 1.69234 0
M  V30 2411 H 215.183 -0.619902 3.86359 0
M  V30 2412 H 214.806 -2.23546 3.28805 0
M  V30 2413 N 215.803 -1.52179 -0.40978 0
M  V30 2414 C 216.713 -1.78364 -1.52392 0
M  V30 2415 C 217.729 -0.669183 -1.60617 0
M  V30 2416 O 218.905 -0.954518 -1.77344 0
M  V30 2417 C 215.97 -1.92822 -2.88133 0
M  V30 2418 C 215.031 -3.16725 -2.898 0
M  V30 2419 C 214.264 -3.30483 -4.19067 0
M  V30 2420 O 214.487 -2.49522 -5.12928 0
M  V30 2421 O 213.421 -4.2363 -4.27576 0
M  V30 2422 H 217.247 -2.72931 -1.33201 0
M  V30 2423 H 214.832 -1.37016 -0.59557 0
M  V30 2424 H 216.714 -2.04157 -3.68643 0
M  V30 2425 H 215.389 -1.01444 -3.07393 0
M  V30 2426 H 214.296 -3.10848 -2.08146 0
M  V30 2427 H 215.629 -4.07881 -2.75489 0
M  V30 2428 N 217.281 0.66697 -1.42791 0
M  V30 2429 C 218.229 1.80157 -1.47127 0
M  V30 2430 C 219.223 1.65825 -0.346199 0
M  V30 2431 O 220.429 1.72338 -0.519572 0
M  V30 2432 H 216.804 0.594158 -0.460956 0
M  V30 2433 H 218.775 1.73619 -2.42692 0
M  V30 2434 C 217.524 3.18351 -1.39813 0
M  V30 2435 H 216.847 3.3001 -2.25684 0
M  V30 2436 H 218.287 3.97736 -1.46908 0
M  V30 2437 C 216.746 3.36707 -0.11391 0
M  V30 2438 O 217.276 3.93027 0.830241 0
M  V30 2439 N 215.482 2.90586 -0.0285295 0
M  V30 2440 H 215.029 2.4494 -0.79764 0
M  V30 2441 H 214.987 3.03245 0.830063 0
M  V30 2442 N 218.759 1.29093 0.90403 0
M  V30 2443 C 220.007 1.16583 1.65085 0
M  V30 2444 C 220.328 -0.283933 1.92922 0
M  V30 2445 O 219.598 -1.19509 1.55224 0
M  V30 2446 H 218.178 0.428467 0.611903 0
M  V30 2447 H 220.84 1.61959 1.08422 0
M  V30 2448 H 219.936 1.71266 2.6091 0
M  V30 2449 N 220.237 -1.11381 1.11499 0
M  V30 2450 C 221.483 -1.83403 0.865512 0
M  V30 2451 C 221.816 -1.84459 -0.607329 0
M  V30 2452 O 221.091 -1.29811 -1.44842 0
M  V30 2453 C 221.374 -3.30552 1.42855 0
M  V30 2454 C 221.227 -3.37886 2.96906 0
M  V30 2455 C 222.546 -4.26643 1.08 0
M  V30 2456 H 219.665 -0.665879 0.31587 0
M  V30 2457 H 222.307 -1.30601 1.37998 0
M  V30 2458 H 220.457 -3.75648 0.990985 0
M  V30 2459 H 222.129 -3.01343 3.49271 0
M  V30 2460 H 220.372 -2.78088 3.32941 0
M  V30 2461 H 221.043 -4.41458 3.31389 0
M  V30 2462 H 223.519 -3.89729 1.45775 0
M  V30 2463 H 222.395 -5.27986 1.50072 0
M  V30 2464 H 222.656 -4.42099 -0.00915037 0
M  V30 2465 N 221.715 -0.905404 -1.28997 0
M  V30 2466 C 222.645 -0.404212 -2.29975 0
M  V30 2467 C 223.626 0.523784 -1.61835 0
M  V30 2468 O 224.811 0.433298 -1.89304 0
M  V30 2469 C 221.941 0.364042 -3.45387 0
M  V30 2470 C 220.895 -0.474048 -4.25367 0
M  V30 2471 C 220.221 0.422045 -5.33032 0
M  V30 2472 C 221.521 -1.72696 -4.92923 0
M  V30 2473 H 223.215 -1.24807 -2.72146 0
M  V30 2474 H 220.761 -0.601585 -1.30832 0
M  V30 2475 H 222.714 0.725447 -4.15109 0
M  V30 2476 H 221.438 1.24174 -3.02074 0
M  V30 2477 H 220.097 -0.81786 -3.57361 0
M  V30 2478 H 219.745 1.29804 -4.85963 0
M  V30 2479 H 219.445 -0.135057 -5.87445 0
M  V30 2480 H 220.969 0.779517 -6.05604 0
M  V30 2481 H 222.383 -1.43495 -5.55051 0
M  V30 2482 H 220.78 -2.22582 -5.57295 0
M  V30 2483 H 221.85 -2.45964 -4.17887 0
M  V30 2484 N 223.193 1.4272 -0.668489 0
M  V30 2485 C 224.14 2.30796 0.0137489 0
M  V30 2486 C 225.11 1.4561 0.799177 0
M  V30 2487 O 226.295 1.74453 0.772702 0
M  V30 2488 C 223.435 3.31377 0.963507 0
M  V30 2489 C 222.548 4.31655 0.172569 0
M  V30 2490 C 221.683 5.19312 1.1175 0
M  V30 2491 C 220.722 6.11274 0.317886 0
M  V30 2492 N 219.859 6.91504 1.2152 0
M  V30 2493 H 224.699 2.88585 -0.743161 0
M  V30 2494 H 222.236 1.42154 -0.378226 0
M  V30 2495 H 224.194 3.88214 1.52792 0
M  V30 2496 H 222.824 2.75202 1.68712 0
M  V30 2497 H 221.876 3.76988 -0.508374 0
M  V30 2498 H 223.188 4.96779 -0.448527 0
M  V30 2499 H 222.342 5.80851 1.75206 0
M  V30 2500 H 221.081 4.5435 1.77249 0
M  V30 2501 H 220.086 5.48809 -0.329918 0
M  V30 2502 H 221.311 6.78283 -0.332917 0
M  V30 2503 H 219.257 6.29176 1.85671 0
M  V30 2504 H 219.174 7.53209 0.649036 0
M  V30 2505 H 220.442 7.57535 1.83742 0
M  V30 2506 N 224.671 0.411399 1.52136 0
M  V30 2507 C 225.601 -0.404015 2.29978 0
M  V30 2508 C 226.582 -1.04412 1.34284 0
M  V30 2509 O 227.767 -1.0527 1.63192 0
M  V30 2510 C 224.897 -1.5197 3.12286 0
M  V30 2511 C 223.851 -1.00448 4.16046 0
M  V30 2512 C 223.177 -2.21393 4.86712 0
M  V30 2513 C 224.477 -0.0569336 5.22269 0
M  V30 2514 H 226.171 0.245529 2.98392 0
M  V30 2515 H 223.717 0.119525 1.43503 0
M  V30 2516 H 225.67 -2.09715 3.6551 0
M  V30 2517 H 224.394 -2.19716 2.41646 0
M  V30 2518 H 223.053 -0.449421 3.63835 0
M  V30 2519 H 222.701 -2.87699 4.12599 0
M  V30 2520 H 222.401 -1.87571 5.56858 0
M  V30 2521 H 223.925 -2.7974 5.4275 0
M  V30 2522 H 225.339 -0.54325 5.7072 0
M  V30 2523 H 223.736 0.192594 5.99791 0
M  V30 2524 H 224.806 0.887663 4.76706 0
M  V30 2525 N 226.149 -1.5696 0.141893 0
M  V30 2526 C 227.112 -2.15316 -0.785587 0
M  V30 2527 C 228.112 -1.09366 -1.1788 0
M  V30 2528 O 229.302 -1.35031 -1.10056 0
M  V30 2529 C 226.434 -2.71211 -2.06537 0
M  V30 2530 H 227.627 -2.98608 -0.278041 0
M  V30 2531 H 225.18 -1.5593 -0.107519 0
M  V30 2532 H 225.915 -1.91571 -2.6167 0
M  V30 2533 H 225.7 -3.4872 -1.79268 0
M  V30 2534 H 227.19 -3.16189 -2.72789 0
M  V30 2535 N 227.627 0.131896 -1.57047 0
M  V30 2536 C 228.904 0.871495 -1.75112 0
M  V30 2537 C 229.284 1.9866 -0.713949 0
M  V30 2538 O 228.632 2.26965 0.264447 0
M  V30 2539 C 228.842 1.40007 -3.19686 0
M  V30 2540 C 230.19 1.85752 -3.81813 0
M  V30 2541 O 231.214 1.49715 -3.23209 0
M  V30 2542 O 230.073 2.5226 -4.84796 0
M  V30 2543 H 227.167 0.412919 -0.716538 0
M  V30 2544 H 229.713 0.116641 -1.69299 0
M  V30 2545 H 228.485 0.599404 -3.86682 0
M  V30 2546 H 228.108 2.218 -3.29986 0
M  V30 2547 N 229.106 1.52395 0.401703 0
M  V30 2548 C 230.353 1.66817 1.14796 0
M  V30 2549 C 230.681 0.401772 1.90305 0
M  V30 2550 O 229.936 -0.615487 1.85769 0
M  V30 2551 C 230.235 2.84578 2.16217 0
M  V30 2552 C 229.901 4.22513 1.5746 0
M  V30 2553 C 228.563 4.60029 1.41161 0
M  V30 2554 C 230.915 5.0844 1.14622 0
M  V30 2555 C 228.243 5.81144 0.80552 0
M  V30 2556 C 230.595 6.30167 0.55428 0
M  V30 2557 C 229.259 6.66426 0.378482 0
M  V30 2558 H 228.529 0.610428 0.420069 0
M  V30 2559 H 231.176 1.86512 0.434212 0
M  V30 2560 H 229.481 2.59248 2.93764 0
M  V30 2561 H 231.178 2.92933 2.73845 0
M  V30 2562 H 227.768 3.92953 1.71132 0
M  V30 2563 H 231.952 4.80034 1.26021 0
M  V30 2564 H 227.208 6.07855 0.657399 0
M  V30 2565 H 231.382 6.96071 0.213983 0
M  V30 2566 H 229.009 7.60143 -0.0932606 0
M  V30 2567 N 230.584 -0.659388 1.43143 0
M  V30 2568 C 231.832 -1.41654 1.44147 0
M  V30 2569 C 232.153 -1.94893 0.0645739 0
M  V30 2570 O 231.423 -1.74044 -0.899198 0
M  V30 2571 H 230.003 -0.525708 0.530697 0
M  V30 2572 H 232.665 -0.778097 1.78694 0
M  V30 2573 H 231.761 -2.26195 2.1504 0
M  V30 2574 N 232.062 -1.29571 -0.897171 0
M  V30 2575 C 232.992 -1.17473 -2.01798 0
M  V30 2576 C 233.973 -0.068323 -1.69963 0
M  V30 2577 O 235.158 -0.248239 -1.92607 0
M  V30 2578 C 232.288 -0.853099 -3.36659 0
M  V30 2579 C 231.242 -1.9161 -3.82713 0
M  V30 2580 C 230.568 -1.44773 -5.14728 0
M  V30 2581 C 231.868 -3.32535 -4.02763 0
M  V30 2582 H 233.562 -2.11237 -2.12177 0
M  V30 2583 H 231.108 -1.01699 -1.01948 0
M  V30 2584 H 233.061 -0.755165 -4.14578 0
M  V30 2585 H 231.785 0.120236 -3.26379 0
M  V30 2586 H 230.444 -2.00346 -3.07013 0
M  V30 2587 H 230.092 -0.462995 -5.00865 0
M  V30 2588 H 229.792 -2.15865 -5.46513 0
M  V30 2589 H 231.316 -1.36334 -5.95185 0
M  V30 2590 H 232.73 -3.26626 -4.71156 0
M  V30 2591 H 231.127 -4.01607 -4.45905 0
M  V30 2592 H 232.197 -3.75326 -3.07016 0
M  V30 2593 N 233.54 1.10788 -1.12088 0
M  V30 2594 C 234.503 2.15207 -0.788577 0
M  V30 2595 C 235.503 1.59609 0.195317 0
M  V30 2596 O 236.693 1.74174 -0.0300193 0
M  V30 2597 C 233.825 3.4047 -0.171174 0
M  V30 2598 H 235.018 2.46116 -1.71368 0
M  V30 2599 H 232.571 1.26089 -0.923652 0
M  V30 2600 H 233.306 3.15176 0.763832 0
M  V30 2601 H 233.091 3.82109 -0.879514 0
M  V30 2602 H 234.581 4.17576 0.04496 0
M  V30 2603 N 235.018 0.912232 1.28515 0
M  V30 2604 C 235.965 0.397954 2.27343 0
M  V30 2605 C 236.935 -0.526766 1.57526 0
M  V30 2606 O 238.12 -0.449292 1.85435 0
M  V30 2607 C 235.26 -0.357263 3.43246 0
M  V30 2608 C 234.373 0.599788 4.27816 0
M  V30 2609 C 233.508 -0.173725 5.30916 0
M  V30 2610 C 232.547 0.777039 6.07148 0
M  V30 2611 N 231.684 0.0371398 7.0209 0
M  V30 2612 H 236.524 1.24577 2.70711 0
M  V30 2613 H 234.061 0.625612 1.33133 0
M  V30 2614 H 236.019 -0.8113 4.09236 0
M  V30 2615 H 234.649 -1.16943 3.00872 0
M  V30 2616 H 233.701 1.17235 3.61884 0
M  V30 2617 H 235.013 1.32704 4.80823 0
M  V30 2618 H 234.167 -0.688394 6.02782 0
M  V30 2619 H 232.906 -0.934041 4.78672 0
M  V30 2620 H 231.911 1.3031 5.34134 0
M  V30 2621 H 233.136 1.53689 6.61481 0
M  V30 2622 H 231.082 -0.705213 6.52198 0
M  V30 2623 H 230.999 0.704249 7.52713 0
M  V30 2624 H 232.267 -0.457383 7.78157 0
M  V30 2625 N 236.496 -1.42363 0.676048 0
M  V30 2626 C 237.721 -2.06377 0.205705 0
M  V30 2627 C 238.146 -1.50463 -1.12883 0
M  V30 2628 O 237.504 -0.623619 -1.70237 0
M  V30 2629 C 237.552 -3.60277 0.152655 0
M  V30 2630 O 236.656 -4.02935 -0.87845 0
M  V30 2631 H 235.997 -0.655588 0.105359 0
M  V30 2632 H 238.527 -1.82475 0.925412 0
M  V30 2633 H 238.537 -4.07993 -0.0230675 0
M  V30 2634 H 237.212 -4.00346 1.12675 0
M  V30 2635 H 235.789 -3.66764 -0.673668 0
M  V30 2636 N 237.974 -0.419461 -1.51915 0
M  V30 2637 C 239.221 0.152939 -2.01922 0
M  V30 2638 C 239.549 1.4426 -1.30458 0
M  V30 2639 O 238.804 1.91514 -0.402593 0
M  V30 2640 C 239.103 0.437067 -3.54717 0
M  V30 2641 C 238.769 -0.764632 -4.44369 0
M  V30 2642 C 237.431 -1.09423 -4.68594 0
M  V30 2643 C 239.783 -1.56713 -4.97082 0
M  V30 2644 C 237.111 -2.22732 -5.42777 0
M  V30 2645 C 239.463 -2.69107 -5.72507 0
M  V30 2646 C 238.127 -3.02541 -5.95 0
M  V30 2647 H 237.397 0.0559644 -0.738884 0
M  V30 2648 H 240.044 -0.562998 -1.83037 0
M  V30 2649 H 238.349 1.23469 -3.71837 0
M  V30 2650 H 240.046 0.893083 -3.90928 0
M  V30 2651 H 236.636 -0.497775 -4.257 0
M  V30 2652 H 240.82 -1.32571 -4.78266 0
M  V30 2653 H 236.076 -2.48971 -5.58411 0
M  V30 2654 H 240.25 -3.31671 -6.12346 0
M  V30 2655 H 237.877 -3.90457 -6.52264 0
M  V30 2656 N 239.452 1.56882 -0.150215 0
M  V30 2657 C 240.7 1.9584 0.499105 0
M  V30 2658 C 241.021 1.03623 1.65188 0
M  V30 2659 O 240.291 0.0984084 1.95653 0
M  V30 2660 H 238.871 0.723119 0.187373 0
M  V30 2661 H 241.533 1.9358 -0.226466 0
M  V30 2662 H 240.629 2.99638 0.873122 0
M  V30 2663 N 240.93 -0.123565 1.57115 0
M  V30 2664 C 242.155 -0.850398 1.89164 0
M  V30 2665 C 242.58 -1.7286 0.741688 0
M  V30 2666 O 241.938 -1.78665 -0.307958 0
M  V30 2667 C 241.986 -1.66353 3.19936 0
M  V30 2668 O 241.09 -2.77004 3.0552 0
M  V30 2669 H 240.431 -0.235454 0.620852 0
M  V30 2670 H 242.961 -0.107335 2.04318 0
M  V30 2671 H 242.971 -2.05372 3.52543 0
M  V30 2672 H 241.646 -1.01881 4.03228 0
M  V30 2673 H 240.223 -2.41221 2.84371 0
M  V30 2674 N 242.408 -1.52605 -0.393616 0
M  V30 2675 C 243.819 -1.59417 -0.971761 0
M  V30 2676 C 244.17 -0.444173 -1.91106 0
M  V30 2677 O 243.295 0.433382 -2.12016 0
M  V30 2678 C 243.89 -2.88936 -1.76921 0
M  V30 2679 C 242.449 -2.98175 -2.29714 0
M  V30 2680 C 241.596 -2.54491 -1.10135 0
M  V30 2681 H 244.547 -1.57751 -0.173317 0
M  V30 2682 H 244.568 -2.75163 -2.62804 0
M  V30 2683 H 244.08 -3.72616 -1.08532 0
M  V30 2684 H 242.181 -2.19024 -3.01429 0
M  V30 2685 H 242.294 -4.02726 -2.59517 0
M  V30 2686 H 240.658 -2.08702 -1.45999 0
M  V30 2687 H 241.441 -3.4056 -0.432874 0
M  V30 2688 N 243.887 0.651787 -1.4349 0
M  V30 2689 C 244.835 1.78586 -1.49029 0
M  V30 2690 C 245.829 1.65448 -0.363767 0
M  V30 2691 O 247.035 1.71777 -0.537821 0
M  V30 2692 H 243.41 0.589236 -0.467231 0
M  V30 2693 H 245.381 1.71035 -2.44519 0
M  V30 2694 C 244.13 3.16851 -1.43181 0
M  V30 2695 H 243.453 3.27598 -2.29171 0
M  V30 2696 H 244.893 3.96156 -1.51118 0
M  V30 2697 C 243.352 3.36568 -0.149616 0
M  V30 2698 O 243.882 3.93885 0.788509 0
M  V30 2699 N 242.088 2.90539 -0.0593484 0
M  V30 2700 H 241.635 2.4408 -0.823575 0
M  V30 2701 H 241.593 3.04108 0.797853 0
M  V30 2702 N 245.365 1.30045 0.890287 0
M  V30 2703 C 246.781 1.08261 1.17268 0
M  V30 2704 C 246.981 -0.160063 2.00863 0
M  V30 2705 O 246.037 -0.855181 2.37577 0
M  V30 2706 C 247.35 2.34323 1.8845 0
M  V30 2707 C 248.898 2.39735 2.01237 0
M  V30 2708 C 249.373 3.65625 2.7583 0
M  V30 2709 N 250.864 3.66402 2.83379 0
M  V30 2710 C 251.599 4.60498 3.41657 0
M  V30 2711 N 251.095 5.64933 4.01026 0
M  V30 2712 N 252.888 4.48051 3.39421 0
M  V30 2713 H 245.039 2.09777 0.332762 0
M  V30 2714 H 247.302 0.92446 0.209948 0
M  V30 2715 H 247.008 3.2498 1.34465 0
M  V30 2716 H 246.882 2.4256 2.88867 0
M  V30 2717 H 249.269 1.4956 2.54393 0
M  V30 2718 H 249.35 2.35476 0.999232 0
M  V30 2719 H 248.994 4.56156 2.23347 0
M  V30 2720 H 248.924 3.67144 3.77509 0
M  V30 2721 H 251.415 2.90896 2.41222 0
M  V30 2722 H 251.728 6.32841 4.43545 0
M  V30 2723 H 250.073 5.68732 3.99461 0
M  V30 2724 H 253.264 3.65649 2.92264 0
M  V30 2725 H 253.437 5.21565 3.84544 0
M  V30 2726 N 246.843 -1.10192 1.12674 0
M  V30 2727 C 247.806 -2.14786 0.799979 0
M  V30 2728 C 248.806 -1.59711 -0.18685 0
M  V30 2729 O 249.996 -1.74156 0.0392558 0
M  V30 2730 C 247.128 -3.40374 0.189228 0
M  V30 2731 H 248.321 -2.45203 1.72671 0
M  V30 2732 H 245.874 -1.25597 0.930326 0
M  V30 2733 H 246.609 -3.15577 -0.747107 0
M  V30 2734 H 246.394 -3.81637 0.899766 0
M  V30 2735 H 247.884 -4.17594 -0.0228143 0
M  V30 2736 N 248.321 -0.919034 -1.28029 0
M  V30 2737 C 249.551 -0.570143 -1.98577 0
M  V30 2738 C 249.959 0.854172 -1.68821 0
M  V30 2739 O 249.302 1.57807 -0.940351 0
M  V30 2740 C 249.364 -0.705734 -3.52505 0
M  V30 2741 C 249.028 -2.10057 -4.05863 0
M  V30 2742 C 250.025 -3.07385 -4.19298 0
M  V30 2743 C 247.71 -2.41517 -4.40426 0
M  V30 2744 C 249.704 -4.34287 -4.66555 0
M  V30 2745 C 247.391 -3.68657 -4.87376 0
M  V30 2746 C 248.389 -4.64856 -5.00398 0
M  V30 2747 O 248.077 -5.89735 -5.46322 0
M  V30 2748 H 247.809 -0.215592 -0.6407 0
M  V30 2749 H 250.363 -1.23583 -1.64062 0
M  V30 2750 H 248.593 0.0170414 -3.86696 0
M  V30 2751 H 250.282 -0.363172 -4.04272 0
M  V30 2752 H 251.048 -2.84398 -3.92865 0
M  V30 2753 H 246.927 -1.67389 -4.29537 0
M  V30 2754 H 250.471 -5.09377 -4.76635 0
M  V30 2755 H 246.368 -3.91466 -5.13249 0
M  V30 2756 H 247.136 -5.92599 -5.64596 0
M  V30 2757 N 249.799 1.42003 -0.683588 0
M  V30 2758 C 251.027 2.05746 -0.218182 0
M  V30 2759 C 251.442 1.51396 1.12804 0
M  V30 2760 O 250.799 0.657303 1.70252 0
M  V30 2761 C 250.85 3.61171 -0.154131 0
M  V30 2762 O 250.571 4.13508 -1.44716 0
M  V30 2763 C 252.072 4.42042 0.333713 0
M  V30 2764 H 249.292 0.662888 -0.10402 0
M  V30 2765 H 251.836 1.81987 -0.9328 0
M  V30 2766 H 249.991 3.84012 0.511231 0
M  V30 2767 H 250.405 5.07453 -1.32632 0
M  V30 2768 H 251.879 5.51028 0.327423 0
M  V30 2769 H 252.356 4.17269 1.37053 0
M  V30 2770 H 252.962 4.24239 -0.300222 0
M  V30 2771 N 251.277 0.427512 1.51691 0
M  V30 2772 C 252.227 -0.406604 2.24345 0
M  V30 2773 C 253.211 -0.998276 1.26187 0
M  V30 2774 O 254.403 -0.918045 1.51331 0
M  V30 2775 C 251.532 -1.51266 3.08177 0
M  V30 2776 C 250.618 -0.930868 4.13758 0
M  V30 2777 N 251.009 -0.0773552 5.05741 0
M  V30 2778 C 249.307 -1.19948 4.29568 0
M  V30 2779 C 250.008 0.248344 5.8117 0
M  V30 2780 N 248.984 -0.365535 5.4237 0
M  V30 2781 H 252.786 0.251581 2.92821 0
M  V30 2782 H 250.3 0.239003 1.60632 0
M  V30 2783 H 252.297 -2.123 3.58796 0
M  V30 2784 H 250.957 -2.17328 2.41244 0
M  V30 2785 H 251.968 0.288351 5.17097 0
M  V30 2786 H 248.645 -1.85832 3.73862 0
M  V30 2787 H 250.035 0.942286 6.6526 0
M  V30 2788 N 252.755 -1.56801 0.158532 0
M  V30 2789 C 253.687 -2.14488 -0.807923 0
M  V30 2790 C 254.7 -1.09721 -1.20271 0
M  V30 2791 O 255.889 -1.36956 -1.14478 0
M  V30 2792 C 252.989 -2.66217 -2.09718 0
M  V30 2793 C 252.162 -3.95507 -1.86796 0
M  V30 2794 C 251.221 -4.3243 -2.99818 0
M  V30 2795 O 250.247 -5.00543 -2.71008 0
M  V30 2796 N 251.449 -3.92947 -4.27285 0
M  V30 2797 H 254.214 -2.98042 -0.314816 0
M  V30 2798 H 251.775 -1.61881 -0.0246692 0
M  V30 2799 H 253.767 -2.87924 -2.84398 0
M  V30 2800 H 252.337 -1.87324 -2.50257 0
M  V30 2801 H 251.557 -3.82309 -0.96089 0
M  V30 2802 H 252.845 -4.79972 -1.68833 0
M  V30 2803 H 252.243 -3.38087 -4.53557 0
M  V30 2804 H 250.8 -4.19681 -4.9871 0
M  V30 2805 N 254.233 0.115231 -1.57178 0
M  V30 2806 C 255.479 0.82357 -1.85325 0
M  V30 2807 C 255.812 1.79349 -0.744814 0
M  V30 2808 O 255.087 1.92899 0.249024 0
M  V30 2809 C 255.37 1.57014 -3.24066 0
M  V30 2810 C 255.223 0.619565 -4.45513 0
M  V30 2811 C 256.542 2.52545 -3.60429 0
M  V30 2812 H 253.661 0.297948 -0.674089 0
M  V30 2813 H 256.303 0.0877138 -1.89797 0
M  V30 2814 H 254.453 2.19742 -3.20383 0
M  V30 2815 H 256.125 0.000837639 -4.613 0
M  V30 2816 H 254.368 -0.0686174 -4.33746 0
M  V30 2817 H 255.039 1.17866 -5.3927 0
M  V30 2818 H 257.515 1.9992 -3.64926 0
M  V30 2819 H 256.391 3.01811 -4.58477 0
M  V30 2820 H 256.652 3.35383 -2.88047 0
M  V30 2821 N 255.711 1.52812 0.385517 0
M  V30 2822 C 256.957 1.68275 1.13188 0
M  V30 2823 C 257.29 0.423179 1.89533 0
M  V30 2824 O 256.565 -0.579113 1.85679 0
M  V30 2825 C 256.848 2.92001 2.1073 0
M  V30 2826 C 256.701 4.28067 1.38125 0
M  V30 2827 C 258.02 3.11283 3.11113 0
M  V30 2828 H 255.139 0.612352 0.410115 0
M  V30 2829 H 257.781 1.85415 0.414869 0
M  V30 2830 H 255.931 2.77519 2.71874 0
M  V30 2831 H 257.603 4.54324 0.799187 0
M  V30 2832 H 255.846 4.28388 0.683092 0
M  V30 2833 H 256.517 5.10733 2.09417 0
M  V30 2834 H 258.993 3.2482 2.6006 0
M  V30 2835 H 257.869 3.99325 3.76605 0
M  V30 2836 H 258.13 2.25656 3.80173 0
M  V30 2837 N 257.189 -0.644168 1.43834 0
M  V30 2838 C 258.417 -1.43147 1.49387 0
M  V30 2839 C 258.832 -1.88452 0.114583 0
M  V30 2840 O 258.189 -1.60047 -0.876989 0
M  V30 2841 C 258.24 -2.66046 2.44748 0
M  V30 2842 O 257.961 -2.22633 3.77314 0
M  V30 2843 C 259.462 -3.59311 2.59635 0
M  V30 2844 H 256.682 -0.439447 0.507077 0
M  V30 2845 H 259.226 -0.78895 1.88669 0
M  V30 2846 H 257.381 -3.26418 2.08638 0
M  V30 2847 H 257.795 -3.02216 4.28679 0
M  V30 2848 H 259.269 -4.42187 3.30416 0
M  V30 2849 H 259.746 -4.07259 1.64427 0
M  V30 2850 H 260.352 -3.04816 2.96593 0
M  V30 2851 N 258.668 -1.30515 -0.883378 0
M  V30 2852 C 260.084 -1.08881 -1.16692 0
M  V30 2853 C 260.284 0.149409 -2.00945 0
M  V30 2854 O 259.34 0.84257 -2.38027 0
M  V30 2855 C 260.653 -2.35319 -1.87204 0
M  V30 2856 C 262.201 -2.40799 -1.99962 0
M  V30 2857 C 262.676 -3.67083 -2.73887 0
M  V30 2858 N 264.167 -3.679 -2.81432 0
M  V30 2859 C 264.902 -4.62303 -3.3921 0
M  V30 2860 N 264.398 -5.67052 -3.98025 0
M  V30 2861 N 266.191 -4.49845 -3.3704 0
M  V30 2862 H 258.342 -2.09951 -0.321633 0
M  V30 2863 H 260.605 -0.92556 -0.205043 0
M  V30 2864 H 260.311 -3.25689 -1.3274 0
M  V30 2865 H 260.185 -2.44089 -2.87577 0
M  V30 2866 H 262.572 -1.50907 -2.53597 0
M  V30 2867 H 262.653 -2.36003 -0.98673 0
M  V30 2868 H 262.297 -4.57334 -2.20925 0
M  V30 2869 H 262.227 -3.69141 -3.75556 0
M  V30 2870 H 264.718 -2.92171 -2.39676 0
M  V30 2871 H 265.031 -6.35184 -4.40183 0
M  V30 2872 H 263.376 -5.70842 -3.96439 0
M  V30 2873 H 266.567 -3.67194 -2.90321 0
M  V30 2874 H 266.74 -5.23597 -3.81772 0
M  V30 2875 N 260.146 1.09593 -1.13257 0
M  V30 2876 C 261.392 1.82181 -0.904521 0
M  V30 2877 C 261.747 1.83967 0.563358 0
M  V30 2878 O 261.04 1.29566 1.41149 0
M  V30 2879 C 261.234 3.27802 -1.42411 0
M  V30 2880 C 261.063 3.40201 -2.94097 0
M  V30 2881 C 259.833 3.52104 -3.62424 0
M  V30 2882 C 262.031 3.32875 -3.92044 0
M  V30 2883 N 260.013 3.53169 -5.0214 0
M  V30 2884 C 261.384 3.40789 -5.17941 0
M  V30 2885 C 263.439 3.16531 -3.84334 0
M  V30 2886 C 262.142 3.34042 -6.37031 0
M  V30 2887 C 264.168 3.11109 -5.02956 0
M  V30 2888 C 263.53 3.19614 -6.27715 0
M  V30 2889 H 259.629 0.681015 -0.384373 0
M  V30 2890 H 262.213 1.3099 -1.44048 0
M  V30 2891 H 260.384 3.77466 -0.915086 0
M  V30 2892 H 262.116 3.88393 -1.13722 0
M  V30 2893 H 258.871 3.5548 -3.12939 0
M  V30 2894 H 259.295 3.57291 -5.75041 0
M  V30 2895 H 263.937 3.08827 -2.88766 0
M  V30 2896 H 261.655 3.4051 -7.32857 0
M  V30 2897 H 265.241 2.99601 -4.98729 0
M  V30 2898 H 264.121 3.15432 -7.17964 0
M  V30 2899 N 261.624 0.925811 1.2754 0
M  V30 2900 C 262.854 0.580666 1.98272 0
M  V30 2901 C 263.262 -0.845207 1.69272 0
M  V30 2902 O 262.605 -1.57306 0.948707 0
M  V30 2903 C 262.667 0.724418 3.52126 0
M  V30 2904 C 262.331 2.12206 4.04744 0
M  V30 2905 C 263.328 3.09604 4.17662 0
M  V30 2906 C 261.013 2.4385 4.39138 0
M  V30 2907 C 263.007 4.36755 4.64246 0
M  V30 2908 C 260.694 3.71237 4.85414 0
M  V30 2909 C 261.692 4.67503 4.97926 0
M  V30 2910 O 261.38 5.92624 5.43187 0
M  V30 2911 H 261.112 0.218987 0.639547 0
M  V30 2912 H 263.666 1.24452 1.63404 0
M  V30 2913 H 261.896 0.0034663 3.867 0
M  V30 2914 H 263.585 0.384607 4.04074 0
M  V30 2915 H 264.351 2.86478 3.91351 0
M  V30 2916 H 260.23 1.69665 4.28643 0
M  V30 2917 H 263.774 5.11898 4.73927 0
M  V30 2918 H 259.671 3.94182 5.11166 0
M  V30 2919 H 260.439 5.95585 5.61445 0
M  V30 2920 N 263.102 -1.41638 0.69111 0
M  V30 2921 C 264.518 -1.55435 0.362224 0
M  V30 2922 C 264.718 -1.66754 -1.13117 0
M  V30 2923 O 263.774 -1.64348 -1.91692 0
M  V30 2924 C 265.087 -2.79588 1.10684 0
M  V30 2925 C 266.635 -2.9338 1.09075 0
M  V30 2926 C 267.11 -4.20414 1.81703 0
M  V30 2927 N 268.601 -4.27362 1.7865 0
M  V30 2928 C 269.336 -5.24507 2.31689 0
M  V30 2929 N 268.832 -6.27708 2.93179 0
M  V30 2930 N 270.625 -5.16416 2.2197 0
M  V30 2931 H 262.776 -1.32536 1.65976 0
M  V30 2932 H 265.039 -0.639115 0.700168 0
M  V30 2933 H 264.745 -2.77419 2.16175 0
M  V30 2934 H 264.619 -3.70973 0.682545 0
M  V30 2935 H 267.006 -2.95067 0.0441238 0
M  V30 2936 H 267.087 -2.0318 1.55407 0
M  V30 2937 H 266.731 -4.19488 2.86343 0
M  V30 2938 H 266.661 -5.09578 1.32808 0
M  V30 2939 H 269.152 -3.53415 1.33815 0
M  V30 2940 H 269.465 -6.98217 3.31229 0
M  V30 2941 H 267.81 -6.28223 2.97255 0
M  V30 2942 H 271.001 -4.34716 1.73607 0
M  V30 2943 H 271.174 -5.91958 2.63609 0
M  V30 2944 N 264.58 -0.43555 -1.51462 0
M  V30 2945 C 265.543 0.365137 -2.26273 0
M  V30 2946 C 266.543 0.951227 -1.29647 0
M  V30 2947 O 267.733 0.825958 -1.53374 0
M  V30 2948 C 264.865 1.51645 -3.05314 0
M  V30 2949 H 266.058 -0.290474 -2.9849 0
M  V30 2950 H 263.611 -0.188676 -1.55157 0
M  V30 2951 H 264.346 2.20816 -2.3751 0
M  V30 2952 H 264.131 1.10238 -3.76284 0
M  V30 2953 H 265.621 2.08218 -3.61987 0
M  V30 2954 N 266.058 1.56714 -0.166846 0
M  V30 2955 C 267.469 1.83378 0.350646 0
M  V30 2956 C 267.82 1.08646 1.63372 0
M  V30 2957 O 266.945 0.338058 2.13743 0
M  V30 2958 C 267.54 3.32643 0.642963 0
M  V30 2959 C 266.099 3.59818 1.10491 0
M  V30 2960 C 265.246 2.76954 0.138411 0
M  V30 2961 H 268.197 1.53803 -0.391193 0
M  V30 2962 H 268.218 3.49878 1.49551 0
M  V30 2963 H 267.73 3.87007 -0.291055 0
M  V30 2964 H 265.831 3.1086 2.05418 0
M  V30 2965 H 265.944 4.68178 1.01716 0
M  V30 2966 H 264.308 2.4666 0.634911 0
M  V30 2967 H 265.091 3.34097 -0.789549 0
M  V30 2968 N 267.536 -0.106894 1.57237 0
M  V30 2969 C 268.446 -1.14911 2.0453 0
M  V30 2970 C 269.462 -1.44592 0.96795 0
M  V30 2971 O 270.638 -1.55468 1.2803 0
M  V30 2972 C 267.703 -2.45272 2.45036 0
M  V30 2973 C 266.764 -2.22879 3.66911 0
M  V30 2974 C 265.997 -3.47024 4.05475 0
M  V30 2975 O 266.22 -4.54804 3.44252 0
M  V30 2976 O 265.154 -3.3731 4.98504 0
M  V30 2977 H 268.98 -0.777461 2.9358 0
M  V30 2978 H 266.565 -0.318563 1.45964 0
M  V30 2979 H 268.447 -3.22055 2.71769 0
M  V30 2980 H 267.122 -2.81886 1.59129 0
M  V30 2981 H 266.029 -1.43915 3.45311 0
M  V30 2982 H 267.362 -1.91163 4.53561 0
M  V30 2983 N 269.014 -1.53014 -0.377408 0
M  V30 2984 C 269.944 -1.81589 -1.46791 0
M  V30 2985 C 270.925 -0.668622 -1.56408 0
M  V30 2986 O 272.11 -0.917337 -1.71168 0
M  V30 2987 C 269.24 -1.99519 -2.8427 0
M  V30 2988 C 268.194 -3.15249 -2.89486 0
M  V30 2989 C 267.52 -3.18451 -4.29527 0
M  V30 2990 C 268.82 -4.54084 -2.58079 0
M  V30 2991 H 270.514 -2.7291 -1.23127 0
M  V30 2992 H 268.06 -1.31319 -0.590883 0
M  V30 2993 H 270.013 -2.18092 -3.60575 0
M  V30 2994 H 268.737 -1.04897 -3.09296 0
M  V30 2995 H 267.396 -2.96477 -2.15631 0
M  V30 2996 H 267.044 -2.2149 -4.5161 0
M  V30 2997 H 266.744 -3.962 -4.33934 0
M  V30 2998 H 268.268 -3.39193 -5.07721 0
M  V30 2999 H 269.682 -4.72899 -3.24098 0
M  V30 3000 H 268.079 -5.33987 -2.7382 0
M  V30 3001 H 269.149 -4.60006 -1.53372 0
M  V30 3002 N 270.492 0.636531 -1.44174 0
M  V30 3003 C 271.422 1.76003 -1.53444 0
M  V30 3004 C 272.403 1.65619 -0.387841 0
M  V30 3005 O 273.588 1.84461 -0.607257 0
M  V30 3006 C 270.718 3.14511 -1.4731 0
M  V30 3007 C 269.672 3.39677 -2.60391 0
M  V30 3008 C 268.998 4.78159 -2.39308 0
M  V30 3009 C 270.298 3.32772 -4.02567 0
M  V30 3010 H 271.992 1.68501 -2.47483 0
M  V30 3011 H 269.538 0.809237 -1.19111 0
M  V30 3012 H 271.491 3.92878 -1.52397 0
M  V30 3013 H 270.215 3.22783 -0.49785 0
M  V30 3014 H 268.874 2.63688 -2.54684 0
M  V30 3015 H 268.522 4.83128 -1.39988 0
M  V30 3016 H 268.222 4.95956 -3.15122 0
M  V30 3017 H 269.746 5.58762 -2.46205 0
M  V30 3018 H 271.16 4.01051 -4.09672 0
M  V30 3019 H 269.557 3.62104 -4.7854 0
M  V30 3020 H 270.627 2.30669 -4.2652 0
M  V30 3021 N 271.97 1.30982 0.876444 0
M  V30 3022 C 273.217 1.20296 1.62896 0
M  V30 3023 C 273.545 -0.240395 1.93009 0
M  V30 3024 O 272.8 -1.18733 1.55567 0
M  V30 3025 C 273.099 1.98572 2.9716 0
M  V30 3026 C 272.765 3.48125 2.86566 0
M  V30 3027 C 271.427 3.88905 2.83383 0
M  V30 3028 C 273.779 4.43322 2.74071 0
M  V30 3029 C 271.107 5.2316 2.65556 0
M  V30 3030 C 273.459 5.77695 2.57781 0
M  V30 3031 C 272.123 6.17704 2.52979 0
M  V30 3032 H 271.393 0.440193 0.59608 0
M  V30 3033 H 274.04 1.62177 1.01837 0
M  V30 3034 H 272.345 1.49352 3.62217 0
M  V30 3035 H 274.042 1.8769 3.54364 0
M  V30 3036 H 270.632 3.15723 2.89856 0
M  V30 3037 H 274.816 4.12752 2.75589 0
M  V30 3038 H 270.072 5.53241 2.60259 0
M  V30 3039 H 274.246 6.51091 2.47089 0
M  V30 3040 H 271.873 7.21678 2.38924 0
M  V30 3041 N 273.449 -1.08991 1.13837 0
M  V30 3042 C 274.697 -1.80899 0.901098 0
M  V30 3043 C 275.018 -1.86356 -0.574134 0
M  V30 3044 O 274.288 -1.35235 -1.41733 0
M  V30 3045 H 272.868 -0.669966 0.330386 0
M  V30 3046 H 275.53 -1.318 1.43578 0
M  V30 3047 H 274.626 -2.83929 1.29578 0
M  V30 3048 N 274.927 -0.932562 -1.27047 0
M  V30 3049 C 275.89 -0.440064 -2.24936 0
M  V30 3050 C 276.89 0.444071 -1.54547 0
M  V30 3051 O 278.08 0.244465 -1.72476 0
M  V30 3052 C 275.212 0.36678 -3.38921 0
M  V30 3053 H 276.405 -1.305 -2.70018 0
M  V30 3054 H 273.958 -0.713707 -1.39054 0
M  V30 3055 H 274.693 1.25033 -2.99228 0
M  V30 3056 H 274.478 -0.267204 -3.91188 0
M  V30 3057 H 275.968 0.701567 -4.11665 0
M  V30 3058 N 276.405 1.4127 -0.698611 0
M  V30 3059 C 277.821 1.55241 -0.370462 0
M  V30 3060 C 278.021 1.67351 1.12231 0
M  V30 3061 O 277.077 1.65363 1.90818 0
M  V30 3062 C 278.39 2.78997 -1.12165 0
M  V30 3063 C 279.938 2.92797 -1.1063 0
M  V30 3064 C 280.413 4.19445 -1.8393 0
M  V30 3065 N 281.904 4.26409 -1.80914 0
M  V30 3066 C 282.639 5.23271 -2.34467 0
M  V30 3067 N 282.135 6.26145 -2.96504 0
M  V30 3068 N 283.928 5.15232 -2.24706 0
M  V30 3069 H 276.079 1.31654 -1.66676 0
M  V30 3070 H 278.342 0.635393 -0.703548 0
M  V30 3071 H 278.048 2.76268 -2.17644 0
M  V30 3072 H 277.922 3.70606 -0.702209 0
M  V30 3073 H 280.309 2.95039 -0.0597713 0
M  V30 3074 H 280.39 2.02353 -1.56483 0
M  V30 3075 H 280.034 4.17964 -2.88563 0
M  V30 3076 H 279.964 5.08866 -1.35509 0
M  V30 3077 H 282.455 3.527 -1.35687 0
M  V30 3078 H 282.768 6.96451 -3.34927 0
M  V30 3079 H 281.113 6.26638 -3.00583 0
M  V30 3080 H 284.304 4.33789 -1.7591 0
M  V30 3081 H 284.477 5.90552 -2.66745 0
M  V30 3082 N 277.883 0.443576 1.51229 0
M  V30 3083 C 278.816 -0.410089 2.24485 0
M  V30 3084 C 279.794 -1.01949 1.26669 0
M  V30 3085 O 280.978 -1.06075 1.55821 0
M  V30 3086 C 278.105 -1.57211 3.00004 0
M  V30 3087 C 277.151 -1.08279 4.12526 0
M  V30 3088 S 277.984 -0.0197476 5.35496 0
M  V30 3089 C 279.14 -1.18629 6.14555 0
M  V30 3090 H 279.373 0.211832 2.96544 0
M  V30 3091 H 276.906 0.228156 1.52705 0
M  V30 3092 H 278.864 -2.23825 3.44111 0
M  V30 3093 H 277.525 -2.16547 2.27522 0
M  V30 3094 H 276.718 -1.95193 4.64667 0
M  V30 3095 H 276.32 -0.494797 3.70713 0
M  V30 3096 H 278.612 -2.10344 6.4402 0
M  V30 3097 H 279.555 -0.70472 7.04584 0
M  V30 3098 H 279.963 -1.42768 5.46148 0
M  V30 3099 N 279.361 -1.56624 0.175154 0
M  V30 3100 C 280.591 -2.01082 -0.474283 0
M  V30 3101 C 280.999 -1.05447 -1.57091 0
M  V30 3102 O 280.342 -0.0480595 -1.83637 0
M  V30 3103 C 280.404 -3.41963 -1.10911 0
M  V30 3104 C 280.068 -4.56742 -0.153666 0
M  V30 3105 C 281.065 -5.16076 0.629448 0
M  V30 3106 C 278.75 -5.02277 -0.0483776 0
M  V30 3107 C 280.744 -6.19377 1.50501 0
M  V30 3108 C 278.431 -6.05427 0.830768 0
M  V30 3109 C 279.429 -6.63849 1.60605 0
M  V30 3110 O 279.117 -7.64998 2.47049 0
M  V30 3111 H 278.849 -0.664261 -0.125432 0
M  V30 3112 H 281.403 -2.03549 0.275163 0
M  V30 3113 H 279.633 -3.36422 -1.90676 0
M  V30 3114 H 281.322 -3.70352 -1.66114 0
M  V30 3115 H 282.088 -4.81776 0.558297 0
M  V30 3116 H 277.967 -4.56513 -0.641611 0
M  V30 3117 H 281.511 -6.64906 2.1106 0
M  V30 3118 H 277.408 -6.39151 0.903107 0
M  V30 3119 H 278.176 -7.82336 2.40607 0
M  V30 3120 N 280.839 0.0985539 -1.57292 0
M  V30 3121 C 282.087 0.801092 -1.85545 0
M  V30 3122 C 282.408 1.79438 -0.763353 0
M  V30 3123 O 281.678 1.94763 0.21073 0
M  V30 3124 H 280.258 0.29884 -0.684619 0
M  V30 3125 H 282.92 0.0810064 -1.94732 0
M  V30 3126 H 282.016 1.3338 -2.82163 0
M  V30 3127 N 282.317 1.53212 0.369288 0
M  V30 3128 C 283.563 1.69466 1.11397 0
M  V30 3129 C 283.896 0.443257 1.89074 0
M  V30 3130 O 283.171 -0.559386 1.86282 0
M  V30 3131 C 283.454 2.9422 2.07621 0
M  V30 3132 C 283.307 4.29508 1.33577 0
M  V30 3133 C 284.626 3.14565 3.07794 0
M  V30 3134 H 281.745 0.616667 0.403597 0
M  V30 3135 H 284.387 1.85845 0.395179 0
M  V30 3136 H 282.537 2.80387 2.68916 0
M  V30 3137 H 284.209 4.55147 0.750955 0
M  V30 3138 H 282.452 4.29088 0.637618 0
M  V30 3139 H 283.123 5.12926 2.03989 0
M  V30 3140 H 285.599 3.2756 2.56601 0
M  V30 3141 H 284.475 4.03297 3.72348 0
M  V30 3142 H 284.736 2.29675 3.77759 0
M  V30 3143 N 283.795 -0.628877 1.44509 0
M  V30 3144 C 285.043 -1.38565 1.4712 0
M  V30 3145 C 285.364 -1.94712 0.105899 0
M  V30 3146 O 284.634 -1.75912 -0.862079 0
M  V30 3147 H 283.214 -0.514333 0.541729 0
M  V30 3148 H 285.876 -0.740018 1.80305 0
M  V30 3149 H 284.972 -2.21583 2.19789 0
M  V30 3150 N 285.273 -1.31445 -0.869486 0
M  V30 3151 C 286.519 -1.21337 -1.62496 0
M  V30 3152 C 286.852 0.227872 -1.92858 0
M  V30 3153 O 286.127 1.16094 -1.56053 0
M  V30 3154 C 286.41 -2.05814 -2.95487 0
M  V30 3155 C 286.263 -3.5824 -2.72 0
M  V30 3156 C 287.582 -1.9079 -3.96594 0
M  V30 3157 H 284.701 -0.442135 -0.589649 0
M  V30 3158 H 287.343 -1.6124 -1.00507 0
M  V30 3159 H 285.493 -1.71913 -3.48394 0
M  V30 3160 H 287.165 -4.0228 -2.25762 0
M  V30 3161 H 285.408 -3.81647 -2.06224 0
M  V30 3162 H 286.079 -4.12657 -3.66631 0
M  V30 3163 H 288.555 -2.20459 -3.52898 0
M  V30 3164 H 287.431 -2.52199 -4.87531 0
M  V30 3165 H 287.692 -0.871341 -4.33428 0
M  V30 3166 N 286.751 1.08385 -1.14413 0
M  V30 3167 C 288.028 1.77429 -0.823297 0
M  V30 3168 C 288.408 1.9974 0.683163 0
M  V30 3169 O 287.756 1.60739 1.62405 0
M  V30 3170 C 287.966 3.09004 -1.62227 0
M  V30 3171 C 289.314 3.83532 -1.82177 0
M  V30 3172 O 290.338 3.18786 -1.58915 0
M  V30 3173 O 289.197 4.99792 -2.21067 0
M  V30 3174 H 286.291 0.769999 -0.301712 0
M  V30 3175 H 288.837 1.14846 -1.24934 0
M  V30 3176 H 287.609 2.88316 -2.64555 0
M  V30 3177 H 287.232 3.79316 -1.19187 0
M  V30 3178 N 288.23 0.939286 1.26551 0
M  V30 3179 C 289.163 0.391702 2.24813 0
M  V30 3180 C 290.141 -0.518421 1.54114 0
M  V30 3181 O 291.325 -0.456299 1.82894 0
M  V30 3182 C 288.452 -0.437382 3.35864 0
M  V30 3183 C 287.498 0.410946 4.24516 0
M  V30 3184 S 288.331 1.83372 5.03125 0
M  V30 3185 C 289.487 1.01264 6.17654 0
M  V30 3186 H 289.72 1.22448 2.70913 0
M  V30 3187 H 287.253 0.742269 1.35387 0
M  V30 3188 H 289.211 -0.909837 4.0029 0
M  V30 3189 H 287.872 -1.24482 2.8838 0
M  V30 3190 H 287.065 -0.224191 5.03501 0
M  V30 3191 H 286.667 0.818014 3.64945 0
M  V30 3192 H 288.959 0.254023 6.77024 0
M  V30 3193 H 289.902 1.77589 6.85469 0
M  V30 3194 H 290.31 0.549532 5.61819 0
M  V30 3195 N 289.708 -1.40897 0.706093 0
M  V30 3196 C 290.954 -2.01849 0.250681 0
M  V30 3197 C 291.309 -1.5496 -1.14041 0
M  V30 3198 O 290.602 -0.755566 -1.76073 0
M  V30 3199 C 290.796 -3.5646 0.259099 0
M  V30 3200 C 290.625 -4.18357 1.64947 0
M  V30 3201 C 289.395 -4.522 2.25485 0
M  V30 3202 C 291.593 -4.43856 2.598 0
M  V30 3203 N 289.575 -4.9944 3.56977 0
M  V30 3204 C 290.946 -4.92986 3.75985 0
M  V30 3205 C 293.001 -4.25882 2.57933 0
M  V30 3206 C 291.704 -5.2603 4.90597 0
M  V30 3207 C 293.73 -4.6002 3.71665 0
M  V30 3208 C 293.092 -5.09331 4.86581 0
M  V30 3209 H 289.191 -0.769843 0.137353 0
M  V30 3210 H 291.775 -1.71278 0.925845 0
M  V30 3211 H 289.946 -3.86481 -0.385592 0
M  V30 3212 H 291.678 -4.04144 -0.21213 0
M  V30 3213 H 288.433 -4.3901 1.77671 0
M  V30 3214 H 288.857 -5.27454 4.24407 0
M  V30 3215 H 293.499 -3.86986 1.70298 0
M  V30 3216 H 291.217 -5.63843 5.78884 0
M  V30 3217 H 294.803 -4.47762 3.71484 0
M  V30 3218 H 293.683 -5.35251 5.73129 0
M  V30 3219 N 291.186 -0.45159 -1.50991 0
M  V30 3220 C 292.149 0.341117 -2.26647 0
M  V30 3221 C 293.149 0.937422 -1.30649 0
M  V30 3222 O 294.339 0.809644 -1.54241 0
M  V30 3223 C 291.471 1.48398 -3.06905 0
M  V30 3224 H 292.664 -0.322117 -2.98165 0
M  V30 3225 H 290.217 -0.205122 -1.54948 0
M  V30 3226 H 290.952 2.18284 -2.39838 0
M  V30 3227 H 290.737 1.06241 -3.77432 0
M  V30 3228 H 292.227 2.04367 -3.64176 0
M  V30 3229 N 292.664 1.56529 -0.183458 0
M  V30 3230 C 293.91 1.97537 0.459036 0
M  V30 3231 C 294.243 1.06989 1.62071 0
M  V30 3232 O 293.518 0.11948 1.94133 0
M  V30 3233 C 293.801 3.47874 0.930368 0
M  V30 3234 C 293.654 4.492 -0.232317 0
M  V30 3235 C 294.973 4.01612 1.79989 0
M  V30 3236 H 292.092 0.718204 0.165383 0
M  V30 3237 H 294.734 1.88042 -0.272038 0
M  V30 3238 H 292.884 3.56095 1.55333 0
M  V30 3239 H 294.556 4.53027 -0.86972 0
M  V30 3240 H 292.799 4.24657 -0.885928 0
M  V30 3241 H 293.47 5.51823 0.139796 0
M  V30 3242 H 295.946 3.96097 1.27461 0
M  V30 3243 H 294.822 5.07195 2.09867 0
M  V30 3244 H 295.083 3.46163 2.74998 0
M  V30 3245 N 294.142 -0.090211 1.57342 0
M  V30 3246 C 295.39 -0.791241 1.85967 0
M  V30 3247 C 295.711 -1.7903 0.772859 0
M  V30 3248 O 294.981 -1.94872 -0.200398 0
M  V30 3249 H 293.561 -0.295205 0.686195 0
M  V30 3250 H 296.223 -0.0706782 1.94772 0
M  V30 3251 H 295.319 -1.31882 2.82867 0
M  V30 3252 N 295.62 -1.53406 -0.361157 0
M  V30 3253 C 296.86 -1.71507 -1.11197 0
M  V30 3254 C 297.224 -0.459337 -1.86425 0
M  V30 3255 O 298.425 -0.517102 -2.63779 0
M  V30 3256 C 296.696 -2.93307 -2.0422 0
M  V30 3257 S 298.255 -3.32135 -2.86761 0
M  V30 3258 H 295.073 -0.603448 -0.375995 0
M  V30 3259 H 297.675 -1.91516 -0.392642 0
M  V30 3260 H 296.379 -3.82891 -1.47724 0
M  V30 3261 H 295.91 -2.75712 -2.80618 0
M  V30 3262 H 297.925 -2.84493 -4.06544 0
M  V30 3263 N 297.098 0.621204 -1.44841 0
M  V30 3264 C 298.347 1.37658 -1.47422 0
M  V30 3265 C 298.66 1.95264 -0.114629 0
M  V30 3266 O 299.866 2.71494 -0.0180199 0
M  V30 3267 C 298.322 2.49285 -2.59586 0
M  V30 3268 C 297.93 1.98149 -4.01797 0
M  V30 3269 C 299.674 3.26409 -2.71399 0
M  V30 3270 C 297.581 3.07178 -5.05367 0
M  V30 3271 H 296.511 0.517344 -0.548517 0
M  V30 3272 H 299.162 0.667257 -1.70938 0
M  V30 3273 H 297.544 3.22839 -2.29328 0
M  V30 3274 H 298.718 1.31395 -4.41669 0
M  V30 3275 H 297.033 1.33812 -3.94314 0
M  V30 3276 H 299.63 4.07706 -3.45948 0
M  V30 3277 H 299.973 3.76535 -1.77559 0
M  V30 3278 H 300.506 2.5995 -3.01116 0
M  V30 3279 H 297.245 2.61985 -6.00869 0
M  V30 3280 H 296.765 3.72542 -4.70077 0
M  V30 3281 H 298.444 3.71789 -5.29511 0
M  V30 3282 N 298.576 1.31904 0.862503 0
M  V30 3283 C 299.506 1.22782 1.98612 0
M  V30 3284 C 300.487 0.113362 1.69722 0
M  V30 3285 O 301.672 0.299218 1.91881 0
M  V30 3286 C 298.802 0.942058 3.34279 0
M  V30 3287 C 297.756 2.0169 3.77499 0
M  V30 3288 C 297.082 1.58369 5.10709 0
M  V30 3289 C 298.382 3.43096 3.93805 0
M  V30 3290 H 300.076 2.16788 2.06502 0
M  V30 3291 H 297.622 1.04366 0.992154 0
M  V30 3292 H 299.575 0.864818 4.1243 0
M  V30 3293 H 298.299 -0.0336603 3.26583 0
M  V30 3294 H 296.958 2.08416 3.01593 0
M  V30 3295 H 296.606 0.595628 4.99461 0
M  V30 3296 H 296.306 2.30279 5.40597 0
M  V30 3297 H 297.83 1.52067 5.91361 0
M  V30 3298 H 299.244 3.39003 4.62331 0
M  V30 3299 H 297.641 4.13288 4.35101 0
M  V30 3300 H 298.711 3.83334 2.96957 0
M  V30 3301 N 300.054 -1.07777 1.14986 0
M  V30 3302 C 301.017 -2.13041 0.845358 0
M  V30 3303 C 302.017 -1.60071 -0.152931 0
M  V30 3304 O 303.207 -1.74033 0.0761879 0
M  V30 3305 C 300.339 -3.39896 0.261383 0
M  V30 3306 H 301.532 -2.41485 1.77834 0
M  V30 3307 H 299.085 -1.23595 0.956757 0
M  V30 3308 H 299.82 -3.17091 -0.68 0
M  V30 3309 H 299.605 -3.79642 0.980514 0
M  V30 3310 H 301.095 -4.17548 0.0657687 0
M  V30 3311 N 301.532 -0.945985 -1.26051 0
M  V30 3312 C 302.442 -0.465633 -2.29933 0
M  V30 3313 C 303.458 0.462761 -1.67733 0
M  V30 3314 O 304.634 0.341118 -1.9849 0
M  V30 3315 C 301.699 0.256994 -3.45746 0
M  V30 3316 C 300.76 -0.708549 -4.23412 0
M  V30 3317 C 299.993 -0.0203135 -5.33696 0
M  V30 3318 O 300.216 1.19571 -5.57726 0
M  V30 3319 O 299.15 -0.701459 -5.97799 0
M  V30 3320 H 302.976 -1.32866 -2.73094 0
M  V30 3321 H 300.561 -0.712071 -1.31339 0
M  V30 3322 H 302.443 0.663852 -4.16138 0
M  V30 3323 H 301.118 1.09533 -3.04605 0
M  V30 3324 H 300.025 -1.16545 -3.55483 0
M  V30 3325 H 301.358 -1.51465 -4.68315 0
M  V30 3326 N 303.011 1.40521 -0.713556 0
M  V30 3327 C 303.941 2.33381 -0.0743864 0
M  V30 3328 C 304.922 1.52784 0.747735 0
M  V30 3329 O 306.107 1.81258 0.697071 0
M  V30 3330 C 303.237 3.36748 0.849598 0
M  V30 3331 C 302.191 4.27793 0.133247 0
M  V30 3332 C 301.517 5.21679 1.17281 0
M  V30 3333 C 302.817 5.12415 -1.01134 0
M  V30 3334 H 304.511 2.87081 -0.850007 0
M  V30 3335 H 302.057 1.38034 -0.410201 0
M  V30 3336 H 304.01 4.00648 1.30612 0
M  V30 3337 H 302.734 2.81439 1.65709 0
M  V30 3338 H 301.393 3.65342 -0.303426 0
M  V30 3339 H 301.041 4.62677 1.9733 0
M  V30 3340 H 300.741 5.83435 0.698397 0
M  V30 3341 H 302.265 5.88456 1.62947 0
M  V30 3342 H 303.679 5.69781 -0.634274 0
M  V30 3343 H 302.076 5.83203 -1.41399 0
M  V30 3344 H 303.146 4.48514 -1.84292 0
M  V30 3345 N 304.489 0.459591 1.5075 0
M  V30 3346 C 305.419 -0.330644 2.31147 0
M  V30 3347 C 306.4 -1.00087 1.37538 0
M  V30 3348 O 307.585 -1.00025 1.66459 0
M  V30 3349 C 304.715 -1.41958 3.16962 0
M  V30 3350 C 303.669 -0.871608 4.19031 0
M  V30 3351 C 302.995 -2.05797 4.9351 0
M  V30 3352 C 304.295 0.109251 5.22186 0
M  V30 3353 H 305.989 0.340336 2.97459 0
M  V30 3354 H 303.535 0.165119 1.4305 0
M  V30 3355 H 305.488 -1.9798 3.71997 0
M  V30 3356 H 304.212 -2.11917 2.48513 0
M  V30 3357 H 302.871 -0.333442 3.6508 0
M  V30 3358 H 302.519 -2.74427 4.21544 0
M  V30 3359 H 302.219 -1.6976 5.62544 0
M  V30 3360 H 303.743 -2.62331 5.51375 0
M  V30 3361 H 305.157 -0.361405 5.7216 0
M  V30 3362 H 303.554 0.383316 5.98875 0
M  V30 3363 H 304.624 1.03887 4.73641 0
M  V30 3364 N 305.967 -1.56429 0.191757 0
M  V30 3365 C 306.897 -2.21937 -0.725696 0
M  V30 3366 C 307.878 -1.1814 -1.2238 0
M  V30 3367 O 309.063 -1.46636 -1.27325 0
M  V30 3368 C 306.193 -2.87611 -1.94672 0
M  V30 3369 C 305.147 -3.97623 -1.58366 0
M  V30 3370 C 304.473 -4.50446 -2.88102 0
M  V30 3371 C 305.773 -5.16197 -0.796133 0
M  V30 3372 H 307.467 -2.98861 -0.179606 0
M  V30 3373 H 305.013 -1.43749 -0.0849464 0
M  V30 3374 H 306.966 -3.3212 -2.59373 0
M  V30 3375 H 305.69 -2.08087 -2.51728 0
M  V30 3376 H 304.349 -3.53801 -0.960247 0
M  V30 3377 H 303.997 -3.67688 -3.43241 0
M  V30 3378 H 303.697 -5.24675 -2.64556 0
M  V30 3379 H 305.221 -4.97654 -3.53798 0
M  V30 3380 H 306.635 -5.57271 -1.34618 0
M  V30 3381 H 305.032 -5.96471 -0.658928 0
M  V30 3382 H 306.102 -4.84473 0.203478 0
M  V30 3383 N 307.445 0.0818655 -1.57387 0
M  V30 3384 C 308.861 0.436412 -1.53517 0
M  V30 3385 C 309.061 1.79758 -0.910459 0
M  V30 3386 O 308.117 2.47324 -0.508636 0
M  V30 3387 C 309.43 0.386734 -2.98203 0
M  V30 3388 C 310.978 0.467644 -3.09487 0
M  V30 3389 C 311.453 0.447978 -4.55804 0
M  V30 3390 N 312.944 0.508348 -4.60402 0
M  V30 3391 C 313.679 0.515184 -5.71081 0
M  V30 3392 N 313.175 0.477435 -6.91153 0
M  V30 3393 N 314.968 0.560988 -5.59294 0
M  V30 3394 H 307.119 -0.809546 -1.96367 0
M  V30 3395 H 309.382 -0.302733 -0.898363 0
M  V30 3396 H 309.088 -0.546539 -3.47427 0
M  V30 3397 H 308.962 1.20075 -3.57578 0
M  V30 3398 H 311.349 1.39134 -2.60242 0
M  V30 3399 H 311.43 -0.374753 -2.5304 0
M  V30 3400 H 311.074 -0.471826 -5.05704 0
M  V30 3401 H 311.004 1.30777 -5.10103 0
M  V30 3402 H 313.495 0.54218 -3.7399 0
M  V30 3403 H 313.808 0.486299 -7.71268 0
M  V30 3404 H 312.153 0.444278 -6.93579 0
M  V30 3405 H 315.344 0.5881 -4.64391 0
M  V30 3406 H 315.517 0.562846 -6.45551 0
M  V30 3407 N 308.923 1.53595 0.353017 0
M  V30 3408 C 310.169 1.70638 1.09593 0
M  V30 3409 C 310.502 0.463286 1.88593 0
M  V30 3410 O 309.777 -0.539597 1.86865 0
M  V30 3411 C 310.06 2.96406 2.04489 0
M  V30 3412 C 309.913 4.30901 1.29014 0
M  V30 3413 C 311.232 3.17812 3.0444 0
M  V30 3414 H 308.351 0.620913 0.397034 0
M  V30 3415 H 310.993 1.86254 0.375446 0
M  V30 3416 H 309.143 2.83223 2.65927 0
M  V30 3417 H 310.815 4.55917 0.702638 0
M  V30 3418 H 309.058 4.29741 0.592071 0
M  V30 3419 H 309.729 5.1506 1.98537 0
M  V30 3420 H 312.205 3.30263 2.53112 0
M  V30 3421 H 311.081 4.07223 3.6805 0
M  V30 3422 H 311.342 2.33669 3.75301 0
M  V30 3423 N 310.401 -0.613514 1.45168 0
M  V30 3424 C 311.812 -1.19539 1.43413 0
M  V30 3425 C 312.163 -1.95558 0.158632 0
M  V30 3426 O 311.288 -2.0335 -0.740119 0
M  V30 3427 C 311.883 -2.17445 2.59813 0
M  V30 3428 C 310.442 -2.71022 2.61197 0
M  V30 3429 C 309.589 -1.46323 2.35552 0
M  V30 3430 H 312.54 -0.403163 1.53494 0
M  V30 3431 H 312.561 -3.00373 2.33574 0
M  V30 3432 H 312.073 -1.62089 3.52631 0
M  V30 3433 H 310.174 -3.30332 1.7237 0
M  V30 3434 H 310.287 -3.15859 3.60236 0
M  V30 3435 H 308.651 -1.75072 1.84992 0
M  V30 3436 H 309.434 -0.92844 3.30507 0
M  V30 3437 N 311.879 -1.3236 -0.855495 0
M  V30 3438 C 313.126 -1.22872 -1.60962 0
M  V30 3439 C 313.454 0.209658 -1.93367 0
M  V30 3440 O 312.709 1.16243 -1.57436 0
M  V30 3441 C 313.008 -2.03275 -2.93963 0
M  V30 3442 C 312.674 -3.5264 -2.80991 0
M  V30 3443 C 311.336 -3.93364 -2.7716 0
M  V30 3444 C 313.688 -4.47626 -2.66983 0
M  V30 3445 C 311.016 -5.27319 -2.572 0
M  V30 3446 C 313.368 -5.81723 -2.48558 0
M  V30 3447 C 312.032 -6.2165 -2.4312 0
M  V30 3448 H 311.302 -0.44962 -0.589001 0
M  V30 3449 H 313.949 -1.63777 -0.992442 0
M  V30 3450 H 312.254 -1.55095 -3.59795 0
M  V30 3451 H 313.951 -1.93303 -3.51333 0
M  V30 3452 H 310.541 -3.20295 -2.84797 0
M  V30 3453 H 314.725 -4.17084 -2.68988 0
M  V30 3454 H 309.981 -5.57311 -2.51424 0
M  V30 3455 H 314.155 -6.5494 -2.36699 0
M  V30 3456 H 311.782 -7.25388 -2.27412 0
M  V30 3457 N 313.357 1.07166 -1.15556 0
M  V30 3458 C 314.287 2.16403 -0.877046 0
M  V30 3459 C 315.268 1.69217 0.173111 0
M  V30 3460 O 316.453 1.94181 0.027084 0
M  V30 3461 C 313.583 3.45349 -0.367632 0
M  V30 3462 C 312.537 4.05995 -1.35468 0
M  V30 3463 C 311.863 5.30045 -0.704038 0
M  V30 3464 C 313.163 4.45804 -2.72132 0
M  V30 3465 H 314.857 2.39959 -1.79053 0
M  V30 3466 H 312.403 1.15325 -0.862331 0
M  V30 3467 H 314.356 4.21095 -0.160317 0
M  V30 3468 H 313.08 3.21385 0.581326 0
M  V30 3469 H 311.739 3.32296 -1.54839 0
M  V30 3470 H 311.387 5.02373 0.251128 0
M  V30 3471 H 311.087 5.71579 -1.36277 0
M  V30 3472 H 312.611 6.08495 -0.50654 0
M  V30 3473 H 314.025 5.12671 -2.56595 0
M  V30 3474 H 312.422 4.98296 -3.34397 0
M  V30 3475 H 313.492 3.57083 -3.28054 0
M  V30 3476 N 314.835 0.952656 1.25548 0
M  V30 3477 C 316.246 0.647392 1.75116 0
M  V30 3478 C 316.597 -0.837274 1.77438 0
M  V30 3479 O 315.722 -1.65525 1.39393 0
M  V30 3480 C 316.317 1.16845 3.18014 0
M  V30 3481 C 314.876 0.913382 3.6515 0
M  V30 3482 C 314.023 1.31265 2.44264 0
M  V30 3483 H 316.974 1.12968 1.11462 0
M  V30 3484 H 316.995 0.527606 3.76824 0
M  V30 3485 H 316.507 2.24902 3.16292 0
M  V30 3486 H 314.608 -0.152316 3.72289 0
M  V30 3487 H 314.721 1.54845 4.53387 0
M  V30 3488 H 313.085 0.731028 2.43984 0
M  V30 3489 H 313.868 2.40239 2.45234 0
M  V30 3490 N 316.313 -1.40141 0.720998 0
M  V30 3491 C 317.561 -2.0039 0.262323 0
M  V30 3492 C 317.882 -1.57469 -1.15015 0
M  V30 3493 O 317.152 -0.816582 -1.78069 0
M  V30 3494 H 315.732 -0.741063 0.093996 0
M  V30 3495 H 318.394 -1.71398 0.927835 0
M  V30 3496 H 317.49 -3.10658 0.299671 0
M  V30 3497 N 317.792 -0.46758 -1.50504 0
M  V30 3498 C 319.069 0.15003 -1.95024 0
M  V30 3499 C 319.449 1.57304 -1.40779 0
M  V30 3500 O 318.797 2.20281 -0.607319 0
M  V30 3501 C 319.007 0.0969324 -3.48865 0
M  V30 3502 C 320.355 0.287565 -4.23625 0
M  V30 3503 O 321.379 0.173678 -3.55776 0
M  V30 3504 O 320.238 0.517186 -5.44047 0
M  V30 3505 H 317.332 0.113582 -0.819163 0
M  V30 3506 H 319.878 -0.52773 -1.61286 0
M  V30 3507 H 318.65 -0.896732 -3.80886 0
M  V30 3508 H 318.273 0.816303 -3.8913 0
M  V30 3509 N 319.27 1.56325 -0.20005 0
M  V30 3510 C 320.495 2.02548 0.44597 0
M  V30 3511 C 320.92 1.07922 1.5406 0
M  V30 3512 O 320.278 0.0635775 1.81188 0
M  V30 3513 C 320.326 3.47175 0.974761 0
M  V30 3514 O 319.43 3.55671 2.08739 0
M  V30 3515 H 318.771 0.655862 0.103638 0
M  V30 3516 H 321.301 2.02201 -0.312381 0
M  V30 3517 H 321.311 3.87067 1.2901 0
M  V30 3518 H 319.986 4.15538 0.17347 0
M  V30 3519 H 318.563 3.27657 1.78032 0
M  V30 3520 N 320.748 -0.0735177 1.57428 0
M  V30 3521 C 322.025 -0.805903 1.78226 0
M  V30 3522 C 322.405 -1.95874 0.787189 0
M  V30 3523 O 321.753 -2.2779 -0.180029 0
M  V30 3524 C 321.963 -1.28045 3.24662 0
M  V30 3525 C 323.311 -1.71453 3.88444 0
M  V30 3526 O 324.335 -1.37616 3.28543 0
M  V30 3527 O 323.194 -2.34093 4.93825 0
M  V30 3528 H 320.288 -0.386041 0.73137 0
M  V30 3529 H 322.834 -0.0537269 1.69615 0
M  V30 3530 H 321.606 -0.455476 3.8864 0
M  V30 3531 H 321.229 -2.094 3.37991 0
M  V30 3532 N 322.226 -1.5378 -0.344866 0
M  V30 3533 C 323.156 -1.84662 -1.42906 0
M  V30 3534 C 324.137 -0.701648 -1.54955 0
M  V30 3535 O 325.322 -0.953438 -1.69184 0
M  V30 3536 C 322.452 -2.05503 -2.79974 0
M  V30 3537 C 321.406 -3.21318 -2.82734 0
M  V30 3538 C 320.732 -3.2749 -4.22675 0
M  V30 3539 C 322.032 -4.59456 -2.48389 0
M  V30 3540 H 323.726 -2.75461 -1.17311 0
M  V30 3541 H 321.272 -1.32542 -0.562896 0
M  V30 3542 H 323.225 -2.25691 -3.55867 0
M  V30 3543 H 321.949 -1.11434 -3.07002 0
M  V30 3544 H 320.608 -3.00984 -2.09294 0
M  V30 3545 H 320.256 -2.31019 -4.4681 0
M  V30 3546 H 319.956 -4.05316 -4.25433 0
M  V30 3547 H 321.48 -3.49887 -5.00412 0
M  V30 3548 H 322.894 -4.79667 -3.13995 0
M  V30 3549 H 321.291 -5.39675 -2.62432 0
M  V30 3550 H 322.361 -4.63155 -1.4358 0
M  V30 3551 N 323.704 0.605807 -1.45491 0
M  V30 3552 C 324.981 1.36522 -1.40075 0
M  V30 3553 C 325.361 2.10976 -0.0722744 0
M  V30 3554 O 324.709 2.08007 0.945808 0
M  V30 3555 C 324.919 2.31056 -2.61561 0
M  V30 3556 C 326.267 2.93608 -3.06724 0
M  V30 3557 O 327.291 2.41376 -2.61946 0
M  V30 3558 O 326.15 3.88421 -3.84437 0
M  V30 3559 H 323.244 0.612248 -0.555951 0
M  V30 3560 H 325.79 0.628747 -1.57623 0
M  V30 3561 H 324.562 1.75311 -3.49831 0
M  V30 3562 H 324.185 3.12081 -2.46356 0
M  V30 3563 N 325.182 1.32811 0.848464 0
M  V30 3564 C 326.114 1.18095 1.96433 0
M  V30 3565 C 327.127 0.114354 1.62398 0
M  V30 3566 O 328.316 0.363892 1.74751 0
M  V30 3567 C 325.416 0.786798 3.2964 0
M  V30 3568 C 324.589 1.943 3.91875 0
M  V30 3569 C 323.648 1.53138 5.03423 0
M  V30 3570 O 322.674 2.24432 5.23086 0
M  V30 3571 N 323.876 0.430915 5.78898 0
M  V30 3572 H 326.641 2.14218 2.09597 0
M  V30 3573 H 324.202 1.2543 1.02367 0
M  V30 3574 H 326.194 0.493715 4.01677 0
M  V30 3575 H 324.764 -0.0834541 3.12489 0
M  V30 3576 H 323.984 2.40224 3.12547 0
M  V30 3577 H 325.272 2.71689 4.30189 0
M  V30 3578 H 324.67 -0.162333 5.65467 0
M  V30 3579 H 323.227 0.197466 6.51501 0
M  V30 3580 N 326.66 -1.06551 1.16123 0
M  V30 3581 C 327.59 -2.15935 0.88851 0
M  V30 3582 C 328.571 -1.69306 -0.164135 0
M  V30 3583 O 329.756 -1.94193 -0.0167857 0
M  V30 3584 C 326.886 -3.45149 0.385942 0
M  V30 3585 C 325.84 -4.05271 1.3762 0
M  V30 3586 C 325.166 -5.29664 0.732137 0
M  V30 3587 C 326.466 -4.44355 2.74493 0
M  V30 3588 H 328.16 -2.39006 1.80323 0
M  V30 3589 H 325.706 -1.14866 0.868435 0
M  V30 3590 H 327.659 -4.21004 0.182647 0
M  V30 3591 H 326.383 -3.21689 -0.564274 0
M  V30 3592 H 325.042 -3.3147 1.56599 0
M  V30 3593 H 324.69 -5.02499 -0.224483 0
M  V30 3594 H 324.39 -5.70848 1.39307 0
M  V30 3595 H 325.914 -6.08218 0.538802 0
M  V30 3596 H 327.328 -5.11303 2.59311 0
M  V30 3597 H 325.725 -4.96515 3.37035 0
M  V30 3598 H 326.795 -3.55339 3.29943 0
M  V30 3599 N 328.138 -0.959301 -1.25041 0
M  V30 3600 C 329.366 -0.633949 -1.96948 0
M  V30 3601 C 329.781 0.794916 -1.7125 0
M  V30 3602 O 329.138 1.53231 -0.991287 0
M  V30 3603 C 329.189 -0.888805 -3.50403 0
M  V30 3604 O 328.91 -2.26149 -3.75218 0
M  V30 3605 C 330.411 -0.576482 -4.39536 0
M  V30 3606 H 327.631 -0.237263 -0.627652 0
M  V30 3607 H 330.175 -1.28495 -1.59089 0
M  V30 3608 H 328.33 -0.284145 -3.86357 0
M  V30 3609 H 328.744 -2.33514 -4.6965 0
M  V30 3610 H 330.218 -0.805314 -5.46094 0
M  V30 3611 H 330.695 0.489075 -4.36468 0
M  V30 3612 H 331.301 -1.16067 -4.09156 0
M  V30 3613 N 329.616 1.39756 -0.72842 0
M  V30 3614 C 331.032 1.5442 -0.403308 0
M  V30 3615 C 331.232 1.69694 1.08656 0
M  V30 3616 O 330.288 1.69373 1.87267 0
M  V30 3617 C 331.601 2.76555 -1.18058 0
M  V30 3618 C 333.149 2.90384 -1.16815 0
M  V30 3619 C 333.624 4.15449 -1.92785 0
M  V30 3620 N 335.115 4.22475 -1.89918 0
M  V30 3621 C 335.85 5.1818 -2.45514 0
M  V30 3622 N 335.346 6.19714 -3.09719 0
M  V30 3623 N 337.139 5.1035 -2.35584 0
M  V30 3624 H 329.29 1.28089 -1.69431 0
M  V30 3625 H 331.553 0.620327 -0.716867 0
M  V30 3626 H 331.259 2.7159 -2.23455 0
M  V30 3627 H 331.133 3.69033 -0.780662 0
M  V30 3628 H 333.52 2.94846 -0.12234 0
M  V30 3629 H 333.601 1.98988 -1.6074 0
M  V30 3630 H 333.245 4.11749 -2.97364 0
M  V30 3631 H 333.175 5.05877 -1.46272 0
M  V30 3632 H 335.666 3.49743 -1.43138 0
M  V30 3633 H 335.979 6.8919 -3.49625 0
M  V30 3634 H 334.324 6.20121 -3.13807 0
M  V30 3635 H 337.515 4.2996 -1.85072 0
M  V30 3636 H 337.688 5.84761 -2.79211 0
M  V30 3637 N 331.094 0.475555 1.50254 0
M  V30 3638 C 332.343 -0.0795996 2.01543 0
M  V30 3639 C 332.656 -1.4038 1.36209 0
M  V30 3640 O 333.862 -2.04415 1.7868 0
M  V30 3641 C 332.318 -0.192363 3.59386 0
M  V30 3642 C 331.926 1.12367 4.33679 0
M  V30 3643 C 333.67 -0.699238 4.18701 0
M  V30 3644 C 331.577 0.974453 5.83317 0
M  V30 3645 H 330.507 -0.0335228 0.753254 0
M  V30 3646 H 333.158 0.611128 1.73025 0
M  V30 3647 H 331.54 -0.946974 3.84511 0
M  V30 3648 H 332.714 1.88958 4.20276 0
M  V30 3649 H 331.029 1.562 3.85993 0
M  V30 3650 H 333.626 -0.827978 5.28251 0
M  V30 3651 H 333.969 -1.69171 3.80377 0
M  V30 3652 H 334.502 -0.00188807 3.978 0
M  V30 3653 H 331.241 1.94042 6.26121 0
M  V30 3654 H 330.761 0.248998 5.99283 0
M  V30 3655 H 332.44 0.642867 6.43798 0
M  V30 3656 N 332.573 -1.56217 0.208337 0
M  V30 3657 C 333.82 -1.97949 -0.42692 0
M  V30 3658 C 334.148 -1.09562 -1.60706 0
M  V30 3659 O 333.403 -0.137616 -1.95216 0
M  V30 3660 C 333.702 -3.45441 -0.916797 0
M  V30 3661 C 333.368 -4.50646 0.151391 0
M  V30 3662 C 332.03 -4.79139 0.444867 0
M  V30 3663 C 334.382 -5.13811 0.874492 0
M  V30 3664 C 331.71 -5.68084 1.46619 0
M  V30 3665 C 334.062 -6.03861 1.88506 0
M  V30 3666 C 332.726 -6.30704 2.18559 0
M  V30 3667 H 331.996 -0.724345 -0.156221 0
M  V30 3668 H 334.643 -1.89006 0.308084 0
M  V30 3669 H 332.948 -3.51521 -1.73032 0
M  V30 3670 H 334.645 -3.75094 -1.41794 0
M  V30 3671 H 331.235 -4.28511 -0.0875068 0
M  V30 3672 H 335.419 -4.91879 0.660996 0
M  V30 3673 H 330.675 -5.87151 1.7048 0
M  V30 3674 H 334.849 -6.51861 2.45051 0
M  V30 3675 H 332.476 -6.99424 2.97843 0
M  V30 3676 N 334.051 0.0651679 -1.57465 0
M  V30 3677 C 334.961 1.09448 -2.07505 0
M  V30 3678 C 335.977 1.41974 -1.00595 0
M  V30 3679 O 337.153 1.52018 -1.32107 0
M  V30 3680 C 334.218 2.38689 -2.51453 0
M  V30 3681 C 333.279 2.13073 -3.72691 0
M  V30 3682 C 332.512 3.36152 -4.14533 0
M  V30 3683 O 332.735 4.45517 -3.56189 0
M  V30 3684 O 331.669 3.23974 -5.07272 0
M  V30 3685 H 335.495 0.69935 -2.95538 0
M  V30 3686 H 333.08 0.279752 -1.46757 0
M  V30 3687 H 334.962 3.14736 -2.80212 0
M  V30 3688 H 333.637 2.77568 -1.66546 0
M  V30 3689 H 332.544 1.34709 -3.49005 0
M  V30 3690 H 333.877 1.79071 -4.5847 0
M  V30 3691 N 335.529 1.53961 0.336706 0
M  V30 3692 C 336.757 1.75483 1.09605 0
M  V30 3693 C 337.172 0.4972 1.82136 0
M  V30 3694 O 336.529 -0.53149 1.74589 0
M  V30 3695 C 336.58 2.93943 2.10428 0
M  V30 3696 O 336.301 4.14842 1.40846 0
M  V30 3697 C 337.802 3.27571 2.98684 0
M  V30 3698 H 335.022 0.586166 0.326574 0
M  V30 3699 H 337.566 2.00808 0.38683 0
M  V30 3700 H 335.721 2.70929 2.76905 0
M  V30 3701 H 336.135 4.81383 2.08255 0
M  V30 3702 H 337.609 4.13791 3.6535 0
M  V30 3703 H 338.086 2.44168 3.65074 0
M  V30 3704 H 338.692 3.52615 2.37787 0
M  V30 3705 N 337.007 -0.598083 1.45811 0
M  V30 3706 C 337.937 -1.71873 1.58057 0
M  V30 3707 C 338.918 -1.64533 0.431615 0
M  V30 3708 O 340.103 -1.82787 0.65595 0
M  V30 3709 C 337.233 -3.10495 1.55597 0
M  V30 3710 C 336.187 -3.32654 2.69305 0
M  V30 3711 C 335.513 -4.71646 2.51902 0
M  V30 3712 C 336.813 -3.21981 4.11248 0
M  V30 3713 H 338.507 -1.61881 2.51863 0
M  V30 3714 H 336.053 -0.777372 1.21214 0
M  V30 3715 H 338.006 -3.88699 1.6276 0
M  V30 3716 H 336.73 -3.2135 0.583255 0
M  V30 3717 H 335.389 -2.56843 2.61586 0
M  V30 3718 H 335.037 -4.79246 1.52748 0
M  V30 3719 H 334.737 -4.87426 3.2816 0
M  V30 3720 H 336.261 -5.52038 2.60933 0
M  V30 3721 H 337.675 -3.90049 4.20161 0
M  V30 3722 H 336.072 -3.49289 4.87972 0
M  V30 3723 H 337.142 -2.1928 4.32486 0
M  V30 3724 N 338.485 -1.33259 -0.841409 0
M  V30 3725 C 339.733 -1.24326 -1.59334 0
M  V30 3726 C 340.054 0.191564 -1.94057 0
M  V30 3727 O 339.324 1.11967 -1.60749 0
M  V30 3728 H 337.904 -0.457174 -0.590763 0
M  V30 3729 H 340.566 -1.66947 -1.00571 0
M  V30 3730 H 339.662 -1.8352 -2.52442 0
M  V30 3731 N 339.963 1.05934 -1.16686 0
M  V30 3732 C 341.191 1.8249 -0.974929 0
M  V30 3733 C 341.606 1.82679 0.476861 0
M  V30 3734 O 340.963 1.2486 1.33103 0
M  V30 3735 C 341.014 3.28943 -1.49929 0
M  V30 3736 O 340.735 3.28886 -2.89423 0
M  V30 3737 C 342.236 4.22215 -1.35089 0
M  V30 3738 H 339.456 0.575295 -0.345365 0
M  V30 3739 H 342 1.33631 -1.548 0
M  V30 3740 H 340.155 3.751 -0.968423 0
M  V30 3741 H 340.569 4.20493 -3.13506 0
M  V30 3742 H 342.043 5.22987 -1.76603 0
M  V30 3743 H 342.52 4.38195 -0.296935 0
M  V30 3744 H 343.126 3.81907 -1.87155 0
M  V30 3745 N 341.441 0.965919 1.2453 0
M  V30 3746 C 342.852 0.665929 1.7442 0
M  V30 3747 C 343.203 -0.818407 1.78316 0
M  V30 3748 O 342.328 -1.64037 1.41141 0
M  V30 3749 C 342.923 1.20211 3.16757 0
M  V30 3750 C 341.482 0.952059 3.6416 0
M  V30 3751 C 340.629 1.33848 2.42858 0
M  V30 3752 H 343.58 1.14144 1.10258 0
M  V30 3753 H 343.601 0.567544 3.76244 0
M  V30 3754 H 343.113 2.28244 3.13889 0
M  V30 3755 H 341.214 -0.112821 3.72429 0
M  V30 3756 H 341.327 1.59645 4.51719 0
M  V30 3757 H 339.691 0.756864 2.43195 0
M  V30 3758 H 340.474 2.42827 2.42673 0
M  V30 3759 N 342.919 -1.39368 0.735821 0
M  V30 3760 C 344.147 -2.04795 0.294393 0
M  V30 3761 C 344.562 -1.55478 -1.07107 0
M  V30 3762 O 343.919 -0.720038 -1.67695 0
M  V30 3763 C 343.97 -3.6035 0.288071 0
M  V30 3764 O 343.691 -4.07852 1.59963 0
M  V30 3765 C 345.192 -4.42976 -0.169422 0
M  V30 3766 H 342.412 -0.658571 0.128551 0
M  V30 3767 H 344.956 -1.78399 0.999701 0
M  V30 3768 H 343.111 -3.85645 -0.368355 0
M  V30 3769 H 343.525 -5.02181 1.51375 0
M  V30 3770 H 344.999 -5.51864 -0.122687 0
M  V30 3771 H 345.476 -4.22068 -1.21472 0
M  V30 3772 H 346.082 -4.22832 0.457469 0
M  V30 3773 N 344.397 -0.483516 -1.5 0
M  V30 3774 C 345.307 0.309172 -2.32554 0
M  V30 3775 C 346.323 0.984159 -1.43493 0
M  V30 3776 O 347.499 0.969399 -1.76535 0
M  V30 3777 C 344.564 1.36979 -3.18493 0
M  V30 3778 C 343.625 0.710095 -4.23387 0
M  V30 3779 C 342.858 1.72018 -5.05218 0
M  V30 3780 O 343.081 2.94813 -4.88305 0
M  V30 3781 O 342.015 1.28515 -5.8802 0
M  V30 3782 H 345.841 -0.366064 -3.01486 0
M  V30 3783 H 343.426 -0.24514 -1.47375 0
M  V30 3784 H 345.308 1.98385 -3.71781 0
M  V30 3785 H 343.983 2.02828 -2.52275 0
M  V30 3786 H 342.89 0.0567539 -3.74057 0
M  V30 3787 H 344.223 0.0943557 -4.9211 0
M  V30 3788 N 345.875 1.56104 -0.216619 0
M  V30 3789 C 346.785 2.23694 0.706982 0
M  V30 3790 C 347.801 1.24295 1.21765 0
M  V30 3791 O 348.977 1.57094 1.2603 0
M  V30 3792 C 346.042 2.8998 1.90033 0
M  V30 3793 C 345.103 4.04708 1.43213 0
M  V30 3794 C 344.336 4.67824 2.56859 0
M  V30 3795 O 344.559 4.29913 3.74874 0
M  V30 3796 O 343.493 5.56905 2.28343 0
M  V30 3797 H 347.319 3.03272 0.161235 0
M  V30 3798 H 344.904 1.49394 0.0136177 0
M  V30 3799 H 346.786 3.31837 2.59735 0
M  V30 3800 H 345.461 2.13365 2.43428 0
M  V30 3801 H 344.368 3.6743 0.70327 0
M  V30 3802 H 345.701 4.83051 0.944615 0
M  V30 3803 N 347.353 -0.0568162 1.57498 0
M  V30 3804 C 348.285 -1.09292 2.01464 0
M  V30 3805 C 349.298 -1.34112 0.922913 0
M  V30 3806 O 350.487 -1.32089 1.20062 0
M  V30 3807 C 347.587 -2.44068 2.35125 0
M  V30 3808 C 346.76 -2.38995 3.66333 0
M  V30 3809 C 345.819 -3.55997 3.87495 0
M  V30 3810 O 344.845 -3.36746 4.58901 0
M  V30 3811 N 346.047 -4.76888 3.30996 0
M  V30 3812 H 348.812 -0.718386 2.90963 0
M  V30 3813 H 346.373 -0.245235 1.60032 0
M  V30 3814 H 348.365 -3.21011 2.46443 0
M  V30 3815 H 346.935 -2.73468 1.5144 0
M  V30 3816 H 346.155 -1.47336 3.65631 0
M  V30 3817 H 347.443 -2.3272 4.52458 0
M  V30 3818 H 346.841 -4.95431 2.73065 0
M  V30 3819 H 345.398 -5.51291 3.47738 0
M  V30 3820 N 348.832 -1.54138 -0.328536 0
M  V30 3821 C 350.078 -1.73297 -1.06488 0
M  V30 3822 C 350.433 -0.497958 -1.85844 0
M  V30 3823 O 349.726 0.509591 -1.84699 0
M  V30 3824 C 349.92 -2.9457 -2.02393 0
M  V30 3825 C 349.749 -4.29747 -1.32467 0
M  V30 3826 C 348.519 -4.93987 -1.06324 0
M  V30 3827 C 350.717 -5.08903 -0.743137 0
M  V30 3828 N 348.699 -6.13005 -0.331359 0
M  V30 3829 C 350.07 -6.19836 -0.142602 0
M  V30 3830 C 352.125 -4.93699 -0.64546 0
M  V30 3831 C 350.828 -7.17224 0.546125 0
M  V30 3832 C 352.854 -5.91393 0.0295558 0
M  V30 3833 C 352.216 -7.01674 0.619056 0
M  V30 3834 H 348.315 -0.687017 -0.373539 0
M  V30 3835 H 350.899 -1.91589 -0.346659 0
M  V30 3836 H 349.07 -2.77752 -2.71493 0
M  V30 3837 H 350.802 -3.0238 -2.68977 0
M  V30 3838 H 347.557 -4.53824 -1.35428 0
M  V30 3839 H 347.981 -6.76997 0.0202939 0
M  V30 3840 H 352.623 -4.08589 -1.08695 0
M  V30 3841 H 350.341 -8.01896 0.999459 0
M  V30 3842 H 353.927 -5.81706 0.104705 0
M  V30 3843 H 352.807 -7.75971 1.13309 0
M  V30 3844 N 350.31 0.590341 -1.46126 0
M  V30 3845 C 351.721 1.17243 -1.45296 0
M  V30 3846 C 352.072 1.95281 -0.189723 0
M  V30 3847 O 351.197 2.04502 0.707674 0
M  V30 3848 C 351.792 2.13284 -2.6324 0
M  V30 3849 C 350.351 2.66832 -2.65476 0
M  V30 3850 C 349.498 1.42557 -2.3785 0
M  V30 3851 H 352.449 0.378692 -1.54116 0
M  V30 3852 H 352.47 2.96619 -2.38323 0
M  V30 3853 H 351.982 1.56459 -3.55165 0
M  V30 3854 H 350.083 3.27548 -1.77603 0
M  V30 3855 H 350.196 3.10088 -3.65215 0
M  V30 3856 H 348.56 1.72107 -1.87753 0
M  V30 3857 H 349.343 0.875741 -3.31942 0
M  V30 3858 N 351.788 1.33704 0.83433 0
M  V30 3859 C 353.065 1.16011 1.57483 0
M  V30 3860 C 353.445 -0.27176 2.09343 0
M  V30 3861 O 352.793 -1.27146 1.89858 0
M  V30 3862 C 353.003 2.20507 2.70514 0
M  V30 3863 C 354.351 2.54898 3.39577 0
M  V30 3864 O 355.375 2.19209 2.80759 0
M  V30 3865 O 354.234 3.16158 4.45765 0
M  V30 3866 H 351.328 0.448992 0.694503 0
M  V30 3867 H 353.874 1.453 0.876691 0
M  V30 3868 H 352.646 3.16667 2.29865 0
M  V30 3869 H 352.269 1.92329 3.47987 0
M  V30 3870 N 353.266 -1.05314 1.17247 0
M  V30 3871 C 354.199 -2.12512 0.831507 0
M  V30 3872 C 355.177 -1.61351 -0.201168 0
M  V30 3873 O 356.361 -1.88317 -0.0829831 0
M  V30 3874 C 353.488 -3.37848 0.24015 0
M  V30 3875 C 352.534 -4.07832 1.24801 0
M  V30 3876 S 353.367 -4.56537 2.79882 0
M  V30 3877 C 354.523 -5.85122 2.22223 0
M  V30 3878 H 354.756 -2.41106 1.7394 0
M  V30 3879 H 352.289 -1.17896 0.996988 0
M  V30 3880 H 354.247 -4.10391 -0.0945588 0
M  V30 3881 H 352.908 -3.07392 -0.645668 0
M  V30 3882 H 352.101 -4.97883 0.78287 0
M  V30 3883 H 351.703 -3.41348 1.52831 0
M  V30 3884 H 353.995 -6.58408 1.59703 0
M  V30 3885 H 354.938 -6.36381 3.10523 0
M  V30 3886 H 355.346 -5.39626 1.65722 0
M  V30 3887 N 354.744 -0.972509 -1.24016 0
M  V30 3888 C 355.984 -0.644951 -1.93958 0
M  V30 3889 C 356.348 0.80559 -1.74282 0
M  V30 3890 O 357.549 1.2436 -2.38302 0
M  V30 3891 C 355.82 -1.01521 -3.42678 0
M  V30 3892 S 357.379 -0.802927 -4.31391 0
M  V30 3893 H 354.197 -0.236452 -0.670531 0
M  V30 3894 H 356.799 -1.25048 -1.50277 0
M  V30 3895 H 355.503 -2.06769 -3.54506 0
M  V30 3896 H 355.034 -0.400648 -3.91355 0
M  V30 3897 H 357.049 0.317256 -4.95185 0
M  V30 3898 N 356.222 1.38976 -0.743202 0
M  V30 3899 C 357.447 2.05161 -0.303936 0
M  V30 3900 C 357.872 1.55677 1.05576 0
M  V30 3901 O 357.23 0.704131 1.67068 0
M  V30 3902 C 357.278 3.59138 -0.324373 0
M  V30 3903 O 356.382 4.06668 0.685204 0
M  V30 3904 H 355.723 0.649815 -0.136518 0
M  V30 3905 H 358.253 1.77852 -1.01142 0
M  V30 3906 H 358.263 4.07639 -0.171618 0
M  V30 3907 H 356.938 3.94515 -1.31647 0
M  V30 3908 H 355.515 3.69561 0.497913 0
M  V30 3909 N 357.7 0.491464 1.49741 0
M  V30 3910 C 358.63 -0.28154 2.31796 0
M  V30 3911 C 359.611 -0.971473 1.3963 0
M  V30 3912 O 360.796 -0.964719 1.68543 0
M  V30 3913 C 357.926 -1.35203 3.19902 0
M  V30 3914 C 356.88 -0.782529 4.20786 0
M  V30 3915 C 356.206 -1.95283 4.97764 0
M  V30 3916 C 357.506 0.21999 5.21837 0
M  V30 3917 H 359.2 0.403355 2.96671 0
M  V30 3918 H 356.746 0.195425 1.42668 0
M  V30 3919 H 358.699 -1.90045 3.76113 0
M  V30 3920 H 357.423 -2.06598 2.52953 0
M  V30 3921 H 356.082 -0.255928 3.65706 0
M  V30 3922 H 355.73 -2.65423 4.2727 0
M  V30 3923 H 355.43 -1.57789 5.66018 0
M  V30 3924 H 356.954 -2.50577 5.56816 0
M  V30 3925 H 358.368 -0.23996 5.72798 0
M  V30 3926 H 356.765 0.51026 5.97927 0
M  V30 3927 H 357.835 1.13911 4.7133 0
M  V30 3928 N 359.178 -1.55987 0.224894 0
M  V30 3929 C 360.589 -1.84553 -0.282345 0
M  V30 3930 C 360.94 -1.14634 -1.59227 0
M  V30 3931 O 360.065 -0.417155 -2.12341 0
M  V30 3932 C 360.66 -3.348 -0.519062 0
M  V30 3933 C 359.219 -3.63671 -0.970604 0
M  V30 3934 C 358.366 -2.77277 -0.0355261 0
M  V30 3935 H 361.317 -1.52245 0.448006 0
M  V30 3936 H 361.338 -3.55187 -1.36463 0
M  V30 3937 H 360.85 -3.8566 0.43449 0
M  V30 3938 H 358.951 -3.1827 -1.9374 0
M  V30 3939 H 359.064 -4.71631 -0.842698 0
M  V30 3940 H 357.428 -2.48846 -0.542927 0
M  V30 3941 H 358.211 -3.30937 0.913003 0
M  V30 3942 N 360.656 0.0484629 -1.57525 0
M  V30 3943 C 361.933 0.777447 -1.79486 0
M  V30 3944 C 362.313 1.94597 -0.818251 0
M  V30 3945 O 361.661 2.28047 0.143767 0
M  V30 3946 C 361.871 1.22864 -3.26658 0
M  V30 3947 C 363.219 1.65251 -3.91123 0
M  V30 3948 O 364.243 1.32372 -3.3069 0
M  V30 3949 O 363.102 2.26207 -4.97486 0
M  V30 3950 H 360.196 0.374357 -0.737419 0
M  V30 3951 H 362.742 0.0267359 -1.69679 0
M  V30 3952 H 361.514 0.393589 -3.89316 0
M  V30 3953 H 361.137 2.03996 -3.41279 0
M  V30 3954 N 362.134 1.5431 0.320358 0
M  V30 3955 C 363.364 1.7638 1.07582 0
M  V30 3956 C 363.772 0.513944 1.82086 0
M  V30 3957 O 363.115 -0.525123 1.76035 0
M  V30 3958 C 363.177 2.9055 2.1171 0
M  V30 3959 C 362.841 4.2934 1.56575 0
M  V30 3960 C 363.838 5.10077 1.00586 0
M  V30 3961 C 361.523 4.75893 1.60722 0
M  V30 3962 C 363.517 6.35477 0.494756 0
M  V30 3963 C 361.204 6.0126 1.09224 0
M  V30 3964 C 362.202 6.80886 0.53696 0
M  V30 3965 O 361.89 8.03894 0.0297371 0
M  V30 3966 H 361.622 0.592369 0.325692 0
M  V30 3967 H 364.176 2.02019 0.37116 0
M  V30 3968 H 362.406 2.60489 2.85801 0
M  V30 3969 H 364.095 3.00373 2.73003 0
M  V30 3970 H 364.861 4.75265 0.966869 0
M  V30 3971 H 360.74 4.13957 2.02882 0
M  V30 3972 H 364.284 6.97574 0.0606842 0
M  V30 3973 H 360.181 6.35562 1.12831 0
M  V30 3974 H 360.949 8.18372 0.14486 0
M  V30 3975 N 363.613 -0.582584 1.46437 0
M  V30 3976 C 364.859 -1.34278 1.51978 0
M  V30 3977 C 365.192 -1.93446 0.170973 0
M  V30 3978 O 364.467 -1.76481 -0.817608 0
M  V30 3979 C 364.75 -2.47203 2.61845 0
M  V30 3980 C 364.603 -1.93069 4.06257 0
M  V30 3981 C 365.922 -3.49247 2.67795 0
M  V30 3982 H 363.041 -0.486876 0.553282 0
M  V30 3983 H 365.683 -0.654437 1.78374 0
M  V30 3984 H 363.833 -3.0592 2.39469 0
M  V30 3985 H 365.505 -1.38808 4.3992 0
M  V30 3986 H 363.748 -1.23898 4.1573 0
M  V30 3987 H 364.419 -2.74586 4.7886 0
M  V30 3988 H 366.895 -3.00411 2.8791 0
M  V30 3989 H 365.771 -4.25719 3.46489 0
M  V30 3990 H 366.032 -4.06482 1.73852 0
M  V30 3991 N 365.091 -1.34144 -0.827227 0
M  V30 3992 C 366.319 -1.29325 -1.61501 0
M  V30 3993 C 366.734 0.13354 -1.88327 0
M  V30 3994 O 366.091 1.0793 -1.47164 0
M  V30 3995 C 366.142 -2.07746 -2.95844 0
M  V30 3996 O 365.863 -3.4486 -2.70191 0
M  V30 3997 C 367.364 -2.10273 -3.90256 0
M  V30 3998 H 364.584 -0.445069 -0.50215 0
M  V30 3999 H 367.128 -1.76693 -1.02955 0
M  V30 4000 H 365.283 -1.6403 -3.5096 0
M  V30 4001 H 365.697 -3.85345 -3.55822 0
M  V30 4002 H 367.171 -2.69575 -4.81698 0
M  V30 4003 H 367.648 -1.096 -4.25305 0
M  V30 4004 H 368.254 -2.54059 -3.41078 0
M  V30 4005 N 366.569 1.04691 -1.17803 0
M  V30 4006 C 367.816 1.77782 -0.969532 0
M  V30 4007 C 368.144 1.87926 0.501401 0
M  V30 4008 O 367.399 1.37918 1.38842 0
M  V30 4009 C 367.698 3.21467 -1.56186 0
M  V30 4010 C 367.364 3.3137 -3.05786 0
M  V30 4011 C 366.026 3.3378 -3.46619 0
M  V30 4012 C 368.378 3.31976 -4.01797 0
M  V30 4013 C 365.706 3.34431 -4.82051 0
M  V30 4014 C 368.058 3.34167 -5.37136 0
M  V30 4015 C 366.722 3.34866 -5.77426 0
M  V30 4016 H 365.992 0.650549 -0.354777 0
M  V30 4017 H 368.639 1.23006 -1.46772 0
M  V30 4018 H 366.944 3.79203 -0.985515 0
M  V30 4019 H 368.641 3.76652 -1.37602 0
M  V30 4020 H 365.231 3.3021 -2.73238 0
M  V30 4021 H 369.415 3.29311 -3.71306 0
M  V30 4022 H 364.671 3.33285 -5.12573 0
M  V30 4023 H 368.845 3.33585 -6.11305 0
M  V30 4024 H 366.472 3.35124 -6.82346 0
M  V30 4025 N 368.047 0.979072 1.23499 0
M  V30 4026 C 368.994 0.517904 2.24914 0
M  V30 4027 C 369.964 -0.442525 1.60097 0
M  V30 4028 O 371.149 -0.350365 1.87556 0
M  V30 4029 C 368.289 -0.174813 3.44657 0
M  V30 4030 C 367.402 0.825721 4.24035 0
M  V30 4031 C 366.537 0.107946 5.3109 0
M  V30 4032 C 365.576 1.09778 6.02175 0
M  V30 4033 N 364.713 0.40925 7.00906 0
M  V30 4034 H 369.553 1.38751 2.63727 0
M  V30 4035 H 367.09 0.695303 1.2963 0
M  V30 4036 H 369.048 -0.593233 4.12961 0
M  V30 4037 H 367.678 -1.0083 3.06648 0
M  V30 4038 H 366.73 1.36253 3.55161 0
M  V30 4039 H 368.042 1.58005 4.73113 0
M  V30 4040 H 367.196 -0.367904 6.05583 0
M  V30 4041 H 365.935 -0.678994 4.8295 0
M  V30 4042 H 364.94 1.5844 5.26476 0
M  V30 4043 H 366.165 1.88536 6.52404 0
M  V30 4044 H 364.111 -0.358506 6.5502 0
M  V30 4045 H 364.028 1.10226 7.47921 0
M  V30 4046 H 365.296 -0.0442557 7.79487 0
M  V30 4047 N 369.525 -1.3858 0.750561 0
M  V30 4048 C 370.75 -2.04997 0.314812 0
M  V30 4049 C 371.175 -1.56235 -1.04749 0
M  V30 4050 O 370.533 -0.712981 -1.66692 0
M  V30 4051 C 370.581 -3.58961 0.343415 0
M  V30 4052 O 369.685 -4.07025 -0.663628 0
M  V30 4053 H 369.026 -0.649081 0.139962 0
M  V30 4054 H 371.556 -1.77313 1.02084 0
M  V30 4055 H 371.566 -4.07542 0.193233 0
M  V30 4056 H 370.241 -3.93811 1.33738 0
M  V30 4057 H 368.818 -3.6982 -0.478307 0
M  V30 4058 N 371.003 -0.499398 -1.49478 0
M  V30 4059 C 372.25 0.0456899 -2.02448 0
M  V30 4060 C 372.578 1.37142 -1.37921 0
M  V30 4061 O 371.833 1.89111 -0.503544 0
M  V30 4062 C 372.132 0.248424 -3.56536 0
M  V30 4063 C 371.798 -0.999107 -4.39692 0
M  V30 4064 C 370.46 -1.34108 -4.62135 0
M  V30 4065 C 372.812 -1.82842 -4.88076 0
M  V30 4066 C 370.14 -2.51191 -5.30208 0
M  V30 4067 C 372.492 -2.99076 -5.57437 0
M  V30 4068 C 371.156 -3.33655 -5.78127 0
M  V30 4069 H 370.426 0.0167191 -0.740811 0
M  V30 4070 H 373.073 -0.65923 -1.79795 0
M  V30 4071 H 371.378 1.03586 -3.77859 0
M  V30 4072 H 373.075 0.684605 -3.95113 0
M  V30 4073 H 369.665 -0.722729 -4.22463 0
M  V30 4074 H 373.849 -1.57737 -4.70566 0
M  V30 4075 H 369.105 -2.78221 -5.44429 0
M  V30 4076 H 373.279 -3.63664 -5.93904 0
M  V30 4077 H 370.906 -4.24483 -6.30649 0
M  V30 4078 N 372.481 1.55866 -0.233164 0
M  V30 4079 C 373.892 1.847 0.272554 0
M  V30 4080 C 374.243 1.15477 1.58617 0
M  V30 4081 O 373.368 0.42841 2.12117 0
M  V30 4082 C 373.963 3.35071 0.501299 0
M  V30 4083 C 372.522 3.6418 0.951304 0
M  V30 4084 C 371.669 2.77292 0.0208209 0
M  V30 4085 H 374.62 1.52005 -0.456074 0
M  V30 4086 H 374.641 3.55906 1.34577 0
M  V30 4087 H 374.153 3.85424 -0.454936 0
M  V30 4088 H 372.254 3.19293 1.92049 0
M  V30 4089 H 372.367 4.72071 0.817675 0
M  V30 4090 H 370.731 2.49131 0.529723 0
M  V30 4091 H 371.514 3.30448 -0.93054 0
M  V30 4092 N 373.959 -0.0401083 1.57549 0
M  V30 4093 C 375.207 -0.731677 1.8839 0
M  V30 4094 C 375.528 -1.76481 0.829425 0
M  V30 4095 O 374.798 -1.95411 -0.1383 0
M  V30 4096 H 373.378 -0.273225 0.695239 0
M  V30 4097 H 376.04 -0.00867725 1.94898 0
M  V30 4098 H 375.136 -1.22816 2.86919 0
M  V30 4099 N 375.437 -1.54477 -0.31217 0
M  V30 4100 C 376.686 -1.72438 -1.04633 0
M  V30 4101 C 376.999 -0.511163 -1.88803 0
M  V30 4102 O 378.205 -0.572341 -2.65399 0
M  V30 4103 C 376.661 -3.05043 -1.9099 0
M  V30 4104 C 376.269 -4.33806 -1.11877 0
M  V30 4105 C 378.013 -3.32364 -2.64073 0
M  V30 4106 C 375.92 -5.57467 -1.97445 0
M  V30 4107 H 374.85 -0.642647 -0.394361 0
M  V30 4108 H 377.501 -1.80966 -0.303929 0
M  V30 4109 H 375.883 -2.90451 -2.69173 0
M  V30 4110 H 377.057 -4.59199 -0.383843 0
M  V30 4111 H 375.372 -4.13336 -0.504252 0
M  V30 4112 H 377.969 -4.21951 -3.28423 0
M  V30 4113 H 378.312 -2.50745 -3.32314 0
M  V30 4114 H 378.845 -3.47875 -1.92944 0
M  V30 4115 H 375.584 -6.41722 -1.33692 0
M  V30 4116 H 375.104 -5.36277 -2.6864 0
M  V30 4117 H 376.783 -5.94303 -2.5576 0
M  V30 4118 N 376.915 0.57481 -1.46744 0
M  V30 4119 C 378.326 1.15695 -1.46532 0
M  V30 4120 C 378.677 1.95068 -0.210425 0
M  V30 4121 O 377.802 2.05241 0.685944 0
M  V30 4122 C 378.397 2.1048 -2.65487 0
M  V30 4123 C 376.956 2.64002 -2.68291 0
M  V30 4124 C 376.103 1.40026 -2.39349 0
M  V30 4125 H 379.054 0.362325 -1.54509 0
M  V30 4126 H 379.075 2.94074 -2.41455 0
M  V30 4127 H 378.587 1.52683 -3.56805 0
M  V30 4128 H 376.688 3.25646 -1.81067 0
M  V30 4129 H 376.801 3.06197 -3.68483 0
M  V30 4130 H 375.165 1.70106 -1.89568 0
M  V30 4131 H 375.948 0.840485 -3.32852 0
M  V30 4132 N 378.394 1.34581 0.820102 0
M  V30 4133 C 379.324 1.29038 1.94606 0
M  V30 4134 C 380.305 0.1673 1.69275 0
M  V30 4135 O 381.49 0.360112 1.90832 0
M  V30 4136 C 378.62 1.04793 3.31113 0
M  V30 4137 C 377.574 2.13597 3.70891 0
M  V30 4138 C 376.9 1.74537 5.05412 0
M  V30 4139 C 378.2 3.55451 3.8269 0
M  V30 4140 H 379.894 2.23248 1.99501 0
M  V30 4141 H 377.44 1.0747 0.958449 0
M  V30 4142 H 379.393 0.995592 4.0947 0
M  V30 4143 H 378.117 0.0702565 3.26524 0
M  V30 4144 H 376.776 2.17905 2.9481 0
M  V30 4145 H 376.424 0.754226 4.97313 0
M  V30 4146 H 376.124 2.47361 5.32997 0
M  V30 4147 H 377.648 1.70803 5.86224 0
M  V30 4148 H 379.062 3.5354 4.51312 0
M  V30 4149 H 377.459 4.26922 4.21732 0
M  V30 4150 H 378.529 3.92587 2.84611 0
M  V30 4151 N 379.872 -1.04064 1.18357 0
M  V30 4152 C 380.822 -2.10393 0.878561 0
M  V30 4153 C 381.806 -1.60183 -0.151713 0
M  V30 4154 O 382.998 -1.76923 0.0523303 0
M  V30 4155 C 380.127 -3.4089 0.406096 0
M  V30 4156 C 379.213 -3.97866 1.46844 0
M  V30 4157 N 379.604 -4.28657 2.68489 0
M  V30 4158 C 377.902 -4.2574 1.32896 0
M  V30 4159 C 378.603 -4.74253 3.36836 0
M  V30 4160 N 377.579 -4.75068 2.64219 0
M  V30 4161 H 381.381 -2.32076 1.80327 0
M  V30 4162 H 378.895 -1.21818 1.07397 0
M  V30 4163 H 380.892 -4.16557 0.169088 0
M  V30 4164 H 379.552 -3.20633 -0.512275 0
M  V30 4165 H 380.563 -4.18304 3.05356 0
M  V30 4166 H 377.24 -4.1481 0.473134 0
M  V30 4167 H 378.63 -5.07096 4.40798 0
M  V30 4168 N 381.35 -0.985608 -1.22978 0
M  V30 4169 C 382.3 -0.50118 -2.22423 0
M  V30 4170 C 383.284 0.426649 -1.5514 0
M  V30 4171 O 384.476 0.254656 -1.75159 0
M  V30 4172 C 381.605 0.190003 -3.42774 0
M  V30 4173 C 380.691 -0.757703 -4.17276 0
M  V30 4174 N 381.082 -1.90251 -4.68656 0
M  V30 4175 C 379.38 -0.57209 -4.42316 0
M  V30 4176 C 380.081 -2.49676 -5.25392 0
M  V30 4177 N 379.057 -1.78013 -5.13627 0
M  V30 4178 H 382.859 -1.37441 -2.59783 0
M  V30 4179 H 380.373 -0.846941 -1.38567 0
M  V30 4180 H 382.37 0.55439 -4.13197 0
M  V30 4181 H 381.03 1.05946 -3.06929 0
M  V30 4182 H 382.041 -2.28354 -4.64839 0
M  V30 4183 H 378.718 0.251909 -4.16739 0
M  V30 4184 H 380.108 -3.46384 -5.75732 0
M  V30 4185 N 382.828 1.3818 -0.7579 0
M  V30 4186 C 384.077 1.99261 -0.312744 0
M  V30 4187 C 384.39 1.60846 1.11301 0
M  V30 4188 O 385.596 2.14929 1.65885 0
M  V30 4189 C 384.052 3.56294 -0.50821 0
M  V30 4190 C 383.66 4.03657 -1.94333 0
M  V30 4191 C 385.404 4.24313 -0.125982 0
M  V30 4192 C 383.311 5.53347 -2.08712 0
M  V30 4193 H 382.241 0.745456 -0.113185 0
M  V30 4194 H 384.892 1.57889 -0.935056 0
M  V30 4195 H 383.274 3.95575 0.183353 0
M  V30 4196 H 384.448 3.75655 -2.66871 0
M  V30 4197 H 382.763 3.48376 -2.28086 0
M  V30 4198 H 385.36 5.34279 -0.212125 0
M  V30 4199 H 385.703 4.05962 0.921964 0
M  V30 4200 H 386.236 3.90285 -0.769563 0
M  V30 4201 H 382.975 5.76607 -3.11777 0
M  V30 4202 H 382.495 5.83078 -1.4064 0
M  V30 4203 H 384.174 6.19111 -1.87912 0
M  V30 4204 N 384.306 0.507319 1.49211 0
M  V30 4205 C 385.553 -0.0349529 2.0247 0
M  V30 4206 C 385.881 -1.36409 1.38647 0
M  V30 4207 O 385.136 -1.88841 0.513566 0
M  V30 4208 C 385.435 -0.229513 3.56662 0
M  V30 4209 C 385.101 1.02241 4.39156 0
M  V30 4210 C 383.763 1.36557 4.61417 0
M  V30 4211 C 386.115 1.85428 4.871 0
M  V30 4212 C 383.443 2.53999 5.28868 0
M  V30 4213 C 385.795 3.02028 5.55843 0
M  V30 4214 C 384.459 3.36717 5.76349 0
M  V30 4215 H 383.729 -0.0127902 0.74089 0
M  V30 4216 H 386.376 0.668756 1.79443 0
M  V30 4217 H 384.681 -1.0158 3.78403 0
M  V30 4218 H 386.378 -0.663641 3.9547 0
M  V30 4219 H 382.968 0.745124 4.22073 0
M  V30 4220 H 387.152 1.6023 4.69723 0
M  V30 4221 H 382.408 2.81105 5.42946 0
M  V30 4222 H 386.582 3.66808 5.91967 0
M  V30 4223 H 384.209 4.27821 6.28389 0
M  V30 4224 N 385.784 -1.5574 0.241426 0
M  V30 4225 C 387.009 -2.0366 -0.392111 0
M  V30 4226 C 387.434 -1.11969 -1.51144 0
M  V30 4227 O 386.792 -0.111594 -1.80956 0
M  V30 4228 C 386.84 -3.49638 -0.882371 0
M  V30 4229 O 385.944 -3.6108 -1.99235 0
M  V30 4230 H 385.285 -0.658379 -0.0862122 0
M  V30 4231 H 387.815 -2.01302 0.365881 0
M  V30 4232 H 387.825 -3.90351 -1.18702 0
M  V30 4233 H 386.5 -4.15852 -0.0632361 0
M  V30 4234 H 385.077 -3.32262 -1.69282 0
M  V30 4235 N 387.262 0.0317525 -1.57568 0
M  V30 4236 C 388.225 1.01783 -2.0536 0
M  V30 4237 C 389.225 1.29203 -0.957253 0
M  V30 4238 O 390.415 1.24251 -1.22095 0
M  V30 4239 C 387.547 2.35137 -2.46827 0
M  V30 4240 H 388.74 0.605062 -2.93733 0
M  V30 4241 H 386.293 0.278514 -1.53799 0
M  V30 4242 H 387.028 2.81168 -1.61602 0
M  V30 4243 H 386.813 2.16566 -3.26866 0
M  V30 4244 H 388.303 3.05938 -2.84239 0
M  V30 4245 N 388.74 1.54641 0.303973 0
M  V30 4246 C 389.703 1.84646 1.35789 0
M  V30 4247 C 390.703 0.7192 1.4382 0
M  V30 4248 O 391.893 0.987491 1.43507 0
M  V30 4249 C 389.025 2.02407 2.74307 0
M  V30 4250 H 390.218 2.78829 1.10429 0
M  V30 4251 H 387.771 1.46658 0.540487 0
M  V30 4252 H 388.506 1.10502 3.04893 0
M  V30 4253 H 388.291 2.84453 2.69868 0
M  V30 4254 H 389.781 2.27002 3.50514 0
M  V30 4255 N 390.218 -0.567019 1.47046 0
M  V30 4256 C 391.466 -1.322 1.52864 0
M  V30 4257 C 391.787 -1.94088 0.188388 0
M  V30 4258 O 391.057 -1.7941 -0.786693 0
M  V30 4259 H 389.637 -0.490894 0.563056 0
M  V30 4260 H 392.299 -0.662879 1.83281 0
M  V30 4261 H 391.395 -2.12062 2.2899 0
M  V30 4262 N 391.696 -1.35014 -0.812953 0
M  V30 4263 C 392.973 -1.18502 -1.55617 0
M  V30 4264 C 393.353 0.238421 -2.09749 0
M  V30 4265 O 392.701 1.2411 -1.91857 0
M  V30 4266 C 392.911 -2.24783 -2.66971 0
M  V30 4267 C 394.259 -2.60268 -3.35478 0
M  V30 4268 O 395.283 -2.23648 -2.77236 0
M  V30 4269 O 394.142 -3.2321 -4.40678 0
M  V30 4270 H 391.236 -0.459984 -0.687272 0
M  V30 4271 H 393.782 -1.46677 -0.853464 0
M  V30 4272 H 392.554 -3.20284 -2.24798 0
M  V30 4273 H 392.177 -1.97841 -3.44884 0
M  V30 4274 N 393.175 1.03435 -1.18907 0
M  V30 4275 C 394.452 1.73778 -0.89781 0
M  V30 4276 C 394.832 2.02458 0.597832 0
M  V30 4277 O 394.18 1.67482 1.55441 0
M  V30 4278 C 394.39 3.01845 -1.75187 0
M  V30 4279 C 395.738 3.7546 -1.9828 0
M  V30 4280 O 396.762 3.11759 -1.72293 0
M  V30 4281 O 395.621 4.89966 -2.42065 0
M  V30 4282 H 392.715 0.75651 -0.334098 0
M  V30 4283 H 395.261 1.09444 -1.29693 0
M  V30 4284 H 394.033 2.76836 -2.76545 0
M  V30 4285 H 393.656 3.73919 -1.35167 0
M  V30 4286 N 394.653 0.992116 1.22453 0
M  V30 4287 C 395.583 0.561677 2.26644 0
M  V30 4288 C 396.564 -0.411055 1.65059 0
M  V30 4289 O 397.749 -0.301861 1.9184 0
M  V30 4290 C 394.879 -0.125247 3.47074 0
M  V30 4291 C 393.833 0.765948 4.21091 0
M  V30 4292 C 393.159 -0.0538484 5.34673 0
M  V30 4293 C 394.459 2.06242 4.79856 0
M  V30 4294 H 396.153 1.43259 2.62902 0
M  V30 4295 H 393.699 0.690283 1.26377 0
M  V30 4296 H 395.652 -0.437764 4.1912 0
M  V30 4297 H 394.376 -1.03069 3.0991 0
M  V30 4298 H 393.035 1.0621 3.50878 0
M  V30 4299 H 392.683 -0.960188 4.9375 0
M  V30 4300 H 392.383 0.539415 5.85119 0
M  V30 4301 H 393.907 -0.360477 6.09535 0
M  V30 4302 H 395.321 1.8139 5.43848 0
M  V30 4303 H 393.718 2.60444 5.40638 0
M  V30 4304 H 394.788 2.74167 3.99951 0
M  V30 4305 N 396.131 -1.37776 0.765217 0
M  V30 4306 C 397.061 -2.32945 0.160953 0
M  V30 4307 C 398.042 -1.55454 -0.690516 0
M  V30 4308 O 399.227 -1.83721 -0.629318 0
M  V30 4309 C 396.357 -3.39669 -0.724031 0
M  V30 4310 C 395.311 -4.27992 0.0256173 0
M  V30 4311 C 394.637 -5.25673 -0.978383 0
M  V30 4312 C 395.937 -5.08309 1.20082 0
M  V30 4313 H 397.631 -2.83728 0.955969 0
M  V30 4314 H 395.177 -1.36416 0.461149 0
M  V30 4315 H 397.13 -4.05219 -1.15652 0
M  V30 4316 H 395.854 -2.87396 -1.5515 0
M  V30 4317 H 394.513 -3.63964 0.438812 0
M  V30 4318 H 394.161 -4.69682 -1.80022 0
M  V30 4319 H 393.861 -5.85625 -0.481378 0
M  V30 4320 H 395.385 -5.94098 -1.40995 0
M  V30 4321 H 396.799 -5.67034 0.845307 0
M  V30 4322 H 395.196 -5.77554 1.62947 0
M  V30 4323 H 396.266 -4.41365 2.00811 0
M  V30 4324 N 397.609 -0.515225 -1.4894 0
M  V30 4325 C 398.886 0.0879088 -1.95402 0
M  V30 4326 C 399.266 1.52745 -1.45712 0
M  V30 4327 O 398.614 2.18238 -0.677093 0
M  V30 4328 C 398.824 -0.0141055 -3.48997 0
M  V30 4329 C 400.172 0.152646 -4.24326 0
M  V30 4330 O 401.196 0.0604025 -3.56149 0
M  V30 4331 O 400.055 0.34384 -5.45417 0
M  V30 4332 H 397.149 0.0874636 -0.822362 0
M  V30 4333 H 399.695 -0.578775 -1.59525 0
M  V30 4334 H 398.467 -1.01745 -3.77841 0
M  V30 4335 H 398.09 0.692091 -3.9153 0
M  V30 4336 N 399.087 1.5561 -0.249682 0
M  V30 4337 C 400.017 2.24477 0.642826 0
M  V30 4338 C 400.998 1.22601 1.17911 0
M  V30 4339 O 402.183 1.5126 1.21795 0
M  V30 4340 C 399.313 2.94638 1.83863 0
M  V30 4341 C 398.267 4.03227 1.435 0
M  V30 4342 C 397.593 4.60828 2.71186 0
M  V30 4343 C 398.893 5.18796 0.604002 0
M  V30 4344 H 400.587 2.99321 0.0685625 0
M  V30 4345 H 398.133 1.43965 0.0315363 0
M  V30 4346 H 400.086 3.41517 2.46868 0
M  V30 4347 H 398.81 2.17287 2.43832 0
M  V30 4348 H 397.469 3.57121 0.828275 0
M  V30 4349 H 397.117 3.80174 3.29358 0
M  V30 4350 H 396.817 5.34132 2.44901 0
M  V30 4351 H 398.341 5.10442 3.35084 0
M  V30 4352 H 399.755 5.61883 1.13842 0
M  V30 4353 H 398.152 5.98506 0.437097 0
M  V30 4354 H 399.222 4.83384 -0.383147 0
M  V30 4355 N 400.565 -0.0233959 1.57583 0
M  V30 4356 C 401.814 -0.712133 1.8871 0
M  V30 4357 C 402.127 -1.76217 0.848944 0
M  V30 4358 O 403.333 -2.50389 1.04964 0
M  V30 4359 C 401.789 -1.3177 3.3491 0
M  V30 4360 C 401.397 -0.303715 4.46969 0
M  V30 4361 C 403.141 -1.98598 3.75179 0
M  V30 4362 C 401.048 -0.917945 5.84233 0
M  V30 4363 H 399.978 -0.269735 0.704101 0
M  V30 4364 H 402.629 0.0333114 1.8347 0
M  V30 4365 H 401.011 -2.11304 3.34913 0
M  V30 4366 H 402.185 0.465325 4.58445 0
M  V30 4367 H 400.5 0.2628 4.1557 0
M  V30 4368 H 403.097 -2.45416 4.75053 0
M  V30 4369 H 403.44 -2.80659 3.07468 0
M  V30 4370 H 403.973 -1.25831 3.77374 0
M  V30 4371 H 400.712 -0.136633 6.55358 0
M  V30 4372 H 400.232 -1.65669 5.76467 0
M  V30 4373 H 401.911 -1.4236 6.31144 0
M  V30 4374 N 402.043 -1.548 -0.295768 0
M  V30 4375 C 402.975 -1.82492 -1.3867 0
M  V30 4376 C 403.988 -0.708134 -1.46592 0
M  V30 4377 O 405.177 -0.985686 -1.48817 0
M  V30 4378 C 402.277 -1.95256 -2.76999 0
M  V30 4379 C 401.45 -3.25709 -2.91946 0
M  V30 4380 C 400.509 -3.28824 -4.10806 0
M  V30 4381 O 399.535 -4.02328 -4.02643 0
M  V30 4382 N 400.737 -2.5459 -5.21694 0
M  V30 4383 H 403.502 -2.76646 -1.15269 0
M  V30 4384 H 401.063 -1.54438 -0.485849 0
M  V30 4385 H 403.055 -1.94736 -3.54768 0
M  V30 4386 H 401.625 -1.08072 -2.93324 0
M  V30 4387 H 400.845 -3.38959 -2.01247 0
M  V30 4388 H 402.133 -4.11786 -2.98847 0
M  V30 4389 H 401.531 -1.94512 -5.31208 0
M  V30 4390 H 400.088 -2.59818 -5.97778 0
M  V30 4391 N 403.521 0.559213 -1.47345 0
M  V30 4392 C 404.769 1.31388 -1.53563 0
M  V30 4393 C 405.09 1.93985 -0.198678 0
M  V30 4394 O 404.36 1.79825 0.777167 0
M  V30 4395 H 402.94 0.487901 -0.565652 0
M  V30 4396 H 405.602 0.65315 -1.8363 0
M  V30 4397 H 404.698 2.10844 -2.30111 0
M  V30 4398 N 404.999 1.35443 0.805782 0
M  V30 4399 C 405.929 1.31095 1.93226 0
M  V30 4400 C 406.91 0.185244 1.69088 0
M  V30 4401 O 408.095 0.380332 1.90439 0
M  V30 4402 C 405.225 1.08299 3.29983 0
M  V30 4403 C 404.179 2.17519 3.68605 0
M  V30 4404 C 403.505 1.79887 5.03532 0
M  V30 4405 C 404.805 3.5949 3.78898 0
M  V30 4406 H 406.499 2.25352 1.97122 0
M  V30 4407 H 404.045 1.0848 0.946996 0
M  V30 4408 H 405.998 1.03897 4.08391 0
M  V30 4409 H 404.722 0.104885 3.26432 0
M  V30 4410 H 403.381 2.2102 2.92482 0
M  V30 4411 H 403.029 0.80693 4.96485 0
M  V30 4412 H 402.729 2.53001 5.30344 0
M  V30 4413 H 404.253 1.77011 5.84379 0
M  V30 4414 H 405.667 3.58307 4.47536 0
M  V30 4415 H 404.064 4.31371 4.1718 0
M  V30 4416 H 405.134 3.95584 2.80431 0
M  V30 4417 N 406.477 -1.02803 1.19454 0
M  V30 4418 C 407.724 -1.76217 0.997693 0
M  V30 4419 C 408.052 -1.887 -0.47144 0
M  V30 4420 O 407.307 -1.4011 -1.3663 0
M  V30 4421 C 407.606 -3.18941 1.6128 0
M  V30 4422 C 407.272 -3.26463 3.11019 0
M  V30 4423 C 405.934 -3.28223 3.51885 0
M  V30 4424 C 408.286 -3.25542 4.07028 0
M  V30 4425 C 405.614 -3.26719 4.8731 0
M  V30 4426 C 407.966 -3.25579 5.42385 0
M  V30 4427 C 406.63 -3.25637 5.82681 0
M  V30 4428 H 405.9 -0.644823 0.365082 0
M  V30 4429 H 408.547 -1.20655 1.4871 0
M  V30 4430 H 406.852 -3.77587 1.04572 0
M  V30 4431 H 408.549 -3.74415 1.43577 0
M  V30 4432 H 405.139 -3.25822 2.78457 0
M  V30 4433 H 409.323 -3.23362 3.76498 0
M  V30 4434 H 404.579 -3.25089 5.1781 0
M  V30 4435 H 408.753 -3.23817 6.16535 0
M  V30 4436 H 406.38 -3.24226 6.87591 0
M  V30 4437 N 407.956 -0.998596 -1.21925 0
M  V30 4438 C 408.886 -0.573688 -2.26343 0
M  V30 4439 C 409.867 0.402296 -1.65274 0
M  V30 4440 O 411.052 0.291683 -1.91997 0
M  V30 4441 C 408.182 0.106839 -3.47136 0
M  V30 4442 C 407.136 -0.788269 -4.20678 0
M  V30 4443 C 406.462 0.0254927 -5.34694 0
M  V30 4444 C 407.762 -2.08784 -4.78755 0
M  V30 4445 H 409.456 -1.44651 -2.62138 0
M  V30 4446 H 407.002 -0.696975 -1.26009 0
M  V30 4447 H 408.955 0.415531 -4.19346 0
M  V30 4448 H 407.679 1.01424 -3.10452 0
M  V30 4449 H 406.338 -1.08069 -3.50309 0
M  V30 4450 H 405.986 0.933989 -4.94253 0
M  V30 4451 H 405.686 -0.570437 -5.84825 0
M  V30 4452 H 407.21 0.328147 -6.09718 0
M  V30 4453 H 408.624 -1.84272 -5.42878 0
M  V30 4454 H 407.021 -2.63307 -5.39249 0
M  V30 4455 H 408.091 -2.76284 -3.98491 0
M  V30 4456 N 409.434 1.37368 -0.772513 0
M  V30 4457 C 410.681 1.99673 -0.337182 0
M  V30 4458 C 411.009 1.61324 1.0865 0
M  V30 4459 O 410.264 0.851377 1.7621 0
M  V30 4460 C 410.563 3.54817 -0.428876 0
M  V30 4461 C 410.229 4.12936 -1.81092 0
M  V30 4462 C 408.891 4.28523 -2.1891 0
M  V30 4463 C 411.243 4.44801 -2.71664 0
M  V30 4464 C 408.571 4.73277 -3.46735 0
M  V30 4465 C 410.923 4.90981 -3.98899 0
M  V30 4466 C 409.587 5.04773 -4.36761 0
M  V30 4467 H 408.857 0.730656 -0.123384 0
M  V30 4468 H 411.504 1.64124 -0.986686 0
M  V30 4469 H 409.809 3.90618 0.304167 0
M  V30 4470 H 411.506 4.00933 -0.0733334 0
M  V30 4471 H 408.096 4.01233 -1.50699 0
M  V30 4472 H 412.28 4.32344 -2.43706 0
M  V30 4473 H 407.536 4.82142 -3.75964 0
M  V30 4474 H 411.71 5.14603 -4.69208 0
M  V30 4475 H 409.337 5.39211 -5.35868 0
M  V30 4476 N 410.912 0.523116 1.48665 0
M  V30 4477 C 411.86 -0.256859 2.31177 0
M  V30 4478 C 412.854 -0.94199 1.40794 0
M  V30 4479 O 414.06 -0.867157 1.57735 0
M  V30 4480 H 410.435 -0.1017 0.745091 0
M  V30 4481 H 412.406 0.458739 2.94853 0
M  V30 4482 C 411.155 -1.29503 3.22683 0
M  V30 4483 H 410.478 -0.777248 3.92172 0
M  V30 4484 H 411.918 -1.81233 3.83315 0
M  V30 4485 C 410.377 -2.32501 2.43813 0
M  V30 4486 O 410.907 -3.3881 2.15803 0
M  V30 4487 N 409.113 -2.05538 2.05432 0
M  V30 4488 H 408.66 -1.19104 2.28412 0
M  V30 4489 H 408.618 -2.74676 1.52973 0
M  V30 4490 N 412.39 -1.55475 0.257931 0
M  V30 4491 C 413.801 -1.8511 -0.243135 0
M  V30 4492 C 414.152 -1.17986 -1.5676 0
M  V30 4493 O 413.277 -0.462102 -2.11409 0
M  V30 4494 C 413.872 -3.35826 -0.447929 0
M  V30 4495 C 412.431 -3.65647 -0.893245 0
M  V30 4496 C 411.578 -2.7729 0.0232965 0
M  V30 4497 H 414.529 -1.51261 0.480199 0
M  V30 4498 H 414.55 -3.58002 -1.28898 0
M  V30 4499 H 414.062 -3.84652 0.516196 0
M  V30 4500 H 412.163 -3.22308 -1.86945 0
M  V30 4501 H 412.276 -4.73312 -0.742469 0
M  V30 4502 H 410.64 -2.49942 -0.490021 0
M  V30 4503 H 411.423 -3.28926 0.982994 0
M  V30 4504 N 413.868 0.0150385 -1.57593 0
M  V30 4505 C 415.108 0.70768 -1.91758 0
M  V30 4506 C 415.472 1.71764 -0.857974 0
M  V30 4507 O 416.673 2.45956 -1.0844 0
M  V30 4508 C 414.944 1.34736 -3.3103 0
M  V30 4509 S 416.503 2.06721 -3.87056 0
M  V30 4510 H 413.321 0.234119 -0.671349 0
M  V30 4511 H 415.923 -0.0380373 -1.95463 0
M  V30 4512 H 414.627 0.59926 -4.06001 0
M  V30 4513 H 414.158 2.13133 -3.30663 0
M  V30 4514 H 416.173 3.34047 -3.66915 0
M  V30 4515 N 415.346 1.54954 0.287554 0
M  V30 4516 C 416.309 1.86076 1.33823 0
M  V30 4517 C 417.309 0.734414 1.43049 0
M  V30 4518 O 418.499 1.00266 1.42452 0
M  V30 4519 C 415.631 2.05305 2.72144 0
M  V30 4520 H 416.824 2.79984 1.07465 0
M  V30 4521 H 414.377 1.47223 0.524902 0
M  V30 4522 H 415.112 1.1373 3.03704 0
M  V30 4523 H 414.897 2.873 2.66836 0
M  V30 4524 H 416.387 2.30706 3.48087 0
M  V30 4525 N 416.824 -0.551391 1.4764 0
M  V30 4526 C 418.24 -0.877887 1.33287 0
M  V30 4527 C 418.44 -1.98817 0.327721 0
M  V30 4528 O 417.496 -2.51171 -0.258695 0
M  V30 4529 C 418.809 -1.26563 2.72768 0
M  V30 4530 C 420.357 -1.37673 2.81097 0
M  V30 4531 C 420.832 -1.79799 4.21232 0
M  V30 4532 N 422.323 -1.8694 4.23802 0
M  V30 4533 C 423.058 -2.20876 5.29151 0
M  V30 4534 N 422.554 -2.53386 6.448 0
M  V30 4535 N 424.347 -2.217 5.16532 0
M  V30 4536 H 416.498 0.18153 2.11623 0
M  V30 4537 H 418.761 0.0185514 0.947818 0
M  V30 4538 H 418.467 -0.523591 3.47781 0
M  V30 4539 H 418.341 -2.22052 3.04915 0
M  V30 4540 H 420.728 -2.10956 2.06353 0
M  V30 4541 H 420.809 -0.40357 2.52596 0
M  V30 4542 H 420.453 -1.07083 4.96483 0
M  V30 4543 H 420.383 -2.78128 4.4716 0
M  V30 4544 H 422.874 -1.64179 3.40373 0
M  V30 4545 H 423.187 -2.78325 7.20941 0
M  V30 4546 H 421.532 -2.50953 6.48111 0
M  V30 4547 H 424.723 -1.95745 4.25207 0
M  V30 4548 H 424.896 -2.47818 5.98741 0
M  V30 4549 N 418.302 -1.35869 -0.798587 0
M  V30 4550 C 419.551 -1.28921 -1.5512 0
M  V30 4551 C 419.864 0.13208 -1.95154 0
M  V30 4552 O 421.07 0.323879 -2.69561 0
M  V30 4553 C 419.526 -2.26141 -2.79979 0
M  V30 4554 C 419.134 -3.73658 -2.47151 0
M  V30 4555 C 420.878 -2.28152 -3.57976 0
M  V30 4556 C 418.785 -4.62679 -3.6835 0
M  V30 4557 H 417.715 -0.479031 -0.582276 0
M  V30 4558 H 420.366 -1.61179 -0.877125 0
M  V30 4559 H 418.748 -1.86865 -3.49138 0
M  V30 4560 H 419.922 -4.21616 -1.85947 0
M  V30 4561 H 418.237 -3.74333 -1.82383 0
M  V30 4562 H 420.834 -2.91875 -4.4801 0
M  V30 4563 H 421.177 -1.28748 -3.95891 0
M  V30 4564 H 421.71 -2.65998 -2.95787 0
M  V30 4565 H 418.449 -5.63111 -3.35538 0
M  V30 4566 H 417.969 -4.19442 -4.28752 0
M  V30 4567 H 419.648 -4.78498 -4.35487 0
M  V30 4568 N 419.78 1.02168 -1.19998 0
M  V30 4569 C 421.008 1.79296 -1.03249 0
M  V30 4570 C 421.423 1.84103 0.418502 0
M  V30 4571 O 420.78 1.29031 1.29063 0
M  V30 4572 C 420.831 3.24007 -1.60319 0
M  V30 4573 O 420.552 3.19512 -2.99739 0
M  V30 4574 C 422.053 4.17704 -1.48453 0
M  V30 4575 H 419.273 0.564016 -0.363493 0
M  V30 4576 H 421.817 1.28639 -1.58973 0
M  V30 4577 H 419.972 3.7183 -1.08727 0
M  V30 4578 H 420.386 4.10306 -3.26725 0
M  V30 4579 H 421.86 5.17104 -1.93153 0
M  V30 4580 H 422.337 4.37029 -0.436193 0
M  V30 4581 H 422.943 3.7576 -1.99211 0
M  V30 4582 N 421.258 1.00505 1.21394 0
M  V30 4583 C 422.221 0.570459 2.21987 0
M  V30 4584 C 423.221 -0.353211 1.56873 0
M  V30 4585 O 424.411 -0.14349 1.73608 0
M  V30 4586 C 421.543 -0.168555 3.40483 0
M  V30 4587 H 422.736 1.46021 2.6195 0
M  V30 4588 H 420.289 0.793565 1.34656 0
M  V30 4589 H 421.024 -1.07374 3.06009 0
M  V30 4590 H 420.809 0.494823 3.88965 0
M  V30 4591 H 422.299 -0.460362 4.15055 0
M  V30 4592 N 422.737 -1.36956 0.779787 0
M  V30 4593 C 423.965 -2.03755 0.359398 0
M  V30 4594 C 424.38 -1.58807 -1.02106 0
M  V30 4595 O 423.737 -0.773024 -1.6532 0
M  V30 4596 C 423.788 -3.59251 0.402568 0
M  V30 4597 O 423.509 -4.02557 1.72858 0
M  V30 4598 C 425.01 -4.43291 -0.0284068 0
M  V30 4599 H 422.23 -0.654148 0.149437 0
M  V30 4600 H 424.774 -1.75128 1.05595 0
M  V30 4601 H 422.929 -3.86621 -0.245478 0
M  V30 4602 H 423.343 -4.97111 1.67275 0
M  V30 4603 H 424.817 -5.51975 0.0529466 0
M  V30 4604 H 425.294 -4.25719 -1.07982 0
M  V30 4605 H 425.9 -4.21163 0.591758 0
M  V30 4606 N 424.215 -0.530993 -1.48385 0
M  V30 4607 C 425.147 0.268353 -2.27624 0
M  V30 4608 C 426.16 0.903525 -1.35426 0
M  V30 4609 O 427.349 0.781796 -1.60469 0
M  V30 4610 C 424.449 1.39535 -3.08842 0
M  V30 4611 C 423.622 0.861913 -4.28824 0
M  V30 4612 C 422.681 1.87016 -4.91845 0
M  V30 4613 O 421.707 1.4267 -5.5103 0
M  V30 4614 N 422.909 3.20238 -4.84178 0
M  V30 4615 H 425.674 -0.41123 -2.96865 0
M  V30 4616 H 423.235 -0.365387 -1.57723 0
M  V30 4617 H 425.227 2.06803 -3.47871 0
M  V30 4618 H 423.797 1.97859 -2.42014 0
M  V30 4619 H 423.017 0.0132126 -3.94198 0
M  V30 4620 H 424.305 0.484415 -5.06489 0
M  V30 4621 H 423.703 3.58932 -4.37246 0
M  V30 4622 H 422.26 3.83136 -5.27305 0
M  V30 4623 N 425.693 1.55336 -0.266172 0
M  V30 4624 C 426.656 2.20878 0.612001 0
M  V30 4625 C 427.656 1.18388 1.08816 0
M  V30 4626 O 428.846 1.4335 0.989774 0
M  V30 4627 C 425.978 2.86765 1.84332 0
M  V30 4628 H 427.171 2.99873 0.0398718 0
M  V30 4629 H 424.724 1.56291 -0.0167309 0
M  V30 4630 H 425.459 2.11759 2.45619 0
M  V30 4631 H 425.244 3.61862 1.5099 0
M  V30 4632 H 426.734 3.36867 2.46801 0
M  V30 4633 N 427.171 -0.0066808 1.57599 0
M  V30 4634 C 428.101 -0.999296 2.11036 0
M  V30 4635 C 429.082 -1.36278 1.01795 0
M  V30 4636 O 430.267 -1.4477 1.29442 0
M  V30 4637 C 427.397 -2.29328 2.60818 0
M  V30 4638 C 426.351 -2.07159 3.74525 0
M  V30 4639 C 425.677 -3.42512 4.10596 0
M  V30 4640 C 426.977 -1.43959 5.02069 0
M  V30 4641 H 428.671 -0.554382 2.94223 0
M  V30 4642 H 426.217 -0.265221 1.41536 0
M  V30 4643 H 428.17 -2.99117 2.96828 0
M  V30 4644 H 426.894 -2.7592 1.74745 0
M  V30 4645 H 425.553 -1.39797 3.38899 0
M  V30 4646 H 425.201 -3.86795 3.21556 0
M  V30 4647 H 424.901 -3.28498 4.87199 0
M  V30 4648 H 426.425 -4.13628 4.4916 0
M  V30 4649 H 427.839 -2.03696 5.35893 0
M  V30 4650 H 426.236 -1.40452 5.83432 0
M  V30 4651 H 427.306 -0.407992 4.83181 0
M  V30 4652 N 428.649 -1.55105 -0.279332 0
M  V30 4653 C 429.596 -1.8755 -1.34513 0
M  V30 4654 C 430.566 -0.726384 -1.49375 0
M  V30 4655 O 431.751 -0.977063 -1.63884 0
M  V30 4656 C 428.891 -2.14738 -2.70151 0
M  V30 4657 C 428.004 -3.42285 -2.63562 0
M  V30 4658 C 427.139 -3.59206 -3.91337 0
M  V30 4659 C 426.178 -4.80467 -3.79233 0
M  V30 4660 N 425.315 -4.94079 -4.98829 0
M  V30 4661 H 430.155 -2.78456 -1.06143 0
M  V30 4662 H 427.692 -1.37867 -0.512936 0
M  V30 4663 H 429.65 -2.28501 -3.49061 0
M  V30 4664 H 428.28 -1.27075 -2.96735 0
M  V30 4665 H 427.332 -3.37029 -1.76397 0
M  V30 4666 H 428.644 -4.31328 -2.50515 0
M  V30 4667 H 427.798 -3.72751 -4.78687 0
M  V30 4668 H 426.537 -2.68337 -4.07243 0
M  V30 4669 H 425.542 -4.66932 -2.90266 0
M  V30 4670 H 426.767 -5.72765 -3.64852 0
M  V30 4671 H 424.713 -4.06139 -5.15158 0
M  V30 4672 H 424.63 -5.77156 -4.8829 0
M  V30 4673 H 425.898 -5.12003 -5.8777 0
M  V30 4674 N 430.127 0.543554 -1.4793 0
M  V30 4675 C 431.06 1.66556 -1.55995 0
M  V30 4676 C 432.038 1.57315 -0.411205 0
M  V30 4677 O 433.222 1.7798 -0.620922 0
M  V30 4678 C 430.349 3.04883 -1.47527 0
M  V30 4679 C 429.395 3.32526 -2.67074 0
M  V30 4680 S 430.228 3.20282 -4.29162 0
M  V30 4681 C 431.384 4.61079 -4.23269 0
M  V30 4682 H 431.617 1.59462 -2.50917 0
M  V30 4683 H 429.15 0.725456 -1.36296 0
M  V30 4684 H 431.108 3.84665 -1.43328 0
M  V30 4685 H 429.769 3.09429 -0.539665 0
M  V30 4686 H 428.962 4.33403 -2.5725 0
M  V30 4687 H 428.564 2.60389 -2.68466 0
M  V30 4688 H 430.856 5.52318 -3.92365 0
M  V30 4689 H 431.799 4.75959 -5.24279 0
M  V30 4690 H 432.207 4.39766 -3.5393 0
M  V30 4691 N 431.605 1.3629 0.791371 0
M  V30 4692 C 432.552 1.30458 1.90393 0
M  V30 4693 C 433.522 0.173632 1.6519 0
M  V30 4694 O 434.707 0.35983 1.87376 0
M  V30 4695 C 431.847 1.09777 3.27174 0
M  V30 4696 C 430.96 2.31929 3.64462 0
M  V30 4697 C 430.095 2.04276 4.90352 0
M  V30 4698 C 429.134 3.224 5.20312 0
M  V30 4699 N 428.271 2.94424 6.37385 0
M  V30 4700 H 433.111 2.25589 1.94714 0
M  V30 4701 H 430.648 1.12122 0.952216 0
M  V30 4702 H 432.606 0.958133 4.06049 0
M  V30 4703 H 431.236 0.183014 3.22281 0
M  V30 4704 H 430.288 2.56703 2.80727 0
M  V30 4705 H 431.6 3.20085 3.82553 0
M  V30 4706 H 430.754 1.87231 5.77087 0
M  V30 4707 H 429.493 1.13428 4.74326 0
M  V30 4708 H 428.498 3.40005 4.32061 0
M  V30 4709 H 429.723 4.14071 5.38258 0
M  V30 4710 H 427.669 2.06185 6.22755 0
M  V30 4711 H 427.586 3.76118 6.55798 0
M  V30 4712 H 428.854 2.80953 7.27108 0
M  V30 4713 N 433.083 -1.0153 1.20538 0
M  V30 4714 C 434.313 -1.78487 1.04048 0
M  V30 4715 C 434.721 -1.84631 -0.413292 0
M  V30 4716 O 434.064 -1.29919 -1.29872 0
M  V30 4717 C 434.126 -3.24367 1.55003 0
M  V30 4718 C 433.79 -3.41827 3.0332 0
M  V30 4719 C 434.787 -3.30941 4.00966 0
M  V30 4720 C 432.472 -3.67602 3.42307 0
M  V30 4721 C 434.466 -3.45577 5.35589 0
M  V30 4722 C 432.153 -3.81881 4.77085 0
M  V30 4723 C 433.151 -3.70874 5.73534 0
M  V30 4724 O 432.839 -3.84714 7.05868 0
M  V30 4725 H 432.571 -0.568108 0.366373 0
M  V30 4726 H 435.125 -1.28677 1.60098 0
M  V30 4727 H 433.355 -3.75266 0.933397 0
M  V30 4728 H 435.044 -3.82963 1.34514 0
M  V30 4729 H 435.81 -3.10964 3.72191 0
M  V30 4730 H 431.689 -3.75256 2.67776 0
M  V30 4731 H 435.233 -3.36902 6.10854 0
M  V30 4732 H 431.13 -4.01359 5.0555 0
M  V30 4733 H 431.898 -4.01724 7.13134 0
M  V30 4734 N 434.561 -1.01147 -1.20859 0
M  V30 4735 C 435.808 -0.697865 -1.90095 0
M  V30 4736 C 436.136 0.772014 -1.78522 0
M  V30 4737 O 435.391 1.57595 -1.16027 0
M  V30 4738 C 435.69 -1.0727 -3.40922 0
M  V30 4739 C 435.356 -2.53792 -3.72693 0
M  V30 4740 C 434.018 -2.93829 -3.81075 0
M  V30 4741 C 436.37 -3.48674 -3.87397 0
M  V30 4742 C 433.698 -4.27696 -4.01613 0
M  V30 4743 C 436.05 -4.82223 -4.09444 0
M  V30 4744 C 434.714 -5.21973 -4.16054 0
M  V30 4745 H 433.984 -0.255367 -0.695607 0
M  V30 4746 H 436.631 -1.27111 -1.43231 0
M  V30 4747 H 434.936 -0.417799 -3.89566 0
M  V30 4748 H 436.633 -0.807818 -3.92779 0
M  V30 4749 H 433.223 -2.21768 -3.66765 0
M  V30 4750 H 437.407 -3.18904 -3.80281 0
M  V30 4751 H 432.663 -4.58055 -4.04964 0
M  V30 4752 H 436.837 -5.55672 -4.19763 0
M  V30 4753 H 434.464 -6.25717 -4.31721 0
M  V30 4754 N 436.039 1.36541 -0.78704 0
M  V30 4755 C 437.264 2.0409 -0.369053 0
M  V30 4756 C 437.689 1.58957 1.00569 0
M  V30 4757 O 437.047 0.756926 1.64743 0
M  V30 4758 C 437.095 3.57924 -0.438466 0
M  V30 4759 O 436.199 4.08642 0.555479 0
M  V30 4760 H 435.54 0.645142 -0.157122 0
M  V30 4761 H 438.07 1.74545 -1.06749 0
M  V30 4762 H 438.08 4.06887 -0.301218 0
M  V30 4763 H 436.755 3.90127 -1.44132 0
M  V30 4764 H 435.332 3.70958 0.380088 0
M  V30 4765 N 437.518 0.538854 1.48102 0
M  V30 4766 C 438.466 -0.232325 2.31437 0
M  V30 4767 C 439.46 -0.927004 1.41785 0
M  V30 4768 O 440.666 -0.850378 1.58646 0
M  V30 4769 H 437.041 -0.0937916 0.746128 0
M  V30 4770 H 439.012 0.489986 2.9435 0
M  V30 4771 C 437.761 -1.26074 3.24038 0
M  V30 4772 H 437.084 -0.735609 3.92974 0
M  V30 4773 H 438.524 -1.77157 3.85216 0
M  V30 4774 C 436.983 -2.29902 2.46265 0
M  V30 4775 O 437.513 -3.36502 2.19384 0
M  V30 4776 N 435.719 -2.03348 2.07601 0
M  V30 4777 H 435.266 -1.16675 2.29662 0
M  V30 4778 H 435.224 -2.73038 1.55877 0
M  V30 4779 N 438.996 -1.55193 0.274407 0
M  V30 4780 C 440.412 -1.59401 -0.0797543 0
M  V30 4781 C 440.612 -1.29162 -1.54659 0
M  V30 4782 O 439.668 -1.05215 -2.29534 0
M  V30 4783 C 440.981 -2.99257 0.294238 0
M  V30 4784 C 442.529 -3.12072 0.240796 0
M  V30 4785 C 443.004 -4.54194 0.589218 0
M  V30 4786 N 444.495 -4.60033 0.540744 0
M  V30 4787 C 445.23 -5.68027 0.783147 0
M  V30 4788 N 444.726 -6.8417 1.09013 0
M  V30 4789 N 446.519 -5.57572 0.711993 0
M  V30 4790 H 438.67 -1.73113 1.23067 0
M  V30 4791 H 440.933 -0.807197 0.497129 0
M  V30 4792 H 440.639 -3.26217 1.31435 0
M  V30 4793 H 440.513 -3.75427 -0.365281 0
M  V30 4794 H 442.9 -2.84877 -0.770024 0
M  V30 4795 H 442.981 -2.38117 0.934563 0
M  V30 4796 H 442.625 -4.82115 1.59772 0
M  V30 4797 H 442.555 -5.26448 -0.126331 0
M  V30 4798 H 445.046 -3.76599 0.313327 0
M  V30 4799 H 445.359 -7.6243 1.26178 0
M  V30 4800 H 443.704 -6.85787 1.12789 0
M  V30 4801 H 446.895 -4.65714 0.472014 0
M  V30 4802 H 447.068 -6.41659 0.90429 0
M  V30 4803 N 440.474 -0.00167713 -1.576 0
M  V30 4804 C 441.885 0.54091 -1.78693 0
M  V30 4805 C 442.236 1.7386 -0.909247 0
M  V30 4806 O 441.361 2.16109 -0.112176 0
M  V30 4807 C 441.956 0.98806 -3.24072 0
M  V30 4808 C 440.515 1.47594 -3.46256 0
M  V30 4809 C 439.662 0.42792 -2.73978 0
M  V30 4810 H 442.613 -0.22784 -1.57056 0
M  V30 4811 H 442.634 1.85398 -3.32277 0
M  V30 4812 H 442.146 0.116164 -3.87926 0
M  V30 4813 H 440.247 2.36868 -2.87618 0
M  V30 4814 H 440.36 1.50225 -4.54939 0
M  V30 4815 H 438.724 0.889934 -2.38647 0
M  V30 4816 H 439.507 -0.435038 -3.40532 0
M  V30 4817 N 441.952 1.55251 0.271103 0
M  V30 4818 C 443.2 1.75599 1.00047 0
M  V30 4819 C 443.521 0.561188 1.8675 0
M  V30 4820 O 442.791 -0.423846 1.9126 0
M  V30 4821 H 441.371 0.647562 0.372387 0
M  V30 4822 H 444.033 1.92656 0.294876 0
M  V30 4823 H 443.129 2.65766 1.6363 0
M  V30 4824 N 443.43 -0.535701 1.48216 0
M  V30 4825 C 444.841 -1.11769 1.49548 0
M  V30 4826 C 445.192 -1.94442 0.26207 0
M  V30 4827 O 444.317 -2.06987 -0.631287 0
M  V30 4828 C 444.912 -2.03367 2.70975 0
M  V30 4829 C 443.471 -2.56795 2.75196 0
M  V30 4830 C 442.618 -1.33631 2.42977 0
M  V30 4831 H 445.569 -0.321232 1.55415 0
M  V30 4832 H 445.59 -2.87569 2.49167 0
M  V30 4833 H 445.102 -1.43169 3.60727 0
M  V30 4834 H 443.203 -3.20731 1.89638 0
M  V30 4835 H 443.316 -2.9632 3.76472 0
M  V30 4836 H 441.68 -1.6502 1.94012 0
M  V30 4837 H 442.463 -0.75194 3.34964 0
M  V30 4838 N 444.908 -1.36708 -0.784132 0
M  V30 4839 C 446.136 -1.34398 -1.57305 0
M  V30 4840 C 446.551 0.0735577 -1.88657 0
M  V30 4841 O 445.908 1.03193 -1.50524 0
M  V30 4842 C 445.959 -2.17053 -2.89085 0
M  V30 4843 O 445.68 -3.53281 -2.59083 0
M  V30 4844 C 447.181 -2.22583 -3.83369 0
M  V30 4845 H 444.401 -0.460819 -0.487736 0
M  V30 4846 H 446.945 -1.79879 -0.972819 0
M  V30 4847 H 445.1 -1.75113 -3.45564 0
M  V30 4848 H 445.514 -3.9647 -3.43383 0
M  V30 4849 H 446.988 -2.84763 -4.72878 0
M  V30 4850 H 447.465 -1.23075 -4.21603 0
M  V30 4851 H 448.071 -2.64781 -3.32823 0
M  V30 4852 N 446.386 1.0089 -1.21074 0
M  V30 4853 C 447.797 1.56056 -1.02486 0
M  V30 4854 C 448.148 1.91728 0.416506 0
M  V30 4855 O 447.273 1.73066 1.29912 0
M  V30 4856 C 447.868 2.83563 -1.85411 0
M  V30 4857 C 446.427 3.3523 -1.71166 0
M  V30 4858 C 445.574 2.0846 -1.82865 0
M  V30 4859 H 448.525 0.831818 -1.35154 0
M  V30 4860 H 448.546 3.55286 -1.36205 0
M  V30 4861 H 448.058 2.57569 -2.9031 0
M  V30 4862 H 446.159 3.66167 -0.689361 0
M  V30 4863 H 446.272 4.06913 -2.52901 0
M  V30 4864 H 444.636 2.21275 -1.26132 0
M  V30 4865 H 445.419 1.84883 -2.89263 0
M  V30 4866 N 447.864 1.01787 1.20321 0
M  V30 4867 C 449.112 0.706538 1.89347 0
M  V30 4868 C 449.433 -0.766289 1.79313 0
M  V30 4869 O 448.703 -1.55126 1.19635 0
M  V30 4870 H 447.283 0.258348 0.700903 0
M  V30 4871 H 449.945 1.28974 1.46122 0
M  V30 4872 H 449.041 0.991066 2.95946 0
M  V30 4873 N 449.342 -1.36122 0.79427 0
M  V30 4874 C 450.582 -2.00942 0.374376 0
M  V30 4875 C 450.946 -1.61666 -1.03577 0
M  V30 4876 O 452.147 -2.19113 -1.55701 0
M  V30 4877 C 450.418 -3.53323 0.538327 0
M  V30 4878 S 451.977 -4.38311 0.20703 0
M  V30 4879 H 448.795 -0.696515 0.142785 0
M  V30 4880 H 451.397 -1.65929 1.03382 0
M  V30 4881 H 450.101 -3.79395 1.56484 0
M  V30 4882 H 449.632 -3.93162 -0.136882 0
M  V30 4883 H 451.647 -4.8623 -0.989695 0
M  V30 4884 N 450.82 -0.546701 -1.47814 0
M  V30 4885 C 451.752 0.244196 -2.27895 0
M  V30 4886 C 452.765 0.88911 -1.36377 0
M  V30 4887 O 453.954 0.764733 -1.61289 0
M  V30 4888 C 451.054 1.36252 -3.10304 0
M  V30 4889 C 450.227 0.816382 -4.29714 0
M  V30 4890 C 449.286 1.81789 -4.93801 0
M  V30 4891 O 448.312 1.36818 -5.52512 0
M  V30 4892 N 449.514 3.15085 -4.87547 0
M  V30 4893 H 452.279 -0.442694 -2.96412 0
M  V30 4894 H 449.84 -0.382095 -1.57327 0
M  V30 4895 H 451.832 2.03102 -3.50045 0
M  V30 4896 H 450.402 1.95281 -2.44099 0
M  V30 4897 H 449.622 -0.0285981 -3.9419 0
M  V30 4898 H 450.91 0.430668 -5.06974 0
M  V30 4899 H 450.308 3.54275 -4.41028 0
M  V30 4900 H 448.865 3.77522 -5.31339 0
M  V30 4901 N 452.299 1.55045 -0.282633 0
M  V30 4902 C 453.229 2.2579 0.595066 0
M  V30 4903 C 454.21 1.25074 1.15284 0
M  V30 4904 O 455.395 1.5381 1.18559 0
M  V30 4905 C 452.525 2.98472 1.77572 0
M  V30 4906 C 451.479 4.0618 1.34914 0
M  V30 4907 C 450.805 4.66477 2.6135 0
M  V30 4908 C 452.105 5.1996 0.493821 0
M  V30 4909 H 453.799 2.994 0.00505653 0
M  V30 4910 H 451.345 1.44 0.000992001 0
M  V30 4911 H 453.298 3.46677 2.39568 0
M  V30 4912 H 452.022 2.2241 2.39168 0
M  V30 4913 H 450.681 3.58797 0.752338 0
M  V30 4914 H 450.329 3.87074 3.2122 0
M  V30 4915 H 450.029 5.39207 2.33516 0
M  V30 4916 H 451.553 5.17435 3.24181 0
M  V30 4917 H 452.967 5.64172 1.01898 0
M  V30 4918 H 451.364 5.99299 0.310047 0
M  V30 4919 H 452.434 4.82462 -0.485593 0
M  V30 4920 N 453.777 0.010035 1.57597 0
M  V30 4921 C 455.188 -0.531426 1.78977 0
M  V30 4922 C 455.539 -1.73375 0.918454 0
M  V30 4923 O 454.664 -2.16047 0.123635 0
M  V30 4924 C 455.259 -0.97086 3.24592 0
M  V30 4925 C 453.818 -1.45756 3.47033 0
M  V30 4926 C 452.965 -0.413384 2.74201 0
M  V30 4927 H 455.916 0.236166 1.56933 0
M  V30 4928 H 455.937 -1.83633 3.33255 0
M  V30 4929 H 455.449 -0.0955893 3.87982 0
M  V30 4930 H 453.55 -2.35339 2.88871 0
M  V30 4931 H 453.663 -1.4781 4.55729 0
M  V30 4932 H 452.027 -0.877266 2.39115 0
M  V30 4933 H 452.81 0.453092 3.40297 0
M  V30 4934 N 455.255 -1.55392 -0.262866 0
M  V30 4935 C 456.671 -1.47459 -0.610582 0
M  V30 4936 C 456.871 -0.697031 -1.8906 0
M  V30 4937 O 455.927 -0.219952 -2.5154 0
M  V30 4938 C 457.24 -2.91751 -0.728131 0
M  V30 4939 C 458.788 -3.02027 -0.821517 0
M  V30 4940 C 459.263 -4.47594 -0.97076 0
M  V30 4941 N 460.754 -4.51465 -1.03603 0
M  V30 4942 C 461.489 -5.61326 -1.17049 0
M  V30 4943 N 460.985 -6.81032 -1.2715 0
M  V30 4944 N 462.778 -5.49089 -1.20239 0
M  V30 4945 H 454.929 -2.04395 0.577632 0
M  V30 4946 H 457.192 -0.927287 0.197086 0
M  V30 4947 H 456.898 -3.51413 0.142132 0
M  V30 4948 H 456.772 -3.4134 -1.6052 0
M  V30 4949 H 459.159 -2.42456 -1.68224 0
M  V30 4950 H 459.24 -2.55674 0.0803688 0
M  V30 4951 H 458.884 -5.07771 -0.114655 0
M  V30 4952 H 458.814 -4.91613 -1.88745 0
M  V30 4953 H 461.305 -3.6524 -0.96996 0
M  V30 4954 H 461.618 -7.60511 -1.37271 0
M  V30 4955 H 459.963 -6.83824 -1.24136 0
M  V30 4956 H 463.154 -4.54507 -1.11985 0
M  V30 4957 H 463.327 -6.34749 -1.30373 0
M  V30 4958 N 456.733 0.527833 -1.48498 0
M  V30 4959 C 458.144 1.10975 -1.50138 0
M  V30 4960 C 458.495 1.943 -0.272378 0
M  V30 4961 O 457.62 2.07319 0.620301 0
M  V30 4962 C 458.215 2.01927 -2.72049 0
M  V30 4963 C 456.774 2.55332 -2.76554 0
M  V30 4964 C 455.921 1.32341 -2.43683 0
M  V30 4965 H 458.872 0.312986 -1.55583 0
M  V30 4966 H 458.893 2.86244 -2.50689 0
M  V30 4967 H 458.405 1.41254 -3.61481 0
M  V30 4968 H 456.506 3.19721 -1.91336 0
M  V30 4969 H 456.619 2.94319 -3.78038 0
M  V30 4970 H 454.983 1.63989 -1.94884 0
M  V30 4971 H 455.766 0.734165 -3.35358 0
M  V30 4972 N 458.211 1.37122 0.776871 0
M  V30 4973 C 459.159 1.32549 1.91138 0
M  V30 4974 C 460.153 0.215119 1.68029 0
M  V30 4975 O 461.359 0.382852 1.75881 0
M  V30 4976 H 457.734 0.412952 0.62847 0
M  V30 4977 H 459.705 2.28332 1.92112 0
M  V30 4978 C 458.454 1.14422 3.28333 0
M  V30 4979 H 457.777 1.99115 3.46689 0
M  V30 4980 H 459.217 1.15272 4.0803 0
M  V30 4981 C 457.676 -0.150434 3.36564 0
M  V30 4982 O 458.206 -1.13584 3.85307 0
M  V30 4983 N 456.412 -0.19939 2.89915 0
M  V30 4984 H 455.959 0.603142 2.5044 0
M  V30 4985 H 455.917 -1.06526 2.95803 0
M  V30 4986 N 459.689 -1.00246 1.21608 0
M  V30 4987 C 460.929 -1.75589 1.04631 0
M  V30 4988 C 461.293 -1.87513 -0.412648 0
M  V30 4989 O 462.494 -2.59444 -0.703003 0
M  V30 4990 C 460.765 -3.12893 1.72722 0
M  V30 4991 S 462.324 -4.04095 1.71034 0
M  V30 4992 H 459.142 -0.604133 0.374892 0
M  V30 4993 H 461.744 -1.19927 1.54395 0
M  V30 4994 H 460.448 -3.0185 2.78055 0
M  V30 4995 H 459.979 -3.73628 1.23149 0
M  V30 4996 H 461.994 -4.9045 0.753231 0
M  V30 4997 N 461.167 -1.02423 -1.1978 0
M  V30 4998 C 462.578 -0.748389 -1.71044 0
M  V30 4999 C 462.929 0.732398 -1.82017 0
M  V30 5000 O 462.054 1.57116 -1.48807 0
M  V30 5001 C 462.649 -1.35187 -3.1066 0
M  V30 5002 C 461.208 -1.12472 -3.59203 0
M  V30 5003 C 460.355 -1.45283 -2.36195 0
M  V30 5004 H 463.306 -1.19275 -1.04686 0
M  V30 5005 H 463.327 -0.746408 -3.73107 0
M  V30 5006 H 462.839 -2.4296 -3.02642 0
M  V30 5007 H 460.94 -0.0649983 -3.72543 0
M  V30 5008 H 461.053 -1.81016 -4.43588 0
M  V30 5009 H 459.417 -0.872034 -2.39307 0
M  V30 5010 H 460.2 -2.54129 -2.30811 0
M  V30 5011 N 462.645 1.35699 -0.801477 0
M  V30 5012 C 463.891 1.99208 -0.380022 0
M  V30 5013 C 464.224 1.63445 1.04878 0
M  V30 5014 O 463.499 0.895223 1.72673 0
M  V30 5015 C 463.782 3.55755 -0.557708 0
M  V30 5016 C 463.635 4.01332 -2.03107 0
M  V30 5017 C 464.954 4.40096 0.0197968 0
M  V30 5018 H 462.073 0.723667 -0.139552 0
M  V30 5019 H 464.715 1.60928 -1.01006 0
M  V30 5020 H 462.865 3.88494 -0.0213741 0
M  V30 5021 H 464.537 3.79026 -2.62939 0
M  V30 5022 H 462.78 3.52429 -2.52936 0
M  V30 5023 H 463.451 5.10234 -2.1063 0
M  V30 5024 H 465.927 4.13786 -0.438179 0
M  V30 5025 H 464.803 5.48735 -0.134477 0
M  V30 5026 H 465.064 4.2786 1.11303 0
M  V30 5027 N 464.123 0.554532 1.47522 0
M  V30 5028 C 465.033 -0.197865 2.33764 0
M  V30 5029 C 466.049 -0.914576 1.48025 0
M  V30 5030 O 467.225 -0.884067 1.80959 0
M  V30 5031 C 464.29 -1.21628 3.24665 0
M  V30 5032 C 463.351 -0.507283 4.26292 0
M  V30 5033 C 462.584 -1.47718 5.1285 0
M  V30 5034 O 462.807 -2.7118 5.01814 0
M  V30 5035 O 461.741 -1.00313 5.93482 0
M  V30 5036 H 465.567 0.50949 2.99396 0
M  V30 5037 H 463.152 0.315176 1.46038 0
M  V30 5038 H 465.034 -1.80421 3.80823 0
M  V30 5039 H 463.709 -1.9056 2.61665 0
M  V30 5040 H 462.616 0.121778 3.73902 0
M  V30 5041 H 463.949 0.140544 4.91999 0
M  V30 5042 N 465.601 -1.54893 0.290851 0
M  V30 5043 C 466.829 -2.04343 -0.324288 0
M  V30 5044 C 467.244 -1.16859 -1.48289 0
M  V30 5045 O 466.601 -0.192018 -1.81487 0
M  V30 5046 C 466.652 -3.52756 -0.79026 0
M  V30 5047 O 466.373 -4.36913 0.322213 0
M  V30 5048 C 467.874 -4.18161 -1.4716 0
M  V30 5049 H 465.094 -0.667135 -0.0719173 0
M  V30 5050 H 467.638 -1.99981 0.427529 0
M  V30 5051 H 465.793 -3.57511 -1.49213 0
M  V30 5052 H 466.207 -5.24486 -0.0387372 0
M  V30 5053 H 467.681 -5.23562 -1.7489 0
M  V30 5054 H 468.158 -3.67282 -2.40834 0
M  V30 5055 H 468.764 -4.17454 -0.813178 0
M  V30 5056 N 467.08 -0.0183926 -1.57589 0
M  V30 5057 C 468.01 0.965596 -2.12599 0
M  V30 5058 C 468.991 1.34641 -1.0395 0
M  V30 5059 O 470.176 1.42693 -1.31729 0
M  V30 5060 C 467.306 2.25149 -2.64434 0
M  V30 5061 C 466.26 2.01175 -3.77773 0
M  V30 5062 C 465.586 3.35937 -4.15994 0
M  V30 5063 C 466.886 1.35953 -5.04296 0
M  V30 5064 H 468.58 0.507504 -2.95067 0
M  V30 5065 H 466.126 0.242671 -1.41941 0
M  V30 5066 H 468.079 2.94357 -3.01549 0
M  V30 5067 H 466.803 2.73105 -1.79112 0
M  V30 5068 H 465.462 1.34388 -3.4108 0
M  V30 5069 H 465.11 3.81631 -3.27669 0
M  V30 5070 H 464.81 3.20705 -4.92364 0
M  V30 5071 H 466.334 4.0643 -4.55683 0
M  V30 5072 H 467.748 1.95144 -5.39065 0
M  V30 5073 H 466.145 1.31152 -5.85593 0
M  V30 5074 H 467.215 0.331071 -4.83768 0
M  V30 5075 N 468.558 1.5553 0.254621 0
M  V30 5076 C 469.505 1.89666 1.31512 0
M  V30 5077 C 470.475 0.750057 1.482 0
M  V30 5078 O 471.66 1.00301 1.62309 0
M  V30 5079 C 468.8 2.19009 2.667 0
M  V30 5080 C 467.913 3.46435 2.58083 0
M  V30 5081 C 467.048 3.65386 3.85573 0
M  V30 5082 C 466.087 4.8644 3.71541 0
M  V30 5083 N 465.224 5.01952 4.90906 0
M  V30 5084 H 470.064 2.80109 1.017 0
M  V30 5085 H 467.601 1.38666 0.490938 0
M  V30 5086 H 469.559 2.34025 3.45381 0
M  V30 5087 H 468.189 1.31779 2.94676 0
M  V30 5088 H 467.241 3.39792 1.71013 0
M  V30 5089 H 468.553 4.35258 2.43622 0
M  V30 5090 H 467.707 3.80319 4.72697 0
M  V30 5091 H 466.446 2.74781 4.02922 0
M  V30 5092 H 465.451 4.71491 2.82801 0
M  V30 5093 H 466.676 5.78497 3.55694 0
M  V30 5094 H 464.622 4.14283 5.08631 0
M  V30 5095 H 464.539 5.84851 4.79046 0
M  V30 5096 H 465.807 5.21289 5.7955 0
M  V30 5097 N 470.036 -0.519951 1.48776 0
M  V30 5098 C 470.946 -1.65025 1.66745 0
M  V30 5099 C 471.962 -1.6508 0.549954 0
M  V30 5100 O 473.138 -1.83848 0.822295 0
M  V30 5101 C 470.203 -3.0146 1.71238 0
M  V30 5102 C 469.264 -3.12182 2.94688 0
M  V30 5103 C 468.497 -4.42109 2.98958 0
M  V30 5104 O 468.72 -5.29799 2.1135 0
M  V30 5105 O 467.654 -4.57406 3.91233 0
M  V30 5106 H 471.48 -1.52801 2.62461 0
M  V30 5107 H 469.065 -0.694157 1.32294 0
M  V30 5108 H 470.947 -3.82584 1.76657 0
M  V30 5109 H 469.622 -3.13988 0.786975 0
M  V30 5110 H 468.529 -2.30316 2.94797 0
M  V30 5111 H 469.862 -3.04574 3.86646 0
M  V30 5112 N 471.514 -1.37532 -0.769588 0
M  V30 5113 C 472.446 -1.29347 -1.89214 0
M  V30 5114 C 473.459 -0.208842 -1.61455 0
M  V30 5115 O 474.648 -0.465158 -1.72333 0
M  V30 5116 C 471.748 -0.977649 -3.24492 0
M  V30 5117 C 470.921 -2.16817 -3.7988 0
M  V30 5118 C 469.98 -1.82229 -4.93639 0
M  V30 5119 O 469.006 -2.54548 -5.09111 0
M  V30 5120 N 470.208 -0.767696 -5.75401 0
M  V30 5121 H 472.973 -2.26073 -1.96751 0
M  V30 5122 H 470.534 -1.31185 -0.948795 0
M  V30 5123 H 472.526 -0.727065 -3.98115 0
M  V30 5124 H 471.096 -0.0988777 -3.12444 0
M  V30 5125 H 470.316 -2.58038 -2.9801 0
M  V30 5126 H 471.604 -2.96308 -4.13617 0
M  V30 5127 H 471.002 -0.167626 -5.65452 0
M  V30 5128 H 469.559 -0.576973 -6.49241 0
M  V30 5129 N 472.992 0.995999 -1.22138 0
M  V30 5130 C 474.217 1.77601 -1.0711 0
M  V30 5131 C 474.642 1.84339 0.374264 0
M  V30 5132 O 474 1.29359 1.27028 0
M  V30 5133 C 474.048 3.18897 -1.68336 0
M  V30 5134 O 473.152 4.01663 -0.934928 0
M  V30 5135 H 472.493 0.547011 -0.376397 0
M  V30 5136 H 475.023 1.25137 -1.6187 0
M  V30 5137 H 475.033 3.69539 -1.72931 0
M  V30 5138 H 473.708 3.13308 -2.73516 0
M  V30 5139 H 472.285 3.60204 -0.964751 0
M  V30 5140 N 474.47 1.03057 1.19235 0
M  V30 5141 C 475.418 0.606391 2.24557 0
M  V30 5142 C 476.412 -0.361826 1.65491 0
M  V30 5143 O 477.618 -0.23022 1.78522 0
M  V30 5144 H 473.993 0.177838 0.730669 0
M  V30 5145 H 475.964 1.50529 2.5765 0
M  V30 5146 C 474.713 -0.0252127 3.47691 0
M  V30 5147 H 474.036 0.710838 3.9343 0
M  V30 5148 H 475.476 -0.284931 4.23042 0
M  V30 5149 C 473.935 -1.27229 3.11953 0
M  V30 5150 O 474.465 -2.36416 3.24762 0
M  V30 5151 N 472.671 -1.16169 2.6637 0
M  V30 5152 H 472.218 -0.273189 2.56147 0
M  V30 5153 H 472.176 -1.99703 2.42829 0
M  V30 5154 N 475.948 -1.35272 0.808662 0
M  V30 5155 C 477.359 -1.81179 0.450688 0
M  V30 5156 C 477.71 -1.67143 -1.02751 0
M  V30 5157 O 476.835 -1.20325 -1.79864 0
M  V30 5158 C 477.43 -3.28943 0.811275 0
M  V30 5159 C 475.989 -3.72985 0.505871 0
M  V30 5160 C 475.136 -2.57229 1.03578 0
M  V30 5161 H 478.087 -1.2322 1.00012 0
M  V30 5162 H 478.108 -3.80342 0.109588 0
M  V30 5163 H 477.62 -3.39127 1.88718 0
M  V30 5164 H 475.721 -3.68349 -0.561209 0
M  V30 5165 H 475.834 -4.67677 1.03995 0
M  V30 5166 H 474.198 -2.50548 0.458005 0
M  V30 5167 H 474.981 -2.7019 2.11784 0
M  V30 5168 N 477.426 -0.562348 -1.47226 0
M  V30 5169 C 478.389 0.172056 -2.28553 0
M  V30 5170 C 479.389 0.837928 -1.37242 0
M  V30 5171 O 480.579 0.693001 -1.59822 0
M  V30 5172 C 477.711 1.25223 -3.17068 0
M  V30 5173 H 478.904 -0.542401 -2.94954 0
M  V30 5174 H 476.457 -0.319493 -1.53 0
M  V30 5175 H 477.192 1.99892 -2.55369 0
M  V30 5176 H 476.977 0.779515 -3.84273 0
M  V30 5177 H 478.467 1.76791 -3.78332 0
M  V30 5178 N 478.904 1.54736 -0.299062 0
M  V30 5179 C 479.834 2.26409 0.571085 0
M  V30 5180 C 480.815 1.2629 1.13951 0
M  V30 5181 O 482 1.55059 1.16921 0
M  V30 5182 C 479.13 3.00338 1.74396 0
M  V30 5183 C 478.084 4.07588 1.30599 0
M  V30 5184 C 477.41 4.69222 2.56387 0
M  V30 5185 C 478.71 5.20455 0.438645 0
M  V30 5186 H 480.404 2.99388 -0.0266991 0
M  V30 5187 H 477.95 1.43993 -0.0142812 0
M  V30 5188 H 479.903 3.49198 2.35878 0
M  V30 5189 H 478.627 2.24934 2.36796 0
M  V30 5190 H 477.286 3.59575 0.71424 0
M  V30 5191 H 476.934 3.9046 3.17097 0
M  V30 5192 H 476.634 5.41653 2.27784 0
M  V30 5193 H 478.158 5.20844 3.18675 0
M  V30 5194 H 479.572 5.65221 0.959085 0
M  V30 5195 H 477.969 5.99594 0.246466 0
M  V30 5196 H 479.039 4.8192 -0.536738 0
M  V30 5197 N 480.382 0.0267497 1.57577 0
M  V30 5198 C 481.345 -0.940916 2.08996 0
M  V30 5199 C 482.345 -1.25561 1.00455 0
M  V30 5200 O 483.535 -1.19634 1.26623 0
M  V30 5201 C 480.667 -2.25814 2.55384 0
M  V30 5202 H 481.86 -0.495628 2.95776 0
M  V30 5203 H 479.413 -0.221241 1.54726 0
M  V30 5204 H 480.148 -2.74976 1.71926 0
M  V30 5205 H 479.933 -2.04285 3.34679 0
M  V30 5206 H 481.423 -2.95178 2.95398 0
M  V30 5207 N 481.861 -1.55662 -0.24637 0
M  V30 5208 C 483.11 -1.7672 -0.972254 0
M  V30 5209 C 483.423 -0.59078 -1.86465 0
M  V30 5210 O 484.629 -0.684391 -2.62732 0
M  V30 5211 C 483.085 -3.12869 -1.7788 0
M  V30 5212 C 482.693 -4.38161 -0.933768 0
M  V30 5213 C 484.437 -3.43265 -2.49738 0
M  V30 5214 C 482.344 -5.6534 -1.73623 0
M  V30 5215 H 481.274 -0.658795 -0.366749 0
M  V30 5216 H 483.925 -1.82092 -0.226902 0
M  V30 5217 H 482.307 -3.01606 -2.56612 0
M  V30 5218 H 483.481 -4.60413 -0.188736 0
M  V30 5219 H 481.796 -4.15102 -0.328488 0
M  V30 5220 H 484.393 -4.35501 -3.10231 0
M  V30 5221 H 484.736 -2.64614 -3.2138 0
M  V30 5222 H 485.269 -3.55746 -1.78016 0
M  V30 5223 H 482.008 -6.46814 -1.06354 0
M  V30 5224 H 481.528 -5.47188 -2.45653 0
M  V30 5225 H 483.207 -6.04616 -2.30323 0
M  V30 5226 N 483.339 0.512053 -1.4905 0
M  V30 5227 C 484.286 1.6148 -1.64902 0
M  V30 5228 C 485.256 1.58687 -0.490673 0
M  V30 5229 O 486.441 1.76842 -0.71636 0
M  V30 5230 C 483.581 2.99676 -1.71139 0
M  V30 5231 C 482.694 3.12568 -2.98203 0
M  V30 5232 C 481.829 4.4143 -2.95487 0
M  V30 5233 C 480.868 4.47916 -4.17179 0
M  V30 5234 N 480.005 5.68191 -4.12437 0
M  V30 5235 H 484.845 1.47271 -2.59066 0
M  V30 5236 H 482.382 0.716713 -1.28459 0
M  V30 5237 H 484.34 3.79761 -1.72736 0
M  V30 5238 H 482.97 3.12614 -0.804508 0
M  V30 5239 H 482.022 2.25618 -3.06269 0
M  V30 5240 H 483.334 3.1322 -3.88194 0
M  V30 5241 H 482.488 5.29825 -2.95585 0
M  V30 5242 H 481.227 4.43326 -2.03256 0
M  V30 5243 H 480.232 3.57925 -4.17337 0
M  V30 5244 H 481.457 4.47744 -5.1059 0
M  V30 5245 H 479.403 5.7095 -3.23036 0
M  V30 5246 H 479.32 5.70413 -4.96151 0
M  V30 5247 H 480.588 6.58823 -4.16621 0
M  V30 5248 N 484.817 1.37938 0.762283 0
M  V30 5249 C 486.233 1.18945 1.06415 0
M  V30 5250 C 486.433 0.0321163 2.01474 0
M  V30 5251 O 485.489 -0.624844 2.44647 0
M  V30 5252 C 486.802 2.51218 1.65258 0
M  V30 5253 C 488.35 2.57824 1.7747 0
M  V30 5254 C 488.825 3.90251 2.39725 0
M  V30 5255 N 490.316 3.91744 2.47166 0
M  V30 5256 C 491.051 4.90966 2.96209 0
M  V30 5257 N 490.547 6.00585 3.45354 0
M  V30 5258 N 492.34 4.78363 2.9517 0
M  V30 5259 H 484.491 2.11994 0.131301 0
M  V30 5260 H 486.754 0.940262 0.120879 0
M  V30 5261 H 486.46 3.36317 1.02878 0
M  V30 5262 H 486.334 2.68989 2.64433 0
M  V30 5263 H 488.721 1.73126 2.3898 0
M  V30 5264 H 488.802 2.43928 0.770241 0
M  V30 5265 H 488.446 4.75368 1.78852 0
M  V30 5266 H 488.376 4.01454 3.40796 0
M  V30 5267 H 490.867 3.12563 2.12397 0
M  V30 5268 H 491.18 6.72236 3.81207 0
M  V30 5269 H 489.525 6.04217 3.43434 0
M  V30 5270 H 492.716 3.91841 2.56082 0
M  V30 5271 H 492.889 5.55843 3.33081 0
M  V30 5272 N 486.295 -0.989507 1.22664 0
M  V30 5273 C 487.242 -2.08024 0.999733 0
M  V30 5274 C 488.212 -1.65909 -0.0797047 0
M  V30 5275 O 489.397 -1.90669 0.0705715 0
M  V30 5276 C 486.537 -3.40067 0.587234 0
M  V30 5277 C 485.65 -3.95505 1.73781 0
M  V30 5278 C 484.785 -5.15722 1.27297 0
M  V30 5279 C 483.824 -5.63305 2.39488 0
M  V30 5280 N 482.961 -6.74758 1.94026 0
M  V30 5281 H 487.801 -2.26768 1.9334 0
M  V30 5282 H 485.338 -1.11171 0.963297 0
M  V30 5283 H 487.296 -4.15899 0.329227 0
M  V30 5284 H 485.926 -3.21314 -0.309426 0
M  V30 5285 H 484.978 -3.16513 2.11006 0
M  V30 5286 H 486.29 -4.26797 2.58158 0
M  V30 5287 H 485.444 -5.98854 0.972546 0
M  V30 5288 H 484.183 -4.86061 0.399445 0
M  V30 5289 H 483.188 -4.78759 2.70315 0
M  V30 5290 H 484.413 -5.94988 3.27362 0
M  V30 5291 H 482.359 -6.46874 1.09041 0
M  V30 5292 H 482.276 -7.05386 2.71968 0
M  V30 5293 H 483.544 -7.61387 1.67062 0
M  V30 5294 N 487.773 -1.03688 -1.18687 0
M  V30 5295 C 489.189 -0.755413 -1.4059 0
M  V30 5296 C 489.389 0.656659 -1.905 0
M  V30 5297 O 488.445 1.42144 -2.08689 0
M  V30 5298 C 489.758 -1.7983 -2.41001 0
M  V30 5299 C 491.306 -1.81877 -2.54735 0
M  V30 5300 C 491.781 -2.85148 -3.58406 0
M  V30 5301 N 493.272 -2.84015 -3.6591 0
M  V30 5302 C 494.007 -3.60573 -4.45841 0
M  V30 5303 N 493.503 -4.46871 -5.29413 0
M  V30 5304 N 495.296 -3.49079 -4.40568 0
M  V30 5305 H 487.447 -1.94818 -0.846148 0
M  V30 5306 H 489.71 -0.842727 -0.434184 0
M  V30 5307 H 489.416 -2.81097 -2.1137 0
M  V30 5308 H 489.29 -1.62727 -3.40294 0
M  V30 5309 H 491.677 -0.812836 -2.83685 0
M  V30 5310 H 491.758 -2.03057 -1.55568 0
M  V30 5311 H 491.402 -3.85918 -3.30197 0
M  V30 5312 H 491.332 -2.61224 -4.57241 0
M  V30 5313 H 493.823 -2.21431 -3.0623 0
M  V30 5314 H 494.136 -5.02007 -5.87545 0
M  V30 5315 H 492.481 -4.5094 -5.28846 0
M  V30 5316 H 495.672 -2.81066 -3.74325 0
M  V30 5317 H 495.845 -4.08994 -5.02621 0
M  V30 5318 N 489.251 1.34841 -0.815825 0
M  V30 5319 C 490.479 2.0273 -0.413294 0
M  V30 5320 C 490.894 1.61459 0.978599 0
M  V30 5321 O 490.251 0.816584 1.63212 0
M  V30 5322 C 490.302 3.58058 -0.497676 0
M  V30 5323 O 490.023 3.97832 -1.8347 0
M  V30 5324 C 491.524 4.4321 -0.0891339 0
M  V30 5325 H 488.744 0.649956 -0.166728 0
M  V30 5326 H 491.288 1.72267 -1.10201 0
M  V30 5327 H 489.443 3.87136 0.142886 0
M  V30 5328 H 489.857 4.92501 -1.80396 0
M  V30 5329 H 491.331 5.5164 -0.199274 0
M  V30 5330 H 491.808 4.28432 0.966571 0
M  V30 5331 H 492.414 4.19446 -0.703214 0
M  V30 5332 N 490.729 0.570148 1.46925 0
M  V30 5333 C 491.639 -0.173061 2.33961 0
M  V30 5334 C 492.655 -0.898825 1.48987 0
M  V30 5335 O 493.831 -0.864825 1.81887 0
M  V30 5336 C 490.896 -1.18177 3.25937 0
M  V30 5337 C 489.957 -0.462041 4.26806 0
M  V30 5338 C 489.19 -1.4227 5.14388 0
M  V30 5339 O 489.413 -2.65842 5.04662 0
M  V30 5340 O 488.347 -0.940127 5.94513 0
M  V30 5341 H 492.173 0.541216 2.98839 0
M  V30 5342 H 489.758 0.330647 1.45695 0
M  V30 5343 H 491.64 -1.76372 3.82715 0
M  V30 5344 H 490.315 -1.87774 2.63671 0
M  V30 5345 H 489.222 0.161429 3.73752 0
M  V30 5346 H 490.555 0.192719 4.91823 0
M  V30 5347 N 492.207 -1.54576 0.307264 0
M  V30 5348 C 493.17 -2.22423 -0.553224 0
M  V30 5349 C 494.17 -1.21231 -1.05639 0
M  V30 5350 O 495.36 -1.45923 -0.951419 0
M  V30 5351 C 492.492 -2.91552 -1.76664 0
M  V30 5352 H 493.685 -2.99874 0.0396484 0
M  V30 5353 H 491.238 -1.56192 0.0581629 0
M  V30 5354 H 491.973 -2.18196 -2.39918 0
M  V30 5355 H 491.758 -3.65738 -1.41343 0
M  V30 5356 H 493.248 -3.43292 -2.37783 0
M  V30 5357 N 493.685 -0.035106 -1.57561 0
M  V30 5358 C 494.615 0.942993 -2.13612 0
M  V30 5359 C 495.596 1.33531 -1.05373 0
M  V30 5360 O 496.781 1.41287 -1.33235 0
M  V30 5361 C 493.911 2.22332 -2.66807 0
M  V30 5362 C 492.865 1.97156 -3.79886 0
M  V30 5363 C 492.191 3.31506 -4.19533 0
M  V30 5364 C 493.491 1.30596 -5.05709 0
M  V30 5365 H 495.185 0.476179 -2.95589 0
M  V30 5366 H 492.731 0.227602 -1.4219 0
M  V30 5367 H 494.684 2.91142 -3.04654 0
M  V30 5368 H 493.408 2.7119 -1.81999 0
M  V30 5369 H 492.067 1.30763 -3.42486 0
M  V30 5370 H 491.715 3.78134 -3.31698 0
M  V30 5371 H 491.415 3.15465 -4.95738 0
M  V30 5372 H 492.939 4.01574 -4.59968 0
M  V30 5373 H 494.353 1.89416 -5.41105 0
M  V30 5374 H 492.75 1.24934 -5.86951 0
M  V30 5375 H 493.82 0.279742 -4.84092 0
M  V30 5376 N 495.163 1.55791 0.238111 0
M  V30 5377 C 496.073 1.94196 1.31625 0
M  V30 5378 C 497.089 0.843545 1.52185 0
M  V30 5379 O 498.265 1.1457 1.65637 0
M  V30 5380 C 495.33 2.2365 2.64918 0
M  V30 5381 C 494.391 3.46971 2.52804 0
M  V30 5382 C 493.624 3.7501 3.79741 0
M  V30 5383 O 493.847 3.04982 4.82019 0
M  V30 5384 O 492.781 4.68525 3.77846 0
M  V30 5385 H 496.607 2.86044 1.02043 0
M  V30 5386 H 494.192 1.42786 0.439603 0
M  V30 5387 H 496.074 2.43863 3.4367 0
M  V30 5388 H 494.749 1.34979 2.94215 0
M  V30 5389 H 493.656 3.32055 1.72309 0
M  V30 5390 H 494.989 4.35971 2.28451 0
M  V30 5391 N 496.642 -0.504142 1.49319 0
M  V30 5392 C 497.574 -1.62265 1.61872 0
M  V30 5393 C 498.587 -1.54881 0.501573 0
M  V30 5394 O 499.776 -1.6087 0.773497 0
M  V30 5395 C 496.876 -3.01042 1.55651 0
M  V30 5396 C 496.049 -3.33642 2.82845 0
M  V30 5397 C 495.108 -4.51816 2.69719 0
M  V30 5398 O 494.134 -4.53755 3.4365 0
M  V30 5399 N 495.336 -5.51543 1.81055 0
M  V30 5400 H 498.101 -1.51924 2.58339 0
M  V30 5401 H 495.662 -0.691954 1.46368 0
M  V30 5402 H 497.654 -3.78013 1.44528 0
M  V30 5403 H 496.224 -3.05323 0.670546 0
M  V30 5404 H 495.444 -2.45598 3.08343 0
M  V30 5405 H 496.732 -3.5222 3.67177 0
M  V30 5406 H 496.13 -5.52774 1.20241 0
M  V30 5407 H 494.687 -6.27629 1.75856 0
M  V30 5408 N 498.12 -1.38341 -0.754957 0
M  V30 5409 C 499.368 -1.34208 -1.51105 0
M  V30 5410 C 499.689 0.0677634 -1.94882 0
M  V30 5411 O 498.959 1.01517 -1.67544 0
M  V30 5412 H 497.539 -0.493819 -0.560493 0
M  V30 5413 H 500.201 -1.73005 -0.897507 0
M  V30 5414 H 499.297 -1.99203 -2.4026 0
M  V30 5415 N 499.598 0.982988 -1.23187 0
M  V30 5416 C 500.846 1.72052 -1.06031 0
M  V30 5417 C 501.167 1.90769 0.404019 0
M  V30 5418 O 500.437 1.47446 1.28982 0
M  V30 5419 H 499.017 0.637499 -0.389363 0
M  V30 5420 H 501.679 1.18338 -1.54862 0
M  V30 5421 H 500.775 2.7111 -1.54615 0
M  V30 5422 N 501.076 1.04316 1.18135 0
M  V30 5423 C 502.006 0.657299 2.24058 0
M  V30 5424 C 502.987 -0.340678 1.66654 0
M  V30 5425 O 504.172 -0.220223 1.92947 0
M  V30 5426 C 501.302 0.0220715 3.47293 0
M  V30 5427 C 500.256 0.943857 4.17463 0
M  V30 5428 C 499.582 0.172973 5.3442 0
M  V30 5429 C 500.882 2.26409 4.70677 0
M  V30 5430 H 502.576 1.5428 2.56589 0
M  V30 5431 H 500.122 0.743263 1.23335 0
M  V30 5432 H 502.075 -0.259607 4.206 0
M  V30 5433 H 500.799 -0.898323 3.14003 0
M  V30 5434 H 499.458 1.20996 3.46057 0
M  V30 5435 H 499.106 -0.749907 4.97379 0
M  V30 5436 H 498.806 0.787098 5.82304 0
M  V30 5437 H 500.33 -0.101628 6.10515 0
M  V30 5438 H 501.744 2.04294 5.35665 0
M  V30 5439 H 500.141 2.8314 5.29105 0
M  V30 5440 H 501.211 2.90883 3.87962 0
M  V30 5441 N 502.554 -1.34406 0.822964 0
M  V30 5442 C 503.965 -1.8069 0.469879 0
M  V30 5443 C 504.316 -1.68223 -1.00972 0
M  V30 5444 O 503.441 -1.22226 -1.78577 0
M  V30 5445 C 504.036 -3.28064 0.846118 0
M  V30 5446 C 502.595 -3.72428 0.545402 0
M  V30 5447 C 501.742 -2.56116 1.06301 0
M  V30 5448 H 504.693 -1.22153 1.01313 0
M  V30 5449 H 504.714 -3.80205 0.149922 0
M  V30 5450 H 504.226 -3.37107 1.92304 0
M  V30 5451 H 502.327 -3.68924 -0.522109 0
M  V30 5452 H 502.44 -4.66548 1.0895 0
M  V30 5453 H 500.804 -2.50048 0.484554 0
M  V30 5454 H 501.587 -2.67928 2.14638 0
M  V30 5455 N 504.032 -0.577932 -1.46621 0
M  V30 5456 C 504.979 0.158048 -2.30258 0
M  V30 5457 C 505.949 0.888669 -1.40328 0
M  V30 5458 O 507.134 0.880283 -1.6928 0
M  V30 5459 C 504.274 1.16884 -3.24703 0
M  V30 5460 C 503.387 0.442163 -4.29731 0
M  V30 5461 C 502.522 1.44007 -5.11308 0
M  V30 5462 C 501.561 0.69952 -6.0809 0
M  V30 5463 N 500.698 1.64525 -6.82551 0
M  V30 5464 H 505.538 -0.561242 -2.92667 0
M  V30 5465 H 503.075 -0.288591 -1.44241 0
M  V30 5466 H 505.033 1.7677 -3.779 0
M  V30 5467 H 503.663 1.85591 -2.64113 0
M  V30 5468 H 502.715 -0.271632 -3.79429 0
M  V30 5469 H 504.027 -0.136992 -4.98612 0
M  V30 5470 H 503.181 2.11186 -5.68758 0
M  V30 5471 H 501.92 2.05315 -4.42377 0
M  V30 5472 H 500.925 0.0139217 -5.49798 0
M  V30 5473 H 502.15 0.091894 -6.79038 0
M  V30 5474 H 500.096 2.24653 -6.16334 0
M  V30 5475 H 500.013 1.11878 -7.47676 0
M  V30 5476 H 501.281 2.30754 -7.44562 0
M  V30 5477 N 505.51 1.54411 -0.315457 0
M  V30 5478 C 506.457 2.24048 0.554166 0
M  V30 5479 C 507.427 1.2283 1.11812 0
M  V30 5480 O 508.612 1.51491 1.15997 0
M  V30 5481 C 505.752 2.99574 1.71316 0
M  V30 5482 C 504.865 4.15594 1.17922 0
M  V30 5483 C 504 4.78669 2.30324 0
M  V30 5484 C 503.039 5.86807 1.74137 0
M  V30 5485 N 502.176 6.43777 2.8017 0
M  V30 5486 H 507.016 2.97964 -0.0462602 0
M  V30 5487 H 504.553 1.47059 -0.0346009 0
M  V30 5488 H 506.511 3.41604 2.39505 0
M  V30 5489 H 505.141 2.28008 2.285 0
M  V30 5490 H 504.193 3.78404 0.389136 0
M  V30 5491 H 505.505 4.93459 0.728012 0
M  V30 5492 H 504.659 5.23626 3.06433 0
M  V30 5493 H 503.398 4.00168 2.78778 0
M  V30 5494 H 502.403 5.41261 0.965236 0
M  V30 5495 H 503.628 6.67201 1.2657 0
M  V30 5496 H 501.574 5.68153 3.2793 0
M  V30 5497 H 501.491 7.17031 2.39588 0
M  V30 5498 H 502.759 6.9339 3.56132 0
M  V30 5499 N 506.988 0.0434614 1.5754 0
M  V30 5500 C 507.918 -0.931651 2.14109 0
M  V30 5501 C 508.899 -1.32971 1.06079 0
M  V30 5502 O 510.084 -1.40579 1.33982 0
M  V30 5503 C 507.214 -2.20914 2.67982 0
M  V30 5504 C 506.168 -1.95139 3.80926 0
M  V30 5505 C 505.494 -3.29276 4.21285 0
M  V30 5506 C 506.794 -1.27913 5.06395 0
M  V30 5507 H 508.488 -0.460497 2.95837 0
M  V30 5508 H 506.034 -0.220058 1.42309 0
M  V30 5509 H 507.987 -2.89522 3.06194 0
M  V30 5510 H 506.711 -2.70221 1.83434 0
M  V30 5511 H 505.37 -1.28945 3.43175 0
M  V30 5512 H 505.018 -3.76369 3.33699 0
M  V30 5513 H 504.718 -3.12831 4.97404 0
M  V30 5514 H 506.242 -3.99129 4.62091 0
M  V30 5515 H 507.656 -1.86544 5.42102 0
M  V30 5516 H 506.053 -1.2182 5.87605 0
M  V30 5517 H 507.123 -0.254066 4.84234 0
M  V30 5518 N 508.466 -1.55915 -0.229846 0
M  V30 5519 C 509.715 -1.77742 -0.953455 0
M  V30 5520 C 510.028 -0.610524 -1.85828 0
M  V30 5521 O 511.234 -0.712219 -2.61992 0
M  V30 5522 C 509.69 -3.14738 -1.74551 0
M  V30 5523 C 509.298 -4.39126 -0.887242 0
M  V30 5524 C 511.042 -3.45895 -2.46084 0
M  V30 5525 C 508.949 -5.67149 -1.67617 0
M  V30 5526 H 507.879 -0.662648 -0.359741 0
M  V30 5527 H 510.53 -1.82322 -0.207576 0
M  V30 5528 H 508.912 -3.04311 -2.53399 0
M  V30 5529 H 510.086 -4.60588 -0.139892 0
M  V30 5530 H 508.401 -4.15427 -0.284443 0
M  V30 5531 H 510.998 -4.38767 -3.05594 0
M  V30 5532 H 511.341 -2.68007 -3.18556 0
M  V30 5533 H 511.874 -3.57614 -1.74233 0
M  V30 5534 H 508.613 -6.47906 -0.994881 0
M  V30 5535 H 508.133 -5.49763 -2.39836 0
M  V30 5536 H 509.812 -6.07025 -2.23898 0
M  V30 5537 N 509.944 0.496216 -1.49584 0
M  V30 5538 C 511.191 1.25003 -1.59312 0
M  V30 5539 C 511.519 1.92445 -0.28198 0
M  V30 5540 O 510.774 1.81557 0.730452 0
M  V30 5541 C 511.073 2.3359 -2.705 0
M  V30 5542 C 510.739 1.83574 -4.11839 0
M  V30 5543 C 509.401 1.69653 -4.50302 0
M  V30 5544 C 511.753 1.46193 -5.00277 0
M  V30 5545 C 509.081 1.16736 -5.74969 0
M  V30 5546 C 511.433 0.947265 -6.25468 0
M  V30 5547 C 510.097 0.794485 -6.62755 0
M  V30 5548 H 509.367 0.45742 -0.582965 0
M  V30 5549 H 512.014 0.549996 -1.83432 0
M  V30 5550 H 510.319 3.09401 -2.40371 0
M  V30 5551 H 512.016 2.91627 -2.75235 0
M  V30 5552 H 508.606 1.9537 -3.81482 0
M  V30 5553 H 512.79 1.55793 -4.71214 0
M  V30 5554 H 508.046 1.03623 -6.02555 0
M  V30 5555 H 512.22 0.648846 -6.93371 0
M  V30 5556 H 509.847 0.382271 -7.59238 0
M  V30 5557 O 511.461 1.48211 0.641547 0
M  V30 5558 H 512.152 1.44016 1.29535 0
M  V30 END ATOM
M  V30 BEGIN BOND
M  V30 END BOND
M  V30 END CTAB
M  END
$$$$
